
     RDKit          3D

 35 37  0  0  0  0  0  0  0  0999 V2000
   47.1573   34.2366   42.3846 N   0  0  0  0  0  0  0  0  0  0  0  0
   47.9984   35.0541   41.5315 C   0  0  0  0  0  0  0  0  0  0  0  0
   47.7088   34.3954   40.2182 C   0  0  2  0  0  0  0  0  0  0  0  0
   47.9044   32.9328   40.5688 C   0  0  0  0  0  0  0  0  0  0  0  0
   47.3724   32.8642   41.9770 C   0  0  0  0  0  0  0  0  0  0  0  0
   44.5826   35.9505   44.4691 C   0  0  0  0  0  0  0  0  0  0  0  0
   45.4091   35.6840   43.3801 C   0  0  0  0  0  0  0  0  0  0  0  0
   46.2792   34.6027   43.4199 C   0  0  0  0  0  0  0  0  0  0  0  0
   46.2717   33.8445   44.5567 N   0  0  0  0  0  0  0  0  0  0  0  0
   45.4782   34.0949   45.6105 C   0  0  0  0  0  0  0  0  0  0  0  0
   44.6292   35.1534   45.5665 N   0  0  0  0  0  0  0  0  0  0  0  0
   48.6597   34.7279   39.1972 N   0  0  0  0  0  0  0  0  0  0  0  0
   47.5932   36.0653   41.5547 H   0  0  0  0  0  0  0  0  0  0  0  0
   49.0652   34.9848   41.7944 H   0  0  0  0  0  0  0  0  0  0  0  0
   46.6601   34.6038   39.9132 H   0  0  0  0  0  0  0  0  0  0  0  0
   47.4322   32.2416   39.8618 H   0  0  0  0  0  0  0  0  0  0  0  0
   49.0204   32.7970   40.6281 H   0  0  0  0  0  0  0  0  0  0  0  0
   47.9962   32.2780   42.6726 H   0  0  0  0  0  0  0  0  0  0  0  0
   46.3348   32.4266   41.8899 H   0  0  0  0  0  0  0  0  0  0  0  0
   43.8963   36.7914   44.4556 H   0  0  0  0  0  0  0  0  0  0  0  0
   45.4013   36.2868   42.5011 H   0  0  0  0  0  0  0  0  0  0  0  0
   45.5700   33.4201   46.4453 H   0  0  0  0  0  0  0  0  0  0  0  0
   49.2873   33.9507   38.8239 H   0  0  0  0  0  0  0  0  0  0  0  0
   50.4145   36.7483   41.6039 N   0  0  0  0  0  0  0  0  0  0  0  0
   50.0634   36.8679   40.5021 C   0  0  0  0  0  0  0  0  0  0  0  0
   49.6479   37.0163   39.1166 C   0  0  0  0  0  0  0  0  0  0  0  0
   48.9619   35.9420   38.5369 C   0  0  0  0  0  0  0  0  0  0  0  0
   48.6056   36.1637   37.2254 C   0  0  0  0  0  0  0  0  0  0  0  0
   48.0796   35.4388   36.6244 H   0  0  0  0  0  0  0  0  0  0  0  0
   48.8675   37.3023   36.5037 C   0  0  0  0  0  0  0  0  0  0  0  0
   48.5903   37.4775   35.4804 H   0  0  0  0  0  0  0  0  0  0  0  0
   49.5419   38.3308   37.1097 C   0  0  0  0  0  0  0  0  0  0  0  0
   49.9236   38.1641   38.4221 C   0  0  0  0  0  0  0  0  0  0  0  0
   49.8234   39.2812   36.6882 H   0  0  0  0  0  0  0  0  0  0  0  0
   50.4586   38.9240   38.9750 H   0  0  0  0  0  0  0  0  0  0  0  0
  1  8  1  0
  2  1  1  0
  3  4  1  0
  3  2  1  0
  4  5  1  0
  5  1  1  0
  6 11  2  0
  7  8  2  0
  7  6  1  0
  8  9  1  0
  9 10  2  0
 11 10  1  0
 12  3  1  0
  2 13  1  0
  2 14  1  0
  3 15  1  6
  4 16  1  0
  4 17  1  0
  5 18  1  0
  5 19  1  0
  6 20  1  0
  7 21  1  0
 10 22  1  0
 12 23  1  0
 24 25  3  0
 25 26  1  0
 26 27  2  0
 27 28  1  0
 28 29  1  0
 28 30  2  0
 30 31  1  0
 30 32  1  0
 32 33  2  0
 33 26  1  0
 32 34  1  0
 33 35  1  0
 12 27  1  0
M  ISO  8  13  13  14  13  15  13  16  13  17  13  18  13  19  13  20  14
M  ISO  5  21  14  22  14  23   5  29  15  31  16
M  END
>  <DihAtoms>  (1) 
2,11,26,25

>  <DihDeg>  (1) 
178.22644531633014

$$$$
