
     RDKit          3D

 45 47  0  0  0  0  0  0  0  0999 V2000
   44.9919   34.6462   44.9333 C   0  0  0  0  0  0  0  0  0  0  0  0
   45.9019   34.5993   43.8377 C   0  0  0  0  0  0  0  0  0  0  0  0
   47.0149   33.7449   43.9529 C   0  0  0  0  0  0  0  0  0  0  0  0
   47.1628   33.0184   45.0869 N   0  0  0  0  0  0  0  0  0  0  0  0
   46.2900   33.0806   46.1059 C   0  0  0  0  0  0  0  0  0  0  0  0
   45.2218   33.8926   46.0100 N   0  0  0  0  0  0  0  0  0  0  0  0
   46.5116   32.2977   47.2462 N   0  0  0  0  0  0  0  0  0  0  0  0
   47.7260   32.4498   47.9956 C   0  0  0  0  0  0  0  0  0  0  0  0
   48.0126   31.3040   48.9169 C   0  0  0  0  0  0  0  0  0  0  0  0
   46.8792   30.6614   49.4834 N   0  0  0  0  0  0  0  0  0  0  0  0
   45.6254   31.2824   49.1512 C   0  0  0  0  0  0  0  0  0  0  0  0
   45.4963   31.3384   47.6496 C   0  0  2  0  0  0  0  0  0  0  0  0
   45.6998   30.0012   47.0168 C   0  0  0  0  0  0  0  0  0  0  0  0
   44.8616   29.0038   47.7848 C   0  0  0  0  0  0  0  0  0  0  0  0
   45.1428   27.7177   47.7732 C   0  0  0  0  0  0  0  0  0  0  0  0
   44.3645   26.6717   48.5016 C   0  0  0  0  0  0  0  0  0  0  0  0
   44.1403   35.3033   44.8395 H   0  0  0  0  0  0  0  0  0  0  0  0
   45.7931   35.1669   42.9427 H   0  0  0  0  0  0  0  0  0  0  0  0
   47.7501   33.6620   43.1490 H   0  0  0  0  0  0  0  0  0  0  0  0
   47.7653   33.4268   48.5501 H   0  0  0  0  0  0  0  0  0  0  0  0
   48.5606   32.4959   47.2611 H   0  0  0  0  0  0  0  0  0  0  0  0
   48.6614   30.5357   48.4432 H   0  0  0  0  0  0  0  0  0  0  0  0
   48.6122   31.7201   49.7707 H   0  0  0  0  0  0  0  0  0  0  0  0
   46.8718   29.6366   49.4962 H   0  0  0  0  0  0  0  0  0  0  0  0
   44.8124   30.6689   49.5856 H   0  0  0  0  0  0  0  0  0  0  0  0
   45.5840   32.3073   49.5381 H   0  0  0  0  0  0  0  0  0  0  0  0
   44.5081   31.7804   47.4154 H   0  0  0  0  0  0  0  0  0  0  0  0
   45.4078   30.0448   45.9549 H   0  0  0  0  0  0  0  0  0  0  0  0
   46.7621   29.7123   47.1802 H   0  0  0  0  0  0  0  0  0  0  0  0
   43.9863   29.2208   48.3961 H   0  0  0  0  0  0  0  0  0  0  0  0
   45.9874   27.3271   47.2113 H   0  0  0  0  0  0  0  0  0  0  0  0
   43.4965   27.0787   49.0365 H   0  0  0  0  0  0  0  0  0  0  0  0
   45.0408   26.0944   49.1656 H   0  0  0  0  0  0  0  0  0  0  0  0
   41.1822   27.9040   47.3603 N   0  0  0  0  0  0  0  0  0  0  0  0
   41.8478   26.9914   47.1067 C   0  0  0  0  0  0  0  0  0  0  0  0
   42.6671   25.8773   46.7844 C   0  0  0  0  0  0  0  0  0  0  0  0
   43.8666   25.7338   47.4567 C   0  0  0  0  0  0  0  0  0  0  0  0
   44.6380   24.6199   47.1038 C   0  0  0  0  0  0  0  0  0  0  0  0
   45.5829   24.5085   47.6352 H   0  0  0  0  0  0  0  0  0  0  0  0
   44.2946   23.6771   46.1549 C   0  0  0  0  0  0  0  0  0  0  0  0
   44.9767   22.8660   45.9766 H   0  0  0  0  0  0  0  0  0  0  0  0
   43.0927   23.8571   45.5090 C   0  0  0  0  0  0  0  0  0  0  0  0
   42.3031   24.9343   45.8218 C   0  0  0  0  0  0  0  0  0  0  0  0
   42.8364   23.1109   44.7673 H   0  0  0  0  0  0  0  0  0  0  0  0
   41.3711   25.0321   45.2888 H   0  0  0  0  0  0  0  0  0  0  0  0
  1  6  2  0
  2  3  2  0
  2  1  1  0
  3  4  1  0
  4  5  2  0
  5  7  1  0
  6  5  1  0
  7 12  1  0
  7  8  1  0
  8  9  1  0
  9 10  1  0
 11 10  1  0
 12 11  1  0
 13 12  1  0
 13 14  1  0
 14 15  2  0
 15 16  1  0
  1 17  1  0
  2 18  1  0
  3 19  1  0
  8 20  1  0
  8 21  1  0
  9 22  1  0
  9 23  1  0
 10 24  1  0
 11 25  1  0
 11 26  1  0
 12 27  1  1
 13 28  1  0
 13 29  1  0
 14 30  1  0
 15 31  1  0
 16 32  1  0
 16 33  1  0
 34 35  3  0
 35 36  1  0
 36 37  2  0
 37 38  1  0
 38 39  1  0
 38 40  2  0
 40 41  1  0
 40 42  1  0
 42 43  2  0
 43 36  1  0
 42 44  1  0
 43 45  1  0
 16 37  1  0
M  ISO  8  17  14  18  14  19  14  20  13  21  13  22  13  23  13  24   5
M  ISO  8  25  13  26  13  27  13  28   8  29   8  32   8  33   8  39  15
M  ISO  1  41  16
M  END
>  <DihAtoms>  (1) 
14,15,36,35

>  <DihDeg>  (1) 
75.87976256949538

$$$$
