
 OpenBabel03252508033D

 43 46  0  0  1  0  0  0  0  0999 V2000
   42.0400   33.2760   41.1320 C   0  0  0  0  0  0  0  0  0  0  0  0
   42.8050   34.3950   41.3070 C   0  0  0  0  0  0  0  0  0  0  0  0
   42.1600   35.6480   41.2540 C   0  0  0  0  0  0  0  0  0  0  0  0
   40.8110   35.7960   41.0360 C   0  0  0  0  0  0  0  0  0  0  0  0
   40.0510   34.6670   40.8630 C   0  0  0  0  0  0  0  0  0  0  0  0
   40.6680   33.4520   40.9130 C   0  0  0  0  0  0  0  0  0  0  0  0
   42.6800   36.5880   41.3700 H   0  0  0  0  0  0  0  0  0  0  0  0
   40.3270   36.7340   40.9960 H   0  0  0  0  0  0  0  0  0  0  0  0
   39.0050   34.7040   40.6920 H   0  0  0  0  0  0  0  0  0  0  0  0
   40.0500   32.5510   40.7720 H   0  0  0  0  0  0  0  0  0  0  0  0
   42.6630   31.7190   41.2710 S   0  0  0  0  0  0  0  0  0  0  0  0
   41.5030   30.8960   40.6280 O   0  0  0  0  0  0  0  0  0  0  0  0
   42.7880   31.2600   42.6740 O   0  0  0  0  0  0  0  0  0  0  0  0
   43.7830   29.4680   40.5370 C   0  0  0  0  0  0  0  0  0  0  0  0
   43.7090   30.8620   40.2650 C   0  0  0  0  0  0  0  0  0  0  0  0
   44.4950   31.1800   39.1610 C   0  0  0  0  0  0  0  0  0  0  0  0
   44.3830   32.2580   38.9380 H   0  0  0  0  0  0  0  0  0  0  0  0
   45.2890   30.4120   38.3400 C   0  0  0  0  0  0  0  0  0  0  0  0
   45.8130   30.8910   37.5360 H   0  0  0  0  0  0  0  0  0  0  0  0
   45.2390   29.1250   38.7470 C   0  0  0  0  0  3  0  0  0  0  0  0
   44.5370   28.5950   39.7930 C   0  0  0  0  0  3  0  0  0  0  0  0
   42.4930   28.3410   42.5170 N   0  0  0  0  0  0  0  0  0  0  0  0
   43.0600   28.8500   41.6450 C   0  0  0  0  0  0  0  0  0  0  0  0
   44.2360   34.3460   41.5430 C   0  0  0  0  0  0  0  0  0  0  0  0
   45.1080   34.2360   40.6290 O   0  0  0  0  0  0  0  0  0  0  0  0
   44.5850   34.4380   42.9380 C   0  0  0  0  0  0  0  0  0  0  0  0
   44.3030   35.7010   43.5640 C   0  0  0  0  0  0  0  0  0  0  0  0
   44.6240   35.8140   44.9080 C   0  0  0  0  0  0  0  0  0  0  0  0
   45.1750   34.7430   45.5370 N   0  0  0  0  0  0  0  0  0  0  0  0
   45.4230   33.5590   44.8890 C   0  0  0  0  0  0  0  0  0  0  0  0
   45.1280   33.4470   43.6400 N   0  0  0  0  0  0  0  0  0  0  0  0
   43.8760   36.5830   43.1420 H   0  0  0  0  0  0  0  0  0  0  0  0
   44.4620   36.6980   45.4790 H   0  0  0  0  0  0  0  0  0  0  0  0
   46.0150   32.4440   45.6580 C   0  0  1  0  0  0  0  0  0  0  0  0
   46.9660   32.7580   46.7900 C   0  0  0  0  0  0  0  0  0  0  0  0
   45.5520   32.3430   47.0600 C   0  0  1  0  0  0  0  0  0  0  0  0
   46.1320   31.4930   45.1150 H   0  0  0  0  0  0  0  0  0  0  0  0
   47.2990   33.8030   46.8650 H   0  0  0  0  0  0  0  0  0  0  0  0
   47.7650   31.9890   46.9880 H   0  0  0  0  0  0  0  0  0  0  0  0
   45.4130   31.3600   47.5500 H   0  0  0  0  0  0  0  0  0  0  0  0
   44.7610   33.4100   47.6490 N   0  0  0  0  0  0  0  0  0  0  0  0
   45.2760   33.8490   48.4370 H   0  0  0  0  0  0  0  0  0  0  0  0
   43.8600   32.9830   48.0010 H   0  0  0  0  0  0  0  0  0  0  0  0
  1 11  1  0  0  0  0
  1  2  1  0  0  0  0
  2 24  1  0  0  0  0
  3  2  2  0  0  0  0
  3  7  1  0  0  0  0
  4  3  1  0  0  0  0
  5  6  1  0  0  0  0
  5  4  2  0  0  0  0
  6  1  2  0  0  0  0
  8  4  1  0  0  0  0
  9  5  1  0  0  0  0
 10  6  1  0  0  0  0
 11 13  2  0  0  0  0
 12 11  2  0  0  0  0
 14 23  1  0  0  0  0
 15 14  1  0  0  0  0
 15 11  1  0  0  0  0
 16 15  2  0  0  0  0
 17 16  1  0  0  0  0
 18 20  2  0  0  0  0
 18 16  1  0  0  0  0
 19 18  1  0  0  0  0
 20 21  1  0  0  0  0
 21 14  2  0  0  0  0
 23 22  3  0  0  0  0
 24 26  1  0  0  0  0
 25 24  2  0  0  0  0
 26 27  2  0  0  0  0
 26 31  1  0  0  0  0
 27 28  1  0  0  0  0
 28 33  1  0  0  0  0
 28 29  2  0  0  0  0
 30 29  1  0  0  0  0
 30 34  1  0  0  0  0
 31 30  2  0  0  0  0
 32 27  1  0  0  0  0
 34 37  1  6  0  0  0
 34 35  1  0  0  0  0
 34 36  1  0  0  0  0
 35 38  1  0  0  0  0
 35 39  1  0  0  0  0
 35 36  1  0  0  0  0
 36 40  1  1  0  0  0
 36 41  1  0  0  0  0
 41 43  1  0  0  0  0
 41 42  1  0  0  0  0
M  END
>  <minimizedAffinity>
-5.52932787

>  <minimizedRMSD>
1.25466049

$$$$
