
     RDKit          3D

 28 29  0  0  0  0  0  0  0  0999 V2000
   45.4265   35.2033   43.0901 C   0  0  0  0  0  0  0  0  0  0  0  0
   46.4567   35.5583   42.2102 C   0  0  0  0  0  0  0  0  0  0  0  0
   47.6811   34.8834   42.3806 C   0  0  0  0  0  0  0  0  0  0  0  0
   47.7592   33.9532   43.3669 N   0  0  0  0  0  0  0  0  0  0  0  0
   46.7472   33.6421   44.1837 C   0  0  0  0  0  0  0  0  0  0  0  0
   45.5710   34.2739   44.0447 N   0  0  0  0  0  0  0  0  0  0  0  0
   43.4046   35.3446   41.8981 C   0  0  0  0  0  0  0  0  0  0  0  0
   43.9414   34.4659   41.1513 O   0  0  0  0  0  0  0  0  0  0  0  0
   44.1517   35.8394   42.9948 N   0  0  0  0  0  0  0  0  0  0  0  0
   48.7419   35.2659   41.4588 C   0  0  0  0  0  0  0  0  0  0  0  0
   49.8525   34.4553   41.6660 F   0  0  0  0  0  0  0  0  0  0  0  0
   49.1473   36.5440   41.8024 F   0  0  0  0  0  0  0  0  0  0  0  0
   48.3910   35.1428   40.1483 F   0  0  0  0  0  0  0  0  0  0  0  0
   46.3281   36.2914   41.4541 H   0  0  0  0  0  0  0  0  0  0  0  0
   46.8214   32.8832   44.9635 H   0  0  0  0  0  0  0  0  0  0  0  0
   43.6554   36.5746   43.5503 H   0  0  0  0  0  0  0  0  0  0  0  0
   41.2792   35.3532   44.8172 N   0  0  0  0  0  0  0  0  0  0  0  0
   41.1151   35.5472   43.6809 C   0  0  0  0  0  0  0  0  0  0  0  0
   40.9225   35.8086   42.2796 C   0  0  0  0  0  0  0  0  0  0  0  0
   42.0432   35.7015   41.4744 C   0  0  0  0  0  0  0  0  0  0  0  0
   41.9633   35.9269   40.1159 C   0  0  0  0  0  0  0  0  0  0  0  0
   42.7701   35.8700   39.3940 H   0  0  0  0  0  0  0  0  0  0  0  0
   40.7240   36.2690   39.5583 C   0  0  0  0  0  0  0  0  0  0  0  0
   40.5938   36.4601   38.5112 H   0  0  0  0  0  0  0  0  0  0  0  0
   39.5979   36.3784   40.3500 C   0  0  0  0  0  0  0  0  0  0  0  0
   39.7092   36.1464   41.7015 C   0  0  0  0  0  0  0  0  0  0  0  0
   38.6364   36.6318   39.9400 H   0  0  0  0  0  0  0  0  0  0  0  0
   38.8557   36.2201   42.3719 H   0  0  0  0  0  0  0  0  0  0  0  0
  1  6  2  0
  2  3  2  0
  2  1  1  0
  3  4  1  0
  4  5  2  0
  6  5  1  0
  7  9  1  0
  8  7  2  0
  9  1  1  0
 10 11  1  0
 10 12  1  0
 10  3  1  0
 13 10  1  0
  2 14  1  0
  5 15  1  0
  9 16  1  0
 17 18  3  0
 18 19  1  0
 19 20  2  0
 20 21  1  0
 21 22  1  0
 21 23  2  0
 23 24  1  0
 23 25  1  0
 25 26  2  0
 26 19  1  0
 25 27  1  0
 26 28  1  0
  7 20  1  0
M  ISO  4  14  14  15  14  22  15  24  16
M  END
>  <DihAtoms>  (1) 
8,6,19,18

>  <DihDeg>  (1) 
73.33732684823302

$$$$
