
 OpenBabel03252505443D

 43 46  0  0  1  0  0  0  0  0999 V2000
   35.7890   29.3140   37.1510 C   0  0  0  0  0  0  0  0  0  0  0  0
   36.6800   29.7560   36.1980 C   0  0  0  0  0  0  0  0  0  0  0  0
   36.3540   29.8810   34.8740 C   0  0  0  0  0  0  0  0  0  0  0  0
   35.1060   29.5540   34.4960 N   0  0  0  0  0  0  0  0  0  0  0  0
   34.2110   29.1150   35.4240 C   0  0  0  0  0  0  0  0  0  0  0  0
   34.5340   28.9940   36.7300 N   0  0  0  0  0  0  0  0  0  0  0  0
   37.6820   30.0090   36.5490 H   0  0  0  0  0  0  0  0  0  0  0  0
   37.0970   30.2330   34.1710 H   0  0  0  0  0  0  0  0  0  0  0  0
   35.7840   27.9310   39.2010 C   0  0  1  0  0  0  0  0  0  0  0  0
   35.0710   29.2610   39.6240 C   0  0  0  0  0  0  0  0  0  0  0  0
   36.1950   29.1640   38.5990 C   0  0  2  0  0  0  0  0  0  0  0  0
   35.0550   27.2520   38.6790 H   0  0  0  0  0  0  0  0  0  0  0  0
   35.3610   29.6650   40.5980 H   0  0  0  0  0  0  0  0  0  0  0  0
   34.0760   29.4550   39.2300 H   0  0  0  0  0  0  0  0  0  0  0  0
   37.0790   29.7590   38.8200 H   0  0  0  0  0  0  0  0  0  0  0  0
   36.5070   27.2680   40.3080 C   0  0  0  0  0  0  0  0  0  0  0  0
   36.9530   25.9520   40.1040 C   0  0  0  0  0  0  0  0  0  0  0  0
   37.6360   25.3130   41.1300 C   0  0  0  0  0  0  0  0  0  0  0  0
   37.8370   26.0020   42.2870 N   0  0  0  0  0  0  0  0  0  0  0  0
   37.4000   27.2520   42.4490 C   0  0  0  0  0  0  0  0  0  0  0  0
   36.7450   27.8550   41.4510 N   0  0  0  0  0  0  0  0  0  0  0  0
   36.7950   25.4140   39.1970 H   0  0  0  0  0  0  0  0  0  0  0  0
   38.0170   24.3000   41.0640 H   0  0  0  0  0  0  0  0  0  0  0  0
   37.7240   27.8400   43.7940 C   0  0  0  0  0  0  0  0  0  0  0  0
   38.2320   29.1210   43.6740 F   0  0  0  0  0  0  0  0  0  0  0  0
   38.7520   27.0710   44.3880 F   0  0  0  0  0  0  0  0  0  0  0  0
   36.6370   27.7360   44.6160 F   0  0  0  0  0  0  0  0  0  0  0  0
   32.8100   28.7220   35.0700 C   0  0  0  0  0  0  0  0  0  0  0  0
   32.8110   28.0520   34.1870 H   0  0  0  0  0  0  0  0  0  0  0  0
   32.3200   28.1500   35.8970 H   0  0  0  0  0  0  0  0  0  0  0  0
   32.0100   29.9530   34.7020 C   0  0  0  0  0  0  0  0  0  0  0  0
   31.2860   29.6420   33.9170 H   0  0  0  0  0  0  0  0  0  0  0  0
   32.6770   30.6990   34.2540 H   0  0  0  0  0  0  0  0  0  0  0  0
   30.5110   31.6130   35.6520 C   0  0  0  0  0  0  0  0  0  0  0  0
   31.2500   30.4790   35.8650 C   0  0  0  0  0  0  0  0  0  0  0  0
   31.2270   29.9210   37.1250 C   0  0  0  0  0  0  0  0  0  0  0  0
   31.8220   29.0280   37.2520 H   0  0  0  0  0  0  0  0  0  0  0  0
   30.4880   30.4770   38.1470 C   0  0  0  0  0  0  0  0  0  0  0  0
   30.4750   30.0340   39.1300 H   0  0  0  0  0  0  0  0  0  0  0  0
   29.7730   31.6130   37.8600 C   0  0  0  0  0  3  0  0  0  0  0  0
   29.7370   32.2380   36.6300 C   0  0  0  0  0  3  0  0  0  0  0  0
   30.4910   32.7830   33.3010 N   0  0  0  0  0  0  0  0  0  0  0  0
   30.4910   32.2560   34.3470 C   0  0  0  0  0  0  0  0  0  0  0  0
  1 11  1  0  0  0  0
  2  7  1  0  0  0  0
  2  1  2  0  0  0  0
  3  2  1  0  0  0  0
  4  3  2  0  0  0  0
  4  5  1  0  0  0  0
  5  6  2  0  0  0  0
  6  1  1  0  0  0  0
  8  3  1  0  0  0  0
  9 12  1  6  0  0  0
  9 10  1  0  0  0  0
  9 16  1  0  0  0  0
 10 13  1  0  0  0  0
 11 15  1  1  0  0  0
 11  9  1  0  0  0  0
 11 10  1  0  0  0  0
 14 10  1  0  0  0  0
 16 21  1  0  0  0  0
 17 16  2  0  0  0  0
 17 18  1  0  0  0  0
 18 19  2  0  0  0  0
 19 20  1  0  0  0  0
 20 24  1  0  0  0  0
 21 20  2  0  0  0  0
 22 17  1  0  0  0  0
 23 18  1  0  0  0  0
 24 26  1  0  0  0  0
 24 27  1  0  0  0  0
 25 24  1  0  0  0  0
 28  5  1  0  0  0  0
 28 30  1  0  0  0  0
 29 28  1  0  0  0  0
 31 28  1  0  0  0  0
 31 35  1  0  0  0  0
 32 31  1  0  0  0  0
 33 31  1  0  0  0  0
 34 35  2  0  0  0  0
 34 41  1  0  0  0  0
 35 36  1  0  0  0  0
 36 37  1  0  0  0  0
 36 38  2  0  0  0  0
 38 39  1  0  0  0  0
 40 38  1  0  0  0  0
 41 40  2  0  0  0  0
 42 43  3  0  0  0  0
 43 34  1  0  0  0  0
M  END
>  <minimizedAffinity>
-6.78340435

$$$$

 OpenBabel03252505443D

 43 46  0  0  1  0  0  0  0  0999 V2000
   37.6560   29.3730   39.1080 C   0  0  0  0  0  0  0  0  0  0  0  0
   37.3660   28.3460   38.2370 C   0  0  0  0  0  0  0  0  0  0  0  0
   36.8240   27.1550   38.6420 C   0  0  0  0  0  0  0  0  0  0  0  0
   36.5690   26.9890   39.9510 N   0  0  0  0  0  0  0  0  0  0  0  0
   36.8500   27.9930   40.8280 C   0  0  0  0  0  0  0  0  0  0  0  0
   37.3820   29.1670   40.4260 N   0  0  0  0  0  0  0  0  0  0  0  0
   37.5890   28.5240   37.1840 H   0  0  0  0  0  0  0  0  0  0  0  0
   36.6170   26.3860   37.9110 H   0  0  0  0  0  0  0  0  0  0  0  0
   37.9230   31.8140   39.4000 C   0  0  1  0  0  0  0  0  0  0  0  0
   37.3330   31.6540   37.9570 C   0  0  0  0  0  0  0  0  0  0  0  0
   38.2790   30.6620   38.6250 C   0  0  2  0  0  0  0  0  0  0  0  0
   37.0980   31.7610   40.1620 H   0  0  0  0  0  0  0  0  0  0  0  0
   37.7850   32.2850   37.1870 H   0  0  0  0  0  0  0  0  0  0  0  0
   36.2950   31.3410   37.8610 H   0  0  0  0  0  0  0  0  0  0  0  0
   39.2060   30.4720   38.0900 H   0  0  0  0  0  0  0  0  0  0  0  0
   38.7870   33.0040   39.5580 C   0  0  0  0  0  0  0  0  0  0  0  0
   38.2170   34.1570   40.1220 C   0  0  0  0  0  0  0  0  0  0  0  0
   39.0130   35.2840   40.2800 C   0  0  0  0  0  0  0  0  0  0  0  0
   40.3110   35.2100   39.8770 N   0  0  0  0  0  0  0  0  0  0  0  0
   40.8220   34.0990   39.3440 C   0  0  0  0  0  0  0  0  0  0  0  0
   40.0440   33.0210   39.1990 N   0  0  0  0  0  0  0  0  0  0  0  0
   37.2010   34.2140   40.4370 H   0  0  0  0  0  0  0  0  0  0  0  0
   38.6610   36.2180   40.7050 H   0  0  0  0  0  0  0  0  0  0  0  0
   42.2710   34.2170   38.9670 C   0  0  0  0  0  0  0  0  0  0  0  0
   42.4430   35.0510   37.8780 F   0  0  0  0  0  0  0  0  0  0  0  0
   42.7360   32.9450   38.5550 F   0  0  0  0  0  0  0  0  0  0  0  0
   43.0070   34.5610   40.0670 F   0  0  0  0  0  0  0  0  0  0  0  0
   36.6040   27.8700   42.3000 C   0  0  0  0  0  0  0  0  0  0  0  0
   37.2960   28.5300   42.8610 H   0  0  0  0  0  0  0  0  0  0  0  0
   35.5700   28.1950   42.5750 H   0  0  0  0  0  0  0  0  0  0  0  0
   36.8730   26.4500   42.7480 C   0  0  0  0  0  0  0  0  0  0  0  0
   36.5700   25.7860   41.9080 H   0  0  0  0  0  0  0  0  0  0  0  0
   36.2290   26.2110   43.6030 H   0  0  0  0  0  0  0  0  0  0  0  0
   38.8740   25.0930   42.5040 C   0  0  0  0  0  0  0  0  0  0  0  0
   38.3150   26.2290   43.0280 C   0  0  0  0  0  0  0  0  0  0  0  0
   39.1250   27.0670   43.7620 C   0  0  0  0  0  0  0  0  0  0  0  0
   38.6470   27.9520   44.1580 H   0  0  0  0  0  0  0  0  0  0  0  0
   40.4590   26.7830   43.9690 C   0  0  0  0  0  0  0  0  0  0  0  0
   41.0870   27.4450   44.5440 H   0  0  0  0  0  0  0  0  0  0  0  0
   40.9490   25.6280   43.4140 C   0  0  0  0  0  3  0  0  0  0  0  0
   40.2120   24.7320   42.6650 C   0  0  0  0  0  3  0  0  0  0  0  0
   37.4370   23.3990   41.1030 N   0  0  0  0  0  0  0  0  0  0  0  0
   38.0760   24.1620   41.7200 C   0  0  0  0  0  0  0  0  0  0  0  0
  1  6  1  0  0  0  0
  2  3  1  0  0  0  0
  2  1  2  0  0  0  0
  3  4  2  0  0  0  0
  4  5  1  0  0  0  0
  5 28  1  0  0  0  0
  6  5  2  0  0  0  0
  7  2  1  0  0  0  0
  8  3  1  0  0  0  0
  9 16  1  0  0  0  0
  9 12  1  1  0  0  0
 10 11  1  0  0  0  0
 10  9  1  0  0  0  0
 11 15  1  6  0  0  0
 11  1  1  0  0  0  0
 11  9  1  0  0  0  0
 13 10  1  0  0  0  0
 14 10  1  0  0  0  0
 16 17  1  0  0  0  0
 17 18  2  0  0  0  0
 17 22  1  0  0  0  0
 18 23  1  0  0  0  0
 19 18  1  0  0  0  0
 20 19  2  0  0  0  0
 21 20  1  0  0  0  0
 21 16  2  0  0  0  0
 24 20  1  0  0  0  0
 24 27  1  0  0  0  0
 25 24  1  0  0  0  0
 26 24  1  0  0  0  0
 28 30  1  0  0  0  0
 28 31  1  0  0  0  0
 28 29  1  0  0  0  0
 31 35  1  0  0  0  0
 31 33  1  0  0  0  0
 32 31  1  0  0  0  0
 34 41  2  0  0  0  0
 34 35  1  0  0  0  0
 35 36  2  0  0  0  0
 36 38  1  0  0  0  0
 36 37  1  0  0  0  0
 38 39  1  0  0  0  0
 40 38  2  0  0  0  0
 41 40  1  0  0  0  0
 42 43  3  0  0  0  0
 43 34  1  0  0  0  0
M  END
>  <minimizedAffinity>
-6.40456057

$$$$

 OpenBabel03252505443D

 43 46  0  0  1  0  0  0  0  0999 V2000
   37.3300   30.8370   39.9710 C   0  0  0  0  0  0  0  0  0  0  0  0
   36.2970   30.3540   39.1990 C   0  0  0  0  0  0  0  0  0  0  0  0
   35.5010   29.3100   39.5880 C   0  0  0  0  0  0  0  0  0  0  0  0
   35.7470   28.7360   40.7780 N   0  0  0  0  0  0  0  0  0  0  0  0
   36.7660   29.1990   41.5550 C   0  0  0  0  0  0  0  0  0  0  0  0
   37.5490   30.2300   41.1700 N   0  0  0  0  0  0  0  0  0  0  0  0
   36.1330   30.8500   38.2410 H   0  0  0  0  0  0  0  0  0  0  0  0
   34.7030   28.9750   38.9390 H   0  0  0  0  0  0  0  0  0  0  0  0
   39.1970   32.3900   40.4390 C   0  0  1  0  0  0  0  0  0  0  0  0
   37.9690   33.3250   40.1610 C   0  0  0  0  0  0  0  0  0  0  0  0
   38.2040   31.9740   39.4940 C   0  0  2  0  0  0  0  0  0  0  0  0
   39.1690   32.0220   41.5010 H   0  0  0  0  0  0  0  0  0  0  0  0
   38.1700   34.1970   39.5330 H   0  0  0  0  0  0  0  0  0  0  0  0
   37.1780   33.3630   40.9060 H   0  0  0  0  0  0  0  0  0  0  0  0
   38.2580   31.9960   38.4080 H   0  0  0  0  0  0  0  0  0  0  0  0
   40.4950   32.9910   40.0650 C   0  0  0  0  0  0  0  0  0  0  0  0
   40.7790   33.1400   38.6970 C   0  0  0  0  0  0  0  0  0  0  0  0
   41.9920   33.7040   38.3250 C   0  0  0  0  0  0  0  0  0  0  0  0
   42.8470   34.0840   39.3140 N   0  0  0  0  0  0  0  0  0  0  0  0
   42.5480   33.9300   40.6040 C   0  0  0  0  0  0  0  0  0  0  0  0
   41.3750   33.3860   40.9470 N   0  0  0  0  0  0  0  0  0  0  0  0
   40.1080   32.8410   37.9240 H   0  0  0  0  0  0  0  0  0  0  0  0
   42.2970   33.8580   37.2960 H   0  0  0  0  0  0  0  0  0  0  0  0
   43.6190   34.4150   41.5390 C   0  0  0  0  0  0  0  0  0  0  0  0
   44.7070   34.9130   40.8450 F   0  0  0  0  0  0  0  0  0  0  0  0
   44.1070   33.3120   42.2800 F   0  0  0  0  0  0  0  0  0  0  0  0
   43.0800   35.2830   42.4460 F   0  0  0  0  0  0  0  0  0  0  0  0
   37.1040   28.5970   42.8840 C   0  0  0  0  0  0  0  0  0  0  0  0
   38.1550   28.8270   43.1530 H   0  0  0  0  0  0  0  0  0  0  0  0
   36.4720   29.0220   43.7030 H   0  0  0  0  0  0  0  0  0  0  0  0
   36.9760   27.0910   42.8120 C   0  0  0  0  0  0  0  0  0  0  0  0
   36.6000   26.8490   41.7940 H   0  0  0  0  0  0  0  0  0  0  0  0
   36.2160   26.7570   43.5290 H   0  0  0  0  0  0  0  0  0  0  0  0
   38.4280   25.1780   42.4450 C   0  0  0  0  0  0  0  0  0  0  0  0
   38.2880   26.4210   43.0040 C   0  0  0  0  0  0  0  0  0  0  0  0
   39.3620   26.9460   43.6880 C   0  0  0  0  0  0  0  0  0  0  0  0
   39.2120   27.9280   44.1130 H   0  0  0  0  0  0  0  0  0  0  0  0
   40.5480   26.2520   43.8130 C   0  0  0  0  0  0  0  0  0  0  0  0
   41.3840   26.6700   44.3490 H   0  0  0  0  0  0  0  0  0  0  0  0
   40.6150   25.0130   43.2270 C   0  0  0  0  0  3  0  0  0  0  0  0
   39.5900   24.4100   42.5240 C   0  0  0  0  0  3  0  0  0  0  0  0
   36.4460   24.0840   41.1140 N   0  0  0  0  0  0  0  0  0  0  0  0
   37.3330   24.5620   41.7100 C   0  0  0  0  0  0  0  0  0  0  0  0
  1  6  1  0  0  0  0
  2  3  1  0  0  0  0
  2  1  2  0  0  0  0
  3  4  2  0  0  0  0
  4  5  1  0  0  0  0
  5 28  1  0  0  0  0
  6  5  2  0  0  0  0
  7  2  1  0  0  0  0
  8  3  1  0  0  0  0
  9 12  1  1  0  0  0
 10  9  1  0  0  0  0
 10 14  1  0  0  0  0
 11 15  1  6  0  0  0
 11  1  1  0  0  0  0
 11 10  1  0  0  0  0
 11  9  1  0  0  0  0
 13 10  1  0  0  0  0
 16  9  1  0  0  0  0
 16 21  1  0  0  0  0
 17 16  2  0  0  0  0
 18 17  1  0  0  0  0
 18 19  2  0  0  0  0
 19 20  1  0  0  0  0
 20 21  2  0  0  0  0
 20 24  1  0  0  0  0
 22 17  1  0  0  0  0
 23 18  1  0  0  0  0
 24 26  1  0  0  0  0
 24 27  1  0  0  0  0
 25 24  1  0  0  0  0
 28 29  1  0  0  0  0
 28 30  1  0  0  0  0
 31 28  1  0  0  0  0
 31 35  1  0  0  0  0
 31 33  1  0  0  0  0
 32 31  1  0  0  0  0
 34 41  2  0  0  0  0
 34 35  1  0  0  0  0
 35 36  2  0  0  0  0
 36 38  1  0  0  0  0
 36 37  1  0  0  0  0
 38 39  1  0  0  0  0
 40 38  2  0  0  0  0
 41 40  1  0  0  0  0
 42 43  3  0  0  0  0
 43 34  1  0  0  0  0
M  END
>  <minimizedAffinity>
-6.31208277

$$$$

 OpenBabel03252505443D

 43 46  0  0  1  0  0  0  0  0999 V2000
   37.6480   29.3060   39.2350 C   0  0  0  0  0  0  0  0  0  0  0  0
   37.3750   28.2550   38.3870 C   0  0  0  0  0  0  0  0  0  0  0  0
   36.8410   27.0700   38.8170 C   0  0  0  0  0  0  0  0  0  0  0  0
   36.5740   26.9350   40.1280 N   0  0  0  0  0  0  0  0  0  0  0  0
   36.8370   27.9630   40.9820 C   0  0  0  0  0  0  0  0  0  0  0  0
   37.3630   29.1320   40.5540 N   0  0  0  0  0  0  0  0  0  0  0  0
   37.6070   28.4080   37.3320 H   0  0  0  0  0  0  0  0  0  0  0  0
   36.6480   26.2790   38.1040 H   0  0  0  0  0  0  0  0  0  0  0  0
   37.8560   31.7620   39.4390 C   0  0  1  0  0  0  0  0  0  0  0  0
   37.3240   31.5330   37.9820 C   0  0  0  0  0  0  0  0  0  0  0  0
   38.2630   30.5880   38.7250 C   0  0  2  0  0  0  0  0  0  0  0  0
   37.0030   31.7210   40.1710 H   0  0  0  0  0  0  0  0  0  0  0  0
   37.7940   32.1430   37.2050 H   0  0  0  0  0  0  0  0  0  0  0  0
   36.2980   31.1940   37.8600 H   0  0  0  0  0  0  0  0  0  0  0  0
   39.2140   30.3970   38.2320 H   0  0  0  0  0  0  0  0  0  0  0  0
   38.6890   32.9750   39.5820 C   0  0  0  0  0  0  0  0  0  0  0  0
   38.0860   34.1250   40.1170 C   0  0  0  0  0  0  0  0  0  0  0  0
   38.8530   35.2740   40.2610 C   0  0  0  0  0  0  0  0  0  0  0  0
   40.1560   35.2230   39.8720 N   0  0  0  0  0  0  0  0  0  0  0  0
   40.6990   34.1140   39.3670 C   0  0  0  0  0  0  0  0  0  0  0  0
   39.9490   33.0150   39.2350 N   0  0  0  0  0  0  0  0  0  0  0  0
   37.0650   34.1630   40.4210 H   0  0  0  0  0  0  0  0  0  0  0  0
   38.4740   36.2070   40.6640 H   0  0  0  0  0  0  0  0  0  0  0  0
   42.1500   34.2590   39.0020 C   0  0  0  0  0  0  0  0  0  0  0  0
   42.3210   35.1540   37.9620 F   0  0  0  0  0  0  0  0  0  0  0  0
   42.6220   33.0150   38.5210 F   0  0  0  0  0  0  0  0  0  0  0  0
   42.8800   34.5450   40.1220 F   0  0  0  0  0  0  0  0  0  0  0  0
   36.5790   27.8760   42.4540 C   0  0  0  0  0  0  0  0  0  0  0  0
   35.5830   28.2990   42.6940 H   0  0  0  0  0  0  0  0  0  0  0  0
   36.5620   26.8150   42.8080 H   0  0  0  0  0  0  0  0  0  0  0  0
   37.6090   28.6920   43.2050 C   0  0  0  0  0  0  0  0  0  0  0  0
   37.1870   28.8890   44.2150 H   0  0  0  0  0  0  0  0  0  0  0  0
   37.7350   29.6610   42.7090 H   0  0  0  0  0  0  0  0  0  0  0  0
   40.0360   28.6480   43.1000 C   0  0  0  0  0  0  0  0  0  0  0  0
   38.8860   27.9490   43.3610 C   0  0  0  0  0  0  0  0  0  0  0  0
   39.0040   26.6320   43.7450 C   0  0  0  0  0  0  0  0  0  0  0  0
   38.0750   26.1160   43.9410 H   0  0  0  0  0  0  0  0  0  0  0  0
   40.2360   26.0230   43.8670 C   0  0  0  0  0  0  0  0  0  0  0  0
   40.3200   24.9910   44.1690 H   0  0  0  0  0  0  0  0  0  0  0  0
   41.3430   26.7840   43.5890 C   0  0  0  0  0  3  0  0  0  0  0  0
   41.3190   28.1090   43.1990 C   0  0  0  0  0  3  0  0  0  0  0  0
   39.9590   31.1610   42.3430 N   0  0  0  0  0  0  0  0  0  0  0  0
   39.9850   30.0420   42.6870 C   0  0  0  0  0  0  0  0  0  0  0  0
  1  6  1  0  0  0  0
  2  3  1  0  0  0  0
  2  1  2  0  0  0  0
  3  4  2  0  0  0  0
  4  5  1  0  0  0  0
  5 28  1  0  0  0  0
  6  5  2  0  0  0  0
  7  2  1  0  0  0  0
  8  3  1  0  0  0  0
  9 16  1  0  0  0  0
  9 12  1  1  0  0  0
 10 11  1  0  0  0  0
 10  9  1  0  0  0  0
 11 15  1  6  0  0  0
 11  1  1  0  0  0  0
 11  9  1  0  0  0  0
 13 10  1  0  0  0  0
 14 10  1  0  0  0  0
 16 17  1  0  0  0  0
 17 18  2  0  0  0  0
 17 22  1  0  0  0  0
 18 23  1  0  0  0  0
 19 18  1  0  0  0  0
 20 19  2  0  0  0  0
 21 20  1  0  0  0  0
 21 16  2  0  0  0  0
 24 20  1  0  0  0  0
 24 27  1  0  0  0  0
 25 24  1  0  0  0  0
 26 24  1  0  0  0  0
 28 29  1  0  0  0  0
 28 30  1  0  0  0  0
 28 31  1  0  0  0  0
 31 35  1  0  0  0  0
 31 32  1  0  0  0  0
 33 31  1  0  0  0  0
 34 41  2  0  0  0  0
 34 35  1  0  0  0  0
 35 36  2  0  0  0  0
 36 38  1  0  0  0  0
 36 37  1  0  0  0  0
 38 39  1  0  0  0  0
 40 38  2  0  0  0  0
 41 40  1  0  0  0  0
 42 43  3  0  0  0  0
 43 34  1  0  0  0  0
M  END
>  <minimizedAffinity>
-6.28360367

$$$$

 OpenBabel03252505443D

 43 46  0  0  1  0  0  0  0  0999 V2000
   36.3170   28.8090   36.9500 C   0  0  0  0  0  0  0  0  0  0  0  0
   36.9400   29.3710   35.8570 C   0  0  0  0  0  0  0  0  0  0  0  0
   36.2720   29.7100   34.7110 C   0  0  0  0  0  0  0  0  0  0  0  0
   34.9480   29.4790   34.6590 N   0  0  0  0  0  0  0  0  0  0  0  0
   34.3150   28.9230   35.7300 C   0  0  0  0  0  0  0  0  0  0  0  0
   34.9770   28.5920   36.8600 N   0  0  0  0  0  0  0  0  0  0  0  0
   38.0140   29.5410   35.9440 H   0  0  0  0  0  0  0  0  0  0  0  0
   36.8150   30.1480   33.8850 H   0  0  0  0  0  0  0  0  0  0  0  0
   37.7860   29.5140   38.8110 C   0  0  1  0  0  0  0  0  0  0  0  0
   38.6150   28.4220   38.0500 C   0  0  0  0  0  0  0  0  0  0  0  0
   37.0960   28.4250   38.1870 C   0  0  2  0  0  0  0  0  0  0  0  0
   37.8850   30.5060   38.2890 H   0  0  0  0  0  0  0  0  0  0  0  0
   39.1390   27.7000   38.6810 H   0  0  0  0  0  0  0  0  0  0  0  0
   39.0090   28.6730   37.0680 H   0  0  0  0  0  0  0  0  0  0  0  0
   36.6700   27.5410   38.6570 H   0  0  0  0  0  0  0  0  0  0  0  0
   38.0870   29.5840   40.2570 C   0  0  0  0  0  0  0  0  0  0  0  0
   38.9280   30.6180   40.7020 C   0  0  0  0  0  0  0  0  0  0  0  0
   39.2200   30.7020   42.0570 C   0  0  0  0  0  0  0  0  0  0  0  0
   38.6730   29.7720   42.8860 N   0  0  0  0  0  0  0  0  0  0  0  0
   37.8770   28.8020   42.4320 C   0  0  0  0  0  0  0  0  0  0  0  0
   37.6040   28.7340   41.1250 N   0  0  0  0  0  0  0  0  0  0  0  0
   39.3560   31.3460   40.0510 H   0  0  0  0  0  0  0  0  0  0  0  0
   39.8590   31.4640   42.4920 H   0  0  0  0  0  0  0  0  0  0  0  0
   37.3710   27.8790   43.5030 C   0  0  0  0  0  0  0  0  0  0  0  0
   36.2380   27.2010   43.0900 F   0  0  0  0  0  0  0  0  0  0  0  0
   36.9710   28.6540   44.6170 F   0  0  0  0  0  0  0  0  0  0  0  0
   38.3870   27.0740   43.9350 F   0  0  0  0  0  0  0  0  0  0  0  0
   32.8480   28.6260   35.7340 C   0  0  0  0  0  0  0  0  0  0  0  0
   32.3930   28.9280   34.7690 H   0  0  0  0  0  0  0  0  0  0  0  0
   32.6480   27.5310   35.8460 H   0  0  0  0  0  0  0  0  0  0  0  0
   32.1660   29.4260   36.8230 C   0  0  0  0  0  0  0  0  0  0  0  0
   32.9730   29.8860   37.4360 H   0  0  0  0  0  0  0  0  0  0  0  0
   31.6060   28.7460   37.4760 H   0  0  0  0  0  0  0  0  0  0  0  0
   30.2830   30.9460   37.0360 C   0  0  0  0  0  0  0  0  0  0  0  0
   31.3240   30.5120   36.2580 C   0  0  0  0  0  0  0  0  0  0  0  0
   31.5070   31.1110   35.0310 C   0  0  0  0  0  0  0  0  0  0  0  0
   32.3390   30.7410   34.4490 H   0  0  0  0  0  0  0  0  0  0  0  0
   30.6760   32.1180   34.5880 C   0  0  0  0  0  0  0  0  0  0  0  0
   30.8260   32.5820   33.6270 H   0  0  0  0  0  0  0  0  0  0  0  0
   29.6540   32.5010   35.4200 C   0  0  0  0  0  3  0  0  0  0  0  0
   29.3960   31.9570   36.6630 C   0  0  0  0  0  3  0  0  0  0  0  0
   29.8150   29.8680   39.3840 N   0  0  0  0  0  0  0  0  0  0  0  0
   30.0290   30.3570   38.3420 C   0  0  0  0  0  0  0  0  0  0  0  0
  1 11  1  0  0  0  0
  2  7  1  0  0  0  0
  2  1  2  0  0  0  0
  3  2  1  0  0  0  0
  4  3  2  0  0  0  0
  4  5  1  0  0  0  0
  5 28  1  0  0  0  0
  5  6  2  0  0  0  0
  6  1  1  0  0  0  0
  8  3  1  0  0  0  0
  9 12  1  6  0  0  0
  9 16  1  0  0  0  0
 10 11  1  0  0  0  0
 10 13  1  0  0  0  0
 10  9  1  0  0  0  0
 11 15  1  1  0  0  0
 11  9  1  0  0  0  0
 14 10  1  0  0  0  0
 16 17  2  0  0  0  0
 16 21  1  0  0  0  0
 17 18  1  0  0  0  0
 18 23  1  0  0  0  0
 18 19  2  0  0  0  0
 20 19  1  0  0  0  0
 20 24  1  0  0  0  0
 21 20  2  0  0  0  0
 22 17  1  0  0  0  0
 24 27  1  0  0  0  0
 24 26  1  0  0  0  0
 25 24  1  0  0  0  0
 28 30  1  0  0  0  0
 28 31  1  0  0  0  0
 29 28  1  0  0  0  0
 31 32  1  0  0  0  0
 31 33  1  0  0  0  0
 34 43  1  0  0  0  0
 35 31  1  0  0  0  0
 35 34  2  0  0  0  0
 36 35  1  0  0  0  0
 37 36  1  0  0  0  0
 38 36  2  0  0  0  0
 38 40  1  0  0  0  0
 39 38  1  0  0  0  0
 40 41  2  0  0  0  0
 41 34  1  0  0  0  0
 43 42  3  0  0  0  0
M  END
>  <minimizedAffinity>
-6.15735245

$$$$

 OpenBabel03252505443D

 43 46  0  0  1  0  0  0  0  0999 V2000
   36.4720   27.1370   38.2240 C   0  0  0  0  0  0  0  0  0  0  0  0
   35.5000   26.4340   37.5480 C   0  0  0  0  0  0  0  0  0  0  0  0
   35.1470   25.1520   37.8700 C   0  0  0  0  0  0  0  0  0  0  0  0
   35.7840   24.5590   38.8950 N   0  0  0  0  0  0  0  0  0  0  0  0
   36.7490   25.2380   39.5760 C   0  0  0  0  0  0  0  0  0  0  0  0
   37.0940   26.5040   39.2560 N   0  0  0  0  0  0  0  0  0  0  0  0
   35.0090   26.9540   36.7230 H   0  0  0  0  0  0  0  0  0  0  0  0
   34.3750   24.6500   37.3020 H   0  0  0  0  0  0  0  0  0  0  0  0
   37.2370   29.3870   38.9120 C   0  0  1  0  0  0  0  0  0  0  0  0
   35.8640   29.6400   38.2000 C   0  0  0  0  0  0  0  0  0  0  0  0
   36.8520   28.5430   37.8190 C   0  0  2  0  0  0  0  0  0  0  0  0
   37.0660   29.0630   39.9750 H   0  0  0  0  0  0  0  0  0  0  0  0
   35.8330   30.4970   37.5210 H   0  0  0  0  0  0  0  0  0  0  0  0
   34.9580   29.3170   38.7080 H   0  0  0  0  0  0  0  0  0  0  0  0
   37.2040   28.5720   36.7910 H   0  0  0  0  0  0  0  0  0  0  0  0
   38.1840   30.5160   38.7910 C   0  0  0  0  0  0  0  0  0  0  0  0
   39.2790   30.3630   37.9250 C   0  0  0  0  0  0  0  0  0  0  0  0
   40.1790   31.4130   37.7970 C   0  0  0  0  0  0  0  0  0  0  0  0
   39.9500   32.5410   38.5230 N   0  0  0  0  0  0  0  0  0  0  0  0
   38.8990   32.6550   39.3370 C   0  0  0  0  0  0  0  0  0  0  0  0
   38.0400   31.6360   39.4500 N   0  0  0  0  0  0  0  0  0  0  0  0
   39.4580   29.4790   37.3570 H   0  0  0  0  0  0  0  0  0  0  0  0
   41.0520   31.3860   37.1540 H   0  0  0  0  0  0  0  0  0  0  0  0
   38.8190   33.9770   40.0460 C   0  0  0  0  0  0  0  0  0  0  0  0
   38.7910   33.8120   41.4200 F   0  0  0  0  0  0  0  0  0  0  0  0
   37.5950   34.5990   39.7080 F   0  0  0  0  0  0  0  0  0  0  0  0
   39.8110   34.8020   39.5960 F   0  0  0  0  0  0  0  0  0  0  0  0
   37.5080   24.6340   40.7160 C   0  0  0  0  0  0  0  0  0  0  0  0
   37.4440   23.5280   40.6770 H   0  0  0  0  0  0  0  0  0  0  0  0
   38.5960   24.8870   40.6690 H   0  0  0  0  0  0  0  0  0  0  0  0
   36.8960   25.0740   42.0290 C   0  0  0  0  0  0  0  0  0  0  0  0
   37.2220   24.3390   42.7970 H   0  0  0  0  0  0  0  0  0  0  0  0
   35.8030   25.0110   41.9590 H   0  0  0  0  0  0  0  0  0  0  0  0
   38.6530   26.4970   42.9180 C   0  0  0  0  0  0  0  0  0  0  0  0
   37.3740   26.4220   42.4300 C   0  0  0  0  0  0  0  0  0  0  0  0
   36.6450   27.5880   42.3490 C   0  0  0  0  0  0  0  0  0  0  0  0
   35.6420   27.4860   41.9580 H   0  0  0  0  0  0  0  0  0  0  0  0
   37.1730   28.7990   42.7420 C   0  0  0  0  0  0  0  0  0  0  0  0
   36.5960   29.7070   42.6740 H   0  0  0  0  0  0  0  0  0  0  0  0
   38.4590   28.7980   43.2200 C   0  0  0  0  0  3  0  0  0  0  0  0
   39.2620   27.6810   43.3370 C   0  0  0  0  0  3  0  0  0  0  0  0
   40.1610   24.3580   43.1270 N   0  0  0  0  0  0  0  0  0  0  0  0
   39.4790   25.3060   43.0340 C   0  0  0  0  0  0  0  0  0  0  0  0
  1  6  1  0  0  0  0
  2  3  1  0  0  0  0
  2  1  2  0  0  0  0
  3  4  2  0  0  0  0
  4  5  1  0  0  0  0
  5 28  1  0  0  0  0
  6  5  2  0  0  0  0
  7  2  1  0  0  0  0
  8  3  1  0  0  0  0
  9 12  1  1  0  0  0
 10 14  1  0  0  0  0
 10  9  1  0  0  0  0
 11 15  1  6  0  0  0
 11 10  1  0  0  0  0
 11  1  1  0  0  0  0
 11  9  1  0  0  0  0
 13 10  1  0  0  0  0
 16  9  1  0  0  0  0
 16 21  1  0  0  0  0
 17 16  2  0  0  0  0
 18 17  1  0  0  0  0
 18 19  2  0  0  0  0
 19 20  1  0  0  0  0
 20 21  2  0  0  0  0
 20 24  1  0  0  0  0
 22 17  1  0  0  0  0
 23 18  1  0  0  0  0
 24 25  1  0  0  0  0
 26 24  1  0  0  0  0
 27 24  1  0  0  0  0
 28 31  1  0  0  0  0
 29 28  1  0  0  0  0
 30 28  1  0  0  0  0
 31 35  1  0  0  0  0
 31 32  1  0  0  0  0
 33 31  1  0  0  0  0
 34 43  1  0  0  0  0
 34 41  1  0  0  0  0
 35 34  2  0  0  0  0
 36 35  1  0  0  0  0
 36 38  2  0  0  0  0
 37 36  1  0  0  0  0
 38 40  1  0  0  0  0
 39 38  1  0  0  0  0
 40 41  2  0  0  0  0
 43 42  3  0  0  0  0
M  END
>  <minimizedAffinity>
-6.10569286

$$$$

 OpenBabel03252505443D

 43 46  0  0  1  0  0  0  0  0999 V2000
   36.3170   27.6950   39.2190 C   0  0  0  0  0  0  0  0  0  0  0  0
   37.1910   27.0240   38.3920 C   0  0  0  0  0  0  0  0  0  0  0  0
   38.0490   26.0570   38.8420 C   0  0  0  0  0  0  0  0  0  0  0  0
   38.0330   25.7570   40.1530 N   0  0  0  0  0  0  0  0  0  0  0  0
   37.1770   26.4110   40.9860 C   0  0  0  0  0  0  0  0  0  0  0  0
   36.3290   27.3630   40.5390 N   0  0  0  0  0  0  0  0  0  0  0  0
   37.1700   27.3000   37.3370 H   0  0  0  0  0  0  0  0  0  0  0  0
   38.7130   25.5630   38.1450 H   0  0  0  0  0  0  0  0  0  0  0  0
   34.8500   28.4950   37.3970 C   0  0  1  0  0  0  0  0  0  0  0  0
   35.9490   29.6050   37.5300 C   0  0  0  0  0  0  0  0  0  0  0  0
   35.4040   28.7750   38.6880 C   0  0  2  0  0  0  0  0  0  0  0  0
   35.2380   27.6400   36.7780 H   0  0  0  0  0  0  0  0  0  0  0  0
   35.5900   30.6360   37.4840 H   0  0  0  0  0  0  0  0  0  0  0  0
   36.9580   29.3660   37.2000 H   0  0  0  0  0  0  0  0  0  0  0  0
   34.9610   29.3470   39.5000 H   0  0  0  0  0  0  0  0  0  0  0  0
   33.5450   29.0080   36.9270 C   0  0  0  0  0  0  0  0  0  0  0  0
   33.3410   29.1090   35.5410 C   0  0  0  0  0  0  0  0  0  0  0  0
   32.1210   29.5870   35.0800 C   0  0  0  0  0  0  0  0  0  0  0  0
   31.1830   29.9350   36.0030 N   0  0  0  0  0  0  0  0  0  0  0  0
   31.4080   29.8270   37.3130 C   0  0  0  0  0  0  0  0  0  0  0  0
   32.5870   29.3640   37.7420 N   0  0  0  0  0  0  0  0  0  0  0  0
   34.0760   28.8360   34.8190 H   0  0  0  0  0  0  0  0  0  0  0  0
   31.8730   29.6990   34.0300 H   0  0  0  0  0  0  0  0  0  0  0  0
   30.2490   30.2580   38.1670 C   0  0  0  0  0  0  0  0  0  0  0  0
   30.1690   31.6360   38.2500 F   0  0  0  0  0  0  0  0  0  0  0  0
   30.4680   29.8050   39.4890 F   0  0  0  0  0  0  0  0  0  0  0  0
   29.1060   29.6480   37.7320 F   0  0  0  0  0  0  0  0  0  0  0  0
   37.1160   26.1360   42.4570 C   0  0  0  0  0  0  0  0  0  0  0  0
   36.0800   25.8810   42.7570 H   0  0  0  0  0  0  0  0  0  0  0  0
   37.7500   25.2590   42.7400 H   0  0  0  0  0  0  0  0  0  0  0  0
   37.5160   27.3770   43.2270 C   0  0  0  0  0  0  0  0  0  0  0  0
   37.0740   27.2800   44.2430 H   0  0  0  0  0  0  0  0  0  0  0  0
   37.0640   28.2570   42.7550 H   0  0  0  0  0  0  0  0  0  0  0  0
   39.5780   28.5910   42.8050 C   0  0  0  0  0  0  0  0  0  0  0  0
   38.9920   27.4840   43.3600 C   0  0  0  0  0  0  0  0  0  0  0  0
   39.8070   26.5710   43.9930 C   0  0  0  0  0  0  0  0  0  0  0  0
   39.3070   25.7120   44.4180 H   0  0  0  0  0  0  0  0  0  0  0  0
   41.1710   26.7550   44.0720 C   0  0  0  0  0  0  0  0  0  0  0  0
   41.8020   26.0360   44.5700 H   0  0  0  0  0  0  0  0  0  0  0  0
   41.6880   27.8870   43.4930 C   0  0  0  0  0  3  0  0  0  0  0  0
   40.9480   28.8530   42.8410 C   0  0  0  0  0  3  0  0  0  0  0  0
   38.1350   30.3920   41.5520 N   0  0  0  0  0  0  0  0  0  0  0  0
   38.7780   29.5950   42.1200 C   0  0  0  0  0  0  0  0  0  0  0  0
  1  6  1  0  0  0  0
  2  3  1  0  0  0  0
  2  1  2  0  0  0  0
  3  4  2  0  0  0  0
  4  5  1  0  0  0  0
  5 28  1  0  0  0  0
  6  5  2  0  0  0  0
  7  2  1  0  0  0  0
  8  3  1  0  0  0  0
  9 12  1  6  0  0  0
  9 10  1  0  0  0  0
  9 11  1  0  0  0  0
 10 11  1  0  0  0  0
 11  1  1  0  0  0  0
 11 15  1  1  0  0  0
 13 10  1  0  0  0  0
 14 10  1  0  0  0  0
 16  9  1  0  0  0  0
 16 21  1  0  0  0  0
 17 16  2  0  0  0  0
 18 17  1  0  0  0  0
 18 19  2  0  0  0  0
 19 20  1  0  0  0  0
 20 21  2  0  0  0  0
 20 24  1  0  0  0  0
 22 17  1  0  0  0  0
 23 18  1  0  0  0  0
 24 25  1  0  0  0  0
 24 26  1  0  0  0  0
 27 24  1  0  0  0  0
 28 30  1  0  0  0  0
 28 29  1  0  0  0  0
 28 31  1  0  0  0  0
 31 35  1  0  0  0  0
 31 32  1  0  0  0  0
 33 31  1  0  0  0  0
 34 41  2  0  0  0  0
 34 35  1  0  0  0  0
 35 36  2  0  0  0  0
 36 38  1  0  0  0  0
 36 37  1  0  0  0  0
 38 39  1  0  0  0  0
 40 38  2  0  0  0  0
 41 40  1  0  0  0  0
 42 43  3  0  0  0  0
 43 34  1  0  0  0  0
M  END
>  <minimizedAffinity>
-6.09149075

$$$$

 OpenBabel03252505443D

 43 46  0  0  1  0  0  0  0  0999 V2000
   37.2500   26.0380   40.1090 C   0  0  0  0  0  0  0  0  0  0  0  0
   36.6480   24.8200   39.8830 C   0  0  0  0  0  0  0  0  0  0  0  0
   37.0440   23.6660   40.5030 C   0  0  0  0  0  0  0  0  0  0  0  0
   38.0700   23.7340   41.3700 N   0  0  0  0  0  0  0  0  0  0  0  0
   38.6790   24.9300   41.6060 C   0  0  0  0  0  0  0  0  0  0  0  0
   38.2840   26.0670   40.9940 N   0  0  0  0  0  0  0  0  0  0  0  0
   35.8200   24.8120   39.1720 H   0  0  0  0  0  0  0  0  0  0  0  0
   36.5320   22.7380   40.2860 H   0  0  0  0  0  0  0  0  0  0  0  0
   37.2150   28.5090   40.0030 C   0  0  1  0  0  0  0  0  0  0  0  0
   35.7030   28.0980   40.0640 C   0  0  0  0  0  0  0  0  0  0  0  0
   36.8000   27.2850   39.3830 C   0  0  2  0  0  0  0  0  0  0  0  0
   37.6570   28.5080   41.0370 H   0  0  0  0  0  0  0  0  0  0  0  0
   35.0370   28.6410   39.3880 H   0  0  0  0  0  0  0  0  0  0  0  0
   35.3200   27.6990   41.0010 H   0  0  0  0  0  0  0  0  0  0  0  0
   36.6420   27.0870   38.3260 H   0  0  0  0  0  0  0  0  0  0  0  0
   37.4560   29.7690   39.2670 C   0  0  0  0  0  0  0  0  0  0  0  0
   37.4010   29.7290   37.8640 C   0  0  0  0  0  0  0  0  0  0  0  0
   37.6240   30.9010   37.1540 C   0  0  0  0  0  0  0  0  0  0  0  0
   37.8850   32.0340   37.8620 N   0  0  0  0  0  0  0  0  0  0  0  0
   37.9300   32.0390   39.1950 C   0  0  0  0  0  0  0  0  0  0  0  0
   37.7130   30.9020   39.8650 N   0  0  0  0  0  0  0  0  0  0  0  0
   37.1970   28.8410   37.3110 H   0  0  0  0  0  0  0  0  0  0  0  0
   37.6020   30.9670   36.0720 H   0  0  0  0  0  0  0  0  0  0  0  0
   38.2290   33.3870   39.7890 C   0  0  0  0  0  0  0  0  0  0  0  0
   39.4030   33.9120   39.2810 F   0  0  0  0  0  0  0  0  0  0  0  0
   38.4460   33.2310   41.1780 F   0  0  0  0  0  0  0  0  0  0  0  0
   37.1390   34.2010   39.6550 F   0  0  0  0  0  0  0  0  0  0  0  0
   39.8340   25.0740   42.5470 C   0  0  0  0  0  0  0  0  0  0  0  0
   40.0730   24.0980   43.0140 H   0  0  0  0  0  0  0  0  0  0  0  0
   40.7620   25.4020   42.0150 H   0  0  0  0  0  0  0  0  0  0  0  0
   39.4710   26.0310   43.6620 C   0  0  0  0  0  0  0  0  0  0  0  0
   40.1110   25.7670   44.5320 H   0  0  0  0  0  0  0  0  0  0  0  0
   38.4290   25.8630   43.9590 H   0  0  0  0  0  0  0  0  0  0  0  0
   38.6880   28.3100   43.3490 C   0  0  0  0  0  0  0  0  0  0  0  0
   39.7450   27.4410   43.2830 C   0  0  0  0  0  0  0  0  0  0  0  0
   40.9640   27.9380   42.8770 C   0  0  0  0  0  0  0  0  0  0  0  0
   41.7720   27.2220   42.8380 H   0  0  0  0  0  0  0  0  0  0  0  0
   41.1280   29.2670   42.5460 C   0  0  0  0  0  0  0  0  0  0  0  0
   42.0860   29.6490   42.2300 H   0  0  0  0  0  0  0  0  0  0  0  0
   40.0250   30.0780   42.6370 C   0  0  0  0  0  3  0  0  0  0  0  0
   38.7680   29.6660   43.0330 C   0  0  0  0  0  3  0  0  0  0  0  0
   36.3040   27.4890   44.0860 N   0  0  0  0  0  0  0  0  0  0  0  0
   37.3710   27.8530   43.7680 C   0  0  0  0  0  0  0  0  0  0  0  0
  1  6  1  0  0  0  0
  2  1  2  0  0  0  0
  2  3  1  0  0  0  0
  3  4  2  0  0  0  0
  4  5  1  0  0  0  0
  5 28  1  0  0  0  0
  6  5  2  0  0  0  0
  7  2  1  0  0  0  0
  8  3  1  0  0  0  0
  9 10  1  0  0  0  0
  9 12  1  1  0  0  0
 10 14  1  0  0  0  0
 11 15  1  6  0  0  0
 11  9  1  0  0  0  0
 11 10  1  0  0  0  0
 11  1  1  0  0  0  0
 13 10  1  0  0  0  0
 16 21  1  0  0  0  0
 16  9  1  0  0  0  0
 17 16  2  0  0  0  0
 18 19  2  0  0  0  0
 18 17  1  0  0  0  0
 19 20  1  0  0  0  0
 20 24  1  0  0  0  0
 20 21  2  0  0  0  0
 22 17  1  0  0  0  0
 23 18  1  0  0  0  0
 24 26  1  0  0  0  0
 25 24  1  0  0  0  0
 27 24  1  0  0  0  0
 28 29  1  0  0  0  0
 28 31  1  0  0  0  0
 30 28  1  0  0  0  0
 31 33  1  0  0  0  0
 31 32  1  0  0  0  0
 34 43  1  0  0  0  0
 35 34  1  0  0  0  0
 35 31  1  0  0  0  0
 36 35  2  0  0  0  0
 37 36  1  0  0  0  0
 38 40  2  0  0  0  0
 38 36  1  0  0  0  0
 39 38  1  0  0  0  0
 40 41  1  0  0  0  0
 41 34  2  0  0  0  0
 43 42  3  0  0  0  0
M  END
>  <minimizedAffinity>
-6.08214617

$$$$

 OpenBabel03252505443D

 43 46  0  0  1  0  0  0  0  0999 V2000
   36.1630   27.4490   39.1070 C   0  0  0  0  0  0  0  0  0  0  0  0
   35.4660   27.0820   37.9770 C   0  0  0  0  0  0  0  0  0  0  0  0
   35.2360   25.7760   37.6350 C   0  0  0  0  0  0  0  0  0  0  0  0
   35.7160   24.8160   38.4440 N   0  0  0  0  0  0  0  0  0  0  0  0
   36.4080   25.1600   39.5660 C   0  0  0  0  0  0  0  0  0  0  0  0
   36.6320   26.4490   39.9020 N   0  0  0  0  0  0  0  0  0  0  0  0
   35.0950   27.8940   37.3500 H   0  0  0  0  0  0  0  0  0  0  0  0
   34.6810   25.5490   36.7350 H   0  0  0  0  0  0  0  0  0  0  0  0
   37.0370   29.1170   40.7110 C   0  0  1  0  0  0  0  0  0  0  0  0
   35.5320   29.5110   40.5170 C   0  0  0  0  0  0  0  0  0  0  0  0
   36.4190   28.9020   39.4360 C   0  0  2  0  0  0  0  0  0  0  0  0
   37.1230   28.2790   41.4560 H   0  0  0  0  0  0  0  0  0  0  0  0
   35.3330   30.5810   40.4090 H   0  0  0  0  0  0  0  0  0  0  0  0
   34.7750   28.8580   40.9430 H   0  0  0  0  0  0  0  0  0  0  0  0
   36.5210   29.4950   38.5300 H   0  0  0  0  0  0  0  0  0  0  0  0
   37.9150   30.2660   41.0210 C   0  0  0  0  0  0  0  0  0  0  0  0
   38.9530   30.0660   41.9470 C   0  0  0  0  0  0  0  0  0  0  0  0
   39.7900   31.1320   42.2500 C   0  0  0  0  0  0  0  0  0  0  0  0
   39.5570   32.3210   41.6310 N   0  0  0  0  0  0  0  0  0  0  0  0
   38.5620   32.4780   40.7560 C   0  0  0  0  0  0  0  0  0  0  0  0
   37.7650   31.4430   40.4730 N   0  0  0  0  0  0  0  0  0  0  0  0
   39.1340   29.1340   42.4310 H   0  0  0  0  0  0  0  0  0  0  0  0
   40.6150   31.0720   42.9510 H   0  0  0  0  0  0  0  0  0  0  0  0
   38.4730   33.8630   40.1790 C   0  0  0  0  0  0  0  0  0  0  0  0
   37.3080   34.0320   39.4530 F   0  0  0  0  0  0  0  0  0  0  0  0
   39.5310   34.0370   39.2560 F   0  0  0  0  0  0  0  0  0  0  0  0
   38.6630   34.7870   41.1670 F   0  0  0  0  0  0  0  0  0  0  0  0
   36.9820   24.1430   40.5030 C   0  0  0  0  0  0  0  0  0  0  0  0
   36.3740   23.2160   40.4820 H   0  0  0  0  0  0  0  0  0  0  0  0
   38.0180   23.8440   40.2050 H   0  0  0  0  0  0  0  0  0  0  0  0
   36.9470   24.6740   41.9200 C   0  0  0  0  0  0  0  0  0  0  0  0
   36.5930   23.8400   42.5660 H   0  0  0  0  0  0  0  0  0  0  0  0
   36.2050   25.4780   41.9880 H   0  0  0  0  0  0  0  0  0  0  0  0
   38.3590   26.2270   43.1430 C   0  0  0  0  0  0  0  0  0  0  0  0
   38.2960   25.0900   42.3810 C   0  0  0  0  0  0  0  0  0  0  0  0
   39.4750   24.4300   42.1080 C   0  0  0  0  0  0  0  0  0  0  0  0
   39.3820   23.5380   41.5050 H   0  0  0  0  0  0  0  0  0  0  0  0
   40.6850   24.8880   42.5820 C   0  0  0  0  0  0  0  0  0  0  0  0
   41.6030   24.3660   42.3650 H   0  0  0  0  0  0  0  0  0  0  0  0
   40.6710   26.0330   43.3390 C   0  0  0  0  0  3  0  0  0  0  0  0
   39.5410   26.7580   43.6610 C   0  0  0  0  0  3  0  0  0  0  0  0
   36.1750   27.5660   43.7180 N   0  0  0  0  0  0  0  0  0  0  0  0
   37.1550   26.9750   43.4680 C   0  0  0  0  0  0  0  0  0  0  0  0
  1 11  1  0  0  0  0
  1  6  1  0  0  0  0
  2  1  2  0  0  0  0
  3  2  1  0  0  0  0
  3  4  2  0  0  0  0
  4  5  1  0  0  0  0
  5  6  2  0  0  0  0
  5 28  1  0  0  0  0
  7  2  1  0  0  0  0
  8  3  1  0  0  0  0
  9 16  1  0  0  0  0
  9 12  1  1  0  0  0
 10  9  1  0  0  0  0
 10 14  1  0  0  0  0
 11 15  1  6  0  0  0
 11 10  1  0  0  0  0
 11  9  1  0  0  0  0
 13 10  1  0  0  0  0
 16 17  1  0  0  0  0
 17 18  2  0  0  0  0
 17 22  1  0  0  0  0
 18 23  1  0  0  0  0
 19 18  1  0  0  0  0
 20 19  2  0  0  0  0
 21 20  1  0  0  0  0
 21 16  2  0  0  0  0
 24 20  1  0  0  0  0
 24 27  1  0  0  0  0
 25 24  1  0  0  0  0
 26 24  1  0  0  0  0
 28 31  1  0  0  0  0
 29 28  1  0  0  0  0
 30 28  1  0  0  0  0
 31 33  1  0  0  0  0
 31 35  1  0  0  0  0
 31 32  1  0  0  0  0
 34 43  1  0  0  0  0
 34 41  1  0  0  0  0
 35 34  2  0  0  0  0
 36 35  1  0  0  0  0
 36 38  2  0  0  0  0
 37 36  1  0  0  0  0
 38 40  1  0  0  0  0
 39 38  1  0  0  0  0
 40 41  2  0  0  0  0
 43 42  3  0  0  0  0
M  END
>  <minimizedAffinity>
-6.07499504

$$$$
