
 OpenBabel03252509233D

 28 30  0  0  1  0  0  0  0  0999 V2000
   45.6020   33.9340   43.3470 C   0  0  1  0  0  0  0  0  0  0  0  0
   45.9640   35.4190   43.0960 C   0  0  0  0  0  0  0  0  0  0  0  0
   46.8260   34.1960   42.6840 C   0  0  2  0  0  0  0  0  0  0  0  0
   44.6680   33.6200   42.8530 H   0  0  0  0  0  0  0  0  0  0  0  0
   46.3300   36.0330   43.9110 H   0  0  0  0  0  0  0  0  0  0  0  0
   45.3650   35.8820   42.2910 H   0  0  0  0  0  0  0  0  0  0  0  0
   47.8010   34.1520   43.2110 H   0  0  0  0  0  0  0  0  0  0  0  0
   44.8810   34.0430   47.0330 C   0  0  0  0  0  0  0  0  0  0  0  0
   44.8840   34.4330   45.6690 C   0  0  0  0  0  0  0  0  0  0  0  0
   45.6190   33.6340   44.8340 C   0  0  0  0  0  0  0  0  0  0  0  0
   46.3080   32.5310   45.2980 N   0  0  0  0  0  0  0  0  0  0  0  0
   46.2790   32.1970   46.6020 C   0  0  0  0  0  0  0  0  0  0  0  0
   45.5640   32.9540   47.4740 N   0  0  0  0  0  0  0  0  0  0  0  0
   44.3000   34.6710   47.7000 H   0  0  0  0  0  0  0  0  0  0  0  0
   46.8030   31.3430   47.0030 H   0  0  0  0  0  0  0  0  0  0  0  0
   44.1970   35.5890   45.1950 N   0  0  0  0  0  0  0  0  0  0  0  0
   43.2340   35.7060   44.8650 H   0  0  0  0  0  0  0  0  0  0  0  0
   44.9240   36.3420   45.2570 H   0  0  0  0  0  0  0  0  0  0  0  0
   47.9580   34.6400   40.4890 C   0  0  0  0  0  0  0  0  0  0  0  0
   46.9960   33.9700   41.2200 C   0  0  0  0  0  0  0  0  0  0  0  0
   46.1420   33.0500   40.6110 C   0  0  0  0  0  0  0  0  0  0  0  0
   45.3650   32.4960   41.1500 H   0  0  0  0  0  0  0  0  0  0  0  0
   46.2650   32.8080   39.2430 C   0  0  0  0  0  0  0  0  0  0  0  0
   45.6090   32.0910   38.7380 H   0  0  0  0  0  0  0  0  0  0  0  0
   47.2340   33.4890   38.5330 C   0  0  0  0  0  3  0  0  0  0  0  0
   48.0920   34.4070   39.1210 C   0  0  0  0  0  3  0  0  0  0  0  0
   49.5310   36.3500   41.6500 N   0  0  0  0  0  0  0  0  0  0  0  0
   48.8240   35.5790   41.1330 C   0  0  0  0  0  0  0  0  0  0  0  0
  1  4  1  6  0  0  0
  1 10  1  0  0  0  0
  2  1  1  0  0  0  0
  2  5  1  0  0  0  0
  3  2  1  0  0  0  0
  3  7  1  1  0  0  0
  3  1  1  0  0  0  0
  6  2  1  0  0  0  0
  8 13  1  0  0  0  0
  8 14  1  0  0  0  0
  9  8  2  0  0  0  0
 10 11  2  0  0  0  0
 10  9  1  0  0  0  0
 11 12  1  0  0  0  0
 12 15  1  0  0  0  0
 12 13  2  0  0  0  0
 16 18  1  0  0  0  0
 16  9  1  0  0  0  0
 17 16  1  0  0  0  0
 19 28  1  0  0  0  0
 19 20  1  0  0  0  0
 20  3  1  0  0  0  0
 21 22  1  0  0  0  0
 21 20  2  0  0  0  0
 23 21  1  0  0  0  0
 24 23  1  0  0  0  0
 25 26  1  0  0  0  0
 25 23  2  0  0  0  0
 26 19  2  0  0  0  0
 28 27  3  0  0  0  0
M  END
>  <minimizedAffinity>
-4.93897438

>  <minimizedRMSD>
1.8296181

$$$$
