
     RDKit          3D

 43 46  0  0  0  0  0  0  0  0999 V2000
   47.6982   31.0084   46.0175 C   0  0  0  0  0  0  0  0  0  0  0  0
   46.9700   32.0791   45.5395 C   0  0  0  0  0  0  0  0  0  0  0  0
   45.9806   32.5846   46.3315 C   0  0  0  0  0  0  0  0  0  0  0  0
   45.6845   32.0675   47.5832 C   0  0  0  0  0  0  0  0  0  0  0  0
   44.8084   32.3185   48.5828 N   0  0  0  0  0  0  0  0  0  0  0  0
   44.9902   31.4593   49.6007 C   0  0  0  0  0  0  0  0  0  0  0  0
   46.0010   30.6576   49.2248 N   0  0  0  0  0  0  0  0  0  0  0  0
   46.4384   31.0107   47.9995 C   0  0  0  0  0  0  0  0  0  0  0  0
   47.4377   30.4573   47.2646 C   0  0  0  0  0  0  0  0  0  0  0  0
   47.1827   34.4179   42.7297 C   0  0  0  0  0  0  0  0  0  0  0  0
   47.8148   33.6730   41.7459 C   0  0  0  0  0  0  0  0  0  0  0  0
   48.1600   32.3571   42.0787 C   0  0  0  0  0  0  0  0  0  0  0  0
   47.8772   31.8655   43.3085 N   0  0  0  0  0  0  0  0  0  0  0  0
   47.2573   32.6469   44.2249 C   0  0  0  0  0  0  0  0  0  0  0  0
   46.9098   33.9014   43.9570 N   0  0  0  0  0  0  0  0  0  0  0  0
   48.0815   34.3001   40.4294 C   0  0  0  0  0  0  0  0  0  0  0  0
   48.5809   35.5536   40.7337 F   0  0  0  0  0  0  0  0  0  0  0  0
   46.8870   34.4354   39.7711 F   0  0  0  0  0  0  0  0  0  0  0  0
   48.9732   33.4976   39.7345 F   0  0  0  0  0  0  0  0  0  0  0  0
   48.1660   29.3852   47.7445 O   0  0  0  0  0  0  0  0  0  0  0  0
   49.7730   28.0788   49.3082 O   0  0  0  0  0  0  0  0  0  0  0  0
   49.4597   29.4872   48.8275 P   0  0  2  0  0  0  0  0  0  0  0  0
   48.9129   30.3562   50.1941 O   0  0  0  0  0  0  0  0  0  0  0  0
   50.8241   30.1982   48.1942 O   0  0  0  0  0  0  0  0  0  0  0  0
   48.4898   30.5779   45.4235 H   0  0  0  0  0  0  0  0  0  0  0  0
   45.3740   33.4311   46.0023 H   0  0  0  0  0  0  0  0  0  0  0  0
   44.0997   33.1043   48.5067 H   0  0  0  0  0  0  0  0  0  0  0  0
   44.4318   31.4445   50.5032 H   0  0  0  0  0  0  0  0  0  0  0  0
   46.8779   35.4514   42.5589 H   0  0  0  0  0  0  0  0  0  0  0  0
   48.6539   31.7662   41.3180 H   0  0  0  0  0  0  0  0  0  0  0  0
   49.6304   30.3039   50.8932 H   0  0  0  0  0  0  0  0  0  0  0  0
   48.5228   28.6766   45.9203 N   0  0  0  0  0  0  0  0  0  0  0  0
   49.6713   28.7494   46.0625 C   0  0  0  0  0  0  0  0  0  0  0  0
   51.0941   28.8368   46.2625 C   0  0  0  0  0  0  0  0  0  0  0  0
   51.6661   29.5545   47.3188 C   0  0  0  0  0  0  0  0  0  0  0  0
   53.0443   29.5447   47.3776 C   0  0  0  0  0  0  0  0  0  0  0  0
   53.5087   30.0797   48.1668 H   0  0  0  0  0  0  0  0  0  0  0  0
   53.8547   28.8899   46.4845 C   0  0  0  0  0  0  0  0  0  0  0  0
   54.9450   28.9238   46.5906 H   0  0  0  0  0  0  0  0  0  0  0  0
   53.2420   28.1884   45.4495 C   0  0  0  0  0  0  0  0  0  0  0  0
   51.8681   28.1642   45.3422 C   0  0  0  0  0  0  0  0  0  0  0  0
   53.8750   27.6748   44.7488 H   0  0  0  0  0  0  0  0  0  0  0  0
   51.4674   27.5988   44.5130 H   0  0  0  0  0  0  0  0  0  0  0  0
  1  9  2  0
  2  1  1  0
  2  3  2  0
  3  4  1  0
  4  8  2  0
  4  5  1  0
  5  6  1  0
  7  6  2  0
  8  7  1  0
  9 20  1  0
  9  8  1  0
 10 15  2  0
 11 12  2  0
 11 10  1  0
 12 13  1  0
 13 14  2  0
 14  2  1  0
 15 14  1  0
 16 17  1  0
 16 11  1  0
 18 16  1  0
 19 16  1  0
 22 20  1  6
 22 21  2  0
 22 23  1  0
 24 22  1  0
  1 25  1  0
  3 26  1  0
  5 27  1  0
  6 28  1  0
 10 29  1  0
 12 30  1  0
 23 31  1  0
 32 33  3  0
 33 34  1  0
 34 35  2  0
 35 36  1  0
 36 37  1  0
 36 38  2  0
 38 39  1  0
 38 40  1  0
 40 41  2  0
 41 34  1  0
 40 42  1  0
 41 43  1  0
 24 35  1  0
M  ISO  8  25  14  26  14  27   9  28  14  29  14  30  14  31   3  37  15
M  ISO  1  39  16
M  END
>  <DihAtoms>  (1) 
21,23,34,33

>  <DihDeg>  (1) 
179.9997332235548

$$$$
