REMARK  Name = 
REMARK  4 active torsions:
REMARK  status: ('A' for Active; 'I' for Inactive)
REMARK    1  A    between atoms: N_1  and  C_8
REMARK    2  A    between atoms: C_3  and  N_12
REMARK    3  A    between atoms: N_12  and  C_27
REMARK    4  A    between atoms: C_25  and  C_26
REMARK                            x       y       z     vdW  Elec       q    Type
REMARK                         _______ _______ _______ _____ _____    ______ ____
ROOT
ATOM      1  N   UNL     1      47.157  34.237  42.385  0.00  0.00    +0.000 N 
ATOM      2  C   UNL     1      47.998  35.054  41.532  0.00  0.00    +0.000 C 
ATOM      3  C   UNL     1      47.709  34.395  40.218  0.00  0.00    +0.000 C 
ATOM      4  C   UNL     1      47.904  32.933  40.569  0.00  0.00    +0.000 C 
ATOM      5  C   UNL     1      47.372  32.864  41.977  0.00  0.00    +0.000 C 
ATOM      6  H   UNL     1      47.593  36.065  41.555  0.00  0.00    +0.000 HD
ATOM      7  H   UNL     1      49.065  34.985  41.794  0.00  0.00    +0.000 HD
ATOM      8  H   UNL     1      46.660  34.604  39.913  0.00  0.00    +0.000 HD
ATOM      9  H   UNL     1      47.432  32.242  39.862  0.00  0.00    +0.000 HD
ATOM     10  H   UNL     1      49.020  32.797  40.628  0.00  0.00    +0.000 HD
ATOM     11  H   UNL     1      47.996  32.278  42.673  0.00  0.00    +0.000 HD
ATOM     12  H   UNL     1      46.335  32.427  41.890  0.00  0.00    +0.000 HD
ENDROOT
BRANCH   1  15
ATOM     13  C   UNL     1      44.583  35.950  44.469  0.00  0.00    +0.000 A 
ATOM     14  C   UNL     1      45.409  35.684  43.380  0.00  0.00    +0.000 A 
ATOM     15  C   UNL     1      46.279  34.603  43.420  0.00  0.00    +0.000 A 
ATOM     16  N   UNL     1      46.272  33.844  44.557  0.00  0.00    +0.000 NA
ATOM     17  C   UNL     1      45.478  34.095  45.611  0.00  0.00    +0.000 A 
ATOM     18  N   UNL     1      44.629  35.153  45.566  0.00  0.00    +0.000 NA
ATOM     19  H   UNL     1      43.896  36.791  44.456  0.00  0.00    +0.000 HD
ATOM     20  H   UNL     1      45.401  36.287  42.501  0.00  0.00    +0.000 HD
ATOM     21  H   UNL     1      45.570  33.420  46.445  0.00  0.00    +0.000 HD
ENDBRANCH   1  15
BRANCH   3  22
ATOM     22  N   UNL     1      48.660  34.728  39.197  0.00  0.00    +0.000 N 
ATOM     23  H   UNL     1      49.287  33.951  38.824  0.00  0.00    +0.000 HD
BRANCH  22  25
ATOM     24  C   UNL     1      48.376  36.365  37.338  0.00  0.00    +0.000 A 
ATOM     25  C   UNL     1      48.962  35.942  38.537  0.00  0.00    +0.000 A 
ATOM     26  C   UNL     1      49.876  36.838  39.046  0.00  0.00    +0.000 A 
ATOM     27  H   UNL     1      50.414  36.675  39.966  0.00  0.00    +0.000 HD
ATOM     28  C   UNL     1      50.221  38.041  38.481  0.00  0.00    +0.000 A 
ATOM     29  H   UNL     1      50.933  38.741  38.876  0.00  0.00    +0.000 HD
ATOM     30  C   UNL     1      49.623  38.417  37.306  0.00  0.00    +0.000 A 
ATOM     31  C   UNL     1      48.700  37.560  36.751  0.00  0.00    +0.000 A 
BRANCH  24  33
ATOM     32  N   UNL     1      46.600  34.784  36.246  0.00  0.00    +0.000 NA
ATOM     33  C   UNL     1      47.397  35.480  36.729  0.00  0.00    +0.000 C 
ENDBRANCH  24  33
ENDBRANCH  22  25
ENDBRANCH   3  22
TORSDOF 4
