
 OpenBabel03242519033D

 33 35  0  0  1  0  0  0  0  0999 V2000
   47.6160   34.4620   41.7080 N   0  0  0  0  0  0  0  0  0  0  0  0
   48.3050   34.0410   40.5040 C   0  0  0  0  0  0  0  0  0  0  0  0
   49.1620   32.9610   41.0900 C   0  0  2  0  0  0  0  0  0  0  0  0
   49.7600   33.6730   42.2880 C   0  0  0  0  0  0  0  0  0  0  0  0
   48.6220   34.5470   42.7460 C   0  0  0  0  0  0  0  0  0  0  0  0
   47.5560   33.6200   39.8350 H   0  0  0  0  0  0  0  0  0  0  0  0
   48.9130   34.8440   40.0580 H   0  0  0  0  0  0  0  0  0  0  0  0
   48.5270   32.1020   41.4010 H   0  0  0  0  0  0  0  0  0  0  0  0
   50.1590   32.9950   43.0510 H   0  0  0  0  0  0  0  0  0  0  0  0
   50.5480   34.3510   41.8570 H   0  0  0  0  0  0  0  0  0  0  0  0
   48.9150   35.5780   43.0090 H   0  0  0  0  0  0  0  0  0  0  0  0
   48.1650   34.0140   43.6300 H   0  0  0  0  0  0  0  0  0  0  0  0
   43.9150   34.7750   41.3780 C   0  0  0  0  0  0  0  0  0  0  0  0
   45.2260   34.4370   41.0530 C   0  0  0  0  0  0  0  0  0  0  0  0
   46.2580   34.7510   41.9270 C   0  0  0  0  0  0  0  0  0  0  0  0
   45.9150   35.3900   43.0860 N   0  0  0  0  0  0  0  0  0  0  0  0
   44.6520   35.7180   43.4060 C   0  0  0  0  0  0  0  0  0  0  0  0
   43.6470   35.4080   42.5470 N   0  0  0  0  0  0  0  0  0  0  0  0
   43.0950   34.5370   40.7070 H   0  0  0  0  0  0  0  0  0  0  0  0
   45.4760   33.9390   40.1440 H   0  0  0  0  0  0  0  0  0  0  0  0
   44.5170   36.2190   44.3500 H   0  0  0  0  0  0  0  0  0  0  0  0
   50.2430   32.5690   40.2330 N   0  0  0  0  0  0  0  0  0  0  0  0
   51.0710   33.2330   40.1350 H   0  0  0  0  0  0  0  0  0  0  0  0
   50.1550   31.3180   38.0770 C   0  0  0  0  0  0  0  0  0  0  0  0
   50.4600   31.4170   39.4400 C   0  0  0  0  0  0  0  0  0  0  0  0
   51.0200   30.2720   39.9610 C   0  0  0  0  0  0  0  0  0  0  0  0
   51.3240   30.1780   40.9920 H   0  0  0  0  0  0  0  0  0  0  0  0
   51.2770   29.1170   39.2650 C   0  0  0  0  0  0  0  0  0  0  0  0
   51.7140   28.2220   39.6700 H   0  0  0  0  0  0  0  0  0  0  0  0
   50.9630   29.0610   37.9330 C   0  0  0  0  0  3  0  0  0  0  0  0
   50.4000   30.1790   37.3570 C   0  0  0  0  0  3  0  0  0  0  0  0
   49.0800   33.4240   36.9560 N   0  0  0  0  0  0  0  0  0  0  0  0
   49.5590   32.4830   37.4440 C   0  0  0  0  0  0  0  0  0  0  0  0
  1 15  1  0  0  0  0
  1  5  1  0  0  0  0
  2  3  1  0  0  0  0
  2  1  1  0  0  0  0
  3  8  1  1  0  0  0
  3  4  1  0  0  0  0
  4  5  1  0  0  0  0
  4  9  1  0  0  0  0
  5 11  1  0  0  0  0
  5 12  1  0  0  0  0
  6  2  1  0  0  0  0
  7  2  1  0  0  0  0
 10  4  1  0  0  0  0
 13 18  1  0  0  0  0
 14 13  2  0  0  0  0
 14 15  1  0  0  0  0
 15 16  2  0  0  0  0
 16 17  1  0  0  0  0
 17 21  1  0  0  0  0
 18 17  2  0  0  0  0
 19 13  1  0  0  0  0
 20 14  1  0  0  0  0
 22  3  1  0  0  0  0
 23 22  1  0  0  0  0
 24 25  1  0  0  0  0
 25 26  2  0  0  0  0
 25 22  1  0  0  0  0
 26 27  1  0  0  0  0
 28 29  1  0  0  0  0
 28 26  1  0  0  0  0
 30 28  2  0  0  0  0
 31 30  1  0  0  0  0
 31 24  2  0  0  0  0
 32 33  3  0  0  0  0
 33 24  1  0  0  0  0
M  END
>  <minimizedAffinity>
-4.12905025

>  <minimizedRMSD>
4.84371996

$$$$
