
 OpenBabel03252507463D

 38 40  0  0  0  0  0  0  0  0999 V2000
   47.4910   34.7870   41.0780 C   0  0  0  0  0  0  0  0  0  0  0  0
   47.8720   35.7900   40.7770 H   0  0  0  0  0  0  0  0  0  0  0  0
   46.8430   34.3200   40.3080 H   0  0  0  0  0  0  0  0  0  0  0  0
   48.6670   33.9710   41.3990 C   0  0  0  0  0  0  0  0  0  0  0  0
   48.6440   32.6650   40.9340 C   0  0  0  0  0  0  0  0  0  0  0  0
   49.7130   31.8030   41.2000 C   0  0  0  0  0  0  0  0  0  0  0  0
   50.7590   32.3030   41.9270 N   0  0  0  0  0  0  0  0  0  0  0  0
   50.7380   33.5880   42.3600 C   0  0  0  0  0  0  0  0  0  0  0  0
   49.7070   34.3840   42.0920 N   0  0  0  0  0  0  0  0  0  0  0  0
   49.6610   30.7980   40.8240 H   0  0  0  0  0  0  0  0  0  0  0  0
   51.5510   34.0040   42.9350 H   0  0  0  0  0  0  0  0  0  0  0  0
   47.2510   32.0200   39.9940 S   0  0  0  0  0  0  0  0  0  0  0  0
   46.9800   31.4850   37.1760 C   0  0  0  0  0  0  0  0  0  0  0  0
   47.5190   32.1690   38.2410 C   0  0  0  0  0  0  0  0  0  0  0  0
   48.4590   33.1690   37.9640 C   0  0  0  0  0  0  0  0  0  0  0  0
   48.9850   33.8050   38.6800 H   0  0  0  0  0  0  0  0  0  0  0  0
   48.8480   33.4760   36.6640 C   0  0  0  0  0  0  0  0  0  0  0  0
   49.5570   34.2220   36.3900 H   0  0  0  0  0  0  0  0  0  0  0  0
   48.2860   32.7670   35.6010 C   0  0  0  0  0  3  0  0  0  0  0  0
   47.3690   31.7940   35.8960 C   0  0  0  0  0  3  0  0  0  0  0  0
   45.3020   29.6380   37.8230 N   0  0  0  0  0  0  0  0  0  0  0  0
   46.0540   30.4770   37.5390 C   0  0  0  0  0  0  0  0  0  0  0  0
   46.5950   35.0300   42.2660 C   0  0  0  0  0  0  0  0  0  0  0  0
   46.8320   36.0170   42.7220 H   0  0  0  0  0  0  0  0  0  0  0  0
   46.7820   34.2710   43.0620 H   0  0  0  0  0  0  0  0  0  0  0  0
   45.1400   34.9680   41.9510 C   0  0  0  0  0  0  0  0  0  0  0  0
   44.2020   35.5650   42.8490 C   0  0  0  0  0  0  0  0  0  0  0  0
   42.5890   35.2280   42.0410 S   0  0  0  0  0  0  0  0  0  0  0  0
   43.4680   34.3270   40.6090 C   0  0  0  0  0  0  0  0  0  0  0  0
   44.5610   34.4180   40.9200 N   0  0  0  0  0  0  0  0  0  0  0  0
   44.4270   36.0840   43.7770 H   0  0  0  0  0  0  0  0  0  0  0  0
   42.7840   33.7600   39.5330 O   0  0  0  0  0  0  0  0  0  0  0  0
   40.7880   33.9880   37.8100 O   0  0  0  0  0  0  0  0  0  0  0  0
   41.8260   34.7850   38.5860 P   0  0  0  0  0  0  0  0  0  0  0  0
   41.0290   35.8560   39.6180 O   0  0  0  0  0  0  0  0  0  0  0  0
   40.2610   35.3560   40.0060 H   0  0  0  0  0  0  0  0  0  0  0  0
   42.8170   35.6840   37.5390 O   0  0  0  0  0  0  0  0  0  0  0  0
   43.1820   35.1070   36.8220 H   0  0  0  0  0  0  0  0  0  0  0  0
  1  4  1  0  0  0  0
  1 23  1  0  0  0  0
  2  1  1  0  0  0  0
  3  1  1  0  0  0  0
  4  9  1  0  0  0  0
  5  6  1  0  0  0  0
  5  4  2  0  0  0  0
  6  7  2  0  0  0  0
  7  8  1  0  0  0  0
  8 11  1  0  0  0  0
  9  8  2  0  0  0  0
 10  6  1  0  0  0  0
 12  5  1  0  0  0  0
 13 22  1  0  0  0  0
 13 14  1  0  0  0  0
 14 12  1  0  0  0  0
 15 14  2  0  0  0  0
 15 16  1  0  0  0  0
 17 15  1  0  0  0  0
 18 17  1  0  0  0  0
 19 20  1  0  0  0  0
 19 17  2  0  0  0  0
 20 13  2  0  0  0  0
 22 21  3  0  0  0  0
 23 24  1  0  0  0  0
 23 25  1  0  0  0  0
 26 23  1  0  0  0  0
 26 27  2  0  0  0  0
 27 31  1  0  0  0  0
 28 27  1  0  0  0  0
 29 30  2  0  0  0  0
 29 28  1  0  0  0  0
 30 26  1  0  0  0  0
 32 29  1  0  0  0  0
 33 34  2  0  0  0  0
 34 32  1  0  0  0  0
 34 35  1  0  0  0  0
 35 36  1  0  0  0  0
 37 34  1  0  0  0  0
 38 37  1  0  0  0  0
M  END
>  <minimizedAffinity>
-4.81976938

>  <minimizedRMSD>
0.701128066

$$$$
