
 OpenBabel03242513413D

 41 44  0  0  0  0  0  0  0  0999 V2000
   47.3170   30.5350   46.8010 C   0  0  0  0  0  0  0  0  0  0  0  0
   46.1450   30.7120   46.0940 C   0  0  0  0  0  0  0  0  0  0  0  0
   45.2900   29.6530   45.9960 C   0  0  0  0  0  0  0  0  0  0  0  0
   45.5540   28.4200   46.5730 C   0  0  0  0  0  0  0  0  0  0  0  0
   44.9510   27.2130   46.6650 N   0  0  0  0  0  0  0  0  0  0  0  0
   45.7050   26.3580   47.3790 C   0  0  0  0  0  0  0  0  0  0  0  0
   46.7990   27.0500   47.7390 N   0  0  0  0  0  0  0  0  0  0  0  0
   46.7280   28.3080   47.2580 C   0  0  0  0  0  0  0  0  0  0  0  0
   47.6250   29.3190   47.3970 C   0  0  0  0  0  0  0  0  0  0  0  0
   48.0210   31.3470   46.9030 H   0  0  0  0  0  0  0  0  0  0  0  0
   44.3490   29.7380   45.4490 H   0  0  0  0  0  0  0  0  0  0  0  0
   44.0100   27.0340   46.2110 H   0  0  0  0  0  0  0  0  0  0  0  0
   45.4560   25.3500   47.5960 H   0  0  0  0  0  0  0  0  0  0  0  0
   45.4190   34.2720   45.6410 C   0  0  0  0  0  0  0  0  0  0  0  0
   45.2580   34.3900   44.2690 C   0  0  0  0  0  0  0  0  0  0  0  0
   45.4060   33.2180   43.5170 C   0  0  0  0  0  0  0  0  0  0  0  0
   45.6920   32.0440   44.1290 N   0  0  0  0  0  0  0  0  0  0  0  0
   45.8360   31.9980   45.4740 C   0  0  0  0  0  0  0  0  0  0  0  0
   45.7060   33.0820   46.2310 N   0  0  0  0  0  0  0  0  0  0  0  0
   45.3210   35.1320   46.3050 H   0  0  0  0  0  0  0  0  0  0  0  0
   45.2820   33.2980   42.4440 H   0  0  0  0  0  0  0  0  0  0  0  0
   44.9440   35.7200   43.6930 C   0  0  0  0  0  0  0  0  0  0  0  0
   44.8080   36.5520   44.7910 F   0  0  0  0  0  0  0  0  0  0  0  0
   43.7440   35.6300   43.0390 F   0  0  0  0  0  0  0  0  0  0  0  0
   45.9770   36.0830   42.8430 F   0  0  0  0  0  0  0  0  0  0  0  0
   48.7980   29.1400   48.1050 O   0  0  0  0  0  0  0  0  0  0  0  0
   50.5950   29.2030   46.2340 O   0  0  0  0  0  0  0  0  0  0  0  0
   50.2130   28.4430   47.4940 P   0  0  2  0  0  0  0  0  0  0  0  0
   49.8260   26.8520   47.0050 O   0  0  0  0  0  0  0  0  0  0  0  0
   50.6230   26.4820   46.5220 H   0  0  0  0  0  0  0  0  0  0  0  0
   51.4830   28.4300   48.5690 O   0  0  0  0  0  0  0  0  0  0  0  0
   51.1350   27.9350   50.8690 C   0  0  0  0  0  0  0  0  0  0  0  0
   51.3740   28.8780   49.8630 C   0  0  0  0  0  0  0  0  0  0  0  0
   51.4770   30.1900   50.2790 C   0  0  0  0  0  0  0  0  0  0  0  0
   51.6580   30.9290   49.5410 H   0  0  0  0  0  0  0  0  0  0  0  0
   51.3620   30.6020   51.5830 C   0  0  0  0  0  0  0  0  0  0  0  0
   51.4560   31.6620   51.8440 H   0  0  0  0  0  0  0  0  0  0  0  0
   51.1250   29.6290   52.5500 C   0  0  0  0  0  3  0  0  0  0  0  0
   51.0130   28.3030   52.1910 C   0  0  0  0  0  3  0  0  0  0  0  0
   50.8790   25.3980   50.3700 N   0  0  0  0  0  0  0  0  0  0  0  0
   51.0020   26.5280   50.5990 C   0  0  0  0  0  0  0  0  0  0  0  0
  1 10  1  0  0  0  0
  1  9  1  0  0  0  0
  2  1  2  0  0  0  0
  3  2  1  0  0  0  0
  3  4  2  0  0  0  0
  4  5  1  0  0  0  0
  4  8  1  0  0  0  0
  5  6  1  0  0  0  0
  6 13  1  0  0  0  0
  6  7  2  0  0  0  0
  8  9  2  0  0  0  0
  8  7  1  0  0  0  0
  9 26  1  0  0  0  0
 11  3  1  0  0  0  0
 12  5  1  0  0  0  0
 14 19  1  0  0  0  0
 14 20  1  0  0  0  0
 15 14  2  0  0  0  0
 16 17  2  0  0  0  0
 16 15  1  0  0  0  0
 17 18  1  0  0  0  0
 18  2  1  0  0  0  0
 18 19  2  0  0  0  0
 21 16  1  0  0  0  0
 22 15  1  0  0  0  0
 22 23  1  0  0  0  0
 24 22  1  0  0  0  0
 25 22  1  0  0  0  0
 28 27  2  6  0  0  0
 28 26  1  0  0  0  0
 28 31  1  0  0  0  0
 29 28  1  0  0  0  0
 30 29  1  0  0  0  0
 31 33  1  0  0  0  0
 32 39  1  0  0  0  0
 33 34  1  0  0  0  0
 33 32  2  0  0  0  0
 34 36  2  0  0  0  0
 35 34  1  0  0  0  0
 36 37  1  0  0  0  0
 36 38  1  0  0  0  0
 39 38  2  0  0  0  0
 40 41  3  0  0  0  0
 41 32  1  0  0  0  0
M  END
>  <minimizedAffinity>
-5.32014942

>  <minimizedRMSD>
4.34781885

$$$$
