
 OpenBabel03242519253D

 41 44  0  0  0  0  0  0  0  0999 V2000
   47.9230   33.8040   42.8760 C   0  0  0  0  0  0  0  0  0  0  0  0
   48.5840   35.0300   42.6710 C   0  0  0  0  0  0  0  0  0  0  0  0
   49.9520   35.0460   42.3520 C   0  0  0  0  0  0  0  0  0  0  0  0
   50.5610   33.8220   42.2620 N   0  0  0  0  0  0  0  0  0  0  0  0
   49.8880   32.6480   42.4690 C   0  0  0  0  0  0  0  0  0  0  0  0
   48.5970   32.6570   42.7690 N   0  0  0  0  0  0  0  0  0  0  0  0
   48.1850   36.0280   42.7210 H   0  0  0  0  0  0  0  0  0  0  0  0
   50.5200   35.9360   42.1820 H   0  0  0  0  0  0  0  0  0  0  0  0
   46.4920   33.9120   43.2100 C   0  0  0  0  0  0  0  0  0  0  0  0
   45.7690   34.9060   42.4170 C   0  0  0  0  0  0  0  0  0  0  0  0
   45.3070   36.0890   43.1890 C   0  0  0  0  0  0  0  0  0  0  0  0
   44.5090   35.7240   44.4280 C   0  0  0  0  0  0  0  0  0  0  0  0
   44.9910   34.4750   45.1250 C   0  0  0  0  0  0  0  0  0  0  0  0
   46.4220   34.1620   44.7280 C   0  0  0  0  0  0  0  0  0  0  0  0
   46.0490   32.8780   43.1030 H   0  0  0  0  0  0  0  0  0  0  0  0
   46.3270   35.2650   41.5460 H   0  0  0  0  0  0  0  0  0  0  0  0
   44.8460   34.4240   41.9810 H   0  0  0  0  0  0  0  0  0  0  0  0
   44.5730   36.6400   42.5300 H   0  0  0  0  0  0  0  0  0  0  0  0
   46.0510   36.8290   43.4690 H   0  0  0  0  0  0  0  0  0  0  0  0
   43.4130   35.6680   44.2000 H   0  0  0  0  0  0  0  0  0  0  0  0
   44.6020   36.5430   45.1730 H   0  0  0  0  0  0  0  0  0  0  0  0
   44.3420   33.6170   44.8040 H   0  0  0  0  0  0  0  0  0  0  0  0
   44.9400   34.5170   46.2200 H   0  0  0  0  0  0  0  0  0  0  0  0
   47.0650   35.0320   44.9150 H   0  0  0  0  0  0  0  0  0  0  0  0
   46.7610   33.2620   45.2550 H   0  0  0  0  0  0  0  0  0  0  0  0
   50.7000   31.4390   42.3390 C   0  0  0  0  0  0  0  0  0  0  0  0
   51.5940   31.4010   41.3270 N   0  0  0  0  0  0  0  0  0  0  0  0
   52.2510   30.2300   41.3580 C   0  0  0  0  0  0  0  0  0  0  0  0
   51.7470   29.5360   42.4150 N   0  0  0  0  0  0  0  0  0  0  0  0
   50.7950   30.2730   43.0190 N   0  0  0  0  0  0  0  0  0  0  0  0
   53.0350   29.8370   40.7170 H   0  0  0  0  0  0  0  0  0  0  0  0
   52.9740   27.9550   43.9230 C   0  0  0  0  0  0  0  0  0  0  0  0
   52.0660   28.2430   42.9230 C   0  0  0  0  0  0  0  0  0  0  0  0
   51.3550   27.2080   42.3050 C   0  0  0  0  0  0  0  0  0  0  0  0
   50.6210   27.3780   41.5060 H   0  0  0  0  0  0  0  0  0  0  0  0
   51.5360   25.8870   42.6710 C   0  0  0  0  0  0  0  0  0  0  0  0
   50.9770   25.0980   42.1830 H   0  0  0  0  0  0  0  0  0  0  0  0
   52.4590   25.6400   43.6810 C   0  0  0  0  0  3  0  0  0  0  0  0
   53.1750   26.6400   44.3080 C   0  0  0  0  0  3  0  0  0  0  0  0
   54.2090   29.9620   44.9870 N   0  0  0  0  0  0  0  0  0  0  0  0
   53.6510   29.0570   44.4950 C   0  0  0  0  0  0  0  0  0  0  0  0
  1  9  1  0  0  0  0
  2  7  1  0  0  0  0
  2  1  2  0  0  0  0
  3  2  1  0  0  0  0
  4  3  2  0  0  0  0
  4  5  1  0  0  0  0
  5  6  2  0  0  0  0
  6  1  1  0  0  0  0
  8  3  1  0  0  0  0
  9 14  1  0  0  0  0
 10 11  1  0  0  0  0
 10  9  1  0  0  0  0
 11 19  1  0  0  0  0
 11 12  1  0  0  0  0
 12 13  1  0  0  0  0
 12 21  1  0  0  0  0
 13 23  1  0  0  0  0
 14 24  1  0  0  0  0
 14 13  1  0  0  0  0
 14 25  1  0  0  0  0
 15  9  1  0  0  0  0
 16 10  1  0  0  0  0
 17 10  1  0  0  0  0
 18 11  1  0  0  0  0
 20 12  1  0  0  0  0
 22 13  1  0  0  0  0
 26  5  1  0  0  0  0
 26 30  2  0  0  0  0
 27 28  2  0  0  0  0
 27 26  1  0  0  0  0
 28 29  1  0  0  0  0
 29 33  1  0  0  0  0
 29 30  1  0  0  0  0
 31 28  1  0  0  0  0
 32 39  1  0  0  0  0
 32 41  1  0  0  0  0
 33 32  2  0  0  0  0
 34 36  2  0  0  0  0
 34 33  1  0  0  0  0
 35 34  1  0  0  0  0
 36 38  1  0  0  0  0
 37 36  1  0  0  0  0
 38 39  2  0  0  0  0
 41 40  3  0  0  0  0
M  END
>  <minimizedAffinity>
-4.18682337

>  <minimizedRMSD>
1.04280221

$$$$
