
 OpenBabel03252507223D

 48 51  0  0  1  0  0  0  0  0999 V2000
   47.4480   33.5050   42.9110 C   0  0  0  0  0  0  0  0  0  0  0  0
   48.5810   33.4780   43.5190 O   0  0  0  0  0  0  0  0  0  0  0  0
   47.1560   32.7530   41.7130 N   0  0  0  0  0  0  0  0  0  0  0  0
   45.9770   32.0040   41.3450 C   0  0  0  0  0  0  0  0  0  0  0  0
   45.5190   32.4770   39.9590 C   0  0  0  0  0  0  0  0  0  0  0  0
   46.5630   32.1580   38.9290 C   0  0  0  0  0  0  0  0  0  0  0  0
   47.8660   31.8120   39.6120 C   0  0  0  0  0  0  0  0  0  0  0  0
   48.2140   32.7890   40.7080 C   0  0  2  0  0  0  0  0  0  0  0  0
   45.1270   32.2230   42.0490 H   0  0  0  0  0  0  0  0  0  0  0  0
   46.1540   30.9160   41.2610 H   0  0  0  0  0  0  0  0  0  0  0  0
   45.3270   33.5760   40.0310 H   0  0  0  0  0  0  0  0  0  0  0  0
   44.5780   31.9390   39.7360 H   0  0  0  0  0  0  0  0  0  0  0  0
   46.7500   33.0940   38.3590 H   0  0  0  0  0  0  0  0  0  0  0  0
   46.2630   31.3090   38.3030 H   0  0  0  0  0  0  0  0  0  0  0  0
   48.7100   31.7480   38.9130 H   0  0  0  0  0  0  0  0  0  0  0  0
   47.7660   30.7600   40.0220 H   0  0  0  0  0  0  0  0  0  0  0  0
   48.1860   33.7940   40.2720 H   0  0  0  0  0  0  0  0  0  0  0  0
   46.0530   35.4960   42.7590 C   0  0  0  0  0  0  0  0  0  0  0  0
   46.4250   34.3380   43.4680 C   0  0  0  0  0  0  0  0  0  0  0  0
   45.8040   34.0410   44.6710 C   0  0  0  0  0  0  0  0  0  0  0  0
   44.8530   34.8940   45.1100 N   0  0  0  0  0  0  0  0  0  0  0  0
   44.4780   36.0060   44.4520 C   0  0  0  0  0  0  0  0  0  0  0  0
   45.0940   36.2930   43.2710 N   0  0  0  0  0  0  0  0  0  0  0  0
   46.5280   35.7480   41.8190 H   0  0  0  0  0  0  0  0  0  0  0  0
   43.7100   36.6750   44.8400 H   0  0  0  0  0  0  0  0  0  0  0  0
   46.2050   32.8400   45.3840 C   0  0  0  0  0  0  0  0  0  0  0  0
   45.8700   31.6140   44.8930 C   0  0  0  0  0  0  0  0  0  0  0  0
   46.2660   30.5050   45.5940 C   0  0  0  0  0  0  0  0  0  0  0  0
   46.9870   30.5660   46.7760 C   0  0  0  0  0  0  0  0  0  0  0  0
   47.2940   31.8400   47.2220 C   0  0  0  0  0  0  0  0  0  0  0  0
   46.8970   32.9040   46.5200 N   0  0  0  0  0  0  0  0  0  0  0  0
   45.3170   31.4240   43.9890 H   0  0  0  0  0  0  0  0  0  0  0  0
   46.0100   29.5010   45.2170 H   0  0  0  0  0  0  0  0  0  0  0  0
   47.2860   29.6780   47.3100 H   0  0  0  0  0  0  0  0  0  0  0  0
   47.8590   31.9150   48.1380 H   0  0  0  0  0  0  0  0  0  0  0  0
   49.5770   32.5460   41.2130 C   0  0  0  0  0  0  0  0  0  0  0  0
   50.1920   32.7670   40.2700 H   0  0  0  0  0  0  0  0  0  0  0  0
   50.0010   33.3860   41.8520 H   0  0  0  0  0  0  0  0  0  0  0  0
   50.9620   30.5130   40.8670 C   0  0  0  0  0  0  0  0  0  0  0  0
   50.0150   31.2360   41.6330 C   0  0  0  0  0  0  0  0  0  0  0  0
   49.6220   30.4340   42.7080 C   0  0  0  0  0  0  0  0  0  0  0  0
   48.8620   30.8280   43.3650 H   0  0  0  0  0  0  0  0  0  0  0  0
   50.0110   29.1930   43.0430 C   0  0  0  0  0  0  0  0  0  0  0  0
   49.6050   28.6880   43.9270 H   0  0  0  0  0  0  0  0  0  0  0  0
   50.9330   28.5430   42.2660 C   0  0  0  0  0  3  0  0  0  0  0  0
   51.4080   29.2210   41.1630 C   0  0  0  0  0  3  0  0  0  0  0  0
   52.0160   31.6970   38.7680 N   0  0  0  0  0  0  0  0  0  0  0  0
   51.5440   31.1570   39.7060 C   0  0  0  0  0  0  0  0  0  0  0  0
  1 19  1  0  0  0  0
  1  2  2  0  0  0  0
  3  1  1  0  0  0  0
  4  3  1  0  0  0  0
  4  9  1  0  0  0  0
  5 11  1  0  0  0  0
  5  4  1  0  0  0  0
  6  7  1  0  0  0  0
  6  5  1  0  0  0  0
  7 16  1  0  0  0  0
  7  8  1  0  0  0  0
  8 17  1  6  0  0  0
  8 36  1  0  0  0  0
  8  3  1  0  0  0  0
 10  4  1  0  0  0  0
 12  5  1  0  0  0  0
 13  6  1  0  0  0  0
 14  6  1  0  0  0  0
 15  7  1  0  0  0  0
 18 23  2  0  0  0  0
 18 19  1  0  0  0  0
 19 20  2  0  0  0  0
 20 21  1  0  0  0  0
 20 26  1  0  0  0  0
 22 25  1  0  0  0  0
 22 21  2  0  0  0  0
 23 22  1  0  0  0  0
 24 18  1  0  0  0  0
 26 31  1  0  0  0  0
 27 26  2  0  0  0  0
 27 28  1  0  0  0  0
 28 29  2  0  0  0  0
 29 30  1  0  0  0  0
 29 34  1  0  0  0  0
 30 35  1  0  0  0  0
 31 30  2  0  0  0  0
 32 27  1  0  0  0  0
 33 28  1  0  0  0  0
 36 40  1  0  0  0  0
 36 38  1  0  0  0  0
 37 36  1  0  0  0  0
 39 46  2  0  0  0  0
 39 40  1  0  0  0  0
 40 41  2  0  0  0  0
 41 43  1  0  0  0  0
 41 42  1  0  0  0  0
 43 44  1  0  0  0  0
 45 43  2  0  0  0  0
 46 45  1  0  0  0  0
 47 48  3  0  0  0  0
 48 39  1  0  0  0  0
M  END
>  <minimizedAffinity>
-4.97944641

>  <minimizedRMSD>
0.447758585

$$$$
