
 OpenBabel03242514583D

 26 27  0  0  0  0  0  0  0  0999 V2000
   37.3400   29.0990   42.4330 C   0  0  0  0  0  0  0  0  0  0  0  0
   36.3930   28.5370   42.2840 H   0  0  0  0  0  0  0  0  0  0  0  0
   37.0880   30.0250   43.0200 H   0  0  0  0  0  0  0  0  0  0  0  0
   38.2290   28.2660   43.3130 C   0  0  0  0  0  0  0  0  0  0  0  0
   37.9040   28.4260   44.3650 H   0  0  0  0  0  0  0  0  0  0  0  0
   39.2830   28.6420   43.2630 H   0  0  0  0  0  0  0  0  0  0  0  0
   39.3080   26.1110   42.9890 C   0  0  0  0  0  0  0  0  0  0  0  0
   38.1370   26.8390   42.9390 C   0  0  0  0  0  0  0  0  0  0  0  0
   36.9730   26.2110   42.5540 C   0  0  0  0  0  0  0  0  0  0  0  0
   36.0710   26.8040   42.5220 H   0  0  0  0  0  0  0  0  0  0  0  0
   37.0070   24.8600   42.2260 C   0  0  0  0  0  0  0  0  0  0  0  0
   36.0630   24.4510   41.9390 H   0  0  0  0  0  0  0  0  0  0  0  0
   38.2040   24.1660   42.2910 C   0  0  0  0  0  3  0  0  0  0  0  0
   39.3900   24.7620   42.6710 C   0  0  0  0  0  3  0  0  0  0  0  0
   41.5690   27.2250   43.6790 N   0  0  0  0  0  0  0  0  0  0  0  0
   40.5590   26.7210   43.3800 C   0  0  0  0  0  0  0  0  0  0  0  0
   38.0070   29.5400   40.8520 S   0  0  0  0  0  0  0  0  0  0  0  0
   38.1300   31.3100   40.5880 C   0  0  0  0  0  0  0  0  0  0  0  0
   37.1620   31.8480   39.7270 C   0  0  0  0  0  0  0  0  0  0  0  0
   37.2010   33.2330   39.4740 C   0  0  0  0  0  0  0  0  0  0  0  0
   38.1770   33.9770   40.0780 N   0  0  0  0  0  0  0  0  0  0  0  0
   39.0840   33.4130   40.8970 C   0  0  0  0  0  0  0  0  0  0  0  0
   39.0800   32.1000   41.1630 N   0  0  0  0  0  0  0  0  0  0  0  0
   36.4010   31.2390   39.2610 H   0  0  0  0  0  0  0  0  0  0  0  0
   36.4540   33.6340   38.8140 H   0  0  0  0  0  0  0  0  0  0  0  0
   39.8490   34.0190   41.3660 H   0  0  0  0  0  0  0  0  0  0  0  0
  1  3  1  0  0  0  0
  1  4  1  0  0  0  0
  2  1  1  0  0  0  0
  4  5  1  0  0  0  0
  6  4  1  0  0  0  0
  7 16  1  0  0  0  0
  8  7  1  0  0  0  0
  8  4  1  0  0  0  0
  9  8  2  0  0  0  0
 10  9  1  0  0  0  0
 11 13  2  0  0  0  0
 11  9  1  0  0  0  0
 12 11  1  0  0  0  0
 13 14  1  0  0  0  0
 14  7  2  0  0  0  0
 16 15  3  0  0  0  0
 17  1  1  0  0  0  0
 18 17  1  0  0  0  0
 18 23  1  0  0  0  0
 19 18  2  0  0  0  0
 20 19  1  0  0  0  0
 20 21  2  0  0  0  0
 21 22  1  0  0  0  0
 22 23  2  0  0  0  0
 22 26  1  0  0  0  0
 24 19  1  0  0  0  0
 25 20  1  0  0  0  0
M  END
>  <minimizedAffinity>
-4.66076851

$$$$

 OpenBabel03242514583D

 26 27  0  0  0  0  0  0  0  0999 V2000
   36.4380   29.1120   41.6350 C   0  0  0  0  0  0  0  0  0  0  0  0
   35.4650   28.8150   42.0810 H   0  0  0  0  0  0  0  0  0  0  0  0
   36.6310   28.4230   40.7680 H   0  0  0  0  0  0  0  0  0  0  0  0
   36.2700   30.4890   41.0550 C   0  0  0  0  0  0  0  0  0  0  0  0
   36.9780   31.1640   41.5840 H   0  0  0  0  0  0  0  0  0  0  0  0
   35.2470   30.8830   41.2860 H   0  0  0  0  0  0  0  0  0  0  0  0
   37.3800   31.4510   39.1170 C   0  0  0  0  0  0  0  0  0  0  0  0
   36.5360   30.4730   39.6010 C   0  0  0  0  0  0  0  0  0  0  0  0
   36.0020   29.5540   38.7240 C   0  0  0  0  0  0  0  0  0  0  0  0
   35.3430   28.8000   39.1290 H   0  0  0  0  0  0  0  0  0  0  0  0
   36.3250   29.6360   37.3740 C   0  0  0  0  0  0  0  0  0  0  0  0
   35.8690   28.8880   36.7640 H   0  0  0  0  0  0  0  0  0  0  0  0
   37.1770   30.6350   36.9300 C   0  0  0  0  0  3  0  0  0  0  0  0
   37.7310   31.5720   37.7780 C   0  0  0  0  0  3  0  0  0  0  0  0
   38.4460   33.2510   40.6830 N   0  0  0  0  0  0  0  0  0  0  0  0
   37.9630   32.4430   39.9910 C   0  0  0  0  0  0  0  0  0  0  0  0
   37.7130   28.9340   42.8530 S   0  0  0  0  0  0  0  0  0  0  0  0
   38.4110   27.2840   42.9320 C   0  0  0  0  0  0  0  0  0  0  0  0
   37.7460   26.3230   42.1580 C   0  0  0  0  0  0  0  0  0  0  0  0
   38.2410   25.0040   42.1750 C   0  0  0  0  0  0  0  0  0  0  0  0
   39.3400   24.7330   42.9420 N   0  0  0  0  0  0  0  0  0  0  0  0
   39.9440   25.6910   43.6680 C   0  0  0  0  0  0  0  0  0  0  0  0
   39.5040   26.9560   43.6790 N   0  0  0  0  0  0  0  0  0  0  0  0
   36.8780   26.5630   41.5600 H   0  0  0  0  0  0  0  0  0  0  0  0
   37.7230   24.2770   41.5770 H   0  0  0  0  0  0  0  0  0  0  0  0
   40.8130   25.4560   44.2700 H   0  0  0  0  0  0  0  0  0  0  0  0
  1  2  1  0  0  0  0
  1 17  1  0  0  0  0
  3  1  1  0  0  0  0
  4  6  1  0  0  0  0
  4  5  1  0  0  0  0
  4  1  1  0  0  0  0
  7  8  1  0  0  0  0
  7 16  1  0  0  0  0
  8  4  1  0  0  0  0
  9 10  1  0  0  0  0
  9  8  2  0  0  0  0
 11  9  1  0  0  0  0
 12 11  1  0  0  0  0
 13 11  2  0  0  0  0
 13 14  1  0  0  0  0
 14  7  2  0  0  0  0
 16 15  3  0  0  0  0
 17 18  1  0  0  0  0
 18 23  1  0  0  0  0
 19 20  1  0  0  0  0
 19 18  2  0  0  0  0
 20 21  2  0  0  0  0
 21 22  1  0  0  0  0
 22 23  2  0  0  0  0
 22 26  1  0  0  0  0
 24 19  1  0  0  0  0
 25 20  1  0  0  0  0
M  END
>  <minimizedAffinity>
-4.47625208

$$$$

 OpenBabel03242514583D

 26 27  0  0  0  0  0  0  0  0999 V2000
   40.0600   29.1620   42.3520 C   0  0  0  0  0  0  0  0  0  0  0  0
   41.0050   28.7160   42.7290 H   0  0  0  0  0  0  0  0  0  0  0  0
   39.9150   28.7940   41.2990 H   0  0  0  0  0  0  0  0  0  0  0  0
   38.9330   28.5850   43.1630 C   0  0  0  0  0  0  0  0  0  0  0  0
   37.9980   29.1020   42.8520 H   0  0  0  0  0  0  0  0  0  0  0  0
   39.0690   28.8350   44.2460 H   0  0  0  0  0  0  0  0  0  0  0  0
   37.7410   26.6830   42.2260 C   0  0  0  0  0  0  0  0  0  0  0  0
   38.8320   27.1270   42.9450 C   0  0  0  0  0  0  0  0  0  0  0  0
   39.7490   26.2080   43.4080 C   0  0  0  0  0  0  0  0  0  0  0  0
   40.5930   26.5820   43.9680 H   0  0  0  0  0  0  0  0  0  0  0  0
   39.5520   24.8580   43.1400 C   0  0  0  0  0  0  0  0  0  0  0  0
   40.3070   24.2140   43.5330 H   0  0  0  0  0  0  0  0  0  0  0  0
   38.4420   24.4550   42.4140 C   0  0  0  0  0  3  0  0  0  0  0  0
   37.5040   25.3460   41.9350 C   0  0  0  0  0  3  0  0  0  0  0  0
   35.9390   28.3510   41.3340 N   0  0  0  0  0  0  0  0  0  0  0  0
   36.7460   27.6020   41.7230 C   0  0  0  0  0  0  0  0  0  0  0  0
   40.2030   30.9280   42.3690 S   0  0  0  0  0  0  0  0  0  0  0  0
   39.0270   31.7580   41.2990 C   0  0  0  0  0  0  0  0  0  0  0  0
   39.4030   33.0480   40.8960 C   0  0  0  0  0  0  0  0  0  0  0  0
   38.5240   33.7580   40.0560 C   0  0  0  0  0  0  0  0  0  0  0  0
   37.3560   33.1550   39.6790 N   0  0  0  0  0  0  0  0  0  0  0  0
   37.0400   31.9150   40.0930 C   0  0  0  0  0  0  0  0  0  0  0  0
   37.8490   31.2070   40.8930 N   0  0  0  0  0  0  0  0  0  0  0  0
   40.3320   33.5020   41.2080 H   0  0  0  0  0  0  0  0  0  0  0  0
   38.8240   34.7450   39.7520 H   0  0  0  0  0  0  0  0  0  0  0  0
   36.1100   31.4540   39.7840 H   0  0  0  0  0  0  0  0  0  0  0  0
  1 17  1  0  0  0  0
  1  2  1  0  0  0  0
  1  4  1  0  0  0  0
  3  1  1  0  0  0  0
  4  6  1  0  0  0  0
  5  4  1  0  0  0  0
  7  8  1  0  0  0  0
  8  4  1  0  0  0  0
  8  9  2  0  0  0  0
  9 10  1  0  0  0  0
 11  9  1  0  0  0  0
 11 12  1  0  0  0  0
 13 11  2  0  0  0  0
 14  7  2  0  0  0  0
 14 13  1  0  0  0  0
 15 16  3  0  0  0  0
 16  7  1  0  0  0  0
 18 17  1  0  0  0  0
 19 24  1  0  0  0  0
 19 18  1  0  0  0  0
 20 19  2  0  0  0  0
 21 20  1  0  0  0  0
 21 22  2  0  0  0  0
 22 23  1  0  0  0  0
 23 18  2  0  0  0  0
 25 20  1  0  0  0  0
 26 22  1  0  0  0  0
M  END
>  <minimizedAffinity>
-4.44792557

$$$$

 OpenBabel03242514583D

 26 27  0  0  0  0  0  0  0  0999 V2000
   37.7410   29.6660   42.2560 C   0  0  0  0  0  0  0  0  0  0  0  0
   38.5720   29.3720   41.5810 H   0  0  0  0  0  0  0  0  0  0  0  0
   37.9930   30.6800   42.6720 H   0  0  0  0  0  0  0  0  0  0  0  0
   36.5120   29.8480   41.4090 C   0  0  0  0  0  0  0  0  0  0  0  0
   35.7500   30.3670   42.0310 H   0  0  0  0  0  0  0  0  0  0  0  0
   36.0660   28.8510   41.1560 H   0  0  0  0  0  0  0  0  0  0  0  0
   36.8220   29.9430   38.9990 C   0  0  0  0  0  0  0  0  0  0  0  0
   36.8310   30.6290   40.1960 C   0  0  0  0  0  0  0  0  0  0  0  0
   37.1270   31.9750   40.1940 C   0  0  0  0  0  0  0  0  0  0  0  0
   37.1280   32.4880   41.1450 H   0  0  0  0  0  0  0  0  0  0  0  0
   37.4100   32.6070   38.9890 C   0  0  0  0  0  0  0  0  0  0  0  0
   37.6280   33.6480   39.0760 H   0  0  0  0  0  0  0  0  0  0  0  0
   37.3900   31.8800   37.8100 C   0  0  0  0  0  3  0  0  0  0  0  0
   37.0980   30.5320   37.7720 C   0  0  0  0  0  3  0  0  0  0  0  0
   36.2690   27.3910   38.8870 N   0  0  0  0  0  0  0  0  0  0  0  0
   36.5250   28.5300   38.9430 C   0  0  0  0  0  0  0  0  0  0  0  0
   37.6100   28.4810   43.5670 S   0  0  0  0  0  0  0  0  0  0  0  0
   38.1220   26.8270   43.1000 C   0  0  0  0  0  0  0  0  0  0  0  0
   37.1940   26.1190   42.3220 C   0  0  0  0  0  0  0  0  0  0  0  0
   37.5320   24.8110   41.9210 C   0  0  0  0  0  0  0  0  0  0  0  0
   38.7410   24.3040   42.3090 N   0  0  0  0  0  0  0  0  0  0  0  0
   39.5970   25.0240   43.0570 C   0  0  0  0  0  0  0  0  0  0  0  0
   39.3130   26.2700   43.4580 N   0  0  0  0  0  0  0  0  0  0  0  0
   36.2450   26.5420   42.0280 H   0  0  0  0  0  0  0  0  0  0  0  0
   36.8130   24.2790   41.3240 H   0  0  0  0  0  0  0  0  0  0  0  0
   40.5500   24.6050   43.3550 H   0  0  0  0  0  0  0  0  0  0  0  0
  1  3  1  0  0  0  0
  1 17  1  0  0  0  0
  2  1  1  0  0  0  0
  4  5  1  0  0  0  0
  4  1  1  0  0  0  0
  6  4  1  0  0  0  0
  7  8  1  0  0  0  0
  8  4  1  0  0  0  0
  9  8  2  0  0  0  0
  9 10  1  0  0  0  0
 11 12  1  0  0  0  0
 11  9  1  0  0  0  0
 13 11  2  0  0  0  0
 14 13  1  0  0  0  0
 14  7  2  0  0  0  0
 15 16  3  0  0  0  0
 16  7  1  0  0  0  0
 18 23  1  0  0  0  0
 18 17  1  0  0  0  0
 19 18  2  0  0  0  0
 20 21  2  0  0  0  0
 20 19  1  0  0  0  0
 21 22  1  0  0  0  0
 22 26  1  0  0  0  0
 22 23  2  0  0  0  0
 24 19  1  0  0  0  0
 25 20  1  0  0  0  0
M  END
>  <minimizedAffinity>
-4.37983704

$$$$

 OpenBabel03242514583D

 26 27  0  0  0  0  0  0  0  0999 V2000
   37.6560   29.0890   38.9140 C   0  0  0  0  0  0  0  0  0  0  0  0
   38.1060   28.7430   37.9600 H   0  0  0  0  0  0  0  0  0  0  0  0
   36.8210   28.3780   39.1660 H   0  0  0  0  0  0  0  0  0  0  0  0
   38.6920   28.9250   39.9910 C   0  0  0  0  0  0  0  0  0  0  0  0
   39.1780   29.9140   40.1420 H   0  0  0  0  0  0  0  0  0  0  0  0
   39.5060   28.2400   39.6420 H   0  0  0  0  0  0  0  0  0  0  0  0
   38.3230   29.1740   42.3820 C   0  0  0  0  0  0  0  0  0  0  0  0
   38.0670   28.4420   41.2410 C   0  0  0  0  0  0  0  0  0  0  0  0
   37.2610   27.3280   41.3250 C   0  0  0  0  0  0  0  0  0  0  0  0
   37.0780   26.7730   40.4170 H   0  0  0  0  0  0  0  0  0  0  0  0
   36.7250   26.9690   42.5570 C   0  0  0  0  0  0  0  0  0  0  0  0
   36.1120   26.0960   42.5350 H   0  0  0  0  0  0  0  0  0  0  0  0
   37.0070   27.7330   43.6790 C   0  0  0  0  0  3  0  0  0  0  0  0
   37.8100   28.8540   43.6330 C   0  0  0  0  0  3  0  0  0  0  0  0
   39.8580   31.2890   42.3430 N   0  0  0  0  0  0  0  0  0  0  0  0
   39.1670   30.3470   42.3520 C   0  0  0  0  0  0  0  0  0  0  0  0
   37.0180   30.7280   38.6950 S   0  0  0  0  0  0  0  0  0  0  0  0
   38.1820   32.0200   39.1320 C   0  0  0  0  0  0  0  0  0  0  0  0
   37.6660   33.0260   39.9630 C   0  0  0  0  0  0  0  0  0  0  0  0
   38.5270   34.0740   40.3430 C   0  0  0  0  0  0  0  0  0  0  0  0
   39.8150   34.0550   39.8850 N   0  0  0  0  0  0  0  0  0  0  0  0
   40.2630   33.0680   39.0890 C   0  0  0  0  0  0  0  0  0  0  0  0
   39.4760   32.0540   38.7040 N   0  0  0  0  0  0  0  0  0  0  0  0
   36.6440   33.0180   40.3120 H   0  0  0  0  0  0  0  0  0  0  0  0
   38.1200   34.8370   40.9810 H   0  0  0  0  0  0  0  0  0  0  0  0
   41.2870   33.0700   38.7350 H   0  0  0  0  0  0  0  0  0  0  0  0
  1  3  1  0  0  0  0
  1  4  1  0  0  0  0
  2  1  1  0  0  0  0
  4  5  1  0  0  0  0
  4  8  1  0  0  0  0
  6  4  1  0  0  0  0
  7 14  1  0  0  0  0
  8  9  1  0  0  0  0
  8  7  2  0  0  0  0
  9 11  2  0  0  0  0
 10  9  1  0  0  0  0
 11 13  1  0  0  0  0
 12 11  1  0  0  0  0
 14 13  2  0  0  0  0
 15 16  3  0  0  0  0
 16  7  1  0  0  0  0
 17  1  1  0  0  0  0
 17 18  1  0  0  0  0
 18 19  1  0  0  0  0
 19 24  1  0  0  0  0
 19 20  2  0  0  0  0
 20 25  1  0  0  0  0
 21 20  1  0  0  0  0
 22 21  2  0  0  0  0
 23 22  1  0  0  0  0
 23 18  2  0  0  0  0
 26 22  1  0  0  0  0
M  END
>  <minimizedAffinity>
-4.35391331

$$$$

 OpenBabel03242514583D

 26 27  0  0  0  0  0  0  0  0999 V2000
   36.8760   28.2050   40.7720 C   0  0  0  0  0  0  0  0  0  0  0  0
   37.9600   28.1350   40.5400 H   0  0  0  0  0  0  0  0  0  0  0  0
   36.3250   27.6680   39.9510 H   0  0  0  0  0  0  0  0  0  0  0  0
   36.6300   27.4210   42.0300 C   0  0  0  0  0  0  0  0  0  0  0  0
   35.9210   26.6010   41.7810 H   0  0  0  0  0  0  0  0  0  0  0  0
   36.1010   28.0570   42.7850 H   0  0  0  0  0  0  0  0  0  0  0  0
   38.1340   25.5380   42.3620 C   0  0  0  0  0  0  0  0  0  0  0  0
   37.9010   26.8830   42.5610 C   0  0  0  0  0  0  0  0  0  0  0  0
   38.8450   27.6350   43.2260 C   0  0  0  0  0  0  0  0  0  0  0  0
   38.6380   28.6850   43.3690 H   0  0  0  0  0  0  0  0  0  0  0  0
   40.0070   27.0210   43.6800 C   0  0  0  0  0  0  0  0  0  0  0  0
   40.6850   27.6740   44.1830 H   0  0  0  0  0  0  0  0  0  0  0  0
   40.2010   25.6670   43.4580 C   0  0  0  0  0  3  0  0  0  0  0  0
   39.2780   24.8810   42.7960 C   0  0  0  0  0  3  0  0  0  0  0  0
   36.4020   24.0350   41.1070 N   0  0  0  0  0  0  0  0  0  0  0  0
   37.1750   24.7010   41.6770 C   0  0  0  0  0  0  0  0  0  0  0  0
   36.3990   29.9110   40.8160 S   0  0  0  0  0  0  0  0  0  0  0  0
   37.7830   31.0500   40.7450 C   0  0  0  0  0  0  0  0  0  0  0  0
   39.0470   30.4510   40.8560 C   0  0  0  0  0  0  0  0  0  0  0  0
   40.1790   31.2890   40.8100 C   0  0  0  0  0  0  0  0  0  0  0  0
   39.9870   32.6340   40.6610 N   0  0  0  0  0  0  0  0  0  0  0  0
   38.7530   33.1600   40.5600 C   0  0  0  0  0  0  0  0  0  0  0  0
   37.6510   32.3980   40.5990 N   0  0  0  0  0  0  0  0  0  0  0  0
   39.1730   29.3850   40.9730 H   0  0  0  0  0  0  0  0  0  0  0  0
   41.1420   30.8190   40.8940 H   0  0  0  0  0  0  0  0  0  0  0  0
   38.6200   34.2290   40.4430 H   0  0  0  0  0  0  0  0  0  0  0  0
  1 17  1  0  0  0  0
  1  4  1  0  0  0  0
  2  1  1  0  0  0  0
  3  1  1  0  0  0  0
  4  8  1  0  0  0  0
  4  6  1  0  0  0  0
  5  4  1  0  0  0  0
  7  8  2  0  0  0  0
  7 14  1  0  0  0  0
  8  9  1  0  0  0  0
  9 10  1  0  0  0  0
  9 11  2  0  0  0  0
 11 12  1  0  0  0  0
 13 11  1  0  0  0  0
 14 13  2  0  0  0  0
 15 16  3  0  0  0  0
 16  7  1  0  0  0  0
 18 17  1  0  0  0  0
 18 19  1  0  0  0  0
 19 24  1  0  0  0  0
 20 19  2  0  0  0  0
 20 25  1  0  0  0  0
 21 20  1  0  0  0  0
 22 23  1  0  0  0  0
 22 21  2  0  0  0  0
 23 18  2  0  0  0  0
 26 22  1  0  0  0  0
M  END
>  <minimizedAffinity>
-4.30412292

$$$$

 OpenBabel03242514583D

 26 27  0  0  0  0  0  0  0  0999 V2000
   36.4000   27.9080   40.3420 C   0  0  0  0  0  0  0  0  0  0  0  0
   35.9980   26.9350   39.9860 H   0  0  0  0  0  0  0  0  0  0  0  0
   37.3980   28.0570   39.8470 H   0  0  0  0  0  0  0  0  0  0  0  0
   35.4990   28.9900   39.8170 C   0  0  0  0  0  0  0  0  0  0  0  0
   34.6800   29.1330   40.5560 H   0  0  0  0  0  0  0  0  0  0  0  0
   34.9970   28.6510   38.8740 H   0  0  0  0  0  0  0  0  0  0  0  0
   36.6910   30.5010   38.3300 C   0  0  0  0  0  0  0  0  0  0  0  0
   36.2580   30.2420   39.6140 C   0  0  0  0  0  0  0  0  0  0  0  0
   36.5470   31.1450   40.6140 C   0  0  0  0  0  0  0  0  0  0  0  0
   36.1970   30.9180   41.6100 H   0  0  0  0  0  0  0  0  0  0  0  0
   37.2680   32.2930   40.3050 C   0  0  0  0  0  0  0  0  0  0  0  0
   37.4490   32.9390   41.1350 H   0  0  0  0  0  0  0  0  0  0  0  0
   37.6840   32.5140   39.0010 C   0  0  0  0  0  3  0  0  0  0  0  0
   37.4130   31.6330   37.9740 C   0  0  0  0  0  3  0  0  0  0  0  0
   36.2220   28.8460   36.3630 N   0  0  0  0  0  0  0  0  0  0  0  0
   36.4210   29.5860   37.2450 C   0  0  0  0  0  0  0  0  0  0  0  0
   36.5930   27.8470   42.1030 S   0  0  0  0  0  0  0  0  0  0  0  0
   38.3010   27.7410   42.6380 C   0  0  0  0  0  0  0  0  0  0  0  0
   39.0990   28.8420   42.2930 C   0  0  0  0  0  0  0  0  0  0  0  0
   40.4530   28.8230   42.6810 C   0  0  0  0  0  0  0  0  0  0  0  0
   40.9160   27.7370   43.3720 N   0  0  0  0  0  0  0  0  0  0  0  0
   40.1100   26.7050   43.6800 C   0  0  0  0  0  0  0  0  0  0  0  0
   38.8170   26.6840   43.3280 N   0  0  0  0  0  0  0  0  0  0  0  0
   38.7090   29.6880   41.7460 H   0  0  0  0  0  0  0  0  0  0  0  0
   41.0530   29.6720   42.4120 H   0  0  0  0  0  0  0  0  0  0  0  0
   40.4950   25.8530   44.2270 H   0  0  0  0  0  0  0  0  0  0  0  0
  1 17  1  0  0  0  0
  2  1  1  0  0  0  0
  3  1  1  0  0  0  0
  4  1  1  0  0  0  0
  4  5  1  0  0  0  0
  6  4  1  0  0  0  0
  7  8  1  0  0  0  0
  8  4  1  0  0  0  0
  8  9  2  0  0  0  0
  9 10  1  0  0  0  0
 11  9  1  0  0  0  0
 11 12  1  0  0  0  0
 13 11  2  0  0  0  0
 14  7  2  0  0  0  0
 14 13  1  0  0  0  0
 15 16  3  0  0  0  0
 16  7  1  0  0  0  0
 17 18  1  0  0  0  0
 18 23  1  0  0  0  0
 19 18  2  0  0  0  0
 19 20  1  0  0  0  0
 20 21  2  0  0  0  0
 21 22  1  0  0  0  0
 22 26  1  0  0  0  0
 23 22  2  0  0  0  0
 24 19  1  0  0  0  0
 25 20  1  0  0  0  0
M  END
>  <minimizedAffinity>
-4.23636341

$$$$

 OpenBabel03242514583D

 26 27  0  0  0  0  0  0  0  0999 V2000
   40.6330   30.2820   41.7540 C   0  0  0  0  0  0  0  0  0  0  0  0
   41.4700   30.5360   42.4400 H   0  0  0  0  0  0  0  0  0  0  0  0
   40.7200   29.1870   41.5140 H   0  0  0  0  0  0  0  0  0  0  0  0
   39.3520   30.4480   42.5220 C   0  0  0  0  0  0  0  0  0  0  0  0
   38.7280   31.1910   41.9770 H   0  0  0  0  0  0  0  0  0  0  0  0
   39.5580   30.9040   43.5240 H   0  0  0  0  0  0  0  0  0  0  0  0
   37.3780   29.0860   42.1140 C   0  0  0  0  0  0  0  0  0  0  0  0
   38.6510   29.1520   42.6440 C   0  0  0  0  0  0  0  0  0  0  0  0
   39.1880   28.0320   43.2400 C   0  0  0  0  0  0  0  0  0  0  0  0
   40.1850   28.1110   43.6470 H   0  0  0  0  0  0  0  0  0  0  0  0
   38.4350   26.8640   43.2950 C   0  0  0  0  0  0  0  0  0  0  0  0
   38.9240   26.0450   43.7730 H   0  0  0  0  0  0  0  0  0  0  0  0
   37.1600   26.8410   42.7510 C   0  0  0  0  0  3  0  0  0  0  0  0
   36.5900   27.9430   42.1460 C   0  0  0  0  0  3  0  0  0  0  0  0
   36.2590   31.1460   40.9600 N   0  0  0  0  0  0  0  0  0  0  0  0
   36.7640   30.2320   41.4830 C   0  0  0  0  0  0  0  0  0  0  0  0
   40.7810   31.2470   40.2750 S   0  0  0  0  0  0  0  0  0  0  0  0
   39.4470   30.9850   39.1060 C   0  0  0  0  0  0  0  0  0  0  0  0
   39.1660   29.6410   38.8200 C   0  0  0  0  0  0  0  0  0  0  0  0
   38.1300   29.3640   37.9080 C   0  0  0  0  0  0  0  0  0  0  0  0
   37.4550   30.4150   37.3500 N   0  0  0  0  0  0  0  0  0  0  0  0
   37.7630   31.6880   37.6560 C   0  0  0  0  0  0  0  0  0  0  0  0
   38.7410   31.9940   38.5200 N   0  0  0  0  0  0  0  0  0  0  0  0
   39.7140   28.8280   39.2740 H   0  0  0  0  0  0  0  0  0  0  0  0
   37.9230   28.3300   37.6980 H   0  0  0  0  0  0  0  0  0  0  0  0
   37.2180   32.5080   37.2050 H   0  0  0  0  0  0  0  0  0  0  0  0
  1  2  1  0  0  0  0
  1  4  1  0  0  0  0
  3  1  1  0  0  0  0
  4  8  1  0  0  0  0
  4  6  1  0  0  0  0
  5  4  1  0  0  0  0
  7 14  2  0  0  0  0
  7  8  1  0  0  0  0
  8  9  2  0  0  0  0
  9 11  1  0  0  0  0
  9 10  1  0  0  0  0
 11 12  1  0  0  0  0
 13 11  2  0  0  0  0
 14 13  1  0  0  0  0
 15 16  3  0  0  0  0
 16  7  1  0  0  0  0
 17  1  1  0  0  0  0
 18 17  1  0  0  0  0
 19 18  1  0  0  0  0
 19 24  1  0  0  0  0
 20 19  2  0  0  0  0
 21 22  2  0  0  0  0
 21 20  1  0  0  0  0
 22 23  1  0  0  0  0
 23 18  2  0  0  0  0
 25 20  1  0  0  0  0
 26 22  1  0  0  0  0
M  END
>  <minimizedAffinity>
-4.20113611

$$$$

 OpenBabel03242514583D

 26 27  0  0  0  0  0  0  0  0999 V2000
   37.6660   27.9640   38.2030 C   0  0  0  0  0  0  0  0  0  0  0  0
   38.2810   27.0470   38.3300 H   0  0  0  0  0  0  0  0  0  0  0  0
   36.9690   27.7800   37.3400 H   0  0  0  0  0  0  0  0  0  0  0  0
   36.8010   28.1020   39.4250 C   0  0  0  0  0  0  0  0  0  0  0  0
   35.7720   28.3460   39.0810 H   0  0  0  0  0  0  0  0  0  0  0  0
   37.1320   28.9810   40.0350 H   0  0  0  0  0  0  0  0  0  0  0  0
   37.0380   26.9790   41.5690 C   0  0  0  0  0  0  0  0  0  0  0  0
   36.8170   26.8510   40.2140 C   0  0  0  0  0  0  0  0  0  0  0  0
   36.6230   25.5950   39.6810 C   0  0  0  0  0  0  0  0  0  0  0  0
   36.4530   25.5230   38.6170 H   0  0  0  0  0  0  0  0  0  0  0  0
   36.6570   24.4880   40.5220 C   0  0  0  0  0  0  0  0  0  0  0  0
   36.4980   23.5540   40.0300 H   0  0  0  0  0  0  0  0  0  0  0  0
   36.8830   24.6610   41.8780 C   0  0  0  0  0  3  0  0  0  0  0  0
   37.0810   25.9030   42.4470 C   0  0  0  0  0  3  0  0  0  0  0  0
   37.4460   29.3140   42.6700 N   0  0  0  0  0  0  0  0  0  0  0  0
   37.2530   28.2710   42.1800 C   0  0  0  0  0  0  0  0  0  0  0  0
   38.7310   29.3350   37.8490 S   0  0  0  0  0  0  0  0  0  0  0  0
   38.4440   30.7620   38.8960 C   0  0  0  0  0  0  0  0  0  0  0  0
   37.4730   31.6570   38.4220 C   0  0  0  0  0  0  0  0  0  0  0  0
   37.1990   32.8020   39.1950 C   0  0  0  0  0  0  0  0  0  0  0  0
   37.8900   32.9800   40.3620 N   0  0  0  0  0  0  0  0  0  0  0  0
   38.8120   32.0920   40.7740 C   0  0  0  0  0  0  0  0  0  0  0  0
   39.1020   30.9900   40.0670 N   0  0  0  0  0  0  0  0  0  0  0  0
   36.9410   31.4950   37.4960 H   0  0  0  0  0  0  0  0  0  0  0  0
   36.4520   33.4790   38.8220 H   0  0  0  0  0  0  0  0  0  0  0  0
   39.3490   32.2490   41.7010 H   0  0  0  0  0  0  0  0  0  0  0  0
  1  2  1  0  0  0  0
  1  4  1  0  0  0  0
  3  1  1  0  0  0  0
  4  6  1  0  0  0  0
  4  8  1  0  0  0  0
  5  4  1  0  0  0  0
  7 16  1  0  0  0  0
  7 14  1  0  0  0  0
  8  7  2  0  0  0  0
  9  8  1  0  0  0  0
  9 11  2  0  0  0  0
 10  9  1  0  0  0  0
 11 13  1  0  0  0  0
 12 11  1  0  0  0  0
 13 14  2  0  0  0  0
 16 15  3  0  0  0  0
 17  1  1  0  0  0  0
 17 18  1  0  0  0  0
 18 23  1  0  0  0  0
 19 18  2  0  0  0  0
 19 20  1  0  0  0  0
 20 21  2  0  0  0  0
 21 22  1  0  0  0  0
 22 26  1  0  0  0  0
 23 22  2  0  0  0  0
 24 19  1  0  0  0  0
 25 20  1  0  0  0  0
M  END
>  <minimizedAffinity>
-4.18220043

$$$$
