
     RDKit          3D

 40 42  0  0  0  0  0  0  0  0999 V2000
   47.0734   32.6676   44.7922 C   0  0  0  0  0  0  0  0  0  0  0  0
   46.4886   34.5229   43.2918 C   0  0  0  0  0  0  0  0  0  0  0  0
   46.2755   33.8617   44.4892 C   0  0  0  0  0  0  0  0  0  0  0  0
   45.3540   34.2603   45.4176 C   0  0  0  0  0  0  0  0  0  0  0  0
   44.5969   35.3831   45.1427 C   0  0  0  0  0  0  0  0  0  0  0  0
   44.7324   36.1010   43.9934 C   0  0  0  0  0  0  0  0  0  0  0  0
   45.6934   35.6312   43.0959 C   0  0  0  0  0  0  0  0  0  0  0  0
   47.6497   34.0515   42.0843 S   0  0  0  0  0  0  0  0  0  0  0  0
   48.9954   34.6973   42.2866 O   0  0  0  0  0  0  0  0  0  0  0  0
   47.1824   34.5576   40.7353 O   0  0  0  0  0  0  0  0  0  0  0  0
   46.3372   31.6014   45.5772 C   0  0  0  0  0  0  0  0  0  0  0  0
   47.3736   32.1291   47.7698 C   0  0  0  0  0  0  0  0  0  0  0  0
   47.1724   31.2324   46.7074 C   0  0  0  0  0  0  0  0  0  0  0  0
   47.8204   29.9966   46.8210 C   0  0  0  0  0  0  0  0  0  0  0  0
   48.5793   29.7427   47.9111 N   0  0  0  0  0  0  0  0  0  0  0  0
   48.7440   30.6278   48.9022 C   0  0  0  0  0  0  0  0  0  0  0  0
   48.1444   31.8077   48.8264 N   0  0  0  0  0  0  0  0  0  0  0  0
   47.5245   32.2031   43.8887 H   0  0  0  0  0  0  0  0  0  0  0  0
   47.9737   33.0521   45.3584 H   0  0  0  0  0  0  0  0  0  0  0  0
   45.1399   33.8044   46.3519 H   0  0  0  0  0  0  0  0  0  0  0  0
   43.8446   35.7580   45.8358 H   0  0  0  0  0  0  0  0  0  0  0  0
   44.1671   36.9810   43.7336 H   0  0  0  0  0  0  0  0  0  0  0  0
   45.8151   36.1930   42.1719 H   0  0  0  0  0  0  0  0  0  0  0  0
   47.7522   32.6928   41.9235 H   0  0  0  0  0  0  0  0  0  0  0  0
   45.2922   31.8575   45.8139 H   0  0  0  0  0  0  0  0  0  0  0  0
   46.2492   30.6746   44.9342 H   0  0  0  0  0  0  0  0  0  0  0  0
   46.9254   33.1134   47.7952 H   0  0  0  0  0  0  0  0  0  0  0  0
   47.6617   29.3145   46.0030 H   0  0  0  0  0  0  0  0  0  0  0  0
   49.3336   33.7341   50.5152 N   0  0  0  0  0  0  0  0  0  0  0  0
   49.6405   32.6388   50.6942 C   0  0  0  0  0  0  0  0  0  0  0  0
   50.0071   31.2802   50.9124 C   0  0  0  0  0  0  0  0  0  0  0  0
   49.5794   30.2804   50.0480 C   0  0  0  0  0  0  0  0  0  0  0  0
   49.9354   28.9496   50.2572 C   0  0  0  0  0  0  0  0  0  0  0  0
   49.6013   28.1720   49.5828 H   0  0  0  0  0  0  0  0  0  0  0  0
   50.7240   28.5720   51.3270 C   0  0  0  0  0  0  0  0  0  0  0  0
   51.0037   27.5456   51.4959 H   0  0  0  0  0  0  0  0  0  0  0  0
   51.1224   29.6003   52.1551 C   0  0  0  0  0  0  0  0  0  0  0  0
   50.8031   30.9291   51.9993 C   0  0  0  0  0  0  0  0  0  0  0  0
   51.7448   29.3531   53.0116 H   0  0  0  0  0  0  0  0  0  0  0  0
   51.1505   31.6882   52.6891 H   0  0  0  0  0  0  0  0  0  0  0  0
  1 11  1  0
  2  3  2  0
  3  1  1  0
  3  4  1  0
  5  4  2  0
  6  5  1  0
  7  2  1  0
  7  6  2  0
  8  9  2  0
  8  2  1  0
 10  8  2  0
 11 13  1  0
 12 17  2  0
 13 14  2  0
 13 12  1  0
 14 15  1  0
 15 16  2  0
 17 16  1  0
  1 18  1  0
  1 19  1  0
  4 20  1  0
  5 21  1  0
  6 22  1  0
  7 23  1  0
  8 24  1  0
 11 25  1  0
 11 26  1  0
 12 27  1  0
 14 28  1  0
 29 30  3  0
 30 31  1  0
 31 32  2  0
 32 33  1  0
 33 34  1  0
 33 35  2  0
 35 36  1  0
 35 37  1  0
 37 38  2  0
 38 31  1  0
 37 39  1  0
 38 40  1  0
 16 32  1  0
M  ISO  8  18   8  19   8  20  14  21  14  22  14  23  14  24  11  25   8
M  ISO  5  26   8  27  14  28  14  34  15  36  16
M  END
>  <DihAtoms>  (1) 
14,15,31,30

>  <DihDeg>  (1) 
-179.9989913799902

$$$$
