
 OpenBabel03252507463D

 38 40  0  0  0  0  0  0  0  0999 V2000
   46.9590   34.3610   40.9290 C   0  0  0  0  0  0  0  0  0  0  0  0
   47.0760   35.1540   40.1550 H   0  0  0  0  0  0  0  0  0  0  0  0
   46.3780   33.4870   40.5690 H   0  0  0  0  0  0  0  0  0  0  0  0
   48.3110   34.0010   41.3680 C   0  0  0  0  0  0  0  0  0  0  0  0
   48.7640   32.7520   40.9740 C   0  0  0  0  0  0  0  0  0  0  0  0
   50.0360   32.3110   41.3550 C   0  0  0  0  0  0  0  0  0  0  0  0
   50.7940   33.1570   42.1190 N   0  0  0  0  0  0  0  0  0  0  0  0
   50.3080   34.3700   42.4790 C   0  0  0  0  0  0  0  0  0  0  0  0
   49.0950   34.7630   42.1030 N   0  0  0  0  0  0  0  0  0  0  0  0
   50.3540   31.3370   41.0320 H   0  0  0  0  0  0  0  0  0  0  0  0
   50.8870   35.0540   43.0820 H   0  0  0  0  0  0  0  0  0  0  0  0
   47.7470   31.6450   39.9830 S   0  0  0  0  0  0  0  0  0  0  0  0
   47.4870   31.2900   37.1360 C   0  0  0  0  0  0  0  0  0  0  0  0
   47.9160   31.9820   38.2440 C   0  0  0  0  0  0  0  0  0  0  0  0
   48.6270   33.1710   38.0340 C   0  0  0  0  0  0  0  0  0  0  0  0
   49.0410   33.8430   38.7900 H   0  0  0  0  0  0  0  0  0  0  0  0
   48.9000   33.6500   36.7560 C   0  0  0  0  0  0  0  0  0  0  0  0
   49.4350   34.5440   36.5320 H   0  0  0  0  0  0  0  0  0  0  0  0
   48.4520   32.9270   35.6480 C   0  0  0  0  0  3  0  0  0  0  0  0
   47.7590   31.7690   35.8800 C   0  0  0  0  0  3  0  0  0  0  0  0
   46.2360   29.0960   37.6590 N   0  0  0  0  0  0  0  0  0  0  0  0
   46.7940   30.0900   37.4320 C   0  0  0  0  0  0  0  0  0  0  0  0
   46.1240   34.9770   42.0220 C   0  0  0  0  0  0  0  0  0  0  0  0
   46.4510   36.0260   42.2030 H   0  0  0  0  0  0  0  0  0  0  0  0
   46.2780   34.4380   42.9870 H   0  0  0  0  0  0  0  0  0  0  0  0
   44.6590   34.9580   41.7510 C   0  0  0  0  0  0  0  0  0  0  0  0
   43.7560   35.4580   42.7390 C   0  0  0  0  0  0  0  0  0  0  0  0
   42.1140   35.2210   41.9530 S   0  0  0  0  0  0  0  0  0  0  0  0
   42.9380   34.4750   40.4040 C   0  0  0  0  0  0  0  0  0  0  0  0
   44.0410   34.5260   40.6860 N   0  0  0  0  0  0  0  0  0  0  0  0
   44.0150   35.8730   43.7100 H   0  0  0  0  0  0  0  0  0  0  0  0
   42.2150   34.0320   39.2950 O   0  0  0  0  0  0  0  0  0  0  0  0
   40.3180   34.5610   37.5280 O   0  0  0  0  0  0  0  0  0  0  0  0
   41.4170   35.1980   38.3630 P   0  0  0  0  0  0  0  0  0  0  0  0
   40.7220   36.3210   39.4140 O   0  0  0  0  0  0  0  0  0  0  0  0
   39.8870   35.9040   39.7600 H   0  0  0  0  0  0  0  0  0  0  0  0
   42.5430   36.0070   37.3800 O   0  0  0  0  0  0  0  0  0  0  0  0
   42.8590   35.4170   36.6520 H   0  0  0  0  0  0  0  0  0  0  0  0
  1  4  1  0  0  0  0
  1 23  1  0  0  0  0
  2  1  1  0  0  0  0
  3  1  1  0  0  0  0
  4  9  1  0  0  0  0
  5  6  1  0  0  0  0
  5  4  2  0  0  0  0
  6  7  2  0  0  0  0
  7  8  1  0  0  0  0
  8 11  1  0  0  0  0
  9  8  2  0  0  0  0
 10  6  1  0  0  0  0
 12  5  1  0  0  0  0
 13 22  1  0  0  0  0
 13 14  1  0  0  0  0
 14 12  1  0  0  0  0
 15 14  2  0  0  0  0
 15 16  1  0  0  0  0
 17 15  1  0  0  0  0
 18 17  1  0  0  0  0
 19 20  1  0  0  0  0
 19 17  2  0  0  0  0
 20 13  2  0  0  0  0
 22 21  3  0  0  0  0
 23 24  1  0  0  0  0
 23 25  1  0  0  0  0
 26 23  1  0  0  0  0
 26 27  2  0  0  0  0
 27 31  1  0  0  0  0
 28 27  1  0  0  0  0
 29 30  2  0  0  0  0
 29 28  1  0  0  0  0
 30 26  1  0  0  0  0
 32 29  1  0  0  0  0
 33 34  2  0  0  0  0
 34 32  1  0  0  0  0
 34 35  1  0  0  0  0
 35 36  1  0  0  0  0
 37 34  1  0  0  0  0
 38 37  1  0  0  0  0
M  END
>  <minimizedAffinity>
-4.79821444

>  <minimizedRMSD>
0.433212131

$$$$
