
     RDKit          3D

 50 53  0  0  0  0  0  0  0  0999 V2000
   47.2007   34.1130   42.4372 C   0  0  2  0  0  0  0  0  0  0  0  0
   48.5718   34.7026   42.5846 C   0  0  0  0  0  0  0  0  0  0  0  0
   48.8789   35.6970   41.5330 C   0  0  0  0  0  0  0  0  0  0  0  0
   48.7197   35.1213   40.1335 C   0  0  0  0  0  0  0  0  0  0  0  0
   47.5116   34.2524   39.9774 C   0  0  0  0  0  0  0  0  0  0  0  0
   46.5429   34.3651   41.1309 C   0  0  1  0  0  0  0  0  0  0  0  0
   46.2979   34.4803   43.5455 C   0  0  0  0  0  0  0  0  0  0  0  0
   45.6048   35.6565   43.3221 C   0  0  0  0  0  0  0  0  0  0  0  0
   44.7005   36.1302   44.2868 C   0  0  0  0  0  0  0  0  0  0  0  0
   44.5780   35.3373   45.4349 N   0  0  0  0  0  0  0  0  0  0  0  0
   45.2770   34.1993   45.6051 C   0  0  0  0  0  0  0  0  0  0  0  0
   46.1356   33.7802   44.6513 N   0  0  0  0  0  0  0  0  0  0  0  0
   45.4808   33.3174   40.9351 C   0  0  2  0  0  0  0  0  0  0  0  0
   44.8197   33.2183   39.5755 C   0  0  0  0  0  0  0  0  0  0  0  0
   44.0585   33.7137   40.7409 C   0  0  1  0  0  0  0  0  0  0  0  0
   43.1077   32.8694   41.5297 C   0  0  0  0  0  0  0  0  0  0  0  0
   41.6599   33.1179   41.1965 C   0  0  0  0  0  0  0  0  0  0  0  0
   47.3198   32.9902   42.5494 H   0  0  0  0  0  0  0  0  0  0  0  0
   49.3495   33.9147   42.5269 H   0  0  0  0  0  0  0  0  0  0  0  0
   48.6942   35.1841   43.5695 H   0  0  0  0  0  0  0  0  0  0  0  0
   49.9105   36.0636   41.6225 H   0  0  0  0  0  0  0  0  0  0  0  0
   48.2017   36.5701   41.6074 H   0  0  0  0  0  0  0  0  0  0  0  0
   48.7712   35.9598   39.4382 H   0  0  0  0  0  0  0  0  0  0  0  0
   49.6294   34.4717   39.9795 H   0  0  0  0  0  0  0  0  0  0  0  0
   46.9789   34.6089   39.0665 H   0  0  0  0  0  0  0  0  0  0  0  0
   47.7856   33.1852   39.7666 H   0  0  0  0  0  0  0  0  0  0  0  0
   46.0434   35.3364   41.0024 H   0  0  0  0  0  0  0  0  0  0  0  0
   45.5629   36.3962   42.5374 H   0  0  0  0  0  0  0  0  0  0  0  0
   44.0854   36.9911   44.3034 H   0  0  0  0  0  0  0  0  0  0  0  0
   45.1029   33.6648   46.5339 H   0  0  0  0  0  0  0  0  0  0  0  0
   45.7279   32.3150   41.3413 H   0  0  0  0  0  0  0  0  0  0  0  0
   44.5256   32.2324   39.1642 H   0  0  0  0  0  0  0  0  0  0  0  0
   45.0416   33.9753   38.7912 H   0  0  0  0  0  0  0  0  0  0  0  0
   43.8834   34.8102   40.8325 H   0  0  0  0  0  0  0  0  0  0  0  0
   43.2412   33.1375   42.5997 H   0  0  0  0  0  0  0  0  0  0  0  0
   43.3831   31.8021   41.4656 H   0  0  0  0  0  0  0  0  0  0  0  0
   41.5216   32.9352   40.1185 H   0  0  0  0  0  0  0  0  0  0  0  0
   41.3959   34.1706   41.3704 H   0  0  0  0  0  0  0  0  0  0  0  0
   38.5957   34.2972   39.9339 N   0  0  0  0  0  0  0  0  0  0  0  0
   38.9525   33.5175   40.7112 C   0  0  0  0  0  0  0  0  0  0  0  0
   39.3779   32.5266   41.6885 C   0  0  0  0  0  0  0  0  0  0  0  0
   40.7164   32.2942   41.9627 C   0  0  0  0  0  0  0  0  0  0  0  0
   41.0488   31.3308   42.9108 C   0  0  0  0  0  0  0  0  0  0  0  0
   42.1071   31.1895   43.0859 H   0  0  0  0  0  0  0  0  0  0  0  0
   40.0458   30.6127   43.5723 C   0  0  0  0  0  0  0  0  0  0  0  0
   40.3388   29.8717   44.3029 H   0  0  0  0  0  0  0  0  0  0  0  0
   38.7351   30.8960   43.2496 C   0  0  0  0  0  0  0  0  0  0  0  0
   38.3449   31.8376   42.3205 C   0  0  0  0  0  0  0  0  0  0  0  0
   38.0303   30.2962   43.8071 H   0  0  0  0  0  0  0  0  0  0  0  0
   37.3016   32.0099   42.1153 H   0  0  0  0  0  0  0  0  0  0  0  0
  1  2  1  0
  1  7  1  0
  3  2  1  0
  4  3  1  0
  5  4  1  0
  5  6  1  0
  6  1  1  0
  7 12  1  0
  8  7  2  0
  8  9  1  0
  9 10  2  0
 10 11  1  0
 12 11  2  0
 13  6  1  0
 14 15  1  0
 14 13  1  0
 15 13  1  0
 15 16  1  0
 17 16  1  0
  1 18  1  1
  2 19  1  0
  2 20  1  0
  3 21  1  0
  3 22  1  0
  4 23  1  0
  4 24  1  0
  5 25  1  0
  5 26  1  0
  6 27  1  1
  8 28  1  0
  9 29  1  0
 11 30  1  0
 13 31  1  1
 14 32  1  0
 14 33  1  0
 15 34  1  6
 16 35  1  0
 16 36  1  0
 17 37  1  0
 17 38  1  0
 39 40  3  0
 40 41  1  0
 41 42  2  0
 42 43  1  0
 43 44  1  0
 43 45  2  0
 45 46  1  0
 45 47  1  0
 47 48  2  0
 48 41  1  0
 47 49  1  0
 48 50  1  0
 17 42  1  0
M  ISO  8  18  13  19  13  20  13  21  13  22  13  23  13  24  13  25  13
M  ISO  8  26  13  27  13  28  14  29  14  30  14  31  13  32  13  33  13
M  ISO  7  34  13  35   8  36   8  37   8  38   8  44  15  46  16
M  END
>  <DihAtoms>  (1) 
15,16,41,40

>  <DihDeg>  (1) 
-76.17688435824608

$$$$
