
 OpenBabel03242517283D

 41 43  0  0  1  0  0  0  0  0999 V2000
   45.0030   34.6650   44.9330 C   0  0  0  0  0  0  0  0  0  0  0  0
   45.9040   34.5980   43.8320 C   0  0  0  0  0  0  0  0  0  0  0  0
   47.0060   33.7300   43.9450 C   0  0  0  0  0  0  0  0  0  0  0  0
   47.1520   33.0080   45.0820 N   0  0  0  0  0  0  0  0  0  0  0  0
   46.2870   33.0900   46.1070 C   0  0  0  0  0  0  0  0  0  0  0  0
   45.2300   33.9160   46.0130 N   0  0  0  0  0  0  0  0  0  0  0  0
   46.5070   32.3110   47.2510 N   0  0  0  0  0  0  0  0  0  0  0  0
   47.7280   32.4510   47.9910 C   0  0  0  0  0  0  0  0  0  0  0  0
   48.0050   31.3070   48.9180 C   0  0  0  0  0  0  0  0  0  0  0  0
   46.8670   30.6840   49.4960 N   0  0  0  0  0  0  0  0  0  0  0  0
   45.6190   31.3210   49.1690 C   0  0  0  0  0  0  0  0  0  0  0  0
   45.4800   31.3690   47.6680 C   0  0  2  0  0  0  0  0  0  0  0  0
   44.1600   35.3340   44.8420 H   0  0  0  0  0  0  0  0  0  0  0  0
   45.7970   35.1620   42.9340 H   0  0  0  0  0  0  0  0  0  0  0  0
   47.7340   33.6310   43.1360 H   0  0  0  0  0  0  0  0  0  0  0  0
   47.7850   33.4310   48.5380 H   0  0  0  0  0  0  0  0  0  0  0  0
   48.5580   32.4810   47.2500 H   0  0  0  0  0  0  0  0  0  0  0  0
   48.6390   30.5270   48.4440 H   0  0  0  0  0  0  0  0  0  0  0  0
   48.6160   31.7210   49.7640 H   0  0  0  0  0  0  0  0  0  0  0  0
   46.8450   29.6600   49.5160 H   0  0  0  0  0  0  0  0  0  0  0  0
   44.8010   30.7220   49.6130 H   0  0  0  0  0  0  0  0  0  0  0  0
   45.5950   32.3490   49.5490 H   0  0  0  0  0  0  0  0  0  0  0  0
   44.4970   31.8230   47.4370 H   0  0  0  0  0  0  0  0  0  0  0  0
   45.6610   30.0250   47.0430 C   0  0  0  0  0  0  0  0  0  0  0  0
   45.4330   30.0830   45.9660 H   0  0  0  0  0  0  0  0  0  0  0  0
   46.6980   29.6880   47.2650 H   0  0  0  0  0  0  0  0  0  0  0  0
   44.7360   29.0650   47.7570 C   0  0  0  0  0  3  0  0  0  0  0  0
   45.0900   27.8190   47.9930 C   0  0  0  0  0  3  0  0  0  0  0  0
   44.2350   26.8110   48.6890 C   0  0  0  0  0  0  0  0  0  0  0  0
   43.1640   27.0400   48.6240 H   0  0  0  0  0  0  0  0  0  0  0  0
   44.5810   26.6850   49.7370 H   0  0  0  0  0  0  0  0  0  0  0  0
   43.6350   24.9790   47.0330 C   0  0  0  0  0  0  0  0  0  0  0  0
   44.4770   25.5190   47.9880 C   0  0  0  0  0  0  0  0  0  0  0  0
   45.6220   24.7730   48.2880 C   0  0  0  0  0  0  0  0  0  0  0  0
   46.2840   25.2010   49.0410 H   0  0  0  0  0  0  0  0  0  0  0  0
   45.9630   23.5650   47.7130 C   0  0  0  0  0  0  0  0  0  0  0  0
   46.8740   23.0910   48.0320 H   0  0  0  0  0  0  0  0  0  0  0  0
   45.1000   23.0620   46.7670 C   0  0  0  0  0  3  0  0  0  0  0  0
   43.9640   23.7580   46.4400 C   0  0  0  0  0  3  0  0  0  0  0  0
   41.5040   26.2860   46.4060 N   0  0  0  0  0  0  0  0  0  0  0  0
   42.4580   25.6970   46.6930 C   0  0  0  0  0  0  0  0  0  0  0  0
  1  6  1  0  0  0  0
  2  3  1  0  0  0  0
  2  1  2  0  0  0  0
  3  4  2  0  0  0  0
  4  5  1  0  0  0  0
  5  7  1  0  0  0  0
  6  5  2  0  0  0  0
  7 12  1  0  0  0  0
  7  8  1  0  0  0  0
  8 16  1  0  0  0  0
  8  9  1  0  0  0  0
  9 10  1  0  0  0  0
  9 19  1  0  0  0  0
 10 20  1  0  0  0  0
 11 10  1  0  0  0  0
 11 22  1  0  0  0  0
 11 21  1  0  0  0  0
 12 23  1  6  0  0  0
 12 11  1  0  0  0  0
 13  1  1  0  0  0  0
 14  2  1  0  0  0  0
 15  3  1  0  0  0  0
 17  8  1  0  0  0  0
 18  9  1  0  0  0  0
 24 26  1  0  0  0  0
 24 12  1  0  0  0  0
 24 27  1  0  0  0  0
 25 24  1  0  0  0  0
 27 28  2  0  0  0  0
 28 29  1  0  0  0  0
 29 31  1  0  0  0  0
 30 29  1  0  0  0  0
 32 33  1  0  0  0  0
 33 34  2  0  0  0  0
 33 29  1  0  0  0  0
 34 35  1  0  0  0  0
 36 37  1  0  0  0  0
 36 34  1  0  0  0  0
 38 36  2  0  0  0  0
 39 38  1  0  0  0  0
 39 32  2  0  0  0  0
 40 41  3  0  0  0  0
 41 32  1  0  0  0  0
M  END
>  <minimizedAffinity>
-5.52746439

>  <minimizedRMSD>
1.0817157

$$$$
