REMARK  Name = 
REMARK  5 active torsions:
REMARK  status: ('A' for Active; 'I' for Inactive)
REMARK    1  A    between atoms: N_1  and  C_9
REMARK    2  A    between atoms: C_6  and  N_16
REMARK    3  A    between atoms: C_7  and  C_11
REMARK    4  A    between atoms: N_16  and  C_37
REMARK    5  A    between atoms: C_35  and  C_36
REMARK                            x       y       z     vdW  Elec       q    Type
REMARK                         _______ _______ _______ _____ _____    ______ ____
ROOT
ATOM      1  N   UNL     1      49.332  33.219  41.498  0.00  0.00    +0.000 NA
ATOM      2  C   UNL     1      50.664  33.126  42.031  0.00  0.00    +0.000 C 
ATOM      3  C   UNL     1      51.339  31.804  41.790  0.00  0.00    +0.000 C 
ATOM      4  C   UNL     1      50.592  30.716  42.516  0.00  0.00    +0.000 C 
ATOM      5  C   UNL     1      49.120  31.007  42.556  0.00  0.00    +0.000 C 
ATOM      6  C   UNL     1      48.757  31.894  41.381  0.00  0.00    +0.000 C 
ATOM      7  H   UNL     1      50.673  33.333  43.113  0.00  0.00    +0.000 HD
ATOM      8  H   UNL     1      51.288  33.944  41.573  0.00  0.00    +0.000 HD
ATOM      9  H   UNL     1      51.592  31.600  40.756  0.00  0.00    +0.000 HD
ATOM     10  H   UNL     1      52.325  31.897  42.356  0.00  0.00    +0.000 HD
ATOM     11  H   UNL     1      50.944  30.623  43.568  0.00  0.00    +0.000 HD
ATOM     12  H   UNL     1      50.825  29.745  42.033  0.00  0.00    +0.000 HD
ATOM     13  H   UNL     1      48.864  31.644  43.466  0.00  0.00    +0.000 HD
ATOM     14  H   UNL     1      48.493  30.130  42.553  0.00  0.00    +0.000 HD
ATOM     15  H   UNL     1      47.654  32.033  41.448  0.00  0.00    +0.000 HD
ENDROOT
BRANCH   1  18
ATOM     16  C   UNL     1      47.196  34.550  42.025  0.00  0.00    +0.000 C 
ATOM     17  C   UNL     1      48.319  35.467  41.724  0.00  0.00    +0.000 C 
ATOM     18  C   UNL     1      48.597  34.130  42.284  0.00  0.00    +0.000 C 
ATOM     19  H   UNL     1      46.694  34.131  41.109  0.00  0.00    +0.000 HD
ATOM     20  H   UNL     1      48.572  35.700  40.676  0.00  0.00    +0.000 HD
ATOM     21  H   UNL     1      48.450  36.329  42.403  0.00  0.00    +0.000 HD
ATOM     22  H   UNL     1      48.835  34.068  43.389  0.00  0.00    +0.000 HD
BRANCH  16  24
ATOM     23  C   UNL     1      45.510  36.024  43.162  0.00  0.00    +0.000 A 
ATOM     24  C   UNL     1      46.296  34.865  43.134  0.00  0.00    +0.000 A 
ATOM     25  C   UNL     1      46.170  33.981  44.230  0.00  0.00    +0.000 A 
ATOM     26  N   UNL     1      45.310  34.303  45.228  0.00  0.00    +0.000 NA
ATOM     27  C   UNL     1      44.573  35.420  45.223  0.00  0.00    +0.000 A 
ATOM     28  N   UNL     1      44.665  36.303  44.182  0.00  0.00    +0.000 NA
ATOM     29  H   UNL     1      45.569  36.732  42.350  0.00  0.00    +0.000 HD
ATOM     30  H   UNL     1      46.752  33.076  44.257  0.00  0.00    +0.000 HD
ATOM     31  H   UNL     1      43.932  35.535  46.093  0.00  0.00    +0.000 HD
ENDBRANCH  16  24
ENDBRANCH   1  18
BRANCH   6  32
ATOM     32  N   UNL     1      49.042  31.250  40.139  0.00  0.00    +0.000 N 
ATOM     33  H   UNL     1      49.668  31.899  39.569  0.00  0.00    +0.000 HD
BRANCH  32  35
ATOM     34  C   UNL     1      48.801  28.787  39.801  0.00  0.00    +0.000 A 
ATOM     35  C   UNL     1      48.804  30.114  39.352  0.00  0.00    +0.000 A 
ATOM     36  C   UNL     1      48.581  30.346  38.010  0.00  0.00    +0.000 A 
ATOM     37  H   UNL     1      48.550  31.265  37.442  0.00  0.00    +0.000 HD
ATOM     38  C   UNL     1      48.354  29.330  37.095  0.00  0.00    +0.000 A 
ATOM     39  H   UNL     1      48.169  29.378  36.037  0.00  0.00    +0.000 HD
ATOM     40  C   UNL     1      48.355  28.036  37.559  0.00  0.00    +0.000 A 
ATOM     41  C   UNL     1      48.577  27.788  38.891  0.00  0.00    +0.000 A 
BRANCH  34  43
ATOM     42  N   UNL     1      49.244  28.397  42.327  0.00  0.00    +0.000 NA
ATOM     43  C   UNL     1      49.036  28.568  41.202  0.00  0.00    +0.000 C 
ENDBRANCH  34  43
ENDBRANCH  32  35
ENDBRANCH   6  32
TORSDOF 5
