
 OpenBabel03252508033D

 43 46  0  0  1  0  0  0  0  0999 V2000
   42.0770   33.2500   41.1250 C   0  0  0  0  0  0  0  0  0  0  0  0
   42.8150   34.3810   41.3310 C   0  0  0  0  0  0  0  0  0  0  0  0
   42.1410   35.6200   41.3120 C   0  0  0  0  0  0  0  0  0  0  0  0
   40.7880   35.7410   41.1000 C   0  0  0  0  0  0  0  0  0  0  0  0
   40.0550   34.5990   40.8950 C   0  0  0  0  0  0  0  0  0  0  0  0
   40.7010   33.3990   40.9110 C   0  0  0  0  0  0  0  0  0  0  0  0
   42.6380   36.5680   41.4550 H   0  0  0  0  0  0  0  0  0  0  0  0
   40.2810   36.6680   41.0860 H   0  0  0  0  0  0  0  0  0  0  0  0
   39.0080   34.6160   40.7260 H   0  0  0  0  0  0  0  0  0  0  0  0
   40.1040   32.4870   40.7450 H   0  0  0  0  0  0  0  0  0  0  0  0
   42.7380   31.7050   41.2200 S   0  0  0  0  0  0  0  0  0  0  0  0
   41.8060   30.9410   40.2270 O   0  0  0  0  0  0  0  0  0  0  0  0
   42.5590   31.0720   42.5470 O   0  0  0  0  0  0  0  0  0  0  0  0
   44.8870   30.2070   41.2010 C   0  0  0  0  0  0  0  0  0  0  0  0
   44.0340   31.0140   40.3950 C   0  0  0  0  0  0  0  0  0  0  0  0
   44.4570   30.9840   39.0690 C   0  0  0  0  0  0  0  0  0  0  0  0
   43.7510   31.5770   38.4560 H   0  0  0  0  0  0  0  0  0  0  0  0
   45.5030   30.3450   38.4460 C   0  0  0  0  0  0  0  0  0  0  0  0
   45.6320   30.4780   37.3890 H   0  0  0  0  0  0  0  0  0  0  0  0
   46.1990   29.6330   39.3590 C   0  0  0  0  0  3  0  0  0  0  0  0
   45.9630   29.5180   40.7010 C   0  0  0  0  0  3  0  0  0  0  0  0
   44.5450   29.9370   43.7820 N   0  0  0  0  0  0  0  0  0  0  0  0
   44.6850   30.0540   42.6380 C   0  0  0  0  0  0  0  0  0  0  0  0
   44.2470   34.3600   41.5650 C   0  0  0  0  0  0  0  0  0  0  0  0
   45.1200   34.2740   40.6490 O   0  0  0  0  0  0  0  0  0  0  0  0
   44.5960   34.4510   42.9600 C   0  0  0  0  0  0  0  0  0  0  0  0
   44.3070   35.7100   43.5900 C   0  0  0  0  0  0  0  0  0  0  0  0
   44.6290   35.8210   44.9340 C   0  0  0  0  0  0  0  0  0  0  0  0
   45.1850   34.7510   45.5590 N   0  0  0  0  0  0  0  0  0  0  0  0
   45.4390   33.5700   44.9090 C   0  0  0  0  0  0  0  0  0  0  0  0
   45.1430   33.4600   43.6600 N   0  0  0  0  0  0  0  0  0  0  0  0
   43.8760   36.5920   43.1700 H   0  0  0  0  0  0  0  0  0  0  0  0
   44.4620   36.7030   45.5080 H   0  0  0  0  0  0  0  0  0  0  0  0
   46.0360   32.4560   45.6750 C   0  0  1  0  0  0  0  0  0  0  0  0
   46.9740   32.7710   46.8170 C   0  0  0  0  0  0  0  0  0  0  0  0
   45.5620   32.3400   47.0720 C   0  0  1  0  0  0  0  0  0  0  0  0
   46.1670   31.5100   45.1260 H   0  0  0  0  0  0  0  0  0  0  0  0
   47.2950   33.8190   46.9020 H   0  0  0  0  0  0  0  0  0  0  0  0
   47.7790   32.0100   47.0160 H   0  0  0  0  0  0  0  0  0  0  0  0
   45.4290   31.3520   47.5540 H   0  0  0  0  0  0  0  0  0  0  0  0
   44.7550   33.3940   47.6620 N   0  0  0  0  0  0  0  0  0  0  0  0
   45.2590   33.8330   48.4570 H   0  0  0  0  0  0  0  0  0  0  0  0
   43.8560   32.9560   48.0030 H   0  0  0  0  0  0  0  0  0  0  0  0
  1 11  1  0  0  0  0
  1  2  1  0  0  0  0
  2 24  1  0  0  0  0
  3  2  2  0  0  0  0
  3  7  1  0  0  0  0
  4  3  1  0  0  0  0
  5  6  1  0  0  0  0
  5  4  2  0  0  0  0
  6  1  2  0  0  0  0
  8  4  1  0  0  0  0
  9  5  1  0  0  0  0
 10  6  1  0  0  0  0
 11 13  2  0  0  0  0
 12 11  2  0  0  0  0
 14 23  1  0  0  0  0
 15 14  2  0  0  0  0
 15 11  1  0  0  0  0
 16 15  1  0  0  0  0
 17 16  1  0  0  0  0
 18 16  2  0  0  0  0
 18 20  1  0  0  0  0
 19 18  1  0  0  0  0
 20 21  2  0  0  0  0
 21 14  1  0  0  0  0
 23 22  3  0  0  0  0
 24 26  1  0  0  0  0
 25 24  2  0  0  0  0
 26 27  2  0  0  0  0
 26 31  1  0  0  0  0
 27 28  1  0  0  0  0
 28 33  1  0  0  0  0
 28 29  2  0  0  0  0
 30 29  1  0  0  0  0
 30 34  1  0  0  0  0
 31 30  2  0  0  0  0
 32 27  1  0  0  0  0
 34 37  1  6  0  0  0
 34 35  1  0  0  0  0
 34 36  1  0  0  0  0
 35 38  1  0  0  0  0
 35 39  1  0  0  0  0
 35 36  1  0  0  0  0
 36 40  1  1  0  0  0
 36 41  1  0  0  0  0
 41 43  1  0  0  0  0
 41 42  1  0  0  0  0
M  END
>  <minimizedAffinity>
-5.57109928

>  <minimizedRMSD>
1.1849606

$$$$
