
 OpenBabel03242512033D

 48 51  0  0  1  0  0  0  0  0999 V2000
   39.1290   26.9340   42.8860 C   0  0  2  0  0  0  0  0  0  0  0  0
   40.2810   26.3880   43.6760 C   0  0  0  0  0  0  0  0  0  0  0  0
   40.8290   25.1440   43.0940 C   0  0  0  0  0  0  0  0  0  0  0  0
   39.7660   24.0670   42.9310 C   0  0  0  0  0  0  0  0  0  0  0  0
   38.4590   24.5880   42.4230 C   0  0  0  0  0  0  0  0  0  0  0  0
   38.5460   26.0000   41.8910 C   0  0  1  0  0  0  0  0  0  0  0  0
   38.3150   27.1870   43.6350 H   0  0  0  0  0  0  0  0  0  0  0  0
   39.9710   26.1550   44.7140 H   0  0  0  0  0  0  0  0  0  0  0  0
   41.0940   27.1270   43.7560 H   0  0  0  0  0  0  0  0  0  0  0  0
   41.6250   24.7280   43.7250 H   0  0  0  0  0  0  0  0  0  0  0  0
   41.2580   25.3340   42.0910 H   0  0  0  0  0  0  0  0  0  0  0  0
   40.2080   23.2750   42.3250 H   0  0  0  0  0  0  0  0  0  0  0  0
   39.5930   23.6690   43.9720 H   0  0  0  0  0  0  0  0  0  0  0  0
   38.1650   23.9340   41.5700 H   0  0  0  0  0  0  0  0  0  0  0  0
   37.6400   24.4790   43.1820 H   0  0  0  0  0  0  0  0  0  0  0  0
   39.0580   25.9180   40.9220 H   0  0  0  0  0  0  0  0  0  0  0  0
   39.4340   28.2320   42.2520 C   0  0  0  0  0  0  0  0  0  0  0  0
   38.9750   29.3180   42.9760 C   0  0  0  0  0  0  0  0  0  0  0  0
   39.1990   30.6210   42.5010 C   0  0  0  0  0  0  0  0  0  0  0  0
   39.8930   30.7060   41.2870 N   0  0  0  0  0  0  0  0  0  0  0  0
   40.3190   29.6170   40.6200 C   0  0  0  0  0  0  0  0  0  0  0  0
   40.0820   28.3820   41.1130 N   0  0  0  0  0  0  0  0  0  0  0  0
   38.4300   29.4640   43.8960 H   0  0  0  0  0  0  0  0  0  0  0  0
   38.9340   31.5640   42.9000 H   0  0  0  0  0  0  0  0  0  0  0  0
   40.8460   29.8020   39.6890 H   0  0  0  0  0  0  0  0  0  0  0  0
   37.1450   26.4570   41.5880 C   0  0  2  0  0  0  0  0  0  0  0  0
   36.5740   26.1470   40.2190 C   0  0  0  0  0  0  0  0  0  0  0  0
   36.9050   27.5390   40.5930 C   0  0  1  0  0  0  0  0  0  0  0  0
   36.4030   26.2650   42.3900 H   0  0  0  0  0  0  0  0  0  0  0  0
   35.5010   25.8990   40.1000 H   0  0  0  0  0  0  0  0  0  0  0  0
   37.2220   25.6960   39.4350 H   0  0  0  0  0  0  0  0  0  0  0  0
   37.8390   27.9900   40.1880 H   0  0  0  0  0  0  0  0  0  0  0  0
   35.8880   28.5360   41.0540 C   0  0  0  0  0  0  0  0  0  0  0  0
   36.4110   29.2490   41.7280 H   0  0  0  0  0  0  0  0  0  0  0  0
   35.1220   28.0540   41.6860 H   0  0  0  0  0  0  0  0  0  0  0  0
   35.2930   29.3520   39.9370 C   0  0  0  0  0  0  0  0  0  0  0  0
   34.3430   29.7810   40.2970 H   0  0  0  0  0  0  0  0  0  0  0  0
   35.0400   28.7130   39.0790 H   0  0  0  0  0  0  0  0  0  0  0  0
   36.6030   30.2760   38.1390 C   0  0  0  0  0  0  0  0  0  0  0  0
   36.1660   30.4270   39.4450 C   0  0  0  0  0  0  0  0  0  0  0  0
   36.5740   31.5460   40.1640 C   0  0  0  0  0  0  0  0  0  0  0  0
   36.2030   31.6140   41.1780 H   0  0  0  0  0  0  0  0  0  0  0  0
   37.4110   32.5000   39.5740 C   0  0  0  0  0  0  0  0  0  0  0  0
   37.7100   33.3570   40.1600 H   0  0  0  0  0  0  0  0  0  0  0  0
   37.8080   32.2860   38.2700 C   0  0  0  0  0  3  0  0  0  0  0  0
   37.4370   31.1970   37.5090 C   0  0  0  0  0  3  0  0  0  0  0  0
   35.9250   28.2100   36.6900 N   0  0  0  0  0  0  0  0  0  0  0  0
   36.2190   29.1320   37.3250 C   0  0  0  0  0  0  0  0  0  0  0  0
  1  7  1  1  0  0  0
  1  2  1  0  0  0  0
  2  9  1  0  0  0  0
  2  8  1  0  0  0  0
  3  2  1  0  0  0  0
  3 10  1  0  0  0  0
  4  3  1  0  0  0  0
  4 13  1  0  0  0  0
  5  4  1  0  0  0  0
  5 15  1  0  0  0  0
  6 16  1  6  0  0  0
  6  5  1  0  0  0  0
  6  1  1  0  0  0  0
 11  3  1  0  0  0  0
 12  4  1  0  0  0  0
 14  5  1  0  0  0  0
 17  1  1  0  0  0  0
 17 18  1  0  0  0  0
 18 23  1  0  0  0  0
 19 24  1  0  0  0  0
 19 18  2  0  0  0  0
 20 19  1  0  0  0  0
 21 22  1  0  0  0  0
 21 20  2  0  0  0  0
 22 17  2  0  0  0  0
 25 21  1  0  0  0  0
 26  6  1  0  0  0  0
 26 29  1  1  0  0  0
 27 28  1  0  0  0  0
 27 26  1  0  0  0  0
 28 32  1  6  0  0  0
 28 33  1  0  0  0  0
 28 26  1  0  0  0  0
 30 27  1  0  0  0  0
 31 27  1  0  0  0  0
 33 35  1  0  0  0  0
 33 34  1  0  0  0  0
 36 37  1  0  0  0  0
 36 33  1  0  0  0  0
 38 36  1  0  0  0  0
 39 40  1  0  0  0  0
 40 36  1  0  0  0  0
 40 41  2  0  0  0  0
 41 42  1  0  0  0  0
 43 44  1  0  0  0  0
 43 41  1  0  0  0  0
 45 43  2  0  0  0  0
 46 39  2  0  0  0  0
 46 45  1  0  0  0  0
 47 48  3  0  0  0  0
 48 39  1  0  0  0  0
M  END
>  <minimizedAffinity>
-5.7667675

$$$$

 OpenBabel03242512033D

 48 51  0  0  1  0  0  0  0  0999 V2000
   39.4210   26.3210   41.4280 C   0  0  2  0  0  0  0  0  0  0  0  0
   40.6770   25.5010   41.4190 C   0  0  0  0  0  0  0  0  0  0  0  0
   41.1220   25.1290   42.7800 C   0  0  0  0  0  0  0  0  0  0  0  0
   41.3130   26.3450   43.6760 C   0  0  0  0  0  0  0  0  0  0  0  0
   40.2400   27.3760   43.5220 C   0  0  0  0  0  0  0  0  0  0  0  0
   39.0400   26.8780   42.7500 C   0  0  1  0  0  0  0  0  0  0  0  0
   39.6030   27.1960   40.7280 H   0  0  0  0  0  0  0  0  0  0  0  0
   41.5090   26.0590   40.9440 H   0  0  0  0  0  0  0  0  0  0  0  0
   40.5460   24.5800   40.8280 H   0  0  0  0  0  0  0  0  0  0  0  0
   42.0770   24.5880   42.7510 H   0  0  0  0  0  0  0  0  0  0  0  0
   40.3770   24.4740   43.2720 H   0  0  0  0  0  0  0  0  0  0  0  0
   41.4450   25.9720   44.6920 H   0  0  0  0  0  0  0  0  0  0  0  0
   42.2830   26.8080   43.3350 H   0  0  0  0  0  0  0  0  0  0  0  0
   39.8880   27.6240   44.5490 H   0  0  0  0  0  0  0  0  0  0  0  0
   40.6370   28.3360   43.0990 H   0  0  0  0  0  0  0  0  0  0  0  0
   38.5040   26.2090   43.4390 H   0  0  0  0  0  0  0  0  0  0  0  0
   38.2750   25.6190   40.8190 C   0  0  0  0  0  0  0  0  0  0  0  0
   37.9500   26.0890   39.5580 C   0  0  0  0  0  0  0  0  0  0  0  0
   36.8840   25.5110   38.8490 C   0  0  0  0  0  0  0  0  0  0  0  0
   36.2180   24.4700   39.5100 N   0  0  0  0  0  0  0  0  0  0  0  0
   36.5730   24.0500   40.7380 C   0  0  0  0  0  0  0  0  0  0  0  0
   37.6060   24.6330   41.3840 N   0  0  0  0  0  0  0  0  0  0  0  0
   38.3170   26.8600   38.8990 H   0  0  0  0  0  0  0  0  0  0  0  0
   36.4870   25.7240   37.8920 H   0  0  0  0  0  0  0  0  0  0  0  0
   35.9870   23.2360   41.1530 H   0  0  0  0  0  0  0  0  0  0  0  0
   38.1320   28.0550   42.5150 C   0  0  2  0  0  0  0  0  0  0  0  0
   37.3040   28.5590   43.6800 C   0  0  0  0  0  0  0  0  0  0  0  0
   36.6540   27.8800   42.5390 C   0  0  1  0  0  0  0  0  0  0  0  0
   38.5840   28.8920   41.9450 H   0  0  0  0  0  0  0  0  0  0  0  0
   37.1060   29.6430   43.8010 H   0  0  0  0  0  0  0  0  0  0  0  0
   37.2930   27.9980   44.6400 H   0  0  0  0  0  0  0  0  0  0  0  0
   36.3290   26.8230   42.6660 H   0  0  0  0  0  0  0  0  0  0  0  0
   35.9660   28.6070   41.4250 C   0  0  0  0  0  0  0  0  0  0  0  0
   34.9410   28.8510   41.7780 H   0  0  0  0  0  0  0  0  0  0  0  0
   35.8200   27.9450   40.5540 H   0  0  0  0  0  0  0  0  0  0  0  0
   36.6220   29.9130   41.0610 C   0  0  0  0  0  0  0  0  0  0  0  0
   37.6010   29.9560   41.5670 H   0  0  0  0  0  0  0  0  0  0  0  0
   36.0370   30.7620   41.4410 H   0  0  0  0  0  0  0  0  0  0  0  0
   37.6460   31.1570   39.2710 C   0  0  0  0  0  0  0  0  0  0  0  0
   36.8030   30.1130   39.6170 C   0  0  0  0  0  0  0  0  0  0  0  0
   36.2150   29.3610   38.6040 C   0  0  0  0  0  0  0  0  0  0  0  0
   35.5680   28.5580   38.9300 H   0  0  0  0  0  0  0  0  0  0  0  0
   36.4740   29.6580   37.2610 C   0  0  0  0  0  0  0  0  0  0  0  0
   36.0010   29.0550   36.4990 H   0  0  0  0  0  0  0  0  0  0  0  0
   37.3220   30.7120   36.9880 C   0  0  0  0  0  3  0  0  0  0  0  0
   37.9320   31.4910   37.9490 C   0  0  0  0  0  3  0  0  0  0  0  0
   38.8210   32.6610   41.0560 N   0  0  0  0  0  0  0  0  0  0  0  0
   38.2960   31.9880   40.2740 C   0  0  0  0  0  0  0  0  0  0  0  0
  1  7  1  6  0  0  0
  1  6  1  0  0  0  0
  2  1  1  0  0  0  0
  2  3  1  0  0  0  0
  3 11  1  0  0  0  0
  3  4  1  0  0  0  0
  4 12  1  0  0  0  0
  5  4  1  0  0  0  0
  5 14  1  0  0  0  0
  6 16  1  1  0  0  0
  6  5  1  0  0  0  0
  8  2  1  0  0  0  0
  9  2  1  0  0  0  0
 10  3  1  0  0  0  0
 13  4  1  0  0  0  0
 15  5  1  0  0  0  0
 17 22  1  0  0  0  0
 17  1  1  0  0  0  0
 18 17  2  0  0  0  0
 19 20  2  0  0  0  0
 19 18  1  0  0  0  0
 20 21  1  0  0  0  0
 21 25  1  0  0  0  0
 21 22  2  0  0  0  0
 23 18  1  0  0  0  0
 24 19  1  0  0  0  0
 26 29  1  6  0  0  0
 26 28  1  0  0  0  0
 26  6  1  0  0  0  0
 26 27  1  0  0  0  0
 27 30  1  0  0  0  0
 27 31  1  0  0  0  0
 28 32  1  1  0  0  0
 28 27  1  0  0  0  0
 33 34  1  0  0  0  0
 33 28  1  0  0  0  0
 35 33  1  0  0  0  0
 36 33  1  0  0  0  0
 36 38  1  0  0  0  0
 36 37  1  0  0  0  0
 39 40  1  0  0  0  0
 39 48  1  0  0  0  0
 40 36  1  0  0  0  0
 41 42  1  0  0  0  0
 41 40  2  0  0  0  0
 43 41  1  0  0  0  0
 44 43  1  0  0  0  0
 45 43  2  0  0  0  0
 45 46  1  0  0  0  0
 46 39  2  0  0  0  0
 48 47  3  0  0  0  0
M  END
>  <minimizedAffinity>
-5.57026768

$$$$

 OpenBabel03242512033D

 48 51  0  0  1  0  0  0  0  0999 V2000
   38.0740   29.8040   38.7730 C   0  0  2  0  0  0  0  0  0  0  0  0
   38.0470   30.0700   37.2970 C   0  0  0  0  0  0  0  0  0  0  0  0
   36.6790   30.0200   36.7350 C   0  0  0  0  0  0  0  0  0  0  0  0
   35.9850   28.6970   37.0280 C   0  0  0  0  0  0  0  0  0  0  0  0
   36.2150   28.1950   38.4180 C   0  0  0  0  0  0  0  0  0  0  0  0
   36.8250   29.2320   39.3330 C   0  0  1  0  0  0  0  0  0  0  0  0
   38.9040   29.0510   38.9490 H   0  0  0  0  0  0  0  0  0  0  0  0
   38.6530   29.3200   36.7500 H   0  0  0  0  0  0  0  0  0  0  0  0
   38.4880   31.0520   37.0610 H   0  0  0  0  0  0  0  0  0  0  0  0
   36.6930   30.1500   35.6450 H   0  0  0  0  0  0  0  0  0  0  0  0
   36.0490   30.8230   37.1640 H   0  0  0  0  0  0  0  0  0  0  0  0
   34.9360   28.8230   36.7560 H   0  0  0  0  0  0  0  0  0  0  0  0
   36.4540   27.9580   36.3170 H   0  0  0  0  0  0  0  0  0  0  0  0
   35.2140   27.9400   38.8340 H   0  0  0  0  0  0  0  0  0  0  0  0
   36.7990   27.2370   38.4280 H   0  0  0  0  0  0  0  0  0  0  0  0
   36.0120   29.9360   39.5640 H   0  0  0  0  0  0  0  0  0  0  0  0
   38.4970   30.9800   39.5580 C   0  0  0  0  0  0  0  0  0  0  0  0
   37.5760   32.0130   39.5390 C   0  0  0  0  0  0  0  0  0  0  0  0
   37.8380   33.1960   40.2490 C   0  0  0  0  0  0  0  0  0  0  0  0
   39.0570   33.2260   40.9380 N   0  0  0  0  0  0  0  0  0  0  0  0
   39.9200   32.1930   40.9240 C   0  0  0  0  0  0  0  0  0  0  0  0
   39.6280   31.0730   40.2290 N   0  0  0  0  0  0  0  0  0  0  0  0
   36.6160   32.1880   39.0790 H   0  0  0  0  0  0  0  0  0  0  0  0
   37.2710   34.0830   40.3590 H   0  0  0  0  0  0  0  0  0  0  0  0
   40.8340   32.3260   41.4940 H   0  0  0  0  0  0  0  0  0  0  0  0
   37.1670   28.5470   40.6290 C   0  0  2  0  0  0  0  0  0  0  0  0
   36.0390   28.2460   41.5950 C   0  0  0  0  0  0  0  0  0  0  0  0
   37.0460   29.2780   41.9210 C   0  0  1  0  0  0  0  0  0  0  0  0
   37.8650   27.6900   40.5380 H   0  0  0  0  0  0  0  0  0  0  0  0
   36.0530   27.3190   42.2030 H   0  0  0  0  0  0  0  0  0  0  0  0
   35.0140   28.6250   41.3910 H   0  0  0  0  0  0  0  0  0  0  0  0
   36.7650   30.3490   41.8050 H   0  0  0  0  0  0  0  0  0  0  0  0
   38.2100   29.0410   42.8320 C   0  0  0  0  0  0  0  0  0  0  0  0
   38.1610   29.8110   43.6330 H   0  0  0  0  0  0  0  0  0  0  0  0
   39.1640   29.2310   42.3100 H   0  0  0  0  0  0  0  0  0  0  0  0
   38.1780   27.7000   43.5170 C   0  0  0  0  0  0  0  0  0  0  0  0
   37.3120   27.1390   43.1270 H   0  0  0  0  0  0  0  0  0  0  0  0
   38.0120   27.8180   44.5970 H   0  0  0  0  0  0  0  0  0  0  0  0
   39.2110   25.6500   42.7880 C   0  0  0  0  0  0  0  0  0  0  0  0
   39.4010   26.9060   43.3420 C   0  0  0  0  0  0  0  0  0  0  0  0
   40.6920   27.3020   43.6780 C   0  0  0  0  0  0  0  0  0  0  0  0
   40.7830   28.2920   44.1060 H   0  0  0  0  0  0  0  0  0  0  0  0
   41.7750   26.4450   43.4570 C   0  0  0  0  0  0  0  0  0  0  0  0
   42.7660   26.7830   43.7290 H   0  0  0  0  0  0  0  0  0  0  0  0
   41.5140   25.2080   42.9030 C   0  0  0  0  0  3  0  0  0  0  0  0
   40.2570   24.7610   42.5510 C   0  0  0  0  0  3  0  0  0  0  0  0
   36.8500   24.7650   42.1030 N   0  0  0  0  0  0  0  0  0  0  0  0
   37.8900   25.1650   42.4130 C   0  0  0  0  0  0  0  0  0  0  0  0
  1  7  1  1  0  0  0
  1  6  1  0  0  0  0
  1 17  1  0  0  0  0
  2  1  1  0  0  0  0
  3  4  1  0  0  0  0
  3 11  1  0  0  0  0
  3  2  1  0  0  0  0
  4  5  1  0  0  0  0
  5 15  1  0  0  0  0
  5 14  1  0  0  0  0
  5  6  1  0  0  0  0
  6 16  1  1  0  0  0
  6 26  1  0  0  0  0
  8  2  1  0  0  0  0
  9  2  1  0  0  0  0
 10  3  1  0  0  0  0
 12  4  1  0  0  0  0
 13  4  1  0  0  0  0
 17 22  1  0  0  0  0
 18 17  2  0  0  0  0
 18 19  1  0  0  0  0
 19 24  1  0  0  0  0
 19 20  2  0  0  0  0
 21 20  1  0  0  0  0
 21 25  1  0  0  0  0
 22 21  2  0  0  0  0
 23 18  1  0  0  0  0
 26 29  1  6  0  0  0
 26 27  1  0  0  0  0
 26 28  1  0  0  0  0
 27 28  1  0  0  0  0
 27 30  1  0  0  0  0
 28 32  1  6  0  0  0
 28 33  1  0  0  0  0
 31 27  1  0  0  0  0
 33 36  1  0  0  0  0
 33 34  1  0  0  0  0
 35 33  1  0  0  0  0
 36 38  1  0  0  0  0
 37 36  1  0  0  0  0
 39 40  1  0  0  0  0
 40 36  1  0  0  0  0
 40 41  2  0  0  0  0
 41 42  1  0  0  0  0
 43 41  1  0  0  0  0
 43 44  1  0  0  0  0
 45 43  2  0  0  0  0
 46 39  2  0  0  0  0
 46 45  1  0  0  0  0
 47 48  3  0  0  0  0
 48 39  1  0  0  0  0
M  END
>  <minimizedAffinity>
-5.55425978

$$$$

 OpenBabel03242512033D

 48 51  0  0  1  0  0  0  0  0999 V2000
   37.4440   26.3300   40.3840 C   0  0  2  0  0  0  0  0  0  0  0  0
   36.9480   25.0130   39.8670 C   0  0  0  0  0  0  0  0  0  0  0  0
   36.5630   24.0850   40.9540 C   0  0  0  0  0  0  0  0  0  0  0  0
   37.7000   23.8510   41.9390 C   0  0  0  0  0  0  0  0  0  0  0  0
   38.4590   25.0930   42.2840 C   0  0  0  0  0  0  0  0  0  0  0  0
   37.7680   26.3590   41.8320 C   0  0  1  0  0  0  0  0  0  0  0  0
   38.3990   26.5600   39.8160 H   0  0  0  0  0  0  0  0  0  0  0  0
   37.7280   24.5060   39.2650 H   0  0  0  0  0  0  0  0  0  0  0  0
   36.0820   25.1490   39.1990 H   0  0  0  0  0  0  0  0  0  0  0  0
   36.2680   23.1060   40.5530 H   0  0  0  0  0  0  0  0  0  0  0  0
   35.7070   24.4870   41.5300 H   0  0  0  0  0  0  0  0  0  0  0  0
   37.2730   23.3250   42.7940 H   0  0  0  0  0  0  0  0  0  0  0  0
   38.4080   23.1540   41.4060 H   0  0  0  0  0  0  0  0  0  0  0  0
   38.5180   25.1310   43.3950 H   0  0  0  0  0  0  0  0  0  0  0  0
   39.5210   25.0490   41.9260 H   0  0  0  0  0  0  0  0  0  0  0  0
   36.9290   26.5010   42.5290 H   0  0  0  0  0  0  0  0  0  0  0  0
   36.5530   27.4540   40.0360 C   0  0  0  0  0  0  0  0  0  0  0  0
   36.3340   27.5810   38.6760 C   0  0  0  0  0  0  0  0  0  0  0  0
   35.4990   28.6020   38.1930 C   0  0  0  0  0  0  0  0  0  0  0  0
   34.9420   29.4340   39.1720 N   0  0  0  0  0  0  0  0  0  0  0  0
   35.1870   29.2700   40.4860 C   0  0  0  0  0  0  0  0  0  0  0  0
   35.9960   28.2740   40.9060 N   0  0  0  0  0  0  0  0  0  0  0  0
   36.6640   27.0670   37.7860 H   0  0  0  0  0  0  0  0  0  0  0  0
   35.2100   28.8590   37.2080 H   0  0  0  0  0  0  0  0  0  0  0  0
   34.7020   29.9740   41.1550 H   0  0  0  0  0  0  0  0  0  0  0  0
   38.7140   27.5030   42.0750 C   0  0  2  0  0  0  0  0  0  0  0  0
   39.5180   27.5020   43.3600 C   0  0  0  0  0  0  0  0  0  0  0  0
   38.4380   28.4910   43.1550 C   0  0  1  0  0  0  0  0  0  0  0  0
   39.3390   27.7900   41.2050 H   0  0  0  0  0  0  0  0  0  0  0  0
   40.5570   27.8860   43.3730 H   0  0  0  0  0  0  0  0  0  0  0  0
   39.3210   26.7340   44.1400 H   0  0  0  0  0  0  0  0  0  0  0  0
   37.4650   28.3300   43.6720 H   0  0  0  0  0  0  0  0  0  0  0  0
   38.6800   29.9040   42.7240 C   0  0  0  0  0  0  0  0  0  0  0  0
   39.3370   30.3720   43.4880 H   0  0  0  0  0  0  0  0  0  0  0  0
   37.7450   30.4900   42.7510 H   0  0  0  0  0  0  0  0  0  0  0  0
   39.4000   30.0180   41.4050 C   0  0  0  0  0  0  0  0  0  0  0  0
   39.6040   28.9980   41.0390 H   0  0  0  0  0  0  0  0  0  0  0  0
   40.3770   30.5030   41.5350 H   0  0  0  0  0  0  0  0  0  0  0  0
   38.8290   30.3150   39.0840 C   0  0  0  0  0  0  0  0  0  0  0  0
   38.6650   30.7730   40.3820 C   0  0  0  0  0  0  0  0  0  0  0  0
   37.8440   31.8750   40.6060 C   0  0  0  0  0  0  0  0  0  0  0  0
   37.7510   32.1890   41.6370 H   0  0  0  0  0  0  0  0  0  0  0  0
   37.1980   32.5050   39.5360 C   0  0  0  0  0  0  0  0  0  0  0  0
   36.5680   33.3580   39.7450 H   0  0  0  0  0  0  0  0  0  0  0  0
   37.4070   31.9970   38.2700 C   0  0  0  0  0  3  0  0  0  0  0  0
   38.2080   30.9100   37.9880 C   0  0  0  0  0  3  0  0  0  0  0  0
   40.3260   28.2510   38.5120 N   0  0  0  0  0  0  0  0  0  0  0  0
   39.6710   29.1700   38.7710 C   0  0  0  0  0  0  0  0  0  0  0  0
  1  7  1  6  0  0  0
  1  6  1  0  0  0  0
  2  1  1  0  0  0  0
  2  3  1  0  0  0  0
  3 11  1  0  0  0  0
  3  4  1  0  0  0  0
  4  5  1  0  0  0  0
  4 12  1  0  0  0  0
  5 14  1  0  0  0  0
  6 26  1  0  0  0  0
  6  5  1  0  0  0  0
  6 16  1  1  0  0  0
  8  2  1  0  0  0  0
  9  2  1  0  0  0  0
 10  3  1  0  0  0  0
 13  4  1  0  0  0  0
 15  5  1  0  0  0  0
 17  1  1  0  0  0  0
 17 22  1  0  0  0  0
 18 17  2  0  0  0  0
 19 18  1  0  0  0  0
 19 20  2  0  0  0  0
 20 21  1  0  0  0  0
 21 22  2  0  0  0  0
 21 25  1  0  0  0  0
 23 18  1  0  0  0  0
 24 19  1  0  0  0  0
 26 29  1  6  0  0  0
 26 28  1  0  0  0  0
 26 27  1  0  0  0  0
 27 30  1  0  0  0  0
 27 31  1  0  0  0  0
 28 27  1  0  0  0  0
 28 32  1  1  0  0  0
 33 35  1  0  0  0  0
 33 28  1  0  0  0  0
 33 34  1  0  0  0  0
 36 38  1  0  0  0  0
 36 33  1  0  0  0  0
 37 36  1  0  0  0  0
 39 40  1  0  0  0  0
 40 41  2  0  0  0  0
 40 36  1  0  0  0  0
 41 42  1  0  0  0  0
 43 44  1  0  0  0  0
 43 41  1  0  0  0  0
 45 43  2  0  0  0  0
 46 45  1  0  0  0  0
 46 39  2  0  0  0  0
 47 48  3  0  0  0  0
 48 39  1  0  0  0  0
M  END
>  <minimizedAffinity>
-5.48642969

$$$$

 OpenBabel03242512033D

 48 51  0  0  1  0  0  0  0  0999 V2000
   36.9560   28.8550   37.2140 C   0  0  2  0  0  0  0  0  0  0  0  0
   37.1950   28.8780   35.7340 C   0  0  0  0  0  0  0  0  0  0  0  0
   36.1280   29.5890   34.9970 C   0  0  0  0  0  0  0  0  0  0  0  0
   34.7490   29.0110   35.2810 C   0  0  0  0  0  0  0  0  0  0  0  0
   34.5290   28.6680   36.7210 C   0  0  0  0  0  0  0  0  0  0  0  0
   35.5860   29.2380   37.6380 C   0  0  1  0  0  0  0  0  0  0  0  0
   37.1320   27.7860   37.5530 H   0  0  0  0  0  0  0  0  0  0  0  0
   37.2440   27.8490   35.3260 H   0  0  0  0  0  0  0  0  0  0  0  0
   38.1620   29.3500   35.4950 H   0  0  0  0  0  0  0  0  0  0  0  0
   36.2910   29.5340   33.9120 H   0  0  0  0  0  0  0  0  0  0  0  0
   36.1000   30.6590   35.2800 H   0  0  0  0  0  0  0  0  0  0  0  0
   34.0210   29.7070   34.8620 H   0  0  0  0  0  0  0  0  0  0  0  0
   34.7080   28.0510   34.6920 H   0  0  0  0  0  0  0  0  0  0  0  0
   33.5580   29.1310   37.0140 H   0  0  0  0  0  0  0  0  0  0  0  0
   34.3960   27.5660   36.8750 H   0  0  0  0  0  0  0  0  0  0  0  0
   35.3670   30.3140   37.7080 H   0  0  0  0  0  0  0  0  0  0  0  0
   37.9610   29.6290   37.9680 C   0  0  0  0  0  0  0  0  0  0  0  0
   37.8480   30.9970   37.7890 C   0  0  0  0  0  0  0  0  0  0  0  0
   38.7330   31.8650   38.4510 C   0  0  0  0  0  0  0  0  0  0  0  0
   39.6890   31.2420   39.2630 N   0  0  0  0  0  0  0  0  0  0  0  0
   39.7580   29.9050   39.4040 C   0  0  0  0  0  0  0  0  0  0  0  0
   38.8860   29.1070   38.7490 N   0  0  0  0  0  0  0  0  0  0  0  0
   37.2110   31.6550   37.2190 H   0  0  0  0  0  0  0  0  0  0  0  0
   38.8090   32.9200   38.4460 H   0  0  0  0  0  0  0  0  0  0  0  0
   40.5390   29.5320   40.0590 H   0  0  0  0  0  0  0  0  0  0  0  0
   35.3480   28.6710   39.0120 C   0  0  2  0  0  0  0  0  0  0  0  0
   34.1290   29.1460   39.7770 C   0  0  0  0  0  0  0  0  0  0  0  0
   35.4850   29.5360   40.2160 C   0  0  1  0  0  0  0  0  0  0  0  0
   35.4800   27.5740   39.0970 H   0  0  0  0  0  0  0  0  0  0  0  0
   33.5690   28.4470   40.4300 H   0  0  0  0  0  0  0  0  0  0  0  0
   33.5020   29.9690   39.3710 H   0  0  0  0  0  0  0  0  0  0  0  0
   35.8410   30.5670   39.9900 H   0  0  0  0  0  0  0  0  0  0  0  0
   36.2200   28.8620   41.3330 C   0  0  0  0  0  0  0  0  0  0  0  0
   35.5150   28.7830   42.1890 H   0  0  0  0  0  0  0  0  0  0  0  0
   37.0460   29.4950   41.7000 H   0  0  0  0  0  0  0  0  0  0  0  0
   36.6620   27.4600   41.0050 C   0  0  0  0  0  0  0  0  0  0  0  0
   36.9800   27.4410   39.9490 H   0  0  0  0  0  0  0  0  0  0  0  0
   35.8220   26.7560   41.0900 H   0  0  0  0  0  0  0  0  0  0  0  0
   37.8730   25.5770   41.8940 C   0  0  0  0  0  0  0  0  0  0  0  0
   37.7480   26.9560   41.8570 C   0  0  0  0  0  0  0  0  0  0  0  0
   38.6310   27.7300   42.6050 C   0  0  0  0  0  0  0  0  0  0  0  0
   38.4880   28.8010   42.5390 H   0  0  0  0  0  0  0  0  0  0  0  0
   39.6250   27.1210   43.3780 C   0  0  0  0  0  0  0  0  0  0  0  0
   40.2940   27.7510   43.9470 H   0  0  0  0  0  0  0  0  0  0  0  0
   39.6920   25.7430   43.3680 C   0  0  0  0  0  3  0  0  0  0  0  0
   38.8460   24.9260   42.6490 C   0  0  0  0  0  3  0  0  0  0  0  0
   36.2740   24.0000   40.5580 N   0  0  0  0  0  0  0  0  0  0  0  0
   36.9870   24.7020   41.1400 C   0  0  0  0  0  0  0  0  0  0  0  0
  1  7  1  1  0  0  0
  1  6  1  0  0  0  0
  1 17  1  0  0  0  0
  2  1  1  0  0  0  0
  3 11  1  0  0  0  0
  3  4  1  0  0  0  0
  3  2  1  0  0  0  0
  4  5  1  0  0  0  0
  5 15  1  0  0  0  0
  5 14  1  0  0  0  0
  5  6  1  0  0  0  0
  6 16  1  1  0  0  0
  6 26  1  0  0  0  0
  8  2  1  0  0  0  0
  9  2  1  0  0  0  0
 10  3  1  0  0  0  0
 12  4  1  0  0  0  0
 13  4  1  0  0  0  0
 17 22  1  0  0  0  0
 18 17  2  0  0  0  0
 18 19  1  0  0  0  0
 19 20  2  0  0  0  0
 20 21  1  0  0  0  0
 21 25  1  0  0  0  0
 22 21  2  0  0  0  0
 23 18  1  0  0  0  0
 24 19  1  0  0  0  0
 26 29  1  1  0  0  0
 26 27  1  0  0  0  0
 26 28  1  0  0  0  0
 27 28  1  0  0  0  0
 27 30  1  0  0  0  0
 28 32  1  6  0  0  0
 28 33  1  0  0  0  0
 31 27  1  0  0  0  0
 33 35  1  0  0  0  0
 33 34  1  0  0  0  0
 36 38  1  0  0  0  0
 36 33  1  0  0  0  0
 36 40  1  0  0  0  0
 37 36  1  0  0  0  0
 39 46  1  0  0  0  0
 40 39  2  0  0  0  0
 40 41  1  0  0  0  0
 41 43  2  0  0  0  0
 42 41  1  0  0  0  0
 43 44  1  0  0  0  0
 45 43  1  0  0  0  0
 46 45  2  0  0  0  0
 47 48  3  0  0  0  0
 48 39  1  0  0  0  0
M  END
>  <minimizedAffinity>
-5.46431112

$$$$

 OpenBabel03242512033D

 48 51  0  0  1  0  0  0  0  0999 V2000
   40.0140   32.8670   40.5320 C   0  0  2  0  0  0  0  0  0  0  0  0
   40.3080   34.1190   39.7600 C   0  0  0  0  0  0  0  0  0  0  0  0
   41.6980   34.1610   39.2550 C   0  0  0  0  0  0  0  0  0  0  0  0
   42.7210   33.9980   40.3700 C   0  0  0  0  0  0  0  0  0  0  0  0
   42.3480   32.9550   41.3760 C   0  0  0  0  0  0  0  0  0  0  0  0
   41.2050   32.0740   40.9270 C   0  0  1  0  0  0  0  0  0  0  0  0
   39.4890   33.1920   41.4840 H   0  0  0  0  0  0  0  0  0  0  0  0
   40.1630   35.0160   40.3940 H   0  0  0  0  0  0  0  0  0  0  0  0
   39.6200   34.2300   38.9060 H   0  0  0  0  0  0  0  0  0  0  0  0
   41.9080   35.1140   38.7520 H   0  0  0  0  0  0  0  0  0  0  0  0
   41.8760   33.3480   38.5250 H   0  0  0  0  0  0  0  0  0  0  0  0
   43.6890   33.8440   39.8910 H   0  0  0  0  0  0  0  0  0  0  0  0
   42.7360   34.9930   40.9000 H   0  0  0  0  0  0  0  0  0  0  0  0
   43.2400   32.2970   41.4970 H   0  0  0  0  0  0  0  0  0  0  0  0
   42.1600   33.3960   42.3890 H   0  0  0  0  0  0  0  0  0  0  0  0
   41.6320   31.4010   40.1690 H   0  0  0  0  0  0  0  0  0  0  0  0
   39.0220   32.0030   39.8640 C   0  0  0  0  0  0  0  0  0  0  0  0
   37.7520   32.1040   40.4050 C   0  0  0  0  0  0  0  0  0  0  0  0
   36.6990   31.3460   39.8670 C   0  0  0  0  0  0  0  0  0  0  0  0
   37.0440   30.5200   38.7890 N   0  0  0  0  0  0  0  0  0  0  0  0
   38.2970   30.4560   38.3000 C   0  0  0  0  0  0  0  0  0  0  0  0
   39.2790   31.2040   38.8470 N   0  0  0  0  0  0  0  0  0  0  0  0
   37.2950   32.6540   41.2130 H   0  0  0  0  0  0  0  0  0  0  0  0
   35.6770   31.2850   40.1340 H   0  0  0  0  0  0  0  0  0  0  0  0
   38.4490   29.7820   37.4630 H   0  0  0  0  0  0  0  0  0  0  0  0
   40.8200   31.2030   42.0920 C   0  0  2  0  0  0  0  0  0  0  0  0
   41.9020   30.3680   42.7460 C   0  0  0  0  0  0  0  0  0  0  0  0
   40.8320   29.7200   41.9580 C   0  0  1  0  0  0  0  0  0  0  0  0
   40.1680   31.6880   42.8470 H   0  0  0  0  0  0  0  0  0  0  0  0
   41.8950   30.1980   43.8400 H   0  0  0  0  0  0  0  0  0  0  0  0
   42.9190   30.3240   42.2980 H   0  0  0  0  0  0  0  0  0  0  0  0
   41.0700   29.3640   40.9300 H   0  0  0  0  0  0  0  0  0  0  0  0
   39.6290   29.0730   42.5710 C   0  0  0  0  0  0  0  0  0  0  0  0
   38.9310   28.8270   41.7410 H   0  0  0  0  0  0  0  0  0  0  0  0
   39.0780   29.7870   43.2070 H   0  0  0  0  0  0  0  0  0  0  0  0
   39.9340   27.7790   43.2780 C   0  0  0  0  0  0  0  0  0  0  0  0
   39.8410   27.9540   44.3640 H   0  0  0  0  0  0  0  0  0  0  0  0
   40.9750   27.4730   43.1000 H   0  0  0  0  0  0  0  0  0  0  0  0
   39.7170   25.4400   42.7470 C   0  0  0  0  0  0  0  0  0  0  0  0
   39.0710   26.6580   42.8830 C   0  0  0  0  0  0  0  0  0  0  0  0
   37.7010   26.7220   42.6420 C   0  0  0  0  0  0  0  0  0  0  0  0
   37.2480   27.6970   42.7640 H   0  0  0  0  0  0  0  0  0  0  0  0
   36.9940   25.5730   42.2700 C   0  0  0  0  0  0  0  0  0  0  0  0
   35.9310   25.6580   42.0900 H   0  0  0  0  0  0  0  0  0  0  0  0
   37.7010   24.3940   42.1530 C   0  0  0  0  0  3  0  0  0  0  0  0
   39.0560   24.2700   42.3770 C   0  0  0  0  0  3  0  0  0  0  0  0
   42.2800   25.1600   43.1710 N   0  0  0  0  0  0  0  0  0  0  0  0
   41.1460   25.2950   42.9800 C   0  0  0  0  0  0  0  0  0  0  0  0
  1  6  1  0  0  0  0
  1  7  1  1  0  0  0
  2  8  1  0  0  0  0
  2  1  1  0  0  0  0
  3  2  1  0  0  0  0
  3  4  1  0  0  0  0
  4 13  1  0  0  0  0
  4  5  1  0  0  0  0
  5 14  1  0  0  0  0
  5 15  1  0  0  0  0
  6 16  1  6  0  0  0
  6  5  1  0  0  0  0
  6 26  1  0  0  0  0
  9  2  1  0  0  0  0
 10  3  1  0  0  0  0
 11  3  1  0  0  0  0
 12  4  1  0  0  0  0
 17 18  1  0  0  0  0
 17  1  1  0  0  0  0
 18 23  1  0  0  0  0
 19 24  1  0  0  0  0
 19 18  2  0  0  0  0
 20 19  1  0  0  0  0
 21 20  2  0  0  0  0
 21 22  1  0  0  0  0
 22 17  2  0  0  0  0
 25 21  1  0  0  0  0
 26 27  1  0  0  0  0
 26 29  1  1  0  0  0
 27 30  1  0  0  0  0
 28 32  1  6  0  0  0
 28 26  1  0  0  0  0
 28 33  1  0  0  0  0
 28 27  1  0  0  0  0
 31 27  1  0  0  0  0
 33 35  1  0  0  0  0
 33 36  1  0  0  0  0
 34 33  1  0  0  0  0
 36 37  1  0  0  0  0
 38 36  1  0  0  0  0
 39 40  1  0  0  0  0
 39 48  1  0  0  0  0
 40 36  1  0  0  0  0
 41 42  1  0  0  0  0
 41 40  2  0  0  0  0
 43 41  1  0  0  0  0
 44 43  1  0  0  0  0
 45 43  2  0  0  0  0
 45 46  1  0  0  0  0
 46 39  2  0  0  0  0
 48 47  3  0  0  0  0
M  END
>  <minimizedAffinity>
-5.41760159

$$$$

 OpenBabel03242512033D

 48 51  0  0  1  0  0  0  0  0999 V2000
   40.6080   28.3900   42.8250 C   0  0  2  0  0  0  0  0  0  0  0  0
   41.8870   27.6810   43.1580 C   0  0  0  0  0  0  0  0  0  0  0  0
   41.8060   26.2220   42.9210 C   0  0  0  0  0  0  0  0  0  0  0  0
   40.6540   25.5790   43.6800 C   0  0  0  0  0  0  0  0  0  0  0  0
   39.3950   26.3870   43.6540 C   0  0  0  0  0  0  0  0  0  0  0  0
   39.4270   27.5100   42.6430 C   0  0  1  0  0  0  0  0  0  0  0  0
   40.3870   29.0820   43.6980 H   0  0  0  0  0  0  0  0  0  0  0  0
   42.1520   27.8240   44.2240 H   0  0  0  0  0  0  0  0  0  0  0  0
   42.7300   28.0850   42.5740 H   0  0  0  0  0  0  0  0  0  0  0  0
   42.7290   25.7180   43.2340 H   0  0  0  0  0  0  0  0  0  0  0  0
   41.6510   26.0070   41.8460 H   0  0  0  0  0  0  0  0  0  0  0  0
   40.5510   24.5630   43.2970 H   0  0  0  0  0  0  0  0  0  0  0  0
   41.0040   25.5260   44.7500 H   0  0  0  0  0  0  0  0  0  0  0  0
   38.5780   25.6940   43.3480 H   0  0  0  0  0  0  0  0  0  0  0  0
   39.1110   26.7550   44.6750 H   0  0  0  0  0  0  0  0  0  0  0  0
   39.3110   27.0260   41.6620 H   0  0  0  0  0  0  0  0  0  0  0  0
   40.7450   29.3080   41.6780 C   0  0  0  0  0  0  0  0  0  0  0  0
   41.0110   28.6600   40.4850 C   0  0  0  0  0  0  0  0  0  0  0  0
   41.1590   29.4040   39.3020 C   0  0  0  0  0  0  0  0  0  0  0  0
   41.0220   30.7910   39.4450 N   0  0  0  0  0  0  0  0  0  0  0  0
   40.7640   31.3740   40.6310 C   0  0  0  0  0  0  0  0  0  0  0  0
   40.6280   30.6200   41.7430 N   0  0  0  0  0  0  0  0  0  0  0  0
   41.1580   27.6380   40.1730 H   0  0  0  0  0  0  0  0  0  0  0  0
   41.3590   29.1010   38.3080 H   0  0  0  0  0  0  0  0  0  0  0  0
   40.6780   32.4560   40.6230 H   0  0  0  0  0  0  0  0  0  0  0  0
   38.1900   28.3410   42.8490 C   0  0  2  0  0  0  0  0  0  0  0  0
   36.8470   27.7090   42.5440 C   0  0  0  0  0  0  0  0  0  0  0  0
   37.3790   28.7860   41.6830 C   0  0  1  0  0  0  0  0  0  0  0  0
   38.1630   28.9170   43.7970 H   0  0  0  0  0  0  0  0  0  0  0  0
   35.9600   27.9500   43.1620 H   0  0  0  0  0  0  0  0  0  0  0  0
   36.7990   26.7020   42.0760 H   0  0  0  0  0  0  0  0  0  0  0  0
   37.8210   28.5090   40.6980 H   0  0  0  0  0  0  0  0  0  0  0  0
   36.9510   30.2170   41.7850 C   0  0  0  0  0  0  0  0  0  0  0  0
   37.8500   30.8420   41.5980 H   0  0  0  0  0  0  0  0  0  0  0  0
   36.6400   30.4620   42.8160 H   0  0  0  0  0  0  0  0  0  0  0  0
   35.9240   30.6150   40.7570 C   0  0  0  0  0  0  0  0  0  0  0  0
   35.7460   31.6990   40.8560 H   0  0  0  0  0  0  0  0  0  0  0  0
   34.9620   30.1220   40.9560 H   0  0  0  0  0  0  0  0  0  0  0  0
   37.0250   31.2900   38.7240 C   0  0  0  0  0  0  0  0  0  0  0  0
   36.3040   30.3010   39.3740 C   0  0  0  0  0  0  0  0  0  0  0  0
   36.0070   29.1270   38.6880 C   0  0  0  0  0  0  0  0  0  0  0  0
   35.4440   28.3890   39.2420 H   0  0  0  0  0  0  0  0  0  0  0  0
   36.4320   28.9540   37.3660 C   0  0  0  0  0  0  0  0  0  0  0  0
   36.1840   28.0300   36.8610 H   0  0  0  0  0  0  0  0  0  0  0  0
   37.1450   29.9800   36.7800 C   0  0  0  0  0  3  0  0  0  0  0  0
   37.4680   31.1640   37.4090 C   0  0  0  0  0  3  0  0  0  0  0  0
   37.6500   33.5510   39.8760 N   0  0  0  0  0  0  0  0  0  0  0  0
   37.3730   32.5450   39.3760 C   0  0  0  0  0  0  0  0  0  0  0  0
  1  2  1  0  0  0  0
  1  7  1  1  0  0  0
  2  8  1  0  0  0  0
  3  2  1  0  0  0  0
  3 10  1  0  0  0  0
  3  4  1  0  0  0  0
  4 13  1  0  0  0  0
  5  4  1  0  0  0  0
  5 15  1  0  0  0  0
  6 16  1  6  0  0  0
  6  1  1  0  0  0  0
  6 26  1  0  0  0  0
  6  5  1  0  0  0  0
  9  2  1  0  0  0  0
 11  3  1  0  0  0  0
 12  4  1  0  0  0  0
 14  5  1  0  0  0  0
 17 22  1  0  0  0  0
 17  1  1  0  0  0  0
 18 17  2  0  0  0  0
 19 20  2  0  0  0  0
 19 18  1  0  0  0  0
 20 21  1  0  0  0  0
 21 22  2  0  0  0  0
 23 18  1  0  0  0  0
 24 19  1  0  0  0  0
 25 21  1  0  0  0  0
 26 29  1  1  0  0  0
 27 26  1  0  0  0  0
 27 30  1  0  0  0  0
 28 32  1  6  0  0  0
 28 33  1  0  0  0  0
 28 27  1  0  0  0  0
 28 26  1  0  0  0  0
 31 27  1  0  0  0  0
 33 35  1  0  0  0  0
 34 33  1  0  0  0  0
 36 37  1  0  0  0  0
 36 38  1  0  0  0  0
 36 33  1  0  0  0  0
 39 40  1  0  0  0  0
 39 48  1  0  0  0  0
 40 36  1  0  0  0  0
 41 42  1  0  0  0  0
 41 40  2  0  0  0  0
 43 41  1  0  0  0  0
 44 43  1  0  0  0  0
 45 43  2  0  0  0  0
 45 46  1  0  0  0  0
 46 39  2  0  0  0  0
 48 47  3  0  0  0  0
M  END
>  <minimizedAffinity>
-5.37127304

$$$$

 OpenBabel03242512033D

 48 51  0  0  1  0  0  0  0  0999 V2000
   37.9380   26.4500   40.1810 C   0  0  2  0  0  0  0  0  0  0  0  0
   37.7310   25.2790   39.2670 C   0  0  0  0  0  0  0  0  0  0  0  0
   36.5250   24.4940   39.6120 C   0  0  0  0  0  0  0  0  0  0  0  0
   36.5440   24.0160   41.0570 C   0  0  0  0  0  0  0  0  0  0  0  0
   37.0380   25.0480   42.0230 C   0  0  0  0  0  0  0  0  0  0  0  0
   37.1260   26.4320   41.4230 C   0  0  1  0  0  0  0  0  0  0  0  0
   39.0300   26.4310   40.4860 H   0  0  0  0  0  0  0  0  0  0  0  0
   38.5950   24.5860   39.3110 H   0  0  0  0  0  0  0  0  0  0  0  0
   37.6500   25.6030   38.2170 H   0  0  0  0  0  0  0  0  0  0  0  0
   36.4330   23.6060   38.9730 H   0  0  0  0  0  0  0  0  0  0  0  0
   35.6090   25.1020   39.4810 H   0  0  0  0  0  0  0  0  0  0  0  0
   35.5490   23.6270   41.2750 H   0  0  0  0  0  0  0  0  0  0  0  0
   37.2760   23.1590   41.0710 H   0  0  0  0  0  0  0  0  0  0  0  0
   36.2900   25.0950   42.8470 H   0  0  0  0  0  0  0  0  0  0  0  0
   38.0020   24.7420   42.5080 H   0  0  0  0  0  0  0  0  0  0  0  0
   36.0870   26.7870   41.3470 H   0  0  0  0  0  0  0  0  0  0  0  0
   37.7910   27.7460   39.4920 C   0  0  0  0  0  0  0  0  0  0  0  0
   38.9940   28.2830   39.0680 C   0  0  0  0  0  0  0  0  0  0  0  0
   39.0110   29.5120   38.3880 C   0  0  0  0  0  0  0  0  0  0  0  0
   37.7590   30.1090   38.1940 N   0  0  0  0  0  0  0  0  0  0  0  0
   36.6160   29.5450   38.6270 C   0  0  0  0  0  0  0  0  0  0  0  0
   36.6440   28.3620   39.2760 N   0  0  0  0  0  0  0  0  0  0  0  0
   40.0330   27.9980   39.1250 H   0  0  0  0  0  0  0  0  0  0  0  0
   39.8130   30.0770   37.9900 H   0  0  0  0  0  0  0  0  0  0  0  0
   35.7030   30.0970   38.4220 H   0  0  0  0  0  0  0  0  0  0  0  0
   37.8000   27.3210   42.4330 C   0  0  2  0  0  0  0  0  0  0  0  0
   37.0260   27.6980   43.6800 C   0  0  0  0  0  0  0  0  0  0  0  0
   37.3210   28.7140   42.6470 C   0  0  1  0  0  0  0  0  0  0  0  0
   38.8490   27.0510   42.6710 H   0  0  0  0  0  0  0  0  0  0  0  0
   37.5450   27.8030   44.6530 H   0  0  0  0  0  0  0  0  0  0  0  0
   35.9550   27.4130   43.7790 H   0  0  0  0  0  0  0  0  0  0  0  0
   36.5040   29.0190   41.9540 H   0  0  0  0  0  0  0  0  0  0  0  0
   38.4400   29.7030   42.7540 C   0  0  0  0  0  0  0  0  0  0  0  0
   39.3850   29.1490   42.5650 H   0  0  0  0  0  0  0  0  0  0  0  0
   38.5310   30.0840   43.7850 H   0  0  0  0  0  0  0  0  0  0  0  0
   38.3710   30.8050   41.7290 C   0  0  0  0  0  0  0  0  0  0  0  0
   37.5950   31.5210   42.0510 H   0  0  0  0  0  0  0  0  0  0  0  0
   38.0470   30.4120   40.7550 H   0  0  0  0  0  0  0  0  0  0  0  0
   39.5610   32.6350   40.7120 C   0  0  0  0  0  0  0  0  0  0  0  0
   39.6410   31.5130   41.5200 C   0  0  0  0  0  0  0  0  0  0  0  0
   40.8760   31.1560   42.0530 C   0  0  0  0  0  0  0  0  0  0  0  0
   40.8810   30.2730   42.6770 H   0  0  0  0  0  0  0  0  0  0  0  0
   42.0140   31.9220   41.7740 C   0  0  0  0  0  0  0  0  0  0  0  0
   42.9580   31.6170   42.2030 H   0  0  0  0  0  0  0  0  0  0  0  0
   41.8620   33.0260   40.9610 C   0  0  0  0  0  3  0  0  0  0  0  0
   40.6650   33.4270   40.4050 C   0  0  0  0  0  3  0  0  0  0  0  0
   37.3150   33.4300   39.6370 N   0  0  0  0  0  0  0  0  0  0  0  0
   38.3040   33.0690   40.1180 C   0  0  0  0  0  0  0  0  0  0  0  0
  1  7  1  1  0  0  0
  1  6  1  0  0  0  0
  2  8  1  0  0  0  0
  2  3  1  0  0  0  0
  2  1  1  0  0  0  0
  3  4  1  0  0  0  0
  4 13  1  0  0  0  0
  4 12  1  0  0  0  0
  4  5  1  0  0  0  0
  5 15  1  0  0  0  0
  5 14  1  0  0  0  0
  6 16  1  6  0  0  0
  6  5  1  0  0  0  0
  6 26  1  0  0  0  0
  9  2  1  0  0  0  0
 10  3  1  0  0  0  0
 11  3  1  0  0  0  0
 17  1  1  0  0  0  0
 18 23  1  0  0  0  0
 18 17  2  0  0  0  0
 19 18  1  0  0  0  0
 20 19  2  0  0  0  0
 20 21  1  0  0  0  0
 21 22  2  0  0  0  0
 22 17  1  0  0  0  0
 24 19  1  0  0  0  0
 25 21  1  0  0  0  0
 26 28  1  0  0  0  0
 26 29  1  1  0  0  0
 26 27  1  0  0  0  0
 27 31  1  0  0  0  0
 27 30  1  0  0  0  0
 28 32  1  6  0  0  0
 28 33  1  0  0  0  0
 28 27  1  0  0  0  0
 33 35  1  0  0  0  0
 34 33  1  0  0  0  0
 36 37  1  0  0  0  0
 36 33  1  0  0  0  0
 38 36  1  0  0  0  0
 39 40  1  0  0  0  0
 40 36  1  0  0  0  0
 40 41  2  0  0  0  0
 41 42  1  0  0  0  0
 43 41  1  0  0  0  0
 43 44  1  0  0  0  0
 45 43  2  0  0  0  0
 46 39  2  0  0  0  0
 46 45  1  0  0  0  0
 47 48  3  0  0  0  0
 48 39  1  0  0  0  0
M  END
>  <minimizedAffinity>
-5.35508156

$$$$

 OpenBabel03242512033D

 48 51  0  0  1  0  0  0  0  0999 V2000
   37.5950   26.4330   40.1380 C   0  0  2  0  0  0  0  0  0  0  0  0
   37.1690   25.2120   39.3780 C   0  0  0  0  0  0  0  0  0  0  0  0
   36.4790   24.2220   40.2340 C   0  0  0  0  0  0  0  0  0  0  0  0
   37.3240   23.8090   41.4310 C   0  0  0  0  0  0  0  0  0  0  0  0
   38.0430   24.9500   42.0790 C   0  0  0  0  0  0  0  0  0  0  0  0
   37.5550   26.3030   41.6150 C   0  0  1  0  0  0  0  0  0  0  0  0
   38.6720   26.6370   39.8410 H   0  0  0  0  0  0  0  0  0  0  0  0
   38.0430   24.7020   38.9280 H   0  0  0  0  0  0  0  0  0  0  0  0
   36.5020   25.4770   38.5410 H   0  0  0  0  0  0  0  0  0  0  0  0
   36.2370   23.3110   39.6710 H   0  0  0  0  0  0  0  0  0  0  0  0
   35.5320   24.6370   40.6300 H   0  0  0  0  0  0  0  0  0  0  0  0
   36.6730   23.2430   42.0980 H   0  0  0  0  0  0  0  0  0  0  0  0
   38.1020   23.1100   41.0100 H   0  0  0  0  0  0  0  0  0  0  0  0
   37.8310   24.8810   43.1700 H   0  0  0  0  0  0  0  0  0  0  0  0
   39.1570   24.8540   41.9820 H   0  0  0  0  0  0  0  0  0  0  0  0
   36.5800   26.4470   42.1040 H   0  0  0  0  0  0  0  0  0  0  0  0
   36.8800   27.6510   39.7110 C   0  0  0  0  0  0  0  0  0  0  0  0
   37.4260   28.2430   38.5850 C   0  0  0  0  0  0  0  0  0  0  0  0
   36.8460   29.4080   38.0560 C   0  0  0  0  0  0  0  0  0  0  0  0
   35.7240   29.8860   38.7440 N   0  0  0  0  0  0  0  0  0  0  0  0
   35.2320   29.2740   39.8380 C   0  0  0  0  0  0  0  0  0  0  0  0
   35.8200   28.1550   40.3130 N   0  0  0  0  0  0  0  0  0  0  0  0
   38.2630   28.0460   37.9330 H   0  0  0  0  0  0  0  0  0  0  0  0
   37.1080   29.9980   37.2180 H   0  0  0  0  0  0  0  0  0  0  0  0
   34.3590   29.7330   40.2910 H   0  0  0  0  0  0  0  0  0  0  0  0
   38.4750   27.3410   42.1990 C   0  0  2  0  0  0  0  0  0  0  0  0
   38.8310   27.2320   43.6680 C   0  0  0  0  0  0  0  0  0  0  0  0
   37.9630   28.3290   43.1890 C   0  0  1  0  0  0  0  0  0  0  0  0
   39.3650   27.5820   41.5820 H   0  0  0  0  0  0  0  0  0  0  0  0
   39.8430   27.5090   44.0230 H   0  0  0  0  0  0  0  0  0  0  0  0
   38.3310   26.4710   44.3080 H   0  0  0  0  0  0  0  0  0  0  0  0
   36.8660   28.2550   43.3690 H   0  0  0  0  0  0  0  0  0  0  0  0
   38.4530   29.7190   42.9270 C   0  0  0  0  0  0  0  0  0  0  0  0
   39.2700   29.9200   43.6530 H   0  0  0  0  0  0  0  0  0  0  0  0
   37.6710   30.4620   43.1620 H   0  0  0  0  0  0  0  0  0  0  0  0
   39.0390   29.9040   41.5520 C   0  0  0  0  0  0  0  0  0  0  0  0
   38.5500   29.1840   40.8740 H   0  0  0  0  0  0  0  0  0  0  0  0
   40.1100   29.6570   41.5480 H   0  0  0  0  0  0  0  0  0  0  0  0
   40.0860   31.9540   40.8450 C   0  0  0  0  0  0  0  0  0  0  0  0
   38.8970   31.2630   41.0150 C   0  0  0  0  0  0  0  0  0  0  0  0
   37.7020   31.8910   40.6750 C   0  0  0  0  0  0  0  0  0  0  0  0
   36.8040   31.3070   40.8270 H   0  0  0  0  0  0  0  0  0  0  0  0
   37.7070   33.1960   40.1710 C   0  0  0  0  0  0  0  0  0  0  0  0
   36.7620   33.6550   39.9170 H   0  0  0  0  0  0  0  0  0  0  0  0
   38.9270   33.8250   40.0280 C   0  0  0  0  0  3  0  0  0  0  0  0
   40.1410   33.2540   40.3480 C   0  0  0  0  0  3  0  0  0  0  0  0
   42.4070   30.9150   41.4470 N   0  0  0  0  0  0  0  0  0  0  0  0
   41.3740   31.3640   41.1790 C   0  0  0  0  0  0  0  0  0  0  0  0
  1  7  1  6  0  0  0
  1  6  1  0  0  0  0
  2  1  1  0  0  0  0
  2  3  1  0  0  0  0
  3 11  1  0  0  0  0
  3  4  1  0  0  0  0
  4  5  1  0  0  0  0
  4 12  1  0  0  0  0
  5 14  1  0  0  0  0
  6  5  1  0  0  0  0
  6 16  1  1  0  0  0
  6 26  1  0  0  0  0
  8  2  1  0  0  0  0
  9  2  1  0  0  0  0
 10  3  1  0  0  0  0
 13  4  1  0  0  0  0
 15  5  1  0  0  0  0
 17  1  1  0  0  0  0
 17 22  1  0  0  0  0
 18 17  2  0  0  0  0
 19 18  1  0  0  0  0
 19 20  2  0  0  0  0
 20 21  1  0  0  0  0
 21 25  1  0  0  0  0
 21 22  2  0  0  0  0
 23 18  1  0  0  0  0
 24 19  1  0  0  0  0
 26 29  1  6  0  0  0
 26 28  1  0  0  0  0
 26 27  1  0  0  0  0
 27 30  1  0  0  0  0
 27 31  1  0  0  0  0
 28 32  1  1  0  0  0
 28 27  1  0  0  0  0
 33 35  1  0  0  0  0
 33 28  1  0  0  0  0
 33 34  1  0  0  0  0
 36 33  1  0  0  0  0
 37 36  1  0  0  0  0
 38 36  1  0  0  0  0
 39 40  1  0  0  0  0
 39 48  1  0  0  0  0
 40 36  1  0  0  0  0
 41 42  1  0  0  0  0
 41 40  2  0  0  0  0
 43 41  1  0  0  0  0
 44 43  1  0  0  0  0
 45 43  2  0  0  0  0
 45 46  1  0  0  0  0
 46 39  2  0  0  0  0
 48 47  3  0  0  0  0
M  END
>  <minimizedAffinity>
-5.33735991

$$$$
