
 OpenBabel03242517283D

 41 43  0  0  1  0  0  0  0  0999 V2000
   44.9940   34.6580   44.9470 C   0  0  0  0  0  0  0  0  0  0  0  0
   45.8970   34.5990   43.8470 C   0  0  0  0  0  0  0  0  0  0  0  0
   47.0000   33.7310   43.9560 C   0  0  0  0  0  0  0  0  0  0  0  0
   47.1460   33.0040   45.0900 N   0  0  0  0  0  0  0  0  0  0  0  0
   46.2800   33.0790   46.1140 C   0  0  0  0  0  0  0  0  0  0  0  0
   45.2210   33.9040   46.0240 N   0  0  0  0  0  0  0  0  0  0  0  0
   46.4990   32.2950   47.2540 N   0  0  0  0  0  0  0  0  0  0  0  0
   47.7190   32.4330   47.9970 C   0  0  0  0  0  0  0  0  0  0  0  0
   47.9970   31.2850   48.9180 C   0  0  0  0  0  0  0  0  0  0  0  0
   46.8590   30.6560   49.4910 N   0  0  0  0  0  0  0  0  0  0  0  0
   45.6110   31.2920   49.1660 C   0  0  0  0  0  0  0  0  0  0  0  0
   45.4730   31.3480   47.6660 C   0  0  2  0  0  0  0  0  0  0  0  0
   44.1500   35.3260   44.8580 H   0  0  0  0  0  0  0  0  0  0  0  0
   45.7900   35.1670   42.9510 H   0  0  0  0  0  0  0  0  0  0  0  0
   47.7290   33.6380   43.1480 H   0  0  0  0  0  0  0  0  0  0  0  0
   47.7730   33.4100   48.5490 H   0  0  0  0  0  0  0  0  0  0  0  0
   48.5500   32.4680   47.2570 H   0  0  0  0  0  0  0  0  0  0  0  0
   48.6330   30.5080   48.4410 H   0  0  0  0  0  0  0  0  0  0  0  0
   48.6060   31.6940   49.7680 H   0  0  0  0  0  0  0  0  0  0  0  0
   46.8390   29.6330   49.5060 H   0  0  0  0  0  0  0  0  0  0  0  0
   44.7930   30.6900   49.6060 H   0  0  0  0  0  0  0  0  0  0  0  0
   45.5840   32.3180   49.5520 H   0  0  0  0  0  0  0  0  0  0  0  0
   44.4900   31.8020   47.4360 H   0  0  0  0  0  0  0  0  0  0  0  0
   45.6570   30.0080   47.0330 C   0  0  0  0  0  0  0  0  0  0  0  0
   45.3370   30.0480   45.9790 H   0  0  0  0  0  0  0  0  0  0  0  0
   46.7220   29.7170   47.1690 H   0  0  0  0  0  0  0  0  0  0  0  0
   44.8370   29.0160   47.8280 C   0  0  0  0  0  3  0  0  0  0  0  0
   45.1260   27.7320   47.8290 C   0  0  0  0  0  3  0  0  0  0  0  0
   44.3650   26.6910   48.5840 C   0  0  0  0  0  0  0  0  0  0  0  0
   43.5270   27.1060   49.1590 H   0  0  0  0  0  0  0  0  0  0  0  0
   45.0620   26.0980   49.2130 H   0  0  0  0  0  0  0  0  0  0  0  0
   44.3710   24.5560   47.2050 C   0  0  0  0  0  0  0  0  0  0  0  0
   43.8080   25.7690   47.5550 C   0  0  0  0  0  0  0  0  0  0  0  0
   42.6360   26.1210   46.8740 C   0  0  0  0  0  0  0  0  0  0  0  0
   42.1940   27.0770   47.1500 H   0  0  0  0  0  0  0  0  0  0  0  0
   42.0170   25.3600   45.9010 C   0  0  0  0  0  0  0  0  0  0  0  0
   41.1180   25.7440   45.4540 H   0  0  0  0  0  0  0  0  0  0  0  0
   42.6090   24.1590   45.5830 C   0  0  0  0  0  3  0  0  0  0  0  0
   43.7590   23.7730   46.2240 C   0  0  0  0  0  3  0  0  0  0  0  0
   46.5260   23.8190   48.4110 N   0  0  0  0  0  0  0  0  0  0  0  0
   45.5610   24.1540   47.8660 C   0  0  0  0  0  0  0  0  0  0  0  0
  1  6  1  0  0  0  0
  2  3  1  0  0  0  0
  2  1  2  0  0  0  0
  3  4  2  0  0  0  0
  4  5  1  0  0  0  0
  5  7  1  0  0  0  0
  6  5  2  0  0  0  0
  7 12  1  0  0  0  0
  7  8  1  0  0  0  0
  8 16  1  0  0  0  0
  8  9  1  0  0  0  0
  9 10  1  0  0  0  0
  9 19  1  0  0  0  0
 10 20  1  0  0  0  0
 11 10  1  0  0  0  0
 11 22  1  0  0  0  0
 11 21  1  0  0  0  0
 12 23  1  6  0  0  0
 12 11  1  0  0  0  0
 13  1  1  0  0  0  0
 14  2  1  0  0  0  0
 15  3  1  0  0  0  0
 17  8  1  0  0  0  0
 18  9  1  0  0  0  0
 24 26  1  0  0  0  0
 24 12  1  0  0  0  0
 24 27  1  0  0  0  0
 25 24  1  0  0  0  0
 27 28  2  0  0  0  0
 28 29  1  0  0  0  0
 29 30  1  0  0  0  0
 29 31  1  0  0  0  0
 32 33  1  0  0  0  0
 32 41  1  0  0  0  0
 33 29  1  0  0  0  0
 34 35  1  0  0  0  0
 34 33  2  0  0  0  0
 36 34  1  0  0  0  0
 37 36  1  0  0  0  0
 38 36  2  0  0  0  0
 38 39  1  0  0  0  0
 39 32  2  0  0  0  0
 41 40  3  0  0  0  0
M  END
>  <minimizedAffinity>
-5.71090555

>  <minimizedRMSD>
0.876704991

$$$$
