
     RDKit          3D

 30 31  0  0  0  0  0  0  0  0999 V2000
   45.5094   34.9047   44.1486 C   0  0  0  0  0  0  0  0  0  0  0  0
   46.5458   34.2287   43.5221 C   0  0  0  0  0  0  0  0  0  0  0  0
   47.1363   33.1753   44.2175 C   0  0  0  0  0  0  0  0  0  0  0  0
   46.6796   32.8666   45.4490 N   0  0  0  0  0  0  0  0  0  0  0  0
   45.6547   33.5671   46.0179 C   0  0  0  0  0  0  0  0  0  0  0  0
   45.0585   34.5970   45.3687 N   0  0  0  0  0  0  0  0  0  0  0  0
   44.8812   36.0454   43.3904 C   0  0  0  0  0  0  0  0  0  0  0  0
   45.2909   33.1404   47.2841 O   0  0  0  0  0  0  0  0  0  0  0  0
   45.3199   31.7149   49.4444 O   0  0  0  0  0  0  0  0  0  0  0  0
   45.6563   31.6247   47.9492 P   0  0  1  0  0  0  0  0  0  0  0  0
   44.6099   30.4135   47.3507 O   0  0  0  0  0  0  0  0  0  0  0  0
   47.2085   31.1607   47.6455 O   0  0  0  0  0  0  0  0  0  0  0  0
   46.8775   34.5088   42.5394 H   0  0  0  0  0  0  0  0  0  0  0  0
   47.9393   32.6431   43.7453 H   0  0  0  0  0  0  0  0  0  0  0  0
   44.8389   35.7979   42.3108 H   0  0  0  0  0  0  0  0  0  0  0  0
   45.5691   36.9082   43.5496 H   0  0  0  0  0  0  0  0  0  0  0  0
   43.9035   36.2861   43.8253 H   0  0  0  0  0  0  0  0  0  0  0  0
   45.0350   29.8333   46.6948 H   0  0  0  0  0  0  0  0  0  0  0  0
   50.0346   29.7482   45.7137 N   0  0  0  0  0  0  0  0  0  0  0  0
   49.8797   30.5430   46.5395 C   0  0  0  0  0  0  0  0  0  0  0  0
   49.7133   31.5281   47.5585 C   0  0  0  0  0  0  0  0  0  0  0  0
   48.4126   31.6927   47.9603 C   0  0  0  0  0  0  0  0  0  0  0  0
   48.2092   32.6542   48.9622 C   0  0  0  0  0  0  0  0  0  0  0  0
   47.2735   32.9720   49.4514 H   0  0  0  0  0  0  0  0  0  0  0  0
   49.2642   33.3916   49.5103 C   0  0  0  0  0  0  0  0  0  0  0  0
   49.1875   34.1441   50.2794 H   0  0  0  0  0  0  0  0  0  0  0  0
   50.5537   33.1822   49.0654 C   0  0  0  0  0  0  0  0  0  0  0  0
   50.7681   32.2409   48.0818 C   0  0  0  0  0  0  0  0  0  0  0  0
   51.4045   33.7135   49.4438 H   0  0  0  0  0  0  0  0  0  0  0  0
   51.7336   31.9902   47.6545 H   0  0  0  0  0  0  0  0  0  0  0  0
  1  6  2  0
  2  1  1  0
  2  3  2  0
  3  4  1  0
  4  5  2  0
  5  8  1  0
  6  5  1  0
  7  1  1  0
 10  8  1  6
 10  9  2  0
 11 10  1  0
 12 10  1  0
  2 13  1  0
  3 14  1  0
  7 15  1  0
  7 16  1  0
  7 17  1  0
 11 18  1  0
 19 20  3  0
 20 21  1  0
 21 22  2  0
 22 23  1  0
 23 24  1  0
 23 25  2  0
 25 26  1  0
 25 27  1  0
 27 28  2  0
 28 21  1  0
 27 29  1  0
 28 30  1  0
 12 22  1  0
M  ISO  8  13  14  14  14  15   8  16   8  17   8  18   3  24  15  26  16
M  END
>  <DihAtoms>  (1) 
9,11,21,20

>  <DihDeg>  (1) 
0.0003048917121495367

$$$$
