REMARK  Name = 
REMARK  5 active torsions:
REMARK  status: ('A' for Active; 'I' for Inactive)
REMARK    1  A    between atoms: C_12  and  C_13
REMARK    2  A    between atoms: C_13  and  C_14
REMARK    3  A    between atoms: C_15  and  C_16
REMARK    4  A    between atoms: C_16  and  C_37
REMARK    5  A    between atoms: C_35  and  C_36
REMARK                            x       y       z     vdW  Elec       q    Type
REMARK                         _______ _______ _______ _____ _____    ______ ____
ROOT
ATOM      1  C   UNL     1      44.992  34.646  44.933  0.00  0.00    +0.000 A 
ATOM      2  C   UNL     1      45.902  34.599  43.838  0.00  0.00    +0.000 A 
ATOM      3  C   UNL     1      47.015  33.745  43.953  0.00  0.00    +0.000 A 
ATOM      4  N   UNL     1      47.163  33.018  45.087  0.00  0.00    +0.000 NA
ATOM      5  C   UNL     1      46.290  33.081  46.106  0.00  0.00    +0.000 A 
ATOM      6  N   UNL     1      45.222  33.893  46.010  0.00  0.00    +0.000 NA
ATOM      7  N   UNL     1      46.512  32.298  47.246  0.00  0.00    +0.000 N 
ATOM      8  C   UNL     1      47.726  32.450  47.996  0.00  0.00    +0.000 C 
ATOM      9  C   UNL     1      48.013  31.304  48.917  0.00  0.00    +0.000 C 
ATOM     10  N   UNL     1      46.879  30.661  49.483  0.00  0.00    +0.000 NA
ATOM     11  C   UNL     1      45.625  31.282  49.151  0.00  0.00    +0.000 C 
ATOM     12  C   UNL     1      45.496  31.338  47.650  0.00  0.00    +0.000 C 
ATOM     13  H   UNL     1      44.140  35.303  44.840  0.00  0.00    +0.000 HD
ATOM     14  H   UNL     1      45.793  35.167  42.943  0.00  0.00    +0.000 HD
ATOM     15  H   UNL     1      47.750  33.662  43.149  0.00  0.00    +0.000 HD
ATOM     16  H   UNL     1      47.765  33.427  48.550  0.00  0.00    +0.000 HD
ATOM     17  H   UNL     1      48.561  32.496  47.261  0.00  0.00    +0.000 HD
ATOM     18  H   UNL     1      48.661  30.536  48.443  0.00  0.00    +0.000 HD
ATOM     19  H   UNL     1      48.612  31.720  49.771  0.00  0.00    +0.000 HD
ATOM     20  H   UNL     1      46.872  29.637  49.496  0.00  0.00    +0.000 HD
ATOM     21  H   UNL     1      44.812  30.669  49.586  0.00  0.00    +0.000 HD
ATOM     22  H   UNL     1      45.584  32.307  49.538  0.00  0.00    +0.000 HD
ATOM     23  H   UNL     1      44.508  31.780  47.415  0.00  0.00    +0.000 HD
ENDROOT
BRANCH  12  24
ATOM     24  C   UNL     1      45.700  30.001  47.017  0.00  0.00    +0.000 C 
ATOM     25  H   UNL     1      45.408  30.045  45.955  0.00  0.00    +0.000 HD
ATOM     26  H   UNL     1      46.762  29.712  47.180  0.00  0.00    +0.000 HD
BRANCH  24  27
ATOM     27  C   UNL     1      44.862  29.004  47.785  0.00  0.00    +0.000 C 
ATOM     28  C   UNL     1      45.143  27.718  47.773  0.00  0.00    +0.000 C 
BRANCH  28  29
ATOM     29  C   UNL     1      44.364  26.672  48.502  0.00  0.00    +0.000 C 
ATOM     30  H   UNL     1      43.496  27.079  49.036  0.00  0.00    +0.000 HD
ATOM     31  H   UNL     1      45.041  26.094  49.166  0.00  0.00    +0.000 HD
BRANCH  29  33
ATOM     32  C   UNL     1      44.528  25.457  46.275  0.00  0.00    +0.000 A 
ATOM     33  C   UNL     1      43.867  25.734  47.457  0.00  0.00    +0.000 A 
ATOM     34  C   UNL     1      42.650  25.068  47.649  0.00  0.00    +0.000 A 
ATOM     35  H   UNL     1      42.130  25.287  48.581  0.00  0.00    +0.000 HD
ATOM     36  C   UNL     1      42.078  24.175  46.764  0.00  0.00    +0.000 A 
ATOM     37  H   UNL     1      41.137  23.730  47.031  0.00  0.00    +0.000 HD
ATOM     38  C   UNL     1      42.769  23.928  45.599  0.00  0.00    +0.000 A 
ATOM     39  C   UNL     1      43.965  24.558  45.367  0.00  0.00    +0.000 A 
BRANCH  32  41
ATOM     40  N   UNL     1      46.781  26.631  45.836  0.00  0.00    +0.000 NA
ATOM     41  C   UNL     1      45.766  26.109  46.032  0.00  0.00    +0.000 C 
ENDBRANCH  32  41
ENDBRANCH  29  33
ENDBRANCH  28  29
ENDBRANCH  24  27
ENDBRANCH  12  24
TORSDOF 5
