
     RDKit          3D

 36 37  0  0  0  0  0  0  0  0999 V2000
   44.7646   34.9504   43.6346 C   0  0  0  0  0  0  0  0  0  0  0  0
   45.6652   35.5131   42.7220 C   0  0  0  0  0  0  0  0  0  0  0  0
   46.9845   35.0797   42.7172 C   0  0  0  0  0  0  0  0  0  0  0  0
   47.3043   34.1335   43.6085 N   0  0  0  0  0  0  0  0  0  0  0  0
   46.4395   33.5971   44.4827 C   0  0  0  0  0  0  0  0  0  0  0  0
   45.1590   34.0074   44.4967 N   0  0  0  0  0  0  0  0  0  0  0  0
   46.8932   32.5627   45.4251 C   0  0  0  0  0  0  0  0  0  0  0  0
   46.7112   32.6788   46.7189 C   0  0  0  0  0  0  0  0  0  0  0  0
   47.1765   31.6368   47.6402 C   0  0  0  0  0  0  0  0  0  0  0  0
   45.3613   30.6410   48.8026 C   0  0  0  0  0  0  0  0  0  0  0  0
   45.2499   31.4864   49.7217 O   0  0  0  0  0  0  0  0  0  0  0  0
   46.2450   30.5402   47.7051 N   0  0  0  0  0  0  0  0  0  0  0  0
   47.9687   35.5454   41.8824 O   0  0  0  0  0  0  0  0  0  0  0  0
   48.1947   34.8132   40.6794 C   0  0  0  0  0  0  0  0  0  0  0  0
   46.9677   34.3973   40.1541 F   0  0  0  0  0  0  0  0  0  0  0  0
   48.8095   35.6695   39.7625 F   0  0  0  0  0  0  0  0  0  0  0  0
   49.0432   33.7395   40.8962 F   0  0  0  0  0  0  0  0  0  0  0  0
   43.7461   35.3201   43.5954 H   0  0  0  0  0  0  0  0  0  0  0  0
   45.4328   36.2798   41.9931 H   0  0  0  0  0  0  0  0  0  0  0  0
   47.3910   31.7037   44.9668 H   0  0  0  0  0  0  0  0  0  0  0  0
   46.2217   33.5383   47.1347 H   0  0  0  0  0  0  0  0  0  0  0  0
   47.5443   31.9937   48.6079 H   0  0  0  0  0  0  0  0  0  0  0  0
   48.1006   31.1886   47.1560 H   0  0  0  0  0  0  0  0  0  0  0  0
   46.2085   29.7495   47.0306 H   0  0  0  0  0  0  0  0  0  0  0  0
   46.0330   28.2580   46.2020 N   0  0  0  0  0  0  0  0  0  0  0  0
   45.2446   28.3353   47.0432 C   0  0  0  0  0  0  0  0  0  0  0  0
   44.2767   28.4241   48.0861 C   0  0  0  0  0  0  0  0  0  0  0  0
   44.3672   29.5345   48.8946 C   0  0  0  0  0  0  0  0  0  0  0  0
   43.4867   29.7502   49.9523 C   0  0  0  0  0  0  0  0  0  0  0  0
   43.5054   30.6055   50.6246 H   0  0  0  0  0  0  0  0  0  0  0  0
   42.4905   28.8318   50.2068 C   0  0  0  0  0  0  0  0  0  0  0  0
   41.7798   28.9758   51.0309 H   0  0  0  0  0  0  0  0  0  0  0  0
   42.4165   27.7234   49.3840 C   0  0  0  0  0  0  0  0  0  0  0  0
   43.2898   27.4967   48.3259 C   0  0  0  0  0  0  0  0  0  0  0  0
   41.6201   27.0001   49.5892 H   0  0  0  0  0  0  0  0  0  0  0  0
   43.2386   26.6413   47.6864 H   0  0  0  0  0  0  0  0  0  0  0  0
  1  6  2  0
  2  1  1  0
  3  2  2  0
  3  4  1  0
  4  5  2  0
  5  6  1  0
  5  7  1  0
  7  8  2  0
  8  9  1  0
  9 12  1  0
 10 11  2  0
 12 10  1  0
 13  3  1  0
 14 17  1  0
 14 13  1  0
 15 14  1  0
 16 14  1  0
  1 18  1  0
  2 19  1  0
  7 20  1  0
  8 21  1  0
  9 22  1  0
  9 23  1  0
 12 24  1  0
 25 26  3  0
 26 27  1  0
 27 28  2  0
 28 29  1  0
 29 30  1  0
 29 31  2  0
 31 32  1  0
 31 33  1  0
 33 34  2  0
 34 27  1  0
 33 35  1  0
 34 36  1  0
 10 28  1  0
M  ISO  6  18  14  19  14  22   8  23   8  30  15  32  16
M  END
>  <DihAtoms>  (1) 
10,9,27,26

>  <DihDeg>  (1) 
78.81786196672195

$$$$
