
 OpenBabel03252507233D

 48 51  0  0  1  0  0  0  0  0999 V2000
   38.7040   28.8130   40.1880 C   0  0  0  0  0  0  0  0  0  0  0  0
   39.0700   28.2030   39.1160 O   0  0  0  0  0  0  0  0  0  0  0  0
   38.2950   28.1430   41.4000 N   0  0  0  0  0  0  0  0  0  0  0  0
   38.6110   28.4320   42.7780 C   0  0  0  0  0  0  0  0  0  0  0  0
   37.2960   28.5140   43.5670 C   0  0  0  0  0  0  0  0  0  0  0  0
   36.6020   27.1820   43.5610 C   0  0  0  0  0  0  0  0  0  0  0  0
   37.2110   26.2940   42.5000 C   0  0  0  0  0  0  0  0  0  0  0  0
   37.3930   27.0140   41.1870 C   0  0  2  0  0  0  0  0  0  0  0  0
   39.0980   29.4420   42.8760 H   0  0  0  0  0  0  0  0  0  0  0  0
   39.2180   27.6490   43.2670 H   0  0  0  0  0  0  0  0  0  0  0  0
   36.6730   29.3100   43.0900 H   0  0  0  0  0  0  0  0  0  0  0  0
   37.5640   28.8060   44.6010 H   0  0  0  0  0  0  0  0  0  0  0  0
   35.5530   27.3680   43.2460 H   0  0  0  0  0  0  0  0  0  0  0  0
   36.6930   26.6780   44.5300 H   0  0  0  0  0  0  0  0  0  0  0  0
   36.6300   25.3800   42.3250 H   0  0  0  0  0  0  0  0  0  0  0  0
   38.2040   25.9190   42.9000 H   0  0  0  0  0  0  0  0  0  0  0  0
   36.4250   27.4460   40.9120 H   0  0  0  0  0  0  0  0  0  0  0  0
   39.8720   30.9140   40.5820 C   0  0  0  0  0  0  0  0  0  0  0  0
   38.7080   30.2450   40.1600 C   0  0  0  0  0  0  0  0  0  0  0  0
   37.6100   30.9790   39.7390 C   0  0  0  0  0  0  0  0  0  0  0  0
   37.7160   32.3250   39.7530 N   0  0  0  0  0  0  0  0  0  0  0  0
   38.8170   32.9890   40.1510 C   0  0  0  0  0  0  0  0  0  0  0  0
   39.8910   32.2620   40.5660 N   0  0  0  0  0  0  0  0  0  0  0  0
   40.7400   30.3600   40.9190 H   0  0  0  0  0  0  0  0  0  0  0  0
   38.8640   34.0780   40.1550 H   0  0  0  0  0  0  0  0  0  0  0  0
   36.4210   30.2650   39.3070 C   0  0  0  0  0  0  0  0  0  0  0  0
   35.4990   29.8610   40.2260 C   0  0  0  0  0  0  0  0  0  0  0  0
   34.3900   29.1890   39.7810 C   0  0  0  0  0  0  0  0  0  0  0  0
   34.1590   28.9000   38.4450 C   0  0  0  0  0  0  0  0  0  0  0  0
   35.1330   29.3360   37.5630 C   0  0  0  0  0  0  0  0  0  0  0  0
   36.2030   29.9880   38.0230 N   0  0  0  0  0  0  0  0  0  0  0  0
   35.5530   30.0210   41.2900 H   0  0  0  0  0  0  0  0  0  0  0  0
   33.6280   28.8530   40.5030 H   0  0  0  0  0  0  0  0  0  0  0  0
   33.2790   28.3690   38.1190 H   0  0  0  0  0  0  0  0  0  0  0  0
   34.9740   29.1270   36.5160 H   0  0  0  0  0  0  0  0  0  0  0  0
   37.7940   26.0740   40.1250 C   0  0  0  0  0  0  0  0  0  0  0  0
   38.3390   26.7870   39.4100 H   0  0  0  0  0  0  0  0  0  0  0  0
   38.6930   25.4260   40.3820 H   0  0  0  0  0  0  0  0  0  0  0  0
   36.7420   23.9850   39.2910 C   0  0  0  0  0  0  0  0  0  0  0  0
   36.8250   25.3980   39.2960 C   0  0  0  0  0  0  0  0  0  0  0  0
   35.9030   25.8920   38.3680 C   0  0  0  0  0  0  0  0  0  0  0  0
   35.8770   26.9610   38.2200 H   0  0  0  0  0  0  0  0  0  0  0  0
   35.0480   25.2330   37.5710 C   0  0  0  0  0  0  0  0  0  0  0  0
   34.3800   25.7670   36.8870 H   0  0  0  0  0  0  0  0  0  0  0  0
   35.0100   23.8630   37.6100 C   0  0  0  0  0  3  0  0  0  0  0  0
   35.8730   23.2400   38.4850 C   0  0  0  0  0  3  0  0  0  0  0  0
   38.2950   22.6440   40.9350 N   0  0  0  0  0  0  0  0  0  0  0  0
   37.5900   23.2420   40.2020 C   0  0  0  0  0  0  0  0  0  0  0  0
  1  3  1  0  0  0  0
  2  1  2  0  0  0  0
  3  4  1  0  0  0  0
  4  9  1  0  0  0  0
  4 10  1  0  0  0  0
  4  5  1  0  0  0  0
  5 12  1  0  0  0  0
  6  5  1  0  0  0  0
  6 14  1  0  0  0  0
  7 16  1  0  0  0  0
  7  6  1  0  0  0  0
  8 17  1  6  0  0  0
  8  3  1  0  0  0  0
  8  7  1  0  0  0  0
 11  5  1  0  0  0  0
 13  6  1  0  0  0  0
 15  7  1  0  0  0  0
 18 24  1  0  0  0  0
 19  1  1  0  0  0  0
 19 18  2  0  0  0  0
 20 21  2  0  0  0  0
 20 19  1  0  0  0  0
 21 22  1  0  0  0  0
 22 25  1  0  0  0  0
 22 23  2  0  0  0  0
 23 18  1  0  0  0  0
 26 20  1  0  0  0  0
 26 27  1  0  0  0  0
 27 32  1  0  0  0  0
 28 27  2  0  0  0  0
 28 33  1  0  0  0  0
 29 28  1  0  0  0  0
 30 31  1  0  0  0  0
 30 29  2  0  0  0  0
 31 26  2  0  0  0  0
 34 29  1  0  0  0  0
 35 30  1  0  0  0  0
 36 38  1  0  0  0  0
 36  8  1  0  0  0  0
 37 36  1  0  0  0  0
 39 40  1  0  0  0  0
 39 48  1  0  0  0  0
 40 36  1  0  0  0  0
 41 40  2  0  0  0  0
 42 41  1  0  0  0  0
 43 45  2  0  0  0  0
 43 41  1  0  0  0  0
 44 43  1  0  0  0  0
 45 46  1  0  0  0  0
 46 39  2  0  0  0  0
 48 47  3  0  0  0  0
M  END
>  <minimizedAffinity>
-6.107831

$$$$

 OpenBabel03252507233D

 48 51  0  0  1  0  0  0  0  0999 V2000
   37.7090   27.3370   39.5330 C   0  0  0  0  0  0  0  0  0  0  0  0
   38.3400   27.9360   38.5850 O   0  0  0  0  0  0  0  0  0  0  0  0
   37.4240   27.9330   40.8160 N   0  0  0  0  0  0  0  0  0  0  0  0
   36.2230   27.8950   41.6170 C   0  0  0  0  0  0  0  0  0  0  0  0
   36.6010   27.4390   43.0320 C   0  0  0  0  0  0  0  0  0  0  0  0
   37.5100   28.4450   43.6780 C   0  0  0  0  0  0  0  0  0  0  0  0
   38.0540   29.3890   42.6300 C   0  0  0  0  0  0  0  0  0  0  0  0
   38.5460   28.6590   41.4040 C   0  0  2  0  0  0  0  0  0  0  0  0
   35.5010   27.1280   41.2220 H   0  0  0  0  0  0  0  0  0  0  0  0
   35.7350   28.8810   41.7270 H   0  0  0  0  0  0  0  0  0  0  0  0
   37.0890   26.4380   42.9380 H   0  0  0  0  0  0  0  0  0  0  0  0
   35.6550   27.3520   43.6010 H   0  0  0  0  0  0  0  0  0  0  0  0
   38.3840   27.8830   44.0730 H   0  0  0  0  0  0  0  0  0  0  0  0
   36.9810   29.0360   44.4360 H   0  0  0  0  0  0  0  0  0  0  0  0
   38.8610   30.0280   43.0100 H   0  0  0  0  0  0  0  0  0  0  0  0
   37.2260   30.1160   42.3650 H   0  0  0  0  0  0  0  0  0  0  0  0
   39.2590   27.8980   41.7400 H   0  0  0  0  0  0  0  0  0  0  0  0
   36.1460   25.8110   38.4540 C   0  0  0  0  0  0  0  0  0  0  0  0
   37.2700   25.9970   39.2820 C   0  0  0  0  0  0  0  0  0  0  0  0
   37.9100   24.8950   39.8280 C   0  0  0  0  0  0  0  0  0  0  0  0
   37.4140   23.6750   39.5300 N   0  0  0  0  0  0  0  0  0  0  0  0
   36.3420   23.4700   38.7430 C   0  0  0  0  0  0  0  0  0  0  0  0
   35.7170   24.5560   38.2110 N   0  0  0  0  0  0  0  0  0  0  0  0
   35.6290   26.6580   38.0200 H   0  0  0  0  0  0  0  0  0  0  0  0
   35.9660   22.4690   38.5290 H   0  0  0  0  0  0  0  0  0  0  0  0
   39.0670   25.1130   40.6780 C   0  0  0  0  0  0  0  0  0  0  0  0
   38.9680   24.9250   42.0240 C   0  0  0  0  0  0  0  0  0  0  0  0
   40.0810   25.1410   42.7930 C   0  0  0  0  0  0  0  0  0  0  0  0
   41.3010   25.5440   42.2730 C   0  0  0  0  0  0  0  0  0  0  0  0
   41.3360   25.7200   40.9000 C   0  0  0  0  0  0  0  0  0  0  0  0
   40.2370   25.5010   40.1740 N   0  0  0  0  0  0  0  0  0  0  0  0
   38.0850   24.6130   42.5560 H   0  0  0  0  0  0  0  0  0  0  0  0
   40.0290   24.9930   43.8840 H   0  0  0  0  0  0  0  0  0  0  0  0
   42.1640   25.7090   42.9000 H   0  0  0  0  0  0  0  0  0  0  0  0
   42.2760   26.0280   40.4700 H   0  0  0  0  0  0  0  0  0  0  0  0
   39.2510   29.5790   40.4950 C   0  0  0  0  0  0  0  0  0  0  0  0
   40.2230   29.7490   41.0820 H   0  0  0  0  0  0  0  0  0  0  0  0
   39.7250   29.0790   39.5900 H   0  0  0  0  0  0  0  0  0  0  0  0
   39.4350   32.0460   40.7180 C   0  0  0  0  0  0  0  0  0  0  0  0
   38.7590   30.9080   40.2170 C   0  0  0  0  0  0  0  0  0  0  0  0
   37.6170   31.3440   39.5390 C   0  0  0  0  0  0  0  0  0  0  0  0
   36.9640   30.5850   39.1350 H   0  0  0  0  0  0  0  0  0  0  0  0
   37.1560   32.5890   39.3420 C   0  0  0  0  0  0  0  0  0  0  0  0
   36.2330   32.7730   38.7840 H   0  0  0  0  0  0  0  0  0  0  0  0
   37.8540   33.6540   39.8490 C   0  0  0  0  0  3  0  0  0  0  0  0
   39.0080   33.3680   40.5460 C   0  0  0  0  0  3  0  0  0  0  0  0
   41.6870   31.7020   42.0340 N   0  0  0  0  0  0  0  0  0  0  0  0
   40.6780   31.8470   41.4390 C   0  0  0  0  0  0  0  0  0  0  0  0
  1  3  1  0  0  0  0
  2  1  2  0  0  0  0
  3  8  1  0  0  0  0
  3  4  1  0  0  0  0
  4 10  1  0  0  0  0
  4  5  1  0  0  0  0
  5 12  1  0  0  0  0
  5  6  1  0  0  0  0
  6 13  1  0  0  0  0
  6 14  1  0  0  0  0
  7 15  1  0  0  0  0
  7  6  1  0  0  0  0
  8 17  1  1  0  0  0
  8  7  1  0  0  0  0
  9  4  1  0  0  0  0
 11  5  1  0  0  0  0
 16  7  1  0  0  0  0
 18 19  1  0  0  0  0
 19  1  1  0  0  0  0
 19 20  2  0  0  0  0
 20 26  1  0  0  0  0
 21 20  1  0  0  0  0
 22 21  2  0  0  0  0
 23 18  2  0  0  0  0
 23 22  1  0  0  0  0
 24 18  1  0  0  0  0
 25 22  1  0  0  0  0
 26 27  1  0  0  0  0
 27 32  1  0  0  0  0
 27 28  2  0  0  0  0
 28 33  1  0  0  0  0
 29 28  1  0  0  0  0
 29 34  1  0  0  0  0
 30 29  2  0  0  0  0
 31 26  2  0  0  0  0
 31 30  1  0  0  0  0
 35 30  1  0  0  0  0
 36 37  1  0  0  0  0
 36  8  1  0  0  0  0
 38 36  1  0  0  0  0
 39 48  1  0  0  0  0
 40 36  1  0  0  0  0
 40 39  2  0  0  0  0
 41 40  1  0  0  0  0
 42 41  1  0  0  0  0
 43 41  2  0  0  0  0
 43 45  1  0  0  0  0
 44 43  1  0  0  0  0
 45 46  2  0  0  0  0
 46 39  1  0  0  0  0
 48 47  3  0  0  0  0
M  END
>  <minimizedAffinity>
-5.81485271

$$$$

 OpenBabel03252507233D

 48 51  0  0  1  0  0  0  0  0999 V2000
   39.4730   29.3360   39.9760 C   0  0  0  0  0  0  0  0  0  0  0  0
   39.4810   28.2580   39.2740 O   0  0  0  0  0  0  0  0  0  0  0  0
   38.5190   30.4050   39.8060 N   0  0  0  0  0  0  0  0  0  0  0  0
   37.8090   31.1880   40.7900 C   0  0  0  0  0  0  0  0  0  0  0  0
   38.0230   32.6730   40.4710 C   0  0  0  0  0  0  0  0  0  0  0  0
   37.4160   33.0130   39.1410 C   0  0  0  0  0  0  0  0  0  0  0  0
   37.1120   31.7430   38.3790 C   0  0  0  0  0  0  0  0  0  0  0  0
   38.2620   30.7660   38.4150 C   0  0  2  0  0  0  0  0  0  0  0  0
   38.2350   31.0230   41.8190 H   0  0  0  0  0  0  0  0  0  0  0  0
   36.7160   31.0220   40.7820 H   0  0  0  0  0  0  0  0  0  0  0  0
   39.1250   32.8590   40.4850 H   0  0  0  0  0  0  0  0  0  0  0  0
   37.5280   33.2460   41.2790 H   0  0  0  0  0  0  0  0  0  0  0  0
   38.1970   33.5460   38.5570 H   0  0  0  0  0  0  0  0  0  0  0  0
   36.4840   33.5780   39.2570 H   0  0  0  0  0  0  0  0  0  0  0  0
   36.8390   31.9290   37.3320 H   0  0  0  0  0  0  0  0  0  0  0  0
   36.1780   31.2890   38.8330 H   0  0  0  0  0  0  0  0  0  0  0  0
   39.1560   31.2980   38.0690 H   0  0  0  0  0  0  0  0  0  0  0  0
   41.6410   30.2060   40.6710 C   0  0  0  0  0  0  0  0  0  0  0  0
   40.4830   29.4680   40.9840 C   0  0  0  0  0  0  0  0  0  0  0  0
   40.3550   28.8920   42.2390 C   0  0  0  0  0  0  0  0  0  0  0  0
   41.3660   29.0750   43.1150 N   0  0  0  0  0  0  0  0  0  0  0  0
   42.4820   29.7750   42.8410 C   0  0  0  0  0  0  0  0  0  0  0  0
   42.6030   30.3360   41.6060 N   0  0  0  0  0  0  0  0  0  0  0  0
   41.7630   30.6600   39.6950 H   0  0  0  0  0  0  0  0  0  0  0  0
   43.2820   29.8970   43.5730 H   0  0  0  0  0  0  0  0  0  0  0  0
   39.1520   28.1360   42.5380 C   0  0  0  0  0  0  0  0  0  0  0  0
   38.1470   28.7120   43.2550 C   0  0  0  0  0  0  0  0  0  0  0  0
   37.0270   27.9660   43.5180 C   0  0  0  0  0  0  0  0  0  0  0  0
   36.8660   26.6570   43.0930 C   0  0  0  0  0  0  0  0  0  0  0  0
   37.9230   26.1300   42.3710 C   0  0  0  0  0  0  0  0  0  0  0  0
   39.0010   26.8770   42.1280 N   0  0  0  0  0  0  0  0  0  0  0  0
   38.1420   29.7170   43.6430 H   0  0  0  0  0  0  0  0  0  0  0  0
   36.1990   28.4090   44.0950 H   0  0  0  0  0  0  0  0  0  0  0  0
   35.9750   26.0900   43.3140 H   0  0  0  0  0  0  0  0  0  0  0  0
   37.8190   25.1130   42.0250 H   0  0  0  0  0  0  0  0  0  0  0  0
   38.0180   29.6360   37.5020 C   0  0  0  0  0  0  0  0  0  0  0  0
   38.7950   29.8540   36.6870 H   0  0  0  0  0  0  0  0  0  0  0  0
   38.4580   28.6450   37.8470 H   0  0  0  0  0  0  0  0  0  0  0  0
   35.6850   28.7950   37.3690 C   0  0  0  0  0  0  0  0  0  0  0  0
   36.7740   29.4860   36.7850 C   0  0  0  0  0  0  0  0  0  0  0  0
   36.4040   29.8690   35.4930 C   0  0  0  0  0  0  0  0  0  0  0  0
   37.1490   30.3700   34.8940 H   0  0  0  0  0  0  0  0  0  0  0  0
   35.2520   29.6680   34.8330 C   0  0  0  0  0  0  0  0  0  0  0  0
   35.1120   30.0320   33.8100 H   0  0  0  0  0  0  0  0  0  0  0  0
   34.2310   28.9940   35.4490 C   0  0  0  0  0  3  0  0  0  0  0  0
   34.4600   28.5540   36.7350 C   0  0  0  0  0  3  0  0  0  0  0  0
   35.9490   27.9280   39.8390 N   0  0  0  0  0  0  0  0  0  0  0  0
   35.8210   28.3210   38.7320 C   0  0  0  0  0  0  0  0  0  0  0  0
  1 19  1  0  0  0  0
  2  1  2  0  0  0  0
  3  1  1  0  0  0  0
  3  4  1  0  0  0  0
  4  9  1  0  0  0  0
  5 11  1  0  0  0  0
  5  4  1  0  0  0  0
  5 12  1  0  0  0  0
  6 14  1  0  0  0  0
  6  5  1  0  0  0  0
  7  8  1  0  0  0  0
  7 16  1  0  0  0  0
  7  6  1  0  0  0  0
  8 17  1  6  0  0  0
  8  3  1  0  0  0  0
 10  4  1  0  0  0  0
 13  6  1  0  0  0  0
 15  7  1  0  0  0  0
 18 19  2  0  0  0  0
 18 23  1  0  0  0  0
 19 20  1  0  0  0  0
 20 26  1  0  0  0  0
 20 21  2  0  0  0  0
 22 21  1  0  0  0  0
 22 25  1  0  0  0  0
 23 22  2  0  0  0  0
 24 18  1  0  0  0  0
 26 27  1  0  0  0  0
 27 28  2  0  0  0  0
 27 32  1  0  0  0  0
 28 33  1  0  0  0  0
 29 34  1  0  0  0  0
 29 28  1  0  0  0  0
 30 29  2  0  0  0  0
 31 30  1  0  0  0  0
 31 26  2  0  0  0  0
 35 30  1  0  0  0  0
 36 38  1  0  0  0  0
 36  8  1  0  0  0  0
 37 36  1  0  0  0  0
 39 48  1  0  0  0  0
 40 39  1  0  0  0  0
 40 36  1  0  0  0  0
 41 40  2  0  0  0  0
 42 41  1  0  0  0  0
 43 45  2  0  0  0  0
 43 41  1  0  0  0  0
 44 43  1  0  0  0  0
 45 46  1  0  0  0  0
 46 39  2  0  0  0  0
 48 47  3  0  0  0  0
M  END
>  <minimizedAffinity>
-5.68837309

$$$$

 OpenBabel03252507233D

 48 51  0  0  1  0  0  0  0  0999 V2000
   39.8320   29.0500   39.8100 C   0  0  0  0  0  0  0  0  0  0  0  0
   39.3930   28.3290   38.8390 O   0  0  0  0  0  0  0  0  0  0  0  0
   40.7720   28.5840   40.8020 N   0  0  0  0  0  0  0  0  0  0  0  0
   41.9200   29.2420   41.3800 C   0  0  0  0  0  0  0  0  0  0  0  0
   41.8010   29.1650   42.9080 C   0  0  0  0  0  0  0  0  0  0  0  0
   41.8560   27.7350   43.3630 C   0  0  0  0  0  0  0  0  0  0  0  0
   41.6480   26.8150   42.1820 C   0  0  0  0  0  0  0  0  0  0  0  0
   40.4900   27.2480   41.3180 C   0  0  2  0  0  0  0  0  0  0  0  0
   41.9290   30.3370   41.1210 H   0  0  0  0  0  0  0  0  0  0  0  0
   42.8820   28.7630   41.1180 H   0  0  0  0  0  0  0  0  0  0  0  0
   40.8350   29.6540   43.1900 H   0  0  0  0  0  0  0  0  0  0  0  0
   42.6540   29.7360   43.3230 H   0  0  0  0  0  0  0  0  0  0  0  0
   40.9870   27.5770   44.0370 H   0  0  0  0  0  0  0  0  0  0  0  0
   42.8240   27.4970   43.8220 H   0  0  0  0  0  0  0  0  0  0  0  0
   41.4970   25.7690   42.4780 H   0  0  0  0  0  0  0  0  0  0  0  0
   42.6140   26.7980   41.5890 H   0  0  0  0  0  0  0  0  0  0  0  0
   39.6150   27.3520   41.9690 H   0  0  0  0  0  0  0  0  0  0  0  0
   39.9420   31.3710   39.0800 C   0  0  0  0  0  0  0  0  0  0  0  0
   39.3460   30.3940   39.8990 C   0  0  0  0  0  0  0  0  0  0  0  0
   38.3210   30.7550   40.7610 C   0  0  0  0  0  0  0  0  0  0  0  0
   37.9390   32.0500   40.7690 N   0  0  0  0  0  0  0  0  0  0  0  0
   38.4920   33.0030   39.9970 C   0  0  0  0  0  0  0  0  0  0  0  0
   39.4990   32.6420   39.1530 N   0  0  0  0  0  0  0  0  0  0  0  0
   40.7470   31.1120   38.4020 H   0  0  0  0  0  0  0  0  0  0  0  0
   38.1620   34.0410   40.0340 H   0  0  0  0  0  0  0  0  0  0  0  0
   37.7220   29.7290   41.5960 C   0  0  0  0  0  0  0  0  0  0  0  0
   36.7470   28.9220   41.0890 C   0  0  0  0  0  0  0  0  0  0  0  0
   36.2050   27.9660   41.9080 C   0  0  0  0  0  0  0  0  0  0  0  0
   36.5950   27.7790   43.2240 C   0  0  0  0  0  0  0  0  0  0  0  0
   37.5860   28.6310   43.6800 C   0  0  0  0  0  0  0  0  0  0  0  0
   38.0990   29.5530   42.8610 N   0  0  0  0  0  0  0  0  0  0  0  0
   36.3540   28.9590   40.0870 H   0  0  0  0  0  0  0  0  0  0  0  0
   35.4170   27.2990   41.5210 H   0  0  0  0  0  0  0  0  0  0  0  0
   36.1510   27.0200   43.8500 H   0  0  0  0  0  0  0  0  0  0  0  0
   37.9110   28.5020   44.7010 H   0  0  0  0  0  0  0  0  0  0  0  0
   40.1850   26.2270   40.3000 C   0  0  0  0  0  0  0  0  0  0  0  0
   40.3280   26.8400   39.3400 H   0  0  0  0  0  0  0  0  0  0  0  0
   41.0240   25.4820   40.1120 H   0  0  0  0  0  0  0  0  0  0  0  0
   38.4030   24.6970   41.1060 C   0  0  0  0  0  0  0  0  0  0  0  0
   38.8700   25.6480   40.1670 C   0  0  0  0  0  0  0  0  0  0  0  0
   37.8900   25.8030   39.1810 C   0  0  0  0  0  0  0  0  0  0  0  0
   38.1170   26.4660   38.3610 H   0  0  0  0  0  0  0  0  0  0  0  0
   36.6930   25.2080   39.0570 C   0  0  0  0  0  0  0  0  0  0  0  0
   36.0290   25.4360   38.2170 H   0  0  0  0  0  0  0  0  0  0  0  0
   36.2930   24.2960   39.9980 C   0  0  0  0  0  3  0  0  0  0  0  0
   37.1670   24.0430   41.0330 C   0  0  0  0  0  3  0  0  0  0  0  0
   39.9190   24.1530   43.1850 N   0  0  0  0  0  0  0  0  0  0  0  0
   39.2410   24.3880   42.2480 C   0  0  0  0  0  0  0  0  0  0  0  0
  1 19  1  0  0  0  0
  1  3  1  0  0  0  0
  2  1  2  0  0  0  0
  3  8  1  0  0  0  0
  3  4  1  0  0  0  0
  4  5  1  0  0  0  0
  5 11  1  0  0  0  0
  5 12  1  0  0  0  0
  5  6  1  0  0  0  0
  6 14  1  0  0  0  0
  6 13  1  0  0  0  0
  7 15  1  0  0  0  0
  7  6  1  0  0  0  0
  8 17  1  1  0  0  0
  8  7  1  0  0  0  0
  9  4  1  0  0  0  0
 10  4  1  0  0  0  0
 16  7  1  0  0  0  0
 18 23  2  0  0  0  0
 18 19  1  0  0  0  0
 19 20  2  0  0  0  0
 20 21  1  0  0  0  0
 20 26  1  0  0  0  0
 22 25  1  0  0  0  0
 22 21  2  0  0  0  0
 23 22  1  0  0  0  0
 24 18  1  0  0  0  0
 26 31  1  0  0  0  0
 27 26  2  0  0  0  0
 27 28  1  0  0  0  0
 28 29  2  0  0  0  0
 29 30  1  0  0  0  0
 29 34  1  0  0  0  0
 30 35  1  0  0  0  0
 31 30  2  0  0  0  0
 32 27  1  0  0  0  0
 33 28  1  0  0  0  0
 36  8  1  0  0  0  0
 37 36  1  0  0  0  0
 38 36  1  0  0  0  0
 39 48  1  0  0  0  0
 40 36  1  0  0  0  0
 40 39  2  0  0  0  0
 41 40  1  0  0  0  0
 42 41  1  0  0  0  0
 43 41  2  0  0  0  0
 43 45  1  0  0  0  0
 44 43  1  0  0  0  0
 45 46  2  0  0  0  0
 46 39  1  0  0  0  0
 48 47  3  0  0  0  0
M  END
>  <minimizedAffinity>
-5.68012285

$$$$

 OpenBabel03252507233D

 48 51  0  0  1  0  0  0  0  0999 V2000
   38.9890   30.5280   41.2790 C   0  0  0  0  0  0  0  0  0  0  0  0
   39.7280   30.0020   42.1920 O   0  0  0  0  0  0  0  0  0  0  0  0
   37.5990   30.1960   41.0730 N   0  0  0  0  0  0  0  0  0  0  0  0
   36.4680   31.0490   40.7930 C   0  0  0  0  0  0  0  0  0  0  0  0
   35.7470   30.5010   39.5540 C   0  0  0  0  0  0  0  0  0  0  0  0
   35.1900   29.1360   39.8370 C   0  0  0  0  0  0  0  0  0  0  0  0
   35.8100   28.5830   41.0990 C   0  0  0  0  0  0  0  0  0  0  0  0
   37.3080   28.7670   41.1280 C   0  0  2  0  0  0  0  0  0  0  0  0
   36.8050   32.0890   40.5260 H   0  0  0  0  0  0  0  0  0  0  0  0
   35.7190   31.0700   41.6050 H   0  0  0  0  0  0  0  0  0  0  0  0
   36.4910   30.4820   38.7190 H   0  0  0  0  0  0  0  0  0  0  0  0
   34.9300   31.2120   39.3220 H   0  0  0  0  0  0  0  0  0  0  0  0
   35.5250   28.4740   39.0100 H   0  0  0  0  0  0  0  0  0  0  0  0
   34.1020   29.1660   39.9700 H   0  0  0  0  0  0  0  0  0  0  0  0
   35.5810   27.5210   41.2570 H   0  0  0  0  0  0  0  0  0  0  0  0
   35.3190   29.1050   41.9770 H   0  0  0  0  0  0  0  0  0  0  0  0
   37.7090   28.3390   40.2020 H   0  0  0  0  0  0  0  0  0  0  0  0
   39.7800   32.8040   40.9190 C   0  0  0  0  0  0  0  0  0  0  0  0
   39.6000   31.4990   40.4210 C   0  0  0  0  0  0  0  0  0  0  0  0
   40.0090   31.1940   39.1320 C   0  0  0  0  0  0  0  0  0  0  0  0
   40.5720   32.1830   38.4060 N   0  0  0  0  0  0  0  0  0  0  0  0
   40.7560   33.4380   38.8570 C   0  0  0  0  0  0  0  0  0  0  0  0
   40.3500   33.7310   40.1240 N   0  0  0  0  0  0  0  0  0  0  0  0
   39.4640   33.0640   41.9220 H   0  0  0  0  0  0  0  0  0  0  0  0
   41.2090   34.2130   38.2390 H   0  0  0  0  0  0  0  0  0  0  0  0
   39.8130   29.8410   38.6420 C   0  0  0  0  0  0  0  0  0  0  0  0
   38.8110   29.5760   37.7570 C   0  0  0  0  0  0  0  0  0  0  0  0
   38.6570   28.2870   37.3190 C   0  0  0  0  0  0  0  0  0  0  0  0
   39.4660   27.2390   37.7290 C   0  0  0  0  0  0  0  0  0  0  0  0
   40.4640   27.5740   38.6290 C   0  0  0  0  0  0  0  0  0  0  0  0
   40.5930   28.8370   39.0400 N   0  0  0  0  0  0  0  0  0  0  0  0
   38.1140   30.2930   37.3570 H   0  0  0  0  0  0  0  0  0  0  0  0
   37.8560   28.0460   36.6010 H   0  0  0  0  0  0  0  0  0  0  0  0
   39.3240   26.2320   37.3700 H   0  0  0  0  0  0  0  0  0  0  0  0
   41.1110   26.7760   38.9610 H   0  0  0  0  0  0  0  0  0  0  0  0
   37.9030   28.0420   42.2640 C   0  0  0  0  0  0  0  0  0  0  0  0
   38.9920   28.3970   42.1920 H   0  0  0  0  0  0  0  0  0  0  0  0
   37.6800   28.4950   43.2830 H   0  0  0  0  0  0  0  0  0  0  0  0
   39.1700   25.9610   42.7450 C   0  0  0  0  0  0  0  0  0  0  0  0
   37.9930   26.6010   42.2910 C   0  0  0  0  0  0  0  0  0  0  0  0
   37.0950   25.6150   41.8700 C   0  0  0  0  0  0  0  0  0  0  0  0
   36.1590   25.9470   41.4490 H   0  0  0  0  0  0  0  0  0  0  0  0
   37.2290   24.2790   41.8590 C   0  0  0  0  0  0  0  0  0  0  0  0
   36.4270   23.6300   41.4920 H   0  0  0  0  0  0  0  0  0  0  0  0
   38.3920   23.7140   42.3130 C   0  0  0  0  0  3  0  0  0  0  0  0
   39.3710   24.5750   42.7600 C   0  0  0  0  0  3  0  0  0  0  0  0
   41.1190   27.4650   43.6720 N   0  0  0  0  0  0  0  0  0  0  0  0
   40.2450   26.7840   43.2640 C   0  0  0  0  0  0  0  0  0  0  0  0
  1  2  2  0  0  0  0
  3  8  1  0  0  0  0
  3  1  1  0  0  0  0
  4  3  1  0  0  0  0
  4 10  1  0  0  0  0
  5  6  1  0  0  0  0
  5  4  1  0  0  0  0
  6 14  1  0  0  0  0
  6  7  1  0  0  0  0
  7  8  1  0  0  0  0
  7 15  1  0  0  0  0
  7 16  1  0  0  0  0
  8 17  1  6  0  0  0
  8 36  1  0  0  0  0
  9  4  1  0  0  0  0
 11  5  1  0  0  0  0
 12  5  1  0  0  0  0
 13  6  1  0  0  0  0
 18 24  1  0  0  0  0
 19 18  1  0  0  0  0
 19  1  1  0  0  0  0
 20 19  2  0  0  0  0
 21 22  2  0  0  0  0
 21 20  1  0  0  0  0
 22 23  1  0  0  0  0
 23 18  2  0  0  0  0
 25 22  1  0  0  0  0
 26 31  1  0  0  0  0
 26 20  1  0  0  0  0
 27 26  2  0  0  0  0
 28 29  2  0  0  0  0
 28 27  1  0  0  0  0
 29 30  1  0  0  0  0
 30 35  1  0  0  0  0
 30 31  2  0  0  0  0
 32 27  1  0  0  0  0
 33 28  1  0  0  0  0
 34 29  1  0  0  0  0
 36 40  1  0  0  0  0
 36 38  1  0  0  0  0
 37 36  1  0  0  0  0
 39 46  1  0  0  0  0
 39 48  1  0  0  0  0
 40 39  2  0  0  0  0
 41 40  1  0  0  0  0
 42 41  1  0  0  0  0
 43 41  2  0  0  0  0
 43 45  1  0  0  0  0
 44 43  1  0  0  0  0
 45 46  2  0  0  0  0
 48 47  3  0  0  0  0
M  END
>  <minimizedAffinity>
-5.67960691

$$$$

 OpenBabel03252507233D

 48 51  0  0  1  0  0  0  0  0999 V2000
   37.6710   27.4780   39.5270 C   0  0  0  0  0  0  0  0  0  0  0  0
   38.2810   28.0750   38.5650 O   0  0  0  0  0  0  0  0  0  0  0  0
   37.4240   28.0710   40.8200 N   0  0  0  0  0  0  0  0  0  0  0  0
   36.2440   28.0380   41.6510 C   0  0  0  0  0  0  0  0  0  0  0  0
   36.6570   27.5750   43.0550 C   0  0  0  0  0  0  0  0  0  0  0  0
   37.5890   28.5730   43.6800 C   0  0  0  0  0  0  0  0  0  0  0  0
   38.1100   29.5170   42.6200 C   0  0  0  0  0  0  0  0  0  0  0  0
   38.5660   28.7880   41.3800 C   0  0  2  0  0  0  0  0  0  0  0  0
   35.5070   27.2760   41.2740 H   0  0  0  0  0  0  0  0  0  0  0  0
   35.7650   29.0260   41.7770 H   0  0  0  0  0  0  0  0  0  0  0  0
   37.1360   26.5710   42.9450 H   0  0  0  0  0  0  0  0  0  0  0  0
   35.7250   27.4920   43.6490 H   0  0  0  0  0  0  0  0  0  0  0  0
   38.4690   28.0050   44.0500 H   0  0  0  0  0  0  0  0  0  0  0  0
   37.0840   29.1650   44.4530 H   0  0  0  0  0  0  0  0  0  0  0  0
   38.9320   30.1500   42.9800 H   0  0  0  0  0  0  0  0  0  0  0  0
   37.2800   30.2510   42.3790 H   0  0  0  0  0  0  0  0  0  0  0  0
   39.2820   28.0210   41.6940 H   0  0  0  0  0  0  0  0  0  0  0  0
   37.8770   25.0860   39.9440 C   0  0  0  0  0  0  0  0  0  0  0  0
   37.2170   26.1410   39.2840 C   0  0  0  0  0  0  0  0  0  0  0  0
   36.1640   25.8620   38.4260 C   0  0  0  0  0  0  0  0  0  0  0  0
   35.8170   24.5670   38.2660 N   0  0  0  0  0  0  0  0  0  0  0  0
   36.4300   23.5410   38.8840 C   0  0  0  0  0  0  0  0  0  0  0  0
   37.4650   23.8210   39.7240 N   0  0  0  0  0  0  0  0  0  0  0  0
   38.7040   25.2820   40.6150 H   0  0  0  0  0  0  0  0  0  0  0  0
   36.1250   22.5060   38.7250 H   0  0  0  0  0  0  0  0  0  0  0  0
   35.5000   26.9670   37.7580 C   0  0  0  0  0  0  0  0  0  0  0  0
   35.7150   27.1880   36.4310 C   0  0  0  0  0  0  0  0  0  0  0  0
   35.0710   28.2420   35.8360 C   0  0  0  0  0  0  0  0  0  0  0  0
   34.2150   29.0940   36.5150 C   0  0  0  0  0  0  0  0  0  0  0  0
   34.0400   28.8170   37.8600 C   0  0  0  0  0  0  0  0  0  0  0  0
   34.6790   27.7840   38.4150 N   0  0  0  0  0  0  0  0  0  0  0  0
   36.3510   26.6040   35.7870 H   0  0  0  0  0  0  0  0  0  0  0  0
   35.2260   28.4410   34.7630 H   0  0  0  0  0  0  0  0  0  0  0  0
   33.7200   29.9170   36.0240 H   0  0  0  0  0  0  0  0  0  0  0  0
   33.3740   29.4630   38.4100 H   0  0  0  0  0  0  0  0  0  0  0  0
   39.2530   29.7070   40.4550 C   0  0  0  0  0  0  0  0  0  0  0  0
   40.2400   29.8700   41.0170 H   0  0  0  0  0  0  0  0  0  0  0  0
   39.6990   29.2060   39.5370 H   0  0  0  0  0  0  0  0  0  0  0  0
   39.4610   32.1720   40.6730 C   0  0  0  0  0  0  0  0  0  0  0  0
   38.7610   31.0390   40.1940 C   0  0  0  0  0  0  0  0  0  0  0  0
   37.6000   31.4830   39.5530 C   0  0  0  0  0  0  0  0  0  0  0  0
   36.9290   30.7290   39.1700 H   0  0  0  0  0  0  0  0  0  0  0  0
   37.1430   32.7310   39.3710 C   0  0  0  0  0  0  0  0  0  0  0  0
   36.2020   32.9220   38.8430 H   0  0  0  0  0  0  0  0  0  0  0  0
   37.8640   33.7910   39.8550 C   0  0  0  0  0  3  0  0  0  0  0  0
   39.0380   33.4970   40.5150 C   0  0  0  0  0  3  0  0  0  0  0  0
   41.7450   31.7820   41.9170 N   0  0  0  0  0  0  0  0  0  0  0  0
   40.7240   31.9640   41.3530 C   0  0  0  0  0  0  0  0  0  0  0  0
  1  3  1  0  0  0  0
  2  1  2  0  0  0  0
  3  8  1  0  0  0  0
  3  4  1  0  0  0  0
  4 10  1  0  0  0  0
  4  5  1  0  0  0  0
  5 12  1  0  0  0  0
  5  6  1  0  0  0  0
  6 13  1  0  0  0  0
  6 14  1  0  0  0  0
  7 15  1  0  0  0  0
  7  6  1  0  0  0  0
  8 17  1  1  0  0  0
  8  7  1  0  0  0  0
  9  4  1  0  0  0  0
 11  5  1  0  0  0  0
 16  7  1  0  0  0  0
 18 24  1  0  0  0  0
 19  1  1  0  0  0  0
 19 18  2  0  0  0  0
 20 19  1  0  0  0  0
 21 20  2  0  0  0  0
 21 22  1  0  0  0  0
 22 23  2  0  0  0  0
 23 18  1  0  0  0  0
 25 22  1  0  0  0  0
 26 31  1  0  0  0  0
 26 20  1  0  0  0  0
 27 26  2  0  0  0  0
 28 27  1  0  0  0  0
 28 29  2  0  0  0  0
 29 30  1  0  0  0  0
 30 35  1  0  0  0  0
 30 31  2  0  0  0  0
 32 27  1  0  0  0  0
 33 28  1  0  0  0  0
 34 29  1  0  0  0  0
 36 37  1  0  0  0  0
 36  8  1  0  0  0  0
 38 36  1  0  0  0  0
 39 48  1  0  0  0  0
 40 36  1  0  0  0  0
 40 39  2  0  0  0  0
 41 40  1  0  0  0  0
 42 41  1  0  0  0  0
 43 41  2  0  0  0  0
 43 45  1  0  0  0  0
 44 43  1  0  0  0  0
 45 46  2  0  0  0  0
 46 39  1  0  0  0  0
 48 47  3  0  0  0  0
M  END
>  <minimizedAffinity>
-5.6352458

$$$$

 OpenBabel03252507233D

 48 51  0  0  1  0  0  0  0  0999 V2000
   37.4270   30.2560   40.7310 C   0  0  0  0  0  0  0  0  0  0  0  0
   37.3220   29.9760   41.9820 O   0  0  0  0  0  0  0  0  0  0  0  0
   36.9170   29.4200   39.6700 N   0  0  0  0  0  0  0  0  0  0  0  0
   36.2130   29.7740   38.4600 C   0  0  0  0  0  0  0  0  0  0  0  0
   36.9330   29.1190   37.2740 C   0  0  0  0  0  0  0  0  0  0  0  0
   36.8640   27.6230   37.3840 C   0  0  0  0  0  0  0  0  0  0  0  0
   36.4380   27.2330   38.7810 C   0  0  0  0  0  0  0  0  0  0  0  0
   37.1910   27.9970   39.8420 C   0  0  2  0  0  0  0  0  0  0  0  0
   36.2550   30.8830   38.2800 H   0  0  0  0  0  0  0  0  0  0  0  0
   35.1700   29.4060   38.4330 H   0  0  0  0  0  0  0  0  0  0  0  0
   37.9880   29.4880   37.2830 H   0  0  0  0  0  0  0  0  0  0  0  0
   36.4150   29.4630   36.3580 H   0  0  0  0  0  0  0  0  0  0  0  0
   37.9000   27.2420   37.2580 H   0  0  0  0  0  0  0  0  0  0  0  0
   36.1450   27.2010   36.6720 H   0  0  0  0  0  0  0  0  0  0  0  0
   36.5450   26.1580   38.9750 H   0  0  0  0  0  0  0  0  0  0  0  0
   35.3220   27.4190   38.8610 H   0  0  0  0  0  0  0  0  0  0  0  0
   38.2610   27.8660   39.6440 H   0  0  0  0  0  0  0  0  0  0  0  0
   37.3240   32.6510   40.2970 C   0  0  0  0  0  0  0  0  0  0  0  0
   38.0940   31.4760   40.3860 C   0  0  0  0  0  0  0  0  0  0  0  0
   39.4570   31.5290   40.1390 C   0  0  0  0  0  0  0  0  0  0  0  0
   39.9870   32.7290   39.8190 N   0  0  0  0  0  0  0  0  0  0  0  0
   39.2740   33.8670   39.7280 C   0  0  0  0  0  0  0  0  0  0  0  0
   37.9350   33.8080   39.9700 N   0  0  0  0  0  0  0  0  0  0  0  0
   36.2570   32.6320   40.4830 H   0  0  0  0  0  0  0  0  0  0  0  0
   39.7360   34.8180   39.4610 H   0  0  0  0  0  0  0  0  0  0  0  0
   40.2300   30.3030   40.2380 C   0  0  0  0  0  0  0  0  0  0  0  0
   40.8700   29.9950   41.4010 C   0  0  0  0  0  0  0  0  0  0  0  0
   41.5900   28.8300   41.4550 C   0  0  0  0  0  0  0  0  0  0  0  0
   41.7020   27.9510   40.3890 C   0  0  0  0  0  0  0  0  0  0  0  0
   41.0310   28.3230   39.2370 C   0  0  0  0  0  0  0  0  0  0  0  0
   40.3360   29.4620   39.2100 N   0  0  0  0  0  0  0  0  0  0  0  0
   40.8650   30.5850   42.3010 H   0  0  0  0  0  0  0  0  0  0  0  0
   42.1160   28.5560   42.3850 H   0  0  0  0  0  0  0  0  0  0  0  0
   42.2770   27.0410   40.4560 H   0  0  0  0  0  0  0  0  0  0  0  0
   41.0980   27.6530   38.3940 H   0  0  0  0  0  0  0  0  0  0  0  0
   36.9030   27.4540   41.1820 C   0  0  0  0  0  0  0  0  0  0  0  0
   36.7650   28.4260   41.7760 H   0  0  0  0  0  0  0  0  0  0  0  0
   35.8450   27.0610   41.3150 H   0  0  0  0  0  0  0  0  0  0  0  0
   37.8990   25.2930   41.8940 C   0  0  0  0  0  0  0  0  0  0  0  0
   37.8850   26.7080   41.9320 C   0  0  0  0  0  0  0  0  0  0  0  0
   38.8850   27.1290   42.8140 C   0  0  0  0  0  0  0  0  0  0  0  0
   38.9730   28.1900   42.9900 H   0  0  0  0  0  0  0  0  0  0  0  0
   39.7520   26.4050   43.5400 C   0  0  0  0  0  0  0  0  0  0  0  0
   40.4850   26.8860   44.1960 H   0  0  0  0  0  0  0  0  0  0  0  0
   39.7200   25.0370   43.4620 C   0  0  0  0  0  3  0  0  0  0  0  0
   38.7760   24.4830   42.6250 C   0  0  0  0  0  3  0  0  0  0  0  0
   36.2020   24.0540   40.3110 N   0  0  0  0  0  0  0  0  0  0  0  0
   36.9620   24.6190   41.0160 C   0  0  0  0  0  0  0  0  0  0  0  0
  1  2  2  0  0  0  0
  3  8  1  0  0  0  0
  3  1  1  0  0  0  0
  4  3  1  0  0  0  0
  5 11  1  0  0  0  0
  5  6  1  0  0  0  0
  5  4  1  0  0  0  0
  6  7  1  0  0  0  0
  7 16  1  0  0  0  0
  7 15  1  0  0  0  0
  7  8  1  0  0  0  0
  8 17  1  6  0  0  0
  8 36  1  0  0  0  0
  9  4  1  0  0  0  0
 10  4  1  0  0  0  0
 12  5  1  0  0  0  0
 13  6  1  0  0  0  0
 14  6  1  0  0  0  0
 18 19  1  0  0  0  0
 18 24  1  0  0  0  0
 19  1  1  0  0  0  0
 20 26  1  0  0  0  0
 20 19  2  0  0  0  0
 21 20  1  0  0  0  0
 22 21  2  0  0  0  0
 22 23  1  0  0  0  0
 23 18  2  0  0  0  0
 25 22  1  0  0  0  0
 26 27  1  0  0  0  0
 27 28  2  0  0  0  0
 27 32  1  0  0  0  0
 28 33  1  0  0  0  0
 29 34  1  0  0  0  0
 29 28  1  0  0  0  0
 30 29  2  0  0  0  0
 31 30  1  0  0  0  0
 31 26  2  0  0  0  0
 35 30  1  0  0  0  0
 36 38  1  0  0  0  0
 36 37  1  0  0  0  0
 36 40  1  0  0  0  0
 39 40  2  0  0  0  0
 39 46  1  0  0  0  0
 40 41  1  0  0  0  0
 41 42  1  0  0  0  0
 41 43  2  0  0  0  0
 43 44  1  0  0  0  0
 45 43  1  0  0  0  0
 46 45  2  0  0  0  0
 47 48  3  0  0  0  0
 48 39  1  0  0  0  0
M  END
>  <minimizedAffinity>
-5.62105799

$$$$

 OpenBabel03252507233D

 48 51  0  0  1  0  0  0  0  0999 V2000
   37.2480   30.3920   39.4330 C   0  0  0  0  0  0  0  0  0  0  0  0
   36.1170   29.9870   39.8920 O   0  0  0  0  0  0  0  0  0  0  0  0
   38.0570   29.6410   38.5020 N   0  0  0  0  0  0  0  0  0  0  0  0
   38.7880   30.0800   37.3360 C   0  0  0  0  0  0  0  0  0  0  0  0
   40.2320   29.5750   37.4540 C   0  0  0  0  0  0  0  0  0  0  0  0
   40.2620   28.0740   37.4340 C   0  0  0  0  0  0  0  0  0  0  0  0
   38.8710   27.5320   37.6690 C   0  0  0  0  0  0  0  0  0  0  0  0
   38.1760   28.2210   38.8180 C   0  0  2  0  0  0  0  0  0  0  0  0
   38.8500   31.2030   37.2990 H   0  0  0  0  0  0  0  0  0  0  0  0
   38.3920   29.6720   36.3880 H   0  0  0  0  0  0  0  0  0  0  0  0
   40.6500   29.9870   38.4050 H   0  0  0  0  0  0  0  0  0  0  0  0
   40.7830   29.9840   36.5850 H   0  0  0  0  0  0  0  0  0  0  0  0
   40.8720   27.7520   38.3060 H   0  0  0  0  0  0  0  0  0  0  0  0
   40.6250   27.6920   36.4720 H   0  0  0  0  0  0  0  0  0  0  0  0
   38.8600   26.4490   37.8470 H   0  0  0  0  0  0  0  0  0  0  0  0
   38.2880   27.6610   36.7050 H   0  0  0  0  0  0  0  0  0  0  0  0
   38.8380   28.1570   39.6880 H   0  0  0  0  0  0  0  0  0  0  0  0
   37.2070   32.8220   39.2610 C   0  0  0  0  0  0  0  0  0  0  0  0
   37.7190   31.6670   39.8840 C   0  0  0  0  0  0  0  0  0  0  0  0
   38.6560   31.7930   40.8980 C   0  0  0  0  0  0  0  0  0  0  0  0
   39.0350   33.0410   41.2470 N   0  0  0  0  0  0  0  0  0  0  0  0
   38.5610   34.1600   40.6680 C   0  0  0  0  0  0  0  0  0  0  0  0
   37.6430   34.0300   39.6710 N   0  0  0  0  0  0  0  0  0  0  0  0
   36.4780   32.7460   38.4640 H   0  0  0  0  0  0  0  0  0  0  0  0
   38.8950   35.1530   40.9720 H   0  0  0  0  0  0  0  0  0  0  0  0
   39.1680   30.5870   41.5250 C   0  0  0  0  0  0  0  0  0  0  0  0
   40.3790   30.0870   41.1500 C   0  0  0  0  0  0  0  0  0  0  0  0
   40.8280   28.9470   41.7630 C   0  0  0  0  0  0  0  0  0  0  0  0
   40.1140   28.2750   42.7430 C   0  0  0  0  0  0  0  0  0  0  0  0
   38.8920   28.8330   43.0780 C   0  0  0  0  0  0  0  0  0  0  0  0
   38.4780   29.9440   42.4660 N   0  0  0  0  0  0  0  0  0  0  0  0
   41.0340   30.5080   40.4060 H   0  0  0  0  0  0  0  0  0  0  0  0
   41.8060   28.5230   41.4800 H   0  0  0  0  0  0  0  0  0  0  0  0
   40.4890   27.3790   43.2110 H   0  0  0  0  0  0  0  0  0  0  0  0
   38.3190   28.3310   43.8430 H   0  0  0  0  0  0  0  0  0  0  0  0
   36.9130   27.5390   39.1510 C   0  0  0  0  0  0  0  0  0  0  0  0
   36.3750   28.3670   39.7350 H   0  0  0  0  0  0  0  0  0  0  0  0
   36.1700   27.4730   38.2920 H   0  0  0  0  0  0  0  0  0  0  0  0
   36.4130   25.1400   39.5540 C   0  0  0  0  0  0  0  0  0  0  0  0
   36.8710   26.3930   40.0280 C   0  0  0  0  0  0  0  0  0  0  0  0
   37.1630   26.2630   41.3890 C   0  0  0  0  0  0  0  0  0  0  0  0
   37.4830   27.1520   41.9110 H   0  0  0  0  0  0  0  0  0  0  0  0
   37.0640   25.1920   42.1920 C   0  0  0  0  0  0  0  0  0  0  0  0
   37.3320   25.2480   43.2520 H   0  0  0  0  0  0  0  0  0  0  0  0
   36.6160   24.0030   41.6780 C   0  0  0  0  0  3  0  0  0  0  0  0
   36.2880   23.9870   40.3390 C   0  0  0  0  0  3  0  0  0  0  0  0
   35.8150   24.9130   37.0030 N   0  0  0  0  0  0  0  0  0  0  0  0
   36.0740   25.0160   38.1500 C   0  0  0  0  0  0  0  0  0  0  0  0
  1 19  1  0  0  0  0
  1  2  2  0  0  0  0
  3  8  1  0  0  0  0
  3  1  1  0  0  0  0
  4  5  1  0  0  0  0
  4  3  1  0  0  0  0
  5 11  1  0  0  0  0
  6  5  1  0  0  0  0
  6  7  1  0  0  0  0
  6 13  1  0  0  0  0
  7 15  1  0  0  0  0
  7  8  1  0  0  0  0
  8 36  1  0  0  0  0
  8 17  1  1  0  0  0
  9  4  1  0  0  0  0
 10  4  1  0  0  0  0
 12  5  1  0  0  0  0
 14  6  1  0  0  0  0
 16  7  1  0  0  0  0
 18 23  2  0  0  0  0
 18 19  1  0  0  0  0
 19 20  2  0  0  0  0
 20 21  1  0  0  0  0
 20 26  1  0  0  0  0
 22 25  1  0  0  0  0
 22 21  2  0  0  0  0
 23 22  1  0  0  0  0
 24 18  1  0  0  0  0
 26 31  1  0  0  0  0
 27 26  2  0  0  0  0
 27 28  1  0  0  0  0
 28 29  2  0  0  0  0
 29 30  1  0  0  0  0
 29 34  1  0  0  0  0
 30 35  1  0  0  0  0
 31 30  2  0  0  0  0
 32 27  1  0  0  0  0
 33 28  1  0  0  0  0
 36 37  1  0  0  0  0
 36 40  1  0  0  0  0
 38 36  1  0  0  0  0
 39 40  2  0  0  0  0
 39 46  1  0  0  0  0
 40 41  1  0  0  0  0
 41 42  1  0  0  0  0
 41 43  2  0  0  0  0
 43 44  1  0  0  0  0
 45 43  1  0  0  0  0
 46 45  2  0  0  0  0
 47 48  3  0  0  0  0
 48 39  1  0  0  0  0
M  END
>  <minimizedAffinity>
-5.56481123

$$$$

 OpenBabel03252507233D

 48 51  0  0  1  0  0  0  0  0999 V2000
   39.4100   30.1770   39.9920 C   0  0  0  0  0  0  0  0  0  0  0  0
   39.9880   29.7680   38.9180 O   0  0  0  0  0  0  0  0  0  0  0  0
   39.2050   29.3570   41.1620 N   0  0  0  0  0  0  0  0  0  0  0  0
   39.3660   29.6730   42.5620 C   0  0  0  0  0  0  0  0  0  0  0  0
   38.0730   29.2870   43.2950 C   0  0  0  0  0  0  0  0  0  0  0  0
   37.8540   27.8030   43.2160 C   0  0  0  0  0  0  0  0  0  0  0  0
   38.7530   27.2100   42.1560 C   0  0  0  0  0  0  0  0  0  0  0  0
   38.7300   28.0070   40.8750 C   0  0  2  0  0  0  0  0  0  0  0  0
   39.4930   30.7810   42.7120 H   0  0  0  0  0  0  0  0  0  0  0  0
   40.1810   29.1090   43.0510 H   0  0  0  0  0  0  0  0  0  0  0  0
   37.2390   29.8560   42.8160 H   0  0  0  0  0  0  0  0  0  0  0  0
   38.1990   29.6040   44.3480 H   0  0  0  0  0  0  0  0  0  0  0  0
   36.8120   27.6500   42.8620 H   0  0  0  0  0  0  0  0  0  0  0  0
   38.0750   27.3140   44.1720 H   0  0  0  0  0  0  0  0  0  0  0  0
   38.5080   26.1640   41.9260 H   0  0  0  0  0  0  0  0  0  0  0  0
   39.8000   27.1610   42.5860 H   0  0  0  0  0  0  0  0  0  0  0  0
   37.6820   28.1110   40.5720 H   0  0  0  0  0  0  0  0  0  0  0  0
   39.8720   32.5470   40.3110 C   0  0  0  0  0  0  0  0  0  0  0  0
   38.9450   31.5320   40.0090 C   0  0  0  0  0  0  0  0  0  0  0  0
   37.6250   31.8640   39.7450 C   0  0  0  0  0  0  0  0  0  0  0  0
   37.2900   33.1720   39.7900 N   0  0  0  0  0  0  0  0  0  0  0  0
   38.1560   34.1610   40.0750 C   0  0  0  0  0  0  0  0  0  0  0  0
   39.4500   33.8280   40.3350 N   0  0  0  0  0  0  0  0  0  0  0  0
   40.9070   32.3090   40.5240 H   0  0  0  0  0  0  0  0  0  0  0  0
   37.8480   35.2060   40.1080 H   0  0  0  0  0  0  0  0  0  0  0  0
   36.6880   30.7980   39.4360 C   0  0  0  0  0  0  0  0  0  0  0  0
   35.8920   30.2860   40.4170 C   0  0  0  0  0  0  0  0  0  0  0  0
   35.0210   29.2810   40.0870 C   0  0  0  0  0  0  0  0  0  0  0  0
   34.9090   28.7570   38.8090 C   0  0  0  0  0  0  0  0  0  0  0  0
   35.7460   29.3190   37.8590 C   0  0  0  0  0  0  0  0  0  0  0  0
   36.5840   30.2980   38.2070 N   0  0  0  0  0  0  0  0  0  0  0  0
   35.8760   30.6010   41.4470 H   0  0  0  0  0  0  0  0  0  0  0  0
   34.3650   28.8510   40.8610 H   0  0  0  0  0  0  0  0  0  0  0  0
   34.2170   27.9650   38.5740 H   0  0  0  0  0  0  0  0  0  0  0  0
   35.6740   28.9320   36.8540 H   0  0  0  0  0  0  0  0  0  0  0  0
   39.4490   27.2970   39.8030 C   0  0  0  0  0  0  0  0  0  0  0  0
   38.7890   26.3650   39.6900 H   0  0  0  0  0  0  0  0  0  0  0  0
   39.2740   27.7140   38.7590 H   0  0  0  0  0  0  0  0  0  0  0  0
   41.0380   25.3890   39.8660 C   0  0  0  0  0  0  0  0  0  0  0  0
   40.7820   26.7760   39.9900 C   0  0  0  0  0  0  0  0  0  0  0  0
   41.9740   27.4080   40.3560 C   0  0  0  0  0  0  0  0  0  0  0  0
   41.9340   28.4710   40.5360 H   0  0  0  0  0  0  0  0  0  0  0  0
   43.1920   26.8860   40.5740 C   0  0  0  0  0  0  0  0  0  0  0  0
   44.0390   27.5180   40.8600 H   0  0  0  0  0  0  0  0  0  0  0  0
   43.3810   25.5360   40.4380 C   0  0  0  0  0  3  0  0  0  0  0  0
   42.2830   24.7850   40.0790 C   0  0  0  0  0  3  0  0  0  0  0  0
   39.0570   23.8130   39.1510 N   0  0  0  0  0  0  0  0  0  0  0  0
   39.9490   24.5220   39.4620 C   0  0  0  0  0  0  0  0  0  0  0  0
  1 19  1  0  0  0  0
  1  3  1  0  0  0  0
  2  1  2  0  0  0  0
  3  4  1  0  0  0  0
  4  9  1  0  0  0  0
  4 10  1  0  0  0  0
  4  5  1  0  0  0  0
  5 12  1  0  0  0  0
  6  5  1  0  0  0  0
  6 14  1  0  0  0  0
  7 16  1  0  0  0  0
  7  6  1  0  0  0  0
  8 17  1  6  0  0  0
  8  3  1  0  0  0  0
  8  7  1  0  0  0  0
 11  5  1  0  0  0  0
 13  6  1  0  0  0  0
 15  7  1  0  0  0  0
 18 23  1  0  0  0  0
 18 24  1  0  0  0  0
 19 18  2  0  0  0  0
 20 21  2  0  0  0  0
 20 19  1  0  0  0  0
 21 22  1  0  0  0  0
 22 25  1  0  0  0  0
 22 23  2  0  0  0  0
 26 20  1  0  0  0  0
 26 27  1  0  0  0  0
 27 32  1  0  0  0  0
 28 27  2  0  0  0  0
 28 33  1  0  0  0  0
 29 28  1  0  0  0  0
 30 31  1  0  0  0  0
 30 29  2  0  0  0  0
 31 26  2  0  0  0  0
 34 29  1  0  0  0  0
 35 30  1  0  0  0  0
 36 40  1  0  0  0  0
 36  8  1  0  0  0  0
 37 36  1  0  0  0  0
 38 36  1  0  0  0  0
 39 40  2  0  0  0  0
 39 46  1  0  0  0  0
 40 41  1  0  0  0  0
 41 42  1  0  0  0  0
 41 43  2  0  0  0  0
 43 44  1  0  0  0  0
 45 43  1  0  0  0  0
 46 45  2  0  0  0  0
 47 48  3  0  0  0  0
 48 39  1  0  0  0  0
M  END
>  <minimizedAffinity>
-5.51073742

$$$$
