
 OpenBabel03242513063D

 36 39  0  0  0  0  0  0  0  0999 V2000
   37.7410   27.1950   39.9550 C   0  0  0  0  0  0  0  0  0  0  0  0
   37.4090   26.9890   41.2960 C   0  0  0  0  0  0  0  0  0  0  0  0
   37.7120   28.0200   42.1760 C   0  0  0  0  0  0  0  0  0  0  0  0
   38.3030   29.1440   41.6720 N   0  0  0  0  0  0  0  0  0  0  0  0
   38.6060   29.3050   40.3780 C   0  0  0  0  0  0  0  0  0  0  0  0
   38.3260   28.3250   39.5040 N   0  0  0  0  0  0  0  0  0  0  0  0
   37.5560   26.4950   39.1530 H   0  0  0  0  0  0  0  0  0  0  0  0
   39.9220   30.5870   38.7340 C   0  0  0  0  0  0  0  0  0  0  0  0
   39.2320   30.5380   39.9430 C   0  0  0  0  0  0  0  0  0  0  0  0
   39.1050   31.6380   40.7840 C   0  0  0  0  0  0  0  0  0  0  0  0
   39.6910   32.8500   40.4080 C   0  0  0  0  0  0  0  0  0  0  0  0
   39.7720   34.0970   40.9560 N   0  0  0  0  0  0  0  0  0  0  0  0
   40.5020   34.8780   40.0840 C   0  0  0  0  0  0  0  0  0  0  0  0
   40.8460   34.1020   39.0360 N   0  0  0  0  0  0  0  0  0  0  0  0
   40.3650   32.8620   39.2070 C   0  0  0  0  0  0  0  0  0  0  0  0
   40.5070   31.7910   38.3560 C   0  0  0  0  0  0  0  0  0  0  0  0
   39.9950   29.7030   38.1100 H   0  0  0  0  0  0  0  0  0  0  0  0
   38.5710   31.5930   41.7140 H   0  0  0  0  0  0  0  0  0  0  0  0
   39.3380   34.3510   41.8740 H   0  0  0  0  0  0  0  0  0  0  0  0
   40.7200   35.9220   40.2720 H   0  0  0  0  0  0  0  0  0  0  0  0
   41.0430   31.8450   37.4260 H   0  0  0  0  0  0  0  0  0  0  0  0
   37.3890   27.8710   43.6110 C   0  0  0  0  0  0  0  0  0  0  0  0
   37.3810   29.1140   44.2420 F   0  0  0  0  0  0  0  0  0  0  0  0
   36.1240   27.3640   43.7690 F   0  0  0  0  0  0  0  0  0  0  0  0
   38.3250   27.0670   44.1950 F   0  0  0  0  0  0  0  0  0  0  0  0
   36.8220   25.8260   41.6880 O   0  0  0  0  0  0  0  0  0  0  0  0
   38.1470   23.9050   41.2440 C   0  0  0  0  0  0  0  0  0  0  0  0
   37.0120   24.6720   40.9510 C   0  0  0  0  0  0  0  0  0  0  0  0
   36.1820   24.2040   39.9530 C   0  0  0  0  0  0  0  0  0  0  0  0
   35.3240   24.8450   39.7800 H   0  0  0  0  0  0  0  0  0  0  0  0
   36.4330   23.0390   39.2580 C   0  0  0  0  0  0  0  0  0  0  0  0
   35.7200   22.7590   38.4920 H   0  0  0  0  0  0  0  0  0  0  0  0
   37.5500   22.2800   39.5410 C   0  0  0  0  0  3  0  0  0  0  0  0
   38.3960   22.7260   40.5350 C   0  0  0  0  0  3  0  0  0  0  0  0
   39.8980   24.4650   43.0660 N   0  0  0  0  0  0  0  0  0  0  0  0
   39.1200   24.2200   42.2730 C   0  0  0  0  0  0  0  0  0  0  0  0
  1  2  1  0  0  0  0
  2 26  1  0  0  0  0
  2  3  2  0  0  0  0
  3 22  1  0  0  0  0
  4  3  1  0  0  0  0
  5  4  2  0  0  0  0
  6  1  2  0  0  0  0
  6  5  1  0  0  0  0
  7  1  1  0  0  0  0
  8  9  1  0  0  0  0
  9  5  1  0  0  0  0
  9 10  2  0  0  0  0
 10 18  1  0  0  0  0
 11 10  1  0  0  0  0
 11 12  1  0  0  0  0
 12 19  1  0  0  0  0
 13 20  1  0  0  0  0
 13 12  1  0  0  0  0
 14 15  1  0  0  0  0
 14 13  2  0  0  0  0
 15 11  2  0  0  0  0
 16  8  2  0  0  0  0
 16 15  1  0  0  0  0
 17  8  1  0  0  0  0
 21 16  1  0  0  0  0
 22 24  1  0  0  0  0
 22 25  1  0  0  0  0
 22 23  1  0  0  0  0
 27 36  1  0  0  0  0
 28 27  1  0  0  0  0
 28 26  1  0  0  0  0
 29 28  2  0  0  0  0
 30 29  1  0  0  0  0
 31 33  2  0  0  0  0
 31 29  1  0  0  0  0
 32 31  1  0  0  0  0
 33 34  1  0  0  0  0
 34 27  2  0  0  0  0
 36 35  3  0  0  0  0
M  END
>  <minimizedAffinity>
-6.40310287

$$$$

 OpenBabel03242513063D

 36 39  0  0  0  0  0  0  0  0999 V2000
   36.9080   27.6750   39.4390 C   0  0  0  0  0  0  0  0  0  0  0  0
   36.9420   27.0260   40.6750 C   0  0  0  0  0  0  0  0  0  0  0  0
   37.3160   27.7940   41.7700 C   0  0  0  0  0  0  0  0  0  0  0  0
   37.6200   29.1090   41.5600 N   0  0  0  0  0  0  0  0  0  0  0  0
   37.5760   29.6970   40.3580 C   0  0  0  0  0  0  0  0  0  0  0  0
   37.2180   28.9790   39.2810 N   0  0  0  0  0  0  0  0  0  0  0  0
   36.6240   27.2170   38.5020 H   0  0  0  0  0  0  0  0  0  0  0  0
   36.9910   32.0070   39.7280 C   0  0  0  0  0  0  0  0  0  0  0  0
   37.9160   31.1010   40.2410 C   0  0  0  0  0  0  0  0  0  0  0  0
   39.1880   31.4770   40.6600 C   0  0  0  0  0  0  0  0  0  0  0  0
   39.5610   32.8210   40.5670 C   0  0  0  0  0  0  0  0  0  0  0  0
   40.6840   33.5360   40.8700 N   0  0  0  0  0  0  0  0  0  0  0  0
   40.4280   34.8520   40.5410 C   0  0  0  0  0  0  0  0  0  0  0  0
   39.1740   34.9110   40.0510 N   0  0  0  0  0  0  0  0  0  0  0  0
   38.6230   33.6890   40.0550 C   0  0  0  0  0  0  0  0  0  0  0  0
   37.3580   33.3450   39.6340 C   0  0  0  0  0  0  0  0  0  0  0  0
   36.0090   31.6680   39.4130 H   0  0  0  0  0  0  0  0  0  0  0  0
   39.8960   30.7740   41.0550 H   0  0  0  0  0  0  0  0  0  0  0  0
   41.5480   33.1070   41.2760 H   0  0  0  0  0  0  0  0  0  0  0  0
   41.1550   35.6430   40.6790 H   0  0  0  0  0  0  0  0  0  0  0  0
   36.6560   34.0570   39.2400 H   0  0  0  0  0  0  0  0  0  0  0  0
   37.3730   27.1730   43.1110 C   0  0  0  0  0  0  0  0  0  0  0  0
   37.5950   28.1410   44.0890 F   0  0  0  0  0  0  0  0  0  0  0  0
   36.1690   26.5950   43.4240 F   0  0  0  0  0  0  0  0  0  0  0  0
   38.3860   26.2580   43.1330 F   0  0  0  0  0  0  0  0  0  0  0  0
   36.6200   25.7070   40.7690 O   0  0  0  0  0  0  0  0  0  0  0  0
   36.8750   23.5820   39.7390 C   0  0  0  0  0  0  0  0  0  0  0  0
   37.4650   24.7500   40.2390 C   0  0  0  0  0  0  0  0  0  0  0  0
   38.8390   24.8430   40.1530 C   0  0  0  0  0  0  0  0  0  0  0  0
   39.2270   25.7720   40.5570 H   0  0  0  0  0  0  0  0  0  0  0  0
   39.6220   23.8470   39.6080 C   0  0  0  0  0  0  0  0  0  0  0  0
   40.6920   24.0160   39.5880 H   0  0  0  0  0  0  0  0  0  0  0  0
   39.0470   22.6930   39.1150 C   0  0  0  0  0  3  0  0  0  0  0  0
   37.6750   22.5760   39.1870 C   0  0  0  0  0  3  0  0  0  0  0  0
   34.3350   23.0840   39.7000 N   0  0  0  0  0  0  0  0  0  0  0  0
   35.4490   23.3140   39.7180 C   0  0  0  0  0  0  0  0  0  0  0  0
  1  2  1  0  0  0  0
  2 26  1  0  0  0  0
  2  3  2  0  0  0  0
  3 22  1  0  0  0  0
  4  3  1  0  0  0  0
  5  4  2  0  0  0  0
  6  1  2  0  0  0  0
  6  5  1  0  0  0  0
  7  1  1  0  0  0  0
  8  9  1  0  0  0  0
  9  5  1  0  0  0  0
  9 10  2  0  0  0  0
 10 18  1  0  0  0  0
 11 10  1  0  0  0  0
 11 12  1  0  0  0  0
 12 19  1  0  0  0  0
 13 20  1  0  0  0  0
 13 12  1  0  0  0  0
 14 15  1  0  0  0  0
 14 13  2  0  0  0  0
 15 11  2  0  0  0  0
 16  8  2  0  0  0  0
 16 15  1  0  0  0  0
 17  8  1  0  0  0  0
 21 16  1  0  0  0  0
 22 25  1  0  0  0  0
 22 24  1  0  0  0  0
 22 23  1  0  0  0  0
 27 28  1  0  0  0  0
 28 26  1  0  0  0  0
 29 28  2  0  0  0  0
 29 30  1  0  0  0  0
 31 29  1  0  0  0  0
 32 31  1  0  0  0  0
 33 34  1  0  0  0  0
 33 31  2  0  0  0  0
 34 27  2  0  0  0  0
 35 36  3  0  0  0  0
 36 27  1  0  0  0  0
M  END
>  <minimizedAffinity>
-6.24487019

$$$$

 OpenBabel03242513063D

 36 39  0  0  0  0  0  0  0  0999 V2000
   38.9360   29.5590   38.9730 C   0  0  0  0  0  0  0  0  0  0  0  0
   38.8970   30.4880   40.0150 C   0  0  0  0  0  0  0  0  0  0  0  0
   39.9720   31.3620   40.1080 C   0  0  0  0  0  0  0  0  0  0  0  0
   40.9740   31.2500   39.1860 N   0  0  0  0  0  0  0  0  0  0  0  0
   40.9760   30.3450   38.2000 C   0  0  0  0  0  0  0  0  0  0  0  0
   39.9500   29.4870   38.0850 N   0  0  0  0  0  0  0  0  0  0  0  0
   38.1700   28.8260   38.7630 H   0  0  0  0  0  0  0  0  0  0  0  0
   42.1710   29.3010   36.3130 C   0  0  0  0  0  0  0  0  0  0  0  0
   42.0880   30.3100   37.2700 C   0  0  0  0  0  0  0  0  0  0  0  0
   43.0400   31.3160   37.3900 C   0  0  0  0  0  0  0  0  0  0  0  0
   44.1300   31.3240   36.5160 C   0  0  0  0  0  0  0  0  0  0  0  0
   45.2220   32.1230   36.3390 N   0  0  0  0  0  0  0  0  0  0  0  0
   45.9460   31.5960   35.2890 C   0  0  0  0  0  0  0  0  0  0  0  0
   45.2900   30.5020   34.8540 N   0  0  0  0  0  0  0  0  0  0  0  0
   44.1810   30.3130   35.5830 C   0  0  0  0  0  0  0  0  0  0  0  0
   43.2540   29.3060   35.4410 C   0  0  0  0  0  0  0  0  0  0  0  0
   41.4040   28.5360   36.2570 H   0  0  0  0  0  0  0  0  0  0  0  0
   42.9690   32.0910   38.1300 H   0  0  0  0  0  0  0  0  0  0  0  0
   45.4190   32.9680   36.9250 H   0  0  0  0  0  0  0  0  0  0  0  0
   46.8690   32.0370   34.9320 H   0  0  0  0  0  0  0  0  0  0  0  0
   43.3330   28.5350   34.6970 H   0  0  0  0  0  0  0  0  0  0  0  0
   39.9980   32.3730   41.1860 C   0  0  0  0  0  0  0  0  0  0  0  0
   38.8180   33.1150   41.1910 F   0  0  0  0  0  0  0  0  0  0  0  0
   40.0620   31.7640   42.4150 F   0  0  0  0  0  0  0  0  0  0  0  0
   41.0620   33.2060   40.9870 F   0  0  0  0  0  0  0  0  0  0  0  0
   37.8460   30.5090   40.8800 O   0  0  0  0  0  0  0  0  0  0  0  0
   36.4470   28.7260   41.5920 C   0  0  0  0  0  0  0  0  0  0  0  0
   37.6390   29.4480   41.7410 C   0  0  0  0  0  0  0  0  0  0  0  0
   38.5020   29.0310   42.7330 C   0  0  0  0  0  0  0  0  0  0  0  0
   39.4040   29.6330   42.7910 H   0  0  0  0  0  0  0  0  0  0  0  0
   38.2310   27.9590   43.5580 C   0  0  0  0  0  0  0  0  0  0  0  0
   38.9740   27.7120   44.3070 H   0  0  0  0  0  0  0  0  0  0  0  0
   37.0580   27.2450   43.4170 C   0  0  0  0  0  3  0  0  0  0  0  0
   36.1780   27.6400   42.4310 C   0  0  0  0  0  3  0  0  0  0  0  0
   34.6320   29.1890   39.8060 N   0  0  0  0  0  0  0  0  0  0  0  0
   35.4310   28.9970   40.5930 C   0  0  0  0  0  0  0  0  0  0  0  0
  1  2  1  0  0  0  0
  2  3  2  0  0  0  0
  2 26  1  0  0  0  0
  3 22  1  0  0  0  0
  4  3  1  0  0  0  0
  5  4  2  0  0  0  0
  6  5  1  0  0  0  0
  6  1  2  0  0  0  0
  7  1  1  0  0  0  0
  8  9  1  0  0  0  0
  9 10  2  0  0  0  0
  9  5  1  0  0  0  0
 10 18  1  0  0  0  0
 11 10  1  0  0  0  0
 12 11  1  0  0  0  0
 12 19  1  0  0  0  0
 13 12  1  0  0  0  0
 14 13  2  0  0  0  0
 14 15  1  0  0  0  0
 15 11  2  0  0  0  0
 16 15  1  0  0  0  0
 16  8  2  0  0  0  0
 17  8  1  0  0  0  0
 20 13  1  0  0  0  0
 21 16  1  0  0  0  0
 22 23  1  0  0  0  0
 22 24  1  0  0  0  0
 25 22  1  0  0  0  0
 26 28  1  0  0  0  0
 27 28  2  0  0  0  0
 27 34  1  0  0  0  0
 28 29  1  0  0  0  0
 29 30  1  0  0  0  0
 29 31  2  0  0  0  0
 31 32  1  0  0  0  0
 33 31  1  0  0  0  0
 34 33  2  0  0  0  0
 35 36  3  0  0  0  0
 36 27  1  0  0  0  0
M  END
>  <minimizedAffinity>
-6.09319735

$$$$

 OpenBabel03242513063D

 36 39  0  0  0  0  0  0  0  0999 V2000
   39.5560   28.7280   39.2600 C   0  0  0  0  0  0  0  0  0  0  0  0
   38.5640   29.6790   39.5100 C   0  0  0  0  0  0  0  0  0  0  0  0
   38.8650   30.9930   39.1740 C   0  0  0  0  0  0  0  0  0  0  0  0
   40.0920   31.2540   38.6320 N   0  0  0  0  0  0  0  0  0  0  0  0
   41.0180   30.3140   38.4080 C   0  0  0  0  0  0  0  0  0  0  0  0
   40.7550   29.0360   38.7230 N   0  0  0  0  0  0  0  0  0  0  0  0
   39.4650   27.6690   39.4530 H   0  0  0  0  0  0  0  0  0  0  0  0
   43.1380   31.5680   38.5040 C   0  0  0  0  0  0  0  0  0  0  0  0
   42.2900   30.6950   37.8270 C   0  0  0  0  0  0  0  0  0  0  0  0
   42.6020   30.1490   36.5860 C   0  0  0  0  0  0  0  0  0  0  0  0
   43.8190   30.4870   35.9850 C   0  0  0  0  0  0  0  0  0  0  0  0
   44.4440   30.1600   34.8170 N   0  0  0  0  0  0  0  0  0  0  0  0
   45.6490   30.8310   34.7990 C   0  0  0  0  0  0  0  0  0  0  0  0
   45.7330   31.5440   35.9410 N   0  0  0  0  0  0  0  0  0  0  0  0
   44.6320   31.3520   36.6810 C   0  0  0  0  0  0  0  0  0  0  0  0
   44.3490   31.9060   37.9090 C   0  0  0  0  0  0  0  0  0  0  0  0
   42.8520   31.9680   39.4700 H   0  0  0  0  0  0  0  0  0  0  0  0
   41.9440   29.4760   36.0700 H   0  0  0  0  0  0  0  0  0  0  0  0
   44.0320   29.5130   34.1050 H   0  0  0  0  0  0  0  0  0  0  0  0
   46.3530   30.7520   33.9800 H   0  0  0  0  0  0  0  0  0  0  0  0
   45.0150   32.5790   38.4180 H   0  0  0  0  0  0  0  0  0  0  0  0
   37.8620   32.0540   39.4090 C   0  0  0  0  0  0  0  0  0  0  0  0
   36.7100   31.8130   38.6620 F   0  0  0  0  0  0  0  0  0  0  0  0
   37.4620   32.0540   40.7220 F   0  0  0  0  0  0  0  0  0  0  0  0
   38.3980   33.2570   39.0510 F   0  0  0  0  0  0  0  0  0  0  0  0
   37.3740   29.3060   40.0550 O   0  0  0  0  0  0  0  0  0  0  0  0
   36.9880   27.3690   41.3750 C   0  0  0  0  0  0  0  0  0  0  0  0
   37.3420   28.7230   41.3080 C   0  0  0  0  0  0  0  0  0  0  0  0
   37.6310   29.3530   42.5010 C   0  0  0  0  0  0  0  0  0  0  0  0
   37.8980   30.3980   42.3760 H   0  0  0  0  0  0  0  0  0  0  0  0
   37.5800   28.7070   43.7190 C   0  0  0  0  0  0  0  0  0  0  0  0
   37.8250   29.2910   44.5980 H   0  0  0  0  0  0  0  0  0  0  0  0
   37.2300   27.3730   43.7910 C   0  0  0  0  0  3  0  0  0  0  0  0
   36.9380   26.7200   42.6120 C   0  0  0  0  0  3  0  0  0  0  0  0
   36.4450   25.8900   39.3220 N   0  0  0  0  0  0  0  0  0  0  0  0
   36.6750   26.5350   40.2300 C   0  0  0  0  0  0  0  0  0  0  0  0
  1  7  1  0  0  0  0
  1  2  1  0  0  0  0
  2 26  1  0  0  0  0
  3 22  1  0  0  0  0
  3  2  2  0  0  0  0
  4  3  1  0  0  0  0
  5  4  2  0  0  0  0
  5  6  1  0  0  0  0
  6  1  2  0  0  0  0
  8 17  1  0  0  0  0
  9  5  1  0  0  0  0
  9  8  2  0  0  0  0
 10  9  1  0  0  0  0
 11 10  2  0  0  0  0
 11 15  1  0  0  0  0
 12 11  1  0  0  0  0
 13 12  1  0  0  0  0
 13 14  2  0  0  0  0
 14 15  1  0  0  0  0
 15 16  2  0  0  0  0
 16 21  1  0  0  0  0
 16  8  1  0  0  0  0
 18 10  1  0  0  0  0
 19 12  1  0  0  0  0
 20 13  1  0  0  0  0
 22 24  1  0  0  0  0
 23 22  1  0  0  0  0
 25 22  1  0  0  0  0
 26 28  1  0  0  0  0
 27 34  1  0  0  0  0
 28 27  2  0  0  0  0
 28 29  1  0  0  0  0
 29 31  2  0  0  0  0
 30 29  1  0  0  0  0
 31 33  1  0  0  0  0
 31 32  1  0  0  0  0
 34 33  2  0  0  0  0
 35 36  3  0  0  0  0
 36 27  1  0  0  0  0
M  END
>  <minimizedAffinity>
-5.97572088

$$$$

 OpenBabel03242513063D

 36 39  0  0  0  0  0  0  0  0999 V2000
   38.5750   26.9860   39.4310 C   0  0  0  0  0  0  0  0  0  0  0  0
   38.3400   26.3790   40.6670 C   0  0  0  0  0  0  0  0  0  0  0  0
   38.0220   27.2230   41.7230 C   0  0  0  0  0  0  0  0  0  0  0  0
   37.9640   28.5660   41.4790 N   0  0  0  0  0  0  0  0  0  0  0  0
   38.1960   29.1110   40.2790 C   0  0  0  0  0  0  0  0  0  0  0  0
   38.5060   28.3200   39.2390 N   0  0  0  0  0  0  0  0  0  0  0  0
   38.8180   26.4640   38.5170 H   0  0  0  0  0  0  0  0  0  0  0  0
   37.1390   31.1080   39.2920 C   0  0  0  0  0  0  0  0  0  0  0  0
   38.1070   30.5500   40.1230 C   0  0  0  0  0  0  0  0  0  0  0  0
   39.0240   31.3170   40.8350 C   0  0  0  0  0  0  0  0  0  0  0  0
   38.9780   32.7090   40.7170 C   0  0  0  0  0  0  0  0  0  0  0  0
   39.6880   33.7480   41.2440 N   0  0  0  0  0  0  0  0  0  0  0  0
   39.1490   34.9100   40.7320 C   0  0  0  0  0  0  0  0  0  0  0  0
   38.1350   34.5610   39.9150 N   0  0  0  0  0  0  0  0  0  0  0  0
   38.0090   33.2260   39.8870 C   0  0  0  0  0  0  0  0  0  0  0  0
   37.0900   32.4920   39.1720 C   0  0  0  0  0  0  0  0  0  0  0  0
   36.4450   30.4690   38.7560 H   0  0  0  0  0  0  0  0  0  0  0  0
   39.7680   30.8800   41.4740 H   0  0  0  0  0  0  0  0  0  0  0  0
   40.4860   33.6220   41.9100 H   0  0  0  0  0  0  0  0  0  0  0  0
   39.5240   35.8940   40.9850 H   0  0  0  0  0  0  0  0  0  0  0  0
   36.3490   32.9390   38.5350 H   0  0  0  0  0  0  0  0  0  0  0  0
   37.7600   26.6500   43.0610 C   0  0  0  0  0  0  0  0  0  0  0  0
   38.8250   25.8470   43.4680 F   0  0  0  0  0  0  0  0  0  0  0  0
   37.6630   27.6460   43.9990 F   0  0  0  0  0  0  0  0  0  0  0  0
   36.6180   25.9030   43.0060 F   0  0  0  0  0  0  0  0  0  0  0  0
   38.4270   25.0270   40.7970 O   0  0  0  0  0  0  0  0  0  0  0  0
   38.0460   23.3930   39.1160 C   0  0  0  0  0  0  0  0  0  0  0  0
   37.5330   24.2100   40.1310 C   0  0  0  0  0  0  0  0  0  0  0  0
   36.1780   24.1220   40.3800 C   0  0  0  0  0  0  0  0  0  0  0  0
   35.8500   24.7800   41.1780 H   0  0  0  0  0  0  0  0  0  0  0  0
   35.3430   23.2800   39.6760 C   0  0  0  0  0  0  0  0  0  0  0  0
   34.2940   23.2860   39.9470 H   0  0  0  0  0  0  0  0  0  0  0  0
   35.8420   22.4740   38.6730 C   0  0  0  0  0  3  0  0  0  0  0  0
   37.1940   22.5420   38.4050 C   0  0  0  0  0  3  0  0  0  0  0  0
   40.5330   23.2630   38.4090 N   0  0  0  0  0  0  0  0  0  0  0  0
   39.4430   23.3270   38.7280 C   0  0  0  0  0  0  0  0  0  0  0  0
  1  2  1  0  0  0  0
  2 26  1  0  0  0  0
  2  3  2  0  0  0  0
  3 22  1  0  0  0  0
  4  3  1  0  0  0  0
  5  4  2  0  0  0  0
  6  1  2  0  0  0  0
  6  5  1  0  0  0  0
  7  1  1  0  0  0  0
  8  9  1  0  0  0  0
  9  5  1  0  0  0  0
  9 10  2  0  0  0  0
 10 18  1  0  0  0  0
 11 10  1  0  0  0  0
 11 12  1  0  0  0  0
 12 19  1  0  0  0  0
 13 20  1  0  0  0  0
 13 12  1  0  0  0  0
 14 13  2  0  0  0  0
 15 14  1  0  0  0  0
 15 11  2  0  0  0  0
 16  8  2  0  0  0  0
 16 15  1  0  0  0  0
 17  8  1  0  0  0  0
 21 16  1  0  0  0  0
 22 23  1  0  0  0  0
 22 24  1  0  0  0  0
 25 22  1  0  0  0  0
 27 28  1  0  0  0  0
 28 29  2  0  0  0  0
 28 26  1  0  0  0  0
 29 30  1  0  0  0  0
 31 32  1  0  0  0  0
 31 29  1  0  0  0  0
 33 31  2  0  0  0  0
 34 33  1  0  0  0  0
 34 27  2  0  0  0  0
 35 36  3  0  0  0  0
 36 27  1  0  0  0  0
M  END
>  <minimizedAffinity>
-5.93017244

$$$$

 OpenBabel03242513063D

 36 39  0  0  0  0  0  0  0  0999 V2000
   37.6360   28.2060   39.2840 C   0  0  0  0  0  0  0  0  0  0  0  0
   37.3210   27.8030   40.5840 C   0  0  0  0  0  0  0  0  0  0  0  0
   37.8090   28.5970   41.6150 C   0  0  0  0  0  0  0  0  0  0  0  0
   38.5490   29.6970   41.2860 N   0  0  0  0  0  0  0  0  0  0  0  0
   38.8300   30.0510   40.0250 C   0  0  0  0  0  0  0  0  0  0  0  0
   38.3720   29.3030   39.0090 N   0  0  0  0  0  0  0  0  0  0  0  0
   37.3180   27.7030   38.3820 H   0  0  0  0  0  0  0  0  0  0  0  0
   39.8080   32.1800   40.7920 C   0  0  0  0  0  0  0  0  0  0  0  0
   39.6230   31.2400   39.7810 C   0  0  0  0  0  0  0  0  0  0  0  0
   40.1720   31.3790   38.5110 C   0  0  0  0  0  0  0  0  0  0  0  0
   40.9450   32.5090   38.2280 C   0  0  0  0  0  0  0  0  0  0  0  0
   41.6210   32.9700   37.1360 N   0  0  0  0  0  0  0  0  0  0  0  0
   42.2000   34.1700   37.4920 C   0  0  0  0  0  0  0  0  0  0  0  0
   41.8700   34.4140   38.7770 N   0  0  0  0  0  0  0  0  0  0  0  0
   41.1070   33.4180   39.2500 C   0  0  0  0  0  0  0  0  0  0  0  0
   40.5760   33.3060   40.5140 C   0  0  0  0  0  0  0  0  0  0  0  0
   39.3590   32.0290   41.7680 H   0  0  0  0  0  0  0  0  0  0  0  0
   40.0270   30.6500   37.7370 H   0  0  0  0  0  0  0  0  0  0  0  0
   41.6550   32.4590   36.2220 H   0  0  0  0  0  0  0  0  0  0  0  0
   42.8000   34.7590   36.8090 H   0  0  0  0  0  0  0  0  0  0  0  0
   40.7280   34.0410   41.2830 H   0  0  0  0  0  0  0  0  0  0  0  0
   37.5150   28.2320   43.0170 C   0  0  0  0  0  0  0  0  0  0  0  0
   36.2000   27.7840   43.1410 F   0  0  0  0  0  0  0  0  0  0  0  0
   38.3050   27.1840   43.4160 F   0  0  0  0  0  0  0  0  0  0  0  0
   37.7020   29.3280   43.8090 F   0  0  0  0  0  0  0  0  0  0  0  0
   36.5750   26.6860   40.7960 O   0  0  0  0  0  0  0  0  0  0  0  0
   36.7450   24.6970   39.5090 C   0  0  0  0  0  0  0  0  0  0  0  0
   37.1410   25.4360   40.6320 C   0  0  0  0  0  0  0  0  0  0  0  0
   38.0660   24.8500   41.4710 C   0  0  0  0  0  0  0  0  0  0  0  0
   38.3290   25.4770   42.3180 H   0  0  0  0  0  0  0  0  0  0  0  0
   38.5930   23.5950   41.2430 C   0  0  0  0  0  0  0  0  0  0  0  0
   39.3130   23.2240   41.9630 H   0  0  0  0  0  0  0  0  0  0  0  0
   38.2050   22.8610   40.1400 C   0  0  0  0  0  3  0  0  0  0  0  0
   37.2820   23.4250   39.2840 C   0  0  0  0  0  3  0  0  0  0  0  0
   35.0740   25.4960   37.7020 N   0  0  0  0  0  0  0  0  0  0  0  0
   35.8060   25.1540   38.5030 C   0  0  0  0  0  0  0  0  0  0  0  0
  1  2  1  0  0  0  0
  2 26  1  0  0  0  0
  2  3  2  0  0  0  0
  3 22  1  0  0  0  0
  4  3  1  0  0  0  0
  5  4  2  0  0  0  0
  6  1  2  0  0  0  0
  6  5  1  0  0  0  0
  7  1  1  0  0  0  0
  8 17  1  0  0  0  0
  9  5  1  0  0  0  0
  9  8  2  0  0  0  0
 10  9  1  0  0  0  0
 11 10  2  0  0  0  0
 11 15  1  0  0  0  0
 12 13  1  0  0  0  0
 12 11  1  0  0  0  0
 13 14  2  0  0  0  0
 14 15  1  0  0  0  0
 15 16  2  0  0  0  0
 16  8  1  0  0  0  0
 16 21  1  0  0  0  0
 18 10  1  0  0  0  0
 19 12  1  0  0  0  0
 20 13  1  0  0  0  0
 22 23  1  0  0  0  0
 22 24  1  0  0  0  0
 22 25  1  0  0  0  0
 27 28  1  0  0  0  0
 28 26  1  0  0  0  0
 28 29  2  0  0  0  0
 29 30  1  0  0  0  0
 31 29  1  0  0  0  0
 31 32  1  0  0  0  0
 33 31  2  0  0  0  0
 34 27  2  0  0  0  0
 34 33  1  0  0  0  0
 35 36  3  0  0  0  0
 36 27  1  0  0  0  0
M  END
>  <minimizedAffinity>
-5.86421871

$$$$

 OpenBabel03242513063D

 36 39  0  0  0  0  0  0  0  0999 V2000
   36.4540   28.8070   41.0720 C   0  0  0  0  0  0  0  0  0  0  0  0
   37.3840   29.8480   41.1210 C   0  0  0  0  0  0  0  0  0  0  0  0
   37.4710   30.6570   39.9950 C   0  0  0  0  0  0  0  0  0  0  0  0
   36.6520   30.3780   38.9380 N   0  0  0  0  0  0  0  0  0  0  0  0
   35.7710   29.3700   38.9280 C   0  0  0  0  0  0  0  0  0  0  0  0
   35.6660   28.5710   40.0020 N   0  0  0  0  0  0  0  0  0  0  0  0
   36.2610   28.1060   41.8710 H   0  0  0  0  0  0  0  0  0  0  0  0
   35.5090   29.2070   36.4820 C   0  0  0  0  0  0  0  0  0  0  0  0
   34.9460   29.1590   37.7550 C   0  0  0  0  0  0  0  0  0  0  0  0
   33.5940   28.9130   37.9740 C   0  0  0  0  0  0  0  0  0  0  0  0
   32.7580   28.7040   36.8740 C   0  0  0  0  0  0  0  0  0  0  0  0
   31.4290   28.4440   36.7050 N   0  0  0  0  0  0  0  0  0  0  0  0
   31.2040   28.3390   35.3480 C   0  0  0  0  0  0  0  0  0  0  0  0
   32.3840   28.5350   34.7260 N   0  0  0  0  0  0  0  0  0  0  0  0
   33.3470   28.7590   35.6310 C   0  0  0  0  0  0  0  0  0  0  0  0
   34.6790   29.0000   35.3850 C   0  0  0  0  0  0  0  0  0  0  0  0
   36.5690   29.4030   36.3600 H   0  0  0  0  0  0  0  0  0  0  0  0
   33.1670   28.8770   38.9580 H   0  0  0  0  0  0  0  0  0  0  0  0
   30.7540   28.3520   37.5010 H   0  0  0  0  0  0  0  0  0  0  0  0
   30.2260   28.1340   34.9290 H   0  0  0  0  0  0  0  0  0  0  0  0
   35.0980   29.0340   34.3960 H   0  0  0  0  0  0  0  0  0  0  0  0
   38.4340   31.7790   39.9770 C   0  0  0  0  0  0  0  0  0  0  0  0
   37.9970   32.7840   39.1150 F   0  0  0  0  0  0  0  0  0  0  0  0
   38.5180   32.3600   41.2170 F   0  0  0  0  0  0  0  0  0  0  0  0
   39.6480   31.3140   39.5600 F   0  0  0  0  0  0  0  0  0  0  0  0
   38.1520   30.0330   42.2290 O   0  0  0  0  0  0  0  0  0  0  0  0
   40.2970   29.1630   42.7620 C   0  0  0  0  0  0  0  0  0  0  0  0
   38.9070   28.9890   42.7290 C   0  0  0  0  0  0  0  0  0  0  0  0
   38.4170   27.7900   43.2030 C   0  0  0  0  0  0  0  0  0  0  0  0
   37.3340   27.7230   43.1490 H   0  0  0  0  0  0  0  0  0  0  0  0
   39.2310   26.7890   43.6910 C   0  0  0  0  0  0  0  0  0  0  0  0
   38.7480   25.8850   44.0390 H   0  0  0  0  0  0  0  0  0  0  0  0
   40.6020   26.9550   43.7240 C   0  0  0  0  0  3  0  0  0  0  0  0
   41.1180   28.1450   43.2570 C   0  0  0  0  0  3  0  0  0  0  0  0
   41.5520   31.2990   42.0130 N   0  0  0  0  0  0  0  0  0  0  0  0
   40.9950   30.3610   42.3320 C   0  0  0  0  0  0  0  0  0  0  0  0
  1  2  1  0  0  0  0
  1  7  1  0  0  0  0
  2 26  1  0  0  0  0
  3  2  2  0  0  0  0
  4  3  1  0  0  0  0
  5  4  2  0  0  0  0
  5  6  1  0  0  0  0
  6  1  2  0  0  0  0
  8  9  1  0  0  0  0
  9 10  2  0  0  0  0
  9  5  1  0  0  0  0
 10 18  1  0  0  0  0
 11 10  1  0  0  0  0
 12 11  1  0  0  0  0
 12 19  1  0  0  0  0
 13 12  1  0  0  0  0
 14 13  2  0  0  0  0
 14 15  1  0  0  0  0
 15 11  2  0  0  0  0
 16 15  1  0  0  0  0
 16  8  2  0  0  0  0
 17  8  1  0  0  0  0
 20 13  1  0  0  0  0
 21 16  1  0  0  0  0
 22  3  1  0  0  0  0
 22 24  1  0  0  0  0
 23 22  1  0  0  0  0
 25 22  1  0  0  0  0
 26 28  1  0  0  0  0
 27 34  1  0  0  0  0
 28 27  2  0  0  0  0
 28 29  1  0  0  0  0
 29 31  2  0  0  0  0
 30 29  1  0  0  0  0
 31 33  1  0  0  0  0
 31 32  1  0  0  0  0
 34 33  2  0  0  0  0
 35 36  3  0  0  0  0
 36 27  1  0  0  0  0
M  END
>  <minimizedAffinity>
-5.74563026

$$$$

 OpenBabel03242513063D

 36 39  0  0  0  0  0  0  0  0999 V2000
   38.3240   28.1050   38.4160 C   0  0  0  0  0  0  0  0  0  0  0  0
   37.1030   28.1070   39.0940 C   0  0  0  0  0  0  0  0  0  0  0  0
   36.7430   29.2930   39.7210 C   0  0  0  0  0  0  0  0  0  0  0  0
   37.5980   30.3550   39.6300 N   0  0  0  0  0  0  0  0  0  0  0  0
   38.7620   30.3140   38.9690 C   0  0  0  0  0  0  0  0  0  0  0  0
   39.1360   29.1810   38.3540 N   0  0  0  0  0  0  0  0  0  0  0  0
   38.7320   27.2660   37.8700 H   0  0  0  0  0  0  0  0  0  0  0  0
   39.5410   32.4320   39.9610 C   0  0  0  0  0  0  0  0  0  0  0  0
   39.5980   31.4980   38.9300 C   0  0  0  0  0  0  0  0  0  0  0  0
   40.4360   31.6390   37.8290 C   0  0  0  0  0  0  0  0  0  0  0  0
   41.2620   32.7640   37.7470 C   0  0  0  0  0  0  0  0  0  0  0  0
   42.1820   33.2250   36.8500 N   0  0  0  0  0  0  0  0  0  0  0  0
   42.6660   34.4200   37.3430 C   0  0  0  0  0  0  0  0  0  0  0  0
   42.0400   34.6590   38.5120 N   0  0  0  0  0  0  0  0  0  0  0  0
   41.1790   33.6670   38.7820 C   0  0  0  0  0  0  0  0  0  0  0  0
   40.3600   33.5530   39.8820 C   0  0  0  0  0  0  0  0  0  0  0  0
   38.8710   32.2800   40.8000 H   0  0  0  0  0  0  0  0  0  0  0  0
   40.4760   30.9140   37.0380 H   0  0  0  0  0  0  0  0  0  0  0  0
   42.4310   32.7190   35.9690 H   0  0  0  0  0  0  0  0  0  0  0  0
   43.4160   35.0070   36.8270 H   0  0  0  0  0  0  0  0  0  0  0  0
   40.3280   34.2840   40.6690 H   0  0  0  0  0  0  0  0  0  0  0  0
   35.4630   29.3680   40.4580 C   0  0  0  0  0  0  0  0  0  0  0  0
   35.4560   28.4660   41.5200 F   0  0  0  0  0  0  0  0  0  0  0  0
   35.3060   30.6100   41.0210 F   0  0  0  0  0  0  0  0  0  0  0  0
   34.4410   29.0760   39.6010 F   0  0  0  0  0  0  0  0  0  0  0  0
   36.3300   26.9880   39.1210 O   0  0  0  0  0  0  0  0  0  0  0  0
   36.8360   24.6670   39.1220 C   0  0  0  0  0  0  0  0  0  0  0  0
   36.7490   25.8750   39.8260 C   0  0  0  0  0  0  0  0  0  0  0  0
   37.0950   25.8470   41.1610 C   0  0  0  0  0  0  0  0  0  0  0  0
   37.0050   26.8150   41.6440 H   0  0  0  0  0  0  0  0  0  0  0  0
   37.5080   24.6970   41.8020 C   0  0  0  0  0  0  0  0  0  0  0  0
   37.7570   24.7800   42.8530 H   0  0  0  0  0  0  0  0  0  0  0  0
   37.5940   23.5030   41.1140 C   0  0  0  0  0  3  0  0  0  0  0  0
   37.2550   23.5050   39.7770 C   0  0  0  0  0  3  0  0  0  0  0  0
   36.3210   24.3920   36.6000 N   0  0  0  0  0  0  0  0  0  0  0  0
   36.5400   24.5050   37.7110 C   0  0  0  0  0  0  0  0  0  0  0  0
  1  2  1  0  0  0  0
  2 26  1  0  0  0  0
  2  3  2  0  0  0  0
  3 22  1  0  0  0  0
  4  3  1  0  0  0  0
  5  4  2  0  0  0  0
  6  1  2  0  0  0  0
  6  5  1  0  0  0  0
  7  1  1  0  0  0  0
  8 17  1  0  0  0  0
  9  5  1  0  0  0  0
  9  8  2  0  0  0  0
 10  9  1  0  0  0  0
 11 10  2  0  0  0  0
 11 15  1  0  0  0  0
 12 13  1  0  0  0  0
 12 11  1  0  0  0  0
 13 14  2  0  0  0  0
 14 15  1  0  0  0  0
 15 16  2  0  0  0  0
 16  8  1  0  0  0  0
 16 21  1  0  0  0  0
 18 10  1  0  0  0  0
 19 12  1  0  0  0  0
 20 13  1  0  0  0  0
 22 24  1  0  0  0  0
 22 23  1  0  0  0  0
 25 22  1  0  0  0  0
 26 28  1  0  0  0  0
 27 34  2  0  0  0  0
 27 28  1  0  0  0  0
 28 29  2  0  0  0  0
 29 30  1  0  0  0  0
 29 31  1  0  0  0  0
 31 32  1  0  0  0  0
 33 31  2  0  0  0  0
 34 33  1  0  0  0  0
 35 36  3  0  0  0  0
 36 27  1  0  0  0  0
M  END
>  <minimizedAffinity>
-5.74065351

$$$$

 OpenBabel03242513063D

 36 39  0  0  0  0  0  0  0  0999 V2000
   39.6310   28.0820   40.1280 C   0  0  0  0  0  0  0  0  0  0  0  0
   39.3070   27.9810   41.4820 C   0  0  0  0  0  0  0  0  0  0  0  0
   37.9620   28.0970   41.8090 C   0  0  0  0  0  0  0  0  0  0  0  0
   37.0680   28.2980   40.7950 N   0  0  0  0  0  0  0  0  0  0  0  0
   37.4180   28.3900   39.5060 C   0  0  0  0  0  0  0  0  0  0  0  0
   38.7110   28.2820   39.1610 N   0  0  0  0  0  0  0  0  0  0  0  0
   40.6270   27.9990   39.7180 H   0  0  0  0  0  0  0  0  0  0  0  0
   36.7370   28.7330   37.1620 C   0  0  0  0  0  0  0  0  0  0  0  0
   36.3910   28.6020   38.5050 C   0  0  0  0  0  0  0  0  0  0  0  0
   35.0770   28.6670   38.9560 C   0  0  0  0  0  0  0  0  0  0  0  0
   34.0520   28.8710   38.0280 C   0  0  0  0  0  0  0  0  0  0  0  0
   32.6940   28.9850   38.0960 N   0  0  0  0  0  0  0  0  0  0  0  0
   32.2370   29.1810   36.8090 C   0  0  0  0  0  0  0  0  0  0  0  0
   33.3110   29.1830   35.9940 N   0  0  0  0  0  0  0  0  0  0  0  0
   34.4290   28.9960   36.7100 C   0  0  0  0  0  0  0  0  0  0  0  0
   35.7200   28.9360   36.2350 C   0  0  0  0  0  0  0  0  0  0  0  0
   37.7760   28.6760   36.8570 H   0  0  0  0  0  0  0  0  0  0  0  0
   34.8180   28.5650   39.9930 H   0  0  0  0  0  0  0  0  0  0  0  0
   32.1550   28.9250   38.9920 H   0  0  0  0  0  0  0  0  0  0  0  0
   31.1880   29.3040   36.5700 H   0  0  0  0  0  0  0  0  0  0  0  0
   35.9690   29.0400   35.1960 H   0  0  0  0  0  0  0  0  0  0  0  0
   37.5440   27.9990   43.2240 C   0  0  0  0  0  0  0  0  0  0  0  0
   38.2490   26.9870   43.8740 F   0  0  0  0  0  0  0  0  0  0  0  0
   37.8480   29.1560   43.8960 F   0  0  0  0  0  0  0  0  0  0  0  0
   36.2060   27.7300   43.2740 F   0  0  0  0  0  0  0  0  0  0  0  0
   40.2810   27.7800   42.4100 O   0  0  0  0  0  0  0  0  0  0  0  0
   42.2950   28.4970   43.4470 C   0  0  0  0  0  0  0  0  0  0  0  0
   41.1060   28.8250   42.7820 C   0  0  0  0  0  0  0  0  0  0  0  0
   40.8680   30.1650   42.5540 C   0  0  0  0  0  0  0  0  0  0  0  0
   39.9320   30.3470   42.0350 H   0  0  0  0  0  0  0  0  0  0  0  0
   41.7390   31.1580   42.9530 C   0  0  0  0  0  0  0  0  0  0  0  0
   41.4590   32.1790   42.7260 H   0  0  0  0  0  0  0  0  0  0  0  0
   42.9100   30.8400   43.6100 C   0  0  0  0  0  3  0  0  0  0  0  0
   43.1730   29.5070   43.8490 C   0  0  0  0  0  3  0  0  0  0  0  0
   43.0890   26.0960   44.0000 N   0  0  0  0  0  0  0  0  0  0  0  0
   42.7300   27.1470   43.7530 C   0  0  0  0  0  0  0  0  0  0  0  0
  1  2  1  0  0  0  0
  2  3  2  0  0  0  0
  2 26  1  0  0  0  0
  3 22  1  0  0  0  0
  4  3  1  0  0  0  0
  5  4  2  0  0  0  0
  6  5  1  0  0  0  0
  6  1  2  0  0  0  0
  7  1  1  0  0  0  0
  8  9  1  0  0  0  0
  9 10  2  0  0  0  0
  9  5  1  0  0  0  0
 10 18  1  0  0  0  0
 11 12  1  0  0  0  0
 11 10  1  0  0  0  0
 12 19  1  0  0  0  0
 13 12  1  0  0  0  0
 14 15  1  0  0  0  0
 14 13  2  0  0  0  0
 15 11  2  0  0  0  0
 16 15  1  0  0  0  0
 16  8  2  0  0  0  0
 17  8  1  0  0  0  0
 20 13  1  0  0  0  0
 21 16  1  0  0  0  0
 22 25  1  0  0  0  0
 22 23  1  0  0  0  0
 22 24  1  0  0  0  0
 26 28  1  0  0  0  0
 27 36  1  0  0  0  0
 27 34  1  0  0  0  0
 28 27  2  0  0  0  0
 29 28  1  0  0  0  0
 29 31  2  0  0  0  0
 30 29  1  0  0  0  0
 31 33  1  0  0  0  0
 32 31  1  0  0  0  0
 33 34  2  0  0  0  0
 36 35  3  0  0  0  0
M  END
>  <minimizedAffinity>
-5.72581673

$$$$
