REMARK  Name = 
REMARK  5 active torsions:
REMARK  status: ('A' for Active; 'I' for Inactive)
REMARK    1  A    between atoms: C_3  and  C_10
REMARK    2  A    between atoms: C_4  and  C_15
REMARK    3  A    between atoms: C_14  and  S_20
REMARK    4  A    between atoms: S_20  and  C_36
REMARK    5  A    between atoms: C_34  and  C_35
REMARK                            x       y       z     vdW  Elec       q    Type
REMARK                         _______ _______ _______ _____ _____    ______ ____
ROOT
ATOM      1  C   UNL     1      47.778  31.864  38.978  0.00  0.00    +0.000 A 
ATOM      2  C   UNL     1      47.233  33.109  38.875  0.00  0.00    +0.000 A 
ATOM      3  C   UNL     1      47.783  34.025  37.995  0.00  0.00    +0.000 A 
ATOM      4  C   UNL     1      48.867  33.702  37.227  0.00  0.00    +0.000 A 
ATOM      5  C   UNL     1      49.455  32.447  37.299  0.00  0.00    +0.000 A 
ATOM      6  C   UNL     1      48.888  31.534  38.190  0.00  0.00    +0.000 A 
ATOM      7  H   UNL     1      47.365  35.018  37.897  0.00  0.00    +0.000 HD
ATOM      8  H   UNL     1      49.332  34.363  36.534  0.00  0.00    +0.000 HD
ATOM      9  H   UNL     1      50.294  32.112  36.742  0.00  0.00    +0.000 HD
ATOM     10  H   UNL     1      49.319  30.547  38.273  0.00  0.00    +0.000 HD
ENDROOT
BRANCH   2  14
ATOM     11 CL   UNL     1      45.280  35.277  43.136  0.00  0.00    +0.000 Cl
ATOM     12  C   UNL     1      45.155  34.523  41.565  0.00  0.00    +0.000 A 
ATOM     13  C   UNL     1      46.262  34.138  40.882  0.00  0.00    +0.000 A 
ATOM     14  C   UNL     1      46.072  33.560  39.638  0.00  0.00    +0.000 A 
ATOM     15  C   UNL     1      44.829  33.387  39.119  0.00  0.00    +0.000 A 
ATOM     16  C   UNL     1      43.720  33.769  39.797  0.00  0.00    +0.000 A 
ATOM     17  C   UNL     1      43.896  34.344  41.038  0.00  0.00    +0.000 A 
ATOM     18  H   UNL     1      44.730  32.930  38.133  0.00  0.00    +0.000 HD
ATOM     19  H   UNL     1      42.739  33.619  39.360  0.00  0.00    +0.000 HD
ATOM     20  H   UNL     1      42.997  34.645  41.572  0.00  0.00    +0.000 HD
BRANCH  13  23
ATOM     21  C   UNL     1      49.541  35.751  41.881  0.00  0.00    +0.000 A 
ATOM     22  C   UNL     1      48.281  35.549  41.310  0.00  0.00    +0.000 A 
ATOM     23  C   UNL     1      47.581  34.362  41.472  0.00  0.00    +0.000 A 
ATOM     24  N   UNL     1      48.211  33.445  42.211  0.00  0.00    +0.000 NA
ATOM     25  C   UNL     1      49.417  33.625  42.763  0.00  0.00    +0.000 A 
ATOM     26  N   UNL     1      50.078  34.770  42.600  0.00  0.00    +0.000 NA
ATOM     27  H   UNL     1      50.053  36.691  41.729  0.00  0.00    +0.000 HD
ATOM     28  H   UNL     1      47.849  36.347  40.728  0.00  0.00    +0.000 HD
ATOM     29  H   UNL     1      49.718  32.733  43.318  0.00  0.00    +0.000 HD
ENDBRANCH  13  23
ENDBRANCH   2  14
BRANCH   1  30
ATOM     30  S   UNL     1      47.203  30.721  40.084  0.00  0.00    +0.000 S 
ATOM     31  O   UNL     1      46.811  29.439  39.273  0.00  0.00    +0.000 OA
ATOM     32  O   UNL     1      48.363  30.265  40.919  0.00  0.00    +0.000 OA
BRANCH  30  34
ATOM     33  C   UNL     1      44.442  30.901  40.413  0.00  0.00    +0.000 A 
ATOM     34  C   UNL     1      45.741  30.849  40.975  0.00  0.00    +0.000 A 
ATOM     35  C   UNL     1      45.647  30.915  42.359  0.00  0.00    +0.000 A 
ATOM     36  H   UNL     1      46.556  30.868  42.939  0.00  0.00    +0.000 HD
ATOM     37  C   UNL     1      44.509  31.017  43.129  0.00  0.00    +0.000 A 
ATOM     38  H   UNL     1      44.541  31.062  44.208  0.00  0.00    +0.000 HD
ATOM     39  C   UNL     1      43.321  31.058  42.433  0.00  0.00    +0.000 A 
ATOM     40  C   UNL     1      43.233  31.002  41.061  0.00  0.00    +0.000 A 
BRANCH  33  42
ATOM     41  N   UNL     1      44.299  30.694  37.786  0.00  0.00    +0.000 NA
ATOM     42  C   UNL     1      44.358  30.785  38.958  0.00  0.00    +0.000 C 
ENDBRANCH  33  42
ENDBRANCH  30  34
ENDBRANCH   1  30
TORSDOF 5
