
 OpenBabel03252509233D

 28 30  0  0  1  0  0  0  0  0999 V2000
   47.0920   33.8760   42.5340 C   0  0  1  0  0  0  0  0  0  0  0  0
   46.9520   32.3730   42.1860 C   0  0  0  0  0  0  0  0  0  0  0  0
   46.3880   33.5510   41.3490 C   0  0  2  0  0  0  0  0  0  0  0  0
   48.1380   34.2210   42.5760 H   0  0  0  0  0  0  0  0  0  0  0  0
   46.2390   31.7570   42.7210 H   0  0  0  0  0  0  0  0  0  0  0  0
   47.8920   31.9240   41.8170 H   0  0  0  0  0  0  0  0  0  0  0  0
   45.2800   33.5620   41.3020 H   0  0  0  0  0  0  0  0  0  0  0  0
   44.6940   35.4560   44.9560 C   0  0  0  0  0  0  0  0  0  0  0  0
   45.4530   35.2660   43.7730 C   0  0  0  0  0  0  0  0  0  0  0  0
   46.3080   34.1970   43.7930 C   0  0  0  0  0  0  0  0  0  0  0  0
   46.4180   33.3700   44.8930 N   0  0  0  0  0  0  0  0  0  0  0  0
   45.6790   33.5870   45.9960 C   0  0  0  0  0  0  0  0  0  0  0  0
   44.8130   34.6320   46.0310 N   0  0  0  0  0  0  0  0  0  0  0  0
   44.0130   36.3010   44.9480 H   0  0  0  0  0  0  0  0  0  0  0  0
   45.7360   32.9630   46.8750 H   0  0  0  0  0  0  0  0  0  0  0  0
   45.3610   36.1380   42.6490 N   0  0  0  0  0  0  0  0  0  0  0  0
   44.7370   36.1170   41.8360 H   0  0  0  0  0  0  0  0  0  0  0  0
   46.1070   36.8500   42.8360 H   0  0  0  0  0  0  0  0  0  0  0  0
   48.0480   34.6040   39.7890 C   0  0  0  0  0  0  0  0  0  0  0  0
   46.9850   33.7470   39.9970 C   0  0  0  0  0  0  0  0  0  0  0  0
   46.4260   33.0270   38.9410 C   0  0  0  0  0  0  0  0  0  0  0  0
   45.5840   32.3370   39.0570 H   0  0  0  0  0  0  0  0  0  0  0  0
   46.9530   33.1790   37.6580 C   0  0  0  0  0  0  0  0  0  0  0  0
   46.5340   32.6270   36.8100 H   0  0  0  0  0  0  0  0  0  0  0  0
   48.0160   34.0420   37.4750 C   0  0  0  0  0  3  0  0  0  0  0  0
   48.5840   34.7660   38.5120 C   0  0  0  0  0  3  0  0  0  0  0  0
   49.0640   35.9350   41.7740 N   0  0  0  0  0  0  0  0  0  0  0  0
   48.6060   35.3340   40.8860 C   0  0  0  0  0  0  0  0  0  0  0  0
  1  4  1  6  0  0  0
  1 10  1  0  0  0  0
  2  1  1  0  0  0  0
  2  5  1  0  0  0  0
  3  7  1  1  0  0  0
  3  2  1  0  0  0  0
  3  1  1  0  0  0  0
  6  2  1  0  0  0  0
  8 13  1  0  0  0  0
  9 10  1  0  0  0  0
  9  8  2  0  0  0  0
 10 11  2  0  0  0  0
 11 12  1  0  0  0  0
 12 13  2  0  0  0  0
 12 15  1  0  0  0  0
 14  8  1  0  0  0  0
 16 18  1  0  0  0  0
 16  9  1  0  0  0  0
 17 16  1  0  0  0  0
 19 20  1  0  0  0  0
 19 28  1  0  0  0  0
 20  3  1  0  0  0  0
 21 22  1  0  0  0  0
 21 20  2  0  0  0  0
 23 21  1  0  0  0  0
 24 23  1  0  0  0  0
 25 23  2  0  0  0  0
 25 26  1  0  0  0  0
 26 19  2  0  0  0  0
 28 27  3  0  0  0  0
M  END
>  <minimizedAffinity>
-4.99706268

>  <minimizedRMSD>
1.20375872

$$$$
