
 OpenBabel03252508033D

 43 46  0  0  1  0  0  0  0  0999 V2000
   42.0160   33.1210   41.2220 C   0  0  0  0  0  0  0  0  0  0  0  0
   42.7330   34.2760   41.3560 C   0  0  0  0  0  0  0  0  0  0  0  0
   42.0310   35.4980   41.3050 C   0  0  0  0  0  0  0  0  0  0  0  0
   40.6700   35.5800   41.1290 C   0  0  0  0  0  0  0  0  0  0  0  0
   39.9570   34.4160   40.9960 C   0  0  0  0  0  0  0  0  0  0  0  0
   40.6310   33.2310   41.0450 C   0  0  0  0  0  0  0  0  0  0  0  0
   42.5100   36.4630   41.3910 H   0  0  0  0  0  0  0  0  0  0  0  0
   40.1420   36.4950   41.0900 H   0  0  0  0  0  0  0  0  0  0  0  0
   38.9060   34.4020   40.8580 H   0  0  0  0  0  0  0  0  0  0  0  0
   40.0500   32.3010   40.9370 H   0  0  0  0  0  0  0  0  0  0  0  0
   42.7140   31.5970   41.3650 S   0  0  0  0  0  0  0  0  0  0  0  0
   41.6710   30.7380   40.5800 O   0  0  0  0  0  0  0  0  0  0  0  0
   42.7290   31.0860   42.7550 O   0  0  0  0  0  0  0  0  0  0  0  0
   43.9130   31.2260   39.0660 C   0  0  0  0  0  0  0  0  0  0  0  0
   43.9000   30.8430   40.4360 C   0  0  0  0  0  0  0  0  0  0  0  0
   44.9420   29.9550   40.6970 C   0  0  0  0  0  0  0  0  0  0  0  0
   44.9410   29.7110   41.7770 H   0  0  0  0  0  0  0  0  0  0  0  0
   45.9220   29.4190   39.8950 C   0  0  0  0  0  0  0  0  0  0  0  0
   46.6290   28.7410   40.3310 H   0  0  0  0  0  0  0  0  0  0  0  0
   45.7780   29.8910   38.6390 C   0  0  0  0  0  3  0  0  0  0  0  0
   44.8380   30.7620   38.1640 C   0  0  0  0  0  3  0  0  0  0  0  0
   42.1580   32.8750   38.0410 N   0  0  0  0  0  0  0  0  0  0  0  0
   42.9310   32.1480   38.5040 C   0  0  0  0  0  0  0  0  0  0  0  0
   44.1720   34.2960   41.5480 C   0  0  0  0  0  0  0  0  0  0  0  0
   45.0200   34.2290   40.6070 O   0  0  0  0  0  0  0  0  0  0  0  0
   44.5590   34.4050   42.9320 C   0  0  0  0  0  0  0  0  0  0  0  0
   44.3150   35.6820   43.5440 C   0  0  0  0  0  0  0  0  0  0  0  0
   44.6740   35.8110   44.8770 C   0  0  0  0  0  0  0  0  0  0  0  0
   45.2230   34.7410   45.5080 N   0  0  0  0  0  0  0  0  0  0  0  0
   45.4340   33.5430   44.8740 C   0  0  0  0  0  0  0  0  0  0  0  0
   45.1040   33.4160   43.6350 N   0  0  0  0  0  0  0  0  0  0  0  0
   43.8920   36.5650   43.1190 H   0  0  0  0  0  0  0  0  0  0  0  0
   44.5420   36.7070   45.4380 H   0  0  0  0  0  0  0  0  0  0  0  0
   46.0270   32.4300   45.6460 C   0  0  1  0  0  0  0  0  0  0  0  0
   46.9760   32.7470   46.7780 C   0  0  0  0  0  0  0  0  0  0  0  0
   45.5620   32.3310   47.0470 C   0  0  1  0  0  0  0  0  0  0  0  0
   46.1460   31.4780   45.1040 H   0  0  0  0  0  0  0  0  0  0  0  0
   47.3070   33.7930   46.8520 H   0  0  0  0  0  0  0  0  0  0  0  0
   47.7770   31.9800   46.9780 H   0  0  0  0  0  0  0  0  0  0  0  0
   45.4250   31.3480   47.5390 H   0  0  0  0  0  0  0  0  0  0  0  0
   44.7700   33.3970   47.6330 N   0  0  0  0  0  0  0  0  0  0  0  0
   45.2830   33.8380   48.4210 H   0  0  0  0  0  0  0  0  0  0  0  0
   43.8690   32.9690   47.9850 H   0  0  0  0  0  0  0  0  0  0  0  0
  1  2  1  0  0  0  0
  1 11  1  0  0  0  0
  2 24  1  0  0  0  0
  3  2  2  0  0  0  0
  3  7  1  0  0  0  0
  4  3  1  0  0  0  0
  5  6  1  0  0  0  0
  5  4  2  0  0  0  0
  6  1  2  0  0  0  0
  8  4  1  0  0  0  0
  9  5  1  0  0  0  0
 10  6  1  0  0  0  0
 11 13  2  0  0  0  0
 12 11  2  0  0  0  0
 14 15  1  0  0  0  0
 15 16  2  0  0  0  0
 15 11  1  0  0  0  0
 16 17  1  0  0  0  0
 18 19  1  0  0  0  0
 18 16  1  0  0  0  0
 20 18  2  0  0  0  0
 21 20  1  0  0  0  0
 21 14  2  0  0  0  0
 22 23  3  0  0  0  0
 23 14  1  0  0  0  0
 24 26  1  0  0  0  0
 25 24  2  0  0  0  0
 26 27  2  0  0  0  0
 26 31  1  0  0  0  0
 27 28  1  0  0  0  0
 28 33  1  0  0  0  0
 28 29  2  0  0  0  0
 30 29  1  0  0  0  0
 30 34  1  0  0  0  0
 31 30  2  0  0  0  0
 32 27  1  0  0  0  0
 34 37  1  6  0  0  0
 34 35  1  0  0  0  0
 34 36  1  0  0  0  0
 35 38  1  0  0  0  0
 35 39  1  0  0  0  0
 35 36  1  0  0  0  0
 36 40  1  1  0  0  0
 36 41  1  0  0  0  0
 41 43  1  0  0  0  0
 41 42  1  0  0  0  0
M  END
>  <minimizedAffinity>
-5.60351324

>  <minimizedRMSD>
1.20652401

$$$$
