
 OpenBabel03252507463D

 38 40  0  0  0  0  0  0  0  0999 V2000
   47.0600   34.0580   41.0060 C   0  0  0  0  0  0  0  0  0  0  0  0
   47.1230   34.5250   39.9950 H   0  0  0  0  0  0  0  0  0  0  0  0
   46.4790   33.1130   41.0110 H   0  0  0  0  0  0  0  0  0  0  0  0
   48.4390   33.8790   41.4720 C   0  0  0  0  0  0  0  0  0  0  0  0
   49.0610   32.7010   41.0860 C   0  0  0  0  0  0  0  0  0  0  0  0
   50.3720   32.4310   41.4910 C   0  0  0  0  0  0  0  0  0  0  0  0
   50.9960   33.3670   42.2700 N   0  0  0  0  0  0  0  0  0  0  0  0
   50.3470   34.5050   42.6220 C   0  0  0  0  0  0  0  0  0  0  0  0
   49.1000   34.7350   42.2220 N   0  0  0  0  0  0  0  0  0  0  0  0
   50.8220   31.5080   41.1740 H   0  0  0  0  0  0  0  0  0  0  0  0
   50.8190   35.2570   43.2360 H   0  0  0  0  0  0  0  0  0  0  0  0
   48.2180   31.4730   40.0740 S   0  0  0  0  0  0  0  0  0  0  0  0
   49.2680   31.9310   37.4320 C   0  0  0  0  0  0  0  0  0  0  0  0
   48.2460   31.9140   38.3510 C   0  0  0  0  0  0  0  0  0  0  0  0
   46.9740   32.3110   37.9180 C   0  0  0  0  0  0  0  0  0  0  0  0
   46.0550   32.3600   38.5060 H   0  0  0  0  0  0  0  0  0  0  0  0
   46.7340   32.7120   36.6060 C   0  0  0  0  0  0  0  0  0  0  0  0
   45.7930   33.0240   36.2170 H   0  0  0  0  0  0  0  0  0  0  0  0
   47.7910   32.7190   35.6930 C   0  0  0  0  0  3  0  0  0  0  0  0
   49.0250   32.3270   36.1410 C   0  0  0  0  0  3  0  0  0  0  0  0
   51.5650   31.2280   38.3680 N   0  0  0  0  0  0  0  0  0  0  0  0
   50.5250   31.5370   37.9520 C   0  0  0  0  0  0  0  0  0  0  0  0
   46.2680   35.0220   41.8520 C   0  0  0  0  0  0  0  0  0  0  0  0
   46.6080   36.0630   41.6580 H   0  0  0  0  0  0  0  0  0  0  0  0
   46.4520   34.8360   42.9370 H   0  0  0  0  0  0  0  0  0  0  0  0
   44.7940   34.9380   41.6490 C   0  0  0  0  0  0  0  0  0  0  0  0
   43.9170   35.3580   42.6960 C   0  0  0  0  0  0  0  0  0  0  0  0
   42.2530   35.0660   41.9790 S   0  0  0  0  0  0  0  0  0  0  0  0
   43.0360   34.4180   40.3660 C   0  0  0  0  0  0  0  0  0  0  0  0
   44.1470   34.5140   40.5990 N   0  0  0  0  0  0  0  0  0  0  0  0
   44.2020   35.7510   43.6690 H   0  0  0  0  0  0  0  0  0  0  0  0
   42.2820   33.9790   39.2770 O   0  0  0  0  0  0  0  0  0  0  0  0
   40.3430   34.5040   37.5540 O   0  0  0  0  0  0  0  0  0  0  0  0
   41.4470   35.1460   38.3790 P   0  0  0  0  0  0  0  0  0  0  0  0
   40.7520   36.2380   39.4620 O   0  0  0  0  0  0  0  0  0  0  0  0
   39.9310   35.8010   39.8160 H   0  0  0  0  0  0  0  0  0  0  0  0
   42.5400   35.9910   37.3900 O   0  0  0  0  0  0  0  0  0  0  0  0
   42.8530   35.4190   36.6460 H   0  0  0  0  0  0  0  0  0  0  0  0
  1  3  1  0  0  0  0
  1  4  1  0  0  0  0
  1 23  1  0  0  0  0
  2  1  1  0  0  0  0
  4  9  1  0  0  0  0
  5  4  2  0  0  0  0
  5  6  1  0  0  0  0
  6  7  2  0  0  0  0
  7  8  1  0  0  0  0
  8 11  1  0  0  0  0
  9  8  2  0  0  0  0
 10  6  1  0  0  0  0
 12  5  1  0  0  0  0
 13 22  1  0  0  0  0
 13 14  1  0  0  0  0
 14 12  1  0  0  0  0
 15 14  2  0  0  0  0
 15 16  1  0  0  0  0
 17 15  1  0  0  0  0
 18 17  1  0  0  0  0
 19 20  1  0  0  0  0
 19 17  2  0  0  0  0
 20 13  2  0  0  0  0
 22 21  3  0  0  0  0
 23 25  1  0  0  0  0
 24 23  1  0  0  0  0
 26 23  1  0  0  0  0
 26 27  2  0  0  0  0
 27 31  1  0  0  0  0
 28 27  1  0  0  0  0
 29 30  2  0  0  0  0
 29 28  1  0  0  0  0
 30 26  1  0  0  0  0
 32 29  1  0  0  0  0
 33 34  2  0  0  0  0
 34 32  1  0  0  0  0
 34 35  1  0  0  0  0
 35 36  1  0  0  0  0
 37 34  1  0  0  0  0
 38 37  1  0  0  0  0
M  END
>  <minimizedAffinity>
-4.83436394

>  <minimizedRMSD>
0.40117231

$$$$
