REMARK  Name = 
REMARK  7 active torsions:
REMARK  status: ('A' for Active; 'I' for Inactive)
REMARK    1  A    between atoms: C_3  and  O_13
REMARK    2  A    between atoms: C_5  and  C_7
REMARK    3  A    between atoms: C_8  and  C_9
REMARK    4  A    between atoms: C_9  and  N_12
REMARK    5  A    between atoms: C_10  and  C_28
REMARK    6  A    between atoms: O_13  and  C_14
REMARK    7  A    between atoms: C_26  and  C_27
REMARK                            x       y       z     vdW  Elec       q    Type
REMARK                         _______ _______ _______ _____ _____    ______ ____
ROOT
ATOM      1  C   UNL     1      47.176  31.637  47.640  0.00  0.00    +0.000 C 
ATOM      2  H   UNL     1      47.544  31.994  48.608  0.00  0.00    +0.000 HD
ATOM      3  H   UNL     1      48.101  31.189  47.156  0.00  0.00    +0.000 HD
ENDROOT
BRANCH   1   6
ATOM      4  C   UNL     1      45.361  30.641  48.803  0.00  0.00    +0.000 C 
ATOM      5  O   UNL     1      45.250  31.486  49.722  0.00  0.00    +0.000 OA
ATOM      6  N   UNL     1      46.245  30.540  47.705  0.00  0.00    +0.000 N 
ATOM      7  H   UNL     1      46.209  29.750  47.031  0.00  0.00    +0.000 HD
BRANCH   4   9
ATOM      8  C   UNL     1      44.277  28.424  48.086  0.00  0.00    +0.000 A 
ATOM      9  C   UNL     1      44.367  29.535  48.895  0.00  0.00    +0.000 A 
ATOM     10  C   UNL     1      43.487  29.750  49.952  0.00  0.00    +0.000 A 
ATOM     11  H   UNL     1      43.505  30.605  50.625  0.00  0.00    +0.000 HD
ATOM     12  C   UNL     1      42.490  28.832  50.207  0.00  0.00    +0.000 A 
ATOM     13  H   UNL     1      41.780  28.976  51.031  0.00  0.00    +0.000 HD
ATOM     14  C   UNL     1      42.416  27.723  49.384  0.00  0.00    +0.000 A 
ATOM     15  C   UNL     1      43.290  27.497  48.326  0.00  0.00    +0.000 A 
BRANCH   8  17
ATOM     16  N   UNL     1      46.033  28.258  46.202  0.00  0.00    +0.000 NA
ATOM     17  C   UNL     1      45.245  28.335  47.043  0.00  0.00    +0.000 C 
ENDBRANCH   8  17
ENDBRANCH   4   9
ENDBRANCH   1   6
BRANCH   1  19
ATOM     18  C   UNL     1      46.893  32.563  45.425  0.00  0.00    +0.000 C 
ATOM     19  C   UNL     1      46.711  32.679  46.719  0.00  0.00    +0.000 C 
BRANCH  18  24
ATOM     20  C   UNL     1      44.765  34.950  43.635  0.00  0.00    +0.000 A 
ATOM     21  C   UNL     1      45.665  35.513  42.722  0.00  0.00    +0.000 A 
ATOM     22  C   UNL     1      46.984  35.080  42.717  0.00  0.00    +0.000 A 
ATOM     23  N   UNL     1      47.304  34.133  43.608  0.00  0.00    +0.000 NA
ATOM     24  C   UNL     1      46.440  33.597  44.483  0.00  0.00    +0.000 A 
ATOM     25  N   UNL     1      45.159  34.007  44.497  0.00  0.00    +0.000 NA
ATOM     26  H   UNL     1      43.746  35.320  43.595  0.00  0.00    +0.000 HD
ATOM     27  H   UNL     1      45.433  36.280  41.993  0.00  0.00    +0.000 HD
BRANCH  22  28
ATOM     28  O   UNL     1      47.969  35.545  41.882  0.00  0.00    +0.000 OA
BRANCH  28  29
ATOM     29  C   UNL     1      48.195  34.813  40.679  0.00  0.00    +0.000 C 
ATOM     30  F   UNL     1      46.968  34.397  40.154  0.00  0.00    +0.000 F 
ATOM     31  F   UNL     1      48.809  35.669  39.763  0.00  0.00    +0.000 F 
ATOM     32  F   UNL     1      49.043  33.739  40.896  0.00  0.00    +0.000 F 
ENDBRANCH  28  29
ENDBRANCH  22  28
ENDBRANCH  18  24
ENDBRANCH   1  19
TORSDOF 7
