
 OpenBabel03252505433D

 43 46  0  0  1  0  0  0  0  0999 V2000
   42.6640   34.7810   40.2220 C   0  0  0  0  0  0  0  0  0  0  0  0
   42.4940   35.2340   38.9330 C   0  0  0  0  0  0  0  0  0  0  0  0
   41.3200   35.0940   38.2420 C   0  0  0  0  0  0  0  0  0  0  0  0
   40.2930   34.4850   38.8590 N   0  0  0  0  0  0  0  0  0  0  0  0
   40.4420   34.0290   40.1340 C   0  0  0  0  0  0  0  0  0  0  0  0
   41.6010   34.1700   40.8130 N   0  0  0  0  0  0  0  0  0  0  0  0
   43.3540   35.7220   38.4720 H   0  0  0  0  0  0  0  0  0  0  0  0
   41.2460   35.4710   37.2310 H   0  0  0  0  0  0  0  0  0  0  0  0
   43.9380   34.6050   42.3350 C   0  0  1  0  0  0  0  0  0  0  0  0
   44.0940   36.1050   41.9070 C   0  0  0  0  0  0  0  0  0  0  0  0
   43.9860   34.9300   40.9410 C   0  0  2  0  0  0  0  0  0  0  0  0
   42.9530   34.4540   42.8560 H   0  0  0  0  0  0  0  0  0  0  0  0
   45.0970   36.5270   42.0180 H   0  0  0  0  0  0  0  0  0  0  0  0
   43.2220   36.7500   41.9800 H   0  0  0  0  0  0  0  0  0  0  0  0
   44.8200   34.8170   40.2520 H   0  0  0  0  0  0  0  0  0  0  0  0
   45.0890   34.0860   43.1040 C   0  0  0  0  0  0  0  0  0  0  0  0
   46.3330   34.0180   42.4550 C   0  0  0  0  0  0  0  0  0  0  0  0
   47.4280   33.5350   43.1610 C   0  0  0  0  0  0  0  0  0  0  0  0
   47.2340   33.1490   44.4520 N   0  0  0  0  0  0  0  0  0  0  0  0
   46.0390   33.2260   45.0390 C   0  0  0  0  0  0  0  0  0  0  0  0
   44.9940   33.6950   44.3480 N   0  0  0  0  0  0  0  0  0  0  0  0
   46.4840   34.3200   41.4440 H   0  0  0  0  0  0  0  0  0  0  0  0
   48.4250   33.4460   42.7440 H   0  0  0  0  0  0  0  0  0  0  0  0
   46.0310   32.7570   46.4670 C   0  0  0  0  0  0  0  0  0  0  0  0
   45.0630   33.4120   47.2070 F   0  0  0  0  0  0  0  0  0  0  0  0
   47.2680   33.0990   47.0620 F   0  0  0  0  0  0  0  0  0  0  0  0
   45.9460   31.3940   46.5030 F   0  0  0  0  0  0  0  0  0  0  0  0
   39.3450   33.3290   40.8740 C   0  0  0  0  0  0  0  0  0  0  0  0
   39.7620   32.5090   41.4930 H   0  0  0  0  0  0  0  0  0  0  0  0
   38.8180   34.0180   41.5810 H   0  0  0  0  0  0  0  0  0  0  0  0
   38.3800   32.7050   39.8900 C   0  0  0  0  0  0  0  0  0  0  0  0
   38.8820   32.7170   38.8970 H   0  0  0  0  0  0  0  0  0  0  0  0
   37.4850   33.3330   39.8110 H   0  0  0  0  0  0  0  0  0  0  0  0
   38.1920   30.3690   39.2450 C   0  0  0  0  0  0  0  0  0  0  0  0
   38.0700   31.2970   40.2470 C   0  0  0  0  0  0  0  0  0  0  0  0
   37.6770   30.8540   41.4910 C   0  0  0  0  0  0  0  0  0  0  0  0
   37.5930   31.6150   42.2530 H   0  0  0  0  0  0  0  0  0  0  0  0
   37.4140   29.5230   41.7320 C   0  0  0  0  0  0  0  0  0  0  0  0
   37.1080   29.1830   42.7100 H   0  0  0  0  0  0  0  0  0  0  0  0
   37.5570   28.6520   40.6820 C   0  0  0  0  0  3  0  0  0  0  0  0
   37.9440   29.0060   39.4060 C   0  0  0  0  0  3  0  0  0  0  0  0
   38.9120   31.0980   36.8260 N   0  0  0  0  0  0  0  0  0  0  0  0
   38.6010   30.7670   37.9060 C   0  0  0  0  0  0  0  0  0  0  0  0
  1  6  1  0  0  0  0
  1 11  1  0  0  0  0
  2  1  2  0  0  0  0
  3  4  2  0  0  0  0
  3  2  1  0  0  0  0
  4  5  1  0  0  0  0
  5  6  2  0  0  0  0
  5 28  1  0  0  0  0
  7  2  1  0  0  0  0
  8  3  1  0  0  0  0
  9 12  1  1  0  0  0
  9 16  1  0  0  0  0
 10 14  1  0  0  0  0
 10 13  1  0  0  0  0
 10  9  1  0  0  0  0
 11 15  1  6  0  0  0
 11 10  1  0  0  0  0
 11  9  1  0  0  0  0
 16 21  1  0  0  0  0
 17 16  2  0  0  0  0
 17 18  1  0  0  0  0
 18 19  2  0  0  0  0
 19 20  1  0  0  0  0
 20 24  1  0  0  0  0
 21 20  2  0  0  0  0
 22 17  1  0  0  0  0
 23 18  1  0  0  0  0
 24 27  1  0  0  0  0
 24 26  1  0  0  0  0
 24 25  1  0  0  0  0
 28 29  1  0  0  0  0
 28 30  1  0  0  0  0
 31 35  1  0  0  0  0
 31 28  1  0  0  0  0
 32 31  1  0  0  0  0
 33 31  1  0  0  0  0
 34 41  2  0  0  0  0
 34 35  1  0  0  0  0
 35 36  2  0  0  0  0
 36 38  1  0  0  0  0
 36 37  1  0  0  0  0
 38 39  1  0  0  0  0
 40 38  2  0  0  0  0
 41 40  1  0  0  0  0
 42 43  3  0  0  0  0
 43 34  1  0  0  0  0
M  END
>  <minimizedAffinity>
-5.94044065

>  <minimizedRMSD>
1.23704076

$$$$
