
 OpenBabel03242518013D

 38 40  0  0  0  0  0  0  0  0999 V2000
   46.4130   31.2640   46.0490 C   0  0  0  0  0  0  0  0  0  0  0  0
   45.4030   31.5330   46.3970 H   0  0  0  0  0  0  0  0  0  0  0  0
   46.2440   30.3400   45.4180 H   0  0  0  0  0  0  0  0  0  0  0  0
   47.1110   31.1910   48.4300 C   0  0  0  0  0  0  0  0  0  0  0  0
   47.3600   30.8820   47.0820 C   0  0  0  0  0  0  0  0  0  0  0  0
   48.5550   30.2010   46.8240 C   0  0  0  0  0  0  0  0  0  0  0  0
   49.3760   29.8880   47.8520 N   0  0  0  0  0  0  0  0  0  0  0  0
   49.0990   30.2020   49.1240 C   0  0  0  0  0  0  0  0  0  0  0  0
   47.9750   30.8470   49.4030 N   0  0  0  0  0  0  0  0  0  0  0  0
   46.2210   31.7140   48.7530 H   0  0  0  0  0  0  0  0  0  0  0  0
   48.7410   29.9670   45.7890 H   0  0  0  0  0  0  0  0  0  0  0  0
   50.3840   28.4950   50.3480 C   0  0  0  0  0  0  0  0  0  0  0  0
   50.0360   29.8290   50.1790 C   0  0  0  0  0  0  0  0  0  0  0  0
   50.5680   30.8190   51.0030 C   0  0  0  0  0  0  0  0  0  0  0  0
   50.2960   31.8590   50.8710 H   0  0  0  0  0  0  0  0  0  0  0  0
   51.4580   30.5170   52.0150 C   0  0  0  0  0  0  0  0  0  0  0  0
   51.8740   31.2760   52.6560 H   0  0  0  0  0  0  0  0  0  0  0  0
   51.7710   29.1790   52.1410 C   0  0  0  0  0  3  0  0  0  0  0  0
   51.2790   28.1600   51.3610 C   0  0  0  0  0  3  0  0  0  0  0  0
   49.3970   26.6780   48.8120 N   0  0  0  0  0  0  0  0  0  0  0  0
   49.8370   27.4870   49.5030 C   0  0  0  0  0  0  0  0  0  0  0  0
   47.0740   32.3230   45.1900 C   0  0  0  0  0  0  0  0  0  0  0  0
   47.4440   31.8490   44.2550 H   0  0  0  0  0  0  0  0  0  0  0  0
   48.0210   32.7140   45.6690 H   0  0  0  0  0  0  0  0  0  0  0  0
   46.3500   34.1580   43.7270 C   0  0  0  0  0  0  0  0  0  0  0  0
   46.2500   33.5130   44.9470 C   0  0  0  0  0  0  0  0  0  0  0  0
   45.4190   33.9230   45.9530 C   0  0  0  0  0  0  0  0  0  0  0  0
   44.6390   35.0430   45.7360 C   0  0  0  0  0  0  0  0  0  0  0  0
   44.6640   35.7460   44.5690 C   0  0  0  0  0  0  0  0  0  0  0  0
   45.5380   35.2640   43.5920 C   0  0  0  0  0  0  0  0  0  0  0  0
   45.2940   33.4800   46.9090 H   0  0  0  0  0  0  0  0  0  0  0  0
   43.9540   35.4270   46.4910 H   0  0  0  0  0  0  0  0  0  0  0  0
   44.0770   36.6220   44.3530 H   0  0  0  0  0  0  0  0  0  0  0  0
   45.5720   35.8140   42.6540 H   0  0  0  0  0  0  0  0  0  0  0  0
   47.3930   33.6700   42.4220 S   0  0  0  0  0  0  0  0  0  0  0  0
   48.8270   34.0710   42.6440 O   0  0  0  0  0  0  0  0  0  0  0  0
   46.9790   34.4100   41.1660 O   0  0  0  0  0  0  0  0  0  0  0  0
   47.2760   32.3440   42.0930 H   0  0  0  0  0  0  0  0  0  0  0  0
  1  2  1  0  0  0  0
  1  5  1  0  0  0  0
  3  1  1  0  0  0  0
  4 10  1  0  0  0  0
  4  9  1  0  0  0  0
  5  4  2  0  0  0  0
  6  5  1  0  0  0  0
  6  7  2  0  0  0  0
  7  8  1  0  0  0  0
  8  9  2  0  0  0  0
  8 13  1  0  0  0  0
 11  6  1  0  0  0  0
 12 19  1  0  0  0  0
 13 12  2  0  0  0  0
 13 14  1  0  0  0  0
 14 16  2  0  0  0  0
 15 14  1  0  0  0  0
 16 18  1  0  0  0  0
 16 17  1  0  0  0  0
 19 18  2  0  0  0  0
 20 21  3  0  0  0  0
 21 12  1  0  0  0  0
 22 24  1  0  0  0  0
 22  1  1  0  0  0  0
 23 22  1  0  0  0  0
 25 26  1  0  0  0  0
 26 22  1  0  0  0  0
 26 27  2  0  0  0  0
 27 31  1  0  0  0  0
 28 27  1  0  0  0  0
 28 32  1  0  0  0  0
 29 28  2  0  0  0  0
 30 25  2  0  0  0  0
 30 29  1  0  0  0  0
 33 29  1  0  0  0  0
 34 30  1  0  0  0  0
 35 36  2  0  0  0  0
 35 25  1  0  0  0  0
 37 35  2  0  0  0  0
 38 35  1  0  0  0  0
M  END
>  <minimizedAffinity>
-5.30725431

>  <minimizedRMSD>
0.761811376

$$$$
