
     RDKit          3D

 43 46  0  0  0  0  0  0  0  0999 V2000
   46.4462   33.8663   43.2387 C   0  0  0  0  0  0  0  0  0  0  0  0
   45.7476   34.8692   42.4355 C   0  0  0  0  0  0  0  0  0  0  0  0
   45.3382   36.0823   43.1887 C   0  0  0  0  0  0  0  0  0  0  0  0
   44.5426   35.7695   44.4444 C   0  0  0  0  0  0  0  0  0  0  0  0
   44.9896   34.5184   45.1595 C   0  0  0  0  0  0  0  0  0  0  0  0
   46.4039   34.1466   44.7519 C   0  0  0  0  0  0  0  0  0  0  0  0
   47.8685   33.7012   42.8900 C   0  0  0  0  0  0  0  0  0  0  0  0
   48.5838   34.8998   42.7133 C   0  0  0  0  0  0  0  0  0  0  0  0
   49.9490   34.8623   42.3837 C   0  0  0  0  0  0  0  0  0  0  0  0
   50.5000   33.6140   42.2550 N   0  0  0  0  0  0  0  0  0  0  0  0
   49.7738   32.4670   42.4344 C   0  0  0  0  0  0  0  0  0  0  0  0
   48.4868   32.5268   42.7447 N   0  0  0  0  0  0  0  0  0  0  0  0
   50.5281   31.2262   42.2638 C   0  0  0  0  0  0  0  0  0  0  0  0
   51.5762   31.2513   41.4107 N   0  0  0  0  0  0  0  0  0  0  0  0
   52.1523   30.0393   41.3794 C   0  0  0  0  0  0  0  0  0  0  0  0
   51.4404   29.2527   42.2334 N   0  0  0  0  0  0  0  0  0  0  0  0
   50.4429   29.9773   42.7779 N   0  0  0  0  0  0  0  0  0  0  0  0
   45.9663   32.8464   43.1568 H   0  0  0  0  0  0  0  0  0  0  0  0
   46.3071   35.1912   41.5497 H   0  0  0  0  0  0  0  0  0  0  0  0
   44.8030   34.4111   42.0190 H   0  0  0  0  0  0  0  0  0  0  0  0
   44.6154   36.6461   42.5281 H   0  0  0  0  0  0  0  0  0  0  0  0
   46.1105   36.8008   43.4448 H   0  0  0  0  0  0  0  0  0  0  0  0
   43.4434   35.7479   44.2305 H   0  0  0  0  0  0  0  0  0  0  0  0
   44.6742   36.5987   45.1707 H   0  0  0  0  0  0  0  0  0  0  0  0
   44.3075   33.6772   44.8635 H   0  0  0  0  0  0  0  0  0  0  0  0
   44.9536   34.5834   46.2535 H   0  0  0  0  0  0  0  0  0  0  0  0
   47.0787   34.9983   44.9140 H   0  0  0  0  0  0  0  0  0  0  0  0
   46.7180   33.2461   45.2929 H   0  0  0  0  0  0  0  0  0  0  0  0
   48.2317   35.9141   42.7950 H   0  0  0  0  0  0  0  0  0  0  0  0
   50.5574   35.7288   42.2337 H   0  0  0  0  0  0  0  0  0  0  0  0
   53.0087   29.6727   40.8206 H   0  0  0  0  0  0  0  0  0  0  0  0
   48.2053   27.7152   42.0635 N   0  0  0  0  0  0  0  0  0  0  0  0
   49.2894   27.3708   42.3414 C   0  0  0  0  0  0  0  0  0  0  0  0
   50.5952   26.9337   42.6648 C   0  0  0  0  0  0  0  0  0  0  0  0
   51.5966   27.8835   42.5963 C   0  0  0  0  0  0  0  0  0  0  0  0
   52.9155   27.5318   42.9009 C   0  0  0  0  0  0  0  0  0  0  0  0
   53.7500   28.2440   42.8634 H   0  0  0  0  0  0  0  0  0  0  0  0
   53.2529   26.2437   43.2739 C   0  0  0  0  0  0  0  0  0  0  0  0
   54.2798   25.9886   43.5063 H   0  0  0  0  0  0  0  0  0  0  0  0
   52.2179   25.3187   43.3306 C   0  0  0  0  0  0  0  0  0  0  0  0
   50.9066   25.6370   43.0355 C   0  0  0  0  0  0  0  0  0  0  0  0
   52.4695   24.3075   43.6212 H   0  0  0  0  0  0  0  0  0  0  0  0
   50.1060   24.8976   43.0854 H   0  0  0  0  0  0  0  0  0  0  0  0
  1  6  1  0
  2  3  1  0
  2  1  1  0
  3  4  1  0
  4  5  1  0
  6  5  1  0
  7  1  1  0
  8  7  2  0
  9  8  1  0
 10  9  2  0
 10 11  1  0
 11 12  2  0
 12  7  1  0
 13 11  1  0
 13 17  2  0
 14 13  1  0
 15 14  2  0
 15 16  1  0
 16 17  1  0
  1 18  1  0
  2 19  1  0
  2 20  1  0
  3 21  1  0
  3 22  1  0
  4 23  1  0
  4 24  1  0
  5 25  1  0
  5 26  1  0
  6 27  1  0
  6 28  1  0
  8 29  1  0
  9 30  1  0
 15 31  1  0
 32 33  3  0
 33 34  1  0
 34 35  2  0
 35 36  1  0
 36 37  1  0
 36 38  2  0
 38 39  1  0
 38 40  1  0
 40 41  2  0
 41 34  1  0
 40 42  1  0
 41 43  1  0
 16 35  1  0
M  ISO  8  18  13  19  13  20  13  21  13  22  13  23  13  24  13  25  13
M  ISO  8  26  13  27  13  28  13  29  14  30  14  31  14  37  15  39  16
M  END
>  <DihAtoms>  (1) 
14,15,34,33

>  <DihDeg>  (1) 
-118.39331007774703

$$$$
