
 OpenBabel03252507463D

 38 40  0  0  0  0  0  0  0  0999 V2000
   47.0860   34.3010   40.7850 C   0  0  0  0  0  0  0  0  0  0  0  0
   47.2540   35.0800   40.0050 H   0  0  0  0  0  0  0  0  0  0  0  0
   46.4440   33.4680   40.4320 H   0  0  0  0  0  0  0  0  0  0  0  0
   48.4120   33.8500   41.2200 C   0  0  0  0  0  0  0  0  0  0  0  0
   48.8060   32.6000   40.7670 C   0  0  0  0  0  0  0  0  0  0  0  0
   50.0490   32.0760   41.1380 C   0  0  0  0  0  0  0  0  0  0  0  0
   50.8380   32.8410   41.9530 N   0  0  0  0  0  0  0  0  0  0  0  0
   50.4090   34.0590   42.3710 C   0  0  0  0  0  0  0  0  0  0  0  0
   49.2230   34.5320   42.0020 N   0  0  0  0  0  0  0  0  0  0  0  0
   50.3210   31.1040   40.7690 H   0  0  0  0  0  0  0  0  0  0  0  0
   51.0130   34.6800   43.0150 H   0  0  0  0  0  0  0  0  0  0  0  0
   47.7480   31.6000   39.7080 S   0  0  0  0  0  0  0  0  0  0  0  0
   47.4380   32.3560   36.9450 C   0  0  0  0  0  0  0  0  0  0  0  0
   48.1520   31.8140   37.9890 C   0  0  0  0  0  0  0  0  0  0  0  0
   49.4320   31.3150   37.7130 C   0  0  0  0  0  0  0  0  0  0  0  0
   50.1330   30.8540   38.4130 H   0  0  0  0  0  0  0  0  0  0  0  0
   49.9790   31.3590   36.4340 C   0  0  0  0  0  0  0  0  0  0  0  0
   50.9440   30.9970   36.1620 H   0  0  0  0  0  0  0  0  0  0  0  0
   49.2330   31.9140   35.3930 C   0  0  0  0  0  3  0  0  0  0  0  0
   47.9850   32.3950   35.6880 C   0  0  0  0  0  3  0  0  0  0  0  0
   45.0820   33.1880   37.5750 N   0  0  0  0  0  0  0  0  0  0  0  0
   46.1480   32.8180   37.3010 C   0  0  0  0  0  0  0  0  0  0  0  0
   46.3010   34.9790   41.8780 C   0  0  0  0  0  0  0  0  0  0  0  0
   46.6300   36.0380   41.9780 H   0  0  0  0  0  0  0  0  0  0  0  0
   46.5050   34.5000   42.8650 H   0  0  0  0  0  0  0  0  0  0  0  0
   44.8240   34.9380   41.6810 C   0  0  0  0  0  0  0  0  0  0  0  0
   43.9660   35.4520   42.7010 C   0  0  0  0  0  0  0  0  0  0  0  0
   42.2900   35.1780   42.0030 S   0  0  0  0  0  0  0  0  0  0  0  0
   43.0450   34.4060   40.4320 C   0  0  0  0  0  0  0  0  0  0  0  0
   44.1600   34.4750   40.6580 N   0  0  0  0  0  0  0  0  0  0  0  0
   44.2680   35.8910   43.6480 H   0  0  0  0  0  0  0  0  0  0  0  0
   42.2740   33.9300   39.3710 O   0  0  0  0  0  0  0  0  0  0  0  0
   40.3810   34.4000   37.5820 O   0  0  0  0  0  0  0  0  0  0  0  0
   41.4580   35.0690   38.4210 P   0  0  0  0  0  0  0  0  0  0  0  0
   40.7280   36.1850   39.4560 O   0  0  0  0  0  0  0  0  0  0  0  0
   39.9000   35.7520   39.7990 H   0  0  0  0  0  0  0  0  0  0  0  0
   42.5740   35.8950   37.4410 O   0  0  0  0  0  0  0  0  0  0  0  0
   42.9100   35.3060   36.7210 H   0  0  0  0  0  0  0  0  0  0  0  0
  1  4  1  0  0  0  0
  1 23  1  0  0  0  0
  2  1  1  0  0  0  0
  3  1  1  0  0  0  0
  4  9  1  0  0  0  0
  5  6  1  0  0  0  0
  5  4  2  0  0  0  0
  6  7  2  0  0  0  0
  7  8  1  0  0  0  0
  8 11  1  0  0  0  0
  9  8  2  0  0  0  0
 10  6  1  0  0  0  0
 12  5  1  0  0  0  0
 13 22  1  0  0  0  0
 13 14  1  0  0  0  0
 14 12  1  0  0  0  0
 15 14  2  0  0  0  0
 15 16  1  0  0  0  0
 17 15  1  0  0  0  0
 18 17  1  0  0  0  0
 19 20  1  0  0  0  0
 19 17  2  0  0  0  0
 20 13  2  0  0  0  0
 22 21  3  0  0  0  0
 23 24  1  0  0  0  0
 23 25  1  0  0  0  0
 26 23  1  0  0  0  0
 26 27  2  0  0  0  0
 27 31  1  0  0  0  0
 28 27  1  0  0  0  0
 29 30  2  0  0  0  0
 29 28  1  0  0  0  0
 30 26  1  0  0  0  0
 32 29  1  0  0  0  0
 33 34  2  0  0  0  0
 34 32  1  0  0  0  0
 34 35  1  0  0  0  0
 35 36  1  0  0  0  0
 37 34  1  0  0  0  0
 38 37  1  0  0  0  0
M  END
>  <minimizedAffinity>
-4.82086658

>  <minimizedRMSD>
0.27323094

$$$$
