REMARK  Name = 
REMARK  7 active torsions:
REMARK  status: ('A' for Active; 'I' for Inactive)
REMARK    1  A    between atoms: C_1  and  C_4
REMARK    2  A    between atoms: C_3  and  C_14
REMARK    3  A    between atoms: C_8  and  C_10
REMARK    4  A    between atoms: C_18  and  C_20
REMARK    5  A    between atoms: C_20  and  C_21
REMARK    6  A    between atoms: C_21  and  C_37
REMARK    7  A    between atoms: C_35  and  C_36
REMARK                            x       y       z     vdW  Elec       q    Type
REMARK                         _______ _______ _______ _____ _____    ______ ____
ROOT
ATOM      1  C   UNL     1      42.668  34.795  40.271  0.00  0.00    +0.000 A 
ATOM      2  C   UNL     1      42.495  35.204  38.967  0.00  0.00    +0.000 A 
ATOM      3  C   UNL     1      41.308  35.076  38.297  0.00  0.00    +0.000 A 
ATOM      4  N   UNL     1      40.270  34.524  38.949  0.00  0.00    +0.000 NA
ATOM      5  C   UNL     1      40.422  34.113  40.239  0.00  0.00    +0.000 A 
ATOM      6  N   UNL     1      41.594  34.242  40.898  0.00  0.00    +0.000 NA
ATOM      7  H   UNL     1      43.364  35.646  38.477  0.00  0.00    +0.000 HD
ATOM      8  H   UNL     1      41.232  35.416  37.273  0.00  0.00    +0.000 HD
ENDROOT
BRANCH   1  11
ATOM      9  C   UNL     1      43.967  34.641  42.370  0.00  0.00    +0.000 C 
ATOM     10  C   UNL     1      44.155  36.125  41.901  0.00  0.00    +0.000 C 
ATOM     11  C   UNL     1      44.003  34.929  40.967  0.00  0.00    +0.000 C 
ATOM     12  H   UNL     1      42.986  34.528  42.908  0.00  0.00    +0.000 HD
ATOM     13  H   UNL     1      45.169  36.524  41.987  0.00  0.00    +0.000 HD
ATOM     14  H   UNL     1      43.300  36.794  41.969  0.00  0.00    +0.000 HD
ATOM     15  H   UNL     1      44.824  34.777  40.270  0.00  0.00    +0.000 HD
BRANCH   9  16
ATOM     16  C   UNL     1      45.116  34.112  43.136  0.00  0.00    +0.000 A 
ATOM     17  C   UNL     1      46.361  34.048  42.489  0.00  0.00    +0.000 A 
ATOM     18  C   UNL     1      47.453  33.556  43.192  0.00  0.00    +0.000 A 
ATOM     19  N   UNL     1      47.256  33.159  44.479  0.00  0.00    +0.000 NA
ATOM     20  C   UNL     1      46.060  33.233  45.065  0.00  0.00    +0.000 A 
ATOM     21  N   UNL     1      45.018  33.710  44.376  0.00  0.00    +0.000 NA
ATOM     22  H   UNL     1      46.514  34.359  41.481  0.00  0.00    +0.000 HD
ATOM     23  H   UNL     1      48.451  33.469  42.776  0.00  0.00    +0.000 HD
BRANCH  20  24
ATOM     24  C   UNL     1      46.049  32.751  46.488  0.00  0.00    +0.000 C 
ATOM     25  F   UNL     1      45.087  33.407  47.235  0.00  0.00    +0.000 F 
ATOM     26  F   UNL     1      47.289  33.077  47.086  0.00  0.00    +0.000 F 
ATOM     27  F   UNL     1      45.953  31.388  46.512  0.00  0.00    +0.000 F 
ENDBRANCH  20  24
ENDBRANCH   9  16
ENDBRANCH   1  11
BRANCH   5  28
ATOM     28  C   UNL     1      39.313  33.478  41.019  0.00  0.00    +0.000 C 
ATOM     29  H   UNL     1      39.725  32.764  41.760  0.00  0.00    +0.000 HD
ATOM     30  H   UNL     1      38.732  34.235  41.603  0.00  0.00    +0.000 HD
BRANCH  28  31
ATOM     31  C   UNL     1      38.415  32.693  40.087  0.00  0.00    +0.000 C 
ATOM     32  H   UNL     1      39.045  31.900  39.627  0.00  0.00    +0.000 HD
ATOM     33  H   UNL     1      38.071  33.348  39.278  0.00  0.00    +0.000 HD
BRANCH  31  35
ATOM     34  C   UNL     1      36.807  30.882  40.287  0.00  0.00    +0.000 A 
ATOM     35  C   UNL     1      37.299  32.044  40.822  0.00  0.00    +0.000 A 
ATOM     36  C   UNL     1      36.729  32.510  41.986  0.00  0.00    +0.000 A 
ATOM     37  H   UNL     1      37.145  33.428  42.376  0.00  0.00    +0.000 HD
ATOM     38  C   UNL     1      35.696  31.837  42.603  0.00  0.00    +0.000 A 
ATOM     39  H   UNL     1      35.255  32.208  43.515  0.00  0.00    +0.000 HD
ATOM     40  C   UNL     1      35.255  30.681  42.010  0.00  0.00    +0.000 A 
ATOM     41  C   UNL     1      35.766  30.142  40.847  0.00  0.00    +0.000 A 
BRANCH  34  43
ATOM     42  N   UNL     1      37.800  29.908  38.059  0.00  0.00    +0.000 NA
ATOM     43  C   UNL     1      37.361  30.333  39.058  0.00  0.00    +0.000 C 
ENDBRANCH  34  43
ENDBRANCH  31  35
ENDBRANCH  28  31
ENDBRANCH   5  28
TORSDOF 7
