
 OpenBabel03252503273D

 26 27  0  0  0  0  0  0  0  0999 V2000
   44.7940   34.1850   42.6970 C   0  0  0  0  0  0  0  0  0  0  0  0
   45.7980   34.7240   41.8810 C   0  0  0  0  0  0  0  0  0  0  0  0
   47.1080   34.2670   42.1210 C   0  0  0  0  0  0  0  0  0  0  0  0
   47.2880   33.3500   43.1060 N   0  0  0  0  0  0  0  0  0  0  0  0
   46.2990   32.8580   43.8600 C   0  0  0  0  0  0  0  0  0  0  0  0
   45.0420   33.2800   43.6550 N   0  0  0  0  0  0  0  0  0  0  0  0
   42.8510   33.9950   41.3880 C   0  0  0  0  0  0  0  0  0  0  0  0
   43.5730   33.2320   40.6700 O   0  0  0  0  0  0  0  0  0  0  0  0
   43.4380   34.5940   42.5290 N   0  0  0  0  0  0  0  0  0  0  0  0
   45.5880   35.4350   41.1220 H   0  0  0  0  0  0  0  0  0  0  0  0
   46.4580   32.1110   44.6400 H   0  0  0  0  0  0  0  0  0  0  0  0
   42.7900   35.2260   43.0570 H   0  0  0  0  0  0  0  0  0  0  0  0
   40.4270   33.2440   41.1080 C   0  0  0  0  0  0  0  0  0  0  0  0
   41.4750   34.1190   40.8850 C   0  0  0  0  0  0  0  0  0  0  0  0
   41.3030   35.2490   40.1130 C   0  0  0  0  0  0  0  0  0  0  0  0
   42.0500   35.9970   39.8720 H   0  0  0  0  0  0  0  0  0  0  0  0
   40.0430   35.5000   39.5540 C   0  0  0  0  0  0  0  0  0  0  0  0
   39.8410   36.3620   38.9470 H   0  0  0  0  0  0  0  0  0  0  0  0
   38.9890   34.6350   39.7670 C   0  0  0  0  0  3  0  0  0  0  0  0
   39.1920   33.5170   40.5410 C   0  0  0  0  0  3  0  0  0  0  0  0
   40.9340   31.1550   42.5740 N   0  0  0  0  0  0  0  0  0  0  0  0
   40.7150   32.0940   41.9220 C   0  0  0  0  0  0  0  0  0  0  0  0
   48.1390   34.8390   41.2660 C   0  0  0  0  0  0  0  0  0  0  0  0
   49.3080   34.0970   41.3860 F   0  0  0  0  0  0  0  0  0  0  0  0
   48.4420   36.0930   41.7660 F   0  0  0  0  0  0  0  0  0  0  0  0
   47.8020   34.8510   39.9450 F   0  0  0  0  0  0  0  0  0  0  0  0
  1  6  1  0  0  0  0
  2  3  1  0  0  0  0
  2  1  2  0  0  0  0
  3  4  2  0  0  0  0
  4  5  1  0  0  0  0
  5 11  1  0  0  0  0
  6  5  2  0  0  0  0
  7  9  1  0  0  0  0
  8  7  2  0  0  0  0
  9  1  1  0  0  0  0
  9 12  1  0  0  0  0
 10  2  1  0  0  0  0
 13 22  1  0  0  0  0
 14 13  1  0  0  0  0
 14  7  1  0  0  0  0
 15 14  2  0  0  0  0
 16 15  1  0  0  0  0
 17 19  2  0  0  0  0
 17 15  1  0  0  0  0
 18 17  1  0  0  0  0
 19 20  1  0  0  0  0
 20 13  2  0  0  0  0
 22 21  3  0  0  0  0
 23 24  1  0  0  0  0
 23 25  1  0  0  0  0
 23  3  1  0  0  0  0
 26 23  1  0  0  0  0
M  END
>  <minimizedAffinity>
-6.07961512

>  <minimizedRMSD>
2.28029132

$$$$
