
 OpenBabel03252509233D

 28 30  0  0  1  0  0  0  0  0999 V2000
   46.5320   35.0770   41.9470 C   0  0  1  0  0  0  0  0  0  0  0  0
   48.0740   35.2160   41.9070 C   0  0  0  0  0  0  0  0  0  0  0  0
   47.2550   34.0510   41.2900 C   0  0  2  0  0  0  0  0  0  0  0  0
   46.0040   35.9020   41.4420 H   0  0  0  0  0  0  0  0  0  0  0  0
   48.6610   34.9960   42.7920 H   0  0  0  0  0  0  0  0  0  0  0  0
   48.4220   35.9900   41.2000 H   0  0  0  0  0  0  0  0  0  0  0  0
   47.4560   33.0730   41.7730 H   0  0  0  0  0  0  0  0  0  0  0  0
   44.6660   35.3760   45.1940 C   0  0  0  0  0  0  0  0  0  0  0  0
   45.1170   35.6970   43.8880 C   0  0  0  0  0  0  0  0  0  0  0  0
   46.0620   34.8520   43.3720 C   0  0  0  0  0  0  0  0  0  0  0  0
   46.5390   33.7670   44.0820 N   0  0  0  0  0  0  0  0  0  0  0  0
   46.0840   33.4990   45.3200 C   0  0  0  0  0  0  0  0  0  0  0  0
   45.1440   34.3040   45.8800 N   0  0  0  0  0  0  0  0  0  0  0  0
   43.9160   36.0410   45.6090 H   0  0  0  0  0  0  0  0  0  0  0  0
   46.4310   32.6620   45.9060 H   0  0  0  0  0  0  0  0  0  0  0  0
   44.6470   36.8330   43.1660 N   0  0  0  0  0  0  0  0  0  0  0  0
   43.8440   36.9410   42.5390 H   0  0  0  0  0  0  0  0  0  0  0  0
   45.3330   37.5830   43.4260 H   0  0  0  0  0  0  0  0  0  0  0  0
   46.3190   33.2360   39.1100 C   0  0  0  0  0  0  0  0  0  0  0  0
   47.2890   33.9340   39.8040 C   0  0  0  0  0  0  0  0  0  0  0  0
   48.3420   34.5590   39.1370 C   0  0  0  0  0  0  0  0  0  0  0  0
   49.1310   35.1210   39.6450 H   0  0  0  0  0  0  0  0  0  0  0  0
   48.4140   34.4750   37.7460 C   0  0  0  0  0  0  0  0  0  0  0  0
   49.2290   34.9550   37.1960 H   0  0  0  0  0  0  0  0  0  0  0  0
   47.4330   33.7720   37.0730 C   0  0  0  0  0  3  0  0  0  0  0  0
   46.3780   33.1450   37.7180 C   0  0  0  0  0  3  0  0  0  0  0  0
   44.3710   32.0810   40.3800 N   0  0  0  0  0  0  0  0  0  0  0  0
   45.2460   32.6030   39.8130 C   0  0  0  0  0  0  0  0  0  0  0  0
  1  4  1  6  0  0  0
  1 10  1  0  0  0  0
  2  1  1  0  0  0  0
  2  5  1  0  0  0  0
  3  7  1  1  0  0  0
  3  2  1  0  0  0  0
  3  1  1  0  0  0  0
  6  2  1  0  0  0  0
  8 14  1  0  0  0  0
  8 13  1  0  0  0  0
  9  8  2  0  0  0  0
 10  9  1  0  0  0  0
 10 11  2  0  0  0  0
 11 12  1  0  0  0  0
 12 13  2  0  0  0  0
 12 15  1  0  0  0  0
 16 18  1  0  0  0  0
 16  9  1  0  0  0  0
 17 16  1  0  0  0  0
 19 20  1  0  0  0  0
 19 28  1  0  0  0  0
 20  3  1  0  0  0  0
 21 22  1  0  0  0  0
 21 20  2  0  0  0  0
 23 21  1  0  0  0  0
 24 23  1  0  0  0  0
 25 26  1  0  0  0  0
 25 23  2  0  0  0  0
 26 19  2  0  0  0  0
 28 27  3  0  0  0  0
M  END
>  <minimizedAffinity>
-5.41750669

>  <minimizedRMSD>
0.420627147

$$$$
