
 OpenBabel03252505433D

 43 46  0  0  1  0  0  0  0  0999 V2000
   42.0300   34.6220   39.0930 C   0  0  0  0  0  0  0  0  0  0  0  0
   42.1810   35.6540   38.1930 C   0  0  0  0  0  0  0  0  0  0  0  0
   41.1870   36.0480   37.3370 C   0  0  0  0  0  0  0  0  0  0  0  0
   40.0140   35.3920   37.3840 N   0  0  0  0  0  0  0  0  0  0  0  0
   39.8460   34.3680   38.2680 C   0  0  0  0  0  0  0  0  0  0  0  0
   40.8280   33.9830   39.1120 N   0  0  0  0  0  0  0  0  0  0  0  0
   43.1480   36.1570   38.1890 H   0  0  0  0  0  0  0  0  0  0  0  0
   41.3640   36.8660   36.6520 H   0  0  0  0  0  0  0  0  0  0  0  0
   44.1190   33.3310   39.3850 C   0  0  1  0  0  0  0  0  0  0  0  0
   43.1430   32.7450   40.4630 C   0  0  0  0  0  0  0  0  0  0  0  0
   43.1610   34.1990   40.0020 C   0  0  2  0  0  0  0  0  0  0  0  0
   43.9100   32.8650   38.3820 H   0  0  0  0  0  0  0  0  0  0  0  0
   43.5800   32.5630   41.4480 H   0  0  0  0  0  0  0  0  0  0  0  0
   42.3050   32.1420   40.1190 H   0  0  0  0  0  0  0  0  0  0  0  0
   43.3260   34.9330   40.7870 H   0  0  0  0  0  0  0  0  0  0  0  0
   45.5430   33.2600   39.7750 C   0  0  0  0  0  0  0  0  0  0  0  0
   46.2640   32.1090   39.4150 C   0  0  0  0  0  0  0  0  0  0  0  0
   47.6040   32.0240   39.7710 C   0  0  0  0  0  0  0  0  0  0  0  0
   48.1500   33.0670   40.4540 N   0  0  0  0  0  0  0  0  0  0  0  0
   47.4370   34.1470   40.7800 C   0  0  0  0  0  0  0  0  0  0  0  0
   46.1480   34.2150   40.4300 N   0  0  0  0  0  0  0  0  0  0  0  0
   45.8360   31.2920   38.8810 H   0  0  0  0  0  0  0  0  0  0  0  0
   48.2390   31.1760   39.5370 H   0  0  0  0  0  0  0  0  0  0  0  0
   48.2200   35.1890   41.5280 C   0  0  0  0  0  0  0  0  0  0  0  0
   48.9420   35.9930   40.6650 F   0  0  0  0  0  0  0  0  0  0  0  0
   49.1770   34.5390   42.3410 F   0  0  0  0  0  0  0  0  0  0  0  0
   47.3890   35.8690   42.3740 F   0  0  0  0  0  0  0  0  0  0  0  0
   38.5730   33.5870   38.3640 C   0  0  0  0  0  0  0  0  0  0  0  0
   37.7830   34.1980   38.8440 H   0  0  0  0  0  0  0  0  0  0  0  0
   38.1820   33.3070   37.3530 H   0  0  0  0  0  0  0  0  0  0  0  0
   38.7860   32.3640   39.2300 C   0  0  0  0  0  0  0  0  0  0  0  0
   38.0170   32.4020   40.0330 H   0  0  0  0  0  0  0  0  0  0  0  0
   39.7680   32.4290   39.7140 H   0  0  0  0  0  0  0  0  0  0  0  0
   37.9670   30.0800   39.1030 C   0  0  0  0  0  0  0  0  0  0  0  0
   38.6030   31.1090   38.4580 C   0  0  0  0  0  0  0  0  0  0  0  0
   39.0140   30.9000   37.1590 C   0  0  0  0  0  0  0  0  0  0  0  0
   39.5110   31.7350   36.6860 H   0  0  0  0  0  0  0  0  0  0  0  0
   38.7980   29.6990   36.5180 C   0  0  0  0  0  0  0  0  0  0  0  0
   39.1220   29.5440   35.5010 H   0  0  0  0  0  0  0  0  0  0  0  0
   38.1560   28.7150   37.2260 C   0  0  0  0  0  3  0  0  0  0  0  0
   37.7090   28.8350   38.5270 C   0  0  0  0  0  3  0  0  0  0  0  0
   37.1220   30.3410   41.5750 N   0  0  0  0  0  0  0  0  0  0  0  0
   37.5080   30.2300   40.4750 C   0  0  0  0  0  0  0  0  0  0  0  0
  1  6  1  0  0  0  0
  1 11  1  0  0  0  0
  2  1  2  0  0  0  0
  3  4  2  0  0  0  0
  3  2  1  0  0  0  0
  4  5  1  0  0  0  0
  5 28  1  0  0  0  0
  5  6  2  0  0  0  0
  7  2  1  0  0  0  0
  8  3  1  0  0  0  0
  9 12  1  6  0  0  0
  9 16  1  0  0  0  0
  9 11  1  0  0  0  0
  9 10  1  0  0  0  0
 10 13  1  0  0  0  0
 11 10  1  0  0  0  0
 11 15  1  1  0  0  0
 14 10  1  0  0  0  0
 16 21  1  0  0  0  0
 17 18  1  0  0  0  0
 17 16  2  0  0  0  0
 18 19  2  0  0  0  0
 19 20  1  0  0  0  0
 20 24  1  0  0  0  0
 21 20  2  0  0  0  0
 22 17  1  0  0  0  0
 23 18  1  0  0  0  0
 24 26  1  0  0  0  0
 24 27  1  0  0  0  0
 25 24  1  0  0  0  0
 28 29  1  0  0  0  0
 28 31  1  0  0  0  0
 30 28  1  0  0  0  0
 31 33  1  0  0  0  0
 31 32  1  0  0  0  0
 34 43  1  0  0  0  0
 35 34  2  0  0  0  0
 35 31  1  0  0  0  0
 36 35  1  0  0  0  0
 37 36  1  0  0  0  0
 38 36  2  0  0  0  0
 38 40  1  0  0  0  0
 39 38  1  0  0  0  0
 40 41  2  0  0  0  0
 41 34  1  0  0  0  0
 43 42  3  0  0  0  0
M  END
>  <minimizedAffinity>
-6.0815177

>  <minimizedRMSD>
4.06639338

$$$$
