
     RDKit          3D

 42 45  0  0  0  0  0  0  0  0999 V2000
   46.6420   34.7959   42.1278 C   0  0  0  0  0  0  0  0  0  0  0  0
   47.8795   35.4214   42.0180 C   0  0  0  0  0  0  0  0  0  0  0  0
   48.7057   35.3480   40.9197 C   0  0  0  0  0  0  0  0  0  0  0  0
   48.3226   34.6133   39.8238 C   0  0  0  0  0  0  0  0  0  0  0  0
   47.1010   33.9638   39.8648 C   0  0  0  0  0  0  0  0  0  0  0  0
   46.6674   33.2212   38.8117 C   0  0  0  0  0  0  0  0  0  0  0  0
   45.4610   32.5533   38.8001 C   0  0  0  0  0  0  0  0  0  0  0  0
   44.6751   32.6751   39.9548 C   0  0  0  0  0  0  0  0  0  0  0  0
   45.1619   33.4426   40.9984 C   0  0  0  0  0  0  0  0  0  0  0  0
   46.3412   34.0836   40.9845 C   0  0  0  0  0  0  0  0  0  0  0  0
   44.4368   36.0595   44.8713 C   0  0  0  0  0  0  0  0  0  0  0  0
   45.0700   36.0163   43.6341 C   0  0  0  0  0  0  0  0  0  0  0  0
   45.9335   34.9792   43.3324 C   0  0  0  0  0  0  0  0  0  0  0  0
   46.0818   34.0567   44.3378 N   0  0  0  0  0  0  0  0  0  0  0  0
   45.4775   34.1033   45.5123 C   0  0  0  0  0  0  0  0  0  0  0  0
   44.6566   35.1146   45.7612 N   0  0  0  0  0  0  0  0  0  0  0  0
   45.8202   32.9674   46.4275 C   0  0  0  0  0  0  0  0  0  0  0  0
   44.9932   32.9314   47.5168 F   0  0  0  0  0  0  0  0  0  0  0  0
   47.1464   33.0564   46.8157 F   0  0  0  0  0  0  0  0  0  0  0  0
   45.7690   31.7716   45.6929 F   0  0  0  0  0  0  0  0  0  0  0  0
   44.2325   33.4532   42.0815 N   0  0  0  0  0  0  0  0  0  0  0  0
   48.2804   36.0278   42.8254 H   0  0  0  0  0  0  0  0  0  0  0  0
   49.6602   35.8472   40.8709 H   0  0  0  0  0  0  0  0  0  0  0  0
   48.9569   34.5508   38.9679 H   0  0  0  0  0  0  0  0  0  0  0  0
   47.2865   33.1312   37.9156 H   0  0  0  0  0  0  0  0  0  0  0  0
   45.1353   31.9677   37.9510 H   0  0  0  0  0  0  0  0  0  0  0  0
   43.7490   32.1478   39.9159 H   0  0  0  0  0  0  0  0  0  0  0  0
   43.7701   36.8900   45.0606 H   0  0  0  0  0  0  0  0  0  0  0  0
   44.0680   32.8482   42.9113 H   0  0  0  0  0  0  0  0  0  0  0  0
   43.4388   34.0634   42.3529 H   0  0  0  0  0  0  0  0  0  0  0  0
   42.2525   34.6681   42.0769 N   0  0  0  0  0  0  0  0  0  0  0  0
   42.8998   35.6195   41.9977 C   0  0  0  0  0  0  0  0  0  0  0  0
   43.7091   36.7999   41.8752 C   0  0  0  0  0  0  0  0  0  0  0  0
   44.8267   37.0671   42.6758 C   0  0  0  0  0  0  0  0  0  0  0  0
   45.4946   38.2441   42.4280 C   0  0  0  0  0  0  0  0  0  0  0  0
   46.3449   38.3902   43.0726 H   0  0  0  0  0  0  0  0  0  0  0  0
   45.1185   39.1425   41.4541 C   0  0  0  0  0  0  0  0  0  0  0  0
   45.7072   40.0204   41.3506 H   0  0  0  0  0  0  0  0  0  0  0  0
   44.0163   38.8666   40.6736 C   0  0  0  0  0  0  0  0  0  0  0  0
   43.3180   37.7003   40.8859 C   0  0  0  0  0  0  0  0  0  0  0  0
   43.7140   39.5786   39.8975 H   0  0  0  0  0  0  0  0  0  0  0  0
   42.4431   37.5124   40.2432 H   0  0  0  0  0  0  0  0  0  0  0  0
  1 13  1  0
  2  1  2  0
  3  2  1  0
  4  5  1  0
  4  3  2  0
  5 10  2  0
  6  5  1  0
  7  6  2  0
  7  8  1  0
  8  9  2  0
  9 21  1  0
 10  9  1  0
 10  1  1  0
 11 16  2  0
 12 11  1  0
 13 12  2  0
 13 14  1  0
 14 15  2  0
 15 16  1  0
 15 17  1  0
 17 19  1  0
 17 18  1  0
 20 17  1  0
  2 22  1  0
  3 23  1  0
  4 24  1  0
  6 25  1  0
  7 26  1  0
  8 27  1  0
 11 28  1  0
 21 29  1  0
 21 30  1  0
 31 32  3  0
 32 33  1  0
 33 34  2  0
 34 35  1  0
 35 36  1  0
 35 37  2  0
 37 38  1  0
 37 39  1  0
 39 40  2  0
 40 33  1  0
 39 41  1  0
 40 42  1  0
 12 34  1  0
M  ISO  8  22  14  23  14  24  14  25  14  26  14  27  14  28  14  36  15
M  ISO  1  38  16
M  END
>  <DihAtoms>  (1) 
10,11,33,32

>  <DihDeg>  (1) 
62.36516649871715

$$$$
