
 OpenBabel03252506063D

 44 48  0  0  0  0  0  0  0  0999 V2000
   44.6960   35.8760   43.3780 Cl  0  0  0  0  0  0  0  0  0  0  0  0
   45.4700   34.6440   44.3130 C   0  0  0  0  0  0  0  0  0  0  0  0
   46.5280   33.9280   43.7790 C   0  0  0  0  0  0  0  0  0  0  0  0
   47.0660   32.9710   44.6160 C   0  0  0  0  0  0  0  0  0  0  0  0
   46.6380   32.6940   45.8930 C   0  0  0  0  0  0  0  0  0  0  0  0
   45.5920   33.4240   46.3800 C   0  0  0  0  0  0  0  0  0  0  0  0
   45.0700   33.0450   48.0120 Cl  0  0  0  0  0  0  0  0  0  0  0  0
   45.0090   34.3910   45.6020 C   0  0  0  0  0  0  0  0  0  0  0  0
   47.9070   32.4070   44.1840 H   0  0  0  0  0  0  0  0  0  0  0  0
   44.1820   34.9520   46.0180 H   0  0  0  0  0  0  0  0  0  0  0  0
   47.3530   31.6320   46.6130 C   0  0  0  0  0  0  0  0  0  0  0  0
   47.4760   30.3470   46.1350 C   0  0  0  0  0  0  0  0  0  0  0  0
   48.1400   29.3390   46.7930 C   0  0  0  0  0  0  0  0  0  0  0  0
   48.7280   29.6200   48.0170 C   0  0  0  0  0  0  0  0  0  0  0  0
   49.3720   28.6160   48.6410 N   0  0  0  0  0  0  0  0  0  0  0  0
   49.9730   28.7890   49.8290 C   0  0  0  0  0  0  0  0  0  0  0  0
   49.8990   30.0580   50.3900 C   0  0  0  0  0  0  0  0  0  0  0  0
   49.2420   31.0820   49.7540 C   0  0  0  0  0  0  0  0  0  0  0  0
   48.6300   30.8830   48.5290 C   0  0  0  0  0  0  0  0  0  0  0  0
   47.9570   31.8760   47.8490 C   0  0  0  0  0  0  0  0  0  0  0  0
   47.0190   30.1210   45.1800 H   0  0  0  0  0  0  0  0  0  0  0  0
   48.1900   28.3620   46.3490 H   0  0  0  0  0  0  0  0  0  0  0  0
   50.4830   27.9710   50.3110 H   0  0  0  0  0  0  0  0  0  0  0  0
   50.3910   30.1800   51.3520 H   0  0  0  0  0  0  0  0  0  0  0  0
   49.1920   32.0660   50.1990 H   0  0  0  0  0  0  0  0  0  0  0  0
   47.8950   32.8670   48.2770 H   0  0  0  0  0  0  0  0  0  0  0  0
   48.5960   35.1500   41.0470 C   0  0  0  0  0  0  0  0  0  0  0  0
   47.9790   34.6030   39.9120 C   0  0  0  0  0  0  0  0  0  0  0  0
   46.8350   33.8030   40.0870 C   0  0  0  0  0  0  0  0  0  0  0  0
   46.4420   33.6410   41.3650 N   0  0  0  0  0  0  0  0  0  0  0  0
   47.0350   34.1650   42.4420 C   0  0  0  0  0  0  0  0  0  0  0  0
   48.1220   34.9270   42.2930 N   0  0  0  0  0  0  0  0  0  0  0  0
   49.4550   35.7460   40.8620 H   0  0  0  0  0  0  0  0  0  0  0  0
   48.3590   34.7840   38.9410 H   0  0  0  0  0  0  0  0  0  0  0  0
   46.6890   33.2940   37.7230 C   0  0  0  0  0  0  0  0  0  0  0  0
   46.1260   33.1930   38.9770 C   0  0  0  0  0  0  0  0  0  0  0  0
   44.9300   32.5270   39.1250 C   0  0  0  0  0  0  0  0  0  0  0  0
   44.4650   32.4280   40.0720 H   0  0  0  0  0  0  0  0  0  0  0  0
   44.2540   31.9430   38.0510 C   0  0  0  0  0  0  0  0  0  0  0  0
   43.3280   31.4250   38.1540 H   0  0  0  0  0  0  0  0  0  0  0  0
   44.8010   32.0320   36.7820 C   0  0  0  0  0  0  0  0  0  0  0  0
   46.0070   32.7070   36.6520 C   0  0  0  0  0  0  0  0  0  0  0  0
   48.9310   34.5120   37.2850 N   0  0  0  0  0  0  0  0  0  0  0  0
   47.9350   33.9710   37.4720 C   0  0  0  0  0  0  0  0  0  0  0  0
  1  2  1  0  0  0  0
  2  8  1  0  0  0  0
  3  2  2  0  0  0  0
  3  4  1  0  0  0  0
  4  5  2  0  0  0  0
  5  6  1  0  0  0  0
  5 11  1  0  0  0  0
  6  7  1  0  0  0  0
  8 10  1  0  0  0  0
  8  6  2  0  0  0  0
  9  4  1  0  0  0  0
 11 20  1  0  0  0  0
 12 11  2  0  0  0  0
 12 13  1  0  0  0  0
 13 14  2  0  0  0  0
 14 19  1  0  0  0  0
 14 15  1  0  0  0  0
 15 16  2  0  0  0  0
 16 23  1  0  0  0  0
 16 17  1  0  0  0  0
 17 24  1  0  0  0  0
 18 25  1  0  0  0  0
 18 17  2  0  0  0  0
 19 18  1  0  0  0  0
 20 26  1  0  0  0  0
 20 19  2  0  0  0  0
 21 12  1  0  0  0  0
 22 13  1  0  0  0  0
 27 32  1  0  0  0  0
 28 29  1  0  0  0  0
 28 27  2  0  0  0  0
 29 30  2  0  0  0  0
 30 31  1  0  0  0  0
 31  3  1  0  0  0  0
 32 31  2  0  0  0  0
 33 27  1  0  0  0  0
 34 28  1  0  0  0  0
 35 36  1  0  0  0  0
 36 37  2  0  0  0  0
 36 29  1  0  0  0  0
 37 38  1  0  0  0  0
 39 40  1  0  0  0  0
 39 37  1  0  0  0  0
 41 39  2  0  0  0  0
 42 41  1  0  0  0  0
 42 35  2  0  0  0  0
 43 44  3  0  0  0  0
 44 35  1  0  0  0  0
M  END
>  <minimizedAffinity>
-7.30322886

>  <minimizedRMSD>
0.461834669

$$$$
