
 OpenBabel03252506053D

 44 48  0  0  0  0  0  0  0  0999 V2000
   44.7340   35.9020   43.3490 Cl  0  0  0  0  0  0  0  0  0  0  0  0
   45.5010   34.6660   44.2830 C   0  0  0  0  0  0  0  0  0  0  0  0
   46.5720   33.9620   43.7600 C   0  0  0  0  0  0  0  0  0  0  0  0
   47.1030   33.0000   44.5960 C   0  0  0  0  0  0  0  0  0  0  0  0
   46.6550   32.7080   45.8630 C   0  0  0  0  0  0  0  0  0  0  0  0
   45.5960   33.4250   46.3400 C   0  0  0  0  0  0  0  0  0  0  0  0
   45.0500   33.0260   47.9590 Cl  0  0  0  0  0  0  0  0  0  0  0  0
   45.0200   34.3960   45.5620 C   0  0  0  0  0  0  0  0  0  0  0  0
   47.9540   32.4460   44.1720 H   0  0  0  0  0  0  0  0  0  0  0  0
   44.1820   34.9470   45.9700 H   0  0  0  0  0  0  0  0  0  0  0  0
   47.3660   31.6430   46.5840 C   0  0  0  0  0  0  0  0  0  0  0  0
   47.5010   30.3620   46.0970 C   0  0  0  0  0  0  0  0  0  0  0  0
   48.1610   29.3520   46.7560 C   0  0  0  0  0  0  0  0  0  0  0  0
   48.7320   29.6270   47.9900 C   0  0  0  0  0  0  0  0  0  0  0  0
   49.3720   28.6200   48.6140 N   0  0  0  0  0  0  0  0  0  0  0  0
   49.9570   28.7860   49.8110 C   0  0  0  0  0  0  0  0  0  0  0  0
   49.8700   30.0510   50.3810 C   0  0  0  0  0  0  0  0  0  0  0  0
   49.2170   31.0760   49.7440 C   0  0  0  0  0  0  0  0  0  0  0  0
   48.6220   30.8840   48.5100 C   0  0  0  0  0  0  0  0  0  0  0  0
   47.9530   31.8800   47.8290 C   0  0  0  0  0  0  0  0  0  0  0  0
   47.0570   30.1410   45.1350 H   0  0  0  0  0  0  0  0  0  0  0  0
   48.2200   28.3790   46.3050 H   0  0  0  0  0  0  0  0  0  0  0  0
   50.4650   27.9670   50.2940 H   0  0  0  0  0  0  0  0  0  0  0  0
   50.3490   30.1680   51.3500 H   0  0  0  0  0  0  0  0  0  0  0  0
   49.1570   32.0570   50.1960 H   0  0  0  0  0  0  0  0  0  0  0  0
   47.8810   32.8680   48.2630 H   0  0  0  0  0  0  0  0  0  0  0  0
   48.5790   35.3450   41.0590 C   0  0  0  0  0  0  0  0  0  0  0  0
   48.0830   34.6850   39.9240 C   0  0  0  0  0  0  0  0  0  0  0  0
   47.0440   33.7520   40.0890 C   0  0  0  0  0  0  0  0  0  0  0  0
   46.6220   33.5850   41.3570 N   0  0  0  0  0  0  0  0  0  0  0  0
   47.0990   34.2160   42.4330 C   0  0  0  0  0  0  0  0  0  0  0  0
   48.0860   35.1060   42.2950 N   0  0  0  0  0  0  0  0  0  0  0  0
   49.3620   36.0400   40.8830 H   0  0  0  0  0  0  0  0  0  0  0  0
   48.4770   34.8800   38.9620 H   0  0  0  0  0  0  0  0  0  0  0  0
   45.0990   33.0930   38.8040 C   0  0  0  0  0  0  0  0  0  0  0  0
   46.4640   33.0190   38.9790 C   0  0  0  0  0  0  0  0  0  0  0  0
   47.2130   32.2600   38.1050 C   0  0  0  0  0  0  0  0  0  0  0  0
   48.2640   32.1770   38.2070 H   0  0  0  0  0  0  0  0  0  0  0  0
   46.6470   31.5580   37.0400 C   0  0  0  0  0  0  0  0  0  0  0  0
   47.2160   30.9680   36.3580 H   0  0  0  0  0  0  0  0  0  0  0  0
   45.2760   31.6190   36.8460 C   0  0  0  0  0  3  0  0  0  0  0  0
   44.5380   32.3860   37.7330 C   0  0  0  0  0  3  0  0  0  0  0  0
   43.5580   34.4760   40.3580 N   0  0  0  0  0  0  0  0  0  0  0  0
   44.2370   33.8600   39.6650 C   0  0  0  0  0  0  0  0  0  0  0  0
  1  2  1  0  0  0  0
  2  8  1  0  0  0  0
  3  2  2  0  0  0  0
  3  4  1  0  0  0  0
  4  5  2  0  0  0  0
  5  6  1  0  0  0  0
  5 11  1  0  0  0  0
  6  7  1  0  0  0  0
  8 10  1  0  0  0  0
  8  6  2  0  0  0  0
  9  4  1  0  0  0  0
 11 20  1  0  0  0  0
 12 11  2  0  0  0  0
 12 13  1  0  0  0  0
 13 14  2  0  0  0  0
 14 19  1  0  0  0  0
 14 15  1  0  0  0  0
 15 16  2  0  0  0  0
 16 23  1  0  0  0  0
 16 17  1  0  0  0  0
 17 24  1  0  0  0  0
 18 25  1  0  0  0  0
 18 17  2  0  0  0  0
 19 18  1  0  0  0  0
 20 26  1  0  0  0  0
 20 19  2  0  0  0  0
 21 12  1  0  0  0  0
 22 13  1  0  0  0  0
 27 32  1  0  0  0  0
 28 29  1  0  0  0  0
 28 27  2  0  0  0  0
 29 30  2  0  0  0  0
 30 31  1  0  0  0  0
 31  3  1  0  0  0  0
 32 31  2  0  0  0  0
 33 27  1  0  0  0  0
 34 28  1  0  0  0  0
 35 36  1  0  0  0  0
 35 44  1  0  0  0  0
 36 29  1  0  0  0  0
 37 38  1  0  0  0  0
 37 36  2  0  0  0  0
 39 37  1  0  0  0  0
 40 39  1  0  0  0  0
 41 39  2  0  0  0  0
 41 42  1  0  0  0  0
 42 35  2  0  0  0  0
 44 43  3  0  0  0  0
M  END
>  <minimizedAffinity>
-7.02267218

>  <minimizedRMSD>
0.753734529

$$$$
