
 OpenBabel03242514303D

 39 42  0  0  0  0  0  0  0  0999 V2000
   49.2360   33.7900   37.3070 Cl  0  0  0  0  0  0  0  0  0  0  0  0
   47.8210   32.7770   37.4710 C   0  0  0  0  0  0  0  0  0  0  0  0
   47.1530   32.7520   38.6470 C   0  0  0  0  0  0  0  0  0  0  0  0
   46.1490   31.8020   38.7170 C   0  0  0  0  0  0  0  0  0  0  0  0
   45.8130   30.9310   37.7010 C   0  0  0  0  0  0  0  0  0  0  0  0
   46.5300   31.0070   36.5170 C   0  0  0  0  0  0  0  0  0  0  0  0
   47.5320   31.9370   36.4130 C   0  0  0  0  0  0  0  0  0  0  0  0
   45.6210   31.8030   39.6870 H   0  0  0  0  0  0  0  0  0  0  0  0
   45.0010   30.2790   37.9780 H   0  0  0  0  0  0  0  0  0  0  0  0
   46.2100   30.2950   35.7660 H   0  0  0  0  0  0  0  0  0  0  0  0
   48.6720   35.5280   40.6300 C   0  0  0  0  0  0  0  0  0  0  0  0
   48.3320   34.7240   39.5290 C   0  0  0  0  0  0  0  0  0  0  0  0
   47.4940   33.6370   39.7250 C   0  0  0  0  0  0  0  0  0  0  0  0
   47.0430   33.4180   40.9840 N   0  0  0  0  0  0  0  0  0  0  0  0
   47.3660   34.1930   42.0320 C   0  0  0  0  0  0  0  0  0  0  0  0
   48.1840   35.2480   41.8600 N   0  0  0  0  0  0  0  0  0  0  0  0
   49.3140   36.3990   40.6300 H   0  0  0  0  0  0  0  0  0  0  0  0
   48.7820   35.1550   38.6940 H   0  0  0  0  0  0  0  0  0  0  0  0
   44.9870   35.9380   42.8220 Cl  0  0  0  0  0  0  0  0  0  0  0  0
   45.7200   34.6980   43.8120 C   0  0  0  0  0  0  0  0  0  0  0  0
   46.8040   33.9550   43.3470 C   0  0  0  0  0  0  0  0  0  0  0  0
   47.2820   33.0150   44.1960 C   0  0  0  0  0  0  0  0  0  0  0  0
   46.7680   32.7620   45.4580 C   0  0  0  0  0  0  0  0  0  0  0  0
   45.7030   33.5040   45.8950 C   0  0  0  0  0  0  0  0  0  0  0  0
   45.1340   33.1050   47.5020 Cl  0  0  0  0  0  0  0  0  0  0  0  0
   45.1800   34.4690   45.0750 C   0  0  0  0  0  0  0  0  0  0  0  0
   48.1280   32.4290   43.8460 H   0  0  0  0  0  0  0  0  0  0  0  0
   47.2460   31.9720   46.0490 H   0  0  0  0  0  0  0  0  0  0  0  0
   44.3420   35.0280   45.4610 H   0  0  0  0  0  0  0  0  0  0  0  0
   49.4290   31.2470   35.0830 C   0  0  0  0  0  0  0  0  0  0  0  0
   48.2600   31.9940   35.1640 C   0  0  0  0  0  0  0  0  0  0  0  0
   47.8620   32.7380   34.0680 C   0  0  0  0  0  0  0  0  0  0  0  0
   46.9390   33.3230   34.1430 H   0  0  0  0  0  0  0  0  0  0  0  0
   48.5800   32.7710   32.8880 C   0  0  0  0  0  0  0  0  0  0  0  0
   48.2800   33.3480   32.0260 H   0  0  0  0  0  0  0  0  0  0  0  0
   49.7340   32.0130   32.8540 C   0  0  0  0  0  3  0  0  0  0  0  0
   50.1970   31.2380   33.9230 C   0  0  0  0  0  3  0  0  0  0  0  0
   50.2210   29.8130   37.1280 N   0  0  0  0  0  0  0  0  0  0  0  0
   49.8760   30.4560   36.2090 C   0  0  0  0  0  0  0  0  0  0  0  0
  1  2  1  0  0  0  0
  2  3  1  0  0  0  0
  3  4  2  0  0  0  0
  3 13  1  0  0  0  0
  4  8  1  0  0  0  0
  5  9  1  0  0  0  0
  5  4  1  0  0  0  0
  6  5  2  0  0  0  0
  7  6  1  0  0  0  0
  7  2  2  0  0  0  0
 10  6  1  0  0  0  0
 11 16  1  0  0  0  0
 12 13  1  0  0  0  0
 12 11  2  0  0  0  0
 13 14  2  0  0  0  0
 14 15  1  0  0  0  0
 15 21  1  0  0  0  0
 16 15  2  0  0  0  0
 17 11  1  0  0  0  0
 18 12  1  0  0  0  0
 19 20  1  0  0  0  0
 20 26  1  0  0  0  0
 21 20  2  0  0  0  0
 21 22  1  0  0  0  0
 22 23  2  0  0  0  0
 23 24  1  0  0  0  0
 23 28  1  0  0  0  0
 24 25  1  0  0  0  0
 26 29  1  0  0  0  0
 26 24  2  0  0  0  0
 27 22  1  0  0  0  0
 30 31  1  0  0  0  0
 30 39  1  0  0  0  0
 31  7  1  0  0  0  0
 32 33  1  0  0  0  0
 32 31  2  0  0  0  0
 34 32  1  0  0  0  0
 35 34  1  0  0  0  0
 36 34  2  0  0  0  0
 36 37  1  0  0  0  0
 37 30  2  0  0  0  0
 39 38  3  0  0  0  0
M  END
>  <minimizedAffinity>
-5.99607372

>  <minimizedRMSD>
1.22877753

$$$$
