
 OpenBabel03252507433D

 32 34  0  0  0  0  0  0  0  0999 V2000
   44.9050   33.6390   41.1700 C   0  0  0  0  0  0  0  0  0  0  0  0
   45.5830   34.1900   41.8810 H   0  0  0  0  0  0  0  0  0  0  0  0
   44.7930   32.6240   41.6180 H   0  0  0  0  0  0  0  0  0  0  0  0
   43.5440   34.2400   41.1510 C   0  0  0  0  0  0  0  0  0  0  0  0
   43.2070   35.3160   42.0270 C   0  0  0  0  0  0  0  0  0  0  0  0
   41.4440   35.6450   41.5780 S   0  0  0  0  0  0  0  0  0  0  0  0
   41.4860   34.2750   40.2960 C   0  0  0  0  0  0  0  0  0  0  0  0
   42.5490   33.8800   40.3800 N   0  0  0  0  0  0  0  0  0  0  0  0
   43.8890   35.7710   42.7540 H   0  0  0  0  0  0  0  0  0  0  0  0
   40.0240   34.5460   38.2720 C   0  0  0  0  0  0  0  0  0  0  0  0
   40.3100   33.9360   39.4680 C   0  0  0  0  0  0  0  0  0  0  0  0
   39.5050   32.9500   39.9770 C   0  0  0  0  0  0  0  0  0  0  0  0
   39.7310   32.4710   40.9160 H   0  0  0  0  0  0  0  0  0  0  0  0
   38.4030   32.5870   39.2650 C   0  0  0  0  0  0  0  0  0  0  0  0
   37.7600   31.8120   39.6550 H   0  0  0  0  0  0  0  0  0  0  0  0
   38.1240   33.2080   38.0640 C   0  0  0  0  0  3  0  0  0  0  0  0
   38.9150   34.2030   37.5240 C   0  0  0  0  0  3  0  0  0  0  0  0
   41.5570   36.4030   37.3300 N   0  0  0  0  0  0  0  0  0  0  0  0
   40.8770   35.5720   37.7610 C   0  0  0  0  0  0  0  0  0  0  0  0
   45.5360   33.4810   39.8200 C   0  0  0  0  0  0  0  0  0  0  0  0
   45.4980   34.4990   39.3360 H   0  0  0  0  0  0  0  0  0  0  0  0
   44.9140   32.8400   39.2100 H   0  0  0  0  0  0  0  0  0  0  0  0
   46.9460   33.0500   39.8630 C   0  0  0  0  0  0  0  0  0  0  0  0
   47.5860   32.8700   38.6170 C   0  0  0  0  0  0  0  0  0  0  0  0
   48.9080   32.4670   38.6010 C   0  0  0  0  0  0  0  0  0  0  0  0
   49.5410   32.2570   39.8050 N   0  0  0  0  0  0  0  0  0  0  0  0
   48.8940   32.4390   40.9620 C   0  0  0  0  0  0  0  0  0  0  0  0
   47.6190   32.8290   40.9860 N   0  0  0  0  0  0  0  0  0  0  0  0
   49.4320   32.3190   37.6610 H   0  0  0  0  0  0  0  0  0  0  0  0
   49.4610   32.2540   41.8740 H   0  0  0  0  0  0  0  0  0  0  0  0
   46.7120   33.1570   37.0900 S   0  0  0  0  0  0  0  0  0  0  0  0
   47.5390   33.6230   36.0770 H   0  0  0  0  0  0  0  0  0  0  0  0
  1  3  1  0  0  0  0
  1  2  1  0  0  0  0
  4  1  1  0  0  0  0
  4  5  2  0  0  0  0
  5  9  1  0  0  0  0
  6  5  1  0  0  0  0
  7  8  2  0  0  0  0
  7  6  1  0  0  0  0
  8  4  1  0  0  0  0
 10 11  1  0  0  0  0
 11 12  2  0  0  0  0
 11  7  1  0  0  0  0
 12 13  1  0  0  0  0
 14 15  1  0  0  0  0
 14 12  1  0  0  0  0
 16 14  2  0  0  0  0
 17 16  1  0  0  0  0
 17 10  2  0  0  0  0
 18 19  3  0  0  0  0
 19 10  1  0  0  0  0
 20 23  1  0  0  0  0
 20  1  1  0  0  0  0
 21 20  1  0  0  0  0
 22 20  1  0  0  0  0
 23 28  1  0  0  0  0
 24 23  2  0  0  0  0
 25 24  1  0  0  0  0
 25 26  2  0  0  0  0
 26 27  1  0  0  0  0
 27 28  2  0  0  0  0
 27 30  1  0  0  0  0
 29 25  1  0  0  0  0
 31 24  1  0  0  0  0
 32 31  1  0  0  0  0
M  END
>  <minimizedAffinity>
-4.96406269

>  <minimizedRMSD>
2.56616354

$$$$
