REMARK  Name = 
REMARK  5 active torsions:
REMARK  status: ('A' for Active; 'I' for Inactive)
REMARK    1  A    between atoms: C_2  and  N_23
REMARK    2  A    between atoms: C_5  and  C_12
REMARK    3  A    between atoms: C_19  and  C_43
REMARK    4  A    between atoms: C_20  and  N_22
REMARK    5  A    between atoms: C_41  and  C_42
REMARK                            x       y       z     vdW  Elec       q    Type
REMARK                         _______ _______ _______ _____ _____    ______ ____
ROOT
ATOM      1  C   UNL     1      45.749  33.797  45.189  0.00  0.00    +0.000 A 
ATOM      2  N   UNL     1      44.877  34.768  45.485  0.00  0.00    +0.000 NA
ATOM      3  C   UNL     1      44.603  35.816  44.711  0.00  0.00    +0.000 A 
ATOM      4  N   UNL     1      45.229  35.957  43.517  0.00  0.00    +0.000 NA
ATOM      5  C   UNL     1      46.124  35.052  43.104  0.00  0.00    +0.000 A 
ATOM      6  C   UNL     1      46.766  35.188  41.894  0.00  0.00    +0.000 A 
ATOM      7  C   UNL     1      47.681  34.276  41.460  0.00  0.00    +0.000 A 
ATOM      8  C   UNL     1      47.942  33.201  42.288  0.00  0.00    +0.000 A 
ATOM      9  C   UNL     1      47.271  33.105  43.498  0.00  0.00    +0.000 A 
ATOM     10  C   UNL     1      46.361  33.989  43.957  0.00  0.00    +0.000 A 
ATOM     11  H   UNL     1      43.874  36.538  45.062  0.00  0.00    +0.000 HD
ATOM     12  H   UNL     1      46.542  36.040  41.267  0.00  0.00    +0.000 HD
ATOM     13  H   UNL     1      48.154  34.433  40.504  0.00  0.00    +0.000 HD
ENDROOT
BRANCH   1  18
ATOM     14  C   UNL     1      47.477  32.061  47.847  0.00  0.00    +0.000 A 
ATOM     15  C   UNL     1      46.935  30.773  47.889  0.00  0.00    +0.000 A 
ATOM     16  C   UNL     1      45.938  30.492  46.989  0.00  0.00    +0.000 A 
ATOM     17  N   UNL     1      45.540  31.428  46.133  0.00  0.00    +0.000 NA
ATOM     18  C   UNL     1      46.037  32.645  46.074  0.00  0.00    +0.000 A 
ATOM     19  N   UNL     1      47.019  32.946  46.953  0.00  0.00    +0.000 NA
ATOM     20  N   UNL     1      45.353  29.247  46.993  0.00  0.00    +0.000 N 
ATOM     21  C   UNL     1      44.154  28.895  46.183  0.00  0.00    +0.000 C 
ATOM     22  C   UNL     1      44.027  27.399  46.260  0.00  0.00    +0.000 C 
ATOM     23  C   UNL     1      44.663  27.081  47.575  0.00  0.00    +0.000 C 
ATOM     24  C   UNL     1      45.745  28.092  47.736  0.00  0.00    +0.000 C 
ATOM     25  H   UNL     1      48.274  32.329  48.548  0.00  0.00    +0.000 HD
ATOM     26  H   UNL     1      43.275  29.449  46.519  0.00  0.00    +0.000 HD
ATOM     27  H   UNL     1      44.453  29.146  45.132  0.00  0.00    +0.000 HD
ATOM     28  H   UNL     1      42.980  27.059  46.221  0.00  0.00    +0.000 HD
ATOM     29  H   UNL     1      44.574  26.879  45.460  0.00  0.00    +0.000 HD
ATOM     30  H   UNL     1      45.028  26.031  47.599  0.00  0.00    +0.000 HD
ATOM     31  H   UNL     1      43.867  27.154  48.343  0.00  0.00    +0.000 HD
ATOM     32  H   UNL     1      46.666  27.663  47.340  0.00  0.00    +0.000 HD
ATOM     33  H   UNL     1      45.758  28.251  48.857  0.00  0.00    +0.000 HD
BRANCH  15  34
ATOM     34  N   UNL     1      47.455  29.888  48.801  0.00  0.00    +0.000 N 
ATOM     35  H   UNL     1      48.125  29.108  48.584  0.00  0.00    +0.000 HD
ATOM     36  H   UNL     1      47.324  29.784  49.838  0.00  0.00    +0.000 HD
ENDBRANCH  15  34
ENDBRANCH   1  18
BRANCH   8  38
ATOM     37  C   UNL     1      49.035  32.089  40.438  0.00  0.00    +0.000 A 
ATOM     38  C   UNL     1      48.927  32.245  41.791  0.00  0.00    +0.000 A 
ATOM     39  C   UNL     1      49.713  31.532  42.676  0.00  0.00    +0.000 A 
ATOM     40  H   UNL     1      49.592  31.688  43.738  0.00  0.00    +0.000 HD
ATOM     41  C   UNL     1      50.642  30.629  42.187  0.00  0.00    +0.000 A 
ATOM     42  H   UNL     1      51.280  30.048  42.841  0.00  0.00    +0.000 HD
ATOM     43  C   UNL     1      50.727  30.494  40.815  0.00  0.00    +0.000 A 
ATOM     44  C   UNL     1      49.952  31.197  39.939  0.00  0.00    +0.000 A 
BRANCH  37  46
ATOM     45  N   UNL     1      47.585  33.423  38.800  0.00  0.00    +0.000 NA
ATOM     46  C   UNL     1      48.223  32.825  39.529  0.00  0.00    +0.000 C 
ENDBRANCH  37  46
ENDBRANCH   8  38
BRANCH   9  47
ATOM     47  N   UNL     1      47.671  31.924  44.204  0.00  0.00    +0.000 N 
ATOM     48  H   UNL     1      47.016  31.191  43.809  0.00  0.00    +0.000 HD
ATOM     49  H   UNL     1      48.375  31.692  44.912  0.00  0.00    +0.000 HD
ENDBRANCH   9  47
TORSDOF 5
