REMARK  Name = 
REMARK  2 active torsions:
REMARK  status: ('A' for Active; 'I' for Inactive)
REMARK    1  A    between atoms: C_12  and  C_28
REMARK    2  A    between atoms: C_26  and  C_27
REMARK                            x       y       z     vdW  Elec       q    Type
REMARK                         _______ _______ _______ _____ _____    ______ ____
ROOT
ATOM      1  C   UNL     1      44.562  35.686  44.864  0.00  0.00    +0.000 A 
ATOM      2  C   UNL     1      45.185  35.563  43.602  0.00  0.00    +0.000 A 
ATOM      3  C   UNL     1      46.103  34.529  43.390  0.00  0.00    +0.000 A 
ATOM      4  N   UNL     1      46.336  33.694  44.437  0.00  0.00    +0.000 NA
ATOM      5  C   UNL     1      45.745  33.811  45.635  0.00  0.00    +0.000 A 
ATOM      6  N   UNL     1      44.851  34.815  45.848  0.00  0.00    +0.000 NA
ATOM      7  N   UNL     1      46.031  32.898  46.704  0.00  0.00    +0.000 N 
ATOM      8  C   UNL     1      45.071  32.801  47.783  0.00  0.00    +0.000 C 
ATOM      9  C   UNL     1      45.633  32.161  49.019  0.00  0.00    +0.000 C 
ATOM     10  C   UNL     1      46.465  30.998  48.598  0.00  0.00    +0.000 C 
ATOM     11  C   UNL     1      47.682  31.554  47.902  0.00  0.00    +0.000 C 
ATOM     12  C   UNL     1      47.260  32.157  46.604  0.00  0.00    +0.000 C 
ATOM     13  H   UNL     1      43.857  36.480  45.029  0.00  0.00    +0.000 HD
ATOM     14  H   UNL     1      44.959  36.261  42.802  0.00  0.00    +0.000 HD
ATOM     15  H   UNL     1      46.602  34.394  42.453  0.00  0.00    +0.000 HD
ATOM     16  H   UNL     1      44.267  32.118  47.427  0.00  0.00    +0.000 HD
ATOM     17  H   UNL     1      44.577  33.776  47.988  0.00  0.00    +0.000 HD
ATOM     18  H   UNL     1      46.259  32.868  49.620  0.00  0.00    +0.000 HD
ATOM     19  H   UNL     1      44.772  31.914  49.676  0.00  0.00    +0.000 HD
ATOM     20  H   UNL     1      46.792  30.368  49.475  0.00  0.00    +0.000 HD
ATOM     21  H   UNL     1      45.850  30.328  47.984  0.00  0.00    +0.000 HD
ATOM     22  H   UNL     1      48.178  32.244  48.592  0.00  0.00    +0.000 HD
ATOM     23  H   UNL     1      48.375  30.694  47.715  0.00  0.00    +0.000 HD
ATOM     24  H   UNL     1      48.036  32.952  46.396  0.00  0.00    +0.000 HD
ENDROOT
BRANCH  12  26
ATOM     25  C   UNL     1      47.153  29.882  45.556  0.00  0.00    +0.000 A 
ATOM     26  C   UNL     1      47.329  31.250  45.440  0.00  0.00    +0.000 A 
ATOM     27  C   UNL     1      47.577  31.720  44.157  0.00  0.00    +0.000 A 
ATOM     28  H   UNL     1      47.729  32.790  43.973  0.00  0.00    +0.000 HD
ATOM     29  C   UNL     1      47.645  30.886  43.059  0.00  0.00    +0.000 A 
ATOM     30  H   UNL     1      47.840  31.276  42.068  0.00  0.00    +0.000 HD
ATOM     31  C   UNL     1      47.459  29.525  43.243  0.00  0.00    +0.000 A 
ATOM     32  C   UNL     1      47.207  28.992  44.503  0.00  0.00    +0.000 A 
BRANCH  25  34
ATOM     33  N   UNL     1      46.702  28.953  47.952  0.00  0.00    +0.000 NA
ATOM     34  C   UNL     1      46.895  29.371  46.873  0.00  0.00    +0.000 C 
ENDBRANCH  25  34
ENDBRANCH  12  26
TORSDOF 2
