
 OpenBabel03242518413D

 40 43  0  0  1  0  0  0  0  0999 V2000
   37.3780   32.1630   40.7280 O   0  0  0  0  0  0  0  0  0  0  0  0
   36.8430   30.8640   40.9140 C   0  0  0  0  0  0  0  0  0  0  0  0
   35.8060   30.1770   40.2690 C   0  0  0  0  0  0  0  0  0  0  0  0
   35.6810   28.9220   40.8350 C   0  0  0  0  0  0  0  0  0  0  0  0
   36.6410   28.9010   41.7940 C   0  0  0  0  0  0  0  0  0  0  0  0
   37.3170   30.0400   41.8330 O   0  0  0  0  0  0  0  0  0  0  0  0
   35.2540   30.6420   39.4680 H   0  0  0  0  0  0  0  0  0  0  0  0
   34.9520   28.1880   40.5180 H   0  0  0  0  0  0  0  0  0  0  0  0
   36.8980   27.7490   42.6820 C   0  0  2  0  0  0  0  0  0  0  0  0
   37.3970   27.9420   44.0420 C   0  0  0  0  0  0  0  0  0  0  0  0
   38.4020   27.5510   43.0180 C   0  0  1  0  0  0  0  0  0  0  0  0
   36.3330   26.8320   42.4530 H   0  0  0  0  0  0  0  0  0  0  0  0
   37.4960   28.9990   44.4180 H   0  0  0  0  0  0  0  0  0  0  0  0
   37.1690   27.2200   44.8420 H   0  0  0  0  0  0  0  0  0  0  0  0
   39.1030   28.2420   42.5510 H   0  0  0  0  0  0  0  0  0  0  0  0
   39.9900   25.7550   43.6790 C   0  0  0  0  0  0  0  0  0  0  0  0
   40.7960   26.5800   44.2000 O   0  0  0  0  0  0  0  0  0  0  0  0
   38.7910   26.1450   43.0310 N   0  0  0  0  0  0  0  0  0  0  0  0
   40.1890   24.6730   43.7080 H   0  0  0  0  0  0  0  0  0  0  0  0
   38.1880   25.4360   42.5650 H   0  0  0  0  0  0  0  0  0  0  0  0
   38.5570   32.2990   39.9550 C   0  0  0  0  0  0  0  0  0  0  0  0
   38.8140   31.3580   39.1570 O   0  0  0  0  0  0  0  0  0  0  0  0
   39.3170   33.4840   40.1680 C   0  0  0  0  0  0  0  0  0  0  0  0
   38.6250   34.6520   40.1820 C   0  0  0  0  0  0  0  0  0  0  0  0
   39.3130   35.8450   40.3850 C   0  0  0  0  0  0  0  0  0  0  0  0
   40.6370   35.7960   40.5610 N   0  0  0  0  0  0  0  0  0  0  0  0
   41.3070   34.6330   40.5450 C   0  0  0  0  0  0  0  0  0  0  0  0
   40.6170   33.5070   40.3480 N   0  0  0  0  0  0  0  0  0  0  0  0
   37.5510   34.7210   40.0410 H   0  0  0  0  0  0  0  0  0  0  0  0
   38.7550   36.7890   40.3960 H   0  0  0  0  0  0  0  0  0  0  0  0
   43.5730   34.2110   39.7060 C   0  0  0  0  0  0  0  0  0  0  0  0
   42.7430   34.6050   40.7380 C   0  0  0  0  0  0  0  0  0  0  0  0
   43.3380   34.9640   41.9350 C   0  0  0  0  0  0  0  0  0  0  0  0
   42.6920   35.2730   42.7460 H   0  0  0  0  0  0  0  0  0  0  0  0
   44.7140   34.9400   42.1270 C   0  0  0  0  0  0  0  0  0  0  0  0
   45.1360   35.2240   43.0670 H   0  0  0  0  0  0  0  0  0  0  0  0
   45.5000   34.5390   41.0650 C   0  0  0  0  0  3  0  0  0  0  0  0
   44.9470   34.1760   39.8630 C   0  0  0  0  0  3  0  0  0  0  0  0
   42.5620   33.5360   37.4250 N   0  0  0  0  0  0  0  0  0  0  0  0
   43.0160   33.8260   38.4360 C   0  0  0  0  0  0  0  0  0  0  0  0
  1  2  1  0  0  0  0
  2  6  1  0  0  0  0
  3  4  1  0  0  0  0
  3  2  2  0  0  0  0
  4  5  2  0  0  0  0
  5  6  1  0  0  0  0
  5  9  1  0  0  0  0
  7  3  1  0  0  0  0
  8  4  1  0  0  0  0
  9 12  1  6  0  0  0
  9 11  1  0  0  0  0
  9 10  1  0  0  0  0
 10 13  1  0  0  0  0
 10 14  1  0  0  0  0
 11 15  1  6  0  0  0
 11 18  1  0  0  0  0
 11 10  1  0  0  0  0
 16 19  1  0  0  0  0
 16 17  2  0  0  0  0
 18 16  1  0  0  0  0
 20 18  1  0  0  0  0
 21 23  1  0  0  0  0
 21  1  1  0  0  0  0
 22 21  2  0  0  0  0
 23 24  2  0  0  0  0
 23 28  1  0  0  0  0
 24 25  1  0  0  0  0
 25 30  1  0  0  0  0
 25 26  2  0  0  0  0
 27 26  1  0  0  0  0
 27 32  1  0  0  0  0
 28 27  2  0  0  0  0
 29 24  1  0  0  0  0
 31 38  2  0  0  0  0
 31 32  1  0  0  0  0
 32 33  2  0  0  0  0
 33 35  1  0  0  0  0
 33 34  1  0  0  0  0
 35 36  1  0  0  0  0
 37 35  2  0  0  0  0
 38 37  1  0  0  0  0
 39 40  3  0  0  0  0
 40 31  1  0  0  0  0
M  END
>  <minimizedAffinity>
-6.59088278

$$$$

 OpenBabel03242518413D

 40 43  0  0  1  0  0  0  0  0999 V2000
   39.0450   31.1570   38.7270 O   0  0  0  0  0  0  0  0  0  0  0  0
   38.7220   32.4460   39.2210 C   0  0  0  0  0  0  0  0  0  0  0  0
   37.4960   33.0530   39.5220 C   0  0  0  0  0  0  0  0  0  0  0  0
   37.7320   34.3360   39.9790 C   0  0  0  0  0  0  0  0  0  0  0  0
   39.0840   34.4520   39.9360 C   0  0  0  0  0  0  0  0  0  0  0  0
   39.6560   33.3420   39.4920 O   0  0  0  0  0  0  0  0  0  0  0  0
   36.5690   32.5190   39.3840 H   0  0  0  0  0  0  0  0  0  0  0  0
   36.9520   35.0220   40.2800 H   0  0  0  0  0  0  0  0  0  0  0  0
   39.8230   35.6680   40.3340 C   0  0  2  0  0  0  0  0  0  0  0  0
   41.0200   36.0930   39.6110 C   0  0  0  0  0  0  0  0  0  0  0  0
   41.2420   35.3720   40.8930 C   0  0  1  0  0  0  0  0  0  0  0  0
   39.2410   36.4250   40.8810 H   0  0  0  0  0  0  0  0  0  0  0  0
   41.3090   35.5130   38.6900 H   0  0  0  0  0  0  0  0  0  0  0  0
   41.3100   37.1550   39.5610 H   0  0  0  0  0  0  0  0  0  0  0  0
   41.5310   34.3240   40.9650 H   0  0  0  0  0  0  0  0  0  0  0  0
   42.9080   36.2240   42.5320 C   0  0  0  0  0  0  0  0  0  0  0  0
   43.8220   35.4740   42.0810 O   0  0  0  0  0  0  0  0  0  0  0  0
   41.5810   36.2170   42.0330 N   0  0  0  0  0  0  0  0  0  0  0  0
   43.1080   36.9320   43.3500 H   0  0  0  0  0  0  0  0  0  0  0  0
   40.8470   36.8100   42.4750 H   0  0  0  0  0  0  0  0  0  0  0  0
   37.9830   30.2810   38.3950 C   0  0  0  0  0  0  0  0  0  0  0  0
   37.6420   30.2500   37.1820 O   0  0  0  0  0  0  0  0  0  0  0  0
   37.4220   29.5330   39.4700 C   0  0  0  0  0  0  0  0  0  0  0  0
   36.0970   29.7110   39.7030 C   0  0  0  0  0  0  0  0  0  0  0  0
   35.4920   29.0080   40.7410 C   0  0  0  0  0  0  0  0  0  0  0  0
   36.2430   28.1780   41.4730 N   0  0  0  0  0  0  0  0  0  0  0  0
   37.5530   28.0130   41.2290 C   0  0  0  0  0  0  0  0  0  0  0  0
   38.1020   28.7030   40.2260 N   0  0  0  0  0  0  0  0  0  0  0  0
   35.4650   30.3770   39.1260 H   0  0  0  0  0  0  0  0  0  0  0  0
   34.4210   29.1510   40.9310 H   0  0  0  0  0  0  0  0  0  0  0  0
   38.4320   25.7720   41.6960 C   0  0  0  0  0  0  0  0  0  0  0  0
   38.3460   27.1090   42.0360 C   0  0  0  0  0  0  0  0  0  0  0  0
   39.0380   27.5290   43.1580 C   0  0  0  0  0  0  0  0  0  0  0  0
   38.9730   28.5740   43.4280 H   0  0  0  0  0  0  0  0  0  0  0  0
   39.8000   26.6660   43.9360 C   0  0  0  0  0  0  0  0  0  0  0  0
   40.3210   27.0280   44.7970 H   0  0  0  0  0  0  0  0  0  0  0  0
   39.8550   25.3410   43.5550 C   0  0  0  0  0  3  0  0  0  0  0  0
   39.1820   24.8860   42.4490 C   0  0  0  0  0  3  0  0  0  0  0  0
   37.1700   24.8630   39.6310 N   0  0  0  0  0  0  0  0  0  0  0  0
   37.7350   25.2720   40.5390 C   0  0  0  0  0  0  0  0  0  0  0  0
  1  2  1  0  0  0  0
  2  6  1  0  0  0  0
  2  3  2  0  0  0  0
  3  4  1  0  0  0  0
  4  8  1  0  0  0  0
  5  4  2  0  0  0  0
  5  9  1  0  0  0  0
  6  5  1  0  0  0  0
  7  3  1  0  0  0  0
  9 12  1  1  0  0  0
  9 11  1  0  0  0  0
 10  9  1  0  0  0  0
 10 11  1  0  0  0  0
 11 15  1  6  0  0  0
 11 18  1  0  0  0  0
 13 10  1  0  0  0  0
 14 10  1  0  0  0  0
 16 19  1  0  0  0  0
 17 16  2  0  0  0  0
 18 20  1  0  0  0  0
 18 16  1  0  0  0  0
 21  1  1  0  0  0  0
 21 23  1  0  0  0  0
 22 21  2  0  0  0  0
 23 24  2  0  0  0  0
 23 28  1  0  0  0  0
 24 25  1  0  0  0  0
 25 30  1  0  0  0  0
 25 26  2  0  0  0  0
 27 26  1  0  0  0  0
 27 32  1  0  0  0  0
 28 27  2  0  0  0  0
 29 24  1  0  0  0  0
 31 32  2  0  0  0  0
 31 38  1  0  0  0  0
 32 33  1  0  0  0  0
 33 34  1  0  0  0  0
 33 35  2  0  0  0  0
 35 36  1  0  0  0  0
 37 35  1  0  0  0  0
 38 37  2  0  0  0  0
 39 40  3  0  0  0  0
 40 31  1  0  0  0  0
M  END
>  <minimizedAffinity>
-6.48101091

$$$$

 OpenBabel03242518413D

 40 43  0  0  1  0  0  0  0  0999 V2000
   38.7720   30.8470   38.1940 O   0  0  0  0  0  0  0  0  0  0  0  0
   38.3940   32.0760   38.7900 C   0  0  0  0  0  0  0  0  0  0  0  0
   37.1820   32.7790   38.8000 C   0  0  0  0  0  0  0  0  0  0  0  0
   37.3430   33.9390   39.5340 C   0  0  0  0  0  0  0  0  0  0  0  0
   38.6390   33.8920   39.9360 C   0  0  0  0  0  0  0  0  0  0  0  0
   39.2470   32.7990   39.4970 O   0  0  0  0  0  0  0  0  0  0  0  0
   36.3170   32.3900   38.2860 H   0  0  0  0  0  0  0  0  0  0  0  0
   36.5560   34.6620   39.6980 H   0  0  0  0  0  0  0  0  0  0  0  0
   39.2880   34.9330   40.7590 C   0  0  2  0  0  0  0  0  0  0  0  0
   39.6600   36.2240   40.1860 C   0  0  0  0  0  0  0  0  0  0  0  0
   40.7540   35.2270   40.3380 C   0  0  1  0  0  0  0  0  0  0  0  0
   39.1040   34.8700   41.8430 H   0  0  0  0  0  0  0  0  0  0  0  0
   39.3580   36.4300   39.1210 H   0  0  0  0  0  0  0  0  0  0  0  0
   39.7030   37.1340   40.8060 H   0  0  0  0  0  0  0  0  0  0  0  0
   41.1580   34.6300   39.5210 H   0  0  0  0  0  0  0  0  0  0  0  0
   42.9350   34.8760   41.4800 C   0  0  0  0  0  0  0  0  0  0  0  0
   43.3670   34.1320   40.5530 O   0  0  0  0  0  0  0  0  0  0  0  0
   41.6330   35.4360   41.4840 N   0  0  0  0  0  0  0  0  0  0  0  0
   43.5670   35.1280   42.3450 H   0  0  0  0  0  0  0  0  0  0  0  0
   41.3000   35.9950   42.2970 H   0  0  0  0  0  0  0  0  0  0  0  0
   37.7750   29.8610   38.0010 C   0  0  0  0  0  0  0  0  0  0  0  0
   37.4310   29.6390   36.8090 O   0  0  0  0  0  0  0  0  0  0  0  0
   37.2750   29.2310   39.1770 C   0  0  0  0  0  0  0  0  0  0  0  0
   35.9570   29.4140   39.4460 C   0  0  0  0  0  0  0  0  0  0  0  0
   35.4100   28.8230   40.5820 C   0  0  0  0  0  0  0  0  0  0  0  0
   36.2070   28.0930   41.3690 N   0  0  0  0  0  0  0  0  0  0  0  0
   37.5090   27.9220   41.0880 C   0  0  0  0  0  0  0  0  0  0  0  0
   38.0020   28.5020   39.9910 N   0  0  0  0  0  0  0  0  0  0  0  0
   35.2880   30.0000   38.8260 H   0  0  0  0  0  0  0  0  0  0  0  0
   34.3450   28.9700   40.8010 H   0  0  0  0  0  0  0  0  0  0  0  0
   39.2230   27.7460   42.8340 C   0  0  0  0  0  0  0  0  0  0  0  0
   38.3520   27.1270   41.9560 C   0  0  0  0  0  0  0  0  0  0  0  0
   38.3290   25.7430   41.9500 C   0  0  0  0  0  0  0  0  0  0  0  0
   37.6500   25.2540   41.2650 H   0  0  0  0  0  0  0  0  0  0  0  0
   39.1360   24.9750   42.7810 C   0  0  0  0  0  0  0  0  0  0  0  0
   39.0890   23.9080   42.7460 H   0  0  0  0  0  0  0  0  0  0  0  0
   39.9870   25.6410   43.6390 C   0  0  0  0  0  3  0  0  0  0  0  0
   40.0390   27.0110   43.6740 C   0  0  0  0  0  3  0  0  0  0  0  0
   39.3690   30.3260   42.9230 N   0  0  0  0  0  0  0  0  0  0  0  0
   39.2940   29.1830   42.8890 C   0  0  0  0  0  0  0  0  0  0  0  0
  1  2  1  0  0  0  0
  2  3  2  0  0  0  0
  2  6  1  0  0  0  0
  3  4  1  0  0  0  0
  4  8  1  0  0  0  0
  4  5  2  0  0  0  0
  5  9  1  0  0  0  0
  6  5  1  0  0  0  0
  7  3  1  0  0  0  0
  9 12  1  1  0  0  0
 10 11  1  0  0  0  0
 10  9  1  0  0  0  0
 10 14  1  0  0  0  0
 11 15  1  6  0  0  0
 11  9  1  0  0  0  0
 11 18  1  0  0  0  0
 13 10  1  0  0  0  0
 16 18  1  0  0  0  0
 16 19  1  0  0  0  0
 17 16  2  0  0  0  0
 18 20  1  0  0  0  0
 21  1  1  0  0  0  0
 21 23  1  0  0  0  0
 22 21  2  0  0  0  0
 23 24  2  0  0  0  0
 23 28  1  0  0  0  0
 24 25  1  0  0  0  0
 25 30  1  0  0  0  0
 25 26  2  0  0  0  0
 27 26  1  0  0  0  0
 27 32  1  0  0  0  0
 28 27  2  0  0  0  0
 29 24  1  0  0  0  0
 31 40  1  0  0  0  0
 31 38  1  0  0  0  0
 32 31  2  0  0  0  0
 33 32  1  0  0  0  0
 33 35  2  0  0  0  0
 34 33  1  0  0  0  0
 35 37  1  0  0  0  0
 36 35  1  0  0  0  0
 37 38  2  0  0  0  0
 40 39  3  0  0  0  0
M  END
>  <minimizedAffinity>
-6.47912073

$$$$

 OpenBabel03242518413D

 40 43  0  0  1  0  0  0  0  0999 V2000
   37.8790   32.7360   40.9920 O   0  0  0  0  0  0  0  0  0  0  0  0
   38.8640   33.6800   40.6080 C   0  0  0  0  0  0  0  0  0  0  0  0
   38.7780   35.0330   40.2550 C   0  0  0  0  0  0  0  0  0  0  0  0
   40.0450   35.5010   39.9620 C   0  0  0  0  0  0  0  0  0  0  0  0
   40.8420   34.4180   40.1490 C   0  0  0  0  0  0  0  0  0  0  0  0
   40.1440   33.3570   40.5270 O   0  0  0  0  0  0  0  0  0  0  0  0
   37.8250   35.5380   40.2440 H   0  0  0  0  0  0  0  0  0  0  0  0
   40.2570   36.5170   39.6600 H   0  0  0  0  0  0  0  0  0  0  0  0
   42.3060   34.4250   39.9530 C   0  0  2  0  0  0  0  0  0  0  0  0
   43.1010   33.2180   40.1660 C   0  0  0  0  0  0  0  0  0  0  0  0
   43.1060   34.2170   41.2680 C   0  0  1  0  0  0  0  0  0  0  0  0
   42.6950   35.1990   39.2730 H   0  0  0  0  0  0  0  0  0  0  0  0
   42.5510   32.2630   40.4000 H   0  0  0  0  0  0  0  0  0  0  0  0
   44.0430   33.0490   39.6190 H   0  0  0  0  0  0  0  0  0  0  0  0
   42.5250   34.1220   42.1850 H   0  0  0  0  0  0  0  0  0  0  0  0
   44.5040   35.8830   42.4750 C   0  0  0  0  0  0  0  0  0  0  0  0
   43.6710   35.9820   43.4220 O   0  0  0  0  0  0  0  0  0  0  0  0
   44.2940   35.0610   41.3390 N   0  0  0  0  0  0  0  0  0  0  0  0
   45.4510   36.4420   42.4930 H   0  0  0  0  0  0  0  0  0  0  0  0
   44.9810   35.0550   40.5570 H   0  0  0  0  0  0  0  0  0  0  0  0
   37.3570   31.8700   40.0010 C   0  0  0  0  0  0  0  0  0  0  0  0
   37.1680   32.3740   38.8610 O   0  0  0  0  0  0  0  0  0  0  0  0
   37.1060   30.5280   40.4050 C   0  0  0  0  0  0  0  0  0  0  0  0
   35.8540   30.0520   40.1790 C   0  0  0  0  0  0  0  0  0  0  0  0
   35.5490   28.7470   40.5530 C   0  0  0  0  0  0  0  0  0  0  0  0
   36.5040   28.0060   41.1240 N   0  0  0  0  0  0  0  0  0  0  0  0
   37.7360   28.4910   41.3410 C   0  0  0  0  0  0  0  0  0  0  0  0
   37.9970   29.7470   40.9700 N   0  0  0  0  0  0  0  0  0  0  0  0
   35.0610   30.6310   39.7180 H   0  0  0  0  0  0  0  0  0  0  0  0
   34.5380   28.3610   40.3710 H   0  0  0  0  0  0  0  0  0  0  0  0
   38.6670   27.3540   43.3050 C   0  0  0  0  0  0  0  0  0  0  0  0
   38.7540   27.6690   41.9620 C   0  0  0  0  0  0  0  0  0  0  0  0
   39.8370   27.1700   41.2580 C   0  0  0  0  0  0  0  0  0  0  0  0
   39.9100   27.4140   40.2070 H   0  0  0  0  0  0  0  0  0  0  0  0
   40.8170   26.3810   41.8480 C   0  0  0  0  0  0  0  0  0  0  0  0
   41.6390   26.0150   41.2700 H   0  0  0  0  0  0  0  0  0  0  0  0
   40.6840   26.0950   43.1910 C   0  0  0  0  0  3  0  0  0  0  0  0
   39.6250   26.5700   43.9230 C   0  0  0  0  0  3  0  0  0  0  0  0
   36.7000   28.2310   44.7340 N   0  0  0  0  0  0  0  0  0  0  0  0
   37.5650   27.8420   44.0920 C   0  0  0  0  0  0  0  0  0  0  0  0
  2  1  1  0  0  0  0
  3  2  2  0  0  0  0
  4  5  2  0  0  0  0
  4  3  1  0  0  0  0
  5  6  1  0  0  0  0
  6  2  1  0  0  0  0
  7  3  1  0  0  0  0
  8  4  1  0  0  0  0
  9 12  1  6  0  0  0
  9  5  1  0  0  0  0
  9 10  1  0  0  0  0
  9 11  1  0  0  0  0
 10 13  1  0  0  0  0
 10 11  1  0  0  0  0
 11 18  1  0  0  0  0
 11 15  1  1  0  0  0
 14 10  1  0  0  0  0
 16 19  1  0  0  0  0
 16 17  2  0  0  0  0
 18 16  1  0  0  0  0
 20 18  1  0  0  0  0
 21 23  1  0  0  0  0
 21  1  1  0  0  0  0
 22 21  2  0  0  0  0
 23 28  1  0  0  0  0
 24 23  2  0  0  0  0
 24 25  1  0  0  0  0
 25 26  2  0  0  0  0
 26 27  1  0  0  0  0
 27 32  1  0  0  0  0
 28 27  2  0  0  0  0
 29 24  1  0  0  0  0
 30 25  1  0  0  0  0
 31 38  1  0  0  0  0
 31 40  1  0  0  0  0
 32 31  2  0  0  0  0
 33 35  2  0  0  0  0
 33 32  1  0  0  0  0
 34 33  1  0  0  0  0
 35 37  1  0  0  0  0
 36 35  1  0  0  0  0
 37 38  2  0  0  0  0
 40 39  3  0  0  0  0
M  END
>  <minimizedAffinity>
-6.37896252

$$$$

 OpenBabel03242518413D

 40 43  0  0  1  0  0  0  0  0999 V2000
   38.3090   32.6750   41.1520 O   0  0  0  0  0  0  0  0  0  0  0  0
   39.2880   33.5110   40.5590 C   0  0  0  0  0  0  0  0  0  0  0  0
   39.3980   34.9050   40.4690 C   0  0  0  0  0  0  0  0  0  0  0  0
   40.5550   35.2190   39.7810 C   0  0  0  0  0  0  0  0  0  0  0  0
   41.0940   34.0090   39.4850 C   0  0  0  0  0  0  0  0  0  0  0  0
   40.3480   33.0150   39.9430 O   0  0  0  0  0  0  0  0  0  0  0  0
   38.6450   35.5450   40.9020 H   0  0  0  0  0  0  0  0  0  0  0  0
   40.8770   36.2300   39.5740 H   0  0  0  0  0  0  0  0  0  0  0  0
   42.3580   33.8260   38.7410 C   0  0  2  0  0  0  0  0  0  0  0  0
   42.6870   34.6720   37.5960 C   0  0  0  0  0  0  0  0  0  0  0  0
   42.1500   33.3210   37.2870 C   0  0  1  0  0  0  0  0  0  0  0  0
   43.1790   33.3520   39.3000 H   0  0  0  0  0  0  0  0  0  0  0  0
   41.9890   35.5220   37.3550 H   0  0  0  0  0  0  0  0  0  0  0  0
   43.7340   34.8850   37.3250 H   0  0  0  0  0  0  0  0  0  0  0  0
   41.1230   33.1240   36.9780 H   0  0  0  0  0  0  0  0  0  0  0  0
   42.7560   30.9770   36.7150 C   0  0  0  0  0  0  0  0  0  0  0  0
   41.5870   30.5560   36.9490 O   0  0  0  0  0  0  0  0  0  0  0  0
   43.1440   32.3290   36.8920 N   0  0  0  0  0  0  0  0  0  0  0  0
   43.5420   30.2970   36.3530 H   0  0  0  0  0  0  0  0  0  0  0  0
   44.1340   32.6190   36.7420 H   0  0  0  0  0  0  0  0  0  0  0  0
   37.4040   31.9950   40.3010 C   0  0  0  0  0  0  0  0  0  0  0  0
   36.9380   32.6570   39.3350 O   0  0  0  0  0  0  0  0  0  0  0  0
   37.1230   30.6390   40.6340 C   0  0  0  0  0  0  0  0  0  0  0  0
   35.8630   30.2020   40.3800 C   0  0  0  0  0  0  0  0  0  0  0  0
   35.5290   28.8860   40.6850 C   0  0  0  0  0  0  0  0  0  0  0  0
   36.4660   28.0960   41.2170 N   0  0  0  0  0  0  0  0  0  0  0  0
   37.7080   28.5430   41.4620 C   0  0  0  0  0  0  0  0  0  0  0  0
   37.9960   29.8110   41.1580 N   0  0  0  0  0  0  0  0  0  0  0  0
   35.0830   30.8210   39.9500 H   0  0  0  0  0  0  0  0  0  0  0  0
   34.5110   28.5310   40.4810 H   0  0  0  0  0  0  0  0  0  0  0  0
   38.6310   27.3150   43.3750 C   0  0  0  0  0  0  0  0  0  0  0  0
   38.7070   27.6670   42.0400 C   0  0  0  0  0  0  0  0  0  0  0  0
   39.7590   27.1530   41.3030 C   0  0  0  0  0  0  0  0  0  0  0  0
   39.8230   27.4250   40.2580 H   0  0  0  0  0  0  0  0  0  0  0  0
   40.7210   26.3130   41.8520 C   0  0  0  0  0  0  0  0  0  0  0  0
   41.5200   25.9360   41.2500 H   0  0  0  0  0  0  0  0  0  0  0  0
   40.6000   25.9920   43.1890 C   0  0  0  0  0  3  0  0  0  0  0  0
   39.5710   26.4810   43.9530 C   0  0  0  0  0  3  0  0  0  0  0  0
   36.6950   28.2120   44.8340 N   0  0  0  0  0  0  0  0  0  0  0  0
   37.5600   27.8180   44.1960 C   0  0  0  0  0  0  0  0  0  0  0  0
  2  1  1  0  0  0  0
  3  2  2  0  0  0  0
  3  7  1  0  0  0  0
  4  3  1  0  0  0  0
  5  4  2  0  0  0  0
  5  6  1  0  0  0  0
  6  2  1  0  0  0  0
  8  4  1  0  0  0  0
  9 12  1  1  0  0  0
  9  5  1  0  0  0  0
 10  9  1  0  0  0  0
 11 15  1  6  0  0  0
 11 10  1  0  0  0  0
 11  9  1  0  0  0  0
 13 10  1  0  0  0  0
 14 10  1  0  0  0  0
 16 18  1  0  0  0  0
 16 17  2  0  0  0  0
 18 11  1  0  0  0  0
 19 16  1  0  0  0  0
 20 18  1  0  0  0  0
 21 23  1  0  0  0  0
 21  1  1  0  0  0  0
 22 21  2  0  0  0  0
 23 28  1  0  0  0  0
 24 23  2  0  0  0  0
 24 25  1  0  0  0  0
 25 26  2  0  0  0  0
 26 27  1  0  0  0  0
 27 32  1  0  0  0  0
 28 27  2  0  0  0  0
 29 24  1  0  0  0  0
 30 25  1  0  0  0  0
 31 38  1  0  0  0  0
 31 40  1  0  0  0  0
 32 31  2  0  0  0  0
 33 35  2  0  0  0  0
 33 32  1  0  0  0  0
 34 33  1  0  0  0  0
 35 37  1  0  0  0  0
 36 35  1  0  0  0  0
 37 38  2  0  0  0  0
 40 39  3  0  0  0  0
M  END
>  <minimizedAffinity>
-6.34546137

$$$$

 OpenBabel03242518413D

 40 43  0  0  1  0  0  0  0  0999 V2000
   38.7160   32.7140   41.0620 O   0  0  0  0  0  0  0  0  0  0  0  0
   39.5320   33.7110   40.4720 C   0  0  0  0  0  0  0  0  0  0  0  0
   39.5950   35.0990   40.6550 C   0  0  0  0  0  0  0  0  0  0  0  0
   40.5750   35.6160   39.8280 C   0  0  0  0  0  0  0  0  0  0  0  0
   41.0620   34.5260   39.1820 C   0  0  0  0  0  0  0  0  0  0  0  0
   40.4470   33.4160   39.5640 O   0  0  0  0  0  0  0  0  0  0  0  0
   38.9390   35.5910   41.3560 H   0  0  0  0  0  0  0  0  0  0  0  0
   40.8270   36.6660   39.7760 H   0  0  0  0  0  0  0  0  0  0  0  0
   42.1420   34.5760   38.1760 C   0  0  2  0  0  0  0  0  0  0  0  0
   42.6480   33.3550   37.5520 C   0  0  0  0  0  0  0  0  0  0  0  0
   43.4650   33.9190   38.6580 C   0  0  1  0  0  0  0  0  0  0  0  0
   42.2500   35.5290   37.6350 H   0  0  0  0  0  0  0  0  0  0  0  0
   42.1280   32.3870   37.7980 H   0  0  0  0  0  0  0  0  0  0  0  0
   43.0770   33.3680   36.5360 H   0  0  0  0  0  0  0  0  0  0  0  0
   43.4750   33.5280   39.6750 H   0  0  0  0  0  0  0  0  0  0  0  0
   45.8430   34.5680   38.9950 C   0  0  0  0  0  0  0  0  0  0  0  0
   45.9330   33.9040   40.0680 O   0  0  0  0  0  0  0  0  0  0  0  0
   44.6460   34.6690   38.2430 N   0  0  0  0  0  0  0  0  0  0  0  0
   46.7110   35.1070   38.5880 H   0  0  0  0  0  0  0  0  0  0  0  0
   44.6030   35.2750   37.3960 H   0  0  0  0  0  0  0  0  0  0  0  0
   37.6500   32.1810   40.2980 C   0  0  0  0  0  0  0  0  0  0  0  0
   37.1720   32.9320   39.4050 O   0  0  0  0  0  0  0  0  0  0  0  0
   37.2400   30.8570   40.6250 C   0  0  0  0  0  0  0  0  0  0  0  0
   35.9500   30.5370   40.3460 C   0  0  0  0  0  0  0  0  0  0  0  0
   35.4910   29.2570   40.6440 C   0  0  0  0  0  0  0  0  0  0  0  0
   36.3420   28.3850   41.1950 N   0  0  0  0  0  0  0  0  0  0  0  0
   37.6140   28.7170   41.4640 C   0  0  0  0  0  0  0  0  0  0  0  0
   38.0230   29.9530   41.1660 N   0  0  0  0  0  0  0  0  0  0  0  0
   35.2390   31.2240   39.9000 H   0  0  0  0  0  0  0  0  0  0  0  0
   34.4490   28.9970   40.4200 H   0  0  0  0  0  0  0  0  0  0  0  0
   39.2060   26.8620   41.2630 C   0  0  0  0  0  0  0  0  0  0  0  0
   38.5170   27.7550   42.0610 C   0  0  0  0  0  0  0  0  0  0  0  0
   38.7300   27.6860   43.4270 C   0  0  0  0  0  0  0  0  0  0  0  0
   38.1930   28.3830   44.0570 H   0  0  0  0  0  0  0  0  0  0  0  0
   39.5950   26.7660   44.0070 C   0  0  0  0  0  0  0  0  0  0  0  0
   39.7320   26.7430   45.0670 H   0  0  0  0  0  0  0  0  0  0  0  0
   40.2580   25.8950   43.1660 C   0  0  0  0  0  3  0  0  0  0  0  0
   40.0740   25.9330   41.8070 C   0  0  0  0  0  3  0  0  0  0  0  0
   38.8940   26.9180   38.6970 N   0  0  0  0  0  0  0  0  0  0  0  0
   39.0280   26.8830   39.8340 C   0  0  0  0  0  0  0  0  0  0  0  0
  2  3  2  0  0  0  0
  2  1  1  0  0  0  0
  3  7  1  0  0  0  0
  4  3  1  0  0  0  0
  5  6  1  0  0  0  0
  5  4  2  0  0  0  0
  6  2  1  0  0  0  0
  8  4  1  0  0  0  0
  9 12  1  6  0  0  0
  9 11  1  0  0  0  0
  9  5  1  0  0  0  0
 10 13  1  0  0  0  0
 10  9  1  0  0  0  0
 10 11  1  0  0  0  0
 11 15  1  1  0  0  0
 14 10  1  0  0  0  0
 16 17  2  0  0  0  0
 18 11  1  0  0  0  0
 18 16  1  0  0  0  0
 19 16  1  0  0  0  0
 20 18  1  0  0  0  0
 21 23  1  0  0  0  0
 21  1  1  0  0  0  0
 22 21  2  0  0  0  0
 23 28  1  0  0  0  0
 24 23  2  0  0  0  0
 24 25  1  0  0  0  0
 25 26  2  0  0  0  0
 26 27  1  0  0  0  0
 27 32  1  0  0  0  0
 28 27  2  0  0  0  0
 29 24  1  0  0  0  0
 30 25  1  0  0  0  0
 31 38  2  0  0  0  0
 31 32  1  0  0  0  0
 32 33  2  0  0  0  0
 33 35  1  0  0  0  0
 33 34  1  0  0  0  0
 35 36  1  0  0  0  0
 37 35  2  0  0  0  0
 38 37  1  0  0  0  0
 39 40  3  0  0  0  0
 40 31  1  0  0  0  0
M  END
>  <minimizedAffinity>
-6.31960583

$$$$

 OpenBabel03242518413D

 40 43  0  0  1  0  0  0  0  0999 V2000
   38.0750   31.7700   39.4590 O   0  0  0  0  0  0  0  0  0  0  0  0
   38.6370   33.0480   39.7050 C   0  0  0  0  0  0  0  0  0  0  0  0
   38.0540   34.2830   40.0150 C   0  0  0  0  0  0  0  0  0  0  0  0
   39.0540   35.2270   40.1590 C   0  0  0  0  0  0  0  0  0  0  0  0
   40.1950   34.5270   39.9310 C   0  0  0  0  0  0  0  0  0  0  0  0
   39.9430   33.2540   39.6660 O   0  0  0  0  0  0  0  0  0  0  0  0
   36.9840   34.3790   40.1050 H   0  0  0  0  0  0  0  0  0  0  0  0
   38.8730   36.2650   40.4000 H   0  0  0  0  0  0  0  0  0  0  0  0
   41.5490   35.1170   39.9720 C   0  0  2  0  0  0  0  0  0  0  0  0
   42.7410   34.2740   39.9060 C   0  0  0  0  0  0  0  0  0  0  0  0
   42.3420   34.7530   41.2570 C   0  0  1  0  0  0  0  0  0  0  0  0
   41.6250   36.1650   39.6430 H   0  0  0  0  0  0  0  0  0  0  0  0
   42.5930   33.1710   39.7360 H   0  0  0  0  0  0  0  0  0  0  0  0
   43.6860   34.6530   39.4840 H   0  0  0  0  0  0  0  0  0  0  0  0
   41.8240   34.1420   41.9960 H   0  0  0  0  0  0  0  0  0  0  0  0
   44.1620   35.6410   42.7010 C   0  0  0  0  0  0  0  0  0  0  0  0
   44.4280   34.4960   43.1690 O   0  0  0  0  0  0  0  0  0  0  0  0
   43.1160   35.8760   41.7740 N   0  0  0  0  0  0  0  0  0  0  0  0
   44.7460   36.5250   42.9990 H   0  0  0  0  0  0  0  0  0  0  0  0
   42.8960   36.8450   41.4600 H   0  0  0  0  0  0  0  0  0  0  0  0
   37.5100   31.0640   40.5490 C   0  0  0  0  0  0  0  0  0  0  0  0
   36.3520   31.4150   40.9020 O   0  0  0  0  0  0  0  0  0  0  0  0
   38.3150   30.0380   41.1200 C   0  0  0  0  0  0  0  0  0  0  0  0
   39.4240   30.4420   41.7910 C   0  0  0  0  0  0  0  0  0  0  0  0
   40.2510   29.4850   42.3710 C   0  0  0  0  0  0  0  0  0  0  0  0
   39.9200   28.1960   42.2470 N   0  0  0  0  0  0  0  0  0  0  0  0
   38.8190   27.8120   41.5810 C   0  0  0  0  0  0  0  0  0  0  0  0
   38.0470   28.7560   41.0360 N   0  0  0  0  0  0  0  0  0  0  0  0
   39.7170   31.4800   41.9060 H   0  0  0  0  0  0  0  0  0  0  0  0
   41.1480   29.8100   42.9120 H   0  0  0  0  0  0  0  0  0  0  0  0
   37.4560   25.8750   42.2180 C   0  0  0  0  0  0  0  0  0  0  0  0
   38.4810   26.4090   41.4600 C   0  0  0  0  0  0  0  0  0  0  0  0
   39.1520   25.5550   40.6010 C   0  0  0  0  0  0  0  0  0  0  0  0
   39.9560   25.9680   40.0070 H   0  0  0  0  0  0  0  0  0  0  0  0
   38.8330   24.2080   40.4810 C   0  0  0  0  0  0  0  0  0  0  0  0
   39.3750   23.5810   39.8060 H   0  0  0  0  0  0  0  0  0  0  0  0
   37.8010   23.7240   41.2590 C   0  0  0  0  0  3  0  0  0  0  0  0
   37.1120   24.5380   42.1220 C   0  0  0  0  0  3  0  0  0  0  0  0
   36.1420   27.3670   43.8710 N   0  0  0  0  0  0  0  0  0  0  0  0
   36.7190   26.7110   43.1300 C   0  0  0  0  0  0  0  0  0  0  0  0
  1  2  1  0  0  0  0
  1 21  1  0  0  0  0
  2  3  2  0  0  0  0
  3  7  1  0  0  0  0
  3  4  1  0  0  0  0
  4  8  1  0  0  0  0
  5  9  1  0  0  0  0
  5  4  2  0  0  0  0
  6  2  1  0  0  0  0
  6  5  1  0  0  0  0
  9 12  1  6  0  0  0
  9 11  1  0  0  0  0
 10  9  1  0  0  0  0
 10 11  1  0  0  0  0
 11 18  1  0  0  0  0
 11 15  1  1  0  0  0
 13 10  1  0  0  0  0
 14 10  1  0  0  0  0
 16 19  1  0  0  0  0
 16 17  2  0  0  0  0
 18 16  1  0  0  0  0
 20 18  1  0  0  0  0
 21 22  2  0  0  0  0
 21 23  1  0  0  0  0
 23 24  1  0  0  0  0
 24 29  1  0  0  0  0
 24 25  2  0  0  0  0
 25 30  1  0  0  0  0
 26 25  1  0  0  0  0
 27 26  2  0  0  0  0
 28 23  2  0  0  0  0
 28 27  1  0  0  0  0
 31 40  1  0  0  0  0
 32 27  1  0  0  0  0
 32 31  2  0  0  0  0
 33 32  1  0  0  0  0
 34 33  1  0  0  0  0
 35 33  2  0  0  0  0
 35 37  1  0  0  0  0
 36 35  1  0  0  0  0
 37 38  2  0  0  0  0
 38 31  1  0  0  0  0
 40 39  3  0  0  0  0
M  END
>  <minimizedAffinity>
-6.20143843

$$$$

 OpenBabel03242518413D

 40 43  0  0  1  0  0  0  0  0999 V2000
   38.0440   29.2080   39.1350 O   0  0  0  0  0  0  0  0  0  0  0  0
   37.8710   30.6080   39.2740 C   0  0  0  0  0  0  0  0  0  0  0  0
   36.9810   31.5060   38.6690 C   0  0  0  0  0  0  0  0  0  0  0  0
   37.2280   32.7760   39.1550 C   0  0  0  0  0  0  0  0  0  0  0  0
   38.2510   32.5960   40.0290 C   0  0  0  0  0  0  0  0  0  0  0  0
   38.6210   31.3250   40.0930 O   0  0  0  0  0  0  0  0  0  0  0  0
   36.2550   31.1600   37.9500 H   0  0  0  0  0  0  0  0  0  0  0  0
   36.6780   33.6560   38.8500 H   0  0  0  0  0  0  0  0  0  0  0  0
   38.8740   33.6850   40.8090 C   0  0  2  0  0  0  0  0  0  0  0  0
   38.9400   35.0460   40.2830 C   0  0  0  0  0  0  0  0  0  0  0  0
   40.1790   34.2330   40.1700 C   0  0  1  0  0  0  0  0  0  0  0  0
   38.8990   33.5390   41.9010 H   0  0  0  0  0  0  0  0  0  0  0  0
   38.4240   35.2550   39.3050 H   0  0  0  0  0  0  0  0  0  0  0  0
   38.9560   35.9190   40.9570 H   0  0  0  0  0  0  0  0  0  0  0  0
   40.5150   33.7510   39.2520 H   0  0  0  0  0  0  0  0  0  0  0  0
   42.5730   34.5270   40.7780 C   0  0  0  0  0  0  0  0  0  0  0  0
   42.9670   34.2200   39.6160 O   0  0  0  0  0  0  0  0  0  0  0  0
   41.2090   34.5230   41.1630 N   0  0  0  0  0  0  0  0  0  0  0  0
   43.2900   34.8170   41.5610 H   0  0  0  0  0  0  0  0  0  0  0  0
   40.9360   34.7260   42.1470 H   0  0  0  0  0  0  0  0  0  0  0  0
   37.1990   28.3500   39.8800 C   0  0  0  0  0  0  0  0  0  0  0  0
   36.1780   27.9150   39.2830 O   0  0  0  0  0  0  0  0  0  0  0  0
   37.6010   28.0760   41.2190 C   0  0  0  0  0  0  0  0  0  0  0  0
   36.6110   28.0070   42.1450 C   0  0  0  0  0  0  0  0  0  0  0  0
   36.9420   27.7430   43.4710 C   0  0  0  0  0  0  0  0  0  0  0  0
   38.2300   27.5640   43.7840 N   0  0  0  0  0  0  0  0  0  0  0  0
   39.1970   27.6340   42.8560 C   0  0  0  0  0  0  0  0  0  0  0  0
   38.8450   27.8900   41.5930 N   0  0  0  0  0  0  0  0  0  0  0  0
   35.5600   28.1490   41.9190 H   0  0  0  0  0  0  0  0  0  0  0  0
   36.1440   27.6880   44.2210 H   0  0  0  0  0  0  0  0  0  0  0  0
   41.0750   26.1600   43.4180 C   0  0  0  0  0  0  0  0  0  0  0  0
   40.5850   27.4370   43.2200 C   0  0  0  0  0  0  0  0  0  0  0  0
   41.4670   28.4920   43.3820 C   0  0  0  0  0  0  0  0  0  0  0  0
   41.0880   29.4930   43.2280 H   0  0  0  0  0  0  0  0  0  0  0  0
   42.7990   28.3090   43.7310 C   0  0  0  0  0  0  0  0  0  0  0  0
   43.4490   29.1490   43.8480 H   0  0  0  0  0  0  0  0  0  0  0  0
   43.2390   27.0140   43.9180 C   0  0  0  0  0  3  0  0  0  0  0  0
   42.3960   25.9430   43.7660 C   0  0  0  0  0  3  0  0  0  0  0  0
   39.5330   24.1020   43.1480 N   0  0  0  0  0  0  0  0  0  0  0  0
   40.2080   25.0210   43.2640 C   0  0  0  0  0  0  0  0  0  0  0  0
  1  2  1  0  0  0  0
  1 21  1  0  0  0  0
  2  6  1  0  0  0  0
  3  4  1  0  0  0  0
  3  2  2  0  0  0  0
  4  5  2  0  0  0  0
  5  6  1  0  0  0  0
  5  9  1  0  0  0  0
  7  3  1  0  0  0  0
  8  4  1  0  0  0  0
  9 12  1  1  0  0  0
 10  9  1  0  0  0  0
 10 14  1  0  0  0  0
 11 15  1  6  0  0  0
 11 10  1  0  0  0  0
 11  9  1  0  0  0  0
 11 18  1  0  0  0  0
 13 10  1  0  0  0  0
 16 18  1  0  0  0  0
 16 19  1  0  0  0  0
 17 16  2  0  0  0  0
 18 20  1  0  0  0  0
 21 23  1  0  0  0  0
 22 21  2  0  0  0  0
 23 28  2  0  0  0  0
 23 24  1  0  0  0  0
 24 25  2  0  0  0  0
 25 26  1  0  0  0  0
 25 30  1  0  0  0  0
 27 32  1  0  0  0  0
 27 26  2  0  0  0  0
 28 27  1  0  0  0  0
 29 24  1  0  0  0  0
 31 38  1  0  0  0  0
 32 33  1  0  0  0  0
 32 31  2  0  0  0  0
 33 35  2  0  0  0  0
 34 33  1  0  0  0  0
 35 36  1  0  0  0  0
 35 37  1  0  0  0  0
 38 37  2  0  0  0  0
 39 40  3  0  0  0  0
 40 31  1  0  0  0  0
M  END
>  <minimizedAffinity>
-6.14564323

$$$$

 OpenBabel03242518413D

 40 43  0  0  1  0  0  0  0  0999 V2000
   37.8700   30.5990   40.1310 O   0  0  0  0  0  0  0  0  0  0  0  0
   37.9240   32.0090   39.9960 C   0  0  0  0  0  0  0  0  0  0  0  0
   37.1190   32.9130   39.2880 C   0  0  0  0  0  0  0  0  0  0  0  0
   37.6030   34.1920   39.4870 C   0  0  0  0  0  0  0  0  0  0  0  0
   38.6740   34.0120   40.3020 C   0  0  0  0  0  0  0  0  0  0  0  0
   38.8540   32.7330   40.5950 O   0  0  0  0  0  0  0  0  0  0  0  0
   36.2790   32.5640   38.7100 H   0  0  0  0  0  0  0  0  0  0  0  0
   37.1610   35.0780   39.0510 H   0  0  0  0  0  0  0  0  0  0  0  0
   39.5310   35.1090   40.7970 C   0  0  2  0  0  0  0  0  0  0  0  0
   39.9200   36.2140   39.9240 C   0  0  0  0  0  0  0  0  0  0  0  0
   40.9330   35.1440   40.1310 C   0  0  1  0  0  0  0  0  0  0  0  0
   39.5120   35.2770   41.8850 H   0  0  0  0  0  0  0  0  0  0  0  0
   39.4760   36.2460   38.8900 H   0  0  0  0  0  0  0  0  0  0  0  0
   40.1370   37.2150   40.3310 H   0  0  0  0  0  0  0  0  0  0  0  0
   41.1530   34.3590   39.4080 H   0  0  0  0  0  0  0  0  0  0  0  0
   42.9360   34.4700   41.4430 C   0  0  0  0  0  0  0  0  0  0  0  0
   42.8700   33.2730   41.0390 O   0  0  0  0  0  0  0  0  0  0  0  0
   41.9950   35.4660   41.0790 N   0  0  0  0  0  0  0  0  0  0  0  0
   43.7470   34.7990   42.1110 H   0  0  0  0  0  0  0  0  0  0  0  0
   42.0560   36.4240   41.4830 H   0  0  0  0  0  0  0  0  0  0  0  0
   36.9890   30.0510   41.0940 C   0  0  0  0  0  0  0  0  0  0  0  0
   35.9190   30.6840   41.2990 O   0  0  0  0  0  0  0  0  0  0  0  0
   37.4130   28.8440   41.7210 C   0  0  0  0  0  0  0  0  0  0  0  0
   37.7970   28.9400   43.0200 C   0  0  0  0  0  0  0  0  0  0  0  0
   38.2210   27.7940   43.6870 C   0  0  0  0  0  0  0  0  0  0  0  0
   38.2350   26.6350   43.0200 N   0  0  0  0  0  0  0  0  0  0  0  0
   37.8530   26.5580   41.7350 C   0  0  0  0  0  0  0  0  0  0  0  0
   37.4500   27.6750   41.1250 N   0  0  0  0  0  0  0  0  0  0  0  0
   37.7950   29.8660   43.5850 H   0  0  0  0  0  0  0  0  0  0  0  0
   38.5320   27.8700   44.7360 H   0  0  0  0  0  0  0  0  0  0  0  0
   39.0340   24.8680   40.4060 C   0  0  0  0  0  0  0  0  0  0  0  0
   37.8770   25.2900   41.0340 C   0  0  0  0  0  0  0  0  0  0  0  0
   36.7710   24.4620   40.9600 C   0  0  0  0  0  0  0  0  0  0  0  0
   35.8630   24.7880   41.4490 H   0  0  0  0  0  0  0  0  0  0  0  0
   36.7880   23.2450   40.2880 C   0  0  0  0  0  0  0  0  0  0  0  0
   35.9120   22.6330   40.2530 H   0  0  0  0  0  0  0  0  0  0  0  0
   37.9670   22.8680   39.6780 C   0  0  0  0  0  3  0  0  0  0  0  0
   39.0850   23.6620   39.7290 C   0  0  0  0  0  3  0  0  0  0  0  0
   41.1510   26.3500   40.4720 N   0  0  0  0  0  0  0  0  0  0  0  0
   40.2190   25.6850   40.4470 C   0  0  0  0  0  0  0  0  0  0  0  0
  1 21  1  0  0  0  0
  2  1  1  0  0  0  0
  2  6  1  0  0  0  0
  3  4  1  0  0  0  0
  3  2  2  0  0  0  0
  4  5  2  0  0  0  0
  5  6  1  0  0  0  0
  5  9  1  0  0  0  0
  7  3  1  0  0  0  0
  8  4  1  0  0  0  0
  9 12  1  1  0  0  0
 10 11  1  0  0  0  0
 10 14  1  0  0  0  0
 10  9  1  0  0  0  0
 11 15  1  6  0  0  0
 11  9  1  0  0  0  0
 11 18  1  0  0  0  0
 13 10  1  0  0  0  0
 16 19  1  0  0  0  0
 17 16  2  0  0  0  0
 18 16  1  0  0  0  0
 18 20  1  0  0  0  0
 21 22  2  0  0  0  0
 21 23  1  0  0  0  0
 23 24  1  0  0  0  0
 24 29  1  0  0  0  0
 24 25  2  0  0  0  0
 25 30  1  0  0  0  0
 26 25  1  0  0  0  0
 27 26  2  0  0  0  0
 28 23  2  0  0  0  0
 28 27  1  0  0  0  0
 31 40  1  0  0  0  0
 31 32  1  0  0  0  0
 32 27  1  0  0  0  0
 33 32  2  0  0  0  0
 33 34  1  0  0  0  0
 35 33  1  0  0  0  0
 36 35  1  0  0  0  0
 37 38  1  0  0  0  0
 37 35  2  0  0  0  0
 38 31  2  0  0  0  0
 40 39  3  0  0  0  0
M  END
>  <minimizedAffinity>
-6.0937748

$$$$
