
     RDKit          3D

 47 50  0  0  0  0  0  0  0  0999 V2000
   46.0266   35.7273   42.8290 C   0  0  0  0  0  0  0  0  0  0  0  0
   46.3929   34.4844   43.3941 C   0  0  0  0  0  0  0  0  0  0  0  0
   45.7764   34.0495   44.5470 C   0  0  0  0  0  0  0  0  0  0  0  0
   44.8296   34.8376   45.1044 N   0  0  0  0  0  0  0  0  0  0  0  0
   44.4680   36.0324   44.5730 C   0  0  0  0  0  0  0  0  0  0  0  0
   45.0739   36.4533   43.4458 N   0  0  0  0  0  0  0  0  0  0  0  0
   46.1730   32.7759   45.1119 C   0  0  0  0  0  0  0  0  0  0  0  0
   45.7957   31.6141   44.5075 C   0  0  0  0  0  0  0  0  0  0  0  0
   46.1790   30.4108   45.0551 C   0  0  0  0  0  0  0  0  0  0  0  0
   46.9446   30.3214   46.2136 C   0  0  0  0  0  0  0  0  0  0  0  0
   47.2952   31.5306   46.7789 C   0  0  0  0  0  0  0  0  0  0  0  0
   46.9035   32.6856   46.2169 N   0  0  0  0  0  0  0  0  0  0  0  0
   47.4131   33.7154   42.7210 C   0  0  0  0  0  0  0  0  0  0  0  0
   48.5064   33.5375   43.3204 O   0  0  0  0  0  0  0  0  0  0  0  0
   47.1275   33.2015   41.4188 N   0  0  0  0  0  0  0  0  0  0  0  0
   45.9408   32.5290   40.8977 C   0  0  0  0  0  0  0  0  0  0  0  0
   45.4799   33.2456   39.6103 C   0  0  0  0  0  0  0  0  0  0  0  0
   46.5460   33.0809   38.5510 C   0  0  0  0  0  0  0  0  0  0  0  0
   47.8196   32.5920   39.1804 C   0  0  0  0  0  0  0  0  0  0  0  0
   48.1564   33.3625   40.4282 C   0  0  2  0  0  0  0  0  0  0  0  0
   46.5064   36.0761   41.9235 H   0  0  0  0  0  0  0  0  0  0  0  0
   43.7016   36.5747   45.1037 H   0  0  0  0  0  0  0  0  0  0  0  0
   45.2030   31.5133   43.6137 H   0  0  0  0  0  0  0  0  0  0  0  0
   45.9064   29.4476   44.6149 H   0  0  0  0  0  0  0  0  0  0  0  0
   47.2619   29.3931   46.6688 H   0  0  0  0  0  0  0  0  0  0  0  0
   47.8882   31.6147   47.6805 H   0  0  0  0  0  0  0  0  0  0  0  0
   45.0860   32.7272   41.6064 H   0  0  0  0  0  0  0  0  0  0  0  0
   46.0884   31.4733   40.6861 H   0  0  0  0  0  0  0  0  0  0  0  0
   44.4941   32.8909   39.3206 H   0  0  0  0  0  0  0  0  0  0  0  0
   45.5078   34.3282   39.8979 H   0  0  0  0  0  0  0  0  0  0  0  0
   46.6999   33.9906   37.9393 H   0  0  0  0  0  0  0  0  0  0  0  0
   46.2043   32.2824   37.8509 H   0  0  0  0  0  0  0  0  0  0  0  0
   48.6589   32.6693   38.4642 H   0  0  0  0  0  0  0  0  0  0  0  0
   47.7299   31.5002   39.4072 H   0  0  0  0  0  0  0  0  0  0  0  0
   48.0700   34.4466   40.1171 H   0  0  0  0  0  0  0  0  0  0  0  0
   48.4566   35.6180   43.0499 N   0  0  0  0  0  0  0  0  0  0  0  0
   49.1802   34.8626   42.5398 C   0  0  0  0  0  0  0  0  0  0  0  0
   50.0839   33.9091   41.9205 C   0  0  0  0  0  0  0  0  0  0  0  0
   49.5287   33.1684   40.8686 C   0  0  0  0  0  0  0  0  0  0  0  0
   50.4565   32.2733   40.3233 C   0  0  0  0  0  0  0  0  0  0  0  0
   50.1068   31.6602   39.5012 H   0  0  0  0  0  0  0  0  0  0  0  0
   51.7567   32.1270   40.7556 C   0  0  0  0  0  0  0  0  0  0  0  0
   52.4138   31.4110   40.2809 H   0  0  0  0  0  0  0  0  0  0  0  0
   52.1977   32.9105   41.8019 C   0  0  0  0  0  0  0  0  0  0  0  0
   51.3691   33.8262   42.4146 C   0  0  0  0  0  0  0  0  0  0  0  0
   53.2026   32.8326   42.1741 H   0  0  0  0  0  0  0  0  0  0  0  0
   51.6469   34.4708   43.2366 H   0  0  0  0  0  0  0  0  0  0  0  0
  1  2  2  0
  1  6  1  0
  2  3  1  0
  3  7  1  0
  3  4  2  0
  5  4  1  0
  6  5  2  0
  7 12  2  0
  8  9  2  0
  8  7  1  0
  9 10  1  0
 10 11  2  0
 12 11  1  0
 13 14  2  0
 13  2  1  0
 15 13  1  0
 16 15  1  0
 17 16  1  0
 18 19  1  0
 18 17  1  0
 19 20  1  0
 20 15  1  0
  1 21  1  0
  5 22  1  0
  8 23  1  0
  9 24  1  0
 10 25  1  0
 11 26  1  0
 16 27  1  0
 16 28  1  0
 17 29  1  0
 17 30  1  0
 18 31  1  0
 18 32  1  0
 19 33  1  0
 19 34  1  0
 20 35  1  6
 36 37  3  0
 37 38  1  0
 38 39  2  0
 39 40  1  0
 40 41  1  0
 40 42  2  0
 42 43  1  0
 42 44  1  0
 44 45  2  0
 45 38  1  0
 44 46  1  0
 45 47  1  0
 20 39  1  0
M  ISO  8  21  14  22  14  23  14  24  14  25  14  26  14  27  13  28  13
M  ISO  8  29  13  30  13  31  13  32  13  33  13  34  13  35  13  41  15
M  ISO  1  43  16
M  END
>  <DihAtoms>  (1) 
18,19,38,37

>  <DihDeg>  (1) 
97.7751243042061

$$$$
