
 OpenBabel03252507203D

 45 48  0  0  1  0  0  0  0  0999 V2000
   44.8430   32.9640   41.6240 C   0  0  0  0  0  0  0  0  0  0  0  0
   45.8250   33.0770   40.8450 O   0  0  0  0  0  0  0  0  0  0  0  0
   43.7910   32.0140   41.4450 N   0  0  0  0  0  0  0  0  0  0  0  0
   43.1350   31.1260   42.4010 C   0  0  0  0  0  0  0  0  0  0  0  0
   41.6060   31.3200   42.3000 C   0  0  0  0  0  0  0  0  0  0  0  0
   41.1450   30.8680   40.9340 C   0  0  0  0  0  0  0  0  0  0  0  0
   42.3280   30.7110   40.0210 C   0  0  0  0  0  0  0  0  0  0  0  0
   43.2630   31.8870   40.1150 C   0  0  2  0  0  0  0  0  0  0  0  0
   43.3600   31.5010   43.4400 H   0  0  0  0  0  0  0  0  0  0  0  0
   43.3720   30.0740   42.2630 H   0  0  0  0  0  0  0  0  0  0  0  0
   41.1140   30.8230   43.1330 H   0  0  0  0  0  0  0  0  0  0  0  0
   41.4910   32.4340   42.3020 H   0  0  0  0  0  0  0  0  0  0  0  0
   40.3600   31.5170   40.4990 H   0  0  0  0  0  0  0  0  0  0  0  0
   40.6910   29.8550   41.0500 H   0  0  0  0  0  0  0  0  0  0  0  0
   41.9950   30.5900   38.9740 H   0  0  0  0  0  0  0  0  0  0  0  0
   42.8680   29.7620   40.2670 H   0  0  0  0  0  0  0  0  0  0  0  0
   42.5880   32.7880   40.0010 H   0  0  0  0  0  0  0  0  0  0  0  0
   44.0140   35.0320   42.6320 C   0  0  0  0  0  0  0  0  0  0  0  0
   44.7790   33.8500   42.7620 C   0  0  0  0  0  0  0  0  0  0  0  0
   45.4280   33.5830   43.9480 C   0  0  0  0  0  0  0  0  0  0  0  0
   45.3080   34.4710   44.9590 N   0  0  0  0  0  0  0  0  0  0  0  0
   44.5770   35.6080   44.8500 C   0  0  0  0  0  0  0  0  0  0  0  0
   43.9450   35.8660   43.6880 N   0  0  0  0  0  0  0  0  0  0  0  0
   43.5010   35.2500   41.7050 H   0  0  0  0  0  0  0  0  0  0  0  0
   44.5530   36.2430   45.7220 H   0  0  0  0  0  0  0  0  0  0  0  0
   46.2120   32.3690   44.0540 C   0  0  0  0  0  0  0  0  0  0  0  0
   47.5010   32.3490   43.6140 C   0  0  0  0  0  0  0  0  0  0  0  0
   48.2350   31.1890   43.7210 C   0  0  0  0  0  0  0  0  0  0  0  0
   47.7160   30.0180   44.2650 C   0  0  0  0  0  0  0  0  0  0  0  0
   46.4060   30.1010   44.6920 C   0  0  0  0  0  0  0  0  0  0  0  0
   45.7210   31.2500   44.5730 N   0  0  0  0  0  0  0  0  0  0  0  0
   48.0450   33.1650   43.1680 H   0  0  0  0  0  0  0  0  0  0  0  0
   49.2730   31.1140   43.3850 H   0  0  0  0  0  0  0  0  0  0  0  0
   48.2650   29.0910   44.3620 H   0  0  0  0  0  0  0  0  0  0  0  0
   45.8730   29.2700   45.1350 H   0  0  0  0  0  0  0  0  0  0  0  0
   44.2450   33.0160   38.1150 C   0  0  0  0  0  0  0  0  0  0  0  0
   44.2190   31.9470   39.0190 C   0  0  0  0  0  0  0  0  0  0  0  0
   45.1900   30.9880   38.7120 C   0  0  0  0  0  0  0  0  0  0  0  0
   45.2370   30.1240   39.3650 H   0  0  0  0  0  0  0  0  0  0  0  0
   46.0700   31.0700   37.6550 C   0  0  0  0  0  0  0  0  0  0  0  0
   46.7950   30.2850   37.4840 H   0  0  0  0  0  0  0  0  0  0  0  0
   46.0070   32.1700   36.8260 C   0  0  0  0  0  3  0  0  0  0  0  0
   45.0890   33.1770   37.0350 C   0  0  0  0  0  3  0  0  0  0  0  0
   42.4870   34.9000   38.5700 N   0  0  0  0  0  0  0  0  0  0  0  0
   43.2630   34.0560   38.3680 C   0  0  0  0  0  0  0  0  0  0  0  0
  1 19  1  0  0  0  0
  2  1  2  0  0  0  0
  3  1  1  0  0  0  0
  3  4  1  0  0  0  0
  4  9  1  0  0  0  0
  5 12  1  0  0  0  0
  5  4  1  0  0  0  0
  5 11  1  0  0  0  0
  6 14  1  0  0  0  0
  6  5  1  0  0  0  0
  7  8  1  0  0  0  0
  7 16  1  0  0  0  0
  7  6  1  0  0  0  0
  8 17  1  6  0  0  0
  8  3  1  0  0  0  0
 10  4  1  0  0  0  0
 13  6  1  0  0  0  0
 15  7  1  0  0  0  0
 18 19  2  0  0  0  0
 18 23  1  0  0  0  0
 19 20  1  0  0  0  0
 20 26  1  0  0  0  0
 20 21  2  0  0  0  0
 22 21  1  0  0  0  0
 22 25  1  0  0  0  0
 23 22  2  0  0  0  0
 24 18  1  0  0  0  0
 26 31  1  0  0  0  0
 27 28  1  0  0  0  0
 27 26  2  0  0  0  0
 28 29  2  0  0  0  0
 29 34  1  0  0  0  0
 29 30  1  0  0  0  0
 30 35  1  0  0  0  0
 31 30  2  0  0  0  0
 32 27  1  0  0  0  0
 33 28  1  0  0  0  0
 36 45  1  0  0  0  0
 36 37  1  0  0  0  0
 37  8  1  0  0  0  0
 38 37  2  0  0  0  0
 38 39  1  0  0  0  0
 40 38  1  0  0  0  0
 41 40  1  0  0  0  0
 42 43  1  0  0  0  0
 42 40  2  0  0  0  0
 43 36  2  0  0  0  0
 45 44  3  0  0  0  0
M  END
>  <minimizedAffinity>
-4.34346962

>  <minimizedRMSD>
4.74175787

$$$$
