
     RDKit          3D

 49 53  0  0  0  0  0  0  0  0999 V2000
   47.3400   32.3018   47.9533 C   0  0  0  0  0  0  0  0  0  0  0  0
   46.8511   31.0146   48.0179 C   0  0  0  0  0  0  0  0  0  0  0  0
   45.9665   30.6520   47.0521 C   0  0  0  0  0  0  0  0  0  0  0  0
   45.6136   31.5189   46.0986 N   0  0  0  0  0  0  0  0  0  0  0  0
   46.0817   32.7630   46.0187 C   0  0  0  0  0  0  0  0  0  0  0  0
   46.9554   33.1273   46.9813 N   0  0  0  0  0  0  0  0  0  0  0  0
   45.4013   29.3832   47.0387 N   0  0  0  0  0  0  0  0  0  0  0  0
   44.2751   28.9624   46.1794 C   0  0  0  0  0  0  0  0  0  0  0  0
   44.2117   27.4585   46.3138 C   0  0  0  0  0  0  0  0  0  0  0  0
   44.7697   27.2219   47.6902 C   0  0  0  0  0  0  0  0  0  0  0  0
   45.8079   28.2751   47.8512 C   0  0  0  0  0  0  0  0  0  0  0  0
   45.8418   33.8403   45.0580 C   0  0  0  0  0  0  0  0  0  0  0  0
   44.8836   34.7890   45.2500 N   0  0  0  0  0  0  0  0  0  0  0  0
   44.6318   35.8000   44.4215 C   0  0  0  0  0  0  0  0  0  0  0  0
   45.3643   35.9277   43.2912 N   0  0  0  0  0  0  0  0  0  0  0  0
   46.3441   35.0438   42.9949 C   0  0  0  0  0  0  0  0  0  0  0  0
   47.0635   35.1992   41.8450 C   0  0  0  0  0  0  0  0  0  0  0  0
   48.0596   34.3002   41.5344 C   0  0  0  0  0  0  0  0  0  0  0  0
   48.2943   33.2550   42.4182 C   0  0  0  0  0  0  0  0  0  0  0  0
   47.5203   33.1664   43.5651 C   0  0  0  0  0  0  0  0  0  0  0  0
   46.5350   34.0351   43.9004 C   0  0  0  0  0  0  0  0  0  0  0  0
   47.3329   30.1526   48.9971 N   0  0  0  0  0  0  0  0  0  0  0  0
   48.0540   32.6233   48.7261 H   0  0  0  0  0  0  0  0  0  0  0  0
   44.6016   29.1517   45.1290 H   0  0  0  0  0  0  0  0  0  0  0  0
   43.3421   29.4576   46.4420 H   0  0  0  0  0  0  0  0  0  0  0  0
   44.8507   26.9284   45.5915 H   0  0  0  0  0  0  0  0  0  0  0  0
   43.1613   27.1236   46.1944 H   0  0  0  0  0  0  0  0  0  0  0  0
   45.1756   26.1754   47.7745 H   0  0  0  0  0  0  0  0  0  0  0  0
   43.9158   27.2925   48.3866 H   0  0  0  0  0  0  0  0  0  0  0  0
   45.7198   28.4729   48.9643 H   0  0  0  0  0  0  0  0  0  0  0  0
   46.7922   27.9149   47.5468 H   0  0  0  0  0  0  0  0  0  0  0  0
   43.8328   36.4885   44.6993 H   0  0  0  0  0  0  0  0  0  0  0  0
   46.8104   36.0469   41.2114 H   0  0  0  0  0  0  0  0  0  0  0  0
   48.5615   34.5263   40.5950 H   0  0  0  0  0  0  0  0  0  0  0  0
   49.0993   32.6552   42.0211 H   0  0  0  0  0  0  0  0  0  0  0  0
   48.0417   29.3978   48.9605 H   0  0  0  0  0  0  0  0  0  0  0  0
   46.8288   30.3842   49.9005 H   0  0  0  0  0  0  0  0  0  0  0  0
   47.7614   31.2872   40.6742 N   0  0  0  0  0  0  0  0  0  0  0  0
   47.9772   31.1316   41.7954 C   0  0  0  0  0  0  0  0  0  0  0  0
   48.2386   30.9599   43.2042 C   0  0  0  0  0  0  0  0  0  0  0  0
   48.0035   31.9456   44.1938 C   0  0  0  0  0  0  0  0  0  0  0  0
   48.3279   31.5633   45.4834 C   0  0  0  0  0  0  0  0  0  0  0  0
   48.0973   32.4157   46.1425 H   0  0  0  0  0  0  0  0  0  0  0  0
   48.8392   30.3317   45.8093 C   0  0  0  0  0  0  0  0  0  0  0  0
   49.0181   30.2541   46.8831 H   0  0  0  0  0  0  0  0  0  0  0  0
   49.0654   29.3776   44.8427 C   0  0  0  0  0  0  0  0  0  0  0  0
   48.7602   29.7046   43.5397 C   0  0  0  0  0  0  0  0  0  0  0  0
   49.4661   28.4484   45.1956 H   0  0  0  0  0  0  0  0  0  0  0  0
   48.9481   28.9368   42.8036 H   0  0  0  0  0  0  0  0  0  0  0  0
  1  2  2  0
  2 22  1  0
  3  2  1  0
  4  3  2  0
  5  4  1  0
  5  6  2  0
  6  1  1  0
  7  3  1  0
  7 11  1  0
  8  9  1  0
  8  7  1  0
  9 10  1  0
 11 10  1  0
 12 13  2  0
 12  5  1  0
 14 13  1  0
 15 14  2  0
 16 15  1  0
 16 21  2  0
 17 16  1  0
 18 17  2  0
 18 19  1  0
 19 20  2  0
 20 21  1  0
 21 12  1  0
  1 23  1  0
  8 24  1  0
  8 25  1  0
  9 26  1  0
  9 27  1  0
 10 28  1  0
 10 29  1  0
 11 30  1  0
 11 31  1  0
 14 32  1  0
 17 33  1  0
 18 34  1  0
 19 35  1  0
 22 36  1  0
 22 37  1  0
 38 39  3  0
 39 40  1  0
 40 41  2  0
 41 42  1  0
 42 43  1  0
 42 44  2  0
 44 45  1  0
 44 46  1  0
 46 47  2  0
 47 40  1  0
 46 48  1  0
 47 49  1  0
 20 41  1  0
M  ISO  8  23  14  24  13  25  13  26  13  27  13  28  13  29  13  30  13
M  ISO  7  31  13  32  14  33  14  34  14  35  14  43  15  45  16
M  END
>  <DihAtoms>  (1) 
18,19,40,39

>  <DihDeg>  (1) 
-85.04994891903226

$$$$
