REMARK  Name = 
REMARK  6 active torsions:
REMARK  status: ('A' for Active; 'I' for Inactive)
REMARK    1  A    between atoms: C_1  and  N_2
REMARK    2  A    between atoms: C_1  and  C_11
REMARK    3  A    between atoms: C_7  and  C_8
REMARK    4  A    between atoms: C_9  and  C_13
REMARK    5  A    between atoms: C_16  and  C_41
REMARK    6  A    between atoms: C_39  and  C_40
REMARK                            x       y       z     vdW  Elec       q    Type
REMARK                         _______ _______ _______ _____ _____    ______ ____
ROOT
ATOM      1  C   UNL     1      46.058  34.406  44.058  0.00  0.00    +0.000 C 
ATOM      2  C   UNL     1      45.133  34.559  45.094  0.00  0.00    +0.000 C 
ATOM      3  C   UNL     1      46.250  33.652  45.406  0.00  0.00    +0.000 C 
ATOM      4  H   UNL     1      46.834  35.197  43.853  0.00  0.00    +0.000 HD
ATOM      5  H   UNL     1      45.053  35.538  45.632  0.00  0.00    +0.000 HD
ATOM      6  H   UNL     1      44.117  34.077  45.021  0.00  0.00    +0.000 HD
ATOM      7  H   UNL     1      47.177  33.979  45.901  0.00  0.00    +0.000 HD
ENDROOT
BRANCH   1   9
ATOM      8  C   UNL     1      44.570  33.240  42.425  0.00  0.00    +0.000 A 
ATOM      9  C   UNL     1      45.904  33.555  42.838  0.00  0.00    +0.000 A 
ATOM     10  C   UNL     1      46.964  33.081  42.132  0.00  0.00    +0.000 A 
ATOM     11  N   UNL     1      46.676  32.305  41.031  0.00  0.00    +0.000 NA
ATOM     12  C   UNL     1      45.413  32.016  40.652  0.00  0.00    +0.000 A 
ATOM     13  N   UNL     1      44.315  32.477  41.340  0.00  0.00    +0.000 NA
ATOM     14  H   UNL     1      43.740  33.611  42.979  0.00  0.00    +0.000 HD
ATOM     15  H   UNL     1      47.966  33.307  42.428  0.00  0.00    +0.000 HD
BRANCH  12  17
ATOM     16  C   UNL     1      45.706  29.904  39.417  0.00  0.00    +0.000 A 
ATOM     17  C   UNL     1      45.204  31.187  39.471  0.00  0.00    +0.000 A 
ATOM     18  C   UNL     1      44.492  31.729  38.422  0.00  0.00    +0.000 A 
ATOM     19  H   UNL     1      44.075  32.714  38.397  0.00  0.00    +0.000 HD
ATOM     20  C   UNL     1      44.277  30.964  37.286  0.00  0.00    +0.000 A 
ATOM     21  H   UNL     1      43.727  31.295  36.399  0.00  0.00    +0.000 HD
ATOM     22  C   UNL     1      44.764  29.657  37.179  0.00  0.00    +0.000 A 
ATOM     23  C   UNL     1      45.473  29.157  38.259  0.00  0.00    +0.000 A 
BRANCH  16  25
ATOM     24  N   UNL     1      47.053  28.926  41.400  0.00  0.00    +0.000 NA
ATOM     25  C   UNL     1      46.442  29.365  40.519  0.00  0.00    +0.000 C 
ENDBRANCH  16  25
ENDBRANCH  12  17
ENDBRANCH   1   9
BRANCH   3  26
ATOM     26  C   UNL     1      46.038  32.185  45.449  0.00  0.00    +0.000 C 
ATOM     27  H   UNL     1      46.962  31.688  45.116  0.00  0.00    +0.000 HD
ATOM     28  H   UNL     1      45.219  31.877  44.768  0.00  0.00    +0.000 HD
BRANCH  26  29
ATOM     29  N   UNL     1      45.782  31.833  46.799  0.00  0.00    +0.000 NA
ATOM     30  C   UNL     1      46.368  32.601  47.810  0.00  0.00    +0.000 C 
ATOM     31  C   UNL     1      47.743  32.040  48.224  0.00  0.00    +0.000 C 
ATOM     32  C   UNL     1      47.480  30.714  48.888  0.00  0.00    +0.000 C 
ATOM     33  C   UNL     1      46.814  29.844  47.860  0.00  0.00    +0.000 C 
ATOM     34  C   UNL     1      45.655  30.481  47.144  0.00  0.00    +0.000 C 
ATOM     35  H   UNL     1      45.748  32.401  48.738  0.00  0.00    +0.000 HD
ATOM     36  H   UNL     1      46.352  33.687  47.744  0.00  0.00    +0.000 HD
ATOM     37  H   UNL     1      48.379  31.893  47.345  0.00  0.00    +0.000 HD
ATOM     38  H   UNL     1      48.160  32.759  48.949  0.00  0.00    +0.000 HD
ATOM     39  H   UNL     1      48.473  30.254  49.100  0.00  0.00    +0.000 HD
ATOM     40  H   UNL     1      46.910  30.817  49.818  0.00  0.00    +0.000 HD
ATOM     41  H   UNL     1      47.533  29.476  47.131  0.00  0.00    +0.000 HD
ATOM     42  H   UNL     1      46.420  28.939  48.399  0.00  0.00    +0.000 HD
ATOM     43  H   UNL     1      44.764  30.366  47.822  0.00  0.00    +0.000 HD
BRANCH  34  44
ATOM     44  C   UNL     1      45.352  29.612  45.932  0.00  0.00    +0.000 C 
ATOM     45  H   UNL     1      46.242  29.549  45.262  0.00  0.00    +0.000 HD
ATOM     46  H   UNL     1      45.034  28.605  46.281  0.00  0.00    +0.000 HD
ATOM     47  H   UNL     1      44.463  30.027  45.407  0.00  0.00    +0.000 HD
ENDBRANCH  34  44
ENDBRANCH  26  29
ENDBRANCH   3  26
TORSDOF 6
