
 OpenBabel03252502083D

 49 53  0  0  0  0  0  0  0  0999 V2000
   45.6640   33.7760   45.3010 C   0  0  0  0  0  0  0  0  0  0  0  0
   44.8700   34.7740   45.7080 N   0  0  0  0  0  0  0  0  0  0  0  0
   44.5420   35.8390   44.9800 C   0  0  0  0  0  0  0  0  0  0  0  0
   45.0220   35.9720   43.7190 N   0  0  0  0  0  0  0  0  0  0  0  0
   45.8270   35.0400   43.1940 C   0  0  0  0  0  0  0  0  0  0  0  0
   46.3210   35.1670   41.9150 C   0  0  0  0  0  0  0  0  0  0  0  0
   47.1420   34.2290   41.3670 C   0  0  0  0  0  0  0  0  0  0  0  0
   47.4640   33.1360   42.1490 C   0  0  0  0  0  0  0  0  0  0  0  0
   46.9420   33.0500   43.4320 C   0  0  0  0  0  0  0  0  0  0  0  0
   46.1280   33.9600   44.0040 C   0  0  0  0  0  0  0  0  0  0  0  0
   43.8880   36.5830   45.4220 H   0  0  0  0  0  0  0  0  0  0  0  0
   46.0530   36.0330   41.3260 H   0  0  0  0  0  0  0  0  0  0  0  0
   47.5010   34.3790   40.3610 H   0  0  0  0  0  0  0  0  0  0  0  0
   47.5800   31.9860   47.7890 C   0  0  0  0  0  0  0  0  0  0  0  0
   47.0440   30.6950   47.8390 C   0  0  0  0  0  0  0  0  0  0  0  0
   45.9860   30.4320   47.0060 C   0  0  0  0  0  0  0  0  0  0  0  0
   45.5270   31.3860   46.2020 N   0  0  0  0  0  0  0  0  0  0  0  0
   46.0160   32.6050   46.1360 C   0  0  0  0  0  0  0  0  0  0  0  0
   47.0580   32.8890   46.9500 N   0  0  0  0  0  0  0  0  0  0  0  0
   45.4050   29.1850   47.0220 N   0  0  0  0  0  0  0  0  0  0  0  0
   44.1530   28.8470   46.2920 C   0  0  0  0  0  0  0  0  0  0  0  0
   44.0340   27.3500   46.3430 C   0  0  0  0  0  0  0  0  0  0  0  0
   44.7620   27.0040   47.6020 C   0  0  0  0  0  0  0  0  0  0  0  0
   45.8510   28.0140   47.7090 C   0  0  0  0  0  0  0  0  0  0  0  0
   48.4240   32.2400   48.4370 H   0  0  0  0  0  0  0  0  0  0  0  0
   43.2990   29.3910   46.7020 H   0  0  0  0  0  0  0  0  0  0  0  0
   44.3760   29.1240   45.2280 H   0  0  0  0  0  0  0  0  0  0  0  0
   42.9880   27.0070   46.3700 H   0  0  0  0  0  0  0  0  0  0  0  0
   44.5240   26.8500   45.4940 H   0  0  0  0  0  0  0  0  0  0  0  0
   45.1300   25.9550   47.5750 H   0  0  0  0  0  0  0  0  0  0  0  0
   44.0230   27.0560   48.4260 H   0  0  0  0  0  0  0  0  0  0  0  0
   46.7430   27.5980   47.2390 H   0  0  0  0  0  0  0  0  0  0  0  0
   45.9440   28.1480   48.8290 H   0  0  0  0  0  0  0  0  0  0  0  0
   47.6290   29.7910   48.6910 N   0  0  0  0  0  0  0  0  0  0  0  0
   48.2840   29.0190   48.4090 H   0  0  0  0  0  0  0  0  0  0  0  0
   47.5730   29.6630   49.7320 H   0  0  0  0  0  0  0  0  0  0  0  0
   49.6890   32.3930   41.5620 C   0  0  0  0  0  0  0  0  0  0  0  0
   48.3460   32.1520   41.5290 C   0  0  0  0  0  0  0  0  0  0  0  0
   47.8170   31.0210   40.9350 C   0  0  0  0  0  0  0  0  0  0  0  0
   46.7480   30.8720   40.9340 H   0  0  0  0  0  0  0  0  0  0  0  0
   48.6690   30.0970   40.3530 C   0  0  0  0  0  0  0  0  0  0  0  0
   48.3020   29.1970   39.8750 H   0  0  0  0  0  0  0  0  0  0  0  0
   50.0230   30.3700   40.4010 C   0  0  0  0  0  3  0  0  0  0  0  0
   50.5460   31.4860   40.9870 C   0  0  0  0  0  3  0  0  0  0  0  0
   50.6650   34.4840   42.6760 N   0  0  0  0  0  0  0  0  0  0  0  0
   50.2290   33.5590   42.1740 C   0  0  0  0  0  0  0  0  0  0  0  0
   47.3830   31.8480   44.0760 N   0  0  0  0  0  0  0  0  0  0  0  0
   46.6580   31.1430   43.7590 H   0  0  0  0  0  0  0  0  0  0  0  0
   48.1590   31.5840   44.6900 H   0  0  0  0  0  0  0  0  0  0  0  0
  1  2  1  0  0  0  0
  1 18  1  0  0  0  0
  3 11  1  0  0  0  0
  3  2  2  0  0  0  0
  4  3  1  0  0  0  0
  5  4  2  0  0  0  0
  5 10  1  0  0  0  0
  6  5  1  0  0  0  0
  7  6  2  0  0  0  0
  7  8  1  0  0  0  0
  8  9  2  0  0  0  0
  9 10  1  0  0  0  0
  9 47  1  0  0  0  0
 10  1  2  0  0  0  0
 12  6  1  0  0  0  0
 13  7  1  0  0  0  0
 14 15  1  0  0  0  0
 14 25  1  0  0  0  0
 15 34  1  0  0  0  0
 16 20  1  0  0  0  0
 16 15  2  0  0  0  0
 17 16  1  0  0  0  0
 18 17  2  0  0  0  0
 18 19  1  0  0  0  0
 19 14  2  0  0  0  0
 20 24  1  0  0  0  0
 21 22  1  0  0  0  0
 21 26  1  0  0  0  0
 21 20  1  0  0  0  0
 22 28  1  0  0  0  0
 22 23  1  0  0  0  0
 23 24  1  0  0  0  0
 23 31  1  0  0  0  0
 24 33  1  0  0  0  0
 27 21  1  0  0  0  0
 29 22  1  0  0  0  0
 30 23  1  0  0  0  0
 32 24  1  0  0  0  0
 34 36  1  0  0  0  0
 35 34  1  0  0  0  0
 37 46  1  0  0  0  0
 38 37  1  0  0  0  0
 38  8  1  0  0  0  0
 39 38  2  0  0  0  0
 40 39  1  0  0  0  0
 41 43  2  0  0  0  0
 41 39  1  0  0  0  0
 42 41  1  0  0  0  0
 43 44  1  0  0  0  0
 44 37  2  0  0  0  0
 46 45  3  0  0  0  0
 47 49  1  0  0  0  0
 48 47  1  0  0  0  0
M  END
>  <minimizedAffinity>
-6.93804264

>  <minimizedRMSD>
0.437514126

$$$$
