
     RDKit          3D

 34 36  0  0  0  0  0  0  0  0999 V2000
   46.6948   34.2478   40.6999 C   0  0  0  0  0  0  0  0  0  0  0  0
   48.0404   34.1939   41.3024 C   0  0  0  0  0  0  0  0  0  0  0  0
   48.7365   32.9720   41.1730 C   0  0  0  0  0  0  0  0  0  0  0  0
   50.0017   32.8669   41.7191 C   0  0  0  0  0  0  0  0  0  0  0  0
   50.5264   33.9632   42.3666 N   0  0  0  0  0  0  0  0  0  0  0  0
   49.8293   35.1011   42.4645 C   0  0  0  0  0  0  0  0  0  0  0  0
   48.6075   35.2099   41.9398 N   0  0  0  0  0  0  0  0  0  0  0  0
   48.0042   31.5870   40.3231 S   0  0  0  0  0  0  0  0  0  0  0  0
   45.6004   34.5418   41.6800 C   0  0  0  0  0  0  0  0  0  0  0  0
   44.2433   34.6529   41.0793 C   0  0  0  0  0  0  0  0  0  0  0  0
   43.2200   35.4178   41.7183 C   0  0  0  0  0  0  0  0  0  0  0  0
   41.7959   35.2054   40.5593 S   0  0  0  0  0  0  0  0  0  0  0  0
   42.8383   34.1283   39.4303 C   0  0  0  0  0  0  0  0  0  0  0  0
   43.8433   34.0999   39.9623 N   0  0  0  0  0  0  0  0  0  0  0  0
   46.6812   35.0925   39.9531 H   0  0  0  0  0  0  0  0  0  0  0  0
   46.4423   33.3559   40.1421 H   0  0  0  0  0  0  0  0  0  0  0  0
   50.5670   31.9430   41.6393 H   0  0  0  0  0  0  0  0  0  0  0  0
   50.3097   35.9254   42.9910 H   0  0  0  0  0  0  0  0  0  0  0  0
   48.9437   30.7920   39.6812 H   0  0  0  0  0  0  0  0  0  0  0  0
   45.8407   35.4439   42.3104 H   0  0  0  0  0  0  0  0  0  0  0  0
   45.5517   33.6967   42.4063 H   0  0  0  0  0  0  0  0  0  0  0  0
   43.3405   35.9623   42.6611 H   0  0  0  0  0  0  0  0  0  0  0  0
   45.6648   32.9773   37.4261 N   0  0  0  0  0  0  0  0  0  0  0  0
   44.5121   32.9969   37.3327 C   0  0  0  0  0  0  0  0  0  0  0  0
   43.0897   33.0100   37.1951 C   0  0  0  0  0  0  0  0  0  0  0  0
   42.3014   33.5434   38.1838 C   0  0  0  0  0  0  0  0  0  0  0  0
   40.9348   33.5667   38.0732 C   0  0  0  0  0  0  0  0  0  0  0  0
   40.3166   33.9854   38.8493 H   0  0  0  0  0  0  0  0  0  0  0  0
   40.3718   33.0437   36.9495 C   0  0  0  0  0  0  0  0  0  0  0  0
   39.2962   33.0556   36.8492 H   0  0  0  0  0  0  0  0  0  0  0  0
   41.1738   32.5097   35.9612 C   0  0  0  0  0  0  0  0  0  0  0  0
   42.5525   32.4715   36.0432 C   0  0  0  0  0  0  0  0  0  0  0  0
   40.7244   32.0940   35.0679 H   0  0  0  0  0  0  0  0  0  0  0  0
   43.2006   32.0592   35.2833 H   0  0  0  0  0  0  0  0  0  0  0  0
  1  2  1  0
  1  9  1  0
  2  7  1  0
  3  2  2  0
  3  4  1  0
  4  5  2  0
  5  6  1  0
  7  6  2  0
  8  3  1  0
 10  9  1  0
 10 11  2  0
 12 11  1  0
 13 14  2  0
 13 12  1  0
 14 10  1  0
  1 15  1  0
  1 16  1  0
  4 17  1  0
  6 18  1  0
  8 19  1  0
  9 20  1  0
  9 21  1  0
 11 22  1  0
 23 24  3  0
 24 25  1  0
 25 26  2  0
 26 27  1  0
 27 28  1  0
 27 29  2  0
 29 30  1  0
 29 31  1  0
 31 32  2  0
 32 25  1  0
 31 33  1  0
 32 34  1  0
 13 26  1  0
M  ISO  8  15   8  16   8  17  14  18  14  19  11  20   8  21   8  22  14
M  ISO  2  28  15  30  16
M  END
>  <DihAtoms>  (1) 
13,12,25,24

>  <DihDeg>  (1) 
179.9594468322379

$$$$
