
 OpenBabel03242517213D

 34 36  0  0  1  0  0  0  0  0999 V2000
   44.5550   35.6300   44.8570 C   0  0  0  0  0  0  0  0  0  0  0  0
   44.5900   35.3190   43.4790 C   0  0  0  0  0  0  0  0  0  0  0  0
   45.0850   34.0760   43.0710 C   0  0  0  0  0  0  0  0  0  0  0  0
   45.5060   33.2330   44.0510 N   0  0  0  0  0  0  0  0  0  0  0  0
   45.4720   33.5290   45.3580 C   0  0  0  0  0  0  0  0  0  0  0  0
   44.9930   34.7370   45.7620 N   0  0  0  0  0  0  0  0  0  0  0  0
   45.9310   32.5980   46.3490 N   0  0  0  0  0  0  0  0  0  0  0  0
   45.4720   32.7810   47.7100 C   0  0  0  0  0  0  0  0  0  0  0  0
   46.3050   32.0440   48.7180 C   0  0  0  0  0  0  0  0  0  0  0  0
   46.6120   30.6940   48.1650 C   0  0  0  0  0  0  0  0  0  0  0  0
   47.5550   30.8960   47.0060 C   0  0  0  0  0  0  0  0  0  0  0  0
   46.8140   31.5580   45.8930 C   0  0  1  0  0  0  0  0  0  0  0  0
   44.1760   36.5850   45.1720 H   0  0  0  0  0  0  0  0  0  0  0  0
   44.2400   36.0330   42.7400 H   0  0  0  0  0  0  0  0  0  0  0  0
   45.1340   33.7930   42.0400 H   0  0  0  0  0  0  0  0  0  0  0  0
   44.4580   32.3240   47.7630 H   0  0  0  0  0  0  0  0  0  0  0  0
   45.3390   33.8550   47.9620 H   0  0  0  0  0  0  0  0  0  0  0  0
   47.2620   32.5760   48.9530 H   0  0  0  0  0  0  0  0  0  0  0  0
   45.7360   32.0470   49.6720 H   0  0  0  0  0  0  0  0  0  0  0  0
   47.0980   30.0210   48.9290 H   0  0  0  0  0  0  0  0  0  0  0  0
   45.6690   30.1950   47.9090 H   0  0  0  0  0  0  0  0  0  0  0  0
   48.4270   31.4470   47.3730 H   0  0  0  0  0  0  0  0  0  0  0  0
   47.9000   29.8800   46.6820 H   0  0  0  0  0  0  0  0  0  0  0  0
   47.6100   32.1170   45.3170 H   0  0  0  0  0  0  0  0  0  0  0  0
   46.7850   30.4030   43.6680 C   0  0  0  0  0  0  0  0  0  0  0  0
   46.2120   30.6380   44.9060 C   0  0  0  0  0  0  0  0  0  0  0  0
   45.0310   29.9550   45.1650 C   0  0  0  0  0  0  0  0  0  0  0  0
   44.5100   30.0820   46.1210 H   0  0  0  0  0  0  0  0  0  0  0  0
   44.4550   29.0930   44.2540 C   0  0  0  0  0  0  0  0  0  0  0  0
   43.5330   28.5710   44.4790 H   0  0  0  0  0  0  0  0  0  0  0  0
   45.0790   28.9000   43.0310 C   0  0  0  0  0  3  0  0  0  0  0  0
   46.2640   29.5550   42.7120 C   0  0  0  0  0  3  0  0  0  0  0  0
   49.0020   31.6620   43.1180 N   0  0  0  0  0  0  0  0  0  0  0  0
   48.0060   31.0970   43.3760 C   0  0  0  0  0  0  0  0  0  0  0  0
  1 13  1  0  0  0  0
  1  6  1  0  0  0  0
  2  1  2  0  0  0  0
  3  2  1  0  0  0  0
  3  4  2  0  0  0  0
  4  5  1  0  0  0  0
  5  6  2  0  0  0  0
  5  7  1  0  0  0  0
  7  8  1  0  0  0  0
  8 16  1  0  0  0  0
  8 17  1  0  0  0  0
  8  9  1  0  0  0  0
  9 18  1  0  0  0  0
  9 19  1  0  0  0  0
 10  9  1  0  0  0  0
 10 20  1  0  0  0  0
 11 22  1  0  0  0  0
 11 10  1  0  0  0  0
 12 24  1  6  0  0  0
 12  7  1  0  0  0  0
 12 11  1  0  0  0  0
 14  2  1  0  0  0  0
 15  3  1  0  0  0  0
 21 10  1  0  0  0  0
 23 11  1  0  0  0  0
 25 26  1  0  0  0  0
 26 27  2  0  0  0  0
 26 12  1  0  0  0  0
 27 28  1  0  0  0  0
 29 30  1  0  0  0  0
 29 27  1  0  0  0  0
 31 29  2  0  0  0  0
 32 31  1  0  0  0  0
 32 25  2  0  0  0  0
 33 34  3  0  0  0  0
 34 25  1  0  0  0  0
M  END
>  <minimizedAffinity>
-4.30199575

>  <minimizedRMSD>
2.00902414

$$$$
