REMARK  Name = 
REMARK  3 active torsions:
REMARK  status: ('A' for Active; 'I' for Inactive)
REMARK    1  A    between atoms: C_3  and  N_7
REMARK    2  A    between atoms: C_12  and  C_28
REMARK    3  A    between atoms: C_26  and  C_27
REMARK                            x       y       z     vdW  Elec       q    Type
REMARK                         _______ _______ _______ _____ _____    ______ ____
ROOT
ATOM      1  N   UNL     1      46.879  34.596  42.279  0.00  0.00    +0.000 N 
ATOM      2  C   UNL     1      48.339  34.680  42.317  0.00  0.00    +0.000 C 
ATOM      3  C   UNL     1      48.710  35.462  41.039  0.00  0.00    +0.000 C 
ATOM      4  C   UNL     1      48.315  34.711  39.803  0.00  0.00    +0.000 C 
ATOM      5  C   UNL     1      47.096  33.886  39.948  0.00  0.00    +0.000 C 
ATOM      6  C   UNL     1      46.196  34.328  41.052  0.00  0.00    +0.000 C 
ATOM      7  H   UNL     1      48.807  33.693  42.173  0.00  0.00    +0.000 HD
ATOM      8  H   UNL     1      48.698  35.256  43.170  0.00  0.00    +0.000 HD
ATOM      9  H   UNL     1      49.791  35.684  41.015  0.00  0.00    +0.000 HD
ATOM     10  H   UNL     1      48.137  36.429  41.065  0.00  0.00    +0.000 HD
ATOM     11  H   UNL     1      48.181  35.447  38.984  0.00  0.00    +0.000 HD
ATOM     12  H   UNL     1      49.181  34.083  39.489  0.00  0.00    +0.000 HD
ATOM     13  H   UNL     1      46.499  33.778  39.023  0.00  0.00    +0.000 HD
ATOM     14  H   UNL     1      47.433  32.839  40.207  0.00  0.00    +0.000 HD
ATOM     15  H   UNL     1      45.837  35.359  40.717  0.00  0.00    +0.000 HD
ENDROOT
BRANCH   1  18
ATOM     16  C   UNL     1      44.474  35.917  44.799  0.00  0.00    +0.000 A 
ATOM     17  C   UNL     1      45.189  35.828  43.605  0.00  0.00    +0.000 A 
ATOM     18  C   UNL     1      46.104  34.782  43.445  0.00  0.00    +0.000 A 
ATOM     19  N   UNL     1      46.220  33.927  44.488  0.00  0.00    +0.000 NA
ATOM     20  C   UNL     1      45.526  34.019  45.638  0.00  0.00    +0.000 A 
ATOM     21  N   UNL     1      44.648  35.025  45.787  0.00  0.00    +0.000 NA
ATOM     22  H   UNL     1      43.775  36.739  44.888  0.00  0.00    +0.000 HD
ATOM     23  H   UNL     1      45.073  36.517  42.808  0.00  0.00    +0.000 HD
ATOM     24  H   UNL     1      45.748  33.248  46.360  0.00  0.00    +0.000 HD
ENDBRANCH   1  18
BRANCH   6  26
ATOM     25  C   UNL     1      44.816  32.396  41.943  0.00  0.00    +0.000 A 
ATOM     26  C   UNL     1      44.974  33.529  41.148  0.00  0.00    +0.000 A 
ATOM     27  C   UNL     1      43.792  33.818  40.453  0.00  0.00    +0.000 A 
ATOM     28  H   UNL     1      43.820  34.701  39.795  0.00  0.00    +0.000 HD
ATOM     29  C   UNL     1      42.619  33.135  40.499  0.00  0.00    +0.000 A 
ATOM     30  H   UNL     1      41.771  33.459  39.912  0.00  0.00    +0.000 HD
ATOM     31  C   UNL     1      42.576  32.028  41.321  0.00  0.00    +0.000 A 
ATOM     32  C   UNL     1      43.664  31.654  42.042  0.00  0.00    +0.000 A 
BRANCH  25  34
ATOM     33  N   UNL     1      46.850  31.592  43.330  0.00  0.00    +0.000 NA
ATOM     34  C   UNL     1      45.936  31.942  42.714  0.00  0.00    +0.000 C 
ENDBRANCH  25  34
ENDBRANCH   6  26
TORSDOF 3
