
     RDKit          3D

 50 53  0  0  0  0  0  0  0  0999 V2000
   44.1014   33.5447   40.7370 C   0  0  0  0  0  0  0  0  0  0  0  0
   44.4014   34.7278   41.4804 C   0  0  0  0  0  0  0  0  0  0  0  0
   43.4301   35.7251   41.5844 C   0  0  0  0  0  0  0  0  0  0  0  0
   42.2326   35.5228   40.9679 N   0  0  0  0  0  0  0  0  0  0  0  0
   41.9813   34.4117   40.2827 C   0  0  0  0  0  0  0  0  0  0  0  0
   42.9142   33.4458   40.1786 N   0  0  0  0  0  0  0  0  0  0  0  0
   39.7433   33.6607   41.7388 F   0  0  0  0  0  0  0  0  0  0  0  0
   39.5738   33.8547   40.3964 C   0  0  0  0  0  0  0  0  0  0  0  0
   40.6825   34.2335   39.6355 C   0  0  0  0  0  0  0  0  0  0  0  0
   40.5937   34.4481   38.2783 C   0  0  0  0  0  0  0  0  0  0  0  0
   39.3509   34.2742   37.6788 C   0  0  0  0  0  0  0  0  0  0  0  0
   38.2133   33.8906   38.4296 C   0  0  0  0  0  0  0  0  0  0  0  0
   38.3419   33.6834   39.7960 C   0  0  0  0  0  0  0  0  0  0  0  0
   45.7028   34.9326   42.1427 C   0  0  0  0  0  0  0  0  0  0  0  0
   46.8664   34.7053   41.5177 C   0  0  0  0  0  0  0  0  0  0  0  0
   48.1617   34.9321   42.2445 C   0  0  0  0  0  0  0  0  0  0  0  0
   49.2800   34.3302   41.6126 N   0  0  0  0  0  0  0  0  0  0  0  0
   50.3053   33.9475   42.5260 C   0  0  0  0  0  0  0  0  0  0  0  0
   50.9937   32.7386   41.9504 C   0  0  0  0  0  0  0  0  0  0  0  0
   49.9331   32.1209   41.1019 C   0  0  0  0  0  0  0  0  0  0  0  0
   48.9207   33.1948   40.8068 C   0  0  2  0  0  0  0  0  0  0  0  0
   44.8961   32.8253   40.7021 H   0  0  0  0  0  0  0  0  0  0  0  0
   43.6095   36.6370   42.1353 H   0  0  0  0  0  0  0  0  0  0  0  0
   41.4488   34.7415   37.6845 H   0  0  0  0  0  0  0  0  0  0  0  0
   39.1886   34.4213   36.6167 H   0  0  0  0  0  0  0  0  0  0  0  0
   37.2523   33.7594   37.9474 H   0  0  0  0  0  0  0  0  0  0  0  0
   37.4866   33.3895   40.3924 H   0  0  0  0  0  0  0  0  0  0  0  0
   45.6600   35.2803   43.1718 H   0  0  0  0  0  0  0  0  0  0  0  0
   46.6586   34.3677   40.5076 H   0  0  0  0  0  0  0  0  0  0  0  0
   48.0265   34.4339   43.2446 H   0  0  0  0  0  0  0  0  0  0  0  0
   48.2996   36.0155   42.4764 H   0  0  0  0  0  0  0  0  0  0  0  0
   49.8562   33.6021   43.4947 H   0  0  0  0  0  0  0  0  0  0  0  0
   51.0684   34.7262   42.7169 H   0  0  0  0  0  0  0  0  0  0  0  0
   51.3190   32.0059   42.7061 H   0  0  0  0  0  0  0  0  0  0  0  0
   51.8352   33.0658   41.3225 H   0  0  0  0  0  0  0  0  0  0  0  0
   50.3766   31.7838   40.1312 H   0  0  0  0  0  0  0  0  0  0  0  0
   49.4244   31.2569   41.5740 H   0  0  0  0  0  0  0  0  0  0  0  0
   47.8920   32.8566   41.1046 H   0  0  0  0  0  0  0  0  0  0  0  0
   45.9136   35.0645   40.1368 N   0  0  0  0  0  0  0  0  0  0  0  0
   46.8320   34.7345   39.5130 C   0  0  0  0  0  0  0  0  0  0  0  0
   47.9738   34.3352   38.7155 C   0  0  0  0  0  0  0  0  0  0  0  0
   48.9308   33.6056   39.3907 C   0  0  0  0  0  0  0  0  0  0  0  0
   50.0220   33.2314   38.6030 C   0  0  0  0  0  0  0  0  0  0  0  0
   50.8159   32.6534   39.0703 H   0  0  0  0  0  0  0  0  0  0  0  0
   50.1894   33.5322   37.2640 C   0  0  0  0  0  0  0  0  0  0  0  0
   51.0710   33.1954   36.7454 H   0  0  0  0  0  0  0  0  0  0  0  0
   49.2066   34.2612   36.6400 C   0  0  0  0  0  0  0  0  0  0  0  0
   48.1116   34.6510   37.3812 C   0  0  0  0  0  0  0  0  0  0  0  0
   49.3444   34.4887   35.6059 H   0  0  0  0  0  0  0  0  0  0  0  0
   47.3299   35.2275   36.8962 H   0  0  0  0  0  0  0  0  0  0  0  0
  1  2  2  0
  2  3  1  0
  2 14  1  0
  4  3  2  0
  5  4  1  0
  6  5  2  0
  6  1  1  0
  8  7  1  0
  9  5  1  0
  9  8  2  0
 10  9  1  0
 11 10  2  0
 11 12  1  0
 12 13  2  0
 13  8  1  0
 15 14  2  0
 15 16  1  0
 17 16  1  0
 17 18  1  0
 19 18  1  0
 20 19  1  0
 21 20  1  0
 21 17  1  0
  1 22  1  0
  3 23  1  0
 10 24  1  0
 11 25  1  0
 12 26  1  0
 13 27  1  0
 14 28  1  0
 15 29  1  0
 16 30  1  0
 16 31  1  0
 18 32  1  0
 18 33  1  0
 19 34  1  0
 19 35  1  0
 20 36  1  0
 20 37  1  0
 21 38  1  1
 39 40  3  0
 40 41  1  0
 41 42  2  0
 42 43  1  0
 43 44  1  0
 43 45  2  0
 45 46  1  0
 45 47  1  0
 47 48  2  0
 48 41  1  0
 47 49  1  0
 48 50  1  0
 21 42  1  0
M  ISO  8  22  14  23  14  24  14  25  14  26  14  27  14  30   8  31   8
M  ISO  8  32  13  33  13  34  13  35  13  36  13  37  13  38  13  44  15
M  ISO  1  46  16
M  END
>  <DihAtoms>  (1) 
19,20,41,40

>  <DihDeg>  (1) 
89.99184148652441

$$$$
