
 OpenBabel03252508393D

 42 45  0  0  0  0  0  0  0  0999 V2000
   45.1810   33.9760   40.7000 C   0  0  0  0  0  0  0  0  0  0  0  0
   44.1340   33.6480   39.8640 C   0  0  0  0  0  0  0  0  0  0  0  0
   44.4380   33.1670   38.6270 C   0  0  0  0  0  0  0  0  0  0  0  0
   45.7150   32.9900   38.1720 C   0  0  0  0  0  0  0  0  0  0  0  0
   46.7380   33.3210   39.0160 C   0  0  0  0  0  0  0  0  0  0  0  0
   46.4950   33.8180   40.2900 C   0  0  0  0  0  0  0  0  0  0  0  0
   43.6180   32.9090   37.9710 H   0  0  0  0  0  0  0  0  0  0  0  0
   45.8770   32.6030   37.1760 H   0  0  0  0  0  0  0  0  0  0  0  0
   47.7480   33.1770   38.6440 H   0  0  0  0  0  0  0  0  0  0  0  0
   40.8360   35.2320   40.7870 C   0  0  0  0  0  0  0  0  0  0  0  0
   42.1330   35.0780   40.2630 C   0  0  0  0  0  0  0  0  0  0  0  0
   42.7960   33.8520   40.3890 C   0  0  0  0  0  0  0  0  0  0  0  0
   42.0920   32.8900   41.0320 N   0  0  0  0  0  0  0  0  0  0  0  0
   40.8660   33.0480   41.5230 C   0  0  0  0  0  0  0  0  0  0  0  0
   40.2440   34.2270   41.3950 N   0  0  0  0  0  0  0  0  0  0  0  0
   40.2130   36.5000   40.6290 N   0  0  0  0  0  0  0  0  0  0  0  0
   42.6380   35.8920   39.7590 H   0  0  0  0  0  0  0  0  0  0  0  0
   40.4120   32.1950   42.0170 H   0  0  0  0  0  0  0  0  0  0  0  0
   40.7440   37.0960   41.3020 H   0  0  0  0  0  0  0  0  0  0  0  0
   39.4190   36.6270   39.9510 H   0  0  0  0  0  0  0  0  0  0  0  0
   47.6530   34.1410   41.1060 C   0  0  0  0  0  0  0  0  0  0  0  0
   48.1490   35.4120   40.9490 C   0  0  0  0  0  0  0  0  0  0  0  0
   49.2530   35.9030   41.6480 C   0  0  0  0  0  0  0  0  0  0  0  0
   49.8660   35.0550   42.5370 C   0  0  0  0  0  0  0  0  0  0  0  0
   49.3850   33.7760   42.7090 C   0  0  0  0  0  0  0  0  0  0  0  0
   48.2850   33.3180   41.9990 C   0  0  0  0  0  0  0  0  0  0  0  0
   47.7210   36.1560   40.2610 H   0  0  0  0  0  0  0  0  0  0  0  0
   49.6290   36.9060   41.5120 H   0  0  0  0  0  0  0  0  0  0  0  0
   50.7330   35.3460   43.1270 H   0  0  0  0  0  0  0  0  0  0  0  0
   49.8630   33.0940   43.4100 H   0  0  0  0  0  0  0  0  0  0  0  0
   48.3940   31.0070   41.3620 C   0  0  0  0  0  0  0  0  0  0  0  0
   47.7750   31.9620   42.1820 C   0  0  0  0  0  0  0  0  0  0  0  0
   46.8050   31.5000   43.0130 C   0  0  0  0  0  0  0  0  0  0  0  0
   46.3470   32.2600   43.6290 H   0  0  0  0  0  0  0  0  0  0  0  0
   46.4490   30.1680   43.0470 C   0  0  0  0  0  0  0  0  0  0  0  0
   45.6610   29.9090   43.7480 H   0  0  0  0  0  0  0  0  0  0  0  0
   47.0560   29.2260   42.2400 C   0  0  0  0  0  3  0  0  0  0  0  0
   48.0370   29.6940   41.4010 C   0  0  0  0  0  3  0  0  0  0  0  0
   50.2740   31.6650   39.6700 N   0  0  0  0  0  0  0  0  0  0  0  0
   49.4480   31.3660   40.4240 C   0  0  0  0  0  0  0  0  0  0  0  0
   44.7680   34.9030   43.0970 N   0  0  0  0  0  0  0  0  0  0  0  0
   44.9520   34.5000   42.0230 C   0  0  0  0  0  0  0  0  0  0  0  0
  1 42  1  0  0  0  0
  2 12  1  0  0  0  0
  2  1  2  0  0  0  0
  3  2  1  0  0  0  0
  4  3  2  0  0  0  0
  4  5  1  0  0  0  0
  5  6  2  0  0  0  0
  6  1  1  0  0  0  0
  6 21  1  0  0  0  0
  7  3  1  0  0  0  0
  8  4  1  0  0  0  0
  9  5  1  0  0  0  0
 10 15  1  0  0  0  0
 11 12  1  0  0  0  0
 11 10  2  0  0  0  0
 12 13  2  0  0  0  0
 13 14  1  0  0  0  0
 14 18  1  0  0  0  0
 15 14  2  0  0  0  0
 16 10  1  0  0  0  0
 16 19  1  0  0  0  0
 17 11  1  0  0  0  0
 20 16  1  0  0  0  0
 21 26  1  0  0  0  0
 22 21  2  0  0  0  0
 22 23  1  0  0  0  0
 23 24  2  0  0  0  0
 24 25  1  0  0  0  0
 24 29  1  0  0  0  0
 25 30  1  0  0  0  0
 26 32  1  0  0  0  0
 26 25  2  0  0  0  0
 27 22  1  0  0  0  0
 28 23  1  0  0  0  0
 31 38  2  0  0  0  0
 31 32  1  0  0  0  0
 32 33  2  0  0  0  0
 33 35  1  0  0  0  0
 33 34  1  0  0  0  0
 35 36  1  0  0  0  0
 37 35  2  0  0  0  0
 38 37  1  0  0  0  0
 39 40  3  0  0  0  0
 40 31  1  0  0  0  0
 42 41  3  0  0  0  0
M  END
>  <minimizedAffinity>
-5.99212074

>  <minimizedRMSD>
0.930273652

$$$$
