
 OpenBabel03252501513D

 46 49  0  0  1  0  0  0  0  0999 V2000
   47.2730   34.8030   42.3290 C   0  0  0  0  0  0  0  0  0  0  0  0
   46.8950   35.5150   43.1150 H   0  0  0  0  0  0  0  0  0  0  0  0
   48.0160   35.3900   41.7370 H   0  0  0  0  0  0  0  0  0  0  0  0
   47.8240   33.6790   42.9950 N   0  0  0  0  0  0  0  0  0  0  0  0
   47.2800   33.4720   44.2960 C   0  0  0  0  0  0  0  0  0  0  0  0
   47.3100   31.9920   44.5670 C   0  0  0  0  0  0  0  0  0  0  0  0
   47.2500   31.3990   43.1990 C   0  0  0  0  0  0  0  0  0  0  0  0
   47.7000   32.4640   42.2360 C   0  0  2  0  0  0  0  0  0  0  0  0
   46.1950   33.7580   44.3160 H   0  0  0  0  0  0  0  0  0  0  0  0
   47.8230   33.9870   45.1110 H   0  0  0  0  0  0  0  0  0  0  0  0
   46.4500   31.6260   45.1520 H   0  0  0  0  0  0  0  0  0  0  0  0
   48.2620   31.7300   45.0500 H   0  0  0  0  0  0  0  0  0  0  0  0
   47.9670   30.5410   43.1300 H   0  0  0  0  0  0  0  0  0  0  0  0
   46.2430   31.0410   42.9060 H   0  0  0  0  0  0  0  0  0  0  0  0
   46.9270   32.6210   41.4360 H   0  0  0  0  0  0  0  0  0  0  0  0
   49.3230   32.1010   40.2850 C   0  0  0  0  0  0  0  0  0  0  0  0
   49.0080   32.1590   41.6270 C   0  0  0  0  0  0  0  0  0  0  0  0
   50.0830   31.8880   42.4760 C   0  0  0  0  0  0  0  0  0  0  0  0
   49.9080   31.9150   43.5490 H   0  0  0  0  0  0  0  0  0  0  0  0
   51.3700   31.5840   42.0730 C   0  0  0  0  0  0  0  0  0  0  0  0
   52.1320   31.3910   42.8110 H   0  0  0  0  0  0  0  0  0  0  0  0
   51.6300   31.5410   40.7260 C   0  0  0  0  0  3  0  0  0  0  0  0
   50.5970   31.8020   39.8520 C   0  0  0  0  0  3  0  0  0  0  0  0
   47.3540   32.6010   38.6510 N   0  0  0  0  0  0  0  0  0  0  0  0
   48.2220   32.3780   39.3850 C   0  0  0  0  0  0  0  0  0  0  0  0
   44.8410   34.5900   42.0160 C   0  0  0  0  0  3  0  0  0  0  0  0
   46.0680   34.4750   41.4910 C   0  0  0  0  0  3  0  0  0  0  0  0
   42.8350   33.1170   41.4900 C   0  0  0  0  0  0  0  0  0  0  0  0
   43.6230   34.2830   41.2420 C   0  0  0  0  0  0  0  0  0  0  0  0
   43.2290   35.1620   40.2320 C   0  0  0  0  0  0  0  0  0  0  0  0
   42.1030   34.8670   39.5260 N   0  0  0  0  0  0  0  0  0  0  0  0
   41.3890   33.7740   39.7790 C   0  0  0  0  0  0  0  0  0  0  0  0
   41.7640   32.9220   40.7520 N   0  0  0  0  0  0  0  0  0  0  0  0
   43.2010   32.4900   42.2800 H   0  0  0  0  0  0  0  0  0  0  0  0
   43.7910   36.0570   40.0070 H   0  0  0  0  0  0  0  0  0  0  0  0
   39.1500   35.4030   39.9530 F   0  0  0  0  0  0  0  0  0  0  0  0
   39.0750   34.3310   39.1070 C   0  0  0  0  0  0  0  0  0  0  0  0
   40.1850   33.4930   38.9980 C   0  0  0  0  0  0  0  0  0  0  0  0
   40.1890   32.3940   38.1670 C   0  0  0  0  0  0  0  0  0  0  0  0
   39.0360   32.1410   37.4310 C   0  0  0  0  0  0  0  0  0  0  0  0
   37.8980   32.9780   37.5250 C   0  0  0  0  0  0  0  0  0  0  0  0
   37.9330   34.0760   38.3740 C   0  0  0  0  0  0  0  0  0  0  0  0
   41.0460   31.7410   38.0780 H   0  0  0  0  0  0  0  0  0  0  0  0
   38.9490   31.2990   36.7530 H   0  0  0  0  0  0  0  0  0  0  0  0
   37.0070   32.7660   36.9450 H   0  0  0  0  0  0  0  0  0  0  0  0
   37.0750   34.7300   38.4640 H   0  0  0  0  0  0  0  0  0  0  0  0
  1  4  1  0  0  0  0
  1  2  1  0  0  0  0
  3  1  1  0  0  0  0
  4  5  1  0  0  0  0
  5  9  1  0  0  0  0
  5  6  1  0  0  0  0
  5 10  1  0  0  0  0
  6 12  1  0  0  0  0
  6 11  1  0  0  0  0
  7  6  1  0  0  0  0
  8 15  1  6  0  0  0
  8  4  1  0  0  0  0
  8  7  1  0  0  0  0
 13  7  1  0  0  0  0
 14  7  1  0  0  0  0
 16 17  1  0  0  0  0
 17  8  1  0  0  0  0
 17 18  2  0  0  0  0
 18 19  1  0  0  0  0
 20 18  1  0  0  0  0
 20 21  1  0  0  0  0
 22 20  2  0  0  0  0
 23 16  2  0  0  0  0
 23 22  1  0  0  0  0
 24 25  3  0  0  0  0
 25 16  1  0  0  0  0
 27 26  2  0  0  0  0
 27  1  1  0  0  0  0
 28 34  1  0  0  0  0
 29 28  1  0  0  0  0
 29 26  1  0  0  0  0
 30 29  2  0  0  0  0
 31 32  2  0  0  0  0
 31 30  1  0  0  0  0
 32 33  1  0  0  0  0
 33 28  2  0  0  0  0
 35 30  1  0  0  0  0
 37 36  1  0  0  0  0
 38 37  1  0  0  0  0
 38 32  1  0  0  0  0
 39 38  2  0  0  0  0
 40 41  2  0  0  0  0
 40 39  1  0  0  0  0
 41 42  1  0  0  0  0
 42 46  1  0  0  0  0
 42 37  2  0  0  0  0
 43 39  1  0  0  0  0
 44 40  1  0  0  0  0
 45 41  1  0  0  0  0
M  END
>  <minimizedAffinity>
-5.43596745

>  <minimizedRMSD>
2.75555897

$$$$
