
 OpenBabel03252508403D

 42 45  0  0  0  0  0  0  0  0999 V2000
   38.6460   30.2710   38.1800 C   0  0  0  0  0  0  0  0  0  0  0  0
   40.0240   30.2670   38.1110 C   0  0  0  0  0  0  0  0  0  0  0  0
   40.6390   29.0940   37.7940 C   0  0  0  0  0  0  0  0  0  0  0  0
   39.9700   27.9290   37.5400 C   0  0  0  0  0  0  0  0  0  0  0  0
   38.6050   27.9540   37.6130 C   0  0  0  0  0  0  0  0  0  0  0  0
   37.9190   29.1180   37.9320 C   0  0  0  0  0  0  0  0  0  0  0  0
   41.7190   29.0890   37.7400 H   0  0  0  0  0  0  0  0  0  0  0  0
   40.5290   27.0370   37.2950 H   0  0  0  0  0  0  0  0  0  0  0  0
   38.0850   27.0230   37.4090 H   0  0  0  0  0  0  0  0  0  0  0  0
   41.9760   33.4690   37.6960 C   0  0  0  0  0  0  0  0  0  0  0  0
   41.3420   32.2510   37.3840 C   0  0  0  0  0  0  0  0  0  0  0  0
   40.6910   31.5260   38.3880 C   0  0  0  0  0  0  0  0  0  0  0  0
   40.7350   32.0930   39.6180 N   0  0  0  0  0  0  0  0  0  0  0  0
   41.3380   33.2440   39.8990 C   0  0  0  0  0  0  0  0  0  0  0  0
   41.9580   33.9280   38.9290 N   0  0  0  0  0  0  0  0  0  0  0  0
   42.6220   34.1610   36.6360 N   0  0  0  0  0  0  0  0  0  0  0  0
   41.3460   31.8570   36.3770 H   0  0  0  0  0  0  0  0  0  0  0  0
   41.3000   33.5880   40.9280 H   0  0  0  0  0  0  0  0  0  0  0  0
   43.4630   33.5680   36.4600 H   0  0  0  0  0  0  0  0  0  0  0  0
   42.2100   35.0460   36.2440 H   0  0  0  0  0  0  0  0  0  0  0  0
   36.4680   29.0360   37.9850 C   0  0  0  0  0  0  0  0  0  0  0  0
   35.8240   29.1830   36.7810 C   0  0  0  0  0  0  0  0  0  0  0  0
   34.4370   29.1320   36.6350 C   0  0  0  0  0  0  0  0  0  0  0  0
   33.6900   28.9230   37.7680 C   0  0  0  0  0  0  0  0  0  0  0  0
   34.3160   28.7730   38.9860 C   0  0  0  0  0  0  0  0  0  0  0  0
   35.6980   28.8290   39.0980 C   0  0  0  0  0  0  0  0  0  0  0  0
   36.3420   29.3520   35.8260 H   0  0  0  0  0  0  0  0  0  0  0  0
   33.9480   29.2490   35.6810 H   0  0  0  0  0  0  0  0  0  0  0  0
   32.6030   28.8690   37.7560 H   0  0  0  0  0  0  0  0  0  0  0  0
   33.7350   28.6080   39.8920 H   0  0  0  0  0  0  0  0  0  0  0  0
   36.7110   27.3460   40.6880 C   0  0  0  0  0  0  0  0  0  0  0  0
   36.3610   28.6700   40.3890 C   0  0  0  0  0  0  0  0  0  0  0  0
   36.6760   29.6000   41.3270 C   0  0  0  0  0  0  0  0  0  0  0  0
   36.3900   30.6090   41.0680 H   0  0  0  0  0  0  0  0  0  0  0  0
   37.3060   29.2610   42.5060 C   0  0  0  0  0  0  0  0  0  0  0  0
   37.5130   30.0830   43.1850 H   0  0  0  0  0  0  0  0  0  0  0  0
   37.6540   27.9570   42.8020 C   0  0  0  0  0  3  0  0  0  0  0  0
   37.3330   27.0180   41.8520 C   0  0  0  0  0  3  0  0  0  0  0  0
   36.2150   25.3660   39.0550 N   0  0  0  0  0  0  0  0  0  0  0  0
   36.4290   26.2500   39.7710 C   0  0  0  0  0  0  0  0  0  0  0  0
   37.3200   32.4320   38.7670 N   0  0  0  0  0  0  0  0  0  0  0  0
   37.9130   31.4650   38.5160 C   0  0  0  0  0  0  0  0  0  0  0  0
  1 42  1  0  0  0  0
  2  1  1  0  0  0  0
  2 12  1  0  0  0  0
  3  2  2  0  0  0  0
  4  5  2  0  0  0  0
  4  3  1  0  0  0  0
  5  6  1  0  0  0  0
  6 21  1  0  0  0  0
  6  1  2  0  0  0  0
  7  3  1  0  0  0  0
  8  4  1  0  0  0  0
  9  5  1  0  0  0  0
 10 15  1  0  0  0  0
 11 10  2  0  0  0  0
 11 12  1  0  0  0  0
 12 13  2  0  0  0  0
 13 14  1  0  0  0  0
 14 18  1  0  0  0  0
 15 14  2  0  0  0  0
 16 10  1  0  0  0  0
 17 11  1  0  0  0  0
 19 16  1  0  0  0  0
 20 16  1  0  0  0  0
 21 26  1  0  0  0  0
 22 21  2  0  0  0  0
 23 22  1  0  0  0  0
 23 24  2  0  0  0  0
 24 25  1  0  0  0  0
 25 26  2  0  0  0  0
 25 30  1  0  0  0  0
 26 32  1  0  0  0  0
 27 22  1  0  0  0  0
 28 23  1  0  0  0  0
 29 24  1  0  0  0  0
 31 38  1  0  0  0  0
 32 31  2  0  0  0  0
 32 33  1  0  0  0  0
 33 35  2  0  0  0  0
 34 33  1  0  0  0  0
 35 37  1  0  0  0  0
 35 36  1  0  0  0  0
 38 37  2  0  0  0  0
 39 40  3  0  0  0  0
 40 31  1  0  0  0  0
 42 41  3  0  0  0  0
M  END
>  <minimizedAffinity>
-6.48282099

$$$$

 OpenBabel03252508403D

 42 45  0  0  0  0  0  0  0  0999 V2000
   38.8460   26.9350   41.3940 C   0  0  0  0  0  0  0  0  0  0  0  0
   39.4630   27.1530   42.6090 C   0  0  0  0  0  0  0  0  0  0  0  0
   38.6710   27.4330   43.6800 C   0  0  0  0  0  0  0  0  0  0  0  0
   37.3070   27.5090   43.6180 C   0  0  0  0  0  0  0  0  0  0  0  0
   36.7160   27.2890   42.4050 C   0  0  0  0  0  0  0  0  0  0  0  0
   37.4670   26.9990   41.2750 C   0  0  0  0  0  0  0  0  0  0  0  0
   39.1530   27.6040   44.6330 H   0  0  0  0  0  0  0  0  0  0  0  0
   36.7460   27.7370   44.5130 H   0  0  0  0  0  0  0  0  0  0  0  0
   35.6320   27.3520   42.3690 H   0  0  0  0  0  0  0  0  0  0  0  0
   42.9800   25.8790   43.1050 C   0  0  0  0  0  0  0  0  0  0  0  0
   41.5730   25.9250   43.1070 C   0  0  0  0  0  0  0  0  0  0  0  0
   40.9120   27.0610   42.6260 C   0  0  0  0  0  0  0  0  0  0  0  0
   41.7270   28.0490   42.1850 N   0  0  0  0  0  0  0  0  0  0  0  0
   43.0560   27.9920   42.1890 C   0  0  0  0  0  0  0  0  0  0  0  0
   43.6760   26.8990   42.6520 N   0  0  0  0  0  0  0  0  0  0  0  0
   43.5960   24.7000   43.6070 N   0  0  0  0  0  0  0  0  0  0  0  0
   40.9820   25.0970   43.4760 H   0  0  0  0  0  0  0  0  0  0  0  0
   43.5930   28.8540   41.8060 H   0  0  0  0  0  0  0  0  0  0  0  0
   43.4260   24.7780   44.6340 H   0  0  0  0  0  0  0  0  0  0  0  0
   44.0660   24.0220   42.9550 H   0  0  0  0  0  0  0  0  0  0  0  0
   36.7400   26.7860   40.0340 C   0  0  0  0  0  0  0  0  0  0  0  0
   36.5120   25.4730   39.7030 C   0  0  0  0  0  0  0  0  0  0  0  0
   35.8300   25.0730   38.5530 C   0  0  0  0  0  0  0  0  0  0  0  0
   35.3690   26.0600   37.7170 C   0  0  0  0  0  0  0  0  0  0  0  0
   35.5870   27.3840   38.0310 C   0  0  0  0  0  0  0  0  0  0  0  0
   36.2690   27.7490   39.1820 C   0  0  0  0  0  0  0  0  0  0  0  0
   36.8440   24.6200   40.3130 H   0  0  0  0  0  0  0  0  0  0  0  0
   35.6590   24.0370   38.3080 H   0  0  0  0  0  0  0  0  0  0  0  0
   34.8270   25.8490   36.7970 H   0  0  0  0  0  0  0  0  0  0  0  0
   35.2280   28.1760   37.3750 H   0  0  0  0  0  0  0  0  0  0  0  0
   37.5010   29.7600   38.7440 C   0  0  0  0  0  0  0  0  0  0  0  0
   36.5000   29.1510   39.5150 C   0  0  0  0  0  0  0  0  0  0  0  0
   35.9020   29.9350   40.4480 C   0  0  0  0  0  0  0  0  0  0  0  0
   35.1390   29.4360   41.0270 H   0  0  0  0  0  0  0  0  0  0  0  0
   36.2580   31.2560   40.6270 C   0  0  0  0  0  0  0  0  0  0  0  0
   35.7150   31.7910   41.4000 H   0  0  0  0  0  0  0  0  0  0  0  0
   37.2430   31.8590   39.8670 C   0  0  0  0  0  3  0  0  0  0  0  0
   37.8470   31.0630   38.9250 C   0  0  0  0  0  3  0  0  0  0  0  0
   38.8060   28.4740   36.8790 N   0  0  0  0  0  0  0  0  0  0  0  0
   38.2240   29.0340   37.7100 C   0  0  0  0  0  0  0  0  0  0  0  0
   40.2300   26.3860   39.2590 N   0  0  0  0  0  0  0  0  0  0  0  0
   39.6070   26.6390   40.2060 C   0  0  0  0  0  0  0  0  0  0  0  0
  1  2  1  0  0  0  0
  2 12  1  0  0  0  0
  2  3  2  0  0  0  0
  3  7  1  0  0  0  0
  4  3  1  0  0  0  0
  4  8  1  0  0  0  0
  5  4  2  0  0  0  0
  6  1  2  0  0  0  0
  6  5  1  0  0  0  0
  9  5  1  0  0  0  0
 10 11  1  0  0  0  0
 10 16  1  0  0  0  0
 11 17  1  0  0  0  0
 12 11  2  0  0  0  0
 13 14  2  0  0  0  0
 13 12  1  0  0  0  0
 14 15  1  0  0  0  0
 15 10  2  0  0  0  0
 16 19  1  0  0  0  0
 18 14  1  0  0  0  0
 20 16  1  0  0  0  0
 21  6  1  0  0  0  0
 22 21  1  0  0  0  0
 22 27  1  0  0  0  0
 23 22  2  0  0  0  0
 24 25  2  0  0  0  0
 24 23  1  0  0  0  0
 25 26  1  0  0  0  0
 26 32  1  0  0  0  0
 26 21  2  0  0  0  0
 28 23  1  0  0  0  0
 29 24  1  0  0  0  0
 30 25  1  0  0  0  0
 31 38  2  0  0  0  0
 31 32  1  0  0  0  0
 32 33  2  0  0  0  0
 33 35  1  0  0  0  0
 33 34  1  0  0  0  0
 35 36  1  0  0  0  0
 37 35  2  0  0  0  0
 38 37  1  0  0  0  0
 39 40  3  0  0  0  0
 40 31  1  0  0  0  0
 41 42  3  0  0  0  0
 42  1  1  0  0  0  0
M  END
>  <minimizedAffinity>
-6.39711714

$$$$

 OpenBabel03252508403D

 42 45  0  0  0  0  0  0  0  0999 V2000
   39.3980   31.5280   40.3990 C   0  0  0  0  0  0  0  0  0  0  0  0
   39.5210   32.8080   39.8980 C   0  0  0  0  0  0  0  0  0  0  0  0
   38.3810   33.5320   39.7270 C   0  0  0  0  0  0  0  0  0  0  0  0
   37.1310   33.0650   40.0220 C   0  0  0  0  0  0  0  0  0  0  0  0
   37.0310   31.7940   40.5170 C   0  0  0  0  0  0  0  0  0  0  0  0
   38.1550   31.0040   40.7150 C   0  0  0  0  0  0  0  0  0  0  0  0
   38.4750   34.5360   39.3350 H   0  0  0  0  0  0  0  0  0  0  0  0
   36.2720   33.7000   39.8570 H   0  0  0  0  0  0  0  0  0  0  0  0
   36.0330   31.4340   40.7480 H   0  0  0  0  0  0  0  0  0  0  0  0
   42.6060   33.9350   38.0420 C   0  0  0  0  0  0  0  0  0  0  0  0
   41.2920   33.4950   38.2870 C   0  0  0  0  0  0  0  0  0  0  0  0
   40.8670   33.2620   39.6000 C   0  0  0  0  0  0  0  0  0  0  0  0
   41.8050   33.4930   40.5490 N   0  0  0  0  0  0  0  0  0  0  0  0
   43.0440   33.9080   40.3050 C   0  0  0  0  0  0  0  0  0  0  0  0
   43.4370   34.1280   39.0430 N   0  0  0  0  0  0  0  0  0  0  0  0
   42.9810   34.1540   36.6890 N   0  0  0  0  0  0  0  0  0  0  0  0
   40.5930   33.3300   37.4770 H   0  0  0  0  0  0  0  0  0  0  0  0
   43.6990   34.0550   41.1580 H   0  0  0  0  0  0  0  0  0  0  0  0
   43.0510   33.1820   36.3150 H   0  0  0  0  0  0  0  0  0  0  0  0
   43.1140   35.1310   36.3210 H   0  0  0  0  0  0  0  0  0  0  0  0
   37.9390   29.6670   41.2430 C   0  0  0  0  0  0  0  0  0  0  0  0
   37.9170   29.5710   42.6130 C   0  0  0  0  0  0  0  0  0  0  0  0
   37.7200   28.3720   43.3010 C   0  0  0  0  0  0  0  0  0  0  0  0
   37.5400   27.2360   42.5510 C   0  0  0  0  0  0  0  0  0  0  0  0
   37.5580   27.3110   41.1750 C   0  0  0  0  0  0  0  0  0  0  0  0
   37.7560   28.5190   40.5210 C   0  0  0  0  0  0  0  0  0  0  0  0
   38.0530   30.4270   43.2900 H   0  0  0  0  0  0  0  0  0  0  0  0
   37.7060   28.3140   44.3780 H   0  0  0  0  0  0  0  0  0  0  0  0
   37.3800   26.2550   42.9940 H   0  0  0  0  0  0  0  0  0  0  0  0
   37.4170   26.4170   40.5690 H   0  0  0  0  0  0  0  0  0  0  0  0
   36.5100   28.7930   38.4900 C   0  0  0  0  0  0  0  0  0  0  0  0
   37.7740   28.5970   39.0640 C   0  0  0  0  0  0  0  0  0  0  0  0
   38.8180   28.5050   38.1990 C   0  0  0  0  0  0  0  0  0  0  0  0
   39.7760   28.3510   38.6720 H   0  0  0  0  0  0  0  0  0  0  0  0
   38.6430   28.5990   36.8350 C   0  0  0  0  0  0  0  0  0  0  0  0
   39.5450   28.5120   36.2360 H   0  0  0  0  0  0  0  0  0  0  0  0
   37.3980   28.7930   36.2660 C   0  0  0  0  0  3  0  0  0  0  0  0
   36.3450   28.8860   37.1430 C   0  0  0  0  0  3  0  0  0  0  0  0
   34.3510   29.0200   39.9460 N   0  0  0  0  0  0  0  0  0  0  0  0
   35.3060   28.9080   39.3010 C   0  0  0  0  0  0  0  0  0  0  0  0
   41.4720   30.0050   40.7900 N   0  0  0  0  0  0  0  0  0  0  0  0
   40.5510   30.6880   40.6060 C   0  0  0  0  0  0  0  0  0  0  0  0
  1 42  1  0  0  0  0
  1  6  1  0  0  0  0
  2  1  2  0  0  0  0
  3  2  1  0  0  0  0
  3  4  2  0  0  0  0
  4  5  1  0  0  0  0
  5  6  2  0  0  0  0
  5  9  1  0  0  0  0
  6 21  1  0  0  0  0
  7  3  1  0  0  0  0
  8  4  1  0  0  0  0
 10 11  2  0  0  0  0
 10 15  1  0  0  0  0
 11 12  1  0  0  0  0
 12  2  1  0  0  0  0
 12 13  2  0  0  0  0
 14 13  1  0  0  0  0
 14 18  1  0  0  0  0
 15 14  2  0  0  0  0
 16 10  1  0  0  0  0
 17 11  1  0  0  0  0
 19 16  1  0  0  0  0
 20 16  1  0  0  0  0
 21 22  1  0  0  0  0
 22 27  1  0  0  0  0
 22 23  2  0  0  0  0
 23 28  1  0  0  0  0
 24 29  1  0  0  0  0
 24 23  1  0  0  0  0
 25 24  2  0  0  0  0
 26 25  1  0  0  0  0
 26 21  2  0  0  0  0
 30 25  1  0  0  0  0
 31 32  1  0  0  0  0
 31 40  1  0  0  0  0
 32 26  1  0  0  0  0
 33 34  1  0  0  0  0
 33 32  2  0  0  0  0
 35 33  1  0  0  0  0
 36 35  1  0  0  0  0
 37 35  2  0  0  0  0
 37 38  1  0  0  0  0
 38 31  2  0  0  0  0
 40 39  3  0  0  0  0
 42 41  3  0  0  0  0
M  END
>  <minimizedAffinity>
-6.36956882

$$$$

 OpenBabel03252508403D

 42 45  0  0  0  0  0  0  0  0999 V2000
   37.9800   28.0580   41.1400 C   0  0  0  0  0  0  0  0  0  0  0  0
   37.8630   29.1280   42.0030 C   0  0  0  0  0  0  0  0  0  0  0  0
   37.3530   28.8880   43.2420 C   0  0  0  0  0  0  0  0  0  0  0  0
   36.9540   27.6540   43.6760 C   0  0  0  0  0  0  0  0  0  0  0  0
   37.0790   26.6080   42.8050 C   0  0  0  0  0  0  0  0  0  0  0  0
   37.5910   26.7860   41.5270 C   0  0  0  0  0  0  0  0  0  0  0  0
   37.2600   29.7260   43.9200 H   0  0  0  0  0  0  0  0  0  0  0  0
   36.5580   27.5430   44.6750 H   0  0  0  0  0  0  0  0  0  0  0  0
   36.7590   25.6330   43.1600 H   0  0  0  0  0  0  0  0  0  0  0  0
   37.8680   32.5640   40.4450 C   0  0  0  0  0  0  0  0  0  0  0  0
   37.4030   31.3230   40.9200 C   0  0  0  0  0  0  0  0  0  0  0  0
   38.2990   30.4180   41.5000 C   0  0  0  0  0  0  0  0  0  0  0  0
   39.5830   30.8440   41.5510 N   0  0  0  0  0  0  0  0  0  0  0  0
   40.0100   32.0190   41.0990 C   0  0  0  0  0  0  0  0  0  0  0  0
   39.1420   32.8760   40.5450 N   0  0  0  0  0  0  0  0  0  0  0  0
   36.9130   33.4430   39.8650 N   0  0  0  0  0  0  0  0  0  0  0  0
   36.3590   31.0480   40.8470 H   0  0  0  0  0  0  0  0  0  0  0  0
   41.0690   32.2390   41.2000 H   0  0  0  0  0  0  0  0  0  0  0  0
   36.7030   32.9760   38.9550 H   0  0  0  0  0  0  0  0  0  0  0  0
   36.6060   34.3110   40.3720 H   0  0  0  0  0  0  0  0  0  0  0  0
   37.6790   25.6080   40.6800 C   0  0  0  0  0  0  0  0  0  0  0  0
   36.5760   25.3600   39.9000 C   0  0  0  0  0  0  0  0  0  0  0  0
   36.4770   24.2780   39.0230 C   0  0  0  0  0  0  0  0  0  0  0  0
   37.5500   23.4250   38.9490 C   0  0  0  0  0  0  0  0  0  0  0  0
   38.6660   23.6560   39.7230 C   0  0  0  0  0  0  0  0  0  0  0  0
   38.7340   24.7410   40.5850 C   0  0  0  0  0  0  0  0  0  0  0  0
   35.6740   25.9890   39.8950 H   0  0  0  0  0  0  0  0  0  0  0  0
   35.6030   24.0980   38.4170 H   0  0  0  0  0  0  0  0  0  0  0  0
   37.5680   22.5540   38.2960 H   0  0  0  0  0  0  0  0  0  0  0  0
   39.5240   22.9860   39.6740 H   0  0  0  0  0  0  0  0  0  0  0  0
   41.0430   25.3830   40.6710 C   0  0  0  0  0  0  0  0  0  0  0  0
   39.9170   24.9850   41.4050 C   0  0  0  0  0  0  0  0  0  0  0  0
   40.0820   24.8790   42.7480 C   0  0  0  0  0  0  0  0  0  0  0  0
   39.1980   24.5680   43.2840 H   0  0  0  0  0  0  0  0  0  0  0  0
   41.2910   25.1490   43.3570 C   0  0  0  0  0  0  0  0  0  0  0  0
   41.3120   25.0340   44.4360 H   0  0  0  0  0  0  0  0  0  0  0  0
   42.4020   25.5430   42.6360 C   0  0  0  0  0  3  0  0  0  0  0  0
   42.2320   25.6480   41.2770 C   0  0  0  0  0  3  0  0  0  0  0  0
   40.9830   25.6730   38.0740 N   0  0  0  0  0  0  0  0  0  0  0  0
   41.0050   25.5340   39.2230 C   0  0  0  0  0  0  0  0  0  0  0  0
   38.9430   28.3550   38.7400 N   0  0  0  0  0  0  0  0  0  0  0  0
   38.5030   28.2210   39.8070 C   0  0  0  0  0  0  0  0  0  0  0  0
  1  6  2  0  0  0  0
  1  2  1  0  0  0  0
  2  3  2  0  0  0  0
  3  4  1  0  0  0  0
  3  7  1  0  0  0  0
  4  8  1  0  0  0  0
  5  9  1  0  0  0  0
  5  4  2  0  0  0  0
  6  5  1  0  0  0  0
 10 15  2  0  0  0  0
 10 11  1  0  0  0  0
 11 12  2  0  0  0  0
 12 13  1  0  0  0  0
 12  2  1  0  0  0  0
 14 18  1  0  0  0  0
 14 13  2  0  0  0  0
 15 14  1  0  0  0  0
 16 20  1  0  0  0  0
 16 10  1  0  0  0  0
 17 11  1  0  0  0  0
 19 16  1  0  0  0  0
 21  6  1  0  0  0  0
 22 21  2  0  0  0  0
 23 22  1  0  0  0  0
 24 23  2  0  0  0  0
 24 25  1  0  0  0  0
 25 26  2  0  0  0  0
 26 21  1  0  0  0  0
 26 32  1  0  0  0  0
 27 22  1  0  0  0  0
 28 23  1  0  0  0  0
 29 24  1  0  0  0  0
 30 25  1  0  0  0  0
 31 38  2  0  0  0  0
 31 32  1  0  0  0  0
 32 33  2  0  0  0  0
 33 34  1  0  0  0  0
 33 35  1  0  0  0  0
 35 36  1  0  0  0  0
 37 35  2  0  0  0  0
 38 37  1  0  0  0  0
 39 40  3  0  0  0  0
 40 31  1  0  0  0  0
 41 42  3  0  0  0  0
 42  1  1  0  0  0  0
M  END
>  <minimizedAffinity>
-6.34003973

$$$$

 OpenBabel03252508403D

 42 45  0  0  0  0  0  0  0  0999 V2000
   39.0080   30.9110   40.0330 C   0  0  0  0  0  0  0  0  0  0  0  0
   39.1850   32.0360   39.2540 C   0  0  0  0  0  0  0  0  0  0  0  0
   38.1470   32.9110   39.1610 C   0  0  0  0  0  0  0  0  0  0  0  0
   36.9480   32.7400   39.7960 C   0  0  0  0  0  0  0  0  0  0  0  0
   36.7940   31.6190   40.5630 C   0  0  0  0  0  0  0  0  0  0  0  0
   37.8130   30.6870   40.6980 C   0  0  0  0  0  0  0  0  0  0  0  0
   38.2840   33.7940   38.5510 H   0  0  0  0  0  0  0  0  0  0  0  0
   36.1700   33.4800   39.6730 H   0  0  0  0  0  0  0  0  0  0  0  0
   35.8370   31.4930   41.0620 H   0  0  0  0  0  0  0  0  0  0  0  0
   42.6650   33.2030   38.3800 C   0  0  0  0  0  0  0  0  0  0  0  0
   41.4270   33.1000   39.0430 C   0  0  0  0  0  0  0  0  0  0  0  0
   40.4740   32.1760   38.6000 C   0  0  0  0  0  0  0  0  0  0  0  0
   40.8530   31.4370   37.5310 N   0  0  0  0  0  0  0  0  0  0  0  0
   42.0260   31.5440   36.9140 C   0  0  0  0  0  0  0  0  0  0  0  0
   42.9290   32.4330   37.3470 N   0  0  0  0  0  0  0  0  0  0  0  0
   43.5930   34.1600   38.8730 N   0  0  0  0  0  0  0  0  0  0  0  0
   41.1910   33.7250   39.8940 H   0  0  0  0  0  0  0  0  0  0  0  0
   42.2060   30.8900   36.0660 H   0  0  0  0  0  0  0  0  0  0  0  0
   43.1620   35.0640   38.5770 H   0  0  0  0  0  0  0  0  0  0  0  0
   44.4560   33.8540   39.3900 H   0  0  0  0  0  0  0  0  0  0  0  0
   37.5450   29.5290   41.5340 C   0  0  0  0  0  0  0  0  0  0  0  0
   38.1960   29.5120   42.7440 C   0  0  0  0  0  0  0  0  0  0  0  0
   38.0610   28.4850   43.6790 C   0  0  0  0  0  0  0  0  0  0  0  0
   37.2280   27.4420   43.3570 C   0  0  0  0  0  0  0  0  0  0  0  0
   36.5660   27.4400   42.1490 C   0  0  0  0  0  0  0  0  0  0  0  0
   36.7210   28.4760   41.2400 C   0  0  0  0  0  0  0  0  0  0  0  0
   38.8800   30.3030   43.0830 H   0  0  0  0  0  0  0  0  0  0  0  0
   38.5800   28.4870   44.6250 H   0  0  0  0  0  0  0  0  0  0  0  0
   37.0590   26.5960   44.0200 H   0  0  0  0  0  0  0  0  0  0  0  0
   35.9030   26.6180   41.8810 H   0  0  0  0  0  0  0  0  0  0  0  0
   36.6640   27.7330   38.9600 C   0  0  0  0  0  0  0  0  0  0  0  0
   36.0180   28.4740   39.9600 C   0  0  0  0  0  0  0  0  0  0  0  0
   34.8560   29.0780   39.6040 C   0  0  0  0  0  0  0  0  0  0  0  0
   34.3860   29.6430   40.3950 H   0  0  0  0  0  0  0  0  0  0  0  0
   34.3390   28.9680   38.3300 C   0  0  0  0  0  0  0  0  0  0  0  0
   33.4030   29.4910   38.1520 H   0  0  0  0  0  0  0  0  0  0  0  0
   34.9720   28.2370   37.3420 C   0  0  0  0  0  3  0  0  0  0  0  0
   36.1480   27.6280   37.7050 C   0  0  0  0  0  3  0  0  0  0  0  0
   38.9060   26.4650   39.4030 N   0  0  0  0  0  0  0  0  0  0  0  0
   37.9180   27.0360   39.2070 C   0  0  0  0  0  0  0  0  0  0  0  0
   40.8790   29.1220   40.3090 N   0  0  0  0  0  0  0  0  0  0  0  0
   40.0510   29.9270   40.1810 C   0  0  0  0  0  0  0  0  0  0  0  0
  1 42  1  0  0  0  0
  1  6  1  0  0  0  0
  2  1  2  0  0  0  0
  3  2  1  0  0  0  0
  3  4  2  0  0  0  0
  4  5  1  0  0  0  0
  5  6  2  0  0  0  0
  5  9  1  0  0  0  0
  6 21  1  0  0  0  0
  7  3  1  0  0  0  0
  8  4  1  0  0  0  0
 10 16  1  0  0  0  0
 10 11  1  0  0  0  0
 11 17  1  0  0  0  0
 12 11  2  0  0  0  0
 12  2  1  0  0  0  0
 13 12  1  0  0  0  0
 14 15  1  0  0  0  0
 14 13  2  0  0  0  0
 15 10  2  0  0  0  0
 16 20  1  0  0  0  0
 18 14  1  0  0  0  0
 19 16  1  0  0  0  0
 21 22  1  0  0  0  0
 22 27  1  0  0  0  0
 22 23  2  0  0  0  0
 23 28  1  0  0  0  0
 24 23  1  0  0  0  0
 24 29  1  0  0  0  0
 25 24  2  0  0  0  0
 26 21  2  0  0  0  0
 26 25  1  0  0  0  0
 30 25  1  0  0  0  0
 31 40  1  0  0  0  0
 31 32  1  0  0  0  0
 32 26  1  0  0  0  0
 33 32  2  0  0  0  0
 33 34  1  0  0  0  0
 35 33  1  0  0  0  0
 36 35  1  0  0  0  0
 37 38  1  0  0  0  0
 37 35  2  0  0  0  0
 38 31  2  0  0  0  0
 40 39  3  0  0  0  0
 42 41  3  0  0  0  0
M  END
>  <minimizedAffinity>
-6.28593302

$$$$

 OpenBabel03252508403D

 42 45  0  0  0  0  0  0  0  0999 V2000
   38.7810   30.6250   38.9220 C   0  0  0  0  0  0  0  0  0  0  0  0
   39.2570   31.8370   39.3790 C   0  0  0  0  0  0  0  0  0  0  0  0
   38.3970   32.6330   40.0730 C   0  0  0  0  0  0  0  0  0  0  0  0
   37.0990   32.2990   40.3420 C   0  0  0  0  0  0  0  0  0  0  0  0
   36.6480   31.0930   39.8810 C   0  0  0  0  0  0  0  0  0  0  0  0
   37.4740   30.2360   39.1660 C   0  0  0  0  0  0  0  0  0  0  0  0
   38.7680   33.5830   40.4310 H   0  0  0  0  0  0  0  0  0  0  0  0
   36.4770   32.9850   40.8990 H   0  0  0  0  0  0  0  0  0  0  0  0
   35.6150   30.8390   40.1000 H   0  0  0  0  0  0  0  0  0  0  0  0
   42.3410   33.2830   37.7560 C   0  0  0  0  0  0  0  0  0  0  0  0
   40.9860   33.0070   38.0200 C   0  0  0  0  0  0  0  0  0  0  0  0
   40.6410   32.1490   39.0710 C   0  0  0  0  0  0  0  0  0  0  0  0
   41.6910   31.6450   39.7610 N   0  0  0  0  0  0  0  0  0  0  0  0
   42.9670   31.9130   39.5010 C   0  0  0  0  0  0  0  0  0  0  0  0
   43.2840   32.7360   38.4930 N   0  0  0  0  0  0  0  0  0  0  0  0
   42.6310   34.1610   36.6770 N   0  0  0  0  0  0  0  0  0  0  0  0
   40.1950   33.4460   37.4260 H   0  0  0  0  0  0  0  0  0  0  0  0
   43.7150   31.4430   40.1320 H   0  0  0  0  0  0  0  0  0  0  0  0
   42.4070   33.5730   35.8430 H   0  0  0  0  0  0  0  0  0  0  0  0
   42.9800   35.1360   36.8580 H   0  0  0  0  0  0  0  0  0  0  0  0
   36.8950   28.9800   38.7190 C   0  0  0  0  0  0  0  0  0  0  0  0
   36.4540   28.9640   37.4190 C   0  0  0  0  0  0  0  0  0  0  0  0
   35.8720   27.8490   36.8140 C   0  0  0  0  0  0  0  0  0  0  0  0
   35.7410   26.7140   37.5750 C   0  0  0  0  0  0  0  0  0  0  0  0
   36.1770   26.7090   38.8820 C   0  0  0  0  0  0  0  0  0  0  0  0
   36.7510   27.8340   39.4550 C   0  0  0  0  0  0  0  0  0  0  0  0
   36.5190   29.8250   36.7380 H   0  0  0  0  0  0  0  0  0  0  0  0
   35.5310   27.8530   35.7900 H   0  0  0  0  0  0  0  0  0  0  0  0
   35.2990   25.7950   37.1930 H   0  0  0  0  0  0  0  0  0  0  0  0
   36.0770   25.8150   39.4960 H   0  0  0  0  0  0  0  0  0  0  0  0
   38.4150   27.1330   41.0330 C   0  0  0  0  0  0  0  0  0  0  0  0
   37.2130   27.8280   40.8390 C   0  0  0  0  0  0  0  0  0  0  0  0
   36.6550   28.3820   41.9460 C   0  0  0  0  0  0  0  0  0  0  0  0
   35.7290   28.9070   41.7640 H   0  0  0  0  0  0  0  0  0  0  0  0
   37.2390   28.2690   43.1910 C   0  0  0  0  0  0  0  0  0  0  0  0
   36.7080   28.7510   44.0070 H   0  0  0  0  0  0  0  0  0  0  0  0
   38.4250   27.5860   43.3850 C   0  0  0  0  0  3  0  0  0  0  0  0
   38.9860   27.0260   42.2640 C   0  0  0  0  0  3  0  0  0  0  0  0
   39.6960   25.9840   39.0660 N   0  0  0  0  0  0  0  0  0  0  0  0
   39.1190   26.4900   39.9330 C   0  0  0  0  0  0  0  0  0  0  0  0
   40.2800   28.9940   37.5550 N   0  0  0  0  0  0  0  0  0  0  0  0
   39.6190   29.7220   38.1730 C   0  0  0  0  0  0  0  0  0  0  0  0
  1  6  2  0  0  0  0
  1  2  1  0  0  0  0
  2  3  2  0  0  0  0
  3  4  1  0  0  0  0
  3  7  1  0  0  0  0
  4  8  1  0  0  0  0
  5  9  1  0  0  0  0
  5  4  2  0  0  0  0
  6  5  1  0  0  0  0
 10 11  2  0  0  0  0
 10 15  1  0  0  0  0
 11 12  1  0  0  0  0
 12  2  1  0  0  0  0
 12 13  2  0  0  0  0
 14 13  1  0  0  0  0
 14 18  1  0  0  0  0
 15 14  2  0  0  0  0
 16 20  1  0  0  0  0
 16 10  1  0  0  0  0
 17 11  1  0  0  0  0
 19 16  1  0  0  0  0
 21  6  1  0  0  0  0
 21 26  1  0  0  0  0
 22 21  2  0  0  0  0
 23 22  1  0  0  0  0
 23 24  2  0  0  0  0
 24 25  1  0  0  0  0
 25 26  2  0  0  0  0
 25 30  1  0  0  0  0
 26 32  1  0  0  0  0
 27 22  1  0  0  0  0
 28 23  1  0  0  0  0
 29 24  1  0  0  0  0
 31 38  1  0  0  0  0
 32 31  2  0  0  0  0
 32 33  1  0  0  0  0
 33 35  2  0  0  0  0
 34 33  1  0  0  0  0
 35 37  1  0  0  0  0
 35 36  1  0  0  0  0
 38 37  2  0  0  0  0
 39 40  3  0  0  0  0
 40 31  1  0  0  0  0
 41 42  3  0  0  0  0
 42  1  1  0  0  0  0
M  END
>  <minimizedAffinity>
-6.27207088

$$$$

 OpenBabel03252508403D

 42 45  0  0  0  0  0  0  0  0999 V2000
   38.6360   27.2860   41.6010 C   0  0  0  0  0  0  0  0  0  0  0  0
   37.5080   26.5340   41.8560 C   0  0  0  0  0  0  0  0  0  0  0  0
   36.7090   26.9200   42.8890 C   0  0  0  0  0  0  0  0  0  0  0  0
   36.9600   28.0070   43.6800 C   0  0  0  0  0  0  0  0  0  0  0  0
   38.0830   28.7390   43.4100 C   0  0  0  0  0  0  0  0  0  0  0  0
   38.9390   28.3970   42.3720 C   0  0  0  0  0  0  0  0  0  0  0  0
   35.8240   26.3320   43.0890 H   0  0  0  0  0  0  0  0  0  0  0  0
   36.2780   28.2500   44.4820 H   0  0  0  0  0  0  0  0  0  0  0  0
   38.2720   29.5990   44.0450 H   0  0  0  0  0  0  0  0  0  0  0  0
   37.5630   23.0450   40.4190 C   0  0  0  0  0  0  0  0  0  0  0  0
   37.8070   24.1270   41.2860 C   0  0  0  0  0  0  0  0  0  0  0  0
   37.2810   25.3900   40.9900 C   0  0  0  0  0  0  0  0  0  0  0  0
   36.5560   25.4510   39.8490 N   0  0  0  0  0  0  0  0  0  0  0  0
   36.3320   24.4210   39.0380 C   0  0  0  0  0  0  0  0  0  0  0  0
   36.8410   23.2180   39.3320 N   0  0  0  0  0  0  0  0  0  0  0  0
   38.1230   21.7870   40.7690 N   0  0  0  0  0  0  0  0  0  0  0  0
   38.3980   24.0070   42.1840 H   0  0  0  0  0  0  0  0  0  0  0  0
   35.7320   24.6040   38.1520 H   0  0  0  0  0  0  0  0  0  0  0  0
   39.1390   21.9340   40.5820 H   0  0  0  0  0  0  0  0  0  0  0  0
   37.5100   21.0050   41.1160 H   0  0  0  0  0  0  0  0  0  0  0  0
   40.1060   29.2400   42.1730 C   0  0  0  0  0  0  0  0  0  0  0  0
   41.2230   28.8790   42.8850 C   0  0  0  0  0  0  0  0  0  0  0  0
   42.4360   29.5660   42.8220 C   0  0  0  0  0  0  0  0  0  0  0  0
   42.4990   30.6620   41.9960 C   0  0  0  0  0  0  0  0  0  0  0  0
   41.3900   31.0410   41.2720 C   0  0  0  0  0  0  0  0  0  0  0  0
   40.1980   30.3360   41.3580 C   0  0  0  0  0  0  0  0  0  0  0  0
   41.2620   28.0180   43.5680 H   0  0  0  0  0  0  0  0  0  0  0  0
   43.3040   29.2690   43.3890 H   0  0  0  0  0  0  0  0  0  0  0  0
   43.3990   31.2620   41.8800 H   0  0  0  0  0  0  0  0  0  0  0  0
   41.4260   31.9080   40.6150 H   0  0  0  0  0  0  0  0  0  0  0  0
   39.1540   30.5430   39.2080 C   0  0  0  0  0  0  0  0  0  0  0  0
   39.0230   30.7380   40.5900 C   0  0  0  0  0  0  0  0  0  0  0  0
   37.8460   31.2690   41.0120 C   0  0  0  0  0  0  0  0  0  0  0  0
   37.7790   31.4100   42.0800 H   0  0  0  0  0  0  0  0  0  0  0  0
   36.8370   31.5960   40.1300 C   0  0  0  0  0  0  0  0  0  0  0  0
   35.9380   32.0140   40.5750 H   0  0  0  0  0  0  0  0  0  0  0  0
   36.9630   31.4030   38.7680 C   0  0  0  0  0  3  0  0  0  0  0  0
   38.1540   30.8670   38.3440 C   0  0  0  0  0  3  0  0  0  0  0  0
   41.3130   29.5260   38.1430 N   0  0  0  0  0  0  0  0  0  0  0  0
   40.3630   29.9830   38.6210 C   0  0  0  0  0  0  0  0  0  0  0  0
   40.2820   26.6590   39.6850 N   0  0  0  0  0  0  0  0  0  0  0  0
   39.5410   26.9450   40.5330 C   0  0  0  0  0  0  0  0  0  0  0  0
  1  2  2  0  0  0  0
  1  6  1  0  0  0  0
  2  3  1  0  0  0  0
  3  7  1  0  0  0  0
  3  4  2  0  0  0  0
  4  8  1  0  0  0  0
  5  4  1  0  0  0  0
  5  9  1  0  0  0  0
  6  5  2  0  0  0  0
 10 16  1  0  0  0  0
 10 11  1  0  0  0  0
 11 17  1  0  0  0  0
 12 11  2  0  0  0  0
 12  2  1  0  0  0  0
 13 12  1  0  0  0  0
 14 15  1  0  0  0  0
 14 13  2  0  0  0  0
 15 10  2  0  0  0  0
 16 20  1  0  0  0  0
 18 14  1  0  0  0  0
 19 16  1  0  0  0  0
 21  6  1  0  0  0  0
 21 22  1  0  0  0  0
 22 27  1  0  0  0  0
 23 22  2  0  0  0  0
 23 28  1  0  0  0  0
 24 23  1  0  0  0  0
 25 26  1  0  0  0  0
 25 24  2  0  0  0  0
 26 21  2  0  0  0  0
 29 24  1  0  0  0  0
 30 25  1  0  0  0  0
 31 32  1  0  0  0  0
 32 33  2  0  0  0  0
 32 26  1  0  0  0  0
 33 34  1  0  0  0  0
 35 36  1  0  0  0  0
 35 33  1  0  0  0  0
 37 35  2  0  0  0  0
 38 37  1  0  0  0  0
 38 31  2  0  0  0  0
 39 40  3  0  0  0  0
 40 31  1  0  0  0  0
 41 42  3  0  0  0  0
 42  1  1  0  0  0  0
M  END
>  <minimizedAffinity>
-6.04872608

$$$$

 OpenBabel03252508403D

 42 45  0  0  0  0  0  0  0  0999 V2000
   39.2350   31.3530   38.5810 C   0  0  0  0  0  0  0  0  0  0  0  0
   39.6410   32.5370   39.1620 C   0  0  0  0  0  0  0  0  0  0  0  0
   38.6810   33.3390   39.7010 C   0  0  0  0  0  0  0  0  0  0  0  0
   37.3480   33.0370   39.7000 C   0  0  0  0  0  0  0  0  0  0  0  0
   36.9670   31.8600   39.1190 C   0  0  0  0  0  0  0  0  0  0  0  0
   37.8960   30.9980   38.5520 C   0  0  0  0  0  0  0  0  0  0  0  0
   38.9980   34.2670   40.1580 H   0  0  0  0  0  0  0  0  0  0  0  0
   36.6460   33.7260   40.1480 H   0  0  0  0  0  0  0  0  0  0  0  0
   35.9050   31.6310   39.1240 H   0  0  0  0  0  0  0  0  0  0  0  0
   43.0780   33.6120   38.0360 C   0  0  0  0  0  0  0  0  0  0  0  0
   41.6930   33.3570   38.0130 C   0  0  0  0  0  0  0  0  0  0  0  0
   41.0660   32.8150   39.1410 C   0  0  0  0  0  0  0  0  0  0  0  0
   41.8880   32.5780   40.1900 N   0  0  0  0  0  0  0  0  0  0  0  0
   43.1950   32.8230   40.1990 C   0  0  0  0  0  0  0  0  0  0  0  0
   43.7830   33.3420   39.1130 N   0  0  0  0  0  0  0  0  0  0  0  0
   43.6610   34.1610   36.8620 N   0  0  0  0  0  0  0  0  0  0  0  0
   41.0950   33.5710   37.1380 H   0  0  0  0  0  0  0  0  0  0  0  0
   43.7410   32.5870   41.1060 H   0  0  0  0  0  0  0  0  0  0  0  0
   43.6430   33.3520   36.2030 H   0  0  0  0  0  0  0  0  0  0  0  0
   43.9780   35.1630   36.8400 H   0  0  0  0  0  0  0  0  0  0  0  0
   37.3850   29.7740   37.9580 C   0  0  0  0  0  0  0  0  0  0  0  0
   37.0290   29.8640   36.6340 C   0  0  0  0  0  0  0  0  0  0  0  0
   36.5210   28.7940   35.8960 C   0  0  0  0  0  0  0  0  0  0  0  0
   36.3760   27.5920   36.5440 C   0  0  0  0  0  0  0  0  0  0  0  0
   36.7280   27.4800   37.8710 C   0  0  0  0  0  0  0  0  0  0  0  0
   37.2290   28.5630   38.5780 C   0  0  0  0  0  0  0  0  0  0  0  0
   37.1110   30.7850   36.0390 H   0  0  0  0  0  0  0  0  0  0  0  0
   36.2460   28.8820   34.8560 H   0  0  0  0  0  0  0  0  0  0  0  0
   35.9890   26.7010   36.0530 H   0  0  0  0  0  0  0  0  0  0  0  0
   36.6170   26.5320   38.3960 H   0  0  0  0  0  0  0  0  0  0  0  0
   36.5370   28.6470   40.8730 C   0  0  0  0  0  0  0  0  0  0  0  0
   37.6020   28.4440   39.9840 C   0  0  0  0  0  0  0  0  0  0  0  0
   38.8090   28.1750   40.5460 C   0  0  0  0  0  0  0  0  0  0  0  0
   39.6080   28.0270   39.8350 H   0  0  0  0  0  0  0  0  0  0  0  0
   38.9770   28.1050   41.9130 C   0  0  0  0  0  0  0  0  0  0  0  0
   39.9830   27.8840   42.2550 H   0  0  0  0  0  0  0  0  0  0  0  0
   37.9280   28.3040   42.7910 C   0  0  0  0  0  3  0  0  0  0  0  0
   36.7090   28.5760   42.2200 C   0  0  0  0  0  3  0  0  0  0  0  0
   34.1170   29.1600   40.0280 N   0  0  0  0  0  0  0  0  0  0  0  0
   35.1900   28.9440   40.4050 C   0  0  0  0  0  0  0  0  0  0  0  0
   40.9570   29.7310   37.4970 N   0  0  0  0  0  0  0  0  0  0  0  0
   40.1810   30.4480   37.9800 C   0  0  0  0  0  0  0  0  0  0  0  0
  1  2  1  0  0  0  0
  2  3  2  0  0  0  0
  3  7  1  0  0  0  0
  4  3  1  0  0  0  0
  4  8  1  0  0  0  0
  5  9  1  0  0  0  0
  5  4  2  0  0  0  0
  6  1  2  0  0  0  0
  6  5  1  0  0  0  0
 10 15  1  0  0  0  0
 11 10  2  0  0  0  0
 11 12  1  0  0  0  0
 12  2  1  0  0  0  0
 12 13  2  0  0  0  0
 13 14  1  0  0  0  0
 14 18  1  0  0  0  0
 15 14  2  0  0  0  0
 16 10  1  0  0  0  0
 17 11  1  0  0  0  0
 19 16  1  0  0  0  0
 20 16  1  0  0  0  0
 21  6  1  0  0  0  0
 21 26  1  0  0  0  0
 22 21  2  0  0  0  0
 23 24  2  0  0  0  0
 23 22  1  0  0  0  0
 24 25  1  0  0  0  0
 25 30  1  0  0  0  0
 25 26  2  0  0  0  0
 26 32  1  0  0  0  0
 27 22  1  0  0  0  0
 28 23  1  0  0  0  0
 29 24  1  0  0  0  0
 31 38  1  0  0  0  0
 32 33  1  0  0  0  0
 32 31  2  0  0  0  0
 33 35  2  0  0  0  0
 34 33  1  0  0  0  0
 35 36  1  0  0  0  0
 35 37  1  0  0  0  0
 38 37  2  0  0  0  0
 39 40  3  0  0  0  0
 40 31  1  0  0  0  0
 41 42  3  0  0  0  0
 42  1  1  0  0  0  0
M  END
>  <minimizedAffinity>
-5.98893356

$$$$

 OpenBabel03252508403D

 42 45  0  0  0  0  0  0  0  0999 V2000
   38.3640   29.8420   39.2120 C   0  0  0  0  0  0  0  0  0  0  0  0
   37.2720   30.5230   38.7150 C   0  0  0  0  0  0  0  0  0  0  0  0
   36.9490   31.7110   39.2970 C   0  0  0  0  0  0  0  0  0  0  0  0
   37.6440   32.2630   40.3370 C   0  0  0  0  0  0  0  0  0  0  0  0
   38.7230   31.5720   40.8140 C   0  0  0  0  0  0  0  0  0  0  0  0
   39.1040   30.3550   40.2650 C   0  0  0  0  0  0  0  0  0  0  0  0
   36.0940   32.2470   38.9090 H   0  0  0  0  0  0  0  0  0  0  0  0
   37.3260   33.2110   40.7470 H   0  0  0  0  0  0  0  0  0  0  0  0
   39.2660   32.0190   41.6410 H   0  0  0  0  0  0  0  0  0  0  0  0
   36.3710   29.2780   35.2690 C   0  0  0  0  0  0  0  0  0  0  0  0
   37.0880   29.8950   36.3120 C   0  0  0  0  0  0  0  0  0  0  0  0
   36.5660   29.9000   37.6100 C   0  0  0  0  0  0  0  0  0  0  0  0
   35.3680   29.2830   37.7430 N   0  0  0  0  0  0  0  0  0  0  0  0
   34.7000   28.7050   36.7500 C   0  0  0  0  0  0  0  0  0  0  0  0
   35.2100   28.7070   35.5120 N   0  0  0  0  0  0  0  0  0  0  0  0
   36.9490   29.3040   33.9720 N   0  0  0  0  0  0  0  0  0  0  0  0
   38.0430   30.3700   36.1330 H   0  0  0  0  0  0  0  0  0  0  0  0
   33.7460   28.2440   36.9910 H   0  0  0  0  0  0  0  0  0  0  0  0
   36.8340   30.3040   33.6950 H   0  0  0  0  0  0  0  0  0  0  0  0
   37.3510   28.4310   33.5460 H   0  0  0  0  0  0  0  0  0  0  0  0
   40.2640   29.7010   40.8480 C   0  0  0  0  0  0  0  0  0  0  0  0
   41.4760   30.0630   40.3140 C   0  0  0  0  0  0  0  0  0  0  0  0
   42.6970   29.5440   40.7450 C   0  0  0  0  0  0  0  0  0  0  0  0
   42.6670   28.6200   41.7610 C   0  0  0  0  0  0  0  0  0  0  0  0
   41.4620   28.2430   42.3110 C   0  0  0  0  0  0  0  0  0  0  0  0
   40.2640   28.7780   41.8590 C   0  0  0  0  0  0  0  0  0  0  0  0
   41.5930   30.7940   39.5000 H   0  0  0  0  0  0  0  0  0  0  0  0
   43.6410   29.8400   40.3140 H   0  0  0  0  0  0  0  0  0  0  0  0
   43.5660   28.1580   42.1650 H   0  0  0  0  0  0  0  0  0  0  0  0
   41.4250   27.5100   43.1160 H   0  0  0  0  0  0  0  0  0  0  0  0
   38.6120   27.0610   42.1380 C   0  0  0  0  0  0  0  0  0  0  0  0
   38.9880   28.3770   42.4420 C   0  0  0  0  0  0  0  0  0  0  0  0
   38.1240   29.0840   43.2170 C   0  0  0  0  0  0  0  0  0  0  0  0
   38.4410   30.0940   43.4310 H   0  0  0  0  0  0  0  0  0  0  0  0
   36.9460   28.5360   43.6800 C   0  0  0  0  0  0  0  0  0  0  0  0
   36.3300   29.1880   44.2920 H   0  0  0  0  0  0  0  0  0  0  0  0
   36.5740   27.2380   43.3830 C   0  0  0  0  0  3  0  0  0  0  0  0
   37.4480   26.5270   42.5980 C   0  0  0  0  0  3  0  0  0  0  0  0
   40.1090   25.4930   40.6780 N   0  0  0  0  0  0  0  0  0  0  0  0
   39.4440   26.1940   41.3160 C   0  0  0  0  0  0  0  0  0  0  0  0
   39.1190   27.5610   38.2100 N   0  0  0  0  0  0  0  0  0  0  0  0
   38.7730   28.5740   38.6610 C   0  0  0  0  0  0  0  0  0  0  0  0
  1  6  1  0  0  0  0
  2  1  2  0  0  0  0
  2  3  1  0  0  0  0
  3  4  2  0  0  0  0
  4  8  1  0  0  0  0
  4  5  1  0  0  0  0
  5  9  1  0  0  0  0
  6  5  2  0  0  0  0
  6 21  1  0  0  0  0
  7  3  1  0  0  0  0
 10 15  2  0  0  0  0
 10 11  1  0  0  0  0
 11 12  2  0  0  0  0
 12 13  1  0  0  0  0
 12  2  1  0  0  0  0
 14 18  1  0  0  0  0
 14 13  2  0  0  0  0
 15 14  1  0  0  0  0
 16 10  1  0  0  0  0
 17 11  1  0  0  0  0
 19 16  1  0  0  0  0
 20 16  1  0  0  0  0
 21 26  1  0  0  0  0
 22 23  1  0  0  0  0
 22 21  2  0  0  0  0
 23 24  2  0  0  0  0
 24 29  1  0  0  0  0
 24 25  1  0  0  0  0
 25 30  1  0  0  0  0
 26 25  2  0  0  0  0
 26 32  1  0  0  0  0
 27 22  1  0  0  0  0
 28 23  1  0  0  0  0
 31 32  2  0  0  0  0
 31 38  1  0  0  0  0
 32 33  1  0  0  0  0
 33 34  1  0  0  0  0
 33 35  2  0  0  0  0
 35 36  1  0  0  0  0
 37 35  1  0  0  0  0
 38 37  2  0  0  0  0
 39 40  3  0  0  0  0
 40 31  1  0  0  0  0
 41 42  3  0  0  0  0
 42  1  1  0  0  0  0
M  END
>  <minimizedAffinity>
-5.95528746

$$$$
