
 OpenBabel03252500363D

 47 50  0  0  1  0  0  0  0  0999 V2000
   45.7530   34.9130   44.2800 C   0  0  1  0  0  0  0  0  0  0  0  0
   44.8010   34.7880   45.2950 C   0  0  0  0  0  0  0  0  0  0  0  0
   46.0250   33.9970   45.5080 C   0  0  1  0  0  0  0  0  0  0  0  0
   46.4200   35.8190   44.2190 H   0  0  0  0  0  0  0  0  0  0  0  0
   44.5840   35.6560   45.9680 H   0  0  0  0  0  0  0  0  0  0  0  0
   43.8600   34.1950   45.1180 H   0  0  0  0  0  0  0  0  0  0  0  0
   46.8930   34.3630   46.0770 H   0  0  0  0  0  0  0  0  0  0  0  0
   44.4550   33.8320   42.4390 C   0  0  0  0  0  0  0  0  0  0  0  0
   45.7310   34.2410   42.9440 C   0  0  0  0  0  0  0  0  0  0  0  0
   46.8550   34.0100   42.2170 C   0  0  0  0  0  0  0  0  0  0  0  0
   46.6880   33.3780   41.0040 N   0  0  0  0  0  0  0  0  0  0  0  0
   45.4790   32.9980   40.5400 C   0  0  0  0  0  0  0  0  0  0  0  0
   44.3190   33.2150   41.2450 N   0  0  0  0  0  0  0  0  0  0  0  0
   43.5740   34.0130   43.0090 H   0  0  0  0  0  0  0  0  0  0  0  0
   47.8150   34.3080   42.5810 H   0  0  0  0  0  0  0  0  0  0  0  0
   45.5070   30.9650   39.1490 C   0  0  0  0  0  0  0  0  0  0  0  0
   45.3990   32.3360   39.2430 C   0  0  0  0  0  0  0  0  0  0  0  0
   45.2110   33.1250   38.1280 C   0  0  0  0  0  0  0  0  0  0  0  0
   45.1190   34.1900   38.1290 H   0  0  0  0  0  0  0  0  0  0  0  0
   45.1310   32.5230   36.8820 C   0  0  0  0  0  0  0  0  0  0  0  0
   44.9840   33.0530   35.9350 H   0  0  0  0  0  0  0  0  0  0  0  0
   45.2340   31.1360   36.7290 C   0  0  0  0  0  3  0  0  0  0  0  0
   45.4210   30.3860   37.8790 C   0  0  0  0  0  3  0  0  0  0  0  0
   45.8750   29.5170   41.2630 N   0  0  0  0  0  0  0  0  0  0  0  0
   45.7010   30.1680   40.3210 C   0  0  0  0  0  0  0  0  0  0  0  0
   46.0090   32.5250   45.3290 C   0  0  0  0  0  0  0  0  0  0  0  0
   47.0060   32.2030   44.9910 H   0  0  0  0  0  0  0  0  0  0  0  0
   45.2720   32.2210   44.5580 H   0  0  0  0  0  0  0  0  0  0  0  0
   45.7390   31.9460   46.5950 N   0  0  0  0  0  0  0  0  0  0  0  0
   46.2210   32.5910   47.7390 C   0  0  0  0  0  0  0  0  0  0  0  0
   47.6250   32.0860   48.1260 C   0  0  0  0  0  0  0  0  0  0  0  0
   47.4570   30.6550   48.5660 C   0  0  0  0  0  0  0  0  0  0  0  0
   46.9050   29.9060   47.3870 C   0  0  0  0  0  0  0  0  0  0  0  0
   45.7200   30.5510   46.7230 C   0  0  2  0  0  0  0  0  0  0  0  0
   45.5900   32.1980   48.5950 H   0  0  0  0  0  0  0  0  0  0  0  0
   46.1120   33.6690   47.8390 H   0  0  0  0  0  0  0  0  0  0  0  0
   48.3010   32.1310   47.2660 H   0  0  0  0  0  0  0  0  0  0  0  0
   47.9520   32.7140   48.9720 H   0  0  0  0  0  0  0  0  0  0  0  0
   48.4790   30.2500   48.7520 H   0  0  0  0  0  0  0  0  0  0  0  0
   46.8490   30.5650   49.4730 H   0  0  0  0  0  0  0  0  0  0  0  0
   47.6780   29.7160   46.6450 H   0  0  0  0  0  0  0  0  0  0  0  0
   46.5740   28.8990   47.7610 H   0  0  0  0  0  0  0  0  0  0  0  0
   44.8200   30.2590   47.3320 H   0  0  0  0  0  0  0  0  0  0  0  0
   45.5360   29.8610   45.3790 C   0  0  0  0  0  0  0  0  0  0  0  0
   46.4500   29.9760   44.7500 H   0  0  0  0  0  0  0  0  0  0  0  0
   45.2960   28.7890   45.5540 H   0  0  0  0  0  0  0  0  0  0  0  0
   44.6320   30.2790   44.8820 H   0  0  0  0  0  0  0  0  0  0  0  0
  1  4  1  1  0  0  0
  1  2  1  0  0  0  0
  1  3  1  0  0  0  0
  2  3  1  0  0  0  0
  2  5  1  0  0  0  0
  3  7  1  1  0  0  0
  6  2  1  0  0  0  0
  8  9  1  0  0  0  0
  8 14  1  0  0  0  0
  9  1  1  0  0  0  0
 10 15  1  0  0  0  0
 10  9  2  0  0  0  0
 11 10  1  0  0  0  0
 12 11  2  0  0  0  0
 12 13  1  0  0  0  0
 13  8  2  0  0  0  0
 16 17  1  0  0  0  0
 16 25  1  0  0  0  0
 17 12  1  0  0  0  0
 18 19  1  0  0  0  0
 18 17  2  0  0  0  0
 20 18  1  0  0  0  0
 21 20  1  0  0  0  0
 22 20  2  0  0  0  0
 22 23  1  0  0  0  0
 23 16  2  0  0  0  0
 25 24  3  0  0  0  0
 26  3  1  0  0  0  0
 26 29  1  0  0  0  0
 27 26  1  0  0  0  0
 28 26  1  0  0  0  0
 29 34  1  0  0  0  0
 29 30  1  0  0  0  0
 30 36  1  0  0  0  0
 30 31  1  0  0  0  0
 30 35  1  0  0  0  0
 31 32  1  0  0  0  0
 31 38  1  0  0  0  0
 32 39  1  0  0  0  0
 32 40  1  0  0  0  0
 33 42  1  0  0  0  0
 33 32  1  0  0  0  0
 34 43  1  1  0  0  0
 34 33  1  0  0  0  0
 37 31  1  0  0  0  0
 41 33  1  0  0  0  0
 44 46  1  0  0  0  0
 44 34  1  0  0  0  0
 45 44  1  0  0  0  0
 47 44  1  0  0  0  0
M  END
>  <minimizedAffinity>
-3.9212563

>  <minimizedRMSD>
0.941754758

$$$$
