
 OpenBabel03252502213D

 34 36  0  0  1  0  0  0  0  0999 V2000
   46.8140   34.6310   42.3020 N   0  0  0  0  0  0  0  0  0  0  0  0
   48.2750   34.6000   42.3540 C   0  0  0  0  0  0  0  0  0  0  0  0
   48.7190   35.3780   41.0970 C   0  0  0  0  0  0  0  0  0  0  0  0
   48.2800   34.6860   39.8410 C   0  0  0  0  0  0  0  0  0  0  0  0
   46.9990   33.9560   39.9570 C   0  0  0  0  0  0  0  0  0  0  0  0
   46.1250   34.4430   41.0630 C   0  0  1  0  0  0  0  0  0  0  0  0
   48.6670   33.5830   42.1920 H   0  0  0  0  0  0  0  0  0  0  0  0
   48.6690   35.1280   43.2230 H   0  0  0  0  0  0  0  0  0  0  0  0
   49.8140   35.5150   41.0870 H   0  0  0  0  0  0  0  0  0  0  0  0
   48.2230   36.3850   41.1390 H   0  0  0  0  0  0  0  0  0  0  0  0
   48.2120   35.4480   39.0380 H   0  0  0  0  0  0  0  0  0  0  0  0
   49.0970   33.9990   39.5210 H   0  0  0  0  0  0  0  0  0  0  0  0
   46.4050   33.9140   39.0250 H   0  0  0  0  0  0  0  0  0  0  0  0
   47.2510   32.8800   40.1960 H   0  0  0  0  0  0  0  0  0  0  0  0
   45.8500   35.5060   40.7480 H   0  0  0  0  0  0  0  0  0  0  0  0
   44.4750   36.0690   44.8200 C   0  0  0  0  0  0  0  0  0  0  0  0
   45.1910   35.9480   43.6290 C   0  0  0  0  0  0  0  0  0  0  0  0
   46.0440   34.8510   43.4650 C   0  0  0  0  0  0  0  0  0  0  0  0
   46.1020   33.9810   44.5000 N   0  0  0  0  0  0  0  0  0  0  0  0
   45.4070   34.1040   45.6470 C   0  0  0  0  0  0  0  0  0  0  0  0
   44.5900   35.1590   45.8000 N   0  0  0  0  0  0  0  0  0  0  0  0
   43.8260   36.9300   44.9130 H   0  0  0  0  0  0  0  0  0  0  0  0
   45.1220   36.6500   42.8380 H   0  0  0  0  0  0  0  0  0  0  0  0
   45.5780   33.3140   46.3630 H   0  0  0  0  0  0  0  0  0  0  0  0
   44.6780   32.4050   41.4950 C   0  0  0  0  0  0  0  0  0  0  0  0
   44.8430   33.7400   41.1310 C   0  0  0  0  0  0  0  0  0  0  0  0
   43.6070   34.3350   40.8480 C   0  0  0  0  0  0  0  0  0  0  0  0
   43.6360   35.3950   40.5490 H   0  0  0  0  0  0  0  0  0  0  0  0
   42.3800   33.7550   40.9000 C   0  0  0  0  0  0  0  0  0  0  0  0
   41.4930   34.3220   40.6570 H   0  0  0  0  0  0  0  0  0  0  0  0
   42.3350   32.4270   41.2740 C   0  0  0  0  0  3  0  0  0  0  0  0
   43.4730   31.7490   41.5710 C   0  0  0  0  0  3  0  0  0  0  0  0
   46.7990   31.0260   42.0500 N   0  0  0  0  0  0  0  0  0  0  0  0
   45.8460   31.6330   41.8030 C   0  0  0  0  0  0  0  0  0  0  0  0
  1  2  1  0  0  0  0
  1 18  1  0  0  0  0
  2  8  1  0  0  0  0
  3 10  1  0  0  0  0
  3  2  1  0  0  0  0
  4  5  1  0  0  0  0
  4  3  1  0  0  0  0
  5 14  1  0  0  0  0
  5  6  1  0  0  0  0
  6 15  1  6  0  0  0
  6 26  1  0  0  0  0
  6  1  1  0  0  0  0
  7  2  1  0  0  0  0
  9  3  1  0  0  0  0
 11  4  1  0  0  0  0
 12  4  1  0  0  0  0
 13  5  1  0  0  0  0
 16 22  1  0  0  0  0
 16 21  1  0  0  0  0
 17 16  2  0  0  0  0
 18 17  1  0  0  0  0
 18 19  2  0  0  0  0
 19 20  1  0  0  0  0
 20 21  2  0  0  0  0
 20 24  1  0  0  0  0
 23 17  1  0  0  0  0
 25 32  1  0  0  0  0
 25 34  1  0  0  0  0
 26 25  2  0  0  0  0
 27 29  2  0  0  0  0
 27 26  1  0  0  0  0
 28 27  1  0  0  0  0
 29 31  1  0  0  0  0
 30 29  1  0  0  0  0
 31 32  2  0  0  0  0
 34 33  3  0  0  0  0
M  END
>  <minimizedAffinity>
-5.3451829

>  <minimizedRMSD>
0.494775027

$$$$
