
 OpenBabel03252507383D

 39 43  0  0  0  0  0  0  0  0999 V2000
   45.3210   34.7790   43.5440 C   0  0  0  0  0  0  0  0  0  0  0  0
   46.0500   33.7000   44.1030 C   0  0  0  0  0  0  0  0  0  0  0  0
   45.9640   33.5130   45.4630 C   0  0  0  0  0  0  0  0  0  0  0  0
   45.1970   34.3560   46.1910 N   0  0  0  0  0  0  0  0  0  0  0  0
   44.5060   35.3810   45.6390 C   0  0  0  0  0  0  0  0  0  0  0  0
   44.5710   35.5860   44.3310 N   0  0  0  0  0  0  0  0  0  0  0  0
   46.6560   33.0340   43.5310 H   0  0  0  0  0  0  0  0  0  0  0  0
   43.9250   35.9930   46.3150 H   0  0  0  0  0  0  0  0  0  0  0  0
   46.9870   32.6920   47.5180 C   0  0  0  0  0  0  0  0  0  0  0  0
   46.6460   32.4520   46.1950 C   0  0  0  0  0  0  0  0  0  0  0  0
   46.9600   31.2330   45.6600 C   0  0  0  0  0  0  0  0  0  0  0  0
   47.5960   30.2440   46.3830 C   0  0  0  0  0  0  0  0  0  0  0  0
   47.9920   28.9840   46.0590 N   0  0  0  0  0  0  0  0  0  0  0  0
   48.5740   28.4540   47.1870 C   0  0  0  0  0  0  0  0  0  0  0  0
   48.5290   29.3720   48.1570 N   0  0  0  0  0  0  0  0  0  0  0  0
   47.9340   30.4730   47.6820 C   0  0  0  0  0  0  0  0  0  0  0  0
   47.6310   31.6980   48.2530 C   0  0  0  0  0  0  0  0  0  0  0  0
   46.7650   33.6330   47.9910 H   0  0  0  0  0  0  0  0  0  0  0  0
   46.6900   31.0440   44.6130 H   0  0  0  0  0  0  0  0  0  0  0  0
   47.8550   28.5550   45.1250 H   0  0  0  0  0  0  0  0  0  0  0  0
   48.9930   27.4450   47.2400 H   0  0  0  0  0  0  0  0  0  0  0  0
   47.9050   31.8680   49.2910 H   0  0  0  0  0  0  0  0  0  0  0  0
   45.4150   34.9610   42.1580 O   0  0  0  0  0  0  0  0  0  0  0  0
   44.3730   34.5210   41.3400 C   0  0  0  0  0  0  0  0  0  0  0  0
   45.0880   33.8820   40.3950 C   0  0  0  0  0  0  0  0  0  0  0  0
   43.7010   33.2490   39.2420 S   0  0  0  0  0  0  0  0  0  0  0  0
   42.4280   34.0430   40.3730 C   0  0  0  0  0  0  0  0  0  0  0  0
   43.0720   34.4810   41.1360 N   0  0  0  0  0  0  0  0  0  0  0  0
   46.0480   33.4130   39.7480 H   0  0  0  0  0  0  0  0  0  0  0  0
   40.3680   34.6580   39.0980 C   0  0  0  0  0  0  0  0  0  0  0  0
   40.9550   33.9650   40.0950 C   0  0  0  0  0  0  0  0  0  0  0  0
   40.2820   33.1270   40.9480 C   0  0  0  0  0  0  0  0  0  0  0  0
   40.7720   32.5870   41.7330 H   0  0  0  0  0  0  0  0  0  0  0  0
   38.9260   33.0240   40.7280 C   0  0  0  0  0  0  0  0  0  0  0  0
   38.3640   32.3670   41.3900 H   0  0  0  0  0  0  0  0  0  0  0  0
   38.3020   33.7200   39.7200 C   0  0  0  0  0  3  0  0  0  0  0  0
   39.0000   34.5560   38.8740 C   0  0  0  0  0  3  0  0  0  0  0  0
   41.6840   36.2180   37.5260 N   0  0  0  0  0  0  0  0  0  0  0  0
   41.1030   35.5150   38.2360 C   0  0  0  0  0  0  0  0  0  0  0  0
  1  2  2  0  0  0  0
  1  6  1  0  0  0  0
  2  3  1  0  0  0  0
  3  4  2  0  0  0  0
  3 10  1  0  0  0  0
  5  4  1  0  0  0  0
  5  8  1  0  0  0  0
  6  5  2  0  0  0  0
  7  2  1  0  0  0  0
  9 18  1  0  0  0  0
  9 17  1  0  0  0  0
 10  9  2  0  0  0  0
 11 10  1  0  0  0  0
 11 12  2  0  0  0  0
 12 16  1  0  0  0  0
 13 12  1  0  0  0  0
 13 14  1  0  0  0  0
 14 21  1  0  0  0  0
 14 15  2  0  0  0  0
 16 15  1  0  0  0  0
 16 17  2  0  0  0  0
 17 22  1  0  0  0  0
 19 11  1  0  0  0  0
 20 13  1  0  0  0  0
 23  1  1  0  0  0  0
 24 23  1  0  0  0  0
 25 24  2  0  0  0  0
 26 27  1  0  0  0  0
 26 25  1  0  0  0  0
 27 28  2  0  0  0  0
 28 24  1  0  0  0  0
 29 25  1  0  0  0  0
 30 31  1  0  0  0  0
 31 27  1  0  0  0  0
 31 32  2  0  0  0  0
 32 33  1  0  0  0  0
 34 32  1  0  0  0  0
 34 35  1  0  0  0  0
 36 34  2  0  0  0  0
 37 30  2  0  0  0  0
 37 36  1  0  0  0  0
 38 39  3  0  0  0  0
 39 30  1  0  0  0  0
M  END
>  <minimizedAffinity>
-7.04471016

>  <minimizedRMSD>
1.21797478

$$$$
