
 OpenBabel03252500383D

 47 50  0  0  1  0  0  0  0  0999 V2000
   35.8280   30.2260   40.3310 C   0  0  1  0  0  0  0  0  0  0  0  0
   34.9450   29.2790   39.8070 C   0  0  0  0  0  0  0  0  0  0  0  0
   35.6690   28.8350   41.0100 C   0  0  1  0  0  0  0  0  0  0  0  0
   35.4510   31.0910   40.9480 H   0  0  0  0  0  0  0  0  0  0  0  0
   33.8400   29.4530   39.8630 H   0  0  0  0  0  0  0  0  0  0  0  0
   35.1990   28.7340   38.8540 H   0  0  0  0  0  0  0  0  0  0  0  0
   35.2750   28.9480   42.0310 H   0  0  0  0  0  0  0  0  0  0  0  0
   37.3640   30.5940   38.3950 C   0  0  0  0  0  0  0  0  0  0  0  0
   37.1910   30.5610   39.8160 C   0  0  0  0  0  0  0  0  0  0  0  0
   38.2440   30.8230   40.6340 C   0  0  0  0  0  0  0  0  0  0  0  0
   39.4440   31.1130   40.0240 N   0  0  0  0  0  0  0  0  0  0  0  0
   39.5930   31.1410   38.6830 C   0  0  0  0  0  0  0  0  0  0  0  0
   38.5520   30.8820   37.8220 N   0  0  0  0  0  0  0  0  0  0  0  0
   36.5390   30.3880   37.7540 H   0  0  0  0  0  0  0  0  0  0  0  0
   38.1310   30.8020   41.6970 H   0  0  0  0  0  0  0  0  0  0  0  0
   41.4620   32.7050   38.3150 C   0  0  0  0  0  0  0  0  0  0  0  0
   40.9020   31.4590   38.1260 C   0  0  0  0  0  0  0  0  0  0  0  0
   41.5530   30.4750   37.4100 C   0  0  0  0  0  0  0  0  0  0  0  0
   41.1780   29.4910   37.2260 H   0  0  0  0  0  0  0  0  0  0  0  0
   42.8000   30.7480   36.8690 C   0  0  0  0  0  0  0  0  0  0  0  0
   43.4000   30.0420   36.2870 H   0  0  0  0  0  0  0  0  0  0  0  0
   43.4120   31.9950   37.0320 C   0  0  0  0  0  3  0  0  0  0  0  0
   42.7200   32.9500   37.7570 C   0  0  0  0  0  3  0  0  0  0  0  0
   40.2180   34.5320   39.6600 N   0  0  0  0  0  0  0  0  0  0  0  0
   40.7660   33.7080   39.0610 C   0  0  0  0  0  0  0  0  0  0  0  0
   36.7710   27.8490   40.9030 C   0  0  0  0  0  0  0  0  0  0  0  0
   37.6710   28.3690   40.5380 H   0  0  0  0  0  0  0  0  0  0  0  0
   36.5230   27.0450   40.1810 H   0  0  0  0  0  0  0  0  0  0  0  0
   37.0210   27.3500   42.2070 N   0  0  0  0  0  0  0  0  0  0  0  0
   37.6080   28.2030   43.1460 C   0  0  0  0  0  0  0  0  0  0  0  0
   39.1460   28.1010   43.1220 C   0  0  0  0  0  0  0  0  0  0  0  0
   39.4900   26.7240   43.6260 C   0  0  0  0  0  0  0  0  0  0  0  0
   38.8550   25.7490   42.6750 C   0  0  0  0  0  0  0  0  0  0  0  0
   37.4070   26.0120   42.3670 C   0  0  2  0  0  0  0  0  0  0  0  0
   37.3620   27.7530   44.1570 H   0  0  0  0  0  0  0  0  0  0  0  0
   37.2500   29.2260   43.2480 H   0  0  0  0  0  0  0  0  0  0  0  0
   39.5240   28.2260   42.1020 H   0  0  0  0  0  0  0  0  0  0  0  0
   39.5140   28.8710   43.8210 H   0  0  0  0  0  0  0  0  0  0  0  0
   40.5930   26.6040   43.5170 H   0  0  0  0  0  0  0  0  0  0  0  0
   39.1990   26.5760   44.6720 H   0  0  0  0  0  0  0  0  0  0  0  0
   39.4180   25.6840   41.7450 H   0  0  0  0  0  0  0  0  0  0  0  0
   38.9180   24.7330   43.1530 H   0  0  0  0  0  0  0  0  0  0  0  0
   36.8190   25.5690   43.2180 H   0  0  0  0  0  0  0  0  0  0  0  0
   37.0520   25.1690   41.1510 C   0  0  0  0  0  0  0  0  0  0  0  0
   37.6950   25.4440   40.2820 H   0  0  0  0  0  0  0  0  0  0  0  0
   37.1620   24.0940   41.4140 H   0  0  0  0  0  0  0  0  0  0  0  0
   35.9700   25.3000   40.9280 H   0  0  0  0  0  0  0  0  0  0  0  0
  1  4  1  1  0  0  0
  1  3  1  0  0  0  0
  2  5  1  0  0  0  0
  2  1  1  0  0  0  0
  2  3  1  0  0  0  0
  3  7  1  1  0  0  0
  6  2  1  0  0  0  0
  8  9  1  0  0  0  0
  9  1  1  0  0  0  0
  9 10  2  0  0  0  0
 10 15  1  0  0  0  0
 11 10  1  0  0  0  0
 12 11  2  0  0  0  0
 13  8  2  0  0  0  0
 13 12  1  0  0  0  0
 14  8  1  0  0  0  0
 16 25  1  0  0  0  0
 17 16  1  0  0  0  0
 17 12  1  0  0  0  0
 18 17  2  0  0  0  0
 19 18  1  0  0  0  0
 20 22  2  0  0  0  0
 20 18  1  0  0  0  0
 21 20  1  0  0  0  0
 22 23  1  0  0  0  0
 23 16  2  0  0  0  0
 25 24  3  0  0  0  0
 26  3  1  0  0  0  0
 26 29  1  0  0  0  0
 27 26  1  0  0  0  0
 28 26  1  0  0  0  0
 29 34  1  0  0  0  0
 29 30  1  0  0  0  0
 30 36  1  0  0  0  0
 30 35  1  0  0  0  0
 31 30  1  0  0  0  0
 31 32  1  0  0  0  0
 31 38  1  0  0  0  0
 32 40  1  0  0  0  0
 33 42  1  0  0  0  0
 33 32  1  0  0  0  0
 34 33  1  0  0  0  0
 34 43  1  1  0  0  0
 37 31  1  0  0  0  0
 39 32  1  0  0  0  0
 41 33  1  0  0  0  0
 44 46  1  0  0  0  0
 44 34  1  0  0  0  0
 45 44  1  0  0  0  0
 47 44  1  0  0  0  0
M  END
>  <minimizedAffinity>
-5.71857214

$$$$

 OpenBabel03252500383D

 47 50  0  0  1  0  0  0  0  0999 V2000
   37.5150   32.3780   38.7460 C   0  0  1  0  0  0  0  0  0  0  0  0
   36.9490   33.4940   39.3670 C   0  0  0  0  0  0  0  0  0  0  0  0
   38.3950   33.3390   39.5970 C   0  0  1  0  0  0  0  0  0  0  0  0
   37.7500   32.3850   37.6440 H   0  0  0  0  0  0  0  0  0  0  0  0
   36.5790   34.3510   38.7480 H   0  0  0  0  0  0  0  0  0  0  0  0
   36.2930   33.3640   40.2740 H   0  0  0  0  0  0  0  0  0  0  0  0
   39.1640   33.8140   38.9680 H   0  0  0  0  0  0  0  0  0  0  0  0
   36.2620   30.5650   39.9210 C   0  0  0  0  0  0  0  0  0  0  0  0
   37.4410   30.9590   39.2120 C   0  0  0  0  0  0  0  0  0  0  0  0
   38.4350   30.0580   38.9930 C   0  0  0  0  0  0  0  0  0  0  0  0
   38.2360   28.7860   39.4820 N   0  0  0  0  0  0  0  0  0  0  0  0
   37.1180   28.4280   40.1490 C   0  0  0  0  0  0  0  0  0  0  0  0
   36.0910   29.3090   40.3900 N   0  0  0  0  0  0  0  0  0  0  0  0
   35.4840   31.2710   40.0930 H   0  0  0  0  0  0  0  0  0  0  0  0
   39.3220   30.3370   38.4660 H   0  0  0  0  0  0  0  0  0  0  0  0
   37.1660   26.7640   41.9660 C   0  0  0  0  0  0  0  0  0  0  0  0
   36.9940   27.0570   40.6300 C   0  0  0  0  0  0  0  0  0  0  0  0
   36.7000   26.0760   39.7070 C   0  0  0  0  0  0  0  0  0  0  0  0
   36.5530   26.2320   38.6590 H   0  0  0  0  0  0  0  0  0  0  0  0
   36.5740   24.7630   40.1350 C   0  0  0  0  0  0  0  0  0  0  0  0
   36.3430   23.9100   39.4880 H   0  0  0  0  0  0  0  0  0  0  0  0
   36.7390   24.4110   41.4780 C   0  0  0  0  0  3  0  0  0  0  0  0
   37.0330   25.4310   42.3670 C   0  0  0  0  0  3  0  0  0  0  0  0
   37.6990   28.6360   43.6710 N   0  0  0  0  0  0  0  0  0  0  0  0
   37.4710   27.8000   42.9040 C   0  0  0  0  0  0  0  0  0  0  0  0
   38.9030   32.8790   40.9120 C   0  0  0  0  0  0  0  0  0  0  0  0
   38.5980   31.8310   41.0570 H   0  0  0  0  0  0  0  0  0  0  0  0
   38.4750   33.4790   41.7400 H   0  0  0  0  0  0  0  0  0  0  0  0
   40.3190   32.9480   40.8670 N   0  0  0  0  0  0  0  0  0  0  0  0
   40.9220   33.5640   39.7650 C   0  0  0  0  0  0  0  0  0  0  0  0
   41.2220   32.5500   38.6430 C   0  0  0  0  0  0  0  0  0  0  0  0
   42.2930   31.6340   39.1720 C   0  0  0  0  0  0  0  0  0  0  0  0
   41.7210   30.9610   40.3870 C   0  0  0  0  0  0  0  0  0  0  0  0
   41.0750   31.8870   41.3810 C   0  0  2  0  0  0  0  0  0  0  0  0
   41.9650   33.8430   40.1090 H   0  0  0  0  0  0  0  0  0  0  0  0
   40.5330   34.5100   39.3940 H   0  0  0  0  0  0  0  0  0  0  0  0
   40.3260   31.9690   38.4000 H   0  0  0  0  0  0  0  0  0  0  0  0
   41.6030   33.1400   37.7930 H   0  0  0  0  0  0  0  0  0  0  0  0
   42.4460   30.8360   38.4080 H   0  0  0  0  0  0  0  0  0  0  0  0
   43.2380   32.1570   39.3590 H   0  0  0  0  0  0  0  0  0  0  0  0
   41.0170   30.1790   40.1090 H   0  0  0  0  0  0  0  0  0  0  0  0
   42.5730   30.4460   40.9110 H   0  0  0  0  0  0  0  0  0  0  0  0
   41.9100   32.3100   42.0060 H   0  0  0  0  0  0  0  0  0  0  0  0
   40.2630   31.0190   42.3310 C   0  0  0  0  0  0  0  0  0  0  0  0
   39.4900   30.4410   41.7720 H   0  0  0  0  0  0  0  0  0  0  0  0
   40.9540   30.3440   42.8830 H   0  0  0  0  0  0  0  0  0  0  0  0
   39.8130   31.6690   43.1140 H   0  0  0  0  0  0  0  0  0  0  0  0
  1  4  1  6  0  0  0
  1  9  1  0  0  0  0
  1  2  1  0  0  0  0
  1  3  1  0  0  0  0
  2  3  1  0  0  0  0
  2  6  1  0  0  0  0
  3  7  1  6  0  0  0
  3 26  1  0  0  0  0
  5  2  1  0  0  0  0
  8 14  1  0  0  0  0
  8 13  1  0  0  0  0
  9  8  2  0  0  0  0
 10  9  1  0  0  0  0
 10 11  2  0  0  0  0
 11 12  1  0  0  0  0
 12 13  2  0  0  0  0
 12 17  1  0  0  0  0
 15 10  1  0  0  0  0
 16 23  1  0  0  0  0
 16 25  1  0  0  0  0
 17 16  2  0  0  0  0
 18 20  2  0  0  0  0
 18 17  1  0  0  0  0
 19 18  1  0  0  0  0
 20 22  1  0  0  0  0
 21 20  1  0  0  0  0
 22 23  2  0  0  0  0
 25 24  3  0  0  0  0
 26 27  1  0  0  0  0
 26 28  1  0  0  0  0
 29 26  1  0  0  0  0
 29 34  1  0  0  0  0
 30 35  1  0  0  0  0
 30 29  1  0  0  0  0
 31 32  1  0  0  0  0
 31 30  1  0  0  0  0
 32 40  1  0  0  0  0
 32 33  1  0  0  0  0
 33 42  1  0  0  0  0
 33 34  1  0  0  0  0
 34 43  1  1  0  0  0
 34 44  1  0  0  0  0
 36 30  1  0  0  0  0
 37 31  1  0  0  0  0
 38 31  1  0  0  0  0
 39 32  1  0  0  0  0
 41 33  1  0  0  0  0
 44 46  1  0  0  0  0
 44 47  1  0  0  0  0
 45 44  1  0  0  0  0
M  END
>  <minimizedAffinity>
-5.64625168

$$$$

 OpenBabel03252500383D

 47 50  0  0  1  0  0  0  0  0999 V2000
   36.9150   25.5200   41.3870 C   0  0  1  0  0  0  0  0  0  0  0  0
   37.0680   24.5220   40.4210 C   0  0  0  0  0  0  0  0  0  0  0  0
   38.1920   24.6290   41.3660 C   0  0  1  0  0  0  0  0  0  0  0  0
   36.2520   25.3600   42.2840 H   0  0  0  0  0  0  0  0  0  0  0  0
   36.4130   23.6140   40.4460 H   0  0  0  0  0  0  0  0  0  0  0  0
   37.2990   24.8000   39.3530 H   0  0  0  0  0  0  0  0  0  0  0  0
   38.2640   24.0380   42.2920 H   0  0  0  0  0  0  0  0  0  0  0  0
   37.4650   27.4370   39.8830 C   0  0  0  0  0  0  0  0  0  0  0  0
   37.1280   26.9880   41.2000 C   0  0  0  0  0  0  0  0  0  0  0  0
   37.0190   27.8830   42.2170 C   0  0  0  0  0  0  0  0  0  0  0  0
   37.2460   29.2050   41.9030 N   0  0  0  0  0  0  0  0  0  0  0  0
   37.5620   29.6160   40.6570 C   0  0  0  0  0  0  0  0  0  0  0  0
   37.6820   28.7410   39.6020 N   0  0  0  0  0  0  0  0  0  0  0  0
   37.5510   26.7350   39.0880 H   0  0  0  0  0  0  0  0  0  0  0  0
   36.7690   27.5630   43.2060 H   0  0  0  0  0  0  0  0  0  0  0  0
   38.7290   31.7310   41.1440 C   0  0  0  0  0  0  0  0  0  0  0  0
   37.7840   31.0370   40.4180 C   0  0  0  0  0  0  0  0  0  0  0  0
   37.0210   31.6530   39.4480 C   0  0  0  0  0  0  0  0  0  0  0  0
   36.2730   31.1760   38.8510 H   0  0  0  0  0  0  0  0  0  0  0  0
   37.2100   33.0030   39.1990 C   0  0  0  0  0  0  0  0  0  0  0  0
   36.6610   33.5880   38.4540 H   0  0  0  0  0  0  0  0  0  0  0  0
   38.1550   33.7540   39.9050 C   0  0  0  0  0  3  0  0  0  0  0  0
   38.8970   33.0910   40.8690 C   0  0  0  0  0  3  0  0  0  0  0  0
   40.1250   30.5380   42.9660 N   0  0  0  0  0  0  0  0  0  0  0  0
   39.5080   31.0680   42.1440 C   0  0  0  0  0  0  0  0  0  0  0  0
   39.4810   25.2250   40.9380 C   0  0  0  0  0  0  0  0  0  0  0  0
   39.3280   26.3000   40.7630 H   0  0  0  0  0  0  0  0  0  0  0  0
   39.8390   24.7710   39.9920 H   0  0  0  0  0  0  0  0  0  0  0  0
   40.4010   25.0530   42.0040 N   0  0  0  0  0  0  0  0  0  0  0  0
   39.9510   25.2570   43.3120 C   0  0  0  0  0  0  0  0  0  0  0  0
   40.1460   26.7200   43.7580 C   0  0  0  0  0  0  0  0  0  0  0  0
   41.6320   26.9420   43.8520 C   0  0  0  0  0  0  0  0  0  0  0  0
   42.1900   26.7040   42.4770 C   0  0  0  0  0  0  0  0  0  0  0  0
   41.7390   25.4270   41.8220 C   0  0  2  0  0  0  0  0  0  0  0  0
   40.6930   24.7130   43.9740 H   0  0  0  0  0  0  0  0  0  0  0  0
   38.9980   24.8370   43.6290 H   0  0  0  0  0  0  0  0  0  0  0  0
   39.7150   27.4070   43.0220 H   0  0  0  0  0  0  0  0  0  0  0  0
   39.6790   26.8000   44.7540 H   0  0  0  0  0  0  0  0  0  0  0  0
   41.7860   28.0240   44.0750 H   0  0  0  0  0  0  0  0  0  0  0  0
   42.0990   26.3310   44.6320 H   0  0  0  0  0  0  0  0  0  0  0  0
   41.9810   27.5440   41.8170 H   0  0  0  0  0  0  0  0  0  0  0  0
   43.3080   26.6530   42.5790 H   0  0  0  0  0  0  0  0  0  0  0  0
   42.3980   24.6130   42.2330 H   0  0  0  0  0  0  0  0  0  0  0  0
   42.1040   25.5330   40.3490 C   0  0  0  0  0  0  0  0  0  0  0  0
   41.6010   26.4140   39.8820 H   0  0  0  0  0  0  0  0  0  0  0  0
   43.2100   25.6010   40.2550 H   0  0  0  0  0  0  0  0  0  0  0  0
   41.8310   24.5810   39.8430 H   0  0  0  0  0  0  0  0  0  0  0  0
  1  4  1  1  0  0  0
  2  5  1  0  0  0  0
  2  3  1  0  0  0  0
  2  1  1  0  0  0  0
  3  1  1  0  0  0  0
  3  7  1  1  0  0  0
  6  2  1  0  0  0  0
  8  9  1  0  0  0  0
  9  1  1  0  0  0  0
  9 10  2  0  0  0  0
 10 15  1  0  0  0  0
 11 10  1  0  0  0  0
 12 11  2  0  0  0  0
 13  8  2  0  0  0  0
 13 12  1  0  0  0  0
 14  8  1  0  0  0  0
 16 25  1  0  0  0  0
 17 12  1  0  0  0  0
 17 16  2  0  0  0  0
 18 17  1  0  0  0  0
 19 18  1  0  0  0  0
 20 18  2  0  0  0  0
 20 22  1  0  0  0  0
 21 20  1  0  0  0  0
 22 23  2  0  0  0  0
 23 16  1  0  0  0  0
 25 24  3  0  0  0  0
 26  3  1  0  0  0  0
 26 29  1  0  0  0  0
 27 26  1  0  0  0  0
 28 26  1  0  0  0  0
 29 30  1  0  0  0  0
 30 36  1  0  0  0  0
 30 31  1  0  0  0  0
 30 35  1  0  0  0  0
 31 32  1  0  0  0  0
 31 38  1  0  0  0  0
 32 39  1  0  0  0  0
 32 40  1  0  0  0  0
 33 42  1  0  0  0  0
 33 32  1  0  0  0  0
 34 29  1  0  0  0  0
 34 43  1  1  0  0  0
 34 33  1  0  0  0  0
 37 31  1  0  0  0  0
 41 33  1  0  0  0  0
 44 34  1  0  0  0  0
 45 44  1  0  0  0  0
 46 44  1  0  0  0  0
 47 44  1  0  0  0  0
M  END
>  <minimizedAffinity>
-5.50166559

$$$$

 OpenBabel03252500383D

 47 50  0  0  1  0  0  0  0  0999 V2000
   35.7050   30.1720   40.2550 C   0  0  1  0  0  0  0  0  0  0  0  0
   34.8630   29.2000   39.7090 C   0  0  0  0  0  0  0  0  0  0  0  0
   35.5540   28.7830   40.9400 C   0  0  1  0  0  0  0  0  0  0  0  0
   35.2870   31.0320   40.8500 H   0  0  0  0  0  0  0  0  0  0  0  0
   33.7530   29.3490   39.7250 H   0  0  0  0  0  0  0  0  0  0  0  0
   35.1630   28.6530   38.7700 H   0  0  0  0  0  0  0  0  0  0  0  0
   35.1220   28.8950   41.9460 H   0  0  0  0  0  0  0  0  0  0  0  0
   37.3790   30.3000   38.4050 C   0  0  0  0  0  0  0  0  0  0  0  0
   37.0780   30.5340   39.7850 C   0  0  0  0  0  0  0  0  0  0  0  0
   38.0230   31.0590   40.6080 C   0  0  0  0  0  0  0  0  0  0  0  0
   39.2470   31.3410   40.0420 N   0  0  0  0  0  0  0  0  0  0  0  0
   39.5180   31.1170   38.7390 C   0  0  0  0  0  0  0  0  0  0  0  0
   38.5880   30.5870   37.8750 N   0  0  0  0  0  0  0  0  0  0  0  0
   36.6380   29.8880   37.7610 H   0  0  0  0  0  0  0  0  0  0  0  0
   37.8140   31.2390   41.6400 H   0  0  0  0  0  0  0  0  0  0  0  0
   41.8560   30.5120   38.2440 C   0  0  0  0  0  0  0  0  0  0  0  0
   40.8420   31.4480   38.2270 C   0  0  0  0  0  0  0  0  0  0  0  0
   41.0400   32.7190   37.7300 C   0  0  0  0  0  0  0  0  0  0  0  0
   40.3020   33.4910   37.6860 H   0  0  0  0  0  0  0  0  0  0  0  0
   42.2890   33.0620   37.2350 C   0  0  0  0  0  0  0  0  0  0  0  0
   42.5530   34.0400   36.8190 H   0  0  0  0  0  0  0  0  0  0  0  0
   43.3510   32.1520   37.2290 C   0  0  0  0  0  3  0  0  0  0  0  0
   43.1030   30.8880   37.7390 C   0  0  0  0  0  3  0  0  0  0  0  0
   41.4560   28.1350   39.1850 N   0  0  0  0  0  0  0  0  0  0  0  0
   41.6240   29.2010   38.7650 C   0  0  0  0  0  0  0  0  0  0  0  0
   36.6820   27.8220   40.8810 C   0  0  0  0  0  0  0  0  0  0  0  0
   37.5700   28.3480   40.4990 H   0  0  0  0  0  0  0  0  0  0  0  0
   36.4590   26.9820   40.1930 H   0  0  0  0  0  0  0  0  0  0  0  0
   36.9360   27.3850   42.2060 N   0  0  0  0  0  0  0  0  0  0  0  0
   37.4600   28.3030   43.1220 C   0  0  0  0  0  0  0  0  0  0  0  0
   39.0010   28.2850   43.1250 C   0  0  0  0  0  0  0  0  0  0  0  0
   39.4110   26.9480   43.6850 C   0  0  0  0  0  0  0  0  0  0  0  0
   38.8470   25.9050   42.7610 C   0  0  0  0  0  0  0  0  0  0  0  0
   37.3920   26.0770   42.4220 C   0  0  2  0  0  0  0  0  0  0  0  0
   37.2220   27.8770   44.1450 H   0  0  0  0  0  0  0  0  0  0  0  0
   37.0440   29.3070   43.1800 H   0  0  0  0  0  0  0  0  0  0  0  0
   39.3900   28.3940   42.1070 H   0  0  0  0  0  0  0  0  0  0  0  0
   39.3140   29.0990   43.8010 H   0  0  0  0  0  0  0  0  0  0  0  0
   40.5200   26.8850   43.5970 H   0  0  0  0  0  0  0  0  0  0  0  0
   39.1110   26.8220   44.7310 H   0  0  0  0  0  0  0  0  0  0  0  0
   39.4280   25.8380   41.8430 H   0  0  0  0  0  0  0  0  0  0  0  0
   38.9570   24.9130   43.2780 H   0  0  0  0  0  0  0  0  0  0  0  0
   36.8140   25.6330   43.2800 H   0  0  0  0  0  0  0  0  0  0  0  0
   37.1050   25.1720   41.2330 C   0  0  0  0  0  0  0  0  0  0  0  0
   37.7470   25.4500   40.3640 H   0  0  0  0  0  0  0  0  0  0  0  0
   37.2680   24.1150   41.5370 H   0  0  0  0  0  0  0  0  0  0  0  0
   36.0210   25.2350   40.9890 H   0  0  0  0  0  0  0  0  0  0  0  0
  1  4  1  1  0  0  0
  1  3  1  0  0  0  0
  2  5  1  0  0  0  0
  2  1  1  0  0  0  0
  2  3  1  0  0  0  0
  3  7  1  1  0  0  0
  6  2  1  0  0  0  0
  8  9  1  0  0  0  0
  9  1  1  0  0  0  0
  9 10  2  0  0  0  0
 10 15  1  0  0  0  0
 11 10  1  0  0  0  0
 12 11  2  0  0  0  0
 13  8  2  0  0  0  0
 13 12  1  0  0  0  0
 14  8  1  0  0  0  0
 16 25  1  0  0  0  0
 17 16  1  0  0  0  0
 17 12  1  0  0  0  0
 18 17  2  0  0  0  0
 19 18  1  0  0  0  0
 20 18  1  0  0  0  0
 21 20  1  0  0  0  0
 22 20  2  0  0  0  0
 22 23  1  0  0  0  0
 23 16  2  0  0  0  0
 25 24  3  0  0  0  0
 26  3  1  0  0  0  0
 26 29  1  0  0  0  0
 27 26  1  0  0  0  0
 28 26  1  0  0  0  0
 29 34  1  0  0  0  0
 29 30  1  0  0  0  0
 30 31  1  0  0  0  0
 30 36  1  0  0  0  0
 30 35  1  0  0  0  0
 31 32  1  0  0  0  0
 31 38  1  0  0  0  0
 32 40  1  0  0  0  0
 33 42  1  0  0  0  0
 33 32  1  0  0  0  0
 34 33  1  0  0  0  0
 34 43  1  1  0  0  0
 37 31  1  0  0  0  0
 39 32  1  0  0  0  0
 41 33  1  0  0  0  0
 44 46  1  0  0  0  0
 44 34  1  0  0  0  0
 45 44  1  0  0  0  0
 47 44  1  0  0  0  0
M  END
>  <minimizedAffinity>
-5.44533205

$$$$

 OpenBabel03252500383D

 47 50  0  0  1  0  0  0  0  0999 V2000
   34.9050   28.5490   35.1720 C   0  0  1  0  0  0  0  0  0  0  0  0
   33.8180   27.9080   34.5740 C   0  0  0  0  0  0  0  0  0  0  0  0
   33.5330   29.2720   35.0470 C   0  0  1  0  0  0  0  0  0  0  0  0
   35.7270   29.0010   34.5480 H   0  0  0  0  0  0  0  0  0  0  0  0
   33.8290   27.6990   33.4730 H   0  0  0  0  0  0  0  0  0  0  0  0
   33.2810   27.0790   35.1160 H   0  0  0  0  0  0  0  0  0  0  0  0
   33.6250   30.1670   34.4130 H   0  0  0  0  0  0  0  0  0  0  0  0
   34.8880   27.2220   37.2890 C   0  0  0  0  0  0  0  0  0  0  0  0
   35.4180   28.3350   36.5610 C   0  0  0  0  0  0  0  0  0  0  0  0
   36.3430   29.1460   37.1380 C   0  0  0  0  0  0  0  0  0  0  0  0
   36.7220   28.8340   38.4240 N   0  0  0  0  0  0  0  0  0  0  0  0
   36.2150   27.7810   39.1000 C   0  0  0  0  0  0  0  0  0  0  0  0
   35.2780   26.9380   38.5500 N   0  0  0  0  0  0  0  0  0  0  0  0
   34.1630   26.5870   36.8370 H   0  0  0  0  0  0  0  0  0  0  0  0
   36.7480   29.9820   36.6070 H   0  0  0  0  0  0  0  0  0  0  0  0
   36.7170   28.5450   41.3880 C   0  0  0  0  0  0  0  0  0  0  0  0
   36.6770   27.5270   40.4590 C   0  0  0  0  0  0  0  0  0  0  0  0
   37.0680   26.2430   40.7760 C   0  0  0  0  0  0  0  0  0  0  0  0
   37.0630   25.4090   40.1070 H   0  0  0  0  0  0  0  0  0  0  0  0
   37.5110   25.9710   42.0610 C   0  0  0  0  0  0  0  0  0  0  0  0
   37.8430   24.9910   42.4170 H   0  0  0  0  0  0  0  0  0  0  0  0
   37.5710   26.9660   43.0420 C   0  0  0  0  0  3  0  0  0  0  0  0
   37.1680   28.2400   42.6760 C   0  0  0  0  0  3  0  0  0  0  0  0
   35.9690   30.9430   40.7670 N   0  0  0  0  0  0  0  0  0  0  0  0
   36.3050   29.8680   41.0340 C   0  0  0  0  0  0  0  0  0  0  0  0
   32.7180   29.4900   36.2670 C   0  0  0  0  0  0  0  0  0  0  0  0
   33.1670   30.3110   36.8460 H   0  0  0  0  0  0  0  0  0  0  0  0
   32.7050   28.5860   36.9080 H   0  0  0  0  0  0  0  0  0  0  0  0
   31.4190   29.8750   35.8460 N   0  0  0  0  0  0  0  0  0  0  0  0
   31.2750   30.4700   34.5890 C   0  0  0  0  0  0  0  0  0  0  0  0
   31.3920   32.0050   34.6710 C   0  0  0  0  0  0  0  0  0  0  0  0
   30.1850   32.4840   35.4340 C   0  0  0  0  0  0  0  0  0  0  0  0
   30.2570   31.8490   36.7940 C   0  0  0  0  0  0  0  0  0  0  0  0
   30.5080   30.3660   36.7900 C   0  0  2  0  0  0  0  0  0  0  0  0
   30.1840   30.3350   34.3140 H   0  0  0  0  0  0  0  0  0  0  0  0
   31.7900   30.0480   33.7270 H   0  0  0  0  0  0  0  0  0  0  0  0
   32.3040   32.2930   35.2040 H   0  0  0  0  0  0  0  0  0  0  0  0
   31.3610   32.3700   33.6310 H   0  0  0  0  0  0  0  0  0  0  0  0
   30.3110   33.5810   35.5870 H   0  0  0  0  0  0  0  0  0  0  0  0
   29.2480   32.2860   34.9020 H   0  0  0  0  0  0  0  0  0  0  0  0
   31.0000   32.3410   37.4180 H   0  0  0  0  0  0  0  0  0  0  0  0
   29.2640   32.0210   37.2920 H   0  0  0  0  0  0  0  0  0  0  0  0
   29.5090   29.8780   36.6130 H   0  0  0  0  0  0  0  0  0  0  0  0
   30.8980   29.9790   38.2090 C   0  0  0  0  0  0  0  0  0  0  0  0
   31.8130   30.5320   38.5290 H   0  0  0  0  0  0  0  0  0  0  0  0
   30.0410   30.1850   38.8870 H   0  0  0  0  0  0  0  0  0  0  0  0
   31.0400   28.8770   38.2540 H   0  0  0  0  0  0  0  0  0  0  0  0
  1  4  1  6  0  0  0
  1  9  1  0  0  0  0
  2  3  1  0  0  0  0
  2  6  1  0  0  0  0
  2  1  1  0  0  0  0
  3  7  1  6  0  0  0
  3  1  1  0  0  0  0
  3 26  1  0  0  0  0
  5  2  1  0  0  0  0
  8 13  1  0  0  0  0
  9 10  1  0  0  0  0
  9  8  2  0  0  0  0
 10 11  2  0  0  0  0
 11 12  1  0  0  0  0
 12 17  1  0  0  0  0
 13 12  2  0  0  0  0
 14  8  1  0  0  0  0
 15 10  1  0  0  0  0
 16 23  1  0  0  0  0
 17 18  1  0  0  0  0
 17 16  2  0  0  0  0
 18 20  2  0  0  0  0
 19 18  1  0  0  0  0
 20 21  1  0  0  0  0
 20 22  1  0  0  0  0
 23 22  2  0  0  0  0
 24 25  3  0  0  0  0
 25 16  1  0  0  0  0
 26 27  1  0  0  0  0
 26 28  1  0  0  0  0
 29 26  1  0  0  0  0
 29 34  1  0  0  0  0
 30 31  1  0  0  0  0
 30 29  1  0  0  0  0
 31 37  1  0  0  0  0
 31 32  1  0  0  0  0
 32 39  1  0  0  0  0
 32 33  1  0  0  0  0
 33 42  1  0  0  0  0
 33 41  1  0  0  0  0
 34 43  1  6  0  0  0
 34 33  1  0  0  0  0
 34 44  1  0  0  0  0
 35 30  1  0  0  0  0
 36 30  1  0  0  0  0
 38 31  1  0  0  0  0
 40 32  1  0  0  0  0
 44 47  1  0  0  0  0
 44 45  1  0  0  0  0
 44 46  1  0  0  0  0
M  END
>  <minimizedAffinity>
-5.44340754

$$$$

 OpenBabel03252500383D

 47 50  0  0  1  0  0  0  0  0999 V2000
   40.2580   30.9060   42.7940 C   0  0  1  0  0  0  0  0  0  0  0  0
   41.6180   31.2130   42.7040 C   0  0  0  0  0  0  0  0  0  0  0  0
   40.7790   31.8700   41.6880 C   0  0  1  0  0  0  0  0  0  0  0  0
   39.6040   31.3970   43.5690 H   0  0  0  0  0  0  0  0  0  0  0  0
   42.1050   31.8330   43.4990 H   0  0  0  0  0  0  0  0  0  0  0  0
   42.3470   30.4460   42.3150 H   0  0  0  0  0  0  0  0  0  0  0  0
   40.3440   32.8730   41.8170 H   0  0  0  0  0  0  0  0  0  0  0  0
   38.1620   29.6780   42.2120 C   0  0  0  0  0  0  0  0  0  0  0  0
   39.5890   29.6550   42.3220 C   0  0  0  0  0  0  0  0  0  0  0  0
   40.2770   28.5250   42.0080 C   0  0  0  0  0  0  0  0  0  0  0  0
   39.5320   27.4440   41.5900 N   0  0  0  0  0  0  0  0  0  0  0  0
   38.1860   27.4800   41.4900 C   0  0  0  0  0  0  0  0  0  0  0  0
   37.4550   28.6040   41.7990 N   0  0  0  0  0  0  0  0  0  0  0  0
   37.6240   30.5630   42.4590 H   0  0  0  0  0  0  0  0  0  0  0  0
   41.3420   28.4920   42.0850 H   0  0  0  0  0  0  0  0  0  0  0  0
   37.0370   26.1860   39.7360 C   0  0  0  0  0  0  0  0  0  0  0  0
   37.4810   26.2870   41.0380 C   0  0  0  0  0  0  0  0  0  0  0  0
   37.2790   25.2740   41.9520 C   0  0  0  0  0  0  0  0  0  0  0  0
   37.5960   25.2870   42.9730 H   0  0  0  0  0  0  0  0  0  0  0  0
   36.6120   24.1270   41.5500 C   0  0  0  0  0  0  0  0  0  0  0  0
   36.4000   23.2660   42.1920 H   0  0  0  0  0  0  0  0  0  0  0  0
   36.1410   23.9730   40.2420 C   0  0  0  0  0  3  0  0  0  0  0  0
   36.3690   25.0170   39.3610 C   0  0  0  0  0  3  0  0  0  0  0  0
   37.4580   28.1040   38.0510 N   0  0  0  0  0  0  0  0  0  0  0  0
   37.2600   27.2500   38.8070 C   0  0  0  0  0  0  0  0  0  0  0  0
   40.8020   31.4070   40.2800 C   0  0  0  0  0  0  0  0  0  0  0  0
   40.2920   30.4330   40.2230 H   0  0  0  0  0  0  0  0  0  0  0  0
   41.8410   31.2710   39.9180 H   0  0  0  0  0  0  0  0  0  0  0  0
   40.0800   32.3550   39.5100 N   0  0  0  0  0  0  0  0  0  0  0  0
   39.3400   33.3330   40.1820 C   0  0  0  0  0  0  0  0  0  0  0  0
   37.8930   32.8700   40.4440 C   0  0  0  0  0  0  0  0  0  0  0  0
   37.2250   32.7770   39.0970 C   0  0  0  0  0  0  0  0  0  0  0  0
   37.9960   31.7600   38.3050 C   0  0  0  0  0  0  0  0  0  0  0  0
   39.4880   31.9540   38.3050 C   0  0  2  0  0  0  0  0  0  0  0  0
   39.1830   34.1640   39.4270 H   0  0  0  0  0  0  0  0  0  0  0  0
   39.7790   33.8600   41.0260 H   0  0  0  0  0  0  0  0  0  0  0  0
   37.8850   31.8880   40.9290 H   0  0  0  0  0  0  0  0  0  0  0  0
   37.4250   33.6610   41.0530 H   0  0  0  0  0  0  0  0  0  0  0  0
   36.2110   32.3460   39.2670 H   0  0  0  0  0  0  0  0  0  0  0  0
   37.1390   33.7510   38.6040 H   0  0  0  0  0  0  0  0  0  0  0  0
   37.7620   30.7480   38.6290 H   0  0  0  0  0  0  0  0  0  0  0  0
   37.6470   31.8390   37.2390 H   0  0  0  0  0  0  0  0  0  0  0  0
   39.7050   32.7320   37.5220 H   0  0  0  0  0  0  0  0  0  0  0  0
   40.1010   30.6670   37.7730 C   0  0  0  0  0  0  0  0  0  0  0  0
   39.8160   29.8010   38.4160 H   0  0  0  0  0  0  0  0  0  0  0  0
   39.7700   30.5180   36.7210 H   0  0  0  0  0  0  0  0  0  0  0  0
   41.2050   30.7950   37.7100 H   0  0  0  0  0  0  0  0  0  0  0  0
  1  4  1  1  0  0  0
  2  1  1  0  0  0  0
  2  5  1  0  0  0  0
  3  7  1  1  0  0  0
  3  2  1  0  0  0  0
  3  1  1  0  0  0  0
  6  2  1  0  0  0  0
  8  9  1  0  0  0  0
  8 14  1  0  0  0  0
  9  1  1  0  0  0  0
 10 15  1  0  0  0  0
 10  9  2  0  0  0  0
 11 10  1  0  0  0  0
 12 11  2  0  0  0  0
 12 13  1  0  0  0  0
 13  8  2  0  0  0  0
 16 17  1  0  0  0  0
 17 12  1  0  0  0  0
 17 18  2  0  0  0  0
 18 19  1  0  0  0  0
 20 18  1  0  0  0  0
 20 21  1  0  0  0  0
 22 20  2  0  0  0  0
 23 16  2  0  0  0  0
 23 22  1  0  0  0  0
 24 25  3  0  0  0  0
 25 16  1  0  0  0  0
 26  3  1  0  0  0  0
 27 26  1  0  0  0  0
 28 26  1  0  0  0  0
 29 30  1  0  0  0  0
 29 26  1  0  0  0  0
 30 31  1  0  0  0  0
 30 36  1  0  0  0  0
 31 37  1  0  0  0  0
 31 38  1  0  0  0  0
 32 39  1  0  0  0  0
 32 31  1  0  0  0  0
 33 41  1  0  0  0  0
 33 32  1  0  0  0  0
 34 43  1  6  0  0  0
 34 33  1  0  0  0  0
 34 29  1  0  0  0  0
 35 30  1  0  0  0  0
 40 32  1  0  0  0  0
 42 33  1  0  0  0  0
 44 34  1  0  0  0  0
 44 45  1  0  0  0  0
 46 44  1  0  0  0  0
 47 44  1  0  0  0  0
M  END
>  <minimizedAffinity>
-5.43000746

$$$$

 OpenBabel03252500383D

 47 50  0  0  1  0  0  0  0  0999 V2000
   37.7900   28.3740   43.5760 C   0  0  1  0  0  0  0  0  0  0  0  0
   36.5810   27.6830   43.4620 C   0  0  0  0  0  0  0  0  0  0  0  0
   37.7750   26.8700   43.1750 C   0  0  1  0  0  0  0  0  0  0  0  0
   38.2450   28.5810   44.5860 H   0  0  0  0  0  0  0  0  0  0  0  0
   35.9740   27.4630   44.3780 H   0  0  0  0  0  0  0  0  0  0  0  0
   35.8980   27.8770   42.5870 H   0  0  0  0  0  0  0  0  0  0  0  0
   38.2930   26.2640   43.9330 H   0  0  0  0  0  0  0  0  0  0  0  0
   39.8000   29.4780   42.5870 C   0  0  0  0  0  0  0  0  0  0  0  0
   38.3770   29.3210   42.5800 C   0  0  0  0  0  0  0  0  0  0  0  0
   37.6210   30.0210   41.6940 C   0  0  0  0  0  0  0  0  0  0  0  0
   38.2940   30.8620   40.8350 N   0  0  0  0  0  0  0  0  0  0  0  0
   39.6370   31.0000   40.8530 C   0  0  0  0  0  0  0  0  0  0  0  0
   40.4360   30.3090   41.7330 N   0  0  0  0  0  0  0  0  0  0  0  0
   40.3920   28.9300   43.2820 H   0  0  0  0  0  0  0  0  0  0  0  0
   36.5580   29.9150   41.6760 H   0  0  0  0  0  0  0  0  0  0  0  0
   40.5270   31.5110   38.6120 C   0  0  0  0  0  0  0  0  0  0  0  0
   40.2640   31.9130   39.9050 C   0  0  0  0  0  0  0  0  0  0  0  0
   40.5790   33.1810   40.3450 C   0  0  0  0  0  0  0  0  0  0  0  0
   40.4040   33.5580   41.3300 H   0  0  0  0  0  0  0  0  0  0  0  0
   41.1750   34.0720   39.4660 C   0  0  0  0  0  0  0  0  0  0  0  0
   41.4650   35.0990   39.7110 H   0  0  0  0  0  0  0  0  0  0  0  0
   41.4630   33.7150   38.1440 C   0  0  0  0  0  3  0  0  0  0  0  0
   41.1280   32.4310   37.7490 C   0  0  0  0  0  3  0  0  0  0  0  0
   39.9120   29.1280   37.8120 N   0  0  0  0  0  0  0  0  0  0  0  0
   40.1890   30.1900   38.1800 C   0  0  0  0  0  0  0  0  0  0  0  0
   38.1090   26.4930   41.7800 C   0  0  0  0  0  0  0  0  0  0  0  0
   39.0350   25.8980   41.7910 H   0  0  0  0  0  0  0  0  0  0  0  0
   38.2850   27.3890   41.1520 H   0  0  0  0  0  0  0  0  0  0  0  0
   37.0470   25.6890   41.2930 N   0  0  0  0  0  0  0  0  0  0  0  0
   36.9190   24.3850   41.7820 C   0  0  0  0  0  0  0  0  0  0  0  0
   37.7000   23.3750   40.9180 C   0  0  0  0  0  0  0  0  0  0  0  0
   37.0020   23.3270   39.5840 C   0  0  0  0  0  0  0  0  0  0  0  0
   37.0720   24.7150   39.0130 C   0  0  0  0  0  0  0  0  0  0  0  0
   36.6520   25.8100   39.9540 C   0  0  2  0  0  0  0  0  0  0  0  0
   35.8450   24.0880   41.5720 H   0  0  0  0  0  0  0  0  0  0  0  0
   37.0120   24.1960   42.8500 H   0  0  0  0  0  0  0  0  0  0  0  0
   38.7350   23.7050   40.7810 H   0  0  0  0  0  0  0  0  0  0  0  0
   37.6160   22.4040   41.4330 H   0  0  0  0  0  0  0  0  0  0  0  0
   37.6160   22.6770   38.9190 H   0  0  0  0  0  0  0  0  0  0  0  0
   35.9840   22.9290   39.6580 H   0  0  0  0  0  0  0  0  0  0  0  0
   38.0650   24.9310   38.6240 H   0  0  0  0  0  0  0  0  0  0  0  0
   36.3740   24.7440   38.1310 H   0  0  0  0  0  0  0  0  0  0  0  0
   35.5280   25.8480   39.9130 H   0  0  0  0  0  0  0  0  0  0  0  0
   37.1200   27.1230   39.3410 C   0  0  0  0  0  0  0  0  0  0  0  0
   38.2280   27.1210   39.2080 H   0  0  0  0  0  0  0  0  0  0  0  0
   36.5940   27.2760   38.3730 H   0  0  0  0  0  0  0  0  0  0  0  0
   36.7790   27.9610   39.9880 H   0  0  0  0  0  0  0  0  0  0  0  0
  1  4  1  1  0  0  0
  2  1  1  0  0  0  0
  2  5  1  0  0  0  0
  3  2  1  0  0  0  0
  3  1  1  0  0  0  0
  3  7  1  1  0  0  0
  6  2  1  0  0  0  0
  8 14  1  0  0  0  0
  9  8  1  0  0  0  0
  9  1  1  0  0  0  0
 10  9  2  0  0  0  0
 11 12  2  0  0  0  0
 11 10  1  0  0  0  0
 12 13  1  0  0  0  0
 13  8  2  0  0  0  0
 15 10  1  0  0  0  0
 16 17  1  0  0  0  0
 17 18  2  0  0  0  0
 17 12  1  0  0  0  0
 18 19  1  0  0  0  0
 20 21  1  0  0  0  0
 20 18  1  0  0  0  0
 22 20  2  0  0  0  0
 23 22  1  0  0  0  0
 23 16  2  0  0  0  0
 24 25  3  0  0  0  0
 25 16  1  0  0  0  0
 26 27  1  0  0  0  0
 26  3  1  0  0  0  0
 28 26  1  0  0  0  0
 29 26  1  0  0  0  0
 29 30  1  0  0  0  0
 30 36  1  0  0  0  0
 31 38  1  0  0  0  0
 31 30  1  0  0  0  0
 32 40  1  0  0  0  0
 32 31  1  0  0  0  0
 33 32  1  0  0  0  0
 33 34  1  0  0  0  0
 34 43  1  6  0  0  0
 34 29  1  0  0  0  0
 35 30  1  0  0  0  0
 37 31  1  0  0  0  0
 39 32  1  0  0  0  0
 41 33  1  0  0  0  0
 42 33  1  0  0  0  0
 44 34  1  0  0  0  0
 44 47  1  0  0  0  0
 45 44  1  0  0  0  0
 46 44  1  0  0  0  0
M  END
>  <minimizedAffinity>
-5.34127569

$$$$

 OpenBabel03252500383D

 47 50  0  0  1  0  0  0  0  0999 V2000
   38.1250   28.9560   43.3950 C   0  0  1  0  0  0  0  0  0  0  0  0
   36.8800   28.3220   43.3560 C   0  0  0  0  0  0  0  0  0  0  0  0
   38.0310   27.4090   43.2550 C   0  0  1  0  0  0  0  0  0  0  0  0
   38.5640   29.3090   44.3710 H   0  0  0  0  0  0  0  0  0  0  0  0
   36.2370   28.2960   44.2720 H   0  0  0  0  0  0  0  0  0  0  0  0
   36.2340   28.3990   42.4360 H   0  0  0  0  0  0  0  0  0  0  0  0
   38.4920   26.9150   44.1240 H   0  0  0  0  0  0  0  0  0  0  0  0
   40.2100   29.8740   42.3710 C   0  0  0  0  0  0  0  0  0  0  0  0
   38.7940   29.6840   42.2740 C   0  0  0  0  0  0  0  0  0  0  0  0
   38.1170   30.1620   41.1970 C   0  0  0  0  0  0  0  0  0  0  0  0
   38.8600   30.8170   40.2400 N   0  0  0  0  0  0  0  0  0  0  0  0
   40.1950   30.9880   40.3440 C   0  0  0  0  0  0  0  0  0  0  0  0
   40.9150   30.5200   41.4170 N   0  0  0  0  0  0  0  0  0  0  0  0
   40.7400   29.5000   43.2150 H   0  0  0  0  0  0  0  0  0  0  0  0
   37.0600   30.0290   41.1100 H   0  0  0  0  0  0  0  0  0  0  0  0
   40.7620   33.0590   39.1330 C   0  0  0  0  0  0  0  0  0  0  0  0
   40.8990   31.6950   39.2800 C   0  0  0  0  0  0  0  0  0  0  0  0
   41.6990   30.9530   38.4360 C   0  0  0  0  0  0  0  0  0  0  0  0
   41.8500   29.8960   38.4930 H   0  0  0  0  0  0  0  0  0  0  0  0
   42.3820   31.5980   37.4160 C   0  0  0  0  0  0  0  0  0  0  0  0
   43.0410   31.1070   36.6930 H   0  0  0  0  0  0  0  0  0  0  0  0
   42.2790   32.9790   37.2230 C   0  0  0  0  0  3  0  0  0  0  0  0
   41.4640   33.6800   38.0960 C   0  0  0  0  0  3  0  0  0  0  0  0
   39.2630   34.4060   40.7570 N   0  0  0  0  0  0  0  0  0  0  0  0
   39.9270   33.8050   40.0230 C   0  0  0  0  0  0  0  0  0  0  0  0
   38.3790   26.7790   41.9590 C   0  0  0  0  0  0  0  0  0  0  0  0
   39.2280   26.0960   42.1180 H   0  0  0  0  0  0  0  0  0  0  0  0
   38.6870   27.5390   41.2120 H   0  0  0  0  0  0  0  0  0  0  0  0
   37.2530   26.0280   41.5360 N   0  0  0  0  0  0  0  0  0  0  0  0
   37.0140   24.7890   42.1380 C   0  0  0  0  0  0  0  0  0  0  0  0
   37.7050   23.6430   41.3720 C   0  0  0  0  0  0  0  0  0  0  0  0
   37.0070   23.5360   40.0420 C   0  0  0  0  0  0  0  0  0  0  0  0
   37.1950   24.8570   39.3510 C   0  0  0  0  0  0  0  0  0  0  0  0
   36.8710   26.0630   40.1880 C   0  0  2  0  0  0  0  0  0  0  0  0
   35.9190   24.5670   41.9460 H   0  0  0  0  0  0  0  0  0  0  0  0
   37.0900   24.6880   43.2180 H   0  0  0  0  0  0  0  0  0  0  0  0
   38.7650   23.8700   41.2150 H   0  0  0  0  0  0  0  0  0  0  0  0
   37.5380   22.7320   41.9710 H   0  0  0  0  0  0  0  0  0  0  0  0
   37.5640   22.7800   39.4420 H   0  0  0  0  0  0  0  0  0  0  0  0
   35.9580   23.2340   40.1430 H   0  0  0  0  0  0  0  0  0  0  0  0
   38.2030   24.9520   38.9530 H   0  0  0  0  0  0  0  0  0  0  0  0
   36.5040   24.8670   38.4640 H   0  0  0  0  0  0  0  0  0  0  0  0
   35.7540   26.1920   40.1350 H   0  0  0  0  0  0  0  0  0  0  0  0
   37.4490   27.2720   39.4660 C   0  0  0  0  0  0  0  0  0  0  0  0
   38.5530   27.1640   39.3420 H   0  0  0  0  0  0  0  0  0  0  0  0
   36.9390   27.3820   38.4830 H   0  0  0  0  0  0  0  0  0  0  0  0
   37.1800   28.1900   40.0330 H   0  0  0  0  0  0  0  0  0  0  0  0
  1  4  1  1  0  0  0
  2  1  1  0  0  0  0
  2  5  1  0  0  0  0
  3  2  1  0  0  0  0
  3  1  1  0  0  0  0
  3  7  1  1  0  0  0
  6  2  1  0  0  0  0
  8 14  1  0  0  0  0
  9  8  1  0  0  0  0
  9  1  1  0  0  0  0
 10  9  2  0  0  0  0
 11 12  2  0  0  0  0
 11 10  1  0  0  0  0
 12 13  1  0  0  0  0
 13  8  2  0  0  0  0
 15 10  1  0  0  0  0
 16 17  1  0  0  0  0
 16 25  1  0  0  0  0
 17 12  1  0  0  0  0
 18 19  1  0  0  0  0
 18 17  2  0  0  0  0
 20 18  1  0  0  0  0
 21 20  1  0  0  0  0
 22 20  2  0  0  0  0
 22 23  1  0  0  0  0
 23 16  2  0  0  0  0
 25 24  3  0  0  0  0
 26 27  1  0  0  0  0
 26  3  1  0  0  0  0
 28 26  1  0  0  0  0
 29 26  1  0  0  0  0
 29 30  1  0  0  0  0
 30 36  1  0  0  0  0
 31 38  1  0  0  0  0
 31 30  1  0  0  0  0
 32 40  1  0  0  0  0
 32 31  1  0  0  0  0
 33 32  1  0  0  0  0
 33 34  1  0  0  0  0
 34 43  1  6  0  0  0
 34 29  1  0  0  0  0
 35 30  1  0  0  0  0
 37 31  1  0  0  0  0
 39 32  1  0  0  0  0
 41 33  1  0  0  0  0
 42 33  1  0  0  0  0
 44 47  1  0  0  0  0
 44 34  1  0  0  0  0
 45 44  1  0  0  0  0
 46 44  1  0  0  0  0
M  END
>  <minimizedAffinity>
-5.3042078

$$$$

 OpenBabel03252500383D

 47 50  0  0  1  0  0  0  0  0999 V2000
   37.4620   32.3830   38.8000 C   0  0  1  0  0  0  0  0  0  0  0  0
   36.9770   33.5460   39.4030 C   0  0  0  0  0  0  0  0  0  0  0  0
   38.4060   33.2860   39.6460 C   0  0  1  0  0  0  0  0  0  0  0  0
   37.7050   32.3600   37.6990 H   0  0  0  0  0  0  0  0  0  0  0  0
   36.6770   34.4200   38.7720 H   0  0  0  0  0  0  0  0  0  0  0  0
   36.3070   33.4770   40.3070 H   0  0  0  0  0  0  0  0  0  0  0  0
   39.2120   33.6950   39.0190 H   0  0  0  0  0  0  0  0  0  0  0  0
   38.2380   30.0090   38.8490 C   0  0  0  0  0  0  0  0  0  0  0  0
   37.2790   30.9790   39.2820 C   0  0  0  0  0  0  0  0  0  0  0  0
   36.2530   30.6080   40.0920 C   0  0  0  0  0  0  0  0  0  0  0  0
   36.2030   29.2800   40.4560 N   0  0  0  0  0  0  0  0  0  0  0  0
   37.1150   28.3750   40.0420 C   0  0  0  0  0  0  0  0  0  0  0  0
   38.1660   28.7130   39.2220 N   0  0  0  0  0  0  0  0  0  0  0  0
   39.0410   30.3010   38.2140 H   0  0  0  0  0  0  0  0  0  0  0  0
   35.5290   31.3200   40.4230 H   0  0  0  0  0  0  0  0  0  0  0  0
   36.5110   26.0240   39.6150 C   0  0  0  0  0  0  0  0  0  0  0  0
   36.9830   26.9900   40.4790 C   0  0  0  0  0  0  0  0  0  0  0  0
   37.3440   26.6880   41.7750 C   0  0  0  0  0  0  0  0  0  0  0  0
   37.7160   27.3850   42.4950 H   0  0  0  0  0  0  0  0  0  0  0  0
   37.2290   25.3790   42.2190 C   0  0  0  0  0  0  0  0  0  0  0  0
   37.4880   25.0320   43.2240 H   0  0  0  0  0  0  0  0  0  0  0  0
   36.7580   24.3610   41.3840 C   0  0  0  0  0  3  0  0  0  0  0  0
   36.4080   24.7140   40.0920 C   0  0  0  0  0  3  0  0  0  0  0  0
   35.8660   26.6380   37.1860 N   0  0  0  0  0  0  0  0  0  0  0  0
   36.1440   26.3640   38.2750 C   0  0  0  0  0  0  0  0  0  0  0  0
   38.8680   32.8050   40.9710 C   0  0  0  0  0  0  0  0  0  0  0  0
   38.4540   31.8000   41.1420 H   0  0  0  0  0  0  0  0  0  0  0  0
   38.5110   33.4670   41.7860 H   0  0  0  0  0  0  0  0  0  0  0  0
   40.2830   32.7220   40.9210 N   0  0  0  0  0  0  0  0  0  0  0  0
   40.9510   33.3500   39.8650 C   0  0  0  0  0  0  0  0  0  0  0  0
   41.1380   32.3980   38.6660 C   0  0  0  0  0  0  0  0  0  0  0  0
   42.1020   31.3310   39.1160 C   0  0  0  0  0  0  0  0  0  0  0  0
   41.4580   30.6340   40.2810 C   0  0  0  0  0  0  0  0  0  0  0  0
   40.9170   31.5470   41.3470 C   0  0  2  0  0  0  0  0  0  0  0  0
   42.0180   33.4850   40.2210 H   0  0  0  0  0  0  0  0  0  0  0  0
   40.6700   34.3580   39.5690 H   0  0  0  0  0  0  0  0  0  0  0  0
   40.1840   31.9390   38.3860 H   0  0  0  0  0  0  0  0  0  0  0  0
   41.5830   33.0060   37.8610 H   0  0  0  0  0  0  0  0  0  0  0  0
   42.1660   30.5830   38.2920 H   0  0  0  0  0  0  0  0  0  0  0  0
   43.0980   31.7320   39.3350 H   0  0  0  0  0  0  0  0  0  0  0  0
   40.6720   29.9590   39.9490 H   0  0  0  0  0  0  0  0  0  0  0  0
   42.2470   29.9910   40.7580 H   0  0  0  0  0  0  0  0  0  0  0  0
   41.7930   31.8270   41.9960 H   0  0  0  0  0  0  0  0  0  0  0  0
   40.0130   30.7040   42.2340 C   0  0  0  0  0  0  0  0  0  0  0  0
   39.1820   30.2590   41.6380 H   0  0  0  0  0  0  0  0  0  0  0  0
   40.6250   29.9170   42.7280 H   0  0  0  0  0  0  0  0  0  0  0  0
   39.6370   31.3380   43.0670 H   0  0  0  0  0  0  0  0  0  0  0  0
  1  4  1  6  0  0  0
  1  9  1  0  0  0  0
  1  2  1  0  0  0  0
  1  3  1  0  0  0  0
  2  3  1  0  0  0  0
  2  6  1  0  0  0  0
  3  7  1  6  0  0  0
  3 26  1  0  0  0  0
  5  2  1  0  0  0  0
  8 13  2  0  0  0  0
  8  9  1  0  0  0  0
  9 10  2  0  0  0  0
 10 15  1  0  0  0  0
 10 11  1  0  0  0  0
 12 11  2  0  0  0  0
 12 17  1  0  0  0  0
 13 12  1  0  0  0  0
 14  8  1  0  0  0  0
 16 23  2  0  0  0  0
 16 17  1  0  0  0  0
 17 18  2  0  0  0  0
 18 20  1  0  0  0  0
 18 19  1  0  0  0  0
 20 21  1  0  0  0  0
 22 20  2  0  0  0  0
 23 22  1  0  0  0  0
 24 25  3  0  0  0  0
 25 16  1  0  0  0  0
 26 27  1  0  0  0  0
 26 28  1  0  0  0  0
 29 26  1  0  0  0  0
 29 34  1  0  0  0  0
 30 35  1  0  0  0  0
 30 29  1  0  0  0  0
 31 32  1  0  0  0  0
 31 30  1  0  0  0  0
 32 40  1  0  0  0  0
 32 33  1  0  0  0  0
 33 42  1  0  0  0  0
 33 34  1  0  0  0  0
 34 43  1  1  0  0  0
 34 44  1  0  0  0  0
 36 30  1  0  0  0  0
 37 31  1  0  0  0  0
 38 31  1  0  0  0  0
 39 32  1  0  0  0  0
 41 33  1  0  0  0  0
 44 46  1  0  0  0  0
 44 47  1  0  0  0  0
 45 44  1  0  0  0  0
M  END
>  <minimizedAffinity>
-5.27198172

$$$$
