
 OpenBabel03252502203D

 34 36  0  0  1  0  0  0  0  0999 V2000
   46.7870   34.4470   42.3070 N   0  0  0  0  0  0  0  0  0  0  0  0
   48.2220   34.7220   42.2460 C   0  0  0  0  0  0  0  0  0  0  0  0
   48.4350   35.3380   40.8470 C   0  0  0  0  0  0  0  0  0  0  0  0
   48.0980   34.3600   39.7610 C   0  0  0  0  0  0  0  0  0  0  0  0
   47.0090   33.4180   40.0980 C   0  0  0  0  0  0  0  0  0  0  0  0
   46.1000   33.9070   41.1750 C   0  0  1  0  0  0  0  0  0  0  0  0
   48.8140   33.7930   42.2230 H   0  0  0  0  0  0  0  0  0  0  0  0
   48.5320   35.4650   42.9820 H   0  0  0  0  0  0  0  0  0  0  0  0
   49.4740   35.6900   40.7270 H   0  0  0  0  0  0  0  0  0  0  0  0
   47.7370   36.2150   40.7620 H   0  0  0  0  0  0  0  0  0  0  0  0
   47.8350   34.9370   38.8510 H   0  0  0  0  0  0  0  0  0  0  0  0
   49.0290   33.8070   39.4940 H   0  0  0  0  0  0  0  0  0  0  0  0
   46.3970   33.0920   39.2360 H   0  0  0  0  0  0  0  0  0  0  0  0
   47.4940   32.4760   40.4900 H   0  0  0  0  0  0  0  0  0  0  0  0
   45.5920   34.8190   40.7120 H   0  0  0  0  0  0  0  0  0  0  0  0
   44.4780   35.9640   44.8060 C   0  0  0  0  0  0  0  0  0  0  0  0
   45.1700   35.7990   43.6070 C   0  0  0  0  0  0  0  0  0  0  0  0
   46.0390   34.7100   43.4750 C   0  0  0  0  0  0  0  0  0  0  0  0
   46.1370   33.8930   44.5500 N   0  0  0  0  0  0  0  0  0  0  0  0
   45.4660   34.0590   45.7050 C   0  0  0  0  0  0  0  0  0  0  0  0
   44.6320   35.1050   45.8270 N   0  0  0  0  0  0  0  0  0  0  0  0
   43.8150   36.8170   44.8720 H   0  0  0  0  0  0  0  0  0  0  0  0
   45.0690   36.4600   42.7840 H   0  0  0  0  0  0  0  0  0  0  0  0
   45.6680   33.3090   46.4540 H   0  0  0  0  0  0  0  0  0  0  0  0
   43.6510   33.2550   41.2620 C   0  0  0  0  0  0  0  0  0  0  0  0
   45.0020   32.9820   41.4600 C   0  0  0  0  0  0  0  0  0  0  0  0
   45.1790   31.6850   41.9590 C   0  0  0  0  0  0  0  0  0  0  0  0
   46.2200   31.3760   42.1500 H   0  0  0  0  0  0  0  0  0  0  0  0
   44.2160   30.7680   42.2360 C   0  0  0  0  0  0  0  0  0  0  0  0
   44.4800   29.7930   42.6210 H   0  0  0  0  0  0  0  0  0  0  0  0
   42.9110   31.1470   42.0010 C   0  0  0  0  0  3  0  0  0  0  0  0
   42.6220   32.3810   41.5160 C   0  0  0  0  0  3  0  0  0  0  0  0
   43.0040   35.5990   40.3680 N   0  0  0  0  0  0  0  0  0  0  0  0
   43.2820   34.5500   40.7670 C   0  0  0  0  0  0  0  0  0  0  0  0
  1 18  1  0  0  0  0
  2  1  1  0  0  0  0
  2  8  1  0  0  0  0
  3  2  1  0  0  0  0
  4  5  1  0  0  0  0
  4  3  1  0  0  0  0
  5 14  1  0  0  0  0
  5  6  1  0  0  0  0
  6 15  1  6  0  0  0
  6 26  1  0  0  0  0
  6  1  1  0  0  0  0
  7  2  1  0  0  0  0
  9  3  1  0  0  0  0
 10  3  1  0  0  0  0
 11  4  1  0  0  0  0
 12  4  1  0  0  0  0
 13  5  1  0  0  0  0
 16 22  1  0  0  0  0
 16 21  1  0  0  0  0
 17 16  2  0  0  0  0
 18 17  1  0  0  0  0
 18 19  2  0  0  0  0
 19 20  1  0  0  0  0
 20 21  2  0  0  0  0
 20 24  1  0  0  0  0
 23 17  1  0  0  0  0
 25 26  2  0  0  0  0
 25 32  1  0  0  0  0
 26 27  1  0  0  0  0
 27 28  1  0  0  0  0
 27 29  2  0  0  0  0
 29 30  1  0  0  0  0
 31 29  1  0  0  0  0
 32 31  2  0  0  0  0
 33 34  3  0  0  0  0
 34 25  1  0  0  0  0
M  END
>  <minimizedAffinity>
-5.18244553

>  <minimizedRMSD>
0.893169105

$$$$
