
 OpenBabel03242518193D

 31 33  0  0  0  0  0  0  0  0999 V2000
   47.2440   31.1820   45.5860 C   0  0  0  0  0  0  0  0  0  0  0  0
   47.3690   31.7320   46.8370 C   0  0  0  0  0  0  0  0  0  0  0  0
   46.9910   30.7420   47.7490 C   0  0  0  0  0  0  0  0  0  0  0  0
   46.6550   29.6370   46.9870 C   0  0  0  0  0  0  0  0  0  0  0  0
   46.8250   29.9660   45.7560 O   0  0  0  0  0  0  0  0  0  0  0  0
   47.6940   32.7380   47.1300 H   0  0  0  0  0  0  0  0  0  0  0  0
   46.9540   30.7890   48.8360 H   0  0  0  0  0  0  0  0  0  0  0  0
   47.1100   27.3030   47.4860 C   0  0  0  0  0  0  0  0  0  0  0  0
   46.1920   28.3310   47.4270 C   0  0  0  0  0  0  0  0  0  0  0  0
   44.8710   28.1120   47.7820 C   0  0  0  0  0  0  0  0  0  0  0  0
   44.1380   28.9050   47.7430 H   0  0  0  0  0  0  0  0  0  0  0  0
   44.4990   26.8400   48.1940 C   0  0  0  0  0  0  0  0  0  0  0  0
   43.4960   26.5830   48.4860 H   0  0  0  0  0  0  0  0  0  0  0  0
   45.4220   25.8040   48.2530 C   0  0  0  0  0  0  0  0  0  0  0  0
   46.7350   26.0290   47.9000 C   0  0  0  0  0  0  0  0  0  0  0  0
   49.5950   27.6790   46.8110 N   0  0  0  0  0  0  0  0  0  0  0  0
   48.4950   27.5080   47.1210 C   0  0  0  0  0  0  0  0  0  0  0  0
   47.5460   31.8950   44.3040 C   0  0  0  0  0  0  0  0  0  0  0  0
   48.6110   32.0730   44.1490 H   0  0  0  0  0  0  0  0  0  0  0  0
   47.1600   31.2110   43.4930 H   0  0  0  0  0  0  0  0  0  0  0  0
   45.1010   34.4960   45.0930 C   0  0  0  0  0  0  0  0  0  0  0  0
   45.1830   35.3840   44.0120 C   0  0  0  0  0  0  0  0  0  0  0  0
   46.0820   35.0820   43.0140 C   0  0  0  0  0  0  0  0  0  0  0  0
   46.8380   33.9610   43.1100 N   0  0  0  0  0  0  0  0  0  0  0  0
   46.7260   33.1300   44.1760 C   0  0  0  0  0  0  0  0  0  0  0  0
   45.8490   33.4070   45.1690 N   0  0  0  0  0  0  0  0  0  0  0  0
   44.4060   34.6960   45.9020 H   0  0  0  0  0  0  0  0  0  0  0  0
   46.1430   35.7610   42.1880 H   0  0  0  0  0  0  0  0  0  0  0  0
   44.3290   36.5170   44.0450 N   0  0  0  0  0  0  0  0  0  0  0  0
   43.4310   36.1050   43.6980 H   0  0  0  0  0  0  0  0  0  0  0  0
   44.5270   37.4850   44.3310 H   0  0  0  0  0  0  0  0  0  0  0  0
  1  5  1  0  0  0  0
  1  2  2  0  0  0  0
  2  6  1  0  0  0  0
  2  3  1  0  0  0  0
  3  7  1  0  0  0  0
  4  9  1  0  0  0  0
  4  3  2  0  0  0  0
  5  4  1  0  0  0  0
  8 15  1  0  0  0  0
  9  8  2  0  0  0  0
  9 10  1  0  0  0  0
 10 12  2  0  0  0  0
 11 10  1  0  0  0  0
 12 14  1  0  0  0  0
 12 13  1  0  0  0  0
 15 14  2  0  0  0  0
 16 17  3  0  0  0  0
 17  8  1  0  0  0  0
 18  1  1  0  0  0  0
 19 18  1  0  0  0  0
 20 18  1  0  0  0  0
 21 26  1  0  0  0  0
 21 27  1  0  0  0  0
 22 29  1  0  0  0  0
 22 21  2  0  0  0  0
 23 24  2  0  0  0  0
 23 22  1  0  0  0  0
 24 25  1  0  0  0  0
 25 18  1  0  0  0  0
 25 26  2  0  0  0  0
 28 23  1  0  0  0  0
 29 31  1  0  0  0  0
 30 29  1  0  0  0  0
M  END
>  <minimizedAffinity>
-4.25721073

>  <minimizedRMSD>
4.14765739

$$$$
