
 OpenBabel03252502103D

 49 53  0  0  0  0  0  0  0  0999 V2000
   36.7570   29.5740   38.4180 C   0  0  0  0  0  0  0  0  0  0  0  0
   35.8320   29.6650   37.4550 N   0  0  0  0  0  0  0  0  0  0  0  0
   35.1510   28.6410   36.9460 C   0  0  0  0  0  0  0  0  0  0  0  0
   35.3730   27.3850   37.4050 N   0  0  0  0  0  0  0  0  0  0  0  0
   36.2740   27.1600   38.3690 C   0  0  0  0  0  0  0  0  0  0  0  0
   36.5080   25.8880   38.8400 C   0  0  0  0  0  0  0  0  0  0  0  0
   37.4230   25.6420   39.8190 C   0  0  0  0  0  0  0  0  0  0  0  0
   38.1120   26.7270   40.3260 C   0  0  0  0  0  0  0  0  0  0  0  0
   37.8430   27.9900   39.8210 C   0  0  0  0  0  0  0  0  0  0  0  0
   36.9460   28.2680   38.8530 C   0  0  0  0  0  0  0  0  0  0  0  0
   34.4250   28.8440   36.1660 H   0  0  0  0  0  0  0  0  0  0  0  0
   35.9530   25.0580   38.4240 H   0  0  0  0  0  0  0  0  0  0  0  0
   37.5650   24.6250   40.1500 H   0  0  0  0  0  0  0  0  0  0  0  0
   37.3230   32.3350   40.6810 C   0  0  0  0  0  0  0  0  0  0  0  0
   38.5110   32.9430   40.2650 C   0  0  0  0  0  0  0  0  0  0  0  0
   39.1460   32.3850   39.1850 C   0  0  0  0  0  0  0  0  0  0  0  0
   38.6200   31.3190   38.5890 N   0  0  0  0  0  0  0  0  0  0  0  0
   37.5030   30.7320   38.9620 C   0  0  0  0  0  0  0  0  0  0  0  0
   36.8600   31.2630   40.0260 N   0  0  0  0  0  0  0  0  0  0  0  0
   40.3290   32.9280   38.7390 N   0  0  0  0  0  0  0  0  0  0  0  0
   41.1840   32.3010   37.6930 C   0  0  0  0  0  0  0  0  0  0  0  0
   42.2000   33.3410   37.3120 C   0  0  0  0  0  0  0  0  0  0  0  0
   42.3170   34.1610   38.5560 C   0  0  0  0  0  0  0  0  0  0  0  0
   40.9570   34.1390   39.1630 C   0  0  0  0  0  0  0  0  0  0  0  0
   36.7830   32.7470   41.5400 H   0  0  0  0  0  0  0  0  0  0  0  0
   41.6030   31.3550   38.0420 H   0  0  0  0  0  0  0  0  0  0  0  0
   40.4950   32.1780   36.8180 H   0  0  0  0  0  0  0  0  0  0  0  0
   43.1680   32.9020   37.0200 H   0  0  0  0  0  0  0  0  0  0  0  0
   41.8670   33.9860   36.4850 H   0  0  0  0  0  0  0  0  0  0  0  0
   42.6850   35.1850   38.3270 H   0  0  0  0  0  0  0  0  0  0  0  0
   43.0940   33.6820   39.1850 H   0  0  0  0  0  0  0  0  0  0  0  0
   40.4140   35.0120   38.8010 H   0  0  0  0  0  0  0  0  0  0  0  0
   41.1900   34.1710   40.2710 H   0  0  0  0  0  0  0  0  0  0  0  0
   38.9330   34.0580   40.9460 N   0  0  0  0  0  0  0  0  0  0  0  0
   38.8400   35.0510   40.6130 H   0  0  0  0  0  0  0  0  0  0  0  0
   39.4050   34.1810   41.8770 H   0  0  0  0  0  0  0  0  0  0  0  0
   38.6910   26.5940   42.6710 C   0  0  0  0  0  0  0  0  0  0  0  0
   39.0830   26.4260   41.3730 C   0  0  0  0  0  0  0  0  0  0  0  0
   40.3510   25.9870   41.0410 C   0  0  0  0  0  0  0  0  0  0  0  0
   40.6170   25.8690   40.0010 H   0  0  0  0  0  0  0  0  0  0  0  0
   41.2600   25.7060   42.0470 C   0  0  0  0  0  0  0  0  0  0  0  0
   42.2640   25.3590   41.8370 H   0  0  0  0  0  0  0  0  0  0  0  0
   40.8330   25.8850   43.3500 C   0  0  0  0  0  3  0  0  0  0  0  0
   39.5810   26.3180   43.6800 C   0  0  0  0  0  3  0  0  0  0  0  0
   36.3430   27.4070   43.2930 N   0  0  0  0  0  0  0  0  0  0  0  0
   37.3840   27.0460   43.0090 C   0  0  0  0  0  0  0  0  0  0  0  0
   38.6490   28.9770   40.4760 N   0  0  0  0  0  0  0  0  0  0  0  0
   38.0660   29.2180   41.3270 H   0  0  0  0  0  0  0  0  0  0  0  0
   39.5560   29.4220   40.3010 H   0  0  0  0  0  0  0  0  0  0  0  0
  1 10  1  0  0  0  0
  1 18  1  0  0  0  0
  2  1  2  0  0  0  0
  3  4  2  0  0  0  0
  3  2  1  0  0  0  0
  4  5  1  0  0  0  0
  5  6  2  0  0  0  0
  5 10  1  0  0  0  0
  6  7  1  0  0  0  0
  7 13  1  0  0  0  0
  7  8  2  0  0  0  0
  8 38  1  0  0  0  0
  9  8  1  0  0  0  0
  9 47  1  0  0  0  0
 10  9  2  0  0  0  0
 11  3  1  0  0  0  0
 12  6  1  0  0  0  0
 14 25  1  0  0  0  0
 15 14  1  0  0  0  0
 15 34  1  0  0  0  0
 16 15  2  0  0  0  0
 17 18  2  0  0  0  0
 17 16  1  0  0  0  0
 18 19  1  0  0  0  0
 19 14  2  0  0  0  0
 20 24  1  0  0  0  0
 20 16  1  0  0  0  0
 21 26  1  0  0  0  0
 21 20  1  0  0  0  0
 22 21  1  0  0  0  0
 22 23  1  0  0  0  0
 23 24  1  0  0  0  0
 23 31  1  0  0  0  0
 24 33  1  0  0  0  0
 27 21  1  0  0  0  0
 28 22  1  0  0  0  0
 29 22  1  0  0  0  0
 30 23  1  0  0  0  0
 32 24  1  0  0  0  0
 34 36  1  0  0  0  0
 35 34  1  0  0  0  0
 37 46  1  0  0  0  0
 37 44  1  0  0  0  0
 38 37  2  0  0  0  0
 39 38  1  0  0  0  0
 39 41  2  0  0  0  0
 40 39  1  0  0  0  0
 41 43  1  0  0  0  0
 42 41  1  0  0  0  0
 43 44  2  0  0  0  0
 46 45  3  0  0  0  0
 47 48  1  0  0  0  0
 49 47  1  0  0  0  0
M  END
>  <minimizedAffinity>
-6.72334242

$$$$

 OpenBabel03252502103D

 49 53  0  0  0  0  0  0  0  0999 V2000
   36.8440   28.9390   37.9340 C   0  0  0  0  0  0  0  0  0  0  0  0
   35.8670   28.9390   37.0200 N   0  0  0  0  0  0  0  0  0  0  0  0
   35.0390   27.9240   36.7810 C   0  0  0  0  0  0  0  0  0  0  0  0
   35.1520   26.7760   37.4940 N   0  0  0  0  0  0  0  0  0  0  0  0
   36.0910   26.6500   38.4400 C   0  0  0  0  0  0  0  0  0  0  0  0
   36.2140   25.4880   39.1680 C   0  0  0  0  0  0  0  0  0  0  0  0
   37.1650   25.3430   40.1330 C   0  0  0  0  0  0  0  0  0  0  0  0
   38.0080   26.4160   40.3550 C   0  0  0  0  0  0  0  0  0  0  0  0
   37.8460   27.5660   39.5980 C   0  0  0  0  0  0  0  0  0  0  0  0
   36.9160   27.7420   38.6360 C   0  0  0  0  0  0  0  0  0  0  0  0
   34.2850   28.0450   36.0120 H   0  0  0  0  0  0  0  0  0  0  0  0
   35.5410   24.6650   38.9720 H   0  0  0  0  0  0  0  0  0  0  0  0
   37.2170   24.4110   40.6720 H   0  0  0  0  0  0  0  0  0  0  0  0
   37.7420   32.1950   39.2200 C   0  0  0  0  0  0  0  0  0  0  0  0
   39.0600   32.4260   38.8140 C   0  0  0  0  0  0  0  0  0  0  0  0
   39.6660   31.4310   38.0880 C   0  0  0  0  0  0  0  0  0  0  0  0
   38.9940   30.3200   37.8040 N   0  0  0  0  0  0  0  0  0  0  0  0
   37.7540   30.0830   38.1740 C   0  0  0  0  0  0  0  0  0  0  0  0
   37.1360   31.0470   38.8920 N   0  0  0  0  0  0  0  0  0  0  0  0
   40.9680   31.5920   37.6750 N   0  0  0  0  0  0  0  0  0  0  0  0
   41.7720   30.5120   37.0370 C   0  0  0  0  0  0  0  0  0  0  0  0
   43.0050   31.1800   36.4950 C   0  0  0  0  0  0  0  0  0  0  0  0
   43.1700   32.3560   37.4020 C   0  0  0  0  0  0  0  0  0  0  0  0
   41.7840   32.7610   37.7670 C   0  0  0  0  0  0  0  0  0  0  0  0
   37.2200   32.9620   39.8020 H   0  0  0  0  0  0  0  0  0  0  0  0
   41.9610   29.6960   37.7380 H   0  0  0  0  0  0  0  0  0  0  0  0
   41.1540   30.1980   36.1570 H   0  0  0  0  0  0  0  0  0  0  0  0
   43.8880   30.5220   36.5160 H   0  0  0  0  0  0  0  0  0  0  0  0
   42.8820   31.5360   35.4620 H   0  0  0  0  0  0  0  0  0  0  0  0
   43.7540   33.1630   36.9080 H   0  0  0  0  0  0  0  0  0  0  0  0
   43.7760   32.0140   38.2650 H   0  0  0  0  0  0  0  0  0  0  0  0
   41.4600   33.5240   37.0590 H   0  0  0  0  0  0  0  0  0  0  0  0
   41.9180   33.1440   38.8250 H   0  0  0  0  0  0  0  0  0  0  0  0
   39.6320   33.6290   39.1460 N   0  0  0  0  0  0  0  0  0  0  0  0
   39.7690   34.4420   38.4950 H   0  0  0  0  0  0  0  0  0  0  0  0
   40.0340   33.9960   40.0450 H   0  0  0  0  0  0  0  0  0  0  0  0
   38.6720   26.5490   42.6780 C   0  0  0  0  0  0  0  0  0  0  0  0
   39.0140   26.2240   41.3960 C   0  0  0  0  0  0  0  0  0  0  0  0
   40.2640   25.7310   41.0730 C   0  0  0  0  0  0  0  0  0  0  0  0
   40.4900   25.4880   40.0450 H   0  0  0  0  0  0  0  0  0  0  0  0
   41.2060   25.5560   42.0720 C   0  0  0  0  0  0  0  0  0  0  0  0
   42.1980   25.1720   41.8690 H   0  0  0  0  0  0  0  0  0  0  0  0
   40.8300   25.8930   43.3590 C   0  0  0  0  0  3  0  0  0  0  0  0
   39.5950   26.3800   43.6800 C   0  0  0  0  0  3  0  0  0  0  0  0
   36.3510   27.4540   43.2790 N   0  0  0  0  0  0  0  0  0  0  0  0
   37.3830   27.0570   43.0060 C   0  0  0  0  0  0  0  0  0  0  0  0
   38.8040   28.5610   39.9810 N   0  0  0  0  0  0  0  0  0  0  0  0
   38.3160   29.0480   40.7850 H   0  0  0  0  0  0  0  0  0  0  0  0
   39.7400   28.8400   39.6690 H   0  0  0  0  0  0  0  0  0  0  0  0
  1 18  1  0  0  0  0
  1 10  1  0  0  0  0
  2  1  2  0  0  0  0
  3  2  1  0  0  0  0
  3  4  2  0  0  0  0
  4  5  1  0  0  0  0
  5 10  2  0  0  0  0
  5  6  1  0  0  0  0
  6  7  2  0  0  0  0
  7  8  1  0  0  0  0
  7 13  1  0  0  0  0
  8 38  1  0  0  0  0
  9 47  1  0  0  0  0
  9  8  2  0  0  0  0
 10  9  1  0  0  0  0
 11  3  1  0  0  0  0
 12  6  1  0  0  0  0
 14 25  1  0  0  0  0
 15 34  1  0  0  0  0
 15 14  2  0  0  0  0
 16 15  1  0  0  0  0
 17 16  2  0  0  0  0
 17 18  1  0  0  0  0
 18 19  2  0  0  0  0
 19 14  1  0  0  0  0
 20 24  1  0  0  0  0
 20 16  1  0  0  0  0
 21 20  1  0  0  0  0
 21 26  1  0  0  0  0
 22 28  1  0  0  0  0
 22 21  1  0  0  0  0
 22 23  1  0  0  0  0
 23 24  1  0  0  0  0
 23 31  1  0  0  0  0
 24 33  1  0  0  0  0
 27 21  1  0  0  0  0
 29 22  1  0  0  0  0
 30 23  1  0  0  0  0
 32 24  1  0  0  0  0
 34 36  1  0  0  0  0
 35 34  1  0  0  0  0
 37 46  1  0  0  0  0
 37 44  1  0  0  0  0
 38 37  2  0  0  0  0
 39 38  1  0  0  0  0
 39 41  2  0  0  0  0
 40 39  1  0  0  0  0
 41 43  1  0  0  0  0
 42 41  1  0  0  0  0
 43 44  2  0  0  0  0
 46 45  3  0  0  0  0
 47 48  1  0  0  0  0
 49 47  1  0  0  0  0
M  END
>  <minimizedAffinity>
-6.43552446

$$$$

 OpenBabel03252502103D

 49 53  0  0  0  0  0  0  0  0999 V2000
   37.7840   26.8160   41.7690 C   0  0  0  0  0  0  0  0  0  0  0  0
   38.3280   27.0020   42.9780 N   0  0  0  0  0  0  0  0  0  0  0  0
   38.2880   28.1390   43.6700 C   0  0  0  0  0  0  0  0  0  0  0  0
   37.6580   29.2230   43.1550 N   0  0  0  0  0  0  0  0  0  0  0  0
   37.0730   29.1660   41.9530 C   0  0  0  0  0  0  0  0  0  0  0  0
   36.4330   30.2630   41.4220 C   0  0  0  0  0  0  0  0  0  0  0  0
   35.8330   30.2210   40.1990 C   0  0  0  0  0  0  0  0  0  0  0  0
   35.8930   29.0270   39.5070 C   0  0  0  0  0  0  0  0  0  0  0  0
   36.5490   27.9480   40.0820 C   0  0  0  0  0  0  0  0  0  0  0  0
   37.1520   27.9560   41.2880 C   0  0  0  0  0  0  0  0  0  0  0  0
   38.7670   28.1650   44.6430 H   0  0  0  0  0  0  0  0  0  0  0  0
   36.4020   31.1850   41.9860 H   0  0  0  0  0  0  0  0  0  0  0  0
   35.3470   31.1100   39.8310 H   0  0  0  0  0  0  0  0  0  0  0  0
   36.6000   23.5610   40.7370 C   0  0  0  0  0  0  0  0  0  0  0  0
   37.5730   23.0470   39.8740 C   0  0  0  0  0  0  0  0  0  0  0  0
   38.6630   23.8440   39.6260 C   0  0  0  0  0  0  0  0  0  0  0  0
   38.7510   25.0380   40.2030 N   0  0  0  0  0  0  0  0  0  0  0  0
   37.8490   25.5400   41.0200 C   0  0  0  0  0  0  0  0  0  0  0  0
   36.7650   24.7740   41.2770 N   0  0  0  0  0  0  0  0  0  0  0  0
   39.6450   23.4010   38.7710 N   0  0  0  0  0  0  0  0  0  0  0  0
   40.7750   24.2490   38.3010 C   0  0  0  0  0  0  0  0  0  0  0  0
   41.7460   23.3140   37.6350 C   0  0  0  0  0  0  0  0  0  0  0  0
   40.8630   22.2050   37.1610 C   0  0  0  0  0  0  0  0  0  0  0  0
   39.7820   22.1070   38.1820 C   0  0  0  0  0  0  0  0  0  0  0  0
   35.7140   22.9590   40.9610 H   0  0  0  0  0  0  0  0  0  0  0  0
   40.4180   25.0670   37.6710 H   0  0  0  0  0  0  0  0  0  0  0  0
   41.2590   24.6070   39.2470 H   0  0  0  0  0  0  0  0  0  0  0  0
   42.2880   23.7880   36.8010 H   0  0  0  0  0  0  0  0  0  0  0  0
   42.4960   22.9070   38.3290 H   0  0  0  0  0  0  0  0  0  0  0  0
   41.4400   21.2630   37.0320 H   0  0  0  0  0  0  0  0  0  0  0  0
   40.5000   22.4910   36.1540 H   0  0  0  0  0  0  0  0  0  0  0  0
   40.0870   21.3670   38.9230 H   0  0  0  0  0  0  0  0  0  0  0  0
   38.8920   21.7920   37.5570 H   0  0  0  0  0  0  0  0  0  0  0  0
   37.3790   21.7860   39.3660 N   0  0  0  0  0  0  0  0  0  0  0  0
   37.8600   20.9120   39.6950 H   0  0  0  0  0  0  0  0  0  0  0  0
   36.7610   21.4220   38.5980 H   0  0  0  0  0  0  0  0  0  0  0  0
   36.0040   29.3110   37.1070 C   0  0  0  0  0  0  0  0  0  0  0  0
   35.2410   29.0190   38.2010 C   0  0  0  0  0  0  0  0  0  0  0  0
   33.8940   28.7250   38.0970 C   0  0  0  0  0  0  0  0  0  0  0  0
   33.3300   28.5000   38.9900 H   0  0  0  0  0  0  0  0  0  0  0  0
   33.2910   28.7220   36.8510 C   0  0  0  0  0  0  0  0  0  0  0  0
   32.2400   28.4970   36.7190 H   0  0  0  0  0  0  0  0  0  0  0  0
   34.0910   29.0210   35.7640 C   0  0  0  0  0  3  0  0  0  0  0  0
   35.4210   29.3120   35.8640 C   0  0  0  0  0  3  0  0  0  0  0  0
   38.5020   29.8500   37.2940 N   0  0  0  0  0  0  0  0  0  0  0  0
   37.3920   29.6140   37.2180 C   0  0  0  0  0  0  0  0  0  0  0  0
   36.4950   26.8060   39.2170 N   0  0  0  0  0  0  0  0  0  0  0  0
   35.5730   26.3610   39.4880 H   0  0  0  0  0  0  0  0  0  0  0  0
   37.0940   26.4050   38.4890 H   0  0  0  0  0  0  0  0  0  0  0  0
  1  2  1  0  0  0  0
  2  3  2  0  0  0  0
  3 11  1  0  0  0  0
  4  3  1  0  0  0  0
  5  4  2  0  0  0  0
  6  5  1  0  0  0  0
  6 12  1  0  0  0  0
  7  6  2  0  0  0  0
  8  9  2  0  0  0  0
  8  7  1  0  0  0  0
  9 10  1  0  0  0  0
 10  1  2  0  0  0  0
 10  5  1  0  0  0  0
 13  7  1  0  0  0  0
 14 25  1  0  0  0  0
 14 19  1  0  0  0  0
 15 14  2  0  0  0  0
 16 15  1  0  0  0  0
 16 17  2  0  0  0  0
 17 18  1  0  0  0  0
 18 19  2  0  0  0  0
 18  1  1  0  0  0  0
 20 16  1  0  0  0  0
 21 20  1  0  0  0  0
 21 27  1  0  0  0  0
 22 21  1  0  0  0  0
 22 29  1  0  0  0  0
 23 22  1  0  0  0  0
 23 24  1  0  0  0  0
 24 20  1  0  0  0  0
 24 32  1  0  0  0  0
 26 21  1  0  0  0  0
 28 22  1  0  0  0  0
 30 23  1  0  0  0  0
 31 23  1  0  0  0  0
 33 24  1  0  0  0  0
 34 35  1  0  0  0  0
 34 15  1  0  0  0  0
 36 34  1  0  0  0  0
 37 46  1  0  0  0  0
 37 38  1  0  0  0  0
 38  8  1  0  0  0  0
 39 38  2  0  0  0  0
 39 40  1  0  0  0  0
 41 39  1  0  0  0  0
 42 41  1  0  0  0  0
 43 44  1  0  0  0  0
 43 41  2  0  0  0  0
 44 37  2  0  0  0  0
 46 45  3  0  0  0  0
 47 48  1  0  0  0  0
 47  9  1  0  0  0  0
 49 47  1  0  0  0  0
M  END
>  <minimizedAffinity>
-6.33171225

$$$$

 OpenBabel03252502103D

 49 53  0  0  0  0  0  0  0  0999 V2000
   36.2900   28.9060   38.4960 C   0  0  0  0  0  0  0  0  0  0  0  0
   35.3050   28.9620   37.5920 N   0  0  0  0  0  0  0  0  0  0  0  0
   34.6370   27.9130   37.1180 C   0  0  0  0  0  0  0  0  0  0  0  0
   34.9390   26.6650   37.5550 N   0  0  0  0  0  0  0  0  0  0  0  0
   35.9060   26.4750   38.4610 C   0  0  0  0  0  0  0  0  0  0  0  0
   36.2210   25.2120   38.9090 C   0  0  0  0  0  0  0  0  0  0  0  0
   37.2030   25.0010   39.8290 C   0  0  0  0  0  0  0  0  0  0  0  0
   37.8770   26.1120   40.3000 C   0  0  0  0  0  0  0  0  0  0  0  0
   37.5250   27.3650   39.8200 C   0  0  0  0  0  0  0  0  0  0  0  0
   36.5590   27.6080   38.9100 C   0  0  0  0  0  0  0  0  0  0  0  0
   33.8570   28.0870   36.3860 H   0  0  0  0  0  0  0  0  0  0  0  0
   35.6770   24.3610   38.5230 H   0  0  0  0  0  0  0  0  0  0  0  0
   37.4080   23.9900   40.1440 H   0  0  0  0  0  0  0  0  0  0  0  0
   36.8100   31.7560   40.6580 C   0  0  0  0  0  0  0  0  0  0  0  0
   37.9930   32.3630   40.2260 C   0  0  0  0  0  0  0  0  0  0  0  0
   38.6410   31.7730   39.1700 C   0  0  0  0  0  0  0  0  0  0  0  0
   38.1310   30.6800   38.6120 N   0  0  0  0  0  0  0  0  0  0  0  0
   37.0190   30.0930   39.0000 C   0  0  0  0  0  0  0  0  0  0  0  0
   36.3640   30.6550   40.0410 N   0  0  0  0  0  0  0  0  0  0  0  0
   39.8190   32.3140   38.7110 N   0  0  0  0  0  0  0  0  0  0  0  0
   40.6870   31.6600   37.6930 C   0  0  0  0  0  0  0  0  0  0  0  0
   41.6930   32.6980   37.2780 C   0  0  0  0  0  0  0  0  0  0  0  0
   41.7930   33.5640   38.4920 C   0  0  0  0  0  0  0  0  0  0  0  0
   40.4300   33.5470   39.0930 C   0  0  0  0  0  0  0  0  0  0  0  0
   36.2610   32.1920   41.4990 H   0  0  0  0  0  0  0  0  0  0  0  0
   41.1160   30.7320   38.0780 H   0  0  0  0  0  0  0  0  0  0  0  0
   40.0050   31.4960   36.8190 H   0  0  0  0  0  0  0  0  0  0  0  0
   42.6670   32.2600   37.0080 H   0  0  0  0  0  0  0  0  0  0  0  0
   41.3560   33.3070   36.4270 H   0  0  0  0  0  0  0  0  0  0  0  0
   42.1500   34.5830   38.2270 H   0  0  0  0  0  0  0  0  0  0  0  0
   42.5720   33.1180   39.1420 H   0  0  0  0  0  0  0  0  0  0  0  0
   39.8790   34.4000   38.6960 H   0  0  0  0  0  0  0  0  0  0  0  0
   40.6570   33.6230   40.2000 H   0  0  0  0  0  0  0  0  0  0  0  0
   38.3980   33.5070   40.8680 N   0  0  0  0  0  0  0  0  0  0  0  0
   38.2950   34.4860   40.4980 H   0  0  0  0  0  0  0  0  0  0  0  0
   38.8630   33.6700   41.7950 H   0  0  0  0  0  0  0  0  0  0  0  0
   40.1690   25.5410   40.8200 C   0  0  0  0  0  0  0  0  0  0  0  0
   38.9220   25.8480   41.2840 C   0  0  0  0  0  0  0  0  0  0  0  0
   38.6370   25.9110   42.6350 C   0  0  0  0  0  0  0  0  0  0  0  0
   37.6360   26.1570   42.9560 H   0  0  0  0  0  0  0  0  0  0  0  0
   39.6400   25.6580   43.5550 C   0  0  0  0  0  0  0  0  0  0  0  0
   39.4660   25.6960   44.6230 H   0  0  0  0  0  0  0  0  0  0  0  0
   40.8920   25.3510   43.0550 C   0  0  0  0  0  3  0  0  0  0  0  0
   41.1750   25.2880   41.7200 C   0  0  0  0  0  3  0  0  0  0  0  0
   40.6990   25.4150   38.3160 N   0  0  0  0  0  0  0  0  0  0  0  0
   40.4590   25.4770   39.4270 C   0  0  0  0  0  0  0  0  0  0  0  0
   38.3280   28.3820   40.4310 N   0  0  0  0  0  0  0  0  0  0  0  0
   37.7880   28.5950   41.3170 H   0  0  0  0  0  0  0  0  0  0  0  0
   39.2030   28.8650   40.2040 H   0  0  0  0  0  0  0  0  0  0  0  0
  1 10  1  0  0  0  0
  1 18  1  0  0  0  0
  2  1  2  0  0  0  0
  3  4  2  0  0  0  0
  3  2  1  0  0  0  0
  4  5  1  0  0  0  0
  5  6  2  0  0  0  0
  5 10  1  0  0  0  0
  6  7  1  0  0  0  0
  7 13  1  0  0  0  0
  7  8  2  0  0  0  0
  8 38  1  0  0  0  0
  9  8  1  0  0  0  0
  9 47  1  0  0  0  0
 10  9  2  0  0  0  0
 11  3  1  0  0  0  0
 12  6  1  0  0  0  0
 14 25  1  0  0  0  0
 15 14  1  0  0  0  0
 15 34  1  0  0  0  0
 16 15  2  0  0  0  0
 17 18  2  0  0  0  0
 17 16  1  0  0  0  0
 18 19  1  0  0  0  0
 19 14  2  0  0  0  0
 20 24  1  0  0  0  0
 20 16  1  0  0  0  0
 21 26  1  0  0  0  0
 21 20  1  0  0  0  0
 22 21  1  0  0  0  0
 22 23  1  0  0  0  0
 23 24  1  0  0  0  0
 23 31  1  0  0  0  0
 24 33  1  0  0  0  0
 27 21  1  0  0  0  0
 28 22  1  0  0  0  0
 29 22  1  0  0  0  0
 30 23  1  0  0  0  0
 32 24  1  0  0  0  0
 34 36  1  0  0  0  0
 35 34  1  0  0  0  0
 37 38  2  0  0  0  0
 37 44  1  0  0  0  0
 38 39  1  0  0  0  0
 39 40  1  0  0  0  0
 39 41  2  0  0  0  0
 41 42  1  0  0  0  0
 43 41  1  0  0  0  0
 44 43  2  0  0  0  0
 45 46  3  0  0  0  0
 46 37  1  0  0  0  0
 47 48  1  0  0  0  0
 49 47  1  0  0  0  0
M  END
>  <minimizedAffinity>
-6.31106043

$$$$

 OpenBabel03252502103D

 49 53  0  0  0  0  0  0  0  0999 V2000
   37.5080   27.3930   41.1860 C   0  0  0  0  0  0  0  0  0  0  0  0
   37.9720   26.8110   42.2970 N   0  0  0  0  0  0  0  0  0  0  0  0
   37.9000   25.5090   42.5700 C   0  0  0  0  0  0  0  0  0  0  0  0
   37.3210   24.6640   41.6830 N   0  0  0  0  0  0  0  0  0  0  0  0
   36.8180   25.1220   40.5310 C   0  0  0  0  0  0  0  0  0  0  0  0
   36.2260   24.2710   39.6250 C   0  0  0  0  0  0  0  0  0  0  0  0
   35.7080   24.7230   38.4480 C   0  0  0  0  0  0  0  0  0  0  0  0
   35.7990   26.0780   38.1970 C   0  0  0  0  0  0  0  0  0  0  0  0
   36.4030   26.8980   39.1390 C   0  0  0  0  0  0  0  0  0  0  0  0
   36.9260   26.4840   40.3120 C   0  0  0  0  0  0  0  0  0  0  0  0
   38.3150   25.1570   43.5080 H   0  0  0  0  0  0  0  0  0  0  0  0
   36.1690   23.2150   39.8480 H   0  0  0  0  0  0  0  0  0  0  0  0
   35.2550   24.0120   37.7760 H   0  0  0  0  0  0  0  0  0  0  0  0
   36.3060   30.8020   41.1670 C   0  0  0  0  0  0  0  0  0  0  0  0
   37.3070   31.5660   40.5590 C   0  0  0  0  0  0  0  0  0  0  0  0
   38.4350   30.8970   40.1530 C   0  0  0  0  0  0  0  0  0  0  0  0
   38.5270   29.5840   40.3450 N   0  0  0  0  0  0  0  0  0  0  0  0
   37.5980   28.8460   40.9130 C   0  0  0  0  0  0  0  0  0  0  0  0
   36.4780   29.4840   41.3230 N   0  0  0  0  0  0  0  0  0  0  0  0
   39.4620   31.5960   39.5640 N   0  0  0  0  0  0  0  0  0  0  0  0
   40.7900   31.0020   39.2470 C   0  0  0  0  0  0  0  0  0  0  0  0
   41.4930   32.0030   38.3710 C   0  0  0  0  0  0  0  0  0  0  0  0
   40.8820   33.2990   38.7960 C   0  0  0  0  0  0  0  0  0  0  0  0
   39.4760   32.9650   39.1570 C   0  0  0  0  0  0  0  0  0  0  0  0
   35.3900   31.2950   41.5070 H   0  0  0  0  0  0  0  0  0  0  0  0
   41.3280   30.7310   40.1580 H   0  0  0  0  0  0  0  0  0  0  0  0
   40.5460   30.1170   38.6040 H   0  0  0  0  0  0  0  0  0  0  0  0
   42.5850   32.0000   38.5150 H   0  0  0  0  0  0  0  0  0  0  0  0
   41.2990   31.8470   37.3000 H   0  0  0  0  0  0  0  0  0  0  0  0
   40.9650   34.0630   37.9920 H   0  0  0  0  0  0  0  0  0  0  0  0
   41.4830   33.6740   39.6480 H   0  0  0  0  0  0  0  0  0  0  0  0
   38.8570   33.1190   38.2720 H   0  0  0  0  0  0  0  0  0  0  0  0
   39.2650   33.6950   39.9960 H   0  0  0  0  0  0  0  0  0  0  0  0
   37.0760   32.9090   40.3910 N   0  0  0  0  0  0  0  0  0  0  0  0
   36.8040   33.3750   39.4900 H   0  0  0  0  0  0  0  0  0  0  0  0
   37.1110   33.7200   41.0580 H   0  0  0  0  0  0  0  0  0  0  0  0
   36.0550   26.5460   35.8380 C   0  0  0  0  0  0  0  0  0  0  0  0
   35.2330   26.5260   36.9280 C   0  0  0  0  0  0  0  0  0  0  0  0
   33.9080   26.9120   36.8550 C   0  0  0  0  0  0  0  0  0  0  0  0
   33.2960   26.8800   37.7430 H   0  0  0  0  0  0  0  0  0  0  0  0
   33.3870   27.3340   35.6430 C   0  0  0  0  0  0  0  0  0  0  0  0
   32.3560   27.6450   35.5360 H   0  0  0  0  0  0  0  0  0  0  0  0
   34.2440   27.3420   34.5580 C   0  0  0  0  0  3  0  0  0  0  0  0
   35.5530   26.9610   34.6290 C   0  0  0  0  0  3  0  0  0  0  0  0
   38.5120   25.8360   35.9920 N   0  0  0  0  0  0  0  0  0  0  0  0
   37.4200   26.1470   35.9170 C   0  0  0  0  0  0  0  0  0  0  0  0
   36.4070   28.2600   38.6940 N   0  0  0  0  0  0  0  0  0  0  0  0
   37.2940   28.3070   38.1170 H   0  0  0  0  0  0  0  0  0  0  0  0
   35.7950   29.0740   38.8100 H   0  0  0  0  0  0  0  0  0  0  0  0
  1  2  1  0  0  0  0
  2  3  2  0  0  0  0
  3 11  1  0  0  0  0
  4  3  1  0  0  0  0
  5  4  2  0  0  0  0
  6 12  1  0  0  0  0
  6  5  1  0  0  0  0
  7  6  2  0  0  0  0
  8  7  1  0  0  0  0
  8  9  2  0  0  0  0
  9 10  1  0  0  0  0
 10  5  1  0  0  0  0
 10  1  2  0  0  0  0
 13  7  1  0  0  0  0
 14 19  1  0  0  0  0
 14 25  1  0  0  0  0
 15 14  2  0  0  0  0
 16 17  2  0  0  0  0
 16 15  1  0  0  0  0
 17 18  1  0  0  0  0
 18  1  1  0  0  0  0
 18 19  2  0  0  0  0
 20 16  1  0  0  0  0
 21 20  1  0  0  0  0
 21 26  1  0  0  0  0
 22 28  1  0  0  0  0
 22 23  1  0  0  0  0
 22 21  1  0  0  0  0
 23 24  1  0  0  0  0
 23 31  1  0  0  0  0
 24 20  1  0  0  0  0
 24 33  1  0  0  0  0
 27 21  1  0  0  0  0
 29 22  1  0  0  0  0
 30 23  1  0  0  0  0
 32 24  1  0  0  0  0
 34 15  1  0  0  0  0
 34 36  1  0  0  0  0
 35 34  1  0  0  0  0
 37 46  1  0  0  0  0
 37 38  1  0  0  0  0
 38  8  1  0  0  0  0
 39 38  2  0  0  0  0
 39 40  1  0  0  0  0
 41 39  1  0  0  0  0
 42 41  1  0  0  0  0
 43 44  1  0  0  0  0
 43 41  2  0  0  0  0
 44 37  2  0  0  0  0
 46 45  3  0  0  0  0
 47 49  1  0  0  0  0
 47  9  1  0  0  0  0
 48 47  1  0  0  0  0
M  END
>  <minimizedAffinity>
-6.30232716

$$$$

 OpenBabel03252502103D

 49 53  0  0  0  0  0  0  0  0999 V2000
   37.5040   30.7160   38.9180 C   0  0  0  0  0  0  0  0  0  0  0  0
   37.6480   32.0460   38.9030 N   0  0  0  0  0  0  0  0  0  0  0  0
   38.1300   32.7780   39.9060 C   0  0  0  0  0  0  0  0  0  0  0  0
   38.5220   32.1750   41.0550 N   0  0  0  0  0  0  0  0  0  0  0  0
   38.4300   30.8480   41.1960 C   0  0  0  0  0  0  0  0  0  0  0  0
   38.8240   30.2270   42.3600 C   0  0  0  0  0  0  0  0  0  0  0  0
   38.7360   28.8770   42.5190 C   0  0  0  0  0  0  0  0  0  0  0  0
   38.2300   28.1480   41.4600 C   0  0  0  0  0  0  0  0  0  0  0  0
   37.8460   28.8160   40.3060 C   0  0  0  0  0  0  0  0  0  0  0  0
   37.9210   30.1490   40.1160 C   0  0  0  0  0  0  0  0  0  0  0  0
   38.1980   33.8520   39.7720 H   0  0  0  0  0  0  0  0  0  0  0  0
   39.2160   30.8230   43.1730 H   0  0  0  0  0  0  0  0  0  0  0  0
   39.0580   28.4440   43.4530 H   0  0  0  0  0  0  0  0  0  0  0  0
   37.7140   28.7740   35.8770 C   0  0  0  0  0  0  0  0  0  0  0  0
   36.3990   28.4590   35.5230 C   0  0  0  0  0  0  0  0  0  0  0  0
   35.4090   28.9120   36.3570 C   0  0  0  0  0  0  0  0  0  0  0  0
   35.7290   29.6190   37.4370 N   0  0  0  0  0  0  0  0  0  0  0  0
   36.9590   29.9290   37.7880 C   0  0  0  0  0  0  0  0  0  0  0  0
   37.9520   29.4910   36.9820 N   0  0  0  0  0  0  0  0  0  0  0  0
   34.0960   28.6190   36.0720 N   0  0  0  0  0  0  0  0  0  0  0  0
   32.9640   28.9110   36.9960 C   0  0  0  0  0  0  0  0  0  0  0  0
   31.7100   28.7020   36.1930 C   0  0  0  0  0  0  0  0  0  0  0  0
   32.1350   27.6940   35.1740 C   0  0  0  0  0  0  0  0  0  0  0  0
   33.5660   28.0020   34.8980 C   0  0  0  0  0  0  0  0  0  0  0  0
   38.5360   28.4310   35.2400 H   0  0  0  0  0  0  0  0  0  0  0  0
   33.0330   28.3110   37.9050 H   0  0  0  0  0  0  0  0  0  0  0  0
   33.0500   30.0120   37.1910 H   0  0  0  0  0  0  0  0  0  0  0  0
   30.8710   28.3350   36.8050 H   0  0  0  0  0  0  0  0  0  0  0  0
   31.3710   29.6140   35.6800 H   0  0  0  0  0  0  0  0  0  0  0  0
   31.4870   27.7420   34.2710 H   0  0  0  0  0  0  0  0  0  0  0  0
   31.9730   26.6940   35.6240 H   0  0  0  0  0  0  0  0  0  0  0  0
   33.6040   28.6810   34.0450 H   0  0  0  0  0  0  0  0  0  0  0  0
   33.9940   26.9760   34.6870 H   0  0  0  0  0  0  0  0  0  0  0  0
   36.1990   27.7480   34.3650 N   0  0  0  0  0  0  0  0  0  0  0  0
   35.8680   28.1470   33.4510 H   0  0  0  0  0  0  0  0  0  0  0  0
   36.3170   26.7310   34.1320 H   0  0  0  0  0  0  0  0  0  0  0  0
   39.2440   25.9550   41.3420 C   0  0  0  0  0  0  0  0  0  0  0  0
   38.1500   26.7050   41.6660 C   0  0  0  0  0  0  0  0  0  0  0  0
   36.9960   26.1380   42.1730 C   0  0  0  0  0  0  0  0  0  0  0  0
   36.1550   26.7710   42.4150 H   0  0  0  0  0  0  0  0  0  0  0  0
   36.9360   24.7680   42.3630 C   0  0  0  0  0  0  0  0  0  0  0  0
   36.0550   24.2780   42.7580 H   0  0  0  0  0  0  0  0  0  0  0  0
   38.0600   24.0360   42.0270 C   0  0  0  0  0  3  0  0  0  0  0  0
   39.2000   24.5940   41.5250 C   0  0  0  0  0  3  0  0  0  0  0  0
   41.3790   27.0050   40.3910 N   0  0  0  0  0  0  0  0  0  0  0  0
   40.4310   26.5420   40.8200 C   0  0  0  0  0  0  0  0  0  0  0  0
   37.3590   27.8900   39.3270 N   0  0  0  0  0  0  0  0  0  0  0  0
   38.2490   27.5950   38.8320 H   0  0  0  0  0  0  0  0  0  0  0  0
   36.4440   27.5130   39.0610 H   0  0  0  0  0  0  0  0  0  0  0  0
  1 10  1  0  0  0  0
  2  1  2  0  0  0  0
  2  3  1  0  0  0  0
  3  4  2  0  0  0  0
  4  5  1  0  0  0  0
  5  6  1  0  0  0  0
  6  7  2  0  0  0  0
  6 12  1  0  0  0  0
  7 13  1  0  0  0  0
  8 38  1  0  0  0  0
  8  7  1  0  0  0  0
  9  8  2  0  0  0  0
 10  9  1  0  0  0  0
 10  5  2  0  0  0  0
 11  3  1  0  0  0  0
 14 19  1  0  0  0  0
 15 14  2  0  0  0  0
 15 16  1  0  0  0  0
 16 17  2  0  0  0  0
 17 18  1  0  0  0  0
 18  1  1  0  0  0  0
 19 18  2  0  0  0  0
 20 16  1  0  0  0  0
 20 21  1  0  0  0  0
 21 27  1  0  0  0  0
 21 26  1  0  0  0  0
 22 28  1  0  0  0  0
 22 21  1  0  0  0  0
 23 31  1  0  0  0  0
 23 22  1  0  0  0  0
 24 23  1  0  0  0  0
 24 20  1  0  0  0  0
 25 14  1  0  0  0  0
 29 22  1  0  0  0  0
 30 23  1  0  0  0  0
 32 24  1  0  0  0  0
 33 24  1  0  0  0  0
 34 15  1  0  0  0  0
 35 34  1  0  0  0  0
 36 34  1  0  0  0  0
 37 44  2  0  0  0  0
 37 38  1  0  0  0  0
 38 39  2  0  0  0  0
 39 41  1  0  0  0  0
 39 40  1  0  0  0  0
 41 42  1  0  0  0  0
 43 41  2  0  0  0  0
 44 43  1  0  0  0  0
 45 46  3  0  0  0  0
 46 37  1  0  0  0  0
 47  9  1  0  0  0  0
 48 47  1  0  0  0  0
 49 47  1  0  0  0  0
M  END
>  <minimizedAffinity>
-6.27638626

$$$$

 OpenBabel03252502103D

 49 53  0  0  0  0  0  0  0  0999 V2000
   37.2170   27.2190   40.1740 C   0  0  0  0  0  0  0  0  0  0  0  0
   36.9700   26.0640   40.8040 N   0  0  0  0  0  0  0  0  0  0  0  0
   37.2820   25.7980   42.0700 C   0  0  0  0  0  0  0  0  0  0  0  0
   37.8990   26.7380   42.8270 N   0  0  0  0  0  0  0  0  0  0  0  0
   38.2010   27.9370   42.3140 C   0  0  0  0  0  0  0  0  0  0  0  0
   38.8290   28.8970   43.0750 C   0  0  0  0  0  0  0  0  0  0  0  0
   39.1450   30.1220   42.5670 C   0  0  0  0  0  0  0  0  0  0  0  0
   38.8070   30.3650   41.2490 C   0  0  0  0  0  0  0  0  0  0  0  0
   38.1750   29.3680   40.5220 C   0  0  0  0  0  0  0  0  0  0  0  0
   37.8490   28.1460   40.9930 C   0  0  0  0  0  0  0  0  0  0  0  0
   37.0290   24.8210   42.4680 H   0  0  0  0  0  0  0  0  0  0  0  0
   39.0820   28.6790   44.1030 H   0  0  0  0  0  0  0  0  0  0  0  0
   39.6370   30.8360   43.2070 H   0  0  0  0  0  0  0  0  0  0  0  0
   37.8250   27.3430   36.6130 C   0  0  0  0  0  0  0  0  0  0  0  0
   36.6620   27.8640   36.0370 C   0  0  0  0  0  0  0  0  0  0  0  0
   35.6330   28.1710   36.8910 C   0  0  0  0  0  0  0  0  0  0  0  0
   35.7780   27.9710   38.1970 N   0  0  0  0  0  0  0  0  0  0  0  0
   36.8620   27.4840   38.7610 C   0  0  0  0  0  0  0  0  0  0  0  0
   37.8890   27.1710   37.9400 N   0  0  0  0  0  0  0  0  0  0  0  0
   34.4570   28.6710   36.3820 N   0  0  0  0  0  0  0  0  0  0  0  0
   33.2250   28.8730   37.1930 C   0  0  0  0  0  0  0  0  0  0  0  0
   32.2940   29.6860   36.3380 C   0  0  0  0  0  0  0  0  0  0  0  0
   32.7120   29.3160   34.9510 C   0  0  0  0  0  0  0  0  0  0  0  0
   34.1800   29.0770   35.0400 C   0  0  0  0  0  0  0  0  0  0  0  0
   38.6710   27.0820   35.9690 H   0  0  0  0  0  0  0  0  0  0  0  0
   32.8190   27.9190   37.5370 H   0  0  0  0  0  0  0  0  0  0  0  0
   33.5590   29.5340   38.0350 H   0  0  0  0  0  0  0  0  0  0  0  0
   31.2340   29.4500   36.5200 H   0  0  0  0  0  0  0  0  0  0  0  0
   32.4200   30.7700   36.4750 H   0  0  0  0  0  0  0  0  0  0  0  0
   32.4350   30.1110   34.2240 H   0  0  0  0  0  0  0  0  0  0  0  0
   32.1300   28.4160   34.6690 H   0  0  0  0  0  0  0  0  0  0  0  0
   34.6870   30.0110   34.7990 H   0  0  0  0  0  0  0  0  0  0  0  0
   34.3350   28.2590   34.2730 H   0  0  0  0  0  0  0  0  0  0  0  0
   36.6500   28.0520   34.6770 N   0  0  0  0  0  0  0  0  0  0  0  0
   36.7630   28.9730   34.1850 H   0  0  0  0  0  0  0  0  0  0  0  0
   36.5360   27.3850   33.8730 H   0  0  0  0  0  0  0  0  0  0  0  0
   40.4260   31.8660   40.2610 C   0  0  0  0  0  0  0  0  0  0  0  0
   39.1600   31.6870   40.7400 C   0  0  0  0  0  0  0  0  0  0  0  0
   38.2290   32.7090   40.7520 C   0  0  0  0  0  0  0  0  0  0  0  0
   37.2400   32.5210   41.1410 H   0  0  0  0  0  0  0  0  0  0  0  0
   38.5810   33.9560   40.2650 C   0  0  0  0  0  0  0  0  0  0  0  0
   37.8860   34.7870   40.2530 H   0  0  0  0  0  0  0  0  0  0  0  0
   39.8690   34.1050   39.7860 C   0  0  0  0  0  3  0  0  0  0  0  0
   40.7900   33.0970   39.7730 C   0  0  0  0  0  3  0  0  0  0  0  0
   42.1510   29.9710   40.2280 N   0  0  0  0  0  0  0  0  0  0  0  0
   41.3830   30.8100   40.2500 C   0  0  0  0  0  0  0  0  0  0  0  0
   37.9020   29.8130   39.1870 N   0  0  0  0  0  0  0  0  0  0  0  0
   36.9650   30.2960   39.2960 H   0  0  0  0  0  0  0  0  0  0  0  0
   38.3800   29.7630   38.2820 H   0  0  0  0  0  0  0  0  0  0  0  0
  1  2  2  0  0  0  0
  1 10  1  0  0  0  0
  2  3  1  0  0  0  0
  3 11  1  0  0  0  0
  3  4  2  0  0  0  0
  5  4  1  0  0  0  0
  5  6  1  0  0  0  0
  6 12  1  0  0  0  0
  7  6  2  0  0  0  0
  7 13  1  0  0  0  0
  8  7  1  0  0  0  0
  9 10  1  0  0  0  0
  9  8  2  0  0  0  0
 10  5  2  0  0  0  0
 14 19  1  0  0  0  0
 15 14  2  0  0  0  0
 15 16  1  0  0  0  0
 16 17  2  0  0  0  0
 17 18  1  0  0  0  0
 18  1  1  0  0  0  0
 19 18  2  0  0  0  0
 20 16  1  0  0  0  0
 20 21  1  0  0  0  0
 21 26  1  0  0  0  0
 21 27  1  0  0  0  0
 22 29  1  0  0  0  0
 22 28  1  0  0  0  0
 22 21  1  0  0  0  0
 23 24  1  0  0  0  0
 23 22  1  0  0  0  0
 24 20  1  0  0  0  0
 25 14  1  0  0  0  0
 30 23  1  0  0  0  0
 31 23  1  0  0  0  0
 32 24  1  0  0  0  0
 33 24  1  0  0  0  0
 34 15  1  0  0  0  0
 35 34  1  0  0  0  0
 36 34  1  0  0  0  0
 37 38  1  0  0  0  0
 38 39  2  0  0  0  0
 38  8  1  0  0  0  0
 39 40  1  0  0  0  0
 41 39  1  0  0  0  0
 42 41  1  0  0  0  0
 43 41  2  0  0  0  0
 44 43  1  0  0  0  0
 44 37  2  0  0  0  0
 45 46  3  0  0  0  0
 46 37  1  0  0  0  0
 47 48  1  0  0  0  0
 47  9  1  0  0  0  0
 49 47  1  0  0  0  0
M  END
>  <minimizedAffinity>
-6.23017931

$$$$

 OpenBabel03252502103D

 49 53  0  0  0  0  0  0  0  0999 V2000
   37.5270   28.3010   36.2970 C   0  0  0  0  0  0  0  0  0  0  0  0
   36.9430   28.5190   35.1130 N   0  0  0  0  0  0  0  0  0  0  0  0
   35.6760   28.8850   34.9380 C   0  0  0  0  0  0  0  0  0  0  0  0
   34.8690   29.0670   36.0120 N   0  0  0  0  0  0  0  0  0  0  0  0
   35.3330   28.8820   37.2530 C   0  0  0  0  0  0  0  0  0  0  0  0
   34.5210   29.0620   38.3500 C   0  0  0  0  0  0  0  0  0  0  0  0
   34.9780   28.8760   39.6200 C   0  0  0  0  0  0  0  0  0  0  0  0
   36.2990   28.4960   39.7660 C   0  0  0  0  0  0  0  0  0  0  0  0
   37.0800   28.3260   38.6330 C   0  0  0  0  0  0  0  0  0  0  0  0
   36.6590   28.5020   37.3630 C   0  0  0  0  0  0  0  0  0  0  0  0
   35.3180   29.0320   33.9240 H   0  0  0  0  0  0  0  0  0  0  0  0
   33.4920   29.3590   38.2050 H   0  0  0  0  0  0  0  0  0  0  0  0
   34.2980   29.0310   40.4420 H   0  0  0  0  0  0  0  0  0  0  0  0
   40.2380   25.9220   36.5310 C   0  0  0  0  0  0  0  0  0  0  0  0
   41.3960   26.6710   36.7610 C   0  0  0  0  0  0  0  0  0  0  0  0
   41.2480   28.0340   36.8260 C   0  0  0  0  0  0  0  0  0  0  0  0
   40.0430   28.5740   36.6760 N   0  0  0  0  0  0  0  0  0  0  0  0
   38.9400   27.8890   36.4610 C   0  0  0  0  0  0  0  0  0  0  0  0
   39.0610   26.5440   36.3900 N   0  0  0  0  0  0  0  0  0  0  0  0
   42.3540   28.8260   37.0330 N   0  0  0  0  0  0  0  0  0  0  0  0
   42.3330   30.3120   36.9470 C   0  0  0  0  0  0  0  0  0  0  0  0
   43.6460   30.7780   37.5130 C   0  0  0  0  0  0  0  0  0  0  0  0
   44.5520   29.6210   37.2400 C   0  0  0  0  0  0  0  0  0  0  0  0
   43.6840   28.4150   37.3520 C   0  0  0  0  0  0  0  0  0  0  0  0
   40.3100   24.8310   36.4710 H   0  0  0  0  0  0  0  0  0  0  0  0
   42.1280   30.6450   35.9280 H   0  0  0  0  0  0  0  0  0  0  0  0
   41.5350   30.6150   37.6750 H   0  0  0  0  0  0  0  0  0  0  0  0
   44.0100   31.7020   37.0370 H   0  0  0  0  0  0  0  0  0  0  0  0
   43.6070   30.9580   38.5980 H   0  0  0  0  0  0  0  0  0  0  0  0
   45.4140   29.6150   37.9420 H   0  0  0  0  0  0  0  0  0  0  0  0
   44.9730   29.7750   36.2270 H   0  0  0  0  0  0  0  0  0  0  0  0
   43.7490   28.0500   38.3770 H   0  0  0  0  0  0  0  0  0  0  0  0
   44.1440   27.7190   36.5870 H   0  0  0  0  0  0  0  0  0  0  0  0
   42.5770   25.9910   36.9300 N   0  0  0  0  0  0  0  0  0  0  0  0
   43.0550   25.8130   37.8480 H   0  0  0  0  0  0  0  0  0  0  0  0
   43.2270   25.5260   36.2490 H   0  0  0  0  0  0  0  0  0  0  0  0
   37.2520   29.3920   41.8010 C   0  0  0  0  0  0  0  0  0  0  0  0
   36.7530   28.3060   41.1410 C   0  0  0  0  0  0  0  0  0  0  0  0
   36.6740   27.0600   41.7340 C   0  0  0  0  0  0  0  0  0  0  0  0
   36.2720   26.2290   41.1730 H   0  0  0  0  0  0  0  0  0  0  0  0
   37.1090   26.8970   43.0380 C   0  0  0  0  0  0  0  0  0  0  0  0
   37.0660   25.9410   43.5450 H   0  0  0  0  0  0  0  0  0  0  0  0
   37.6080   28.0150   43.6800 C   0  0  0  0  0  3  0  0  0  0  0  0
   37.6880   29.2460   43.0950 C   0  0  0  0  0  3  0  0  0  0  0  0
   37.4030   31.7040   40.7070 N   0  0  0  0  0  0  0  0  0  0  0  0
   37.3330   30.6740   41.1870 C   0  0  0  0  0  0  0  0  0  0  0  0
   38.4130   27.9410   38.9920 N   0  0  0  0  0  0  0  0  0  0  0  0
   38.8840   28.8770   39.1480 H   0  0  0  0  0  0  0  0  0  0  0  0
   38.9170   27.0570   39.1120 H   0  0  0  0  0  0  0  0  0  0  0  0
  1 18  1  0  0  0  0
  1 10  1  0  0  0  0
  2  1  2  0  0  0  0
  3  2  1  0  0  0  0
  3  4  2  0  0  0  0
  4  5  1  0  0  0  0
  5 10  2  0  0  0  0
  5  6  1  0  0  0  0
  6  7  2  0  0  0  0
  7  8  1  0  0  0  0
  7 13  1  0  0  0  0
  8 38  1  0  0  0  0
  9 47  1  0  0  0  0
  9  8  2  0  0  0  0
 10  9  1  0  0  0  0
 11  3  1  0  0  0  0
 12  6  1  0  0  0  0
 14 15  1  0  0  0  0
 15 16  2  0  0  0  0
 15 34  1  0  0  0  0
 16 20  1  0  0  0  0
 17 16  1  0  0  0  0
 18 17  2  0  0  0  0
 19 18  1  0  0  0  0
 19 14  2  0  0  0  0
 20 24  1  0  0  0  0
 21 20  1  0  0  0  0
 21 22  1  0  0  0  0
 21 27  1  0  0  0  0
 22 29  1  0  0  0  0
 23 24  1  0  0  0  0
 23 22  1  0  0  0  0
 23 30  1  0  0  0  0
 24 32  1  0  0  0  0
 25 14  1  0  0  0  0
 26 21  1  0  0  0  0
 28 22  1  0  0  0  0
 31 23  1  0  0  0  0
 33 24  1  0  0  0  0
 34 35  1  0  0  0  0
 36 34  1  0  0  0  0
 37 44  1  0  0  0  0
 38 39  1  0  0  0  0
 38 37  2  0  0  0  0
 39 41  2  0  0  0  0
 40 39  1  0  0  0  0
 41 42  1  0  0  0  0
 41 43  1  0  0  0  0
 44 43  2  0  0  0  0
 45 46  3  0  0  0  0
 46 37  1  0  0  0  0
 47 49  1  0  0  0  0
 47 48  1  0  0  0  0
M  END
>  <minimizedAffinity>
-6.20962429

$$$$

 OpenBabel03252502103D

 49 53  0  0  0  0  0  0  0  0999 V2000
   36.7510   29.0330   40.0780 C   0  0  0  0  0  0  0  0  0  0  0  0
   36.9700   30.0910   40.8680 N   0  0  0  0  0  0  0  0  0  0  0  0
   37.3250   30.0320   42.1490 C   0  0  0  0  0  0  0  0  0  0  0  0
   37.4940   28.8280   42.7490 N   0  0  0  0  0  0  0  0  0  0  0  0
   37.3060   27.6920   42.0670 C   0  0  0  0  0  0  0  0  0  0  0  0
   37.4720   26.4650   42.6690 C   0  0  0  0  0  0  0  0  0  0  0  0
   37.2830   25.3000   41.9880 C   0  0  0  0  0  0  0  0  0  0  0  0
   36.9140   25.3980   40.6600 C   0  0  0  0  0  0  0  0  0  0  0  0
   36.7580   26.6550   40.0960 C   0  0  0  0  0  0  0  0  0  0  0  0
   36.9370   27.8270   40.7410 C   0  0  0  0  0  0  0  0  0  0  0  0
   37.4740   30.9620   42.6850 H   0  0  0  0  0  0  0  0  0  0  0  0
   37.7610   26.4200   43.7100 H   0  0  0  0  0  0  0  0  0  0  0  0
   37.4270   24.3680   42.5100 H   0  0  0  0  0  0  0  0  0  0  0  0
   37.3360   29.3520   36.5250 C   0  0  0  0  0  0  0  0  0  0  0  0
   36.0750   29.3840   35.9230 C   0  0  0  0  0  0  0  0  0  0  0  0
   34.9890   29.2790   36.7560 C   0  0  0  0  0  0  0  0  0  0  0  0
   35.1730   29.1600   38.0670 N   0  0  0  0  0  0  0  0  0  0  0  0
   36.3500   29.1310   38.6550 C   0  0  0  0  0  0  0  0  0  0  0  0
   37.4350   29.2290   37.8550 N   0  0  0  0  0  0  0  0  0  0  0  0
   33.7220   29.2870   36.2210 N   0  0  0  0  0  0  0  0  0  0  0  0
   32.4900   29.0070   37.0100 C   0  0  0  0  0  0  0  0  0  0  0  0
   31.3360   29.3950   36.1280 C   0  0  0  0  0  0  0  0  0  0  0  0
   31.8920   29.2020   34.7540 C   0  0  0  0  0  0  0  0  0  0  0  0
   33.3370   29.5450   34.8700 C   0  0  0  0  0  0  0  0  0  0  0  0
   38.2300   29.4310   35.8990 H   0  0  0  0  0  0  0  0  0  0  0  0
   32.4740   27.9730   37.3610 H   0  0  0  0  0  0  0  0  0  0  0  0
   32.5290   29.7520   37.8470 H   0  0  0  0  0  0  0  0  0  0  0  0
   30.4440   28.7710   36.2970 H   0  0  0  0  0  0  0  0  0  0  0  0
   31.0340   30.4450   36.2510 H   0  0  0  0  0  0  0  0  0  0  0  0
   31.3460   29.8240   34.0110 H   0  0  0  0  0  0  0  0  0  0  0  0
   31.7050   28.1460   34.4760 H   0  0  0  0  0  0  0  0  0  0  0  0
   33.4530   30.6000   34.6220 H   0  0  0  0  0  0  0  0  0  0  0  0
   33.8100   28.8430   34.1170 H   0  0  0  0  0  0  0  0  0  0  0  0
   36.0190   29.5420   34.5600 N   0  0  0  0  0  0  0  0  0  0  0  0
   35.7800   30.4320   34.0560 H   0  0  0  0  0  0  0  0  0  0  0  0
   36.1850   28.8760   33.7650 H   0  0  0  0  0  0  0  0  0  0  0  0
   37.8230   23.5160   39.4420 C   0  0  0  0  0  0  0  0  0  0  0  0
   36.7200   24.1300   39.9630 C   0  0  0  0  0  0  0  0  0  0  0  0
   35.4540   23.5870   39.8460 C   0  0  0  0  0  0  0  0  0  0  0  0
   34.6110   24.1080   40.2740 H   0  0  0  0  0  0  0  0  0  0  0  0
   35.2880   22.3830   39.1810 C   0  0  0  0  0  0  0  0  0  0  0  0
   34.3170   21.9180   39.0640 H   0  0  0  0  0  0  0  0  0  0  0  0
   36.4230   21.7870   38.6660 C   0  0  0  0  0  3  0  0  0  0  0  0
   37.6740   22.3210   38.7810 C   0  0  0  0  0  3  0  0  0  0  0  0
   40.1710   24.5190   39.6540 N   0  0  0  0  0  0  0  0  0  0  0  0
   39.1260   24.0780   39.5650 C   0  0  0  0  0  0  0  0  0  0  0  0
   36.3830   26.5460   38.7170 N   0  0  0  0  0  0  0  0  0  0  0  0
   37.3220   26.4700   38.2320 H   0  0  0  0  0  0  0  0  0  0  0  0
   35.5030   26.5240   38.1930 H   0  0  0  0  0  0  0  0  0  0  0  0
  1 10  2  0  0  0  0
  1  2  1  0  0  0  0
  2  3  2  0  0  0  0
  3 11  1  0  0  0  0
  3  4  1  0  0  0  0
  5  6  1  0  0  0  0
  5  4  2  0  0  0  0
  6 12  1  0  0  0  0
  7 13  1  0  0  0  0
  7  6  2  0  0  0  0
  8  7  1  0  0  0  0
  9  8  2  0  0  0  0
  9 10  1  0  0  0  0
 10  5  1  0  0  0  0
 14 19  1  0  0  0  0
 15 14  2  0  0  0  0
 15 16  1  0  0  0  0
 16 17  2  0  0  0  0
 17 18  1  0  0  0  0
 18  1  1  0  0  0  0
 19 18  2  0  0  0  0
 20 16  1  0  0  0  0
 20 21  1  0  0  0  0
 21 26  1  0  0  0  0
 21 27  1  0  0  0  0
 22 29  1  0  0  0  0
 22 28  1  0  0  0  0
 22 21  1  0  0  0  0
 23 24  1  0  0  0  0
 23 22  1  0  0  0  0
 24 20  1  0  0  0  0
 25 14  1  0  0  0  0
 30 23  1  0  0  0  0
 31 23  1  0  0  0  0
 32 24  1  0  0  0  0
 33 24  1  0  0  0  0
 34 15  1  0  0  0  0
 35 34  1  0  0  0  0
 36 34  1  0  0  0  0
 37 46  1  0  0  0  0
 37 38  1  0  0  0  0
 38  8  1  0  0  0  0
 39 38  2  0  0  0  0
 39 40  1  0  0  0  0
 41 39  1  0  0  0  0
 42 41  1  0  0  0  0
 43 44  1  0  0  0  0
 43 41  2  0  0  0  0
 44 37  2  0  0  0  0
 46 45  3  0  0  0  0
 47  9  1  0  0  0  0
 48 47  1  0  0  0  0
 49 47  1  0  0  0  0
M  END
>  <minimizedAffinity>
-5.98244953

$$$$
