
     RDKit          3D

 49 52  0  0  0  0  0  0  0  0999 V2000
   46.0383   32.1850   45.4489 C   0  0  0  0  0  0  0  0  0  0  0  0
   45.7818   31.8333   46.7988 N   0  0  0  0  0  0  0  0  0  0  0  0
   46.3679   32.6007   47.8096 C   0  0  0  0  0  0  0  0  0  0  0  0
   47.7428   32.0403   48.2237 C   0  0  0  0  0  0  0  0  0  0  0  0
   47.4803   30.7139   48.8877 C   0  0  0  0  0  0  0  0  0  0  0  0
   46.8137   29.8437   47.8596 C   0  0  0  0  0  0  0  0  0  0  0  0
   45.6547   30.4813   47.1437 C   0  0  2  0  0  0  0  0  0  0  0  0
   45.3516   29.6122   45.9319 C   0  0  0  0  0  0  0  0  0  0  0  0
   46.0583   34.4061   44.0580 C   0  0  1  0  0  0  0  0  0  0  0  0
   45.1327   34.5590   45.0936 C   0  0  0  0  0  0  0  0  0  0  0  0
   46.2500   33.6524   45.4060 C   0  0  1  0  0  0  0  0  0  0  0  0
   44.5696   33.2401   42.4251 C   0  0  0  0  0  0  0  0  0  0  0  0
   45.9044   33.5549   42.8383 C   0  0  0  0  0  0  0  0  0  0  0  0
   46.9638   33.0810   42.1323 C   0  0  0  0  0  0  0  0  0  0  0  0
   46.6759   32.3054   41.0313 N   0  0  0  0  0  0  0  0  0  0  0  0
   45.4135   32.0162   40.6518 C   0  0  0  0  0  0  0  0  0  0  0  0
   44.3146   32.4765   41.3399 N   0  0  0  0  0  0  0  0  0  0  0  0
   46.9625   31.6883   45.1162 H   0  0  0  0  0  0  0  0  0  0  0  0
   45.2193   31.8766   44.7679 H   0  0  0  0  0  0  0  0  0  0  0  0
   45.7477   32.4007   48.7382 H   0  0  0  0  0  0  0  0  0  0  0  0
   46.3519   33.6873   47.7443 H   0  0  0  0  0  0  0  0  0  0  0  0
   48.3790   31.8931   47.3454 H   0  0  0  0  0  0  0  0  0  0  0  0
   48.1595   32.7589   48.9491 H   0  0  0  0  0  0  0  0  0  0  0  0
   48.4730   30.2538   49.0996 H   0  0  0  0  0  0  0  0  0  0  0  0
   46.9102   30.8174   49.8183 H   0  0  0  0  0  0  0  0  0  0  0  0
   47.5335   29.4756   47.1306 H   0  0  0  0  0  0  0  0  0  0  0  0
   46.4201   28.9389   48.3994 H   0  0  0  0  0  0  0  0  0  0  0  0
   44.7644   30.3656   47.8218 H   0  0  0  0  0  0  0  0  0  0  0  0
   46.2420   29.5486   45.2624 H   0  0  0  0  0  0  0  0  0  0  0  0
   45.0341   28.6054   46.2807 H   0  0  0  0  0  0  0  0  0  0  0  0
   44.4630   30.0270   45.4074 H   0  0  0  0  0  0  0  0  0  0  0  0
   46.8345   35.1972   43.8535 H   0  0  0  0  0  0  0  0  0  0  0  0
   45.0526   35.5376   45.6322 H   0  0  0  0  0  0  0  0  0  0  0  0
   44.1165   34.0767   45.0210 H   0  0  0  0  0  0  0  0  0  0  0  0
   47.1769   33.9789   45.9014 H   0  0  0  0  0  0  0  0  0  0  0  0
   43.7404   33.6112   42.9789 H   0  0  0  0  0  0  0  0  0  0  0  0
   47.9659   33.3069   42.4283 H   0  0  0  0  0  0  0  0  0  0  0  0
   41.9596   32.4481   39.8289 N   0  0  0  0  0  0  0  0  0  0  0  0
   42.8611   31.8630   39.3995 C   0  0  0  0  0  0  0  0  0  0  0  0
   43.9637   31.1195   38.8720 C   0  0  0  0  0  0  0  0  0  0  0  0
   45.2040   31.1867   39.4711 C   0  0  0  0  0  0  0  0  0  0  0  0
   46.2826   30.4797   38.9821 C   0  0  0  0  0  0  0  0  0  0  0  0
   47.2682   30.4858   39.3957 H   0  0  0  0  0  0  0  0  0  0  0  0
   46.1131   29.6828   37.8607 C   0  0  0  0  0  0  0  0  0  0  0  0
   46.8995   29.0817   37.3913 H   0  0  0  0  0  0  0  0  0  0  0  0
   44.8770   29.5785   37.2145 C   0  0  0  0  0  0  0  0  0  0  0  0
   43.8245   30.3074   37.7433 C   0  0  0  0  0  0  0  0  0  0  0  0
   44.6802   28.9839   36.3490 H   0  0  0  0  0  0  0  0  0  0  0  0
   42.8465   30.2632   37.2826 H   0  0  0  0  0  0  0  0  0  0  0  0
  1  2  1  0
  2  7  1  0
  2  3  1  0
  3  4  1  0
  4  5  1  0
  6  5  1  0
  7  6  1  0
  8  7  1  0
  9 10  1  0
  9 11  1  0
 10 11  1  0
 11  1  1  0
 12 13  2  0
 13  9  1  0
 14 13  1  0
 15 14  2  0
 16 15  1  0
 16 17  2  0
 17 12  1  0
  1 18  1  0
  1 19  1  0
  3 20  1  0
  3 21  1  0
  4 22  1  0
  4 23  1  0
  5 24  1  0
  5 25  1  0
  6 26  1  0
  6 27  1  0
  7 28  1  1
  8 29  1  0
  8 30  1  0
  8 31  1  0
  9 32  1  6
 10 33  1  0
 10 34  1  0
 11 35  1  1
 12 36  1  0
 14 37  1  0
 38 39  3  0
 39 40  1  0
 40 41  2  0
 41 42  1  0
 42 43  1  0
 42 44  2  0
 44 45  1  0
 44 46  1  0
 46 47  2  0
 47 40  1  0
 46 48  1  0
 47 49  1  0
 16 41  1  0
M  ISO  8  18   8  19   8  20  13  21  13  22  13  23  13  24  13  25  13
M  ISO  8  26  13  27  13  28  13  29   8  30   8  31   8  32  13  33  13
M  ISO  6  34  13  35  13  36  14  37  14  43  15  45  16
M  END
>  <DihAtoms>  (1) 
14,15,40,39

>  <DihDeg>  (1) 
-179.99599387925807

$$$$
