
 OpenBabel03242516383D

 21 22  0  0  0  0  0  0  0  0999 V2000
   44.9030   35.0410   43.5590 C   0  0  0  0  0  0  0  0  0  0  0  0
   45.2850   34.9180   42.2130 C   0  0  0  0  0  0  0  0  0  0  0  0
   46.3920   34.1300   41.8660 C   0  0  0  0  0  0  0  0  0  0  0  0
   47.0310   33.5240   42.8950 N   0  0  0  0  0  0  0  0  0  0  0  0
   46.6580   33.6490   44.1710 C   0  0  0  0  0  0  0  0  0  0  0  0
   45.5930   34.4080   44.5000 N   0  0  0  0  0  0  0  0  0  0  0  0
   43.7820   35.8470   43.8620 N   0  0  0  0  0  0  0  0  0  0  0  0
   44.7210   35.4320   41.4790 H   0  0  0  0  0  0  0  0  0  0  0  0
   47.1750   33.1630   44.9660 H   0  0  0  0  0  0  0  0  0  0  0  0
   44.0440   36.8250   43.6290 H   0  0  0  0  0  0  0  0  0  0  0  0
   42.8250   35.6280   44.2430 H   0  0  0  0  0  0  0  0  0  0  0  0
   47.9630   34.6400   40.1010 C   0  0  0  0  0  0  0  0  0  0  0  0
   46.8130   33.9820   40.4840 C   0  0  0  0  0  0  0  0  0  0  0  0
   46.1660   33.2470   39.5310 C   0  0  0  0  0  0  0  0  0  0  0  0
   45.2780   32.7310   39.7990 H   0  0  0  0  0  0  0  0  0  0  0  0
   46.6070   33.1370   38.2230 C   0  0  0  0  0  0  0  0  0  0  0  0
   46.0480   32.5380   37.5160 H   0  0  0  0  0  0  0  0  0  0  0  0
   47.7640   33.8100   37.8760 C   0  0  0  0  0  0  0  0  0  0  0  0
   48.4460   34.5620   38.8070 C   0  0  0  0  0  0  0  0  0  0  0  0
   49.3270   36.0720   41.8080 N   0  0  0  0  0  0  0  0  0  0  0  0
   48.7060   35.4350   41.0400 C   0  0  0  0  0  0  0  0  0  0  0  0
  1  7  1  0  0  0  0
  1  6  1  0  0  0  0
  2  1  2  0  0  0  0
  3  2  1  0  0  0  0
  3  4  2  0  0  0  0
  4  5  1  0  0  0  0
  5  6  2  0  0  0  0
  5  9  1  0  0  0  0
  7 11  1  0  0  0  0
  8  2  1  0  0  0  0
 10  7  1  0  0  0  0
 12 13  1  0  0  0  0
 12 21  1  0  0  0  0
 13  3  1  0  0  0  0
 14 15  1  0  0  0  0
 14 13  2  0  0  0  0
 16 14  1  0  0  0  0
 17 16  1  0  0  0  0
 18 16  2  0  0  0  0
 18 19  1  0  0  0  0
 19 12  2  0  0  0  0
 21 20  3  0  0  0  0
M  END
>  <minimizedAffinity>
-4.90315914

>  <minimizedRMSD>
2.82835507

$$$$
