REMARK  Name = 
REMARK  6 active torsions:
REMARK  status: ('A' for Active; 'I' for Inactive)
REMARK    1  A    between atoms: C_1  and  C_2
REMARK    2  A    between atoms: C_1  and  C_9
REMARK    3  A    between atoms: C_3  and  S_8
REMARK    4  A    between atoms: C_9  and  C_10
REMARK    5  A    between atoms: C_13  and  C_26
REMARK    6  A    between atoms: C_24  and  C_25
REMARK                            x       y       z     vdW  Elec       q    Type
REMARK                         _______ _______ _______ _____ _____    ______ ____
ROOT
ATOM      1  C   UNL     1      45.600  34.542  41.680  0.00  0.00    +0.000 C 
ATOM      2  H   UNL     1      45.841  35.444  42.310  0.00  0.00    +0.000 HD
ATOM      3  H   UNL     1      45.552  33.697  42.406  0.00  0.00    +0.000 HD
ENDROOT
BRANCH   1   4
ATOM      4  C   UNL     1      44.243  34.653  41.079  0.00  0.00    +0.000 A 
ATOM      5  C   UNL     1      43.220  35.418  41.718  0.00  0.00    +0.000 A 
ATOM      6  S   UNL     1      41.796  35.205  40.559  0.00  0.00    +0.000 S 
ATOM      7  C   UNL     1      42.838  34.128  39.430  0.00  0.00    +0.000 A 
ATOM      8  N   UNL     1      43.843  34.100  39.962  0.00  0.00    +0.000 NA
ATOM      9  H   UNL     1      43.340  35.962  42.661  0.00  0.00    +0.000 HD
BRANCH   7  11
ATOM     10  C   UNL     1      43.090  33.010  37.195  0.00  0.00    +0.000 A 
ATOM     11  C   UNL     1      42.301  33.543  38.184  0.00  0.00    +0.000 A 
ATOM     12  C   UNL     1      40.935  33.567  38.073  0.00  0.00    +0.000 A 
ATOM     13  H   UNL     1      40.317  33.985  38.849  0.00  0.00    +0.000 HD
ATOM     14  C   UNL     1      40.372  33.044  36.950  0.00  0.00    +0.000 A 
ATOM     15  H   UNL     1      39.296  33.056  36.849  0.00  0.00    +0.000 HD
ATOM     16  C   UNL     1      41.174  32.510  35.961  0.00  0.00    +0.000 A 
ATOM     17  C   UNL     1      42.553  32.471  36.043  0.00  0.00    +0.000 A 
BRANCH  10  19
ATOM     18  N   UNL     1      45.665  32.977  37.426  0.00  0.00    +0.000 NA
ATOM     19  C   UNL     1      44.512  32.997  37.333  0.00  0.00    +0.000 C 
ENDBRANCH  10  19
ENDBRANCH   7  11
ENDBRANCH   1   4
BRANCH   1  20
ATOM     20  C   UNL     1      46.695  34.248  40.700  0.00  0.00    +0.000 C 
ATOM     21  H   UNL     1      46.681  35.093  39.953  0.00  0.00    +0.000 HD
ATOM     22  H   UNL     1      46.442  33.356  40.142  0.00  0.00    +0.000 HD
BRANCH  20  23
ATOM     23  C   UNL     1      48.040  34.194  41.302  0.00  0.00    +0.000 A 
ATOM     24  C   UNL     1      48.736  32.972  41.173  0.00  0.00    +0.000 A 
ATOM     25  C   UNL     1      50.002  32.867  41.719  0.00  0.00    +0.000 A 
ATOM     26  N   UNL     1      50.526  33.963  42.367  0.00  0.00    +0.000 NA
ATOM     27  C   UNL     1      49.829  35.101  42.465  0.00  0.00    +0.000 A 
ATOM     28  N   UNL     1      48.608  35.210  41.940  0.00  0.00    +0.000 NA
ATOM     29  H   UNL     1      50.567  31.943  41.639  0.00  0.00    +0.000 HD
ATOM     30  H   UNL     1      50.310  35.925  42.991  0.00  0.00    +0.000 HD
BRANCH  24  31
ATOM     31  S   UNL     1      48.004  31.587  40.323  0.00  0.00    +0.000 S 
ATOM     32  H   UNL     1      48.944  30.792  39.681  0.00  0.00    +0.000 HD
ENDBRANCH  24  31
ENDBRANCH  20  23
ENDBRANCH   1  20
TORSDOF 6
