
 OpenBabel03252505033D

 35 37  0  0  1  0  0  0  0  0999 V2000
   44.6280   35.5390   44.6130 C   0  0  0  0  0  0  0  0  0  0  0  0
   45.3040   35.5210   43.3670 C   0  0  0  0  0  0  0  0  0  0  0  0
   46.3730   34.6020   43.2110 C   0  0  0  0  0  0  0  0  0  0  0  0
   46.6960   33.7920   44.2490 N   0  0  0  0  0  0  0  0  0  0  0  0
   46.0180   33.8470   45.4190 C   0  0  0  0  0  0  0  0  0  0  0  0
   44.9890   34.7130   45.6090 N   0  0  0  0  0  0  0  0  0  0  0  0
   43.8020   36.2000   44.8330 H   0  0  0  0  0  0  0  0  0  0  0  0
   44.8980   36.2300   42.6990 H   0  0  0  0  0  0  0  0  0  0  0  0
   46.4430   32.9230   46.5060 C   0  0  2  0  0  0  0  0  0  0  0  0
   46.9680   31.6900   45.8510 C   0  0  0  0  0  0  0  0  0  0  0  0
   46.0890   30.5050   45.8830 C   0  0  0  0  0  0  0  0  0  0  0  0
   45.7550   30.2700   47.3450 C   0  0  0  0  0  0  0  0  0  0  0  0
   44.9660   31.3610   47.9340 C   0  0  0  0  0  0  0  0  0  0  0  0
   45.3620   32.7330   47.4630 C   0  0  0  0  0  0  0  0  0  0  0  0
   47.2760   33.4510   47.0170 H   0  0  0  0  0  0  0  0  0  0  0  0
   47.9290   31.4190   46.3330 H   0  0  0  0  0  0  0  0  0  0  0  0
   47.2360   31.9140   44.7740 H   0  0  0  0  0  0  0  0  0  0  0  0
   46.6770   29.6190   45.5700 H   0  0  0  0  0  0  0  0  0  0  0  0
   45.1880   30.5410   45.2690 H   0  0  0  0  0  0  0  0  0  0  0  0
   46.6240   29.9440   47.9120 H   0  0  0  0  0  0  0  0  0  0  0  0
   45.0350   29.4040   47.3180 H   0  0  0  0  0  0  0  0  0  0  0  0
   44.1660   31.3830   48.6270 H   0  0  0  0  0  0  0  0  0  0  0  0
   44.6680   33.8730   47.9590 N   0  0  0  0  0  0  0  0  0  0  0  0
   43.7070   33.8450   47.5840 H   0  0  0  0  0  0  0  0  0  0  0  0
   45.0990   34.5990   48.5990 H   0  0  0  0  0  0  0  0  0  0  0  0
   46.6440   33.9380   40.8280 C   0  0  0  0  0  0  0  0  0  0  0  0
   47.0370   34.6500   41.9410 C   0  0  0  0  0  0  0  0  0  0  0  0
   48.1630   35.4080   41.7080 C   0  0  0  0  0  0  0  0  0  0  0  0
   48.6080   36.0250   42.4540 H   0  0  0  0  0  0  0  0  0  0  0  0
   48.8260   35.4580   40.5030 C   0  0  0  0  0  0  0  0  0  0  0  0
   49.7150   36.0670   40.3500 H   0  0  0  0  0  0  0  0  0  0  0  0
   48.3930   34.7330   39.4300 C   0  0  0  0  0  3  0  0  0  0  0  0
   47.2860   33.9640   39.5970 C   0  0  0  0  0  3  0  0  0  0  0  0
   44.6020   32.3650   40.9570 N   0  0  0  0  0  0  0  0  0  0  0  0
   45.5030   33.0740   40.9000 C   0  0  0  0  0  0  0  0  0  0  0  0
  1  7  1  0  0  0  0
  1  6  1  0  0  0  0
  2  1  2  0  0  0  0
  3  2  1  0  0  0  0
  3  4  2  0  0  0  0
  4  5  1  0  0  0  0
  5  6  2  0  0  0  0
  5  9  1  0  0  0  0
  8  2  1  0  0  0  0
  9 15  1  1  0  0  0
  9 14  1  0  0  0  0
 10 11  1  0  0  0  0
 10 16  1  0  0  0  0
 10  9  1  0  0  0  0
 11 12  1  0  0  0  0
 12 20  1  0  0  0  0
 12 13  1  0  0  0  0
 13 22  1  0  0  0  0
 14 13  2  0  0  0  0
 14 23  1  0  0  0  0
 17 10  1  0  0  0  0
 18 11  1  0  0  0  0
 19 11  1  0  0  0  0
 21 12  1  0  0  0  0
 23 25  1  0  0  0  0
 24 23  1  0  0  0  0
 26 35  1  0  0  0  0
 26 27  1  0  0  0  0
 27  3  1  0  0  0  0
 28 27  2  0  0  0  0
 28 29  1  0  0  0  0
 30 28  1  0  0  0  0
 31 30  1  0  0  0  0
 32 33  1  0  0  0  0
 32 30  2  0  0  0  0
 33 26  2  0  0  0  0
 35 34  3  0  0  0  0
M  END
>  <minimizedAffinity>
-6.75874567

>  <minimizedRMSD>
0.945922375

$$$$
