
 OpenBabel03252502043D

 47 51  0  0  0  0  0  0  0  0999 V2000
   45.6280   33.6720   45.3540 C   0  0  0  0  0  0  0  0  0  0  0  0
   44.8940   34.6960   45.8720 N   0  0  0  0  0  0  0  0  0  0  0  0
   44.5560   35.8030   45.2150 C   0  0  0  0  0  0  0  0  0  0  0  0
   44.9540   35.9600   43.9310 N   0  0  0  0  0  0  0  0  0  0  0  0
   45.6880   35.0070   43.3120 C   0  0  0  0  0  0  0  0  0  0  0  0
   46.0720   35.1940   42.0150 C   0  0  0  0  0  0  0  0  0  0  0  0
   46.8160   34.2260   41.3750 C   0  0  0  0  0  0  0  0  0  0  0  0
   47.1480   33.0820   42.0880 C   0  0  0  0  0  0  0  0  0  0  0  0
   46.7190   32.9670   43.4020 C   0  0  0  0  0  0  0  0  0  0  0  0
   45.9900   33.9010   44.0590 C   0  0  0  0  0  0  0  0  0  0  0  0
   43.9640   36.5450   45.7530 H   0  0  0  0  0  0  0  0  0  0  0  0
   45.7650   36.1210   41.5340 H   0  0  0  0  0  0  0  0  0  0  0  0
   47.0610   34.4860   40.3470 H   0  0  0  0  0  0  0  0  0  0  0  0
   47.7240   32.4390   41.4400 H   0  0  0  0  0  0  0  0  0  0  0  0
   47.5730   31.7620   47.7110 C   0  0  0  0  0  0  0  0  0  0  0  0
   47.0190   30.5010   47.7550 C   0  0  0  0  0  0  0  0  0  0  0  0
   45.9330   30.2870   46.9660 C   0  0  0  0  0  0  0  0  0  0  0  0
   45.4550   31.2670   46.1950 N   0  0  0  0  0  0  0  0  0  0  0  0
   45.9830   32.4880   46.1370 C   0  0  0  0  0  0  0  0  0  0  0  0
   47.0560   32.7040   46.9240 N   0  0  0  0  0  0  0  0  0  0  0  0
   45.2890   29.0550   46.9530 N   0  0  0  0  0  0  0  0  0  0  0  0
   43.9850   28.7840   46.3120 C   0  0  0  0  0  0  0  0  0  0  0  0
   43.8460   27.2800   46.3140 C   0  0  0  0  0  0  0  0  0  0  0  0
   44.6550   26.8700   47.5140 C   0  0  0  0  0  0  0  0  0  0  0  0
   45.7750   27.8480   47.5530 C   0  0  0  0  0  0  0  0  0  0  0  0
   48.4500   31.9630   48.3440 H   0  0  0  0  0  0  0  0  0  0  0  0
   44.1040   29.0690   45.2400 H   0  0  0  0  0  0  0  0  0  0  0  0
   43.1620   29.2940   46.8110 H   0  0  0  0  0  0  0  0  0  0  0  0
   44.2860   26.7990   45.4270 H   0  0  0  0  0  0  0  0  0  0  0  0
   42.7720   27.0110   46.3860 H   0  0  0  0  0  0  0  0  0  0  0  0
   44.9960   25.8020   47.4120 H   0  0  0  0  0  0  0  0  0  0  0  0
   43.9680   26.9080   48.3780 H   0  0  0  0  0  0  0  0  0  0  0  0
   45.9300   27.9300   48.6730 H   0  0  0  0  0  0  0  0  0  0  0  0
   46.6490   27.4750   47.0160 H   0  0  0  0  0  0  0  0  0  0  0  0
   47.6290   29.5160   48.5250 N   0  0  0  0  0  0  0  0  0  0  0  0
   48.2610   28.7360   48.2700 H   0  0  0  0  0  0  0  0  0  0  0  0
   47.3370   29.6740   49.5330 H   0  0  0  0  0  0  0  0  0  0  0  0
   46.2550   30.6650   43.3880 C   0  0  0  0  0  0  0  0  0  0  0  0
   47.1950   31.6470   43.7880 C   0  0  0  0  0  0  0  0  0  0  0  0
   48.3390   31.1470   44.3850 C   0  0  0  0  0  0  0  0  0  0  0  0
   48.9730   32.0100   44.6430 H   0  0  0  0  0  0  0  0  0  0  0  0
   48.5730   29.8100   44.5860 C   0  0  0  0  0  0  0  0  0  0  0  0
   49.5380   29.6510   45.0720 H   0  0  0  0  0  0  0  0  0  0  0  0
   47.6570   28.8610   44.1950 C   0  0  0  0  0  3  0  0  0  0  0  0
   46.4980   29.3020   43.5950 C   0  0  0  0  0  3  0  0  0  0  0  0
   43.9890   31.1950   42.2380 N   0  0  0  0  0  0  0  0  0  0  0  0
   44.9930   30.9490   42.7480 C   0  0  0  0  0  0  0  0  0  0  0  0
  1  2  1  0  0  0  0
  1 19  1  0  0  0  0
  3 11  1  0  0  0  0
  3  2  2  0  0  0  0
  4  3  1  0  0  0  0
  5  4  2  0  0  0  0
  5 10  1  0  0  0  0
  6  5  1  0  0  0  0
  7  6  2  0  0  0  0
  7  8  1  0  0  0  0
  8  9  2  0  0  0  0
  9 39  1  0  0  0  0
  9 10  1  0  0  0  0
 10  1  2  0  0  0  0
 12  6  1  0  0  0  0
 13  7  1  0  0  0  0
 14  8  1  0  0  0  0
 15 16  1  0  0  0  0
 15 26  1  0  0  0  0
 16 35  1  0  0  0  0
 17 16  2  0  0  0  0
 18 17  1  0  0  0  0
 19 18  2  0  0  0  0
 19 20  1  0  0  0  0
 20 15  2  0  0  0  0
 21 17  1  0  0  0  0
 21 25  1  0  0  0  0
 22 23  1  0  0  0  0
 22 28  1  0  0  0  0
 22 21  1  0  0  0  0
 23 30  1  0  0  0  0
 23 24  1  0  0  0  0
 24 25  1  0  0  0  0
 24 32  1  0  0  0  0
 25 33  1  0  0  0  0
 27 22  1  0  0  0  0
 29 23  1  0  0  0  0
 31 24  1  0  0  0  0
 34 25  1  0  0  0  0
 35 37  1  0  0  0  0
 36 35  1  0  0  0  0
 38 45  2  0  0  0  0
 38 39  1  0  0  0  0
 39 40  2  0  0  0  0
 40 42  1  0  0  0  0
 40 41  1  0  0  0  0
 42 43  1  0  0  0  0
 44 42  2  0  0  0  0
 45 44  1  0  0  0  0
 46 47  3  0  0  0  0
 47 38  1  0  0  0  0
M  END
>  <minimizedAffinity>
-5.9218359

>  <minimizedRMSD>
1.32836974

$$$$
