
 OpenBabel03242517213D

 34 36  0  0  1  0  0  0  0  0999 V2000
   39.6060   32.3050   40.8070 C   0  0  0  0  0  0  0  0  0  0  0  0
   39.2850   32.4930   39.4440 C   0  0  0  0  0  0  0  0  0  0  0  0
   38.4840   31.5490   38.7930 C   0  0  0  0  0  0  0  0  0  0  0  0
   38.0580   30.4930   39.5360 N   0  0  0  0  0  0  0  0  0  0  0  0
   38.3620   30.3150   40.8290 C   0  0  0  0  0  0  0  0  0  0  0  0
   39.1420   31.2290   41.4680 N   0  0  0  0  0  0  0  0  0  0  0  0
   37.8820   29.1790   41.5630 N   0  0  0  0  0  0  0  0  0  0  0  0
   37.8660   29.2660   43.0070 C   0  0  0  0  0  0  0  0  0  0  0  0
   37.7530   27.9290   43.6800 C   0  0  0  0  0  0  0  0  0  0  0  0
   36.7520   27.1190   42.9280 C   0  0  0  0  0  0  0  0  0  0  0  0
   37.3640   26.7920   41.5890 C   0  0  0  0  0  0  0  0  0  0  0  0
   37.4590   28.0450   40.7850 C   0  0  1  0  0  0  0  0  0  0  0  0
   40.2220   33.0290   41.3080 H   0  0  0  0  0  0  0  0  0  0  0  0
   39.6550   33.3570   38.9010 H   0  0  0  0  0  0  0  0  0  0  0  0
   38.2140   31.6450   37.7620 H   0  0  0  0  0  0  0  0  0  0  0  0
   36.9390   29.8210   43.2780 H   0  0  0  0  0  0  0  0  0  0  0  0
   38.7120   29.8750   43.3960 H   0  0  0  0  0  0  0  0  0  0  0  0
   38.7280   27.3810   43.7090 H   0  0  0  0  0  0  0  0  0  0  0  0
   37.5020   28.1220   44.7450 H   0  0  0  0  0  0  0  0  0  0  0  0
   36.4910   26.1610   43.4640 H   0  0  0  0  0  0  0  0  0  0  0  0
   35.8100   27.6790   42.8790 H   0  0  0  0  0  0  0  0  0  0  0  0
   38.3170   26.2860   41.7700 H   0  0  0  0  0  0  0  0  0  0  0  0
   36.6770   26.0650   41.0830 H   0  0  0  0  0  0  0  0  0  0  0  0
   38.3240   27.8640   40.0810 H   0  0  0  0  0  0  0  0  0  0  0  0
   36.2930   27.9430   38.5680 C   0  0  0  0  0  0  0  0  0  0  0  0
   36.3050   28.3110   39.9020 C   0  0  0  0  0  0  0  0  0  0  0  0
   35.1600   28.9500   40.3610 C   0  0  0  0  0  0  0  0  0  0  0  0
   35.0840   29.2750   41.4060 H   0  0  0  0  0  0  0  0  0  0  0  0
   34.0740   29.2060   39.5510 C   0  0  0  0  0  0  0  0  0  0  0  0
   33.1920   29.7060   39.9330 H   0  0  0  0  0  0  0  0  0  0  0  0
   34.1260   28.8120   38.2220 C   0  0  0  0  0  3  0  0  0  0  0  0
   35.2430   28.1680   37.7010 C   0  0  0  0  0  3  0  0  0  0  0  0
   38.4190   26.7480   37.6420 N   0  0  0  0  0  0  0  0  0  0  0  0
   37.4640   27.2820   38.0670 C   0  0  0  0  0  0  0  0  0  0  0  0
  1 13  1  0  0  0  0
  1  6  1  0  0  0  0
  2  1  2  0  0  0  0
  3  2  1  0  0  0  0
  3  4  2  0  0  0  0
  4  5  1  0  0  0  0
  5  6  2  0  0  0  0
  5  7  1  0  0  0  0
  7  8  1  0  0  0  0
  8 16  1  0  0  0  0
  8 17  1  0  0  0  0
  8  9  1  0  0  0  0
  9 18  1  0  0  0  0
  9 19  1  0  0  0  0
 10 20  1  0  0  0  0
 10  9  1  0  0  0  0
 11 22  1  0  0  0  0
 11 10  1  0  0  0  0
 12 24  1  6  0  0  0
 12  7  1  0  0  0  0
 12 11  1  0  0  0  0
 14  2  1  0  0  0  0
 15  3  1  0  0  0  0
 21 10  1  0  0  0  0
 23 11  1  0  0  0  0
 25 26  1  0  0  0  0
 26 27  2  0  0  0  0
 26 12  1  0  0  0  0
 27 28  1  0  0  0  0
 29 30  1  0  0  0  0
 29 27  1  0  0  0  0
 31 29  2  0  0  0  0
 32 31  1  0  0  0  0
 32 25  2  0  0  0  0
 33 34  3  0  0  0  0
 34 25  1  0  0  0  0
M  END
>  <minimizedAffinity>
-5.31299114

$$$$

 OpenBabel03242517213D

 34 36  0  0  1  0  0  0  0  0999 V2000
   38.6370   33.5390   40.3480 C   0  0  0  0  0  0  0  0  0  0  0  0
   37.4000   33.0260   39.8990 C   0  0  0  0  0  0  0  0  0  0  0  0
   37.1330   31.6600   40.0430 C   0  0  0  0  0  0  0  0  0  0  0  0
   38.1050   30.9050   40.6200 N   0  0  0  0  0  0  0  0  0  0  0  0
   39.2790   31.3920   41.0470 C   0  0  0  0  0  0  0  0  0  0  0  0
   39.5450   32.7190   40.9090 N   0  0  0  0  0  0  0  0  0  0  0  0
   40.2670   30.5440   41.6500 N   0  0  0  0  0  0  0  0  0  0  0  0
   41.2850   31.1710   42.4660 C   0  0  0  0  0  0  0  0  0  0  0  0
   42.4790   30.2920   42.7020 C   0  0  0  0  0  0  0  0  0  0  0  0
   41.9870   28.9120   42.9770 C   0  0  0  0  0  0  0  0  0  0  0  0
   41.4070   28.3840   41.6880 C   0  0  0  0  0  0  0  0  0  0  0  0
   40.1550   29.1350   41.3820 C   0  0  1  0  0  0  0  0  0  0  0  0
   38.8450   34.5880   40.2380 H   0  0  0  0  0  0  0  0  0  0  0  0
   36.6620   33.6780   39.4440 H   0  0  0  0  0  0  0  0  0  0  0  0
   36.2130   31.2230   39.7170 H   0  0  0  0  0  0  0  0  0  0  0  0
   40.8270   31.3340   43.4680 H   0  0  0  0  0  0  0  0  0  0  0  0
   41.5590   32.1790   42.0870 H   0  0  0  0  0  0  0  0  0  0  0  0
   43.1740   30.2710   41.8250 H   0  0  0  0  0  0  0  0  0  0  0  0
   43.0670   30.7570   43.5210 H   0  0  0  0  0  0  0  0  0  0  0  0
   42.8140   28.2260   43.3220 H   0  0  0  0  0  0  0  0  0  0  0  0
   41.2830   28.9490   43.8170 H   0  0  0  0  0  0  0  0  0  0  0  0
   42.1830   28.4470   40.9190 H   0  0  0  0  0  0  0  0  0  0  0  0
   41.1710   27.3020   41.8530 H   0  0  0  0  0  0  0  0  0  0  0  0
   40.0610   29.0830   40.2570 H   0  0  0  0  0  0  0  0  0  0  0  0
   38.1250   27.6880   41.1130 C   0  0  0  0  0  0  0  0  0  0  0  0
   38.9130   28.5180   41.8920 C   0  0  0  0  0  0  0  0  0  0  0  0
   38.4630   28.7360   43.1870 C   0  0  0  0  0  0  0  0  0  0  0  0
   39.0260   29.3800   43.8730 H   0  0  0  0  0  0  0  0  0  0  0  0
   37.3060   28.1670   43.6800 C   0  0  0  0  0  0  0  0  0  0  0  0
   36.9760   28.3520   44.6940 H   0  0  0  0  0  0  0  0  0  0  0  0
   36.5610   27.3450   42.8480 C   0  0  0  0  0  3  0  0  0  0  0  0
   36.9580   27.0880   41.5400 C   0  0  0  0  0  3  0  0  0  0  0  0
   38.9140   27.2550   38.6650 N   0  0  0  0  0  0  0  0  0  0  0  0
   38.5680   27.4470   39.7690 C   0  0  0  0  0  0  0  0  0  0  0  0
  1  6  1  0  0  0  0
  2  3  1  0  0  0  0
  2  1  2  0  0  0  0
  3  4  2  0  0  0  0
  4  5  1  0  0  0  0
  5  7  1  0  0  0  0
  6  5  2  0  0  0  0
  7  8  1  0  0  0  0
  8  9  1  0  0  0  0
  8 16  1  0  0  0  0
  9 10  1  0  0  0  0
  9 19  1  0  0  0  0
 10 20  1  0  0  0  0
 10 21  1  0  0  0  0
 11 23  1  0  0  0  0
 11 10  1  0  0  0  0
 12 24  1  6  0  0  0
 12  7  1  0  0  0  0
 12 11  1  0  0  0  0
 12 26  1  0  0  0  0
 13  1  1  0  0  0  0
 14  2  1  0  0  0  0
 15  3  1  0  0  0  0
 17  8  1  0  0  0  0
 18  9  1  0  0  0  0
 22 11  1  0  0  0  0
 25 32  2  0  0  0  0
 25 26  1  0  0  0  0
 26 27  2  0  0  0  0
 27 29  1  0  0  0  0
 27 28  1  0  0  0  0
 29 30  1  0  0  0  0
 31 29  2  0  0  0  0
 32 31  1  0  0  0  0
 33 34  3  0  0  0  0
 34 25  1  0  0  0  0
M  END
>  <minimizedAffinity>
-5.16600847

$$$$

 OpenBabel03242517213D

 34 36  0  0  1  0  0  0  0  0999 V2000
   36.7240   27.7710   43.0630 C   0  0  0  0  0  0  0  0  0  0  0  0
   37.7410   28.5350   43.6780 C   0  0  0  0  0  0  0  0  0  0  0  0
   38.4270   29.4940   42.9250 C   0  0  0  0  0  0  0  0  0  0  0  0
   38.0570   29.6290   41.6240 N   0  0  0  0  0  0  0  0  0  0  0  0
   37.0920   28.9030   41.0400 C   0  0  0  0  0  0  0  0  0  0  0  0
   36.4220   27.9680   41.7670 N   0  0  0  0  0  0  0  0  0  0  0  0
   36.7460   29.0900   39.6600 N   0  0  0  0  0  0  0  0  0  0  0  0
   35.4490   28.6190   39.2210 C   0  0  0  0  0  0  0  0  0  0  0  0
   35.3450   28.4780   37.7310 C   0  0  0  0  0  0  0  0  0  0  0  0
   36.0050   29.6610   37.1090 C   0  0  0  0  0  0  0  0  0  0  0  0
   37.4840   29.5320   37.3740 C   0  0  0  0  0  0  0  0  0  0  0  0
   37.7300   29.7330   38.8320 C   0  0  1  0  0  0  0  0  0  0  0  0
   36.1970   27.0330   43.6390 H   0  0  0  0  0  0  0  0  0  0  0  0
   37.9930   28.3830   44.7230 H   0  0  0  0  0  0  0  0  0  0  0  0
   39.2050   30.0980   43.3450 H   0  0  0  0  0  0  0  0  0  0  0  0
   34.7170   29.4090   39.5030 H   0  0  0  0  0  0  0  0  0  0  0  0
   35.1350   27.7020   39.7650 H   0  0  0  0  0  0  0  0  0  0  0  0
   35.8280   27.5420   37.3550 H   0  0  0  0  0  0  0  0  0  0  0  0
   34.2670   28.3580   37.4910 H   0  0  0  0  0  0  0  0  0  0  0  0
   35.8290   29.7110   35.9950 H   0  0  0  0  0  0  0  0  0  0  0  0
   35.5440   30.5730   37.5080 H   0  0  0  0  0  0  0  0  0  0  0  0
   37.8140   28.5650   36.9800 H   0  0  0  0  0  0  0  0  0  0  0  0
   37.9950   30.3370   36.7870 H   0  0  0  0  0  0  0  0  0  0  0  0
   38.6770   29.1530   39.0420 H   0  0  0  0  0  0  0  0  0  0  0  0
   39.3430   31.5630   39.4120 C   0  0  0  0  0  0  0  0  0  0  0  0
   38.0440   31.1210   39.2290 C   0  0  0  0  0  0  0  0  0  0  0  0
   37.0500   32.0670   39.4410 C   0  0  0  0  0  0  0  0  0  0  0  0
   35.9920   31.8020   39.3170 H   0  0  0  0  0  0  0  0  0  0  0  0
   37.3240   33.3670   39.8110 C   0  0  0  0  0  0  0  0  0  0  0  0
   36.5310   34.0870   39.9710 H   0  0  0  0  0  0  0  0  0  0  0  0
   38.6470   33.7470   39.9790 C   0  0  0  0  0  3  0  0  0  0  0  0
   39.6890   32.8470   39.7820 C   0  0  0  0  0  3  0  0  0  0  0  0
   41.2570   29.8320   39.0370 N   0  0  0  0  0  0  0  0  0  0  0  0
   40.3900   30.6050   39.2000 C   0  0  0  0  0  0  0  0  0  0  0  0
  1 13  1  0  0  0  0
  1  2  1  0  0  0  0
  2 14  1  0  0  0  0
  3 15  1  0  0  0  0
  3  2  2  0  0  0  0
  4  3  1  0  0  0  0
  5  4  2  0  0  0  0
  5  6  1  0  0  0  0
  6  1  2  0  0  0  0
  7  5  1  0  0  0  0
  8 16  1  0  0  0  0
  8  7  1  0  0  0  0
  8 17  1  0  0  0  0
  9  8  1  0  0  0  0
 10 11  1  0  0  0  0
 10 21  1  0  0  0  0
 10  9  1  0  0  0  0
 11 12  1  0  0  0  0
 12 24  1  1  0  0  0
 12 26  1  0  0  0  0
 12  7  1  0  0  0  0
 18  9  1  0  0  0  0
 19  9  1  0  0  0  0
 20 10  1  0  0  0  0
 22 11  1  0  0  0  0
 23 11  1  0  0  0  0
 25 32  1  0  0  0  0
 26 25  2  0  0  0  0
 26 27  1  0  0  0  0
 27 29  2  0  0  0  0
 28 27  1  0  0  0  0
 29 30  1  0  0  0  0
 29 31  1  0  0  0  0
 32 31  2  0  0  0  0
 33 34  3  0  0  0  0
 34 25  1  0  0  0  0
M  END
>  <minimizedAffinity>
-5.16565752

$$$$

 OpenBabel03242517213D

 34 36  0  0  1  0  0  0  0  0999 V2000
   41.0890   29.1410   38.5600 C   0  0  0  0  0  0  0  0  0  0  0  0
   41.6330   28.3620   39.6050 C   0  0  0  0  0  0  0  0  0  0  0  0
   40.7710   27.6950   40.4820 C   0  0  0  0  0  0  0  0  0  0  0  0
   39.4380   27.8460   40.2620 N   0  0  0  0  0  0  0  0  0  0  0  0
   38.9220   28.5870   39.2700 C   0  0  0  0  0  0  0  0  0  0  0  0
   39.7550   29.2380   38.4140 N   0  0  0  0  0  0  0  0  0  0  0  0
   37.5040   28.7090   39.0870 N   0  0  0  0  0  0  0  0  0  0  0  0
   37.0260   29.1320   37.7880 C   0  0  0  0  0  0  0  0  0  0  0  0
   35.6080   29.6230   37.8110 C   0  0  0  0  0  0  0  0  0  0  0  0
   34.8170   28.7070   38.6810 C   0  0  0  0  0  0  0  0  0  0  0  0
   35.2900   28.9230   40.0970 C   0  0  0  0  0  0  0  0  0  0  0  0
   36.6800   28.3970   40.2250 C   0  0  1  0  0  0  0  0  0  0  0  0
   41.7490   29.6540   37.8850 H   0  0  0  0  0  0  0  0  0  0  0  0
   42.7080   28.2780   39.7320 H   0  0  0  0  0  0  0  0  0  0  0  0
   41.1340   27.0940   41.2900 H   0  0  0  0  0  0  0  0  0  0  0  0
   37.0220   28.2240   37.1440 H   0  0  0  0  0  0  0  0  0  0  0  0
   37.7230   29.8500   37.3030 H   0  0  0  0  0  0  0  0  0  0  0  0
   35.5230   30.6700   38.2000 H   0  0  0  0  0  0  0  0  0  0  0  0
   35.2680   29.6830   36.7550 H   0  0  0  0  0  0  0  0  0  0  0  0
   33.7090   28.9130   38.6220 H   0  0  0  0  0  0  0  0  0  0  0  0
   34.9320   27.6810   38.3100 H   0  0  0  0  0  0  0  0  0  0  0  0
   35.1750   29.9860   40.3310 H   0  0  0  0  0  0  0  0  0  0  0  0
   34.6010   28.3460   40.7650 H   0  0  0  0  0  0  0  0  0  0  0  0
   37.1370   29.0050   41.0610 H   0  0  0  0  0  0  0  0  0  0  0  0
   37.0340   26.6630   42.0000 C   0  0  0  0  0  0  0  0  0  0  0  0
   36.7800   26.9960   40.6810 C   0  0  0  0  0  0  0  0  0  0  0  0
   36.6240   25.9260   39.8090 C   0  0  0  0  0  0  0  0  0  0  0  0
   36.4200   26.0990   38.7450 H   0  0  0  0  0  0  0  0  0  0  0  0
   36.7140   24.6120   40.2170 C   0  0  0  0  0  0  0  0  0  0  0  0
   36.5890   23.7950   39.5180 H   0  0  0  0  0  0  0  0  0  0  0  0
   36.9720   24.3460   41.5540 C   0  0  0  0  0  3  0  0  0  0  0  0
   37.1370   25.3720   42.4770 C   0  0  0  0  0  3  0  0  0  0  0  0
   37.3530   28.6350   43.6780 N   0  0  0  0  0  0  0  0  0  0  0  0
   37.2000   27.7500   42.9230 C   0  0  0  0  0  0  0  0  0  0  0  0
  1  2  1  0  0  0  0
  2 14  1  0  0  0  0
  2  3  2  0  0  0  0
  3 15  1  0  0  0  0
  4  3  1  0  0  0  0
  5  4  2  0  0  0  0
  6  1  2  0  0  0  0
  6  5  1  0  0  0  0
  7  5  1  0  0  0  0
  7 12  1  0  0  0  0
  8  9  1  0  0  0  0
  8  7  1  0  0  0  0
  9 18  1  0  0  0  0
  9 10  1  0  0  0  0
 10 11  1  0  0  0  0
 11 12  1  0  0  0  0
 11 22  1  0  0  0  0
 11 23  1  0  0  0  0
 12 26  1  0  0  0  0
 12 24  1  1  0  0  0
 13  1  1  0  0  0  0
 16  8  1  0  0  0  0
 17  8  1  0  0  0  0
 19  9  1  0  0  0  0
 20 10  1  0  0  0  0
 21 10  1  0  0  0  0
 25 32  1  0  0  0  0
 25 34  1  0  0  0  0
 26 25  2  0  0  0  0
 27 29  2  0  0  0  0
 27 26  1  0  0  0  0
 28 27  1  0  0  0  0
 29 31  1  0  0  0  0
 30 29  1  0  0  0  0
 31 32  2  0  0  0  0
 34 33  3  0  0  0  0
M  END
>  <minimizedAffinity>
-4.94265127

$$$$

 OpenBabel03242517213D

 34 36  0  0  1  0  0  0  0  0999 V2000
   37.7880   31.4930   37.8900 C   0  0  0  0  0  0  0  0  0  0  0  0
   36.8790   30.4220   37.7430 C   0  0  0  0  0  0  0  0  0  0  0  0
   36.9490   29.3380   38.6250 C   0  0  0  0  0  0  0  0  0  0  0  0
   37.9080   29.3940   39.5870 N   0  0  0  0  0  0  0  0  0  0  0  0
   38.7710   30.4110   39.7270 C   0  0  0  0  0  0  0  0  0  0  0  0
   38.7090   31.4670   38.8710 N   0  0  0  0  0  0  0  0  0  0  0  0
   39.7640   30.4140   40.7630 N   0  0  0  0  0  0  0  0  0  0  0  0
   40.3480   31.6850   41.1330 C   0  0  0  0  0  0  0  0  0  0  0  0
   41.6320   31.5460   41.8980 C   0  0  0  0  0  0  0  0  0  0  0  0
   41.4630   30.4400   42.8830 C   0  0  0  0  0  0  0  0  0  0  0  0
   41.3790   29.1560   42.0960 C   0  0  0  0  0  0  0  0  0  0  0  0
   40.0910   29.1380   41.3420 C   0  0  1  0  0  0  0  0  0  0  0  0
   37.7370   32.3260   37.2130 H   0  0  0  0  0  0  0  0  0  0  0  0
   36.1330   30.4320   36.9540 H   0  0  0  0  0  0  0  0  0  0  0  0
   36.2840   28.5030   38.5550 H   0  0  0  0  0  0  0  0  0  0  0  0
   39.6290   32.1690   41.8330 H   0  0  0  0  0  0  0  0  0  0  0  0
   40.4360   32.3710   40.2620 H   0  0  0  0  0  0  0  0  0  0  0  0
   42.5040   31.3230   41.2330 H   0  0  0  0  0  0  0  0  0  0  0  0
   41.8560   32.5410   42.3380 H   0  0  0  0  0  0  0  0  0  0  0  0
   42.3270   30.3780   43.6060 H   0  0  0  0  0  0  0  0  0  0  0  0
   40.5880   30.6540   43.5090 H   0  0  0  0  0  0  0  0  0  0  0  0
   42.2780   29.0820   41.4760 H   0  0  0  0  0  0  0  0  0  0  0  0
   41.3990   28.3150   42.8360 H   0  0  0  0  0  0  0  0  0  0  0  0
   40.2980   28.4820   40.4460 H   0  0  0  0  0  0  0  0  0  0  0  0
   38.5800   27.1820   41.7600 C   0  0  0  0  0  0  0  0  0  0  0  0
   38.9660   28.4810   42.0390 C   0  0  0  0  0  0  0  0  0  0  0  0
   38.2290   29.1330   43.0190 C   0  0  0  0  0  0  0  0  0  0  0  0
   38.4670   30.1650   43.3030 H   0  0  0  0  0  0  0  0  0  0  0  0
   37.1760   28.5350   43.6800 C   0  0  0  0  0  0  0  0  0  0  0  0
   36.6150   29.0630   44.4400 H   0  0  0  0  0  0  0  0  0  0  0  0
   36.8380   27.2300   43.3520 C   0  0  0  0  0  3  0  0  0  0  0  0
   37.5380   26.5230   42.3810 C   0  0  0  0  0  3  0  0  0  0  0  0
   39.9220   25.9180   39.9140 N   0  0  0  0  0  0  0  0  0  0  0  0
   39.3260   26.4860   40.7500 C   0  0  0  0  0  0  0  0  0  0  0  0
  1  6  1  0  0  0  0
  2  1  2  0  0  0  0
  2  3  1  0  0  0  0
  3  4  2  0  0  0  0
  4  5  1  0  0  0  0
  5  7  1  0  0  0  0
  6  5  2  0  0  0  0
  7  8  1  0  0  0  0
  7 12  1  0  0  0  0
  8 16  1  0  0  0  0
  8  9  1  0  0  0  0
  9 19  1  0  0  0  0
  9 10  1  0  0  0  0
 10 21  1  0  0  0  0
 10 20  1  0  0  0  0
 11 23  1  0  0  0  0
 11 10  1  0  0  0  0
 12 24  1  6  0  0  0
 12 26  1  0  0  0  0
 12 11  1  0  0  0  0
 13  1  1  0  0  0  0
 14  2  1  0  0  0  0
 15  3  1  0  0  0  0
 17  8  1  0  0  0  0
 18  9  1  0  0  0  0
 22 11  1  0  0  0  0
 25 26  2  0  0  0  0
 25 32  1  0  0  0  0
 26 27  1  0  0  0  0
 27 28  1  0  0  0  0
 27 29  2  0  0  0  0
 29 30  1  0  0  0  0
 31 29  1  0  0  0  0
 32 31  2  0  0  0  0
 33 34  3  0  0  0  0
 34 25  1  0  0  0  0
M  END
>  <minimizedAffinity>
-4.81717253

$$$$

 OpenBabel03242517213D

 34 36  0  0  1  0  0  0  0  0999 V2000
   35.0960   28.8130   37.6240 C   0  0  0  0  0  0  0  0  0  0  0  0
   35.2990   27.4620   37.9850 C   0  0  0  0  0  0  0  0  0  0  0  0
   36.2660   27.1490   38.9460 C   0  0  0  0  0  0  0  0  0  0  0  0
   36.9580   28.1900   39.4790 N   0  0  0  0  0  0  0  0  0  0  0  0
   36.7660   29.4720   39.1360 C   0  0  0  0  0  0  0  0  0  0  0  0
   35.8270   29.7840   38.2010 N   0  0  0  0  0  0  0  0  0  0  0  0
   37.5280   30.5300   39.7340 N   0  0  0  0  0  0  0  0  0  0  0  0
   36.9900   31.8720   39.6620 C   0  0  0  0  0  0  0  0  0  0  0  0
   38.0160   32.9350   39.9300 C   0  0  0  0  0  0  0  0  0  0  0  0
   38.8580   32.4850   41.0740 C   0  0  0  0  0  0  0  0  0  0  0  0
   39.6780   31.3160   40.5860 C   0  0  0  0  0  0  0  0  0  0  0  0
   38.7700   30.1550   40.3550 C   0  0  1  0  0  0  0  0  0  0  0  0
   34.3540   29.0550   36.8850 H   0  0  0  0  0  0  0  0  0  0  0  0
   34.7150   26.6710   37.5240 H   0  0  0  0  0  0  0  0  0  0  0  0
   36.4580   26.1420   39.2530 H   0  0  0  0  0  0  0  0  0  0  0  0
   36.2450   31.9560   40.4850 H   0  0  0  0  0  0  0  0  0  0  0  0
   36.4270   32.0430   38.7190 H   0  0  0  0  0  0  0  0  0  0  0  0
   38.6680   33.1330   39.0430 H   0  0  0  0  0  0  0  0  0  0  0  0
   37.4630   33.8840   40.0940 H   0  0  0  0  0  0  0  0  0  0  0  0
   39.5490   33.2980   41.4410 H   0  0  0  0  0  0  0  0  0  0  0  0
   38.2050   32.2640   41.9280 H   0  0  0  0  0  0  0  0  0  0  0  0
   40.2400   31.6440   39.7060 H   0  0  0  0  0  0  0  0  0  0  0  0
   40.4130   31.0700   41.3950 H   0  0  0  0  0  0  0  0  0  0  0  0
   39.2910   29.5410   39.5620 H   0  0  0  0  0  0  0  0  0  0  0  0
   39.3860   28.0920   41.6400 C   0  0  0  0  0  0  0  0  0  0  0  0
   38.6220   29.2380   41.5040 C   0  0  0  0  0  0  0  0  0  0  0  0
   37.7020   29.4730   42.5180 C   0  0  0  0  0  0  0  0  0  0  0  0
   37.0560   30.3590   42.4900 H   0  0  0  0  0  0  0  0  0  0  0  0
   37.5510   28.6280   43.5970 C   0  0  0  0  0  0  0  0  0  0  0  0
   36.8270   28.8330   44.3760 H   0  0  0  0  0  0  0  0  0  0  0  0
   38.3480   27.4960   43.6740 C   0  0  0  0  0  3  0  0  0  0  0  0
   39.2870   27.2040   42.6910 C   0  0  0  0  0  3  0  0  0  0  0  0
   41.1260   27.5890   39.7620 N   0  0  0  0  0  0  0  0  0  0  0  0
   40.3440   27.8250   40.6050 C   0  0  0  0  0  0  0  0  0  0  0  0
  1  2  2  0  0  0  0
  1  6  1  0  0  0  0
  2  3  1  0  0  0  0
  3 15  1  0  0  0  0
  3  4  2  0  0  0  0
  5  4  1  0  0  0  0
  5  7  1  0  0  0  0
  6  5  2  0  0  0  0
  7 12  1  0  0  0  0
  8  7  1  0  0  0  0
  8  9  1  0  0  0  0
  8 16  1  0  0  0  0
  9 19  1  0  0  0  0
  9 10  1  0  0  0  0
 10 20  1  0  0  0  0
 10 21  1  0  0  0  0
 11 10  1  0  0  0  0
 11 23  1  0  0  0  0
 12 24  1  6  0  0  0
 12 11  1  0  0  0  0
 12 26  1  0  0  0  0
 13  1  1  0  0  0  0
 14  2  1  0  0  0  0
 17  8  1  0  0  0  0
 18  9  1  0  0  0  0
 22 11  1  0  0  0  0
 25 32  1  0  0  0  0
 26 25  2  0  0  0  0
 26 27  1  0  0  0  0
 27 29  2  0  0  0  0
 28 27  1  0  0  0  0
 29 31  1  0  0  0  0
 29 30  1  0  0  0  0
 32 31  2  0  0  0  0
 33 34  3  0  0  0  0
 34 25  1  0  0  0  0
M  END
>  <minimizedAffinity>
-4.77130795

$$$$

 OpenBabel03242517213D

 34 36  0  0  1  0  0  0  0  0999 V2000
   41.9250   27.8400   38.6370 C   0  0  0  0  0  0  0  0  0  0  0  0
   41.6640   28.7090   37.5550 C   0  0  0  0  0  0  0  0  0  0  0  0
   40.5870   29.5990   37.6370 C   0  0  0  0  0  0  0  0  0  0  0  0
   39.8510   29.5640   38.7790 N   0  0  0  0  0  0  0  0  0  0  0  0
   40.0990   28.7390   39.8060 C   0  0  0  0  0  0  0  0  0  0  0  0
   41.1450   27.8710   39.7330 N   0  0  0  0  0  0  0  0  0  0  0  0
   39.2860   28.7480   40.9880 N   0  0  0  0  0  0  0  0  0  0  0  0
   39.8460   28.1800   42.1960 C   0  0  0  0  0  0  0  0  0  0  0  0
   38.8100   27.8600   43.2340 C   0  0  0  0  0  0  0  0  0  0  0  0
   37.8330   28.9850   43.2730 C   0  0  0  0  0  0  0  0  0  0  0  0
   37.0610   28.9450   41.9780 C   0  0  0  0  0  0  0  0  0  0  0  0
   37.9750   29.3260   40.8610 C   0  0  1  0  0  0  0  0  0  0  0  0
   42.7520   27.1560   38.5760 H   0  0  0  0  0  0  0  0  0  0  0  0
   42.2870   28.6920   36.6670 H   0  0  0  0  0  0  0  0  0  0  0  0
   40.3470   30.2760   36.8440 H   0  0  0  0  0  0  0  0  0  0  0  0
   40.4910   28.9690   42.6440 H   0  0  0  0  0  0  0  0  0  0  0  0
   40.5180   27.3210   41.9780 H   0  0  0  0  0  0  0  0  0  0  0  0
   38.2680   26.9050   43.0180 H   0  0  0  0  0  0  0  0  0  0  0  0
   39.3520   27.6710   44.1850 H   0  0  0  0  0  0  0  0  0  0  0  0
   37.1150   28.8970   44.1380 H   0  0  0  0  0  0  0  0  0  0  0  0
   38.3790   29.9200   43.4540 H   0  0  0  0  0  0  0  0  0  0  0  0
   36.6100   27.9520   41.8870 H   0  0  0  0  0  0  0  0  0  0  0  0
   36.2340   29.6940   42.0650 H   0  0  0  0  0  0  0  0  0  0  0  0
   37.5420   28.8110   39.9530 H   0  0  0  0  0  0  0  0  0  0  0  0
   37.1920   31.2790   39.4980 C   0  0  0  0  0  0  0  0  0  0  0  0
   37.9750   30.7620   40.5150 C   0  0  0  0  0  0  0  0  0  0  0  0
   38.7660   31.6810   41.1930 C   0  0  0  0  0  0  0  0  0  0  0  0
   39.4180   31.3580   42.0140 H   0  0  0  0  0  0  0  0  0  0  0  0
   38.7790   33.0250   40.8830 C   0  0  0  0  0  0  0  0  0  0  0  0
   39.4040   33.7220   41.4270 H   0  0  0  0  0  0  0  0  0  0  0  0
   37.9710   33.4790   39.8520 C   0  0  0  0  0  3  0  0  0  0  0  0
   37.1560   32.6100   39.1350 C   0  0  0  0  0  3  0  0  0  0  0  0
   35.6810   29.6050   38.1860 N   0  0  0  0  0  0  0  0  0  0  0  0
   36.3650   30.3500   38.7800 C   0  0  0  0  0  0  0  0  0  0  0  0
  1  6  1  0  0  0  0
  2  3  1  0  0  0  0
  2  1  2  0  0  0  0
  3  4  2  0  0  0  0
  4  5  1  0  0  0  0
  5  7  1  0  0  0  0
  6  5  2  0  0  0  0
  7  8  1  0  0  0  0
  8 16  1  0  0  0  0
  8  9  1  0  0  0  0
  9 10  1  0  0  0  0
  9 19  1  0  0  0  0
 10 21  1  0  0  0  0
 10 20  1  0  0  0  0
 11 23  1  0  0  0  0
 11 10  1  0  0  0  0
 12 24  1  6  0  0  0
 12  7  1  0  0  0  0
 12 11  1  0  0  0  0
 13  1  1  0  0  0  0
 14  2  1  0  0  0  0
 15  3  1  0  0  0  0
 17  8  1  0  0  0  0
 18  9  1  0  0  0  0
 22 11  1  0  0  0  0
 25 26  1  0  0  0  0
 26 12  1  0  0  0  0
 26 27  2  0  0  0  0
 27 28  1  0  0  0  0
 29 27  1  0  0  0  0
 29 30  1  0  0  0  0
 31 29  2  0  0  0  0
 32 25  2  0  0  0  0
 32 31  1  0  0  0  0
 33 34  3  0  0  0  0
 34 25  1  0  0  0  0
M  END
>  <minimizedAffinity>
-4.76164246

$$$$

 OpenBabel03242517213D

 34 36  0  0  1  0  0  0  0  0999 V2000
   39.1810   27.5020   36.5810 C   0  0  0  0  0  0  0  0  0  0  0  0
   39.6740   26.4430   37.3760 C   0  0  0  0  0  0  0  0  0  0  0  0
   39.6810   26.5780   38.7680 C   0  0  0  0  0  0  0  0  0  0  0  0
   39.2010   27.7460   39.2710 N   0  0  0  0  0  0  0  0  0  0  0  0
   38.7330   28.7510   38.5170 C   0  0  0  0  0  0  0  0  0  0  0  0
   38.7240   28.6260   37.1620 N   0  0  0  0  0  0  0  0  0  0  0  0
   38.2380   29.9620   39.1060 N   0  0  0  0  0  0  0  0  0  0  0  0
   37.3660   30.7940   38.3040 C   0  0  0  0  0  0  0  0  0  0  0  0
   37.2410   32.1960   38.8260 C   0  0  0  0  0  0  0  0  0  0  0  0
   37.1180   32.1260   40.3100 C   0  0  0  0  0  0  0  0  0  0  0  0
   38.4510   31.6660   40.8430 C   0  0  0  0  0  0  0  0  0  0  0  0
   38.6600   30.2410   40.4520 C   0  0  1  0  0  0  0  0  0  0  0  0
   39.1750   27.4000   35.5120 H   0  0  0  0  0  0  0  0  0  0  0  0
   40.0460   25.5320   36.9170 H   0  0  0  0  0  0  0  0  0  0  0  0
   40.0450   25.8060   39.4130 H   0  0  0  0  0  0  0  0  0  0  0  0
   36.3480   30.3500   38.3840 H   0  0  0  0  0  0  0  0  0  0  0  0
   37.6330   30.7570   37.2250 H   0  0  0  0  0  0  0  0  0  0  0  0
   38.1210   32.8330   38.5560 H   0  0  0  0  0  0  0  0  0  0  0  0
   36.3810   32.6620   38.3010 H   0  0  0  0  0  0  0  0  0  0  0  0
   36.8590   33.1260   40.7640 H   0  0  0  0  0  0  0  0  0  0  0  0
   36.2720   31.4740   40.5630 H   0  0  0  0  0  0  0  0  0  0  0  0
   39.2160   32.3610   40.4810 H   0  0  0  0  0  0  0  0  0  0  0  0
   38.4060   31.7520   41.9590 H   0  0  0  0  0  0  0  0  0  0  0  0
   39.7830   30.1210   40.4110 H   0  0  0  0  0  0  0  0  0  0  0  0
   39.0660   28.7100   42.3950 C   0  0  0  0  0  0  0  0  0  0  0  0
   38.2110   29.2460   41.4480 C   0  0  0  0  0  0  0  0  0  0  0  0
   36.9000   28.7900   41.4900 C   0  0  0  0  0  0  0  0  0  0  0  0
   36.1560   29.1630   40.7760 H   0  0  0  0  0  0  0  0  0  0  0  0
   36.4640   27.8620   42.4130 C   0  0  0  0  0  0  0  0  0  0  0  0
   35.4360   27.5210   42.4260 H   0  0  0  0  0  0  0  0  0  0  0  0
   37.3710   27.3620   43.3350 C   0  0  0  0  0  3  0  0  0  0  0  0
   38.6970   27.7790   43.3450 C   0  0  0  0  0  3  0  0  0  0  0  0
   41.5440   29.5240   42.3680 N   0  0  0  0  0  0  0  0  0  0  0  0
   40.4270   29.1640   42.3730 C   0  0  0  0  0  0  0  0  0  0  0  0
  1  6  2  0  0  0  0
  1  2  1  0  0  0  0
  2  3  2  0  0  0  0
  3  4  1  0  0  0  0
  3 15  1  0  0  0  0
  5  7  1  0  0  0  0
  5  4  2  0  0  0  0
  6  5  1  0  0  0  0
  7 12  1  0  0  0  0
  8 16  1  0  0  0  0
  8  9  1  0  0  0  0
  8  7  1  0  0  0  0
  9 10  1  0  0  0  0
 10 21  1  0  0  0  0
 10 20  1  0  0  0  0
 10 11  1  0  0  0  0
 11 23  1  0  0  0  0
 12 24  1  6  0  0  0
 12 11  1  0  0  0  0
 12 26  1  0  0  0  0
 13  1  1  0  0  0  0
 14  2  1  0  0  0  0
 17  8  1  0  0  0  0
 18  9  1  0  0  0  0
 19  9  1  0  0  0  0
 22 11  1  0  0  0  0
 25 32  1  0  0  0  0
 26 27  1  0  0  0  0
 26 25  2  0  0  0  0
 27 29  2  0  0  0  0
 28 27  1  0  0  0  0
 29 30  1  0  0  0  0
 29 31  1  0  0  0  0
 31 32  2  0  0  0  0
 33 34  3  0  0  0  0
 34 25  1  0  0  0  0
M  END
>  <minimizedAffinity>
-4.74965906

$$$$

 OpenBabel03242517213D

 34 36  0  0  1  0  0  0  0  0999 V2000
   39.6050   27.1450   36.7060 C   0  0  0  0  0  0  0  0  0  0  0  0
   40.7000   27.1360   37.5980 C   0  0  0  0  0  0  0  0  0  0  0  0
   40.5160   27.5780   38.9130 C   0  0  0  0  0  0  0  0  0  0  0  0
   39.2660   27.9940   39.2480 N   0  0  0  0  0  0  0  0  0  0  0  0
   38.2270   28.0040   38.4010 C   0  0  0  0  0  0  0  0  0  0  0  0
   38.3990   27.5750   37.1210 N   0  0  0  0  0  0  0  0  0  0  0  0
   36.9290   28.4550   38.8120 N   0  0  0  0  0  0  0  0  0  0  0  0
   35.7880   28.0370   38.0250 C   0  0  0  0  0  0  0  0  0  0  0  0
   34.5630   28.8700   38.2690 C   0  0  0  0  0  0  0  0  0  0  0  0
   34.4600   29.1170   39.7360 C   0  0  0  0  0  0  0  0  0  0  0  0
   35.5940   30.0370   40.1100 C   0  0  0  0  0  0  0  0  0  0  0  0
   36.8810   29.2920   39.9820 C   0  0  1  0  0  0  0  0  0  0  0  0
   39.7450   26.8060   35.6960 H   0  0  0  0  0  0  0  0  0  0  0  0
   41.6770   26.7920   37.2730 H   0  0  0  0  0  0  0  0  0  0  0  0
   41.3140   27.5910   39.6260 H   0  0  0  0  0  0  0  0  0  0  0  0
   35.5300   27.0100   38.3670 H   0  0  0  0  0  0  0  0  0  0  0  0
   36.0400   27.9460   36.9450 H   0  0  0  0  0  0  0  0  0  0  0  0
   34.5970   29.8490   37.7280 H   0  0  0  0  0  0  0  0  0  0  0  0
   33.7060   28.3250   37.8190 H   0  0  0  0  0  0  0  0  0  0  0  0
   33.4800   29.5990   40.0190 H   0  0  0  0  0  0  0  0  0  0  0  0
   34.4590   28.1510   40.2570 H   0  0  0  0  0  0  0  0  0  0  0  0
   35.5180   30.9350   39.4890 H   0  0  0  0  0  0  0  0  0  0  0  0
   35.4340   30.3390   41.1770 H   0  0  0  0  0  0  0  0  0  0  0  0
   37.6510   30.0910   39.7710 H   0  0  0  0  0  0  0  0  0  0  0  0
   38.2750   29.2210   42.0640 C   0  0  0  0  0  0  0  0  0  0  0  0
   37.3500   28.6340   41.2180 C   0  0  0  0  0  0  0  0  0  0  0  0
   36.8860   27.3830   41.6060 C   0  0  0  0  0  0  0  0  0  0  0  0
   36.1510   26.8470   40.9950 H   0  0  0  0  0  0  0  0  0  0  0  0
   37.3130   26.7550   42.7570 C   0  0  0  0  0  0  0  0  0  0  0  0
   36.9370   25.7790   43.0380 H   0  0  0  0  0  0  0  0  0  0  0  0
   38.2430   27.3960   43.5610 C   0  0  0  0  0  3  0  0  0  0  0  0
   38.7450   28.6490   43.2290 C   0  0  0  0  0  3  0  0  0  0  0  0
   39.1920   31.5640   41.3770 N   0  0  0  0  0  0  0  0  0  0  0  0
   38.7710   30.5140   41.6860 C   0  0  0  0  0  0  0  0  0  0  0  0
  1  6  2  0  0  0  0
  1  2  1  0  0  0  0
  2  3  2  0  0  0  0
  3  4  1  0  0  0  0
  3 15  1  0  0  0  0
  5  7  1  0  0  0  0
  5  4  2  0  0  0  0
  6  5  1  0  0  0  0
  7 12  1  0  0  0  0
  8  9  1  0  0  0  0
  8 16  1  0  0  0  0
  8  7  1  0  0  0  0
  9 10  1  0  0  0  0
 10 20  1  0  0  0  0
 10 11  1  0  0  0  0
 10 21  1  0  0  0  0
 11 23  1  0  0  0  0
 12 24  1  6  0  0  0
 12 11  1  0  0  0  0
 12 26  1  0  0  0  0
 13  1  1  0  0  0  0
 14  2  1  0  0  0  0
 17  8  1  0  0  0  0
 18  9  1  0  0  0  0
 19  9  1  0  0  0  0
 22 11  1  0  0  0  0
 25 32  1  0  0  0  0
 26 27  1  0  0  0  0
 26 25  2  0  0  0  0
 27 29  2  0  0  0  0
 28 27  1  0  0  0  0
 29 30  1  0  0  0  0
 29 31  1  0  0  0  0
 32 31  2  0  0  0  0
 33 34  3  0  0  0  0
 34 25  1  0  0  0  0
M  END
>  <minimizedAffinity>
-4.74761677

$$$$
