REMARK  Name = 
REMARK  4 active torsions:
REMARK  status: ('A' for Active; 'I' for Inactive)
REMARK    1  A    between atoms: C_2  and  C_13
REMARK    2  A    between atoms: C_3  and  C_7
REMARK    3  A    between atoms: C_20  and  C_39
REMARK    4  A    between atoms: C_37  and  C_38
REMARK                            x       y       z     vdW  Elec       q    Type
REMARK                         _______ _______ _______ _____ _____    ______ ____
ROOT
ATOM      1  C   UNL     1      47.413  33.715  42.721  0.00  0.00    +0.000 C 
ATOM      2  O   UNL     1      48.506  33.538  43.320  0.00  0.00    +0.000 OA
ATOM      3  N   UNL     1      47.127  33.202  41.419  0.00  0.00    +0.000 N 
ATOM      4  C   UNL     1      45.941  32.529  40.898  0.00  0.00    +0.000 C 
ATOM      5  C   UNL     1      45.480  33.246  39.610  0.00  0.00    +0.000 C 
ATOM      6  C   UNL     1      46.546  33.081  38.551  0.00  0.00    +0.000 C 
ATOM      7  C   UNL     1      47.820  32.592  39.180  0.00  0.00    +0.000 C 
ATOM      8  C   UNL     1      48.156  33.362  40.428  0.00  0.00    +0.000 C 
ATOM      9  H   UNL     1      45.086  32.727  41.606  0.00  0.00    +0.000 HD
ATOM     10  H   UNL     1      46.088  31.473  40.686  0.00  0.00    +0.000 HD
ATOM     11  H   UNL     1      44.494  32.891  39.321  0.00  0.00    +0.000 HD
ATOM     12  H   UNL     1      45.508  34.328  39.898  0.00  0.00    +0.000 HD
ATOM     13  H   UNL     1      46.700  33.991  37.939  0.00  0.00    +0.000 HD
ATOM     14  H   UNL     1      46.204  32.282  37.851  0.00  0.00    +0.000 HD
ATOM     15  H   UNL     1      48.659  32.669  38.464  0.00  0.00    +0.000 HD
ATOM     16  H   UNL     1      47.730  31.500  39.407  0.00  0.00    +0.000 HD
ATOM     17  H   UNL     1      48.070  34.447  40.117  0.00  0.00    +0.000 HD
ENDROOT
BRANCH   1  19
ATOM     18  C   UNL     1      46.027  35.727  42.829  0.00  0.00    +0.000 A 
ATOM     19  C   UNL     1      46.393  34.484  43.394  0.00  0.00    +0.000 A 
ATOM     20  C   UNL     1      45.776  34.050  44.547  0.00  0.00    +0.000 A 
ATOM     21  N   UNL     1      44.830  34.838  45.104  0.00  0.00    +0.000 NA
ATOM     22  C   UNL     1      44.468  36.032  44.573  0.00  0.00    +0.000 A 
ATOM     23  N   UNL     1      45.074  36.453  43.446  0.00  0.00    +0.000 NA
ATOM     24  H   UNL     1      46.506  36.076  41.923  0.00  0.00    +0.000 HD
ATOM     25  H   UNL     1      43.702  36.575  45.104  0.00  0.00    +0.000 HD
BRANCH  20  26
ATOM     26  C   UNL     1      46.173  32.776  45.112  0.00  0.00    +0.000 A 
ATOM     27  C   UNL     1      45.796  31.614  44.508  0.00  0.00    +0.000 A 
ATOM     28  C   UNL     1      46.179  30.411  45.055  0.00  0.00    +0.000 A 
ATOM     29  C   UNL     1      46.945  30.321  46.214  0.00  0.00    +0.000 A 
ATOM     30  C   UNL     1      47.295  31.531  46.779  0.00  0.00    +0.000 A 
ATOM     31  N   UNL     1      46.904  32.686  46.217  0.00  0.00    +0.000 NA
ATOM     32  H   UNL     1      45.203  31.513  43.614  0.00  0.00    +0.000 HD
ATOM     33  H   UNL     1      45.906  29.448  44.615  0.00  0.00    +0.000 HD
ATOM     34  H   UNL     1      47.262  29.393  46.669  0.00  0.00    +0.000 HD
ATOM     35  H   UNL     1      47.888  31.615  47.681  0.00  0.00    +0.000 HD
ENDBRANCH  20  26
ENDBRANCH   1  19
BRANCH   8  37
ATOM     36  C   UNL     1      50.084  33.909  41.920  0.00  0.00    +0.000 A 
ATOM     37  C   UNL     1      49.529  33.168  40.869  0.00  0.00    +0.000 A 
ATOM     38  C   UNL     1      50.456  32.273  40.323  0.00  0.00    +0.000 A 
ATOM     39  H   UNL     1      50.107  31.660  39.501  0.00  0.00    +0.000 HD
ATOM     40  C   UNL     1      51.757  32.127  40.756  0.00  0.00    +0.000 A 
ATOM     41  H   UNL     1      52.414  31.411  40.281  0.00  0.00    +0.000 HD
ATOM     42  C   UNL     1      52.198  32.910  41.802  0.00  0.00    +0.000 A 
ATOM     43  C   UNL     1      51.369  33.826  42.415  0.00  0.00    +0.000 A 
BRANCH  36  45
ATOM     44  N   UNL     1      48.457  35.618  43.050  0.00  0.00    +0.000 NA
ATOM     45  C   UNL     1      49.180  34.863  42.540  0.00  0.00    +0.000 C 
ENDBRANCH  36  45
ENDBRANCH   8  37
TORSDOF 4
