
 OpenBabel03242515513D

 21 22  0  0  0  0  0  0  0  0999 V2000
   44.8780   34.9090   45.2840 C   0  0  0  0  0  0  0  0  0  0  0  0
   45.3490   33.9320   46.1780 C   0  0  0  0  0  0  0  0  0  0  0  0
   46.4000   33.1220   45.7830 C   0  0  0  0  0  0  0  0  0  0  0  0
   46.9120   33.3250   44.5400 N   0  0  0  0  0  0  0  0  0  0  0  0
   46.4450   34.2630   43.7040 C   0  0  0  0  0  0  0  0  0  0  0  0
   45.4180   35.0670   44.0740 N   0  0  0  0  0  0  0  0  0  0  0  0
   44.0590   35.5720   45.5370 H   0  0  0  0  0  0  0  0  0  0  0  0
   46.7460   32.3830   46.4750 H   0  0  0  0  0  0  0  0  0  0  0  0
   46.4880   33.7900   41.2870 C   0  0  0  0  0  0  0  0  0  0  0  0
   47.0470   34.4270   42.3760 C   0  0  0  0  0  0  0  0  0  0  0  0
   48.1680   35.2220   42.2530 C   0  0  0  0  0  0  0  0  0  0  0  0
   48.5990   35.7200   43.1220 H   0  0  0  0  0  0  0  0  0  0  0  0
   48.7810   35.4150   41.0240 C   0  0  0  0  0  0  0  0  0  0  0  0
   49.6450   36.0140   40.8550 H   0  0  0  0  0  0  0  0  0  0  0  0
   48.1730   34.7520   39.9770 C   0  0  0  0  0  0  0  0  0  0  0  0
   47.0570   33.9420   40.0180 C   0  0  0  0  0  0  0  0  0  0  0  0
   44.3840   32.2890   41.4900 N   0  0  0  0  0  0  0  0  0  0  0  0
   45.3240   32.9580   41.3900 C   0  0  0  0  0  0  0  0  0  0  0  0
   44.6940   33.8550   47.4460 N   0  0  0  0  0  0  0  0  0  0  0  0
   44.6760   34.4320   48.2840 H   0  0  0  0  0  0  0  0  0  0  0  0
   44.0920   33.0290   47.5620 H   0  0  0  0  0  0  0  0  0  0  0  0
  1  7  1  0  0  0  0
  1  2  1  0  0  0  0
  2 19  1  0  0  0  0
  3  2  2  0  0  0  0
  3  8  1  0  0  0  0
  4  3  1  0  0  0  0
  5  6  1  0  0  0  0
  5  4  2  0  0  0  0
  6  1  2  0  0  0  0
  9 18  1  0  0  0  0
  9 10  1  0  0  0  0
 10  5  1  0  0  0  0
 11 10  2  0  0  0  0
 11 12  1  0  0  0  0
 13 11  1  0  0  0  0
 14 13  1  0  0  0  0
 15 16  1  0  0  0  0
 15 13  2  0  0  0  0
 16  9  2  0  0  0  0
 18 17  3  0  0  0  0
 19 21  1  0  0  0  0
 19 20  1  0  0  0  0
M  END
>  <minimizedAffinity>
-5.27853012

>  <minimizedRMSD>
5.56752062

$$$$
