
 OpenBabel03242517213D

 34 36  0  0  1  0  0  0  0  0999 V2000
   44.4880   35.8130   44.8580 C   0  0  0  0  0  0  0  0  0  0  0  0
   44.5750   35.5770   43.4670 C   0  0  0  0  0  0  0  0  0  0  0  0
   45.1250   34.3750   43.0110 C   0  0  0  0  0  0  0  0  0  0  0  0
   45.5450   33.4950   43.9580 N   0  0  0  0  0  0  0  0  0  0  0  0
   45.4620   33.7190   45.2780 C   0  0  0  0  0  0  0  0  0  0  0  0
   44.9280   34.8870   45.7290 N   0  0  0  0  0  0  0  0  0  0  0  0
   45.9220   32.7520   46.2320 N   0  0  0  0  0  0  0  0  0  0  0  0
   45.4170   32.8460   47.5850 C   0  0  0  0  0  0  0  0  0  0  0  0
   46.2440   32.0850   48.5800 C   0  0  0  0  0  0  0  0  0  0  0  0
   46.6140   30.7780   47.9670 C   0  0  0  0  0  0  0  0  0  0  0  0
   47.5840   31.0720   46.8500 C   0  0  0  0  0  0  0  0  0  0  0  0
   46.8550   31.7680   45.7500 C   0  0  1  0  0  0  0  0  0  0  0  0
   44.0660   36.7360   45.2110 H   0  0  0  0  0  0  0  0  0  0  0  0
   44.2230   36.3180   42.7570 H   0  0  0  0  0  0  0  0  0  0  0  0
   45.2140   34.1490   41.9680 H   0  0  0  0  0  0  0  0  0  0  0  0
   44.4180   32.3550   47.5820 H   0  0  0  0  0  0  0  0  0  0  0  0
   45.2390   33.9010   47.8890 H   0  0  0  0  0  0  0  0  0  0  0  0
   47.1740   32.6350   48.8730 H   0  0  0  0  0  0  0  0  0  0  0  0
   45.6470   32.0180   49.5140 H   0  0  0  0  0  0  0  0  0  0  0  0
   47.1000   30.0810   48.7090 H   0  0  0  0  0  0  0  0  0  0  0  0
   45.6970   30.2620   47.6550 H   0  0  0  0  0  0  0  0  0  0  0  0
   48.4250   31.6310   47.2730 H   0  0  0  0  0  0  0  0  0  0  0  0
   47.9730   30.0870   46.4850 H   0  0  0  0  0  0  0  0  0  0  0  0
   47.6480   32.3830   45.2300 H   0  0  0  0  0  0  0  0  0  0  0  0
   46.9090   30.7630   43.4550 C   0  0  0  0  0  0  0  0  0  0  0  0
   46.3140   30.8830   44.6990 C   0  0  0  0  0  0  0  0  0  0  0  0
   45.1730   30.1180   44.8980 C   0  0  0  0  0  0  0  0  0  0  0  0
   44.6370   30.1520   45.8540 H   0  0  0  0  0  0  0  0  0  0  0  0
   44.6540   29.2870   43.9260 C   0  0  0  0  0  0  0  0  0  0  0  0
   43.7630   28.6990   44.1050 H   0  0  0  0  0  0  0  0  0  0  0  0
   45.2980   29.2110   42.7000 C   0  0  0  0  0  3  0  0  0  0  0  0
   46.4460   29.9520   42.4380 C   0  0  0  0  0  3  0  0  0  0  0  0
   49.0470   32.1950   43.0280 N   0  0  0  0  0  0  0  0  0  0  0  0
   48.0910   31.5440   43.2230 C   0  0  0  0  0  0  0  0  0  0  0  0
  1 13  1  0  0  0  0
  1  6  1  0  0  0  0
  2  1  2  0  0  0  0
  3  2  1  0  0  0  0
  3  4  2  0  0  0  0
  4  5  1  0  0  0  0
  5  6  2  0  0  0  0
  5  7  1  0  0  0  0
  7  8  1  0  0  0  0
  8 17  1  0  0  0  0
  8  9  1  0  0  0  0
  9 18  1  0  0  0  0
  9 19  1  0  0  0  0
 10  9  1  0  0  0  0
 10 20  1  0  0  0  0
 11 22  1  0  0  0  0
 11 10  1  0  0  0  0
 12 24  1  6  0  0  0
 12  7  1  0  0  0  0
 12 11  1  0  0  0  0
 14  2  1  0  0  0  0
 15  3  1  0  0  0  0
 16  8  1  0  0  0  0
 21 10  1  0  0  0  0
 23 11  1  0  0  0  0
 25 26  1  0  0  0  0
 26 27  2  0  0  0  0
 26 12  1  0  0  0  0
 27 28  1  0  0  0  0
 29 30  1  0  0  0  0
 29 27  1  0  0  0  0
 31 29  2  0  0  0  0
 32 31  1  0  0  0  0
 32 25  2  0  0  0  0
 33 34  3  0  0  0  0
 34 25  1  0  0  0  0
M  END
>  <minimizedAffinity>
-4.35048628

>  <minimizedRMSD>
2.23225307

$$$$
