
     RDKit          3D

 46 50  0  0  0  0  0  0  0  0999 V2000
   44.7892   35.9801   43.3059 Cl  0  0  0  0  0  0  0  0  0  0  0  0
   45.5366   34.7378   44.2485 C   0  0  0  0  0  0  0  0  0  0  0  0
   46.6342   34.0539   43.7525 C   0  0  0  0  0  0  0  0  0  0  0  0
   47.1463   33.0854   44.5918 C   0  0  0  0  0  0  0  0  0  0  0  0
   46.6581   32.7678   45.8376 C   0  0  0  0  0  0  0  0  0  0  0  0
   45.5746   33.4666   46.2885 C   0  0  0  0  0  0  0  0  0  0  0  0
   44.9774   33.0372   47.8812 Cl  0  0  0  0  0  0  0  0  0  0  0  0
   45.0153   34.4434   45.5053 C   0  0  0  0  0  0  0  0  0  0  0  0
   47.3548   31.7001   46.5673 C   0  0  0  0  0  0  0  0  0  0  0  0
   47.4675   30.4120   46.0937 C   0  0  0  0  0  0  0  0  0  0  0  0
   48.1152   29.3992   46.7613 C   0  0  0  0  0  0  0  0  0  0  0  0
   48.6959   29.6780   47.9895 C   0  0  0  0  0  0  0  0  0  0  0  0
   49.3232   28.6680   48.6206 N   0  0  0  0  0  0  0  0  0  0  0  0
   49.9161   28.8382   49.8138 C   0  0  0  0  0  0  0  0  0  0  0  0
   49.8522   30.1101   50.3696 C   0  0  0  0  0  0  0  0  0  0  0  0
   49.2123   31.1392   49.7251 C   0  0  0  0  0  0  0  0  0  0  0  0
   48.6077   30.9430   48.4964 C   0  0  0  0  0  0  0  0  0  0  0  0
   47.9521   31.9422   47.8067 C   0  0  0  0  0  0  0  0  0  0  0  0
   48.7672   35.4435   41.1541 C   0  0  0  0  0  0  0  0  0  0  0  0
   48.2693   34.8533   39.9829 C   0  0  0  0  0  0  0  0  0  0  0  0
   47.1840   33.9642   40.0875 C   0  0  0  0  0  0  0  0  0  0  0  0
   46.7241   33.7677   41.3376 N   0  0  0  0  0  0  0  0  0  0  0  0
   47.2042   34.3341   42.4492 C   0  0  0  0  0  0  0  0  0  0  0  0
   48.2343   35.1808   42.3683 N   0  0  0  0  0  0  0  0  0  0  0  0
   48.0176   32.5471   44.1903 H   0  0  0  0  0  0  0  0  0  0  0  0
   44.1566   34.9794   45.8918 H   0  0  0  0  0  0  0  0  0  0  0  0
   47.0164   30.1878   45.1357 H   0  0  0  0  0  0  0  0  0  0  0  0
   48.1573   28.4199   46.3202 H   0  0  0  0  0  0  0  0  0  0  0  0
   50.4135   28.0161   50.3031 H   0  0  0  0  0  0  0  0  0  0  0  0
   50.3374   30.2297   51.3357 H   0  0  0  0  0  0  0  0  0  0  0  0
   49.1689   32.1249   50.1672 H   0  0  0  0  0  0  0  0  0  0  0  0
   47.8973   32.9348   48.2314 H   0  0  0  0  0  0  0  0  0  0  0  0
   49.5863   36.1069   41.0234 H   0  0  0  0  0  0  0  0  0  0  0  0
   48.6943   35.0663   39.0375 H   0  0  0  0  0  0  0  0  0  0  0  0
   45.2174   31.3649   41.5461 N   0  0  0  0  0  0  0  0  0  0  0  0
   45.4571   31.7436   40.4880 C   0  0  0  0  0  0  0  0  0  0  0  0
   45.7648   32.2293   39.1677 C   0  0  0  0  0  0  0  0  0  0  0  0
   46.5974   33.3029   38.9358 C   0  0  0  0  0  0  0  0  0  0  0  0
   46.8365   33.6999   37.6388 C   0  0  0  0  0  0  0  0  0  0  0  0
   47.4705   34.5203   37.4191 H   0  0  0  0  0  0  0  0  0  0  0  0
   46.2680   33.0579   36.5370 C   0  0  0  0  0  0  0  0  0  0  0  0
   46.4462   33.3569   35.5289 H   0  0  0  0  0  0  0  0  0  0  0  0
   45.4281   31.9767   36.7466 C   0  0  0  0  0  0  0  0  0  0  0  0
   45.1982   31.5903   38.0585 C   0  0  0  0  0  0  0  0  0  0  0  0
   44.9440   31.4195   35.9551 H   0  0  0  0  0  0  0  0  0  0  0  0
   44.5312   30.7321   38.2208 H   0  0  0  0  0  0  0  0  0  0  0  0
  1  2  1  0
  2  8  2  0
  3  2  1  0
  3  4  2  0
  4  5  1  0
  5  6  2  0
  5  9  1  0
  6  7  1  0
  8  6  1  0
  9 18  1  0
 10  9  2  0
 10 11  1  0
 11 12  2  0
 12 17  1  0
 12 13  1  0
 13 14  2  0
 14 15  1  0
 16 15  2  0
 17 16  1  0
 18 17  2  0
 19 24  2  0
 20 21  2  0
 20 19  1  0
 21 22  1  0
 22 23  2  0
 23  3  1  0
 24 23  1  0
  4 25  1  0
  8 26  1  0
 10 27  1  0
 11 28  1  0
 14 29  1  0
 15 30  1  0
 16 31  1  0
 18 32  1  0
 19 33  1  0
 20 34  1  0
 35 36  3  0
 36 37  1  0
 37 38  2  0
 38 39  1  0
 39 40  1  0
 39 41  2  0
 41 42  1  0
 41 43  1  0
 43 44  2  0
 44 37  1  0
 43 45  1  0
 44 46  1  0
 21 38  1  0
M  ISO  8  25  14  26  14  27  14  28  14  29  14  30  14  31  14  32  14
M  ISO  4  33  14  34  14  40  15  42  16
M  END
>  <DihAtoms>  (1) 
19,20,37,36

>  <DihDeg>  (1) 
179.98334554064215

$$$$
