
 OpenBabel03252500183D

 21 22  0  0  0  0  0  0  0  0999 V2000
   44.4070   36.1740   44.7680 C   0  0  0  0  0  0  0  0  0  0  0  0
   45.0990   36.0850   43.5380 C   0  0  0  0  0  0  0  0  0  0  0  0
   45.9520   35.0030   43.3520 C   0  0  0  0  0  0  0  0  0  0  0  0
   46.0660   34.1020   44.3610 N   0  0  0  0  0  0  0  0  0  0  0  0
   45.3950   34.2150   45.5150 C   0  0  0  0  0  0  0  0  0  0  0  0
   44.5610   35.2560   45.7200 N   0  0  0  0  0  0  0  0  0  0  0  0
   45.5380   33.2540   46.5480 N   0  0  0  0  0  0  0  0  0  0  0  0
   43.7480   37.0350   44.8770 H   0  0  0  0  0  0  0  0  0  0  0  0
   44.9660   36.8230   42.7920 H   0  0  0  0  0  0  0  0  0  0  0  0
   44.6890   32.7090   46.8320 H   0  0  0  0  0  0  0  0  0  0  0  0
   46.3840   32.9630   47.1220 H   0  0  0  0  0  0  0  0  0  0  0  0
   46.1560   34.1050   41.0840 C   0  0  0  0  0  0  0  0  0  0  0  0
   46.7110   34.8200   42.1240 C   0  0  0  0  0  0  0  0  0  0  0  0
   47.9790   35.3150   41.9070 C   0  0  0  0  0  0  0  0  0  0  0  0
   48.4620   35.8820   42.6910 H   0  0  0  0  0  0  0  0  0  0  0  0
   48.6800   35.1270   40.7340 C   0  0  0  0  0  0  0  0  0  0  0  0
   49.6650   35.5400   40.6300 H   0  0  0  0  0  0  0  0  0  0  0  0
   48.0670   34.4030   39.7300 C   0  0  0  0  0  0  0  0  0  0  0  0
   46.7990   33.8790   39.8820 C   0  0  0  0  0  0  0  0  0  0  0  0
   43.7570   33.0800   41.2980 N   0  0  0  0  0  0  0  0  0  0  0  0
   44.8350   33.5420   41.1990 C   0  0  0  0  0  0  0  0  0  0  0  0
  1  8  1  0  0  0  0
  1  6  1  0  0  0  0
  2  1  2  0  0  0  0
  3  2  1  0  0  0  0
  3  4  2  0  0  0  0
  4  5  1  0  0  0  0
  5  6  2  0  0  0  0
  5  7  1  0  0  0  0
  7 10  1  0  0  0  0
  7 11  1  0  0  0  0
  9  2  1  0  0  0  0
 12 21  1  0  0  0  0
 12 13  1  0  0  0  0
 13  3  1  0  0  0  0
 14 13  2  0  0  0  0
 14 15  1  0  0  0  0
 16 14  1  0  0  0  0
 17 16  1  0  0  0  0
 18 19  1  0  0  0  0
 18 16  2  0  0  0  0
 19 12  2  0  0  0  0
 21 20  3  0  0  0  0
M  END
>  <minimizedAffinity>
-5.44202995

>  <minimizedRMSD>
1.1602689

$$$$
