REMARK  Name = 
REMARK  4 active torsions:
REMARK  status: ('A' for Active; 'I' for Inactive)
REMARK    1  A    between atoms: C_3  and  C_17
REMARK    2  A    between atoms: C_5  and  C_9
REMARK    3  A    between atoms: C_21  and  C_33
REMARK    4  A    between atoms: C_31  and  C_32
REMARK                            x       y       z     vdW  Elec       q    Type
REMARK                         _______ _______ _______ _____ _____    ______ ____
ROOT
ATOM      1 CL   UNL     1      48.684  34.313  37.499  0.00  0.00    +0.000 Cl
ATOM      2  C   UNL     1      47.166  33.461  37.663  0.00  0.00    +0.000 A 
ATOM      3  C   UNL     1      46.603  33.335  38.887  0.00  0.00    +0.000 A 
ATOM      4  C   UNL     1      45.492  32.511  38.925  0.00  0.00    +0.000 A 
ATOM      5  C   UNL     1      44.959  31.851  37.836  0.00  0.00    +0.000 A 
ATOM      6  C   UNL     1      45.577  32.023  36.607  0.00  0.00    +0.000 A 
ATOM      7  C   UNL     1      46.681  32.833  36.533  0.00  0.00    +0.000 A 
ATOM      8  H   UNL     1      45.053  32.425  39.935  0.00  0.00    +0.000 HD
ATOM      9  H   UNL     1      44.095  31.265  38.101  0.00  0.00    +0.000 HD
ATOM     10  H   UNL     1      45.104  31.477  35.800  0.00  0.00    +0.000 HD
ENDROOT
BRANCH   3  13
ATOM     11  C   UNL     1      48.679  35.532  41.080  0.00  0.00    +0.000 A 
ATOM     12  C   UNL     1      48.147  34.951  39.916  0.00  0.00    +0.000 A 
ATOM     13  C   UNL     1      47.148  33.998  40.038  0.00  0.00    +0.000 A 
ATOM     14  N   UNL     1      46.735  33.686  41.290  0.00  0.00    +0.000 NA
ATOM     15  C   UNL     1      47.242  34.248  42.399  0.00  0.00    +0.000 A 
ATOM     16  N   UNL     1      48.217  35.170  42.299  0.00  0.00    +0.000 NA
ATOM     17  H   UNL     1      49.459  36.279  41.140  0.00  0.00    +0.000 HD
ATOM     18  H   UNL     1      48.618  35.413  39.110  0.00  0.00    +0.000 HD
BRANCH  15  21
ATOM     19 CL   UNL     1      44.962  36.008  43.414  0.00  0.00    +0.000 Cl
ATOM     20  C   UNL     1      45.682  34.669  44.276  0.00  0.00    +0.000 A 
ATOM     21  C   UNL     1      46.719  33.927  43.713  0.00  0.00    +0.000 A 
ATOM     22  C   UNL     1      47.192  32.907  44.468  0.00  0.00    +0.000 A 
ATOM     23  C   UNL     1      46.715  32.574  45.726  0.00  0.00    +0.000 A 
ATOM     24  C   UNL     1      45.696  33.317  46.260  0.00  0.00    +0.000 A 
ATOM     25 CL   UNL     1      45.171  32.813  47.853  0.00  0.00    +0.000 Cl
ATOM     26  C   UNL     1      45.180  34.361  45.538  0.00  0.00    +0.000 A 
ATOM     27  H   UNL     1      48.001  32.321  44.041  0.00  0.00    +0.000 HD
ATOM     28  H   UNL     1      47.184  31.724  46.235  0.00  0.00    +0.000 HD
ATOM     29  H   UNL     1      44.379  34.917  45.999  0.00  0.00    +0.000 HD
ENDBRANCH  15  21
ENDBRANCH   3  13
BRANCH   7  31
ATOM     30  C   UNL     1      47.487  31.843  34.480  0.00  0.00    +0.000 A 
ATOM     31  C   UNL     1      47.301  32.995  35.236  0.00  0.00    +0.000 A 
ATOM     32  C   UNL     1      47.710  34.211  34.718  0.00  0.00    +0.000 A 
ATOM     33  H   UNL     1      47.559  35.110  35.321  0.00  0.00    +0.000 HD
ATOM     34  C   UNL     1      48.300  34.331  33.474  0.00  0.00    +0.000 A 
ATOM     35  H   UNL     1      48.623  35.273  33.059  0.00  0.00    +0.000 HD
ATOM     36  C   UNL     1      48.464  33.160  32.761  0.00  0.00    +0.000 A 
ATOM     37  C   UNL     1      48.075  31.897  33.221  0.00  0.00    +0.000 A 
BRANCH  30  39
ATOM     38  N   UNL     1      46.721  29.518  35.413  0.00  0.00    +0.000 NA
ATOM     39  C   UNL     1      47.072  30.554  34.990  0.00  0.00    +0.000 C 
ENDBRANCH  30  39
ENDBRANCH   7  31
TORSDOF 4
