
 OpenBabel03252507193D

 45 48  0  0  1  0  0  0  0  0999 V2000
   46.9800   32.8900   43.4570 C   0  0  0  0  0  0  0  0  0  0  0  0
   48.1520   32.7920   43.9050 O   0  0  0  0  0  0  0  0  0  0  0  0
   46.4510   32.0570   42.4240 N   0  0  0  0  0  0  0  0  0  0  0  0
   45.1660   31.3730   42.3140 C   0  0  0  0  0  0  0  0  0  0  0  0
   44.5180   31.7350   40.9590 C   0  0  0  0  0  0  0  0  0  0  0  0
   45.3750   31.1810   39.8450 C   0  0  0  0  0  0  0  0  0  0  0  0
   46.7180   30.7770   40.3850 C   0  0  0  0  0  0  0  0  0  0  0  0
   47.2970   31.8360   41.2840 C   0  0  2  0  0  0  0  0  0  0  0  0
   44.4560   31.8400   43.0550 H   0  0  0  0  0  0  0  0  0  0  0  0
   45.2300   30.2920   42.4020 H   0  0  0  0  0  0  0  0  0  0  0  0
   43.4820   31.4030   40.9440 H   0  0  0  0  0  0  0  0  0  0  0  0
   44.6400   32.8470   40.9080 H   0  0  0  0  0  0  0  0  0  0  0  0
   45.4580   31.8630   38.9760 H   0  0  0  0  0  0  0  0  0  0  0  0
   44.8840   30.2510   39.4720 H   0  0  0  0  0  0  0  0  0  0  0  0
   47.4220   30.5720   39.5580 H   0  0  0  0  0  0  0  0  0  0  0  0
   46.6240   29.8070   40.9350 H   0  0  0  0  0  0  0  0  0  0  0  0
   47.2040   32.7910   40.6840 H   0  0  0  0  0  0  0  0  0  0  0  0
   45.7420   34.9810   43.1890 C   0  0  0  0  0  0  0  0  0  0  0  0
   46.1250   33.9060   44.0230 C   0  0  0  0  0  0  0  0  0  0  0  0
   45.6790   33.8600   45.3260 C   0  0  0  0  0  0  0  0  0  0  0  0
   44.8800   34.8570   45.7650 N   0  0  0  0  0  0  0  0  0  0  0  0
   44.5030   35.8940   44.9770 C   0  0  0  0  0  0  0  0  0  0  0  0
   44.9420   35.9350   43.7040 N   0  0  0  0  0  0  0  0  0  0  0  0
   46.0870   35.0260   42.1630 H   0  0  0  0  0  0  0  0  0  0  0  0
   43.8630   36.6310   45.4360 H   0  0  0  0  0  0  0  0  0  0  0  0
   46.0920   32.7530   46.1640 C   0  0  0  0  0  0  0  0  0  0  0  0
   45.5280   31.5230   45.9980 C   0  0  0  0  0  0  0  0  0  0  0  0
   45.9280   30.4800   46.8010 C   0  0  0  0  0  0  0  0  0  0  0  0
   46.8960   30.6210   47.7910 C   0  0  0  0  0  0  0  0  0  0  0  0
   47.4290   31.8890   47.9110 C   0  0  0  0  0  0  0  0  0  0  0  0
   47.0150   32.8830   47.1090 N   0  0  0  0  0  0  0  0  0  0  0  0
   44.7670   31.2520   45.2840 H   0  0  0  0  0  0  0  0  0  0  0  0
   45.5110   29.4730   46.7130 H   0  0  0  0  0  0  0  0  0  0  0  0
   47.2320   29.8230   48.4380 H   0  0  0  0  0  0  0  0  0  0  0  0
   48.1900   32.1460   48.6380 H   0  0  0  0  0  0  0  0  0  0  0  0
   49.2150   30.5030   42.1720 C   0  0  0  0  0  0  0  0  0  0  0  0
   48.7170   31.6520   41.5450 C   0  0  0  0  0  0  0  0  0  0  0  0
   49.7410   32.5570   41.2400 C   0  0  0  0  0  0  0  0  0  0  0  0
   49.4400   33.4760   40.7520 H   0  0  0  0  0  0  0  0  0  0  0  0
   51.0760   32.3570   41.5170 C   0  0  0  0  0  0  0  0  0  0  0  0
   51.8080   33.1060   41.2500 H   0  0  0  0  0  0  0  0  0  0  0  0
   51.4530   31.1860   42.1390 C   0  0  0  0  0  3  0  0  0  0  0  0
   50.5290   30.2220   42.4840 C   0  0  0  0  0  3  0  0  0  0  0  0
   47.4160   28.7120   42.8060 N   0  0  0  0  0  0  0  0  0  0  0  0
   48.2090   29.5130   42.5200 C   0  0  0  0  0  0  0  0  0  0  0  0
  1  2  2  0  0  0  0
  1 19  1  0  0  0  0
  3  1  1  0  0  0  0
  4 10  1  0  0  0  0
  4  3  1  0  0  0  0
  4  9  1  0  0  0  0
  5  4  1  0  0  0  0
  6  7  1  0  0  0  0
  6  5  1  0  0  0  0
  7 16  1  0  0  0  0
  7  8  1  0  0  0  0
  8 17  1  6  0  0  0
  8 37  1  0  0  0  0
  8  3  1  0  0  0  0
 11  5  1  0  0  0  0
 12  5  1  0  0  0  0
 13  6  1  0  0  0  0
 14  6  1  0  0  0  0
 15  7  1  0  0  0  0
 18 23  2  0  0  0  0
 18 19  1  0  0  0  0
 19 20  2  0  0  0  0
 20 21  1  0  0  0  0
 20 26  1  0  0  0  0
 22 25  1  0  0  0  0
 22 21  2  0  0  0  0
 23 22  1  0  0  0  0
 24 18  1  0  0  0  0
 26 31  1  0  0  0  0
 27 26  2  0  0  0  0
 27 28  1  0  0  0  0
 28 29  2  0  0  0  0
 29 30  1  0  0  0  0
 29 34  1  0  0  0  0
 30 35  1  0  0  0  0
 31 30  2  0  0  0  0
 32 27  1  0  0  0  0
 33 28  1  0  0  0  0
 36 43  1  0  0  0  0
 36 45  1  0  0  0  0
 37 36  2  0  0  0  0
 38 40  2  0  0  0  0
 38 37  1  0  0  0  0
 39 38  1  0  0  0  0
 40 42  1  0  0  0  0
 41 40  1  0  0  0  0
 42 43  2  0  0  0  0
 45 44  3  0  0  0  0
M  END
>  <minimizedAffinity>
-4.92623758

>  <minimizedRMSD>
1.6229459

$$$$
