
 OpenBabel03242522303D

 40 43  0  0  0  0  0  0  0  0999 V2000
   45.3200   33.1950   41.1660 F   0  0  0  0  0  0  0  0  0  0  0  0
   46.4620   33.9100   41.0080 C   0  0  0  0  0  0  0  0  0  0  0  0
   46.9160   34.7230   41.9850 C   0  0  0  0  0  0  0  0  0  0  0  0
   48.0910   35.4170   41.7350 C   0  0  0  0  0  0  0  0  0  0  0  0
   48.7830   35.3010   40.5580 C   0  0  0  0  0  0  0  0  0  0  0  0
   48.2610   34.4550   39.6150 C   0  0  0  0  0  0  0  0  0  0  0  0
   47.1130   33.7500   39.8030 C   0  0  0  0  0  0  0  0  0  0  0  0
   48.4470   36.0720   42.5340 H   0  0  0  0  0  0  0  0  0  0  0  0
   49.6800   35.8690   40.4470 H   0  0  0  0  0  0  0  0  0  0  0  0
   48.8130   34.3660   38.6830 H   0  0  0  0  0  0  0  0  0  0  0  0
   46.6630   32.8890   38.7320 C   0  0  0  0  0  0  0  0  0  0  0  0
   46.2270   31.6040   39.0230 C   0  0  0  0  0  0  0  0  0  0  0  0
   45.8030   30.8030   38.0050 C   0  0  0  0  0  0  0  0  0  0  0  0
   45.8010   31.2550   36.6880 C   0  0  0  0  0  0  0  0  0  0  0  0
   46.2500   32.5560   36.4510 C   0  0  0  0  0  0  0  0  0  0  0  0
   46.6810   33.3760   37.4680 C   0  0  0  0  0  0  0  0  0  0  0  0
   46.2460   31.2880   40.0770 H   0  0  0  0  0  0  0  0  0  0  0  0
   45.4770   29.8130   38.3000 H   0  0  0  0  0  0  0  0  0  0  0  0
   45.4530   30.5720   35.9260 H   0  0  0  0  0  0  0  0  0  0  0  0
   46.2000   32.7880   35.3960 H   0  0  0  0  0  0  0  0  0  0  0  0
   47.0660   34.5880   36.9800 O   0  0  0  0  0  0  0  0  0  0  0  0
   46.3570   35.2480   36.6780 H   0  0  0  0  0  0  0  0  0  0  0  0
   44.5170   35.8850   44.6640 C   0  0  0  0  0  0  0  0  0  0  0  0
   45.2310   35.8250   43.4660 C   0  0  0  0  0  0  0  0  0  0  0  0
   46.1440   34.8190   43.2330 C   0  0  0  0  0  0  0  0  0  0  0  0
   46.2930   33.9150   44.2300 N   0  0  0  0  0  0  0  0  0  0  0  0
   45.6130   33.9700   45.3710 C   0  0  0  0  0  0  0  0  0  0  0  0
   44.7220   34.9570   45.5910 N   0  0  0  0  0  0  0  0  0  0  0  0
   43.7930   36.6800   44.8480 H   0  0  0  0  0  0  0  0  0  0  0  0
   45.0600   36.5860   42.7100 H   0  0  0  0  0  0  0  0  0  0  0  0
   46.6720   31.8680   46.0370 C   0  0  0  0  0  0  0  0  0  0  0  0
   45.8640   32.9350   46.3710 C   0  0  0  0  0  0  0  0  0  0  0  0
   45.2760   33.0720   47.6120 C   0  0  0  0  0  0  0  0  0  0  0  0
   44.6370   33.9320   47.8520 H   0  0  0  0  0  0  0  0  0  0  0  0
   45.4910   32.1030   48.5920 C   0  0  0  0  0  0  0  0  0  0  0  0
   45.0040   32.2680   49.5440 H   0  0  0  0  0  0  0  0  0  0  0  0
   46.2950   31.0210   48.2920 C   0  0  0  0  0  0  0  0  0  0  0  0
   46.8680   30.9150   47.0400 C   0  0  0  0  0  0  0  0  0  0  0  0
   47.7830   31.6010   43.6970 N   0  0  0  0  0  0  0  0  0  0  0  0
   47.2800   31.7300   44.7430 C   0  0  0  0  0  0  0  0  0  0  0  0
  2  1  1  0  0  0  0
  2  3  1  0  0  0  0
  3 25  1  0  0  0  0
  4  3  2  0  0  0  0
  4  8  1  0  0  0  0
  5  4  1  0  0  0  0
  6  7  1  0  0  0  0
  6  5  2  0  0  0  0
  7  2  2  0  0  0  0
  9  5  1  0  0  0  0
 10  6  1  0  0  0  0
 11 12  1  0  0  0  0
 11  7  1  0  0  0  0
 12 17  1  0  0  0  0
 13 18  1  0  0  0  0
 13 12  2  0  0  0  0
 14 13  1  0  0  0  0
 15 14  2  0  0  0  0
 15 16  1  0  0  0  0
 16 11  2  0  0  0  0
 19 14  1  0  0  0  0
 20 15  1  0  0  0  0
 21 16  1  0  0  0  0
 22 21  1  0  0  0  0
 23 29  1  0  0  0  0
 23 28  1  0  0  0  0
 24 23  2  0  0  0  0
 25 24  1  0  0  0  0
 25 26  2  0  0  0  0
 26 27  1  0  0  0  0
 27 28  2  0  0  0  0
 27 32  1  0  0  0  0
 30 24  1  0  0  0  0
 31 32  2  0  0  0  0
 31 38  1  0  0  0  0
 32 33  1  0  0  0  0
 33 34  1  0  0  0  0
 33 35  2  0  0  0  0
 35 36  1  0  0  0  0
 37 35  1  0  0  0  0
 38 37  2  0  0  0  0
 39 40  3  0  0  0  0
 40 31  1  0  0  0  0
M  END
>  <minimizedAffinity>
-7.56677771

>  <minimizedRMSD>
0.603988886

$$$$
