
     RDKit          3D

 36 38  0  0  0  0  0  0  0  0999 V2000
   44.5619   35.6858   44.8642 C   0  0  0  0  0  0  0  0  0  0  0  0
   45.1853   35.5634   43.6024 C   0  0  0  0  0  0  0  0  0  0  0  0
   46.1027   34.5295   43.3901 C   0  0  0  0  0  0  0  0  0  0  0  0
   46.3364   33.6944   44.4371 N   0  0  0  0  0  0  0  0  0  0  0  0
   45.7447   33.8106   45.6347 C   0  0  0  0  0  0  0  0  0  0  0  0
   44.8509   34.8145   45.8482 N   0  0  0  0  0  0  0  0  0  0  0  0
   46.0314   32.8981   46.7039 N   0  0  0  0  0  0  0  0  0  0  0  0
   45.0707   32.8007   47.7834 C   0  0  0  0  0  0  0  0  0  0  0  0
   45.6335   32.1606   49.0194 C   0  0  0  0  0  0  0  0  0  0  0  0
   46.4651   30.9985   48.5984 C   0  0  0  0  0  0  0  0  0  0  0  0
   47.6820   31.5541   47.9016 C   0  0  0  0  0  0  0  0  0  0  0  0
   47.2595   32.1569   46.6036 C   0  0  1  0  0  0  0  0  0  0  0  0
   43.8569   36.4795   45.0292 H   0  0  0  0  0  0  0  0  0  0  0  0
   44.9587   36.2614   42.8024 H   0  0  0  0  0  0  0  0  0  0  0  0
   46.6016   34.3935   42.4534 H   0  0  0  0  0  0  0  0  0  0  0  0
   44.2675   32.1181   47.4268 H   0  0  0  0  0  0  0  0  0  0  0  0
   44.5772   33.7762   47.9882 H   0  0  0  0  0  0  0  0  0  0  0  0
   46.2588   32.8677   49.6201 H   0  0  0  0  0  0  0  0  0  0  0  0
   44.7715   31.9141   49.6761 H   0  0  0  0  0  0  0  0  0  0  0  0
   46.7920   30.3680   49.4750 H   0  0  0  0  0  0  0  0  0  0  0  0
   45.8505   30.3277   47.9845 H   0  0  0  0  0  0  0  0  0  0  0  0
   48.1779   32.2440   48.5924 H   0  0  0  0  0  0  0  0  0  0  0  0
   48.3754   30.6937   47.7149 H   0  0  0  0  0  0  0  0  0  0  0  0
   48.0357   32.9518   46.3962 H   0  0  0  0  0  0  0  0  0  0  0  0
   45.8549   29.1414   47.7547 N   0  0  0  0  0  0  0  0  0  0  0  0
   46.2988   29.5058   46.7317 C   0  0  0  0  0  0  0  0  0  0  0  0
   46.8622   29.9478   45.4876 C   0  0  0  0  0  0  0  0  0  0  0  0
   47.3292   31.2498   45.4395 C   0  0  0  0  0  0  0  0  0  0  0  0
   47.8692   31.6534   44.2261 C   0  0  0  0  0  0  0  0  0  0  0  0
   48.2628   32.6689   44.0993 H   0  0  0  0  0  0  0  0  0  0  0  0
   47.9418   30.8192   43.1296 C   0  0  0  0  0  0  0  0  0  0  0  0
   48.3676   31.1567   42.1930 H   0  0  0  0  0  0  0  0  0  0  0  0
   47.4564   29.5255   43.2423 C   0  0  0  0  0  0  0  0  0  0  0  0
   46.9033   29.0609   44.4313 C   0  0  0  0  0  0  0  0  0  0  0  0
   47.4841   28.8244   42.4219 H   0  0  0  0  0  0  0  0  0  0  0  0
   46.5202   28.0460   44.5270 H   0  0  0  0  0  0  0  0  0  0  0  0
  1  6  2  0
  2  1  1  0
  3  2  2  0
  3  4  1  0
  4  5  2  0
  5  6  1  0
  5  7  1  0
  7  8  1  0
  8  9  1  0
 10  9  1  0
 11 10  1  0
 12  7  1  0
 12 11  1  0
  1 13  1  0
  2 14  1  0
  3 15  1  0
  8 16  1  0
  8 17  1  0
  9 18  1  0
  9 19  1  0
 10 20  1  0
 10 21  1  0
 11 22  1  0
 11 23  1  0
 12 24  1  6
 25 26  3  0
 26 27  1  0
 27 28  2  0
 28 29  1  0
 29 30  1  0
 29 31  2  0
 31 32  1  0
 31 33  1  0
 33 34  2  0
 34 27  1  0
 33 35  1  0
 34 36  1  0
 12 28  1  0
M  ISO  8  13  14  14  14  15  14  16  13  17  13  18  13  19  13  20  13
M  ISO  6  21  13  22  13  23  13  24  13  30  15  32  16
M  END
>  <DihAtoms>  (1) 
6,11,27,26

>  <DihDeg>  (1) 
136.90938966027906

$$$$
