
 OpenBabel03242521173D

 39 41  0  0  0  0  0  0  0  0999 V2000
   46.8210   32.4280   46.6980 C   0  0  0  0  0  0  0  0  0  0  0  0
   47.2360   31.6330   46.0310 H   0  0  0  0  0  0  0  0  0  0  0  0
   47.6500   32.8810   47.2810 H   0  0  0  0  0  0  0  0  0  0  0  0
   44.6890   35.1430   45.2310 C   0  0  0  0  0  0  0  0  0  0  0  0
   45.2210   35.1960   43.9220 C   0  0  0  0  0  0  0  0  0  0  0  0
   46.2570   34.3140   43.6340 C   0  0  0  0  0  0  0  0  0  0  0  0
   46.7010   33.4560   44.6100 N   0  0  0  0  0  0  0  0  0  0  0  0
   46.1560   33.4550   45.8290 C   0  0  0  0  0  0  0  0  0  0  0  0
   45.1420   34.2920   46.1720 N   0  0  0  0  0  0  0  0  0  0  0  0
   43.8790   35.8060   45.5180 H   0  0  0  0  0  0  0  0  0  0  0  0
   44.8350   35.8880   43.2030 H   0  0  0  0  0  0  0  0  0  0  0  0
   46.8110   34.3490   42.3180 N   0  0  0  0  0  0  0  0  0  0  0  0
   47.8840   35.1430   42.1000 C   0  0  0  0  0  0  0  0  0  0  0  0
   48.4220   35.1800   40.8220 C   0  0  0  0  0  0  0  0  0  0  0  0
   47.8590   34.4250   39.8470 C   0  0  0  0  0  0  0  0  0  0  0  0
   48.3640   34.4690   38.6790 O   0  0  0  0  0  0  0  0  0  0  0  0
   46.7940   33.6300   40.0450 N   0  0  0  0  0  0  0  0  0  0  0  0
   46.2910   33.6180   41.3110 C   0  0  0  0  0  0  0  0  0  0  0  0
   45.3040   32.9200   41.6140 O   0  0  0  0  0  0  0  0  0  0  0  0
   48.3350   35.7450   42.8790 H   0  0  0  0  0  0  0  0  0  0  0  0
   49.2890   35.8220   40.6480 H   0  0  0  0  0  0  0  0  0  0  0  0
   46.3490   33.0410   39.2920 H   0  0  0  0  0  0  0  0  0  0  0  0
   45.8330   31.8520   47.6890 C   0  0  0  0  0  0  0  0  0  0  0  0
   46.3570   31.3400   48.5390 H   0  0  0  0  0  0  0  0  0  0  0  0
   45.1850   32.6710   48.0650 H   0  0  0  0  0  0  0  0  0  0  0  0
   45.4150   29.5820   46.7640 C   0  0  0  0  0  0  0  0  0  0  0  0
   46.4490   29.2880   47.3990 O   0  0  0  0  0  0  0  0  0  0  0  0
   44.9740   30.9130   46.9870 N   0  0  0  0  0  0  0  0  0  0  0  0
   44.0320   31.2690   46.6620 H   0  0  0  0  0  0  0  0  0  0  0  0
   44.0360   27.6280   46.3350 C   0  0  0  0  0  0  0  0  0  0  0  0
   44.5740   28.8220   45.8390 C   0  0  0  0  0  0  0  0  0  0  0  0
   44.2860   29.1990   44.5440 C   0  0  0  0  0  0  0  0  0  0  0  0
   44.7120   30.1180   44.1920 H   0  0  0  0  0  0  0  0  0  0  0  0
   43.4730   28.3800   43.7810 C   0  0  0  0  0  0  0  0  0  0  0  0
   43.2390   28.6780   42.7440 H   0  0  0  0  0  0  0  0  0  0  0  0
   42.9250   27.1950   44.2410 C   0  0  0  0  0  3  0  0  0  0  0  0
   43.2200   26.8220   45.5470 C   0  0  0  0  0  3  0  0  0  0  0  0
   44.5260   26.8640   48.7760 N   0  0  0  0  0  0  0  0  0  0  0  0
   44.3150   27.1920   47.6940 C   0  0  0  0  0  0  0  0  0  0  0  0
  1  3  1  0  0  0  0
  1 23  1  0  0  0  0
  2  1  1  0  0  0  0
  4 10  1  0  0  0  0
  4  9  1  0  0  0  0
  5  4  2  0  0  0  0
  6  5  1  0  0  0  0
  6  7  2  0  0  0  0
  7  8  1  0  0  0  0
  8  9  2  0  0  0  0
  8  1  1  0  0  0  0
 11  5  1  0  0  0  0
 12  6  1  0  0  0  0
 13 12  1  0  0  0  0
 13 20  1  0  0  0  0
 14 13  2  0  0  0  0
 15 17  1  0  0  0  0
 15 14  1  0  0  0  0
 16 15  2  0  0  0  0
 17 18  1  0  0  0  0
 18 19  2  0  0  0  0
 18 12  1  0  0  0  0
 21 14  1  0  0  0  0
 22 17  1  0  0  0  0
 23 25  1  0  0  0  0
 23 24  1  0  0  0  0
 26 28  1  0  0  0  0
 26 27  2  0  0  0  0
 28 23  1  0  0  0  0
 29 28  1  0  0  0  0
 30 39  1  0  0  0  0
 31 30  1  0  0  0  0
 31 26  1  0  0  0  0
 32 31  2  0  0  0  0
 33 32  1  0  0  0  0
 34 36  2  0  0  0  0
 34 32  1  0  0  0  0
 35 34  1  0  0  0  0
 36 37  1  0  0  0  0
 37 30  2  0  0  0  0
 39 38  3  0  0  0  0
M  END
>  <minimizedAffinity>
-5.66270685

>  <minimizedRMSD>
2.3875227

$$$$
