
 OpenBabel03242521433D

 39 41  0  0  1  0  0  0  0  0999 V2000
   45.1280   36.3110   43.6890 C   0  0  0  0  0  0  0  0  0  0  0  0
   45.9770   35.2360   43.3850 C   0  0  0  0  0  0  0  0  0  0  0  0
   46.0720   34.1650   44.2860 C   0  0  0  0  0  0  0  0  0  0  0  0
   45.3390   34.2270   45.3970 N   0  0  0  0  0  0  0  0  0  0  0  0
   44.5240   35.2710   45.6770 C   0  0  0  0  0  0  0  0  0  0  0  0
   44.4180   36.3130   44.8230 N   0  0  0  0  0  0  0  0  0  0  0  0
   46.5080   35.3200   42.4500 H   0  0  0  0  0  0  0  0  0  0  0  0
   43.9870   35.1970   46.6090 H   0  0  0  0  0  0  0  0  0  0  0  0
   48.0610   33.4650   42.9700 C   0  0  2  0  0  0  0  0  0  0  0  0
   46.9670   33.0900   43.9090 C   0  0  2  0  0  0  0  0  0  0  0  0
   46.3460   32.0320   43.1840 O   0  0  0  0  0  0  0  0  0  0  0  0
   47.4160   31.2200   42.8760 C   0  0  0  0  0  0  0  0  0  0  0  0
   48.6610   32.0610   42.7660 C   0  0  1  0  0  0  0  0  0  0  0  0
   47.6380   33.7630   41.9710 H   0  0  0  0  0  0  0  0  0  0  0  0
   47.4190   32.5590   44.7950 H   0  0  0  0  0  0  0  0  0  0  0  0
   47.5370   30.3610   43.5890 H   0  0  0  0  0  0  0  0  0  0  0  0
   47.2380   30.7550   41.8820 H   0  0  0  0  0  0  0  0  0  0  0  0
   49.3860   31.8430   43.5500 H   0  0  0  0  0  0  0  0  0  0  0  0
   48.9530   34.3700   43.4630 O   0  0  0  0  0  0  0  0  0  0  0  0
   48.4310   35.0700   43.9170 H   0  0  0  0  0  0  0  0  0  0  0  0
   49.2650   32.0090   41.5150 O   0  0  0  0  0  0  0  0  0  0  0  0
   48.6150   32.1850   40.7970 H   0  0  0  0  0  0  0  0  0  0  0  0
   45.0440   37.4560   42.7190 C   0  0  0  0  0  0  0  0  0  0  0  0
   46.0220   37.6050   42.2390 H   0  0  0  0  0  0  0  0  0  0  0  0
   44.2760   37.2150   41.9560 H   0  0  0  0  0  0  0  0  0  0  0  0
   45.5550   39.7030   43.8430 C   0  0  0  0  0  0  0  0  0  0  0  0
   46.7680   39.6060   43.5030 O   0  0  0  0  0  0  0  0  0  0  0  0
   44.6930   38.6320   43.5070 N   0  0  0  0  0  0  0  0  0  0  0  0
   43.7040   38.7120   43.8730 H   0  0  0  0  0  0  0  0  0  0  0  0
   44.7330   40.6270   45.8870 C   0  0  0  0  0  0  0  0  0  0  0  0
   45.0490   40.8760   44.5560 C   0  0  0  0  0  0  0  0  0  0  0  0
   44.8600   42.1500   44.0640 C   0  0  0  0  0  0  0  0  0  0  0  0
   45.1240   42.2730   43.0280 H   0  0  0  0  0  0  0  0  0  0  0  0
   44.3700   43.1460   44.8810 C   0  0  0  0  0  0  0  0  0  0  0  0
   44.2310   44.1310   44.4760 H   0  0  0  0  0  0  0  0  0  0  0  0
   44.0430   42.9400   46.2120 C   0  0  0  0  0  3  0  0  0  0  0  0
   44.2430   41.6410   46.6850 C   0  0  0  0  0  3  0  0  0  0  0  0
   45.0180   38.2780   46.9800 N   0  0  0  0  0  0  0  0  0  0  0  0
   44.8930   39.3230   46.5060 C   0  0  0  0  0  0  0  0  0  0  0  0
  1  6  1  0  0  0  0
  2  1  2  0  0  0  0
  2  3  1  0  0  0  0
  3  4  2  0  0  0  0
  4  5  1  0  0  0  0
  5  8  1  0  0  0  0
  6  5  2  0  0  0  0
  7  2  1  0  0  0  0
  9 14  1  6  0  0  0
  9 19  1  0  0  0  0
  9 10  1  0  0  0  0
 10  3  1  0  0  0  0
 10 15  1  1  0  0  0
 11 10  1  0  0  0  0
 12 11  1  0  0  0  0
 12 16  1  0  0  0  0
 13 12  1  0  0  0  0
 13  9  1  0  0  0  0
 13 18  1  1  0  0  0
 17 12  1  0  0  0  0
 19 20  1  0  0  0  0
 21 13  1  0  0  0  0
 22 21  1  0  0  0  0
 23 28  1  0  0  0  0
 23  1  1  0  0  0  0
 24 23  1  0  0  0  0
 25 23  1  0  0  0  0
 26 31  1  0  0  0  0
 27 26  2  0  0  0  0
 28 26  1  0  0  0  0
 28 29  1  0  0  0  0
 30 39  1  0  0  0  0
 30 37  1  0  0  0  0
 31 30  2  0  0  0  0
 32 31  1  0  0  0  0
 32 34  2  0  0  0  0
 33 32  1  0  0  0  0
 34 36  1  0  0  0  0
 35 34  1  0  0  0  0
 36 37  2  0  0  0  0
 39 38  3  0  0  0  0
M  END
>  <minimizedAffinity>
1.15027678

>  <minimizedRMSD>
1.61883235

$$$$
