
 OpenBabel03242521173D

 39 41  0  0  0  0  0  0  0  0999 V2000
   46.2870   32.9920   46.5290 C   0  0  0  0  0  0  0  0  0  0  0  0
   46.6160   32.1020   45.9380 H   0  0  0  0  0  0  0  0  0  0  0  0
   47.1540   33.3930   47.0940 H   0  0  0  0  0  0  0  0  0  0  0  0
   44.4670   35.7670   44.7820 C   0  0  0  0  0  0  0  0  0  0  0  0
   45.0820   35.7060   43.5100 C   0  0  0  0  0  0  0  0  0  0  0  0
   46.0630   34.7350   43.3390 C   0  0  0  0  0  0  0  0  0  0  0  0
   46.3780   33.9040   44.3860 N   0  0  0  0  0  0  0  0  0  0  0  0
   45.7590   34.0130   45.5650 C   0  0  0  0  0  0  0  0  0  0  0  0
   44.7930   34.9410   45.7940 N   0  0  0  0  0  0  0  0  0  0  0  0
   43.6940   36.5030   44.9780 H   0  0  0  0  0  0  0  0  0  0  0  0
   44.7980   36.3820   42.7310 H   0  0  0  0  0  0  0  0  0  0  0  0
   46.7010   34.6530   42.0640 N   0  0  0  0  0  0  0  0  0  0  0  0
   47.9250   35.2110   41.9260 C   0  0  0  0  0  0  0  0  0  0  0  0
   48.5440   35.1350   40.6870 C   0  0  0  0  0  0  0  0  0  0  0  0
   47.9050   34.5090   39.6680 C   0  0  0  0  0  0  0  0  0  0  0  0
   48.4870   34.4470   38.5370 O   0  0  0  0  0  0  0  0  0  0  0  0
   46.6900   33.9490   39.7860 N   0  0  0  0  0  0  0  0  0  0  0  0
   46.1110   34.0430   41.0150 C   0  0  0  0  0  0  0  0  0  0  0  0
   44.9850   33.5610   41.2440 O   0  0  0  0  0  0  0  0  0  0  0  0
   48.4360   35.7100   42.7410 H   0  0  0  0  0  0  0  0  0  0  0  0
   49.5330   35.5870   40.5790 H   0  0  0  0  0  0  0  0  0  0  0  0
   46.1870   33.4620   38.9980 H   0  0  0  0  0  0  0  0  0  0  0  0
   45.2240   32.6170   47.5390 C   0  0  0  0  0  0  0  0  0  0  0  0
   45.5430   32.8730   48.5840 H   0  0  0  0  0  0  0  0  0  0  0  0
   44.2820   33.1410   47.2780 H   0  0  0  0  0  0  0  0  0  0  0  0
   45.6210   30.2830   48.2980 C   0  0  0  0  0  0  0  0  0  0  0  0
   46.2170   30.8420   49.2420 O   0  0  0  0  0  0  0  0  0  0  0  0
   44.9660   31.1910   47.4250 N   0  0  0  0  0  0  0  0  0  0  0  0
   44.2850   30.8800   46.6780 H   0  0  0  0  0  0  0  0  0  0  0  0
   46.3930   28.3870   46.9870 C   0  0  0  0  0  0  0  0  0  0  0  0
   45.4700   28.8770   47.9190 C   0  0  0  0  0  0  0  0  0  0  0  0
   44.5020   28.0280   48.4130 C   0  0  0  0  0  0  0  0  0  0  0  0
   43.8090   28.4310   49.1270 H   0  0  0  0  0  0  0  0  0  0  0  0
   44.4790   26.7180   47.9660 C   0  0  0  0  0  0  0  0  0  0  0  0
   43.7060   26.0350   48.3580 H   0  0  0  0  0  0  0  0  0  0  0  0
   45.3750   26.2040   47.0470 C   0  0  0  0  0  3  0  0  0  0  0  0
   46.3470   27.0660   46.5540 C   0  0  0  0  0  3  0  0  0  0  0  0
   48.2560   29.9320   46.0270 N   0  0  0  0  0  0  0  0  0  0  0  0
   47.4300   29.2480   46.4410 C   0  0  0  0  0  0  0  0  0  0  0  0
  1  3  1  0  0  0  0
  1 23  1  0  0  0  0
  2  1  1  0  0  0  0
  4 10  1  0  0  0  0
  4  9  1  0  0  0  0
  5  4  2  0  0  0  0
  6  5  1  0  0  0  0
  6  7  2  0  0  0  0
  7  8  1  0  0  0  0
  8  9  2  0  0  0  0
  8  1  1  0  0  0  0
 11  5  1  0  0  0  0
 12  6  1  0  0  0  0
 13 12  1  0  0  0  0
 13 20  1  0  0  0  0
 14 13  2  0  0  0  0
 15 17  1  0  0  0  0
 15 14  1  0  0  0  0
 16 15  2  0  0  0  0
 17 18  1  0  0  0  0
 18 19  2  0  0  0  0
 18 12  1  0  0  0  0
 21 14  1  0  0  0  0
 22 17  1  0  0  0  0
 23 24  1  0  0  0  0
 25 23  1  0  0  0  0
 26 27  2  0  0  0  0
 28 23  1  0  0  0  0
 28 26  1  0  0  0  0
 29 28  1  0  0  0  0
 30 31  1  0  0  0  0
 31 26  1  0  0  0  0
 31 32  2  0  0  0  0
 32 33  1  0  0  0  0
 34 35  1  0  0  0  0
 34 32  1  0  0  0  0
 36 34  2  0  0  0  0
 37 30  2  0  0  0  0
 37 36  1  0  0  0  0
 38 39  3  0  0  0  0
 39 30  1  0  0  0  0
M  END
>  <minimizedAffinity>
-6.20548296

>  <minimizedRMSD>
1.60193825

$$$$
