REMARK  Name = 
REMARK  6 active torsions:
REMARK  status: ('A' for Active; 'I' for Inactive)
REMARK    1  A    between atoms: C_3  and  N_7
REMARK    2  A    between atoms: C_5  and  C_15
REMARK    3  A    between atoms: C_15  and  C_16
REMARK    4  A    between atoms: C_16  and  N_19
REMARK    5  A    between atoms: C_17  and  C_33
REMARK    6  A    between atoms: C_31  and  C_32
REMARK                            x       y       z     vdW  Elec       q    Type
REMARK                         _______ _______ _______ _____ _____    ______ ____
ROOT
ATOM      1  C   UNL     1      46.044  32.801  46.465  0.00  0.00    +0.000 C 
ATOM      2  H   UNL     1      45.878  31.837  45.924  0.00  0.00    +0.000 HD
ATOM      3  H   UNL     1      47.119  32.888  46.728  0.00  0.00    +0.000 HD
ENDROOT
BRANCH   1   8
ATOM      4  C   UNL     1      44.517  35.826  44.858  0.00  0.00    +0.000 A 
ATOM      5  C   UNL     1      45.131  35.769  43.586  0.00  0.00    +0.000 A 
ATOM      6  C   UNL     1      46.013  34.716  43.367  0.00  0.00    +0.000 A 
ATOM      7  N   UNL     1      46.238  33.806  44.371  0.00  0.00    +0.000 NA
ATOM      8  C   UNL     1      45.625  33.916  45.553  0.00  0.00    +0.000 A 
ATOM      9  N   UNL     1      44.754  34.922  45.828  0.00  0.00    +0.000 NA
ATOM     10  H   UNL     1      43.819  36.624  45.091  0.00  0.00    +0.000 HD
ATOM     11  H   UNL     1      44.919  36.508  42.842  0.00  0.00    +0.000 HD
BRANCH   6  12
ATOM     12  N   UNL     1      46.647  34.636  42.090  0.00  0.00    +0.000 N 
ATOM     13  C   UNL     1      47.893  35.147  41.964  0.00  0.00    +0.000 A 
ATOM     14  C   UNL     1      48.509  35.073  40.723  0.00  0.00    +0.000 A 
ATOM     15  C   UNL     1      47.846  34.495  39.691  0.00  0.00    +0.000 A 
ATOM     16  O   UNL     1      48.425  34.434  38.559  0.00  0.00    +0.000 OA
ATOM     17  N   UNL     1      46.609  33.982  39.798  0.00  0.00    +0.000 N 
ATOM     18  C   UNL     1      46.034  34.072  41.029  0.00  0.00    +0.000 A 
ATOM     19  O   UNL     1      44.889  33.631  41.248  0.00  0.00    +0.000 OA
ATOM     20  H   UNL     1      48.423  35.608  42.789  0.00  0.00    +0.000 HD
ATOM     21  H   UNL     1      49.515  35.487  40.624  0.00  0.00    +0.000 HD
ATOM     22  H   UNL     1      46.087  33.532  39.000  0.00  0.00    +0.000 HD
ENDBRANCH   6  12
ENDBRANCH   1   8
BRANCH   1  23
ATOM     23  C   UNL     1      45.257  32.848  47.756  0.00  0.00    +0.000 C 
ATOM     24  H   UNL     1      45.920  33.078  48.632  0.00  0.00    +0.000 HD
ATOM     25  H   UNL     1      44.457  33.611  47.660  0.00  0.00    +0.000 HD
BRANCH  23  28
ATOM     26  C   UNL     1      45.187  30.590  48.795  0.00  0.00    +0.000 C 
ATOM     27  O   UNL     1      46.130  31.033  49.483  0.00  0.00    +0.000 OA
ATOM     28  N   UNL     1      44.603  31.563  47.942  0.00  0.00    +0.000 N 
ATOM     29  H   UNL     1      43.697  31.401  47.420  0.00  0.00    +0.000 HD
BRANCH  26  31
ATOM     30  C   UNL     1      45.449  28.175  48.721  0.00  0.00    +0.000 A 
ATOM     31  C   UNL     1      44.571  29.266  48.700  0.00  0.00    +0.000 A 
ATOM     32  C   UNL     1      43.215  29.032  48.594  0.00  0.00    +0.000 A 
ATOM     33  H   UNL     1      42.567  29.887  48.581  0.00  0.00    +0.000 HD
ATOM     34  C   UNL     1      42.773  27.724  48.514  0.00  0.00    +0.000 A 
ATOM     35  H   UNL     1      41.690  27.533  48.429  0.00  0.00    +0.000 HD
ATOM     36  C   UNL     1      43.613  26.626  48.532  0.00  0.00    +0.000 A 
ATOM     37  C   UNL     1      44.978  26.869  48.638  0.00  0.00    +0.000 A 
BRANCH  30  39
ATOM     38  N   UNL     1      48.018  28.544  48.934  0.00  0.00    +0.000 NA
ATOM     39  C   UNL     1      46.885  28.376  48.830  0.00  0.00    +0.000 C 
ENDBRANCH  30  39
ENDBRANCH  26  31
ENDBRANCH  23  28
ENDBRANCH   1  23
TORSDOF 6
