
 OpenBabel03242520193D

 36 38  0  0  0  0  0  0  0  0999 V2000
   41.5270   35.4460   38.8000 C   0  0  0  0  0  0  0  0  0  0  0  0
   41.3830   35.0010   37.7970 H   0  0  0  0  0  0  0  0  0  0  0  0
   41.7620   36.5370   38.6800 H   0  0  0  0  0  0  0  0  0  0  0  0
   44.2000   34.4960   41.2730 C   0  0  0  0  0  0  0  0  0  0  0  0
   43.0960   35.1340   40.7040 C   0  0  0  0  0  0  0  0  0  0  0  0
   42.7000   34.7860   39.4200 C   0  0  0  0  0  0  0  0  0  0  0  0
   43.4240   33.8200   38.7740 N   0  0  0  0  0  0  0  0  0  0  0  0
   44.4930   33.2210   39.3640 C   0  0  0  0  0  0  0  0  0  0  0  0
   44.8790   33.5510   40.5960 N   0  0  0  0  0  0  0  0  0  0  0  0
   42.5950   35.8870   41.2850 H   0  0  0  0  0  0  0  0  0  0  0  0
   44.9930   32.4590   38.7510 H   0  0  0  0  0  0  0  0  0  0  0  0
   44.6340   34.8850   42.6420 C   0  0  0  0  0  0  0  0  0  0  0  0
   46.1480   35.3250   42.6620 C   0  0  0  0  0  0  0  0  0  0  0  0
   45.0210   36.2000   43.0120 C   0  0  0  0  0  0  0  0  0  0  0  0
   44.4260   34.1020   43.4310 H   0  0  0  0  0  0  0  0  0  0  0  0
   46.6510   35.4420   41.7060 H   0  0  0  0  0  0  0  0  0  0  0  0
   46.7770   34.8700   43.4630 H   0  0  0  0  0  0  0  0  0  0  0  0
   44.7330   37.0290   42.3060 H   0  0  0  0  0  0  0  0  0  0  0  0
   44.9370   36.5140   44.0830 H   0  0  0  0  0  0  0  0  0  0  0  0
   40.2980   35.3110   39.6570 C   0  0  0  0  0  0  0  0  0  0  0  0
   39.4810   35.9640   39.2310 H   0  0  0  0  0  0  0  0  0  0  0  0
   40.5090   35.7400   40.6370 H   0  0  0  0  0  0  0  0  0  0  0  0
   39.6500   33.3400   41.0110 C   0  0  0  0  0  0  0  0  0  0  0  0
   39.8380   33.9890   42.0910 O   0  0  0  0  0  0  0  0  0  0  0  0
   39.8250   33.9310   39.7310 N   0  0  0  0  0  0  0  0  0  0  0  0
   39.6110   33.3540   38.8980 H   0  0  0  0  0  0  0  0  0  0  0  0
   40.0540   30.9400   41.7670 C   0  0  0  0  0  0  0  0  0  0  0  0
   39.2480   31.9650   41.2800 C   0  0  0  0  0  0  0  0  0  0  0  0
   37.9230   31.5490   41.0590 C   0  0  0  0  0  0  0  0  0  0  0  0
   37.2670   32.3540   40.6790 H   0  0  0  0  0  0  0  0  0  0  0  0
   37.3870   30.3100   41.2670 C   0  0  0  0  0  0  0  0  0  0  0  0
   36.3500   30.1630   41.0540 H   0  0  0  0  0  0  0  0  0  0  0  0
   38.2630   29.3610   41.7500 C   0  0  0  0  0  3  0  0  0  0  0  0
   39.5800   29.6770   41.9980 C   0  0  0  0  0  3  0  0  0  0  0  0
   42.5390   31.5170   42.2280 N   0  0  0  0  0  0  0  0  0  0  0  0
   41.4260   31.2650   42.0150 C   0  0  0  0  0  0  0  0  0  0  0  0
  1  6  1  0  0  0  0
  1 20  1  0  0  0  0
  2  1  1  0  0  0  0
  3  1  1  0  0  0  0
  4 12  1  0  0  0  0
  5  4  1  0  0  0  0
  5 10  1  0  0  0  0
  6  5  2  0  0  0  0
  7  8  2  0  0  0  0
  7  6  1  0  0  0  0
  8  9  1  0  0  0  0
  9  4  2  0  0  0  0
 11  8  1  0  0  0  0
 12 13  1  0  0  0  0
 12 14  1  0  0  0  0
 12 15  1  0  0  0  0
 13 14  1  0  0  0  0
 13 17  1  0  0  0  0
 14 19  1  0  0  0  0
 16 13  1  0  0  0  0
 18 14  1  0  0  0  0
 20 25  1  0  0  0  0
 20 22  1  0  0  0  0
 21 20  1  0  0  0  0
 23 28  1  0  0  0  0
 23 24  2  0  0  0  0
 25 23  1  0  0  0  0
 26 25  1  0  0  0  0
 27 34  1  0  0  0  0
 27 36  1  0  0  0  0
 28 27  2  0  0  0  0
 29 31  2  0  0  0  0
 29 28  1  0  0  0  0
 30 29  1  0  0  0  0
 31 33  1  0  0  0  0
 32 31  1  0  0  0  0
 33 34  2  0  0  0  0
 36 35  3  0  0  0  0
M  END
>  <minimizedAffinity>
-5.10482502

>  <minimizedRMSD>
1.3446424

$$$$
