
 OpenBabel03242520193D

 36 38  0  0  0  0  0  0  0  0999 V2000
   40.8330   35.7820   39.5090 C   0  0  0  0  0  0  0  0  0  0  0  0
   40.6090   35.4630   38.4730 H   0  0  0  0  0  0  0  0  0  0  0  0
   41.0010   36.8920   39.5160 H   0  0  0  0  0  0  0  0  0  0  0  0
   43.8450   34.7710   41.5270 C   0  0  0  0  0  0  0  0  0  0  0  0
   42.6590   35.4090   41.1550 C   0  0  0  0  0  0  0  0  0  0  0  0
   42.0940   35.1220   39.9200 C   0  0  0  0  0  0  0  0  0  0  0  0
   42.7390   34.2130   39.1250 N   0  0  0  0  0  0  0  0  0  0  0  0
   43.8910   33.6120   39.5250 C   0  0  0  0  0  0  0  0  0  0  0  0
   44.4400   33.8830   40.7080 N   0  0  0  0  0  0  0  0  0  0  0  0
   42.2300   36.1140   41.8430 H   0  0  0  0  0  0  0  0  0  0  0  0
   44.3150   32.8990   38.8040 H   0  0  0  0  0  0  0  0  0  0  0  0
   44.4590   35.0950   42.8420 C   0  0  0  0  0  0  0  0  0  0  0  0
   46.0110   35.3350   42.7100 C   0  0  0  0  0  0  0  0  0  0  0  0
   45.0480   36.3470   43.1600 C   0  0  0  0  0  0  0  0  0  0  0  0
   44.2300   34.3430   43.6560 H   0  0  0  0  0  0  0  0  0  0  0  0
   46.4280   35.3890   41.7070 H   0  0  0  0  0  0  0  0  0  0  0  0
   46.6520   34.7990   43.4480 H   0  0  0  0  0  0  0  0  0  0  0  0
   44.8000   37.2090   42.4780 H   0  0  0  0  0  0  0  0  0  0  0  0
   45.1110   36.6660   44.2310 H   0  0  0  0  0  0  0  0  0  0  0  0
   39.7060   35.4620   40.4530 C   0  0  0  0  0  0  0  0  0  0  0  0
   38.9770   36.3250   40.4580 H   0  0  0  0  0  0  0  0  0  0  0  0
   40.1020   35.4310   41.4680 H   0  0  0  0  0  0  0  0  0  0  0  0
   39.2010   33.0720   40.8660 C   0  0  0  0  0  0  0  0  0  0  0  0
   39.9220   33.0760   41.9160 O   0  0  0  0  0  0  0  0  0  0  0  0
   39.0030   34.2380   40.0780 N   0  0  0  0  0  0  0  0  0  0  0  0
   38.3680   34.1690   39.2630 H   0  0  0  0  0  0  0  0  0  0  0  0
   38.2690   31.2230   39.3800 C   0  0  0  0  0  0  0  0  0  0  0  0
   38.6370   31.7520   40.6130 C   0  0  0  0  0  0  0  0  0  0  0  0
   38.4170   30.8520   41.6720 C   0  0  0  0  0  0  0  0  0  0  0  0
   38.7120   31.2550   42.6600 H   0  0  0  0  0  0  0  0  0  0  0  0
   37.9090   29.5870   41.6050 C   0  0  0  0  0  0  0  0  0  0  0  0
   37.8130   29.0290   42.5120 H   0  0  0  0  0  0  0  0  0  0  0  0
   37.5730   29.1500   40.3410 C   0  0  0  0  0  3  0  0  0  0  0  0
   37.7550   29.9620   39.2440 C   0  0  0  0  0  3  0  0  0  0  0  0
   38.5940   32.7430   37.3050 N   0  0  0  0  0  0  0  0  0  0  0  0
   38.4470   32.0690   38.2390 C   0  0  0  0  0  0  0  0  0  0  0  0
  1  3  1  0  0  0  0
  1  6  1  0  0  0  0
  1 20  1  0  0  0  0
  2  1  1  0  0  0  0
  4 12  1  0  0  0  0
  5  4  1  0  0  0  0
  5 10  1  0  0  0  0
  6  5  2  0  0  0  0
  7  8  2  0  0  0  0
  7  6  1  0  0  0  0
  8  9  1  0  0  0  0
  9  4  2  0  0  0  0
 11  8  1  0  0  0  0
 12 14  1  0  0  0  0
 12 15  1  0  0  0  0
 13 12  1  0  0  0  0
 13 14  1  0  0  0  0
 13 17  1  0  0  0  0
 14 19  1  0  0  0  0
 16 13  1  0  0  0  0
 18 14  1  0  0  0  0
 20 21  1  0  0  0  0
 20 22  1  0  0  0  0
 23 24  2  0  0  0  0
 25 20  1  0  0  0  0
 25 23  1  0  0  0  0
 26 25  1  0  0  0  0
 27 28  1  0  0  0  0
 28 23  1  0  0  0  0
 28 29  2  0  0  0  0
 29 30  1  0  0  0  0
 31 29  1  0  0  0  0
 31 32  1  0  0  0  0
 33 31  2  0  0  0  0
 34 27  2  0  0  0  0
 34 33  1  0  0  0  0
 35 36  3  0  0  0  0
 36 27  1  0  0  0  0
M  END
>  <minimizedAffinity>
-5.14472246

>  <minimizedRMSD>
0.561591506

$$$$
