
 OpenBabel03252507593D

 30 32  0  0  1  0  0  0  0  0999 V2000
   46.6970   34.5440   43.2220 C   0  0  0  0  0  0  0  0  0  0  0  0
   45.6350   35.4810   43.3850 C   0  0  0  0  0  0  0  0  0  0  0  0
   44.8310   35.3000   44.5050 C   0  0  0  0  0  0  0  0  0  0  0  0
   45.0970   34.2750   45.3510 N   0  0  0  0  0  0  0  0  0  0  0  0
   46.1410   33.4080   45.1320 C   0  0  0  0  0  0  0  0  0  0  0  0
   46.9380   33.5260   44.0880 N   0  0  0  0  0  0  0  0  0  0  0  0
   45.5030   36.2660   42.6530 H   0  0  0  0  0  0  0  0  0  0  0  0
   44.0180   35.9830   44.6670 H   0  0  0  0  0  0  0  0  0  0  0  0
   46.3800   32.3130   46.1180 C   0  0  1  0  0  0  0  0  0  0  0  0
   47.0660   32.6490   47.4230 C   0  0  0  0  0  0  0  0  0  0  0  0
   45.5800   32.4170   47.3560 C   0  0  1  0  0  0  0  0  0  0  0  0
   46.6240   31.3220   45.7110 H   0  0  0  0  0  0  0  0  0  0  0  0
   47.6620   31.8660   47.9150 H   0  0  0  0  0  0  0  0  0  0  0  0
   47.4650   33.6840   47.4380 H   0  0  0  0  0  0  0  0  0  0  0  0
   45.1620   31.5120   47.8140 H   0  0  0  0  0  0  0  0  0  0  0  0
   44.8200   33.6420   47.6220 N   0  0  0  0  0  0  0  0  0  0  0  0
   44.3310   33.5160   48.5370 H   0  0  0  0  0  0  0  0  0  0  0  0
   45.4290   34.4780   47.7540 H   0  0  0  0  0  0  0  0  0  0  0  0
   47.5360   34.7500   42.0580 C   0  0  0  0  0  0  0  0  0  0  0  0
   48.2590   35.7920   41.8910 O   0  0  0  0  0  0  0  0  0  0  0  0
   48.8670   33.1180   40.7010 C   0  0  0  0  0  0  0  0  0  0  0  0
   47.7420   33.8940   40.8930 C   0  0  0  0  0  0  0  0  0  0  0  0
   46.7480   33.8580   39.9210 C   0  0  0  0  0  0  0  0  0  0  0  0
   45.8220   34.4440   39.9970 H   0  0  0  0  0  0  0  0  0  0  0  0
   46.8540   33.0760   38.7820 C   0  0  0  0  0  0  0  0  0  0  0  0
   46.0790   33.0620   38.0470 H   0  0  0  0  0  0  0  0  0  0  0  0
   47.9880   32.3060   38.6050 C   0  0  0  0  0  3  0  0  0  0  0  0
   48.9880   32.3340   39.5710 C   0  0  0  0  0  3  0  0  0  0  0  0
   50.7270   33.1610   42.4850 N   0  0  0  0  0  0  0  0  0  0  0  0
   49.9030   33.1420   41.6930 C   0  0  0  0  0  0  0  0  0  0  0  0
  1  2  2  0  0  0  0
  1  6  1  0  0  0  0
  2  3  1  0  0  0  0
  3  8  1  0  0  0  0
  3  4  2  0  0  0  0
  5  4  1  0  0  0  0
  5  9  1  0  0  0  0
  6  5  2  0  0  0  0
  7  2  1  0  0  0  0
  9 12  1  6  0  0  0
  9 11  1  0  0  0  0
  9 10  1  0  0  0  0
 10 14  1  0  0  0  0
 10 13  1  0  0  0  0
 11 10  1  0  0  0  0
 11 16  1  0  0  0  0
 11 15  1  1  0  0  0
 16 18  1  0  0  0  0
 16 17  1  0  0  0  0
 19  1  1  0  0  0  0
 20 19  2  0  0  0  0
 21 22  1  0  0  0  0
 21 30  1  0  0  0  0
 22 19  1  0  0  0  0
 23 24  1  0  0  0  0
 23 22  2  0  0  0  0
 25 23  1  0  0  0  0
 26 25  1  0  0  0  0
 27 25  2  0  0  0  0
 27 28  1  0  0  0  0
 28 21  2  0  0  0  0
 30 29  3  0  0  0  0
M  END
>  <minimizedAffinity>
-5.59512806

>  <minimizedRMSD>
1.5847435

$$$$
