
 OpenBabel03252508003D

 30 32  0  0  1  0  0  0  0  0999 V2000
   44.2500   34.4580   42.6860 C   0  0  0  0  0  0  0  0  0  0  0  0
   44.0870   35.6420   43.4630 C   0  0  0  0  0  0  0  0  0  0  0  0
   44.5820   35.5890   44.7620 C   0  0  0  0  0  0  0  0  0  0  0  0
   45.1710   34.4510   45.1990 N   0  0  0  0  0  0  0  0  0  0  0  0
   45.2950   33.3430   44.3940 C   0  0  0  0  0  0  0  0  0  0  0  0
   44.8450   33.3310   43.1530 N   0  0  0  0  0  0  0  0  0  0  0  0
   43.6010   36.5020   43.0240 H   0  0  0  0  0  0  0  0  0  0  0  0
   44.4800   36.4600   45.3830 H   0  0  0  0  0  0  0  0  0  0  0  0
   45.9710   32.1320   44.9430 C   0  0  1  0  0  0  0  0  0  0  0  0
   47.1840   32.3160   45.8270 C   0  0  0  0  0  0  0  0  0  0  0  0
   45.8390   31.9650   46.4050 C   0  0  1  0  0  0  0  0  0  0  0  0
   46.0030   31.2440   44.2960 H   0  0  0  0  0  0  0  0  0  0  0  0
   47.9450   31.5220   45.8400 H   0  0  0  0  0  0  0  0  0  0  0  0
   47.5380   33.3670   45.8460 H   0  0  0  0  0  0  0  0  0  0  0  0
   45.6870   30.9650   46.8300 H   0  0  0  0  0  0  0  0  0  0  0  0
   45.2840   33.0590   47.2080 N   0  0  0  0  0  0  0  0  0  0  0  0
   45.2770   32.7460   48.2040 H   0  0  0  0  0  0  0  0  0  0  0  0
   45.8790   33.9150   47.1970 H   0  0  0  0  0  0  0  0  0  0  0  0
   43.7410   34.5280   41.3310 C   0  0  0  0  0  0  0  0  0  0  0  0
   44.4930   34.6880   40.3080 O   0  0  0  0  0  0  0  0  0  0  0  0
   41.7200   33.2500   40.5840 C   0  0  0  0  0  0  0  0  0  0  0  0
   42.3680   34.4400   40.8430 C   0  0  0  0  0  0  0  0  0  0  0  0
   41.6710   35.6240   40.6260 C   0  0  0  0  0  0  0  0  0  0  0  0
   42.1140   36.6150   40.8070 H   0  0  0  0  0  0  0  0  0  0  0  0
   40.3670   35.6430   40.1650 C   0  0  0  0  0  0  0  0  0  0  0  0
   39.8490   36.5630   40.0050 H   0  0  0  0  0  0  0  0  0  0  0  0
   39.7320   34.4420   39.9100 C   0  0  0  0  0  3  0  0  0  0  0  0
   40.4180   33.2510   40.1240 C   0  0  0  0  0  3  0  0  0  0  0  0
   42.9830   31.0360   40.9760 N   0  0  0  0  0  0  0  0  0  0  0  0
   42.4220   32.0180   40.8010 C   0  0  0  0  0  0  0  0  0  0  0  0
  1  6  2  0  0  0  0
  1  2  1  0  0  0  0
  2  3  2  0  0  0  0
  3  4  1  0  0  0  0
  3  8  1  0  0  0  0
  5  9  1  0  0  0  0
  5  4  2  0  0  0  0
  6  5  1  0  0  0  0
  7  2  1  0  0  0  0
  9 12  1  6  0  0  0
  9 10  1  0  0  0  0
  9 11  1  0  0  0  0
 10 13  1  0  0  0  0
 10 14  1  0  0  0  0
 10 11  1  0  0  0  0
 11 15  1  1  0  0  0
 11 16  1  0  0  0  0
 16 17  1  0  0  0  0
 18 16  1  0  0  0  0
 19  1  1  0  0  0  0
 20 19  2  0  0  0  0
 21 30  1  0  0  0  0
 21 22  1  0  0  0  0
 22 19  1  0  0  0  0
 23 24  1  0  0  0  0
 23 22  2  0  0  0  0
 25 23  1  0  0  0  0
 26 25  1  0  0  0  0
 27 28  1  0  0  0  0
 27 25  2  0  0  0  0
 28 21  2  0  0  0  0
 30 29  3  0  0  0  0
M  END
>  <minimizedAffinity>
-4.80149698

>  <minimizedRMSD>
4.10368919

$$$$
