
     RDKit          3D

 32 34  0  0  0  0  0  0  0  0999 V2000
   46.2603   34.7535   43.2416 C   0  0  0  0  0  0  0  0  0  0  0  0
   45.3008   35.7490   43.5917 C   0  0  0  0  0  0  0  0  0  0  0  0
   44.6627   35.5739   44.8151 C   0  0  0  0  0  0  0  0  0  0  0  0
   44.9795   34.5014   45.5793 N   0  0  0  0  0  0  0  0  0  0  0  0
   45.9170   33.5777   45.1779 C   0  0  0  0  0  0  0  0  0  0  0  0
   46.5558   33.6885   44.0293 N   0  0  0  0  0  0  0  0  0  0  0  0
   46.2228   32.4306   46.0820 C   0  0  1  0  0  0  0  0  0  0  0  0
   47.0381   32.6882   47.3304 C   0  0  0  0  0  0  0  0  0  0  0  0
   45.5482   32.4870   47.3954 C   0  0  1  0  0  0  0  0  0  0  0  0
   44.8448   33.7112   47.7921 N   0  0  0  0  0  0  0  0  0  0  0  0
   46.9278   34.9527   41.9713 C   0  0  0  0  0  0  0  0  0  0  0  0
   48.0771   35.5061   41.8621 O   0  0  0  0  0  0  0  0  0  0  0  0
   45.1170   36.5699   42.9133 H   0  0  0  0  0  0  0  0  0  0  0  0
   43.9318   36.3009   45.1189 H   0  0  0  0  0  0  0  0  0  0  0  0
   46.4052   31.4569   45.6059 H   0  0  0  0  0  0  0  0  0  0  0  0
   47.6603   31.8712   47.7237 H   0  0  0  0  0  0  0  0  0  0  0  0
   47.4598   33.7137   47.3562 H   0  0  0  0  0  0  0  0  0  0  0  0
   45.1542   31.5682   47.8473 H   0  0  0  0  0  0  0  0  0  0  0  0
   44.4424   33.5480   48.7416 H   0  0  0  0  0  0  0  0  0  0  0  0
   45.4821   34.5281   47.9049 H   0  0  0  0  0  0  0  0  0  0  0  0
   43.7039   33.4039   42.2896 N   0  0  0  0  0  0  0  0  0  0  0  0
   44.4073   33.6599   41.4246 C   0  0  0  0  0  0  0  0  0  0  0  0
   45.2903   33.9838   40.3415 C   0  0  0  0  0  0  0  0  0  0  0  0
   46.4915   34.6020   40.6223 C   0  0  0  0  0  0  0  0  0  0  0  0
   47.3337   34.9079   39.5596 C   0  0  0  0  0  0  0  0  0  0  0  0
   48.3077   35.4000   39.6966 H   0  0  0  0  0  0  0  0  0  0  0  0
   47.0069   34.6147   38.2467 C   0  0  0  0  0  0  0  0  0  0  0  0
   47.6682   34.8582   37.4442 H   0  0  0  0  0  0  0  0  0  0  0  0
   45.8001   33.9954   37.9818 C   0  0  0  0  0  0  0  0  0  0  0  0
   44.9495   33.6846   39.0376 C   0  0  0  0  0  0  0  0  0  0  0  0
   45.4916   33.7423   36.9777 H   0  0  0  0  0  0  0  0  0  0  0  0
   43.9915   33.1948   38.8458 H   0  0  0  0  0  0  0  0  0  0  0  0
  1  2  2  0
  1  6  1  0
  2  3  1  0
  3  4  2  0
  5  4  1  0
  5  7  1  0
  6  5  2  0
  7  8  1  0
  7  9  1  0
  8  9  1  0
  9 10  1  0
 11  1  1  0
 12 11  2  0
  2 13  1  0
  3 14  1  0
  7 15  1  6
  8 16  1  0
  8 17  1  0
  9 18  1  1
 10 19  1  0
 10 20  1  0
 21 22  3  0
 22 23  1  0
 23 24  2  0
 24 25  1  0
 25 26  1  0
 25 27  2  0
 27 28  1  0
 27 29  1  0
 29 30  2  0
 30 23  1  0
 29 31  1  0
 30 32  1  0
 11 24  1  0
M  ISO  8  13  14  14  14  15  13  16  13  17  13  18  13  19   5  20   5
M  ISO  2  26  15  28  16
M  END
>  <DihAtoms>  (1) 
0,10,23,22

>  <DihDeg>  (1) 
134.99974716654705

$$$$
