
 OpenBabel03252508003D

 30 32  0  0  1  0  0  0  0  0999 V2000
   46.5310   34.5120   43.3680 C   0  0  0  0  0  0  0  0  0  0  0  0
   45.5120   35.4730   43.6340 C   0  0  0  0  0  0  0  0  0  0  0  0
   44.8050   35.2970   44.8180 C   0  0  0  0  0  0  0  0  0  0  0  0
   45.1150   34.2540   45.6240 N   0  0  0  0  0  0  0  0  0  0  0  0
   46.1120   33.3620   45.3050 C   0  0  0  0  0  0  0  0  0  0  0  0
   46.8190   33.4750   44.1960 N   0  0  0  0  0  0  0  0  0  0  0  0
   45.3390   36.2720   42.9260 H   0  0  0  0  0  0  0  0  0  0  0  0
   44.0270   35.9990   45.0580 H   0  0  0  0  0  0  0  0  0  0  0  0
   46.4060   32.2480   46.2520 C   0  0  1  0  0  0  0  0  0  0  0  0
   47.0870   32.5700   47.5630 C   0  0  0  0  0  0  0  0  0  0  0  0
   45.6130   32.2770   47.4990 C   0  0  1  0  0  0  0  0  0  0  0  0
   46.6890   31.2810   45.8120 H   0  0  0  0  0  0  0  0  0  0  0  0
   47.7200   31.7990   48.0260 H   0  0  0  0  0  0  0  0  0  0  0  0
   47.4410   33.6210   47.6090 H   0  0  0  0  0  0  0  0  0  0  0  0
   45.2370   31.3400   47.9300 H   0  0  0  0  0  0  0  0  0  0  0  0
   44.8030   33.4580   47.8100 N   0  0  0  0  0  0  0  0  0  0  0  0
   44.3260   33.2820   48.7230 H   0  0  0  0  0  0  0  0  0  0  0  0
   45.3750   34.3150   47.9650 H   0  0  0  0  0  0  0  0  0  0  0  0
   47.2700   34.7120   42.1370 C   0  0  0  0  0  0  0  0  0  0  0  0
   47.9440   35.7720   41.8890 O   0  0  0  0  0  0  0  0  0  0  0  0
   46.3780   33.5070   40.1310 C   0  0  0  0  0  0  0  0  0  0  0  0
   47.4150   33.8320   40.9810 C   0  0  0  0  0  0  0  0  0  0  0  0
   48.6690   33.2900   40.7210 C   0  0  0  0  0  0  0  0  0  0  0  0
   49.5460   33.4990   41.3480 H   0  0  0  0  0  0  0  0  0  0  0  0
   48.9030   32.4460   39.6490 C   0  0  0  0  0  0  0  0  0  0  0  0
   49.8730   32.0410   39.4660 H   0  0  0  0  0  0  0  0  0  0  0  0
   47.8540   32.1300   38.8070 C   0  0  0  0  0  3  0  0  0  0  0  0
   46.5950   32.6660   39.0580 C   0  0  0  0  0  3  0  0  0  0  0  0
   44.0400   34.4960   40.5840 N   0  0  0  0  0  0  0  0  0  0  0  0
   45.0770   34.0560   40.3830 C   0  0  0  0  0  0  0  0  0  0  0  0
  1  2  2  0  0  0  0
  1  6  1  0  0  0  0
  2  3  1  0  0  0  0
  3  8  1  0  0  0  0
  3  4  2  0  0  0  0
  5  4  1  0  0  0  0
  5  9  1  0  0  0  0
  6  5  2  0  0  0  0
  7  2  1  0  0  0  0
  9 12  1  6  0  0  0
  9 11  1  0  0  0  0
  9 10  1  0  0  0  0
 10 14  1  0  0  0  0
 10 13  1  0  0  0  0
 11 10  1  0  0  0  0
 11 16  1  0  0  0  0
 11 15  1  1  0  0  0
 16 18  1  0  0  0  0
 16 17  1  0  0  0  0
 19  1  1  0  0  0  0
 20 19  2  0  0  0  0
 21 30  1  0  0  0  0
 21 22  1  0  0  0  0
 22 19  1  0  0  0  0
 23 22  2  0  0  0  0
 23 24  1  0  0  0  0
 25 23  1  0  0  0  0
 26 25  1  0  0  0  0
 27 28  1  0  0  0  0
 27 25  2  0  0  0  0
 28 21  2  0  0  0  0
 30 29  3  0  0  0  0
M  END
>  <minimizedAffinity>
-5.38958168

>  <minimizedRMSD>
1.49807823

$$$$
