
 OpenBabel03252508013D

 30 32  0  0  1  0  0  0  0  0999 V2000
   39.0620   29.7810   41.9850 C   0  0  0  0  0  0  0  0  0  0  0  0
   40.1770   30.4700   42.5450 C   0  0  0  0  0  0  0  0  0  0  0  0
   40.6740   31.5300   41.7940 C   0  0  0  0  0  0  0  0  0  0  0  0
   40.0880   31.8360   40.6120 N   0  0  0  0  0  0  0  0  0  0  0  0
   39.0130   31.1260   40.1310 C   0  0  0  0  0  0  0  0  0  0  0  0
   38.4960   30.1100   40.7950 N   0  0  0  0  0  0  0  0  0  0  0  0
   40.5740   30.1500   43.4970 H   0  0  0  0  0  0  0  0  0  0  0  0
   41.5150   32.0790   42.1790 H   0  0  0  0  0  0  0  0  0  0  0  0
   38.4130   31.5330   38.8270 C   0  0  1  0  0  0  0  0  0  0  0  0
   36.9510   31.2380   38.5780 C   0  0  0  0  0  0  0  0  0  0  0  0
   37.4230   32.6250   38.9210 C   0  0  1  0  0  0  0  0  0  0  0  0
   39.0560   31.4570   37.9380 H   0  0  0  0  0  0  0  0  0  0  0  0
   36.6210   31.0760   37.5410 H   0  0  0  0  0  0  0  0  0  0  0  0
   36.5090   30.5930   39.3650 H   0  0  0  0  0  0  0  0  0  0  0  0
   37.3930   33.4040   38.1490 H   0  0  0  0  0  0  0  0  0  0  0  0
   36.9490   33.0560   40.2400 N   0  0  0  0  0  0  0  0  0  0  0  0
   36.2620   33.8290   40.0910 H   0  0  0  0  0  0  0  0  0  0  0  0
   36.4180   32.3150   40.7450 H   0  0  0  0  0  0  0  0  0  0  0  0
   38.5430   28.6860   42.7810 C   0  0  0  0  0  0  0  0  0  0  0  0
   37.6440   28.8370   43.6800 O   0  0  0  0  0  0  0  0  0  0  0  0
   38.2990   26.3500   41.9100 C   0  0  0  0  0  0  0  0  0  0  0  0
   38.8890   27.2670   42.7560 C   0  0  0  0  0  0  0  0  0  0  0  0
   39.8690   26.8150   43.6310 C   0  0  0  0  0  0  0  0  0  0  0  0
   40.3890   27.4800   44.3360 H   0  0  0  0  0  0  0  0  0  0  0  0
   40.2650   25.4890   43.6790 C   0  0  0  0  0  0  0  0  0  0  0  0
   41.0200   25.1610   44.3590 H   0  0  0  0  0  0  0  0  0  0  0  0
   39.6630   24.5810   42.8270 C   0  0  0  0  0  3  0  0  0  0  0  0
   38.6820   25.0240   41.9470 C   0  0  0  0  0  3  0  0  0  0  0  0
   36.4750   27.1550   40.2750 N   0  0  0  0  0  0  0  0  0  0  0  0
   37.2850   26.7970   40.9990 C   0  0  0  0  0  0  0  0  0  0  0  0
  1  2  1  0  0  0  0
  1 19  1  0  0  0  0
  2  7  1  0  0  0  0
  3  8  1  0  0  0  0
  3  2  2  0  0  0  0
  4  3  1  0  0  0  0
  5  4  2  0  0  0  0
  5  6  1  0  0  0  0
  6  1  2  0  0  0  0
  9 12  1  6  0  0  0
  9 11  1  0  0  0  0
  9  5  1  0  0  0  0
 10  9  1  0  0  0  0
 10 11  1  0  0  0  0
 10 14  1  0  0  0  0
 11 15  1  6  0  0  0
 11 16  1  0  0  0  0
 13 10  1  0  0  0  0
 16 18  1  0  0  0  0
 17 16  1  0  0  0  0
 19 20  2  0  0  0  0
 21 28  2  0  0  0  0
 21 22  1  0  0  0  0
 22 19  1  0  0  0  0
 22 23  2  0  0  0  0
 23 25  1  0  0  0  0
 23 24  1  0  0  0  0
 25 26  1  0  0  0  0
 27 25  2  0  0  0  0
 28 27  1  0  0  0  0
 29 30  3  0  0  0  0
 30 21  1  0  0  0  0
M  END
>  <minimizedAffinity>
-5.43002892

$$$$

 OpenBabel03252508013D

 30 32  0  0  1  0  0  0  0  0999 V2000
   36.9120   28.6890   41.6160 C   0  0  0  0  0  0  0  0  0  0  0  0
   37.9290   29.2420   42.4480 C   0  0  0  0  0  0  0  0  0  0  0  0
   38.5980   28.3420   43.2700 C   0  0  0  0  0  0  0  0  0  0  0  0
   38.2540   27.0320   43.2340 N   0  0  0  0  0  0  0  0  0  0  0  0
   37.2600   26.5670   42.4060 C   0  0  0  0  0  0  0  0  0  0  0  0
   36.5890   27.3700   41.6030 N   0  0  0  0  0  0  0  0  0  0  0  0
   38.1300   30.3030   42.4040 H   0  0  0  0  0  0  0  0  0  0  0  0
   39.3730   28.7160   43.9140 H   0  0  0  0  0  0  0  0  0  0  0  0
   36.9490   25.1070   42.4120 C   0  0  1  0  0  0  0  0  0  0  0  0
   36.9430   24.3610   41.0970 C   0  0  0  0  0  0  0  0  0  0  0  0
   38.0890   24.2350   42.0630 C   0  0  1  0  0  0  0  0  0  0  0  0
   36.2040   24.7600   43.1420 H   0  0  0  0  0  0  0  0  0  0  0  0
   36.2870   23.4840   40.9980 H   0  0  0  0  0  0  0  0  0  0  0  0
   37.0260   25.0410   40.2240 H   0  0  0  0  0  0  0  0  0  0  0  0
   38.2360   23.2870   42.5950 H   0  0  0  0  0  0  0  0  0  0  0  0
   39.3200   24.8340   41.5370 N   0  0  0  0  0  0  0  0  0  0  0  0
   39.9950   24.0580   41.3540 H   0  0  0  0  0  0  0  0  0  0  0  0
   39.1850   25.2980   40.6130 H   0  0  0  0  0  0  0  0  0  0  0  0
   36.2300   29.6340   40.7540 C   0  0  0  0  0  0  0  0  0  0  0  0
   36.0290   30.8560   41.0750 O   0  0  0  0  0  0  0  0  0  0  0  0
   36.3700   29.5910   38.2530 C   0  0  0  0  0  0  0  0  0  0  0  0
   35.6560   29.4400   39.4250 C   0  0  0  0  0  0  0  0  0  0  0  0
   34.3170   29.0820   39.3350 C   0  0  0  0  0  0  0  0  0  0  0  0
   33.6780   28.9420   40.2200 H   0  0  0  0  0  0  0  0  0  0  0  0
   33.6850   28.8760   38.1200 C   0  0  0  0  0  0  0  0  0  0  0  0
   32.6540   28.6020   38.0720 H   0  0  0  0  0  0  0  0  0  0  0  0
   34.4120   29.0320   36.9550 C   0  0  0  0  0  3  0  0  0  0  0  0
   35.7540   29.3890   37.0350 C   0  0  0  0  0  3  0  0  0  0  0  0
   38.8580   30.2510   38.3820 N   0  0  0  0  0  0  0  0  0  0  0  0
   37.7540   29.9590   38.3260 C   0  0  0  0  0  0  0  0  0  0  0  0
  1  2  1  0  0  0  0
  2  3  2  0  0  0  0
  3  8  1  0  0  0  0
  4  3  1  0  0  0  0
  5  9  1  0  0  0  0
  5  4  2  0  0  0  0
  6  1  2  0  0  0  0
  6  5  1  0  0  0  0
  7  2  1  0  0  0  0
  9 12  1  1  0  0  0
 10 11  1  0  0  0  0
 10  9  1  0  0  0  0
 11  9  1  0  0  0  0
 11 15  1  1  0  0  0
 13 10  1  0  0  0  0
 14 10  1  0  0  0  0
 16 11  1  0  0  0  0
 17 16  1  0  0  0  0
 18 16  1  0  0  0  0
 19 20  2  0  0  0  0
 19  1  1  0  0  0  0
 21 30  1  0  0  0  0
 21 22  1  0  0  0  0
 22 19  1  0  0  0  0
 23 22  2  0  0  0  0
 23 24  1  0  0  0  0
 25 23  1  0  0  0  0
 26 25  1  0  0  0  0
 27 28  1  0  0  0  0
 27 25  2  0  0  0  0
 28 21  2  0  0  0  0
 30 29  3  0  0  0  0
M  END
>  <minimizedAffinity>
-5.29690886

$$$$

 OpenBabel03252508013D

 30 32  0  0  1  0  0  0  0  0999 V2000
   37.2820   30.5060   40.1100 C   0  0  0  0  0  0  0  0  0  0  0  0
   36.7840   31.8280   40.2990 C   0  0  0  0  0  0  0  0  0  0  0  0
   37.6590   32.8590   39.9760 C   0  0  0  0  0  0  0  0  0  0  0  0
   38.8970   32.5560   39.5150 N   0  0  0  0  0  0  0  0  0  0  0  0
   39.3120   31.2540   39.3580 C   0  0  0  0  0  0  0  0  0  0  0  0
   38.5290   30.2330   39.6470 N   0  0  0  0  0  0  0  0  0  0  0  0
   35.7790   31.9670   40.6740 H   0  0  0  0  0  0  0  0  0  0  0  0
   37.3250   33.8720   40.1040 H   0  0  0  0  0  0  0  0  0  0  0  0
   40.6850   31.0010   38.8300 C   0  0  1  0  0  0  0  0  0  0  0  0
   40.8380   30.1660   37.5780 C   0  0  0  0  0  0  0  0  0  0  0  0
   40.9800   31.6640   37.5430 C   0  0  1  0  0  0  0  0  0  0  0  0
   41.4870   30.8720   39.5710 H   0  0  0  0  0  0  0  0  0  0  0  0
   41.7630   29.5840   37.4500 H   0  0  0  0  0  0  0  0  0  0  0  0
   39.8850   29.6920   37.2660 H   0  0  0  0  0  0  0  0  0  0  0  0
   41.9710   32.1010   37.3670 H   0  0  0  0  0  0  0  0  0  0  0  0
   39.8910   32.3010   36.7950 N   0  0  0  0  0  0  0  0  0  0  0  0
   40.3030   32.7060   35.9240 H   0  0  0  0  0  0  0  0  0  0  0  0
   39.1730   31.6230   36.4640 H   0  0  0  0  0  0  0  0  0  0  0  0
   36.3570   29.4390   40.4380 C   0  0  0  0  0  0  0  0  0  0  0  0
   35.0910   29.5330   40.2730 O   0  0  0  0  0  0  0  0  0  0  0  0
   36.8320   26.9890   40.2120 C   0  0  0  0  0  0  0  0  0  0  0  0
   36.6190   28.1110   40.9880 C   0  0  0  0  0  0  0  0  0  0  0  0
   36.6570   27.9700   42.3690 C   0  0  0  0  0  0  0  0  0  0  0  0
   36.4990   28.8130   43.0570 H   0  0  0  0  0  0  0  0  0  0  0  0
   36.8990   26.7520   42.9830 C   0  0  0  0  0  0  0  0  0  0  0  0
   36.9250   26.6640   44.0470 H   0  0  0  0  0  0  0  0  0  0  0  0
   37.1100   25.6370   42.1930 C   0  0  0  0  0  3  0  0  0  0  0  0
   37.0740   25.7690   40.8090 C   0  0  0  0  0  3  0  0  0  0  0  0
   36.7640   27.2170   37.6450 N   0  0  0  0  0  0  0  0  0  0  0  0
   36.7960   27.1150   38.7840 C   0  0  0  0  0  0  0  0  0  0  0  0
  1  2  1  0  0  0  0
  1 19  1  0  0  0  0
  2  7  1  0  0  0  0
  3  8  1  0  0  0  0
  3  2  2  0  0  0  0
  4  3  1  0  0  0  0
  5  4  2  0  0  0  0
  5  6  1  0  0  0  0
  6  1  2  0  0  0  0
  9  5  1  0  0  0  0
  9 12  1  1  0  0  0
 10  9  1  0  0  0  0
 11 15  1  6  0  0  0
 11 10  1  0  0  0  0
 11  9  1  0  0  0  0
 13 10  1  0  0  0  0
 14 10  1  0  0  0  0
 16 11  1  0  0  0  0
 17 16  1  0  0  0  0
 18 16  1  0  0  0  0
 19 22  1  0  0  0  0
 20 19  2  0  0  0  0
 21 28  2  0  0  0  0
 21 22  1  0  0  0  0
 22 23  2  0  0  0  0
 23 25  1  0  0  0  0
 23 24  1  0  0  0  0
 25 26  1  0  0  0  0
 27 25  2  0  0  0  0
 28 27  1  0  0  0  0
 29 30  3  0  0  0  0
 30 21  1  0  0  0  0
M  END
>  <minimizedAffinity>
-5.2759757

$$$$

 OpenBabel03252508013D

 30 32  0  0  1  0  0  0  0  0999 V2000
   37.2810   30.2260   40.0920 C   0  0  0  0  0  0  0  0  0  0  0  0
   36.8010   31.5290   40.4160 C   0  0  0  0  0  0  0  0  0  0  0  0
   37.6880   32.5760   40.1900 C   0  0  0  0  0  0  0  0  0  0  0  0
   38.9190   32.3050   39.6920 N   0  0  0  0  0  0  0  0  0  0  0  0
   39.3160   31.0210   39.4030 C   0  0  0  0  0  0  0  0  0  0  0  0
   38.5210   29.9850   39.5950 N   0  0  0  0  0  0  0  0  0  0  0  0
   35.8010   31.6430   40.8100 H   0  0  0  0  0  0  0  0  0  0  0  0
   37.3680   33.5760   40.4200 H   0  0  0  0  0  0  0  0  0  0  0  0
   40.6820   30.8040   38.8420 C   0  0  1  0  0  0  0  0  0  0  0  0
   40.8180   30.0710   37.5260 C   0  0  0  0  0  0  0  0  0  0  0  0
   40.9670   31.5660   37.6090 C   0  0  1  0  0  0  0  0  0  0  0  0
   41.4910   30.6130   39.5620 H   0  0  0  0  0  0  0  0  0  0  0  0
   41.7380   29.4970   37.3420 H   0  0  0  0  0  0  0  0  0  0  0  0
   39.8590   29.6280   37.1870 H   0  0  0  0  0  0  0  0  0  0  0  0
   41.9590   32.0110   37.4580 H   0  0  0  0  0  0  0  0  0  0  0  0
   39.8750   32.2660   36.9250 N   0  0  0  0  0  0  0  0  0  0  0  0
   40.2800   32.7370   36.0850 H   0  0  0  0  0  0  0  0  0  0  0  0
   39.1490   31.6190   36.5490 H   0  0  0  0  0  0  0  0  0  0  0  0
   36.3440   29.1430   40.3190 C   0  0  0  0  0  0  0  0  0  0  0  0
   35.0760   29.3110   40.3590 O   0  0  0  0  0  0  0  0  0  0  0  0
   37.0790   27.2020   41.7220 C   0  0  0  0  0  0  0  0  0  0  0  0
   36.5950   27.7210   40.5380 C   0  0  0  0  0  0  0  0  0  0  0  0
   36.3320   26.8410   39.4960 C   0  0  0  0  0  0  0  0  0  0  0  0
   35.9450   27.1720   38.5220 H   0  0  0  0  0  0  0  0  0  0  0  0
   36.5380   25.4760   39.6100 C   0  0  0  0  0  0  0  0  0  0  0  0
   36.3290   24.8150   38.7970 H   0  0  0  0  0  0  0  0  0  0  0  0
   37.0230   24.9710   40.8010 C   0  0  0  0  0  3  0  0  0  0  0  0
   37.2890   25.8440   41.8500 C   0  0  0  0  0  3  0  0  0  0  0  0
   37.5790   28.8060   43.6780 N   0  0  0  0  0  0  0  0  0  0  0  0
   37.3570   28.0960   42.8100 C   0  0  0  0  0  0  0  0  0  0  0  0
  1 19  1  0  0  0  0
  1  2  1  0  0  0  0
  2  7  1  0  0  0  0
  3  2  2  0  0  0  0
  3  8  1  0  0  0  0
  4  3  1  0  0  0  0
  5  6  1  0  0  0  0
  5  4  2  0  0  0  0
  6  1  2  0  0  0  0
  9  5  1  0  0  0  0
  9 12  1  1  0  0  0
 10 11  1  0  0  0  0
 10  9  1  0  0  0  0
 11 15  1  6  0  0  0
 11  9  1  0  0  0  0
 13 10  1  0  0  0  0
 14 10  1  0  0  0  0
 16 11  1  0  0  0  0
 17 16  1  0  0  0  0
 18 16  1  0  0  0  0
 19 20  2  0  0  0  0
 19 22  1  0  0  0  0
 21 28  1  0  0  0  0
 21 30  1  0  0  0  0
 22 21  2  0  0  0  0
 23 25  2  0  0  0  0
 23 22  1  0  0  0  0
 24 23  1  0  0  0  0
 25 27  1  0  0  0  0
 26 25  1  0  0  0  0
 27 28  2  0  0  0  0
 30 29  3  0  0  0  0
M  END
>  <minimizedAffinity>
-5.2614646

$$$$

 OpenBabel03252508013D

 30 32  0  0  1  0  0  0  0  0999 V2000
   37.9140   28.3970   41.9240 C   0  0  0  0  0  0  0  0  0  0  0  0
   38.6590   29.0580   42.9440 C   0  0  0  0  0  0  0  0  0  0  0  0
   39.1880   30.2980   42.6030 C   0  0  0  0  0  0  0  0  0  0  0  0
   38.9720   30.7900   41.3600 N   0  0  0  0  0  0  0  0  0  0  0  0
   38.2420   30.0960   40.4230 C   0  0  0  0  0  0  0  0  0  0  0  0
   37.7150   28.9160   40.6860 N   0  0  0  0  0  0  0  0  0  0  0  0
   38.7770   28.5820   43.9080 H   0  0  0  0  0  0  0  0  0  0  0  0
   39.7570   30.8320   43.3430 H   0  0  0  0  0  0  0  0  0  0  0  0
   38.0340   30.7120   39.0800 C   0  0  1  0  0  0  0  0  0  0  0  0
   36.6190   30.9080   38.5830 C   0  0  0  0  0  0  0  0  0  0  0  0
   37.4310   32.0600   39.1090 C   0  0  1  0  0  0  0  0  0  0  0  0
   38.7650   30.4600   38.2990 H   0  0  0  0  0  0  0  0  0  0  0  0
   36.4400   30.8900   37.4980 H   0  0  0  0  0  0  0  0  0  0  0  0
   35.8690   30.4160   39.2360 H   0  0  0  0  0  0  0  0  0  0  0  0
   37.7800   32.8300   38.4090 H   0  0  0  0  0  0  0  0  0  0  0  0
   36.8940   32.5820   40.3700 N   0  0  0  0  0  0  0  0  0  0  0  0
   36.5170   33.5380   40.1790 H   0  0  0  0  0  0  0  0  0  0  0  0
   36.0790   32.0360   40.7220 H   0  0  0  0  0  0  0  0  0  0  0  0
   37.3570   27.1110   42.2950 C   0  0  0  0  0  0  0  0  0  0  0  0
   36.5420   26.9550   43.2690 O   0  0  0  0  0  0  0  0  0  0  0  0
   38.6490   24.9870   41.9920 C   0  0  0  0  0  0  0  0  0  0  0  0
   37.5690   25.7950   41.6990 C   0  0  0  0  0  0  0  0  0  0  0  0
   36.6310   25.3280   40.7860 C   0  0  0  0  0  0  0  0  0  0  0  0
   35.7430   25.9090   40.4990 H   0  0  0  0  0  0  0  0  0  0  0  0
   36.7470   24.0940   40.1710 C   0  0  0  0  0  0  0  0  0  0  0  0
   36.0150   23.7530   39.4710 H   0  0  0  0  0  0  0  0  0  0  0  0
   37.8340   23.2960   40.4730 C   0  0  0  0  0  3  0  0  0  0  0  0
   38.7790   23.7540   41.3860 C   0  0  0  0  0  3  0  0  0  0  0  0
   40.4110   25.8220   43.6790 N   0  0  0  0  0  0  0  0  0  0  0  0
   39.6290   25.4510   42.9310 C   0  0  0  0  0  0  0  0  0  0  0  0
  1 19  1  0  0  0  0
  1  2  1  0  0  0  0
  2  7  1  0  0  0  0
  3  2  2  0  0  0  0
  3  8  1  0  0  0  0
  4  3  1  0  0  0  0
  5  6  1  0  0  0  0
  5  4  2  0  0  0  0
  6  1  2  0  0  0  0
  9 12  1  6  0  0  0
  9 11  1  0  0  0  0
  9  5  1  0  0  0  0
 10  9  1  0  0  0  0
 10 11  1  0  0  0  0
 10 14  1  0  0  0  0
 11 15  1  6  0  0  0
 11 16  1  0  0  0  0
 13 10  1  0  0  0  0
 16 18  1  0  0  0  0
 17 16  1  0  0  0  0
 19 20  2  0  0  0  0
 21 30  1  0  0  0  0
 22 21  1  0  0  0  0
 22 19  1  0  0  0  0
 23 22  2  0  0  0  0
 24 23  1  0  0  0  0
 25 27  2  0  0  0  0
 25 23  1  0  0  0  0
 26 25  1  0  0  0  0
 27 28  1  0  0  0  0
 28 21  2  0  0  0  0
 30 29  3  0  0  0  0
M  END
>  <minimizedAffinity>
-5.21638632

$$$$

 OpenBabel03252508013D

 30 32  0  0  1  0  0  0  0  0999 V2000
   37.7090   29.3280   39.5570 C   0  0  0  0  0  0  0  0  0  0  0  0
   38.2210   28.9580   38.2790 C   0  0  0  0  0  0  0  0  0  0  0  0
   39.2230   29.7750   37.7670 C   0  0  0  0  0  0  0  0  0  0  0  0
   39.6420   30.8410   38.4900 N   0  0  0  0  0  0  0  0  0  0  0  0
   39.1020   31.1400   39.7190 C   0  0  0  0  0  0  0  0  0  0  0  0
   38.1480   30.4050   40.2580 N   0  0  0  0  0  0  0  0  0  0  0  0
   37.8200   28.0870   37.7790 H   0  0  0  0  0  0  0  0  0  0  0  0
   39.6390   29.5330   36.8060 H   0  0  0  0  0  0  0  0  0  0  0  0
   39.6260   32.3230   40.4620 C   0  0  1  0  0  0  0  0  0  0  0  0
   39.6230   33.6710   39.7760 C   0  0  0  0  0  0  0  0  0  0  0  0
   38.6020   33.3240   40.8250 C   0  0  1  0  0  0  0  0  0  0  0  0
   40.4790   32.1500   41.1340 H   0  0  0  0  0  0  0  0  0  0  0  0
   40.3910   34.4040   40.0630 H   0  0  0  0  0  0  0  0  0  0  0  0
   39.3600   33.5970   38.7000 H   0  0  0  0  0  0  0  0  0  0  0  0
   38.6480   33.8260   41.8000 H   0  0  0  0  0  0  0  0  0  0  0  0
   37.2530   33.2100   40.2620 N   0  0  0  0  0  0  0  0  0  0  0  0
   36.6880   34.0050   40.6370 H   0  0  0  0  0  0  0  0  0  0  0  0
   37.2320   33.3290   39.2270 H   0  0  0  0  0  0  0  0  0  0  0  0
   36.6730   28.4630   40.0870 C   0  0  0  0  0  0  0  0  0  0  0  0
   35.4450   28.8140   40.1770 O   0  0  0  0  0  0  0  0  0  0  0  0
   37.0780   26.7960   41.9120 C   0  0  0  0  0  0  0  0  0  0  0  0
   36.7680   27.1000   40.6020 C   0  0  0  0  0  0  0  0  0  0  0  0
   36.5320   26.0490   39.7240 C   0  0  0  0  0  0  0  0  0  0  0  0
   36.2790   26.2060   38.6650 H   0  0  0  0  0  0  0  0  0  0  0  0
   36.5990   24.7240   40.1190 C   0  0  0  0  0  0  0  0  0  0  0  0
   36.4140   23.9300   39.4290 H   0  0  0  0  0  0  0  0  0  0  0  0
   36.9110   24.4350   41.4340 C   0  0  0  0  0  3  0  0  0  0  0  0
   37.1480   25.4790   42.3210 C   0  0  0  0  0  3  0  0  0  0  0  0
   37.5220   28.7190   43.5710 N   0  0  0  0  0  0  0  0  0  0  0  0
   37.3250   27.8670   42.8340 C   0  0  0  0  0  0  0  0  0  0  0  0
  1 19  1  0  0  0  0
  1  6  1  0  0  0  0
  2  1  2  0  0  0  0
  3  2  1  0  0  0  0
  3  4  2  0  0  0  0
  4  5  1  0  0  0  0
  5  6  2  0  0  0  0
  5  9  1  0  0  0  0
  7  2  1  0  0  0  0
  8  3  1  0  0  0  0
  9 11  1  0  0  0  0
  9 12  1  1  0  0  0
 10 13  1  0  0  0  0
 10  9  1  0  0  0  0
 10 11  1  0  0  0  0
 11 15  1  1  0  0  0
 14 10  1  0  0  0  0
 16 17  1  0  0  0  0
 16 11  1  0  0  0  0
 18 16  1  0  0  0  0
 19 20  2  0  0  0  0
 19 22  1  0  0  0  0
 21 28  1  0  0  0  0
 21 30  1  0  0  0  0
 22 21  2  0  0  0  0
 23 25  2  0  0  0  0
 23 22  1  0  0  0  0
 24 23  1  0  0  0  0
 25 27  1  0  0  0  0
 26 25  1  0  0  0  0
 27 28  2  0  0  0  0
 30 29  3  0  0  0  0
M  END
>  <minimizedAffinity>
-5.21149731

$$$$

 OpenBabel03252508013D

 30 32  0  0  1  0  0  0  0  0999 V2000
   36.4160   30.1990   39.2400 C   0  0  0  0  0  0  0  0  0  0  0  0
   36.6370   29.9620   37.8520 C   0  0  0  0  0  0  0  0  0  0  0  0
   37.3170   30.9620   37.1660 C   0  0  0  0  0  0  0  0  0  0  0  0
   37.7170   32.0690   37.8360 N   0  0  0  0  0  0  0  0  0  0  0  0
   37.4690   32.2330   39.1780 C   0  0  0  0  0  0  0  0  0  0  0  0
   36.8280   31.3210   39.8840 N   0  0  0  0  0  0  0  0  0  0  0  0
   36.2780   29.0440   37.4080 H   0  0  0  0  0  0  0  0  0  0  0  0
   37.5060   30.8240   36.1170 H   0  0  0  0  0  0  0  0  0  0  0  0
   37.9540   33.4740   39.8490 C   0  0  1  0  0  0  0  0  0  0  0  0
   38.8840   33.3420   41.0350 C   0  0  0  0  0  0  0  0  0  0  0  0
   39.3970   33.7400   39.6780 C   0  0  1  0  0  0  0  0  0  0  0  0
   37.2500   34.3160   39.9080 H   0  0  0  0  0  0  0  0  0  0  0  0
   38.8650   34.1300   41.8020 H   0  0  0  0  0  0  0  0  0  0  0  0
   38.9840   32.2920   41.3790 H   0  0  0  0  0  0  0  0  0  0  0  0
   39.7490   34.7680   39.5220 H   0  0  0  0  0  0  0  0  0  0  0  0
   40.2560   32.7070   39.0900 N   0  0  0  0  0  0  0  0  0  0  0  0
   41.2280   33.0870   39.0570 H   0  0  0  0  0  0  0  0  0  0  0  0
   40.3200   31.8490   39.6770 H   0  0  0  0  0  0  0  0  0  0  0  0
   35.7170   29.1450   39.9490 C   0  0  0  0  0  0  0  0  0  0  0  0
   34.4410   29.0570   39.9950 O   0  0  0  0  0  0  0  0  0  0  0  0
   36.5570   26.7940   40.1650 C   0  0  0  0  0  0  0  0  0  0  0  0
   36.2520   28.0230   40.7160 C   0  0  0  0  0  0  0  0  0  0  0  0
   36.4660   28.2010   42.0770 C   0  0  0  0  0  0  0  0  0  0  0  0
   36.2490   29.1480   42.5930 H   0  0  0  0  0  0  0  0  0  0  0  0
   36.9690   27.1970   42.8860 C   0  0  0  0  0  0  0  0  0  0  0  0
   37.1270   27.3530   43.9310 H   0  0  0  0  0  0  0  0  0  0  0  0
   37.2690   25.9710   42.3200 C   0  0  0  0  0  3  0  0  0  0  0  0
   37.0590   25.7830   40.9590 C   0  0  0  0  0  3  0  0  0  0  0  0
   36.1700   26.4250   37.6430 N   0  0  0  0  0  0  0  0  0  0  0  0
   36.3420   26.5900   38.7610 C   0  0  0  0  0  0  0  0  0  0  0  0
  1  6  1  0  0  0  0
  1 19  1  0  0  0  0
  2  1  2  0  0  0  0
  3  4  2  0  0  0  0
  3  2  1  0  0  0  0
  4  5  1  0  0  0  0
  5  9  1  0  0  0  0
  5  6  2  0  0  0  0
  7  2  1  0  0  0  0
  8  3  1  0  0  0  0
  9 12  1  6  0  0  0
  9 10  1  0  0  0  0
 10 14  1  0  0  0  0
 10 13  1  0  0  0  0
 11 15  1  6  0  0  0
 11  9  1  0  0  0  0
 11 10  1  0  0  0  0
 16 18  1  0  0  0  0
 16 11  1  0  0  0  0
 17 16  1  0  0  0  0
 19 20  2  0  0  0  0
 19 22  1  0  0  0  0
 21 22  2  0  0  0  0
 21 28  1  0  0  0  0
 22 23  1  0  0  0  0
 23 24  1  0  0  0  0
 23 25  2  0  0  0  0
 25 26  1  0  0  0  0
 27 25  1  0  0  0  0
 28 27  2  0  0  0  0
 29 30  3  0  0  0  0
 30 21  1  0  0  0  0
M  END
>  <minimizedAffinity>
-5.13411665

$$$$

 OpenBabel03252508013D

 30 32  0  0  1  0  0  0  0  0999 V2000
   36.7960   28.2450   41.0400 C   0  0  0  0  0  0  0  0  0  0  0  0
   36.4990   27.4940   39.8650 C   0  0  0  0  0  0  0  0  0  0  0  0
   36.2890   28.2350   38.7070 C   0  0  0  0  0  0  0  0  0  0  0  0
   36.3760   29.5860   38.7620 N   0  0  0  0  0  0  0  0  0  0  0  0
   36.6670   30.2460   39.9320 C   0  0  0  0  0  0  0  0  0  0  0  0
   36.8750   29.6000   41.0630 N   0  0  0  0  0  0  0  0  0  0  0  0
   36.4510   26.4150   39.9230 H   0  0  0  0  0  0  0  0  0  0  0  0
   36.0630   27.7090   37.7970 H   0  0  0  0  0  0  0  0  0  0  0  0
   36.7600   31.7350   39.9090 C   0  0  1  0  0  0  0  0  0  0  0  0
   38.0400   32.3890   40.3810 C   0  0  0  0  0  0  0  0  0  0  0  0
   37.7130   32.2750   38.9170 C   0  0  1  0  0  0  0  0  0  0  0  0
   35.8440   32.2950   40.1420 H   0  0  0  0  0  0  0  0  0  0  0  0
   37.9790   33.3960   40.8190 H   0  0  0  0  0  0  0  0  0  0  0  0
   38.7370   31.6650   40.8520 H   0  0  0  0  0  0  0  0  0  0  0  0
   37.4620   33.1830   38.3550 H   0  0  0  0  0  0  0  0  0  0  0  0
   38.6230   31.3600   38.2210 N   0  0  0  0  0  0  0  0  0  0  0  0
   39.2080   31.9330   37.5710 H   0  0  0  0  0  0  0  0  0  0  0  0
   39.3040   30.8980   38.8600 H   0  0  0  0  0  0  0  0  0  0  0  0
   37.0250   27.4620   42.2380 C   0  0  0  0  0  0  0  0  0  0  0  0
   36.1660   27.3540   43.1800 O   0  0  0  0  0  0  0  0  0  0  0  0
   38.3050   25.3150   42.4090 C   0  0  0  0  0  0  0  0  0  0  0  0
   38.1910   26.6730   42.6290 C   0  0  0  0  0  0  0  0  0  0  0  0
   39.2440   27.3260   43.2570 C   0  0  0  0  0  0  0  0  0  0  0  0
   39.2320   28.4050   43.4680 H   0  0  0  0  0  0  0  0  0  0  0  0
   40.3900   26.6630   43.6630 C   0  0  0  0  0  0  0  0  0  0  0  0
   41.1890   27.1830   44.1450 H   0  0  0  0  0  0  0  0  0  0  0  0
   40.4900   25.3030   43.4370 C   0  0  0  0  0  3  0  0  0  0  0  0
   39.4410   24.6400   42.8090 C   0  0  0  0  0  3  0  0  0  0  0  0
   36.3680   24.0730   41.2470 N   0  0  0  0  0  0  0  0  0  0  0  0
   37.2280   24.6230   41.7620 C   0  0  0  0  0  0  0  0  0  0  0  0
  1  6  1  0  0  0  0
  1 19  1  0  0  0  0
  2  7  1  0  0  0  0
  2  1  2  0  0  0  0
  3  4  2  0  0  0  0
  3  2  1  0  0  0  0
  4  5  1  0  0  0  0
  5  6  2  0  0  0  0
  8  3  1  0  0  0  0
  9  5  1  0  0  0  0
  9 12  1  1  0  0  0
  9 10  1  0  0  0  0
 10 13  1  0  0  0  0
 10 14  1  0  0  0  0
 11 15  1  6  0  0  0
 11  9  1  0  0  0  0
 11 10  1  0  0  0  0
 16 18  1  0  0  0  0
 16 11  1  0  0  0  0
 17 16  1  0  0  0  0
 19 22  1  0  0  0  0
 19 20  2  0  0  0  0
 21 22  2  0  0  0  0
 21 28  1  0  0  0  0
 22 23  1  0  0  0  0
 23 24  1  0  0  0  0
 23 25  2  0  0  0  0
 25 26  1  0  0  0  0
 27 25  1  0  0  0  0
 28 27  2  0  0  0  0
 29 30  3  0  0  0  0
 30 21  1  0  0  0  0
M  END
>  <minimizedAffinity>
-5.09879398

$$$$

 OpenBabel03252508013D

 30 32  0  0  1  0  0  0  0  0999 V2000
   37.3650   28.7450   41.6720 C   0  0  0  0  0  0  0  0  0  0  0  0
   38.4880   29.0960   42.4780 C   0  0  0  0  0  0  0  0  0  0  0  0
   39.0370   28.0660   43.2340 C   0  0  0  0  0  0  0  0  0  0  0  0
   38.4900   26.8290   43.1640 N   0  0  0  0  0  0  0  0  0  0  0  0
   37.4040   26.5610   42.3640 C   0  0  0  0  0  0  0  0  0  0  0  0
   36.8380   27.4950   41.6230 N   0  0  0  0  0  0  0  0  0  0  0  0
   38.8510   30.1140   42.4660 H   0  0  0  0  0  0  0  0  0  0  0  0
   39.8850   28.2860   43.8570 H   0  0  0  0  0  0  0  0  0  0  0  0
   36.8680   25.1690   42.3280 C   0  0  1  0  0  0  0  0  0  0  0  0
   36.7890   24.4560   40.9970 C   0  0  0  0  0  0  0  0  0  0  0  0
   37.8680   24.1350   41.9950 C   0  0  1  0  0  0  0  0  0  0  0  0
   36.0530   24.9320   43.0270 H   0  0  0  0  0  0  0  0  0  0  0  0
   36.0070   23.6950   40.8590 H   0  0  0  0  0  0  0  0  0  0  0  0
   37.0070   25.1300   40.1420 H   0  0  0  0  0  0  0  0  0  0  0  0
   37.8460   23.1660   42.5100 H   0  0  0  0  0  0  0  0  0  0  0  0
   39.1950   24.5410   41.5200 N   0  0  0  0  0  0  0  0  0  0  0  0
   39.7450   23.6710   41.3400 H   0  0  0  0  0  0  0  0  0  0  0  0
   39.1650   25.0360   40.6030 H   0  0  0  0  0  0  0  0  0  0  0  0
   36.8080   29.8230   40.8780 C   0  0  0  0  0  0  0  0  0  0  0  0
   36.0530   30.7340   41.3650 O   0  0  0  0  0  0  0  0  0  0  0  0
   37.8780   31.0030   38.9450 C   0  0  0  0  0  0  0  0  0  0  0  0
   36.9590   30.1070   39.4540 C   0  0  0  0  0  0  0  0  0  0  0  0
   36.1320   29.4380   38.5600 C   0  0  0  0  0  0  0  0  0  0  0  0
   35.3740   28.7090   38.8830 H   0  0  0  0  0  0  0  0  0  0  0  0
   36.2010   29.6410   37.1920 C   0  0  0  0  0  0  0  0  0  0  0  0
   35.5560   29.1180   36.5210 H   0  0  0  0  0  0  0  0  0  0  0  0
   37.1260   30.5420   36.6970 C   0  0  0  0  0  3  0  0  0  0  0  0
   37.9590   31.2160   37.5830 C   0  0  0  0  0  3  0  0  0  0  0  0
   39.4310   32.2600   40.5730 N   0  0  0  0  0  0  0  0  0  0  0  0
   38.7400   31.7030   39.8520 C   0  0  0  0  0  0  0  0  0  0  0  0
  1  2  1  0  0  0  0
  2  3  2  0  0  0  0
  3  8  1  0  0  0  0
  4  3  1  0  0  0  0
  5  4  2  0  0  0  0
  6  1  2  0  0  0  0
  6  5  1  0  0  0  0
  7  2  1  0  0  0  0
  9  5  1  0  0  0  0
  9 12  1  1  0  0  0
 10 11  1  0  0  0  0
 10  9  1  0  0  0  0
 11  9  1  0  0  0  0
 11 15  1  1  0  0  0
 13 10  1  0  0  0  0
 14 10  1  0  0  0  0
 16 11  1  0  0  0  0
 17 16  1  0  0  0  0
 18 16  1  0  0  0  0
 19 20  2  0  0  0  0
 19  1  1  0  0  0  0
 21 22  1  0  0  0  0
 21 30  1  0  0  0  0
 22 19  1  0  0  0  0
 23 24  1  0  0  0  0
 23 22  2  0  0  0  0
 25 23  1  0  0  0  0
 26 25  1  0  0  0  0
 27 25  2  0  0  0  0
 27 28  1  0  0  0  0
 28 21  2  0  0  0  0
 30 29  3  0  0  0  0
M  END
>  <minimizedAffinity>
-5.08085346

$$$$
