REMARK  Name = 
REMARK  5 active torsions:
REMARK  status: ('A' for Active; 'I' for Inactive)
REMARK    1  A    between atoms: C_1  and  C_11
REMARK    2  A    between atoms: C_5  and  C_7
REMARK    3  A    between atoms: C_9  and  N_10
REMARK    4  A    between atoms: C_11  and  C_24
REMARK    5  A    between atoms: C_22  and  C_23
REMARK                            x       y       z     vdW  Elec       q    Type
REMARK                         _______ _______ _______ _____ _____    ______ ____
ROOT
ATOM      1  C   UNL     1      46.260  34.754  43.242  0.00  0.00    +0.000 A 
ATOM      2  C   UNL     1      45.301  35.749  43.592  0.00  0.00    +0.000 A 
ATOM      3  C   UNL     1      44.663  35.574  44.815  0.00  0.00    +0.000 A 
ATOM      4  N   UNL     1      44.980  34.501  45.579  0.00  0.00    +0.000 NA
ATOM      5  C   UNL     1      45.917  33.578  45.178  0.00  0.00    +0.000 A 
ATOM      6  N   UNL     1      46.556  33.688  44.029  0.00  0.00    +0.000 NA
ATOM      7  H   UNL     1      45.117  36.570  42.913  0.00  0.00    +0.000 HD
ATOM      8  H   UNL     1      43.932  36.301  45.119  0.00  0.00    +0.000 HD
ENDROOT
BRANCH   5   9
ATOM      9  C   UNL     1      46.223  32.431  46.082  0.00  0.00    +0.000 C 
ATOM     10  C   UNL     1      47.038  32.688  47.330  0.00  0.00    +0.000 C 
ATOM     11  C   UNL     1      45.548  32.487  47.395  0.00  0.00    +0.000 C 
ATOM     12  H   UNL     1      46.405  31.457  45.606  0.00  0.00    +0.000 HD
ATOM     13  H   UNL     1      47.660  31.871  47.724  0.00  0.00    +0.000 HD
ATOM     14  H   UNL     1      47.460  33.714  47.356  0.00  0.00    +0.000 HD
ATOM     15  H   UNL     1      45.154  31.568  47.847  0.00  0.00    +0.000 HD
BRANCH  11  16
ATOM     16  N   UNL     1      44.845  33.711  47.792  0.00  0.00    +0.000 NA
ATOM     17  H   UNL     1      44.442  33.548  48.742  0.00  0.00    +0.000 HD
ATOM     18  H   UNL     1      45.482  34.528  47.905  0.00  0.00    +0.000 HD
ENDBRANCH  11  16
ENDBRANCH   5   9
BRANCH   1  19
ATOM     19  C   UNL     1      46.928  34.953  41.971  0.00  0.00    +0.000 C 
ATOM     20  O   UNL     1      48.077  35.506  41.862  0.00  0.00    +0.000 OA
BRANCH  19  22
ATOM     21  C   UNL     1      47.356  34.281  39.596  0.00  0.00    +0.000 A 
ATOM     22  C   UNL     1      46.492  34.602  40.622  0.00  0.00    +0.000 A 
ATOM     23  C   UNL     1      45.127  34.591  40.356  0.00  0.00    +0.000 A 
ATOM     24  H   UNL     1      44.372  34.834  41.117  0.00  0.00    +0.000 HD
ATOM     25  C   UNL     1      44.618  34.271  39.108  0.00  0.00    +0.000 A 
ATOM     26  H   UNL     1      43.566  34.268  38.924  0.00  0.00    +0.000 HD
ATOM     27  C   UNL     1      45.498  33.952  38.091  0.00  0.00    +0.000 A 
ATOM     28  C   UNL     1      46.865  33.960  38.346  0.00  0.00    +0.000 A 
BRANCH  21  30
ATOM     29  N   UNL     1      49.893  34.291  40.057  0.00  0.00    +0.000 NA
ATOM     30  C   UNL     1      48.768  34.287  39.851  0.00  0.00    +0.000 C 
ENDBRANCH  21  30
ENDBRANCH  19  22
ENDBRANCH   1  19
TORSDOF 5
