REMARK  Name = 
REMARK  2 active torsions:
REMARK  status: ('A' for Active; 'I' for Inactive)
REMARK    1  A    between atoms: C_2  and  N_7
REMARK    2  A    between atoms: C_8  and  C_26
REMARK                            x       y       z     vdW  Elec       q    Type
REMARK                         _______ _______ _______ _____ _____    ______ ____
ROOT
ATOM      1  N   UNL     1      44.294  34.400  41.978  0.00  0.00    +0.000 N 
ATOM      2  C   UNL     1      44.548  33.477  40.930  0.00  0.00    +0.000 C 
ATOM      3  C   UNL     1      43.847  33.789  39.644  0.00  0.00    +0.000 C 
ATOM      4  N   UNL     1      42.558  34.325  39.741  0.00  0.00    +0.000 NA
ATOM      5  C   UNL     1      42.346  35.263  40.763  0.00  0.00    +0.000 C 
ATOM      6  C   UNL     1      43.583  35.572  41.549  0.00  0.00    +0.000 C 
ATOM      7  H   UNL     1      44.212  32.473  41.264  0.00  0.00    +0.000 HD
ATOM      8  H   UNL     1      44.479  34.592  39.159  0.00  0.00    +0.000 HD
ATOM      9  H   UNL     1      43.851  32.889  38.996  0.00  0.00    +0.000 HD
ATOM     10  H   UNL     1      42.117  34.455  38.832  0.00  0.00    +0.000 HD
ATOM     11  H   UNL     1      41.544  34.915  41.437  0.00  0.00    +0.000 HD
ATOM     12  H   UNL     1      42.053  36.239  40.276  0.00  0.00    +0.000 HD
ATOM     13  H   UNL     1      43.354  36.316  42.327  0.00  0.00    +0.000 HD
ATOM     14  H   UNL     1      44.250  36.120  40.831  0.00  0.00    +0.000 HD
ENDROOT
BRANCH   1  16
ATOM     15  C   UNL     1      44.705  35.170  44.189  0.00  0.00    +0.000 A 
ATOM     16  C   UNL     1      44.743  34.103  43.274  0.00  0.00    +0.000 A 
ATOM     17  C   UNL     1      45.229  32.883  43.709  0.00  0.00    +0.000 A 
ATOM     18  N   UNL     1      45.663  32.718  44.991  0.00  0.00    +0.000 NA
ATOM     19  C   UNL     1      45.617  33.772  45.864  0.00  0.00    +0.000 A 
ATOM     20  N   UNL     1      45.147  34.968  45.465  0.00  0.00    +0.000 NA
ATOM     21  H   UNL     1      44.369  36.185  44.053  0.00  0.00    +0.000 HD
ATOM     22  H   UNL     1      45.249  32.053  43.019  0.00  0.00    +0.000 HD
ATOM     23  H   UNL     1      45.960  33.641  46.880  0.00  0.00    +0.000 HD
ENDBRANCH   1  16
BRANCH   2  26
ATOM     24  O   UNL     1      46.088  31.111  39.050  0.00  0.00    +0.000 OA
ATOM     25  C   UNL     1      46.332  32.132  39.770  0.00  0.00    +0.000 C 
ATOM     26  C   UNL     1      46.002  33.325  40.581  0.00  0.00    +0.000 C 
ATOM     27  C   UNL     1      46.874  33.078  41.790  0.00  0.00    +0.000 C 
ATOM     28  H   UNL     1      46.688  32.115  42.272  0.00  0.00    +0.000 HD
ATOM     29  C   UNL     1      48.225  32.925  41.071  0.00  0.00    +0.000 C 
ATOM     30  H   UNL     1      48.659  33.901  40.820  0.00  0.00    +0.000 HD
ATOM     31  N   UNL     1      47.778  32.187  39.878  0.00  0.00    +0.000 N 
ATOM     32  H   UNL     1      48.660  31.862  39.367  0.00  0.00    +0.000 HD
ENDBRANCH   2  26
TORSDOF 2
