
 OpenBabel03252508323D

 32 34  0  0  1  0  0  0  0  0999 V2000
   46.2120   33.8700   42.0300 N   0  0  0  0  0  0  0  0  0  0  0  0
   47.2940   32.9530   41.9730 C   0  0  1  0  0  0  0  0  0  0  0  0
   47.6040   32.4430   40.6000 C   0  0  0  0  0  0  0  0  0  0  0  0
   46.5160   32.2190   39.7490 N   0  0  0  0  0  0  0  0  0  0  0  0
   45.4770   33.1620   39.8000 C   0  0  0  0  0  0  0  0  0  0  0  0
   45.7540   34.2960   40.7380 C   0  0  0  0  0  0  0  0  0  0  0  0
   47.0420   32.0800   42.6100 H   0  0  0  0  0  0  0  0  0  0  0  0
   48.2090   33.2670   40.1160 H   0  0  0  0  0  0  0  0  0  0  0  0
   48.2340   31.5340   40.6790 H   0  0  0  0  0  0  0  0  0  0  0  0
   46.7920   31.8150   38.8550 H   0  0  0  0  0  0  0  0  0  0  0  0
   44.5280   32.6670   40.0710 H   0  0  0  0  0  0  0  0  0  0  0  0
   45.3950   33.6350   38.7780 H   0  0  0  0  0  0  0  0  0  0  0  0
   44.9090   35.0020   40.7270 H   0  0  0  0  0  0  0  0  0  0  0  0
   46.5950   34.8660   40.2590 H   0  0  0  0  0  0  0  0  0  0  0  0
   45.1170   35.5350   43.3260 C   0  0  0  0  0  0  0  0  0  0  0  0
   45.7140   34.2630   43.2820 C   0  0  0  0  0  0  0  0  0  0  0  0
   45.7820   33.5290   44.4530 C   0  0  0  0  0  0  0  0  0  0  0  0
   45.2850   34.0260   45.6220 N   0  0  0  0  0  0  0  0  0  0  0  0
   44.7080   35.2670   45.6400 C   0  0  0  0  0  0  0  0  0  0  0  0
   44.6290   35.9990   44.5140 N   0  0  0  0  0  0  0  0  0  0  0  0
   44.9670   36.2550   42.5390 H   0  0  0  0  0  0  0  0  0  0  0  0
   46.2260   32.5450   44.4280 H   0  0  0  0  0  0  0  0  0  0  0  0
   44.3130   35.6610   46.5660 H   0  0  0  0  0  0  0  0  0  0  0  0
   48.6740   36.0310   41.6180 O   0  0  0  0  0  0  0  0  0  0  0  0
   48.9040   34.8830   42.1170 C   0  0  0  0  0  0  0  0  0  0  0  0
   48.5880   33.4930   42.5140 C   0  0  2  0  0  3  0  0  0  0  0  0
   49.8000   32.7750   41.9640 C   0  0  0  0  0  3  0  0  0  0  0  0
   49.9540   32.9360   40.8950 H   0  0  0  0  0  0  0  0  0  0  0  0
   50.8920   33.5990   42.6670 C   0  0  0  0  0  3  0  0  0  0  0  0
   51.0340   33.2760   43.7060 H   0  0  0  0  0  0  0  0  0  0  0  0
   50.2800   34.9350   42.5760 N   0  0  0  0  0  0  0  0  0  0  0  0
   51.0250   35.6390   42.8810 H   0  0  0  0  0  0  0  0  0  0  0  0
  1 16  1  0  0  0  0
  2  1  1  0  0  0  0
  2 26  1  0  0  0  0
  2  7  1  1  0  0  0
  3  9  1  0  0  0  0
  3  2  1  0  0  0  0
  4  5  1  0  0  0  0
  4  3  1  0  0  0  0
  5 11  1  0  0  0  0
  5  6  1  0  0  0  0
  6  1  1  0  0  0  0
  8  3  1  0  0  0  0
 10  4  1  0  0  0  0
 12  5  1  0  0  0  0
 13  6  1  0  0  0  0
 14  6  1  0  0  0  0
 15 20  1  0  0  0  0
 16 15  2  0  0  0  0
 16 17  1  0  0  0  0
 17 18  2  0  0  0  0
 18 19  1  0  0  0  0
 19 23  1  0  0  0  0
 20 19  2  0  0  0  0
 21 15  1  0  0  0  0
 22 17  1  0  0  0  0
 24 25  2  0  0  0  0
 25 26  1  0  0  0  0
 25 31  1  0  0  0  0
 26 27  1  6  0  0  0
 27 29  1  0  0  0  0
 28 27  1  0  0  0  0
 29 30  1  0  0  0  0
 31 29  1  0  0  0  0
 31 32  1  0  0  0  0
M  END
>  <minimizedAffinity>
-5.05856514

>  <minimizedRMSD>
3.12752914

$$$$
