
 OpenBabel03252508323D

 32 34  0  0  1  0  0  0  0  0999 V2000
   45.3060   33.9480   41.6560 N   0  0  0  0  0  0  0  0  0  0  0  0
   46.3330   33.3700   40.8640 C   0  0  1  0  0  0  0  0  0  0  0  0
   46.0360   33.3280   39.3970 C   0  0  0  0  0  0  0  0  0  0  0  0
   44.7100   33.0770   39.0270 N   0  0  0  0  0  0  0  0  0  0  0  0
   43.7170   33.6920   39.8050 C   0  0  0  0  0  0  0  0  0  0  0  0
   44.2700   34.5730   40.8820 C   0  0  0  0  0  0  0  0  0  0  0  0
   46.4890   32.3260   41.2080 H   0  0  0  0  0  0  0  0  0  0  0  0
   46.2670   34.3710   39.0260 H   0  0  0  0  0  0  0  0  0  0  0  0
   46.7240   32.6110   38.9030 H   0  0  0  0  0  0  0  0  0  0  0  0
   44.5900   33.0000   38.0180 H   0  0  0  0  0  0  0  0  0  0  0  0
   43.0510   32.9280   40.2440 H   0  0  0  0  0  0  0  0  0  0  0  0
   43.1310   34.3810   39.1300 H   0  0  0  0  0  0  0  0  0  0  0  0
   43.4450   35.0300   41.4500 H   0  0  0  0  0  0  0  0  0  0  0  0
   44.7390   35.4350   40.3350 H   0  0  0  0  0  0  0  0  0  0  0  0
   44.9170   34.9860   43.7580 C   0  0  0  0  0  0  0  0  0  0  0  0
   45.3940   33.8660   43.0540 C   0  0  0  0  0  0  0  0  0  0  0  0
   45.9190   32.8110   43.7780 C   0  0  0  0  0  0  0  0  0  0  0  0
   45.9750   32.8540   45.1390 N   0  0  0  0  0  0  0  0  0  0  0  0
   45.5050   33.9550   45.8040 C   0  0  0  0  0  0  0  0  0  0  0  0
   44.9890   34.9940   45.1220 N   0  0  0  0  0  0  0  0  0  0  0  0
   44.4790   35.8990   43.3900 H   0  0  0  0  0  0  0  0  0  0  0  0
   46.2740   31.9400   43.2480 H   0  0  0  0  0  0  0  0  0  0  0  0
   45.5490   33.9890   46.8830 H   0  0  0  0  0  0  0  0  0  0  0  0
   49.1710   32.2860   42.3700 O   0  0  0  0  0  0  0  0  0  0  0  0
   48.6800   33.2960   41.7690 C   0  0  0  0  0  0  0  0  0  0  0  0
   47.6680   34.0470   40.9950 C   0  0  2  0  0  3  0  0  0  0  0  0
   47.6040   35.3220   41.8040 C   0  0  0  0  0  3  0  0  0  0  0  0
   47.3640   35.1580   42.8560 H   0  0  0  0  0  0  0  0  0  0  0  0
   49.0970   35.6900   41.7720 C   0  0  0  0  0  3  0  0  0  0  0  0
   49.3720   36.1730   40.8270 H   0  0  0  0  0  0  0  0  0  0  0  0
   49.6760   34.3420   41.9020 N   0  0  0  0  0  0  0  0  0  0  0  0
   50.7260   34.4710   42.0680 H   0  0  0  0  0  0  0  0  0  0  0  0
  1 16  1  0  0  0  0
  2 26  1  0  0  0  0
  2  7  1  1  0  0  0
  2  1  1  0  0  0  0
  3  2  1  0  0  0  0
  4  3  1  0  0  0  0
  4  5  1  0  0  0  0
  5 11  1  0  0  0  0
  5  6  1  0  0  0  0
  6 13  1  0  0  0  0
  6  1  1  0  0  0  0
  8  3  1  0  0  0  0
  9  3  1  0  0  0  0
 10  4  1  0  0  0  0
 12  5  1  0  0  0  0
 14  6  1  0  0  0  0
 15 20  1  0  0  0  0
 16 15  2  0  0  0  0
 16 17  1  0  0  0  0
 17 18  2  0  0  0  0
 18 19  1  0  0  0  0
 19 23  1  0  0  0  0
 20 19  2  0  0  0  0
 21 15  1  0  0  0  0
 22 17  1  0  0  0  0
 25 31  1  0  0  0  0
 25 24  2  0  0  0  0
 26 25  1  1  0  0  0
 26 27  1  0  0  0  0
 27 28  1  0  0  0  0
 29 27  1  0  0  0  0
 29 31  1  0  0  0  0
 30 29  1  0  0  0  0
 31 32  1  0  0  0  0
M  END
>  <minimizedAffinity>
-4.60352278

>  <minimizedRMSD>
1.68895924

$$$$
