
     RDKit          3D

 23 24  0  0  0  0  0  0  0  0999 V2000
   46.2198   34.8359   43.1896 C   0  0  0  0  0  0  0  0  0  0  0  0
   45.3204   35.9123   43.2803 C   0  0  0  0  0  0  0  0  0  0  0  0
   44.5636   36.0077   44.4493 C   0  0  0  0  0  0  0  0  0  0  0  0
   44.7374   35.0632   45.4244 N   0  0  0  0  0  0  0  0  0  0  0  0
   45.6159   34.0521   45.2812 C   0  0  0  0  0  0  0  0  0  0  0  0
   46.3519   33.9396   44.1713 N   0  0  0  0  0  0  0  0  0  0  0  0
   46.9606   34.7978   41.9711 C   0  0  0  0  0  0  0  0  0  0  0  0
   48.0574   35.3944   41.7268 O   0  0  0  0  0  0  0  0  0  0  0  0
   45.1631   36.6639   42.5368 H   0  0  0  0  0  0  0  0  0  0  0  0
   43.8517   36.7997   44.6020 H   0  0  0  0  0  0  0  0  0  0  0  0
   46.7920   34.2947   41.0264 H   0  0  0  0  0  0  0  0  0  0  0  0
   43.1541   33.2166   46.8448 O   0  0  0  0  0  0  0  0  0  0  0  0
   44.3365   32.7544   46.9375 C   0  0  0  0  0  0  0  0  0  0  0  0
   45.6841   33.1110   46.4329 C   0  0  1  0  0  0  0  0  0  0  0  0
   46.2707   31.7820   46.1008 C   0  0  2  0  0  0  0  0  0  0  0  0
   47.3837   31.8798   46.1448 H   0  0  0  0  0  0  0  0  0  0  0  0
   45.7487   30.8949   47.2080 C   0  0  1  0  0  0  0  0  0  0  0  0
   45.5146   29.8797   46.8264 H   0  0  0  0  0  0  0  0  0  0  0  0
   44.5719   31.5786   47.7048 N   0  0  0  0  0  0  0  0  0  0  0  0
   46.2342   33.6145   47.2436 H   0  0  0  0  0  0  0  0  0  0  0  0
   45.9255   31.4346   45.1077 H   0  0  0  0  0  0  0  0  0  0  0  0
   46.5171   30.8927   48.0097 H   0  0  0  0  0  0  0  0  0  0  0  0
   44.0754   31.1283   48.5308 H   0  0  0  0  0  0  0  0  0  0  0  0
  1  2  2  0
  1  6  1  0
  2  3  1  0
  3  4  2  0
  5  4  1  0
  6  5  2  0
  7  1  1  0
  8  7  2  0
  2  9  1  0
  3 10  1  0
  7 11  1  0
 12 13  2  0
 13 14  1  0
 14 15  1  0
 15 16  1  6
 15 17  1  0
 17 18  1  6
 17 19  1  0
 19 13  1  0
 14 20  1  1
 15 21  1  0
 17 22  1  0
 19 23  1  0
  5 14  1  0
M  ISO  5   9  14  10  14  11   6  16   8  18   8
M  END
>  <DihAtoms>  (1) 
3,4,13,12

>  <DihDeg>  (1) 
-61.12811506294052

$$$$
