REMARK  Name = 
REMARK  8 active torsions:
REMARK  status: ('A' for Active; 'I' for Inactive)
REMARK    1  A    between atoms: P_2  and  O_3
REMARK    2  A    between atoms: P_2  and  O_4
REMARK    3  A    between atoms: P_2  and  O_12
REMARK    4  A    between atoms: O_4  and  C_9
REMARK    5  A    between atoms: C_5  and  O_11
REMARK    6  A    between atoms: O_12  and  C_14
REMARK    7  A    between atoms: C_13  and  O_18
REMARK    8  A    between atoms: O_18  and  C_31
REMARK                            x       y       z     vdW  Elec       q    Type
REMARK                         _______ _______ _______ _____ _____    ______ ____
ROOT
ATOM      1  C   UNL     1      46.781  29.999  48.070  0.00  0.00    +0.000 C 
ATOM      2  C   UNL     1      45.332  30.290  48.152  0.00  0.00    +0.000 C 
ATOM      3  C   UNL     1      44.744  29.459  47.072  0.00  0.00    +0.000 C 
ATOM      4  O   UNL     1      45.547  28.346  46.912  0.00  0.00    +0.000 OA
ATOM      5  C   UNL     1      46.679  28.511  47.642  0.00  0.00    +0.000 C 
ATOM      6  H   UNL     1      47.453  30.371  47.356  0.00  0.00    +0.000 HD
ATOM      7  H   UNL     1      45.019  29.899  49.155  0.00  0.00    +0.000 HD
ATOM      8  H   UNL     1      43.783  29.020  47.486  0.00  0.00    +0.000 HD
ATOM      9  H   UNL     1      44.397  29.948  46.166  0.00  0.00    +0.000 HD
ATOM     10  H   UNL     1      47.600  28.142  47.198  0.00  0.00    +0.000 HD
ATOM     11  H   UNL     1      46.547  27.927  48.593  0.00  0.00    +0.000 HD
ENDROOT
BRANCH   2  12
ATOM     12  O   UNL     1      45.037  31.629  48.034  0.00  0.00    +0.000 OA
BRANCH  12  14
ATOM     13  O   UNL     1      47.314  32.691  47.502  0.00  0.00    +0.000 OA
ATOM     14  P   UNL     1      45.997  32.326  46.870  0.00  0.00    +0.000 P 
BRANCH  14  15
ATOM     15  O   UNL     1      46.291  31.209  45.631  0.00  0.00    +0.000 OA
ATOM     16  H   UNL     1      47.082  31.436  45.101  0.00  0.00    +0.000 HD
ENDBRANCH  14  15
BRANCH  14  17
ATOM     17  O   UNL     1      45.329  33.764  46.238  0.00  0.00    +0.000 OA
BRANCH  17  22
ATOM     18  C   UNL     1      45.221  35.828  43.325  0.00  0.00    +0.000 A 
ATOM     19  C   UNL     1      46.277  35.337  42.512  0.00  0.00    +0.000 A 
ATOM     20  C   UNL     1      47.020  34.260  43.029  0.00  0.00    +0.000 A 
ATOM     21  N   UNL     1      46.685  33.771  44.245  0.00  0.00    +0.000 NA
ATOM     22  C   UNL     1      45.676  34.267  44.982  0.00  0.00    +0.000 A 
ATOM     23  N   UNL     1      44.951  35.292  44.516  0.00  0.00    +0.000 NA
ATOM     24  H   UNL     1      46.498  35.772  41.542  0.00  0.00    +0.000 HD
ATOM     25  H   UNL     1      47.838  33.845  42.452  0.00  0.00    +0.000 HD
BRANCH  18  26
ATOM     26  O   UNL     1      44.495  36.878  42.822  0.00  0.00    +0.000 OA
ATOM     27  H   UNL     1      44.305  36.897  41.826  0.00  0.00    +0.000 HD
ENDBRANCH  18  26
ENDBRANCH  17  22
ENDBRANCH  14  17
ENDBRANCH  12  14
ENDBRANCH   2  12
BRANCH   1  28
ATOM     28  O   UNL     1      47.471  30.130  49.243  0.00  0.00    +0.000 OA
BRANCH  28  31
ATOM     29  O   UNL     1      48.612  32.983  49.671  0.00  0.00    +0.000 OA
ATOM     30  C   UNL     1      48.885  32.012  48.886  0.00  0.00    +0.000 C 
ATOM     31  C   UNL     1      48.727  30.572  49.303  0.00  0.00    +0.000 C 
ATOM     32  C   UNL     1      49.497  29.922  48.172  0.00  0.00    +0.000 C 
ATOM     33  H   UNL     1      50.576  29.830  48.365  0.00  0.00    +0.000 HD
ATOM     34  C   UNL     1      49.210  30.836  46.983  0.00  0.00    +0.000 C 
ATOM     35  H   UNL     1      50.038  30.689  46.259  0.00  0.00    +0.000 HD
ATOM     36  N   UNL     1      49.362  32.164  47.552  0.00  0.00    +0.000 N 
ATOM     37  H   UNL     1      49.715  33.075  47.185  0.00  0.00    +0.000 HD
ENDBRANCH  28  31
ENDBRANCH   1  28
TORSDOF 8
