
 OpenBabel03252508243D

 48 51  0  0  1  0  0  0  0  0999 V2000
   38.2340   26.1110   42.7630 C   0  0  0  0  0  0  0  0  0  0  0  0
   36.9800   25.6190   42.4680 C   0  0  0  0  0  0  0  0  0  0  0  0
   36.7400   24.5310   41.6680 C   0  0  0  0  0  0  0  0  0  0  0  0
   37.8750   23.9080   41.1330 C   0  0  0  0  0  0  0  0  0  0  0  0
   39.1430   24.3540   41.3930 C   0  0  0  0  0  0  0  0  0  0  0  0
   39.3330   25.4400   42.1950 C   0  0  0  0  0  0  0  0  0  0  0  0
   36.0610   26.0350   42.8510 H   0  0  0  0  0  0  0  0  0  0  0  0
   35.7750   24.1280   41.4230 H   0  0  0  0  0  0  0  0  0  0  0  0
   37.7440   23.0330   40.4840 H   0  0  0  0  0  0  0  0  0  0  0  0
   39.9690   23.8110   40.9370 H   0  0  0  0  0  0  0  0  0  0  0  0
   40.6730   25.8180   42.4090 N   0  0  0  0  0  0  0  0  0  0  0  0
   41.4340   25.4720   43.5730 C   0  0  0  0  0  0  0  0  0  0  0  0
   42.9230   25.5870   43.3100 C   0  0  0  0  0  0  0  0  0  0  0  0
   43.3320   25.1720   42.0090 N   0  0  0  0  0  0  0  0  0  0  0  0
   42.6320   25.7920   40.9430 C   0  0  0  0  0  0  0  0  0  0  0  0
   41.4880   26.6180   41.4820 C   0  0  0  0  0  0  0  0  0  0  0  0
   41.1480   24.5770   44.1130 H   0  0  0  0  0  0  0  0  0  0  0  0
   41.2270   26.3140   44.3020 H   0  0  0  0  0  0  0  0  0  0  0  0
   43.4210   24.9000   44.0360 H   0  0  0  0  0  0  0  0  0  0  0  0
   43.3080   26.6240   43.4880 H   0  0  0  0  0  0  0  0  0  0  0  0
   44.3520   25.2380   41.9740 H   0  0  0  0  0  0  0  0  0  0  0  0
   43.2390   26.4360   40.2960 H   0  0  0  0  0  0  0  0  0  0  0  0
   42.1750   24.9770   40.3190 H   0  0  0  0  0  0  0  0  0  0  0  0
   41.8970   27.4790   42.0270 H   0  0  0  0  0  0  0  0  0  0  0  0
   40.8650   26.9730   40.6500 H   0  0  0  0  0  0  0  0  0  0  0  0
   38.4850   27.2760   43.6170 C   0  0  0  0  0  0  0  0  0  0  0  0
   39.4630   27.7400   43.4780 H   0  0  0  0  0  0  0  0  0  0  0  0
   38.5140   26.8670   44.6700 H   0  0  0  0  0  0  0  0  0  0  0  0
   37.3930   28.3140   43.4730 C   0  0  0  0  0  0  0  0  0  0  0  0
   36.4600   27.9650   43.0620 H   0  0  0  0  0  0  0  0  0  0  0  0
   37.2480   28.7920   44.4880 H   0  0  0  0  0  0  0  0  0  0  0  0
   39.6030   30.9870   41.9790 C   0  0  0  0  0  0  0  0  0  0  0  0
   39.1610   29.9400   42.8180 C   0  0  0  0  0  0  0  0  0  0  0  0
   37.8830   29.4190   42.6140 C   0  0  0  0  0  0  0  0  0  0  0  0
   37.1240   29.9540   41.6070 N   0  0  0  0  0  0  0  0  0  0  0  0
   37.5800   30.9490   40.8310 C   0  0  0  0  0  0  0  0  0  0  0  0
   38.8110   31.4650   41.0140 N   0  0  0  0  0  0  0  0  0  0  0  0
   40.6010   31.3580   42.1770 H   0  0  0  0  0  0  0  0  0  0  0  0
   39.8120   29.5710   43.5860 H   0  0  0  0  0  0  0  0  0  0  0  0
   37.2650   33.9330   39.6560 O   0  0  0  0  0  0  0  0  0  0  0  0
   37.3020   32.7630   39.1640 C   0  0  0  0  0  0  0  0  0  0  0  0
   36.7520   31.5320   39.7340 C   0  0  1  0  0  3  0  0  0  0  0  0
   36.6700   30.5790   38.5530 C   0  0  0  0  0  3  0  0  0  0  0  0
   36.8300   29.5370   38.9460 H   0  0  0  0  0  0  0  0  0  0  0  0
   37.7500   31.0180   37.5980 C   0  0  0  0  0  3  0  0  0  0  0  0
   38.6880   30.4950   37.8910 H   0  0  0  0  0  0  0  0  0  0  0  0
   37.9080   32.4230   37.9220 N   0  0  0  0  0  0  0  0  0  0  0  0
   38.4240   33.0880   37.2760 H   0  0  0  0  0  0  0  0  0  0  0  0
  1 26  1  0  0  0  0
  2  1  1  0  0  0  0
  2  7  1  0  0  0  0
  3  2  2  0  0  0  0
  4  5  2  0  0  0  0
  4  3  1  0  0  0  0
  5  6  1  0  0  0  0
  6 11  1  0  0  0  0
  6  1  2  0  0  0  0
  8  3  1  0  0  0  0
  9  4  1  0  0  0  0
 10  5  1  0  0  0  0
 11 12  1  0  0  0  0
 12 17  1  0  0  0  0
 12 18  1  0  0  0  0
 13 20  1  0  0  0  0
 13 12  1  0  0  0  0
 13 19  1  0  0  0  0
 14 13  1  0  0  0  0
 15 16  1  0  0  0  0
 15 14  1  0  0  0  0
 16 24  1  0  0  0  0
 16 11  1  0  0  0  0
 21 14  1  0  0  0  0
 22 15  1  0  0  0  0
 23 15  1  0  0  0  0
 25 16  1  0  0  0  0
 26 28  1  0  0  0  0
 27 26  1  0  0  0  0
 29 26  1  0  0  0  0
 29 31  1  0  0  0  0
 30 29  1  0  0  0  0
 32 38  1  0  0  0  0
 32 33  1  0  0  0  0
 33 39  1  0  0  0  0
 34 33  2  0  0  0  0
 34 29  1  0  0  0  0
 35 34  1  0  0  0  0
 36 37  1  0  0  0  0
 36 35  2  0  0  0  0
 37 32  2  0  0  0  0
 41 40  2  0  0  0  0
 41 42  1  0  0  0  0
 42 36  1  1  0  0  0
 43 44  1  0  0  0  0
 43 42  1  0  0  0  0
 45 46  1  0  0  0  0
 45 47  1  0  0  0  0
 45 43  1  0  0  0  0
 47 41  1  0  0  0  0
 48 47  1  0  0  0  0
M  END
>  <minimizedAffinity>
-6.67566204

$$$$

 OpenBabel03252508243D

 48 51  0  0  1  0  0  0  0  0999 V2000
   36.3380   30.2440   38.8770 C   0  0  0  0  0  0  0  0  0  0  0  0
   35.7030   29.3160   38.0800 C   0  0  0  0  0  0  0  0  0  0  0  0
   35.8890   29.1960   36.7260 C   0  0  0  0  0  0  0  0  0  0  0  0
   36.7950   30.0990   36.1550 C   0  0  0  0  0  0  0  0  0  0  0  0
   37.4550   31.0410   36.8990 C   0  0  0  0  0  0  0  0  0  0  0  0
   37.2370   31.1220   38.2430 C   0  0  0  0  0  0  0  0  0  0  0  0
   35.0030   28.5810   38.4460 H   0  0  0  0  0  0  0  0  0  0  0  0
   35.4070   28.4840   36.0830 H   0  0  0  0  0  0  0  0  0  0  0  0
   36.9830   30.0510   35.0750 H   0  0  0  0  0  0  0  0  0  0  0  0
   38.1410   31.7030   36.3760 H   0  0  0  0  0  0  0  0  0  0  0  0
   37.9670   32.1160   38.9240 N   0  0  0  0  0  0  0  0  0  0  0  0
   37.4360   33.3920   39.3020 C   0  0  0  0  0  0  0  0  0  0  0  0
   38.2620   34.0240   40.4060 C   0  0  0  0  0  0  0  0  0  0  0  0
   38.7540   33.1100   41.3810 N   0  0  0  0  0  0  0  0  0  0  0  0
   39.4710   32.0080   40.8510 C   0  0  0  0  0  0  0  0  0  0  0  0
   39.3720   31.9990   39.3440 C   0  0  0  0  0  0  0  0  0  0  0  0
   36.3660   33.4660   39.4520 H   0  0  0  0  0  0  0  0  0  0  0  0
   37.6370   34.0550   38.4060 H   0  0  0  0  0  0  0  0  0  0  0  0
   37.5780   34.7270   40.9410 H   0  0  0  0  0  0  0  0  0  0  0  0
   39.1260   34.6140   40.0060 H   0  0  0  0  0  0  0  0  0  0  0  0
   39.2370   33.6570   42.0970 H   0  0  0  0  0  0  0  0  0  0  0  0
   40.5330   31.9670   41.1200 H   0  0  0  0  0  0  0  0  0  0  0  0
   38.9680   31.0710   41.2110 H   0  0  0  0  0  0  0  0  0  0  0  0
   39.9300   32.8580   38.9460 H   0  0  0  0  0  0  0  0  0  0  0  0
   39.8020   31.0680   38.9500 H   0  0  0  0  0  0  0  0  0  0  0  0
   36.1340   30.3700   40.3230 C   0  0  0  0  0  0  0  0  0  0  0  0
   35.5130   31.2160   40.6240 H   0  0  0  0  0  0  0  0  0  0  0  0
   37.1560   30.6050   40.7450 H   0  0  0  0  0  0  0  0  0  0  0  0
   35.5890   29.0890   40.9190 C   0  0  0  0  0  0  0  0  0  0  0  0
   34.7260   29.1950   41.5580 H   0  0  0  0  0  0  0  0  0  0  0  0
   35.3890   28.3780   40.0630 H   0  0  0  0  0  0  0  0  0  0  0  0
   38.4150   28.5090   43.3560 C   0  0  0  0  0  0  0  0  0  0  0  0
   37.4090   29.1690   42.6150 C   0  0  0  0  0  0  0  0  0  0  0  0
   36.6560   28.4250   41.7060 C   0  0  0  0  0  0  0  0  0  0  0  0
   36.9350   27.0900   41.5810 N   0  0  0  0  0  0  0  0  0  0  0  0
   37.8990   26.4990   42.3030 C   0  0  0  0  0  0  0  0  0  0  0  0
   38.6360   27.2010   43.1860 N   0  0  0  0  0  0  0  0  0  0  0  0
   38.9720   29.1280   44.0470 H   0  0  0  0  0  0  0  0  0  0  0  0
   37.2480   30.2180   42.7670 H   0  0  0  0  0  0  0  0  0  0  0  0
   36.2170   23.9970   41.1630 O   0  0  0  0  0  0  0  0  0  0  0  0
   37.4300   24.3720   41.1190 C   0  0  0  0  0  0  0  0  0  0  0  0
   38.2020   25.0440   42.1660 C   0  0  1  0  0  3  0  0  0  0  0  0
   39.6490   24.8280   41.7590 C   0  0  0  0  0  3  0  0  0  0  0  0
   40.2370   25.7220   42.1070 H   0  0  0  0  0  0  0  0  0  0  0  0
   39.6350   24.6850   40.2580 C   0  0  0  0  0  3  0  0  0  0  0  0
   39.7160   25.7070   39.8250 H   0  0  0  0  0  0  0  0  0  0  0  0
   38.2920   24.2010   39.9990 N   0  0  0  0  0  0  0  0  0  0  0  0
   38.0250   23.7750   39.0650 H   0  0  0  0  0  0  0  0  0  0  0  0
  1 26  1  0  0  0  0
  2  7  1  0  0  0  0
  2  1  2  0  0  0  0
  3  2  1  0  0  0  0
  4  3  2  0  0  0  0
  4  5  1  0  0  0  0
  5  6  2  0  0  0  0
  6  1  1  0  0  0  0
  6 11  1  0  0  0  0
  8  3  1  0  0  0  0
  9  4  1  0  0  0  0
 10  5  1  0  0  0  0
 11 12  1  0  0  0  0
 11 16  1  0  0  0  0
 12 17  1  0  0  0  0
 12 13  1  0  0  0  0
 13 19  1  0  0  0  0
 13 14  1  0  0  0  0
 14 21  1  0  0  0  0
 15 22  1  0  0  0  0
 15 23  1  0  0  0  0
 15 14  1  0  0  0  0
 16 15  1  0  0  0  0
 18 12  1  0  0  0  0
 20 13  1  0  0  0  0
 24 16  1  0  0  0  0
 25 16  1  0  0  0  0
 26 27  1  0  0  0  0
 26 28  1  0  0  0  0
 26 29  1  0  0  0  0
 29 30  1  0  0  0  0
 29 34  1  0  0  0  0
 31 29  1  0  0  0  0
 32 38  1  0  0  0  0
 33 39  1  0  0  0  0
 33 32  2  0  0  0  0
 34 33  1  0  0  0  0
 35 34  2  0  0  0  0
 35 36  1  0  0  0  0
 36 37  2  0  0  0  0
 37 32  1  0  0  0  0
 41 40  2  0  0  0  0
 41 42  1  0  0  0  0
 42 36  1  6  0  0  0
 43 44  1  0  0  0  0
 43 42  1  0  0  0  0
 45 43  1  0  0  0  0
 46 45  1  0  0  0  0
 47 45  1  0  0  0  0
 47 41  1  0  0  0  0
 48 47  1  0  0  0  0
M  END
>  <minimizedAffinity>
-6.210639

$$$$

 OpenBabel03252508243D

 48 51  0  0  1  0  0  0  0  0999 V2000
   38.1370   26.4620   42.6010 C   0  0  0  0  0  0  0  0  0  0  0  0
   39.1400   26.5710   43.5410 C   0  0  0  0  0  0  0  0  0  0  0  0
   40.1760   25.6820   43.6800 C   0  0  0  0  0  0  0  0  0  0  0  0
   40.1760   24.6040   42.7850 C   0  0  0  0  0  0  0  0  0  0  0  0
   39.2050   24.4470   41.8320 C   0  0  0  0  0  0  0  0  0  0  0  0
   38.1940   25.3560   41.7320 C   0  0  0  0  0  0  0  0  0  0  0  0
   39.2160   27.3770   44.2550 H   0  0  0  0  0  0  0  0  0  0  0  0
   40.9690   25.7440   44.4020 H   0  0  0  0  0  0  0  0  0  0  0  0
   40.9800   23.8610   42.8500 H   0  0  0  0  0  0  0  0  0  0  0  0
   39.2810   23.5810   41.1780 H   0  0  0  0  0  0  0  0  0  0  0  0
   37.2490   25.1130   40.7170 N   0  0  0  0  0  0  0  0  0  0  0  0
   37.1410   25.8810   39.5120 C   0  0  0  0  0  0  0  0  0  0  0  0
   36.3970   25.1130   38.4360 C   0  0  0  0  0  0  0  0  0  0  0  0
   36.6770   23.7170   38.3990 N   0  0  0  0  0  0  0  0  0  0  0  0
   36.5060   23.0460   39.6370 C   0  0  0  0  0  0  0  0  0  0  0  0
   36.2370   24.0450   40.7370 C   0  0  0  0  0  0  0  0  0  0  0  0
   38.0300   26.3890   39.1590 H   0  0  0  0  0  0  0  0  0  0  0  0
   36.4300   26.7210   39.7790 H   0  0  0  0  0  0  0  0  0  0  0  0
   36.7410   25.5350   37.4610 H   0  0  0  0  0  0  0  0  0  0  0  0
   35.2870   25.2510   38.5060 H   0  0  0  0  0  0  0  0  0  0  0  0
   36.1690   23.3240   37.6030 H   0  0  0  0  0  0  0  0  0  0  0  0
   35.7060   22.2970   39.6580 H   0  0  0  0  0  0  0  0  0  0  0  0
   37.4800   22.5460   39.8880 H   0  0  0  0  0  0  0  0  0  0  0  0
   35.2480   24.4950   40.5750 H   0  0  0  0  0  0  0  0  0  0  0  0
   36.2530   23.5360   41.7110 H   0  0  0  0  0  0  0  0  0  0  0  0
   37.0310   27.4120   42.4590 C   0  0  0  0  0  0  0  0  0  0  0  0
   36.0570   27.0280   42.7670 H   0  0  0  0  0  0  0  0  0  0  0  0
   36.9290   27.5800   41.3460 H   0  0  0  0  0  0  0  0  0  0  0  0
   37.3230   28.7150   43.1740 C   0  0  0  0  0  0  0  0  0  0  0  0
   36.4770   29.2060   43.6250 H   0  0  0  0  0  0  0  0  0  0  0  0
   38.1380   28.5070   43.9300 H   0  0  0  0  0  0  0  0  0  0  0  0
   39.7090   31.1980   41.6230 C   0  0  0  0  0  0  0  0  0  0  0  0
   39.1380   30.3030   42.5550 C   0  0  0  0  0  0  0  0  0  0  0  0
   37.9430   29.6650   42.2190 C   0  0  0  0  0  0  0  0  0  0  0  0
   37.3890   29.9410   40.9970 N   0  0  0  0  0  0  0  0  0  0  0  0
   37.9620   30.7980   40.1380 C   0  0  0  0  0  0  0  0  0  0  0  0
   39.1150   31.4240   40.4470 N   0  0  0  0  0  0  0  0  0  0  0  0
   40.6340   31.6680   41.9290 H   0  0  0  0  0  0  0  0  0  0  0  0
   39.6300   30.1360   43.4930 H   0  0  0  0  0  0  0  0  0  0  0  0
   39.1690   31.9360   37.3760 O   0  0  0  0  0  0  0  0  0  0  0  0
   38.3100   31.0580   37.6980 C   0  0  0  0  0  0  0  0  0  0  0  0
   37.3570   31.0990   38.8080 C   0  0  1  0  0  3  0  0  0  0  0  0
   36.3120   30.0590   38.4400 C   0  0  0  0  0  3  0  0  0  0  0  0
   35.9200   29.6180   39.3990 H   0  0  0  0  0  0  0  0  0  0  0  0
   37.0260   29.0480   37.5790 C   0  0  0  0  0  3  0  0  0  0  0  0
   37.4730   28.2880   38.2570 H   0  0  0  0  0  0  0  0  0  0  0  0
   38.1110   29.8260   37.0110 N   0  0  0  0  0  0  0  0  0  0  0  0
   38.6670   29.4790   36.1770 H   0  0  0  0  0  0  0  0  0  0  0  0
  1  2  1  0  0  0  0
  2  3  2  0  0  0  0
  2  7  1  0  0  0  0
  3  8  1  0  0  0  0
  4  9  1  0  0  0  0
  4  3  1  0  0  0  0
  5  4  2  0  0  0  0
  6  5  1  0  0  0  0
  6  1  2  0  0  0  0
 10  5  1  0  0  0  0
 11 16  1  0  0  0  0
 11  6  1  0  0  0  0
 12 18  1  0  0  0  0
 12 11  1  0  0  0  0
 13 20  1  0  0  0  0
 13 12  1  0  0  0  0
 14 13  1  0  0  0  0
 14 15  1  0  0  0  0
 15 22  1  0  0  0  0
 15 23  1  0  0  0  0
 15 16  1  0  0  0  0
 16 25  1  0  0  0  0
 17 12  1  0  0  0  0
 19 13  1  0  0  0  0
 21 14  1  0  0  0  0
 24 16  1  0  0  0  0
 26  1  1  0  0  0  0
 26 27  1  0  0  0  0
 26 29  1  0  0  0  0
 28 26  1  0  0  0  0
 29 30  1  0  0  0  0
 29 31  1  0  0  0  0
 32 38  1  0  0  0  0
 32 33  1  0  0  0  0
 33 39  1  0  0  0  0
 34 33  2  0  0  0  0
 34 29  1  0  0  0  0
 35 34  1  0  0  0  0
 36 37  1  0  0  0  0
 36 35  2  0  0  0  0
 37 32  2  0  0  0  0
 40 41  2  0  0  0  0
 41 42  1  0  0  0  0
 42 36  1  1  0  0  0
 43 42  1  0  0  0  0
 43 44  1  0  0  0  0
 45 46  1  0  0  0  0
 45 43  1  0  0  0  0
 47 45  1  0  0  0  0
 47 41  1  0  0  0  0
 48 47  1  0  0  0  0
M  END
>  <minimizedAffinity>
-5.85689831

$$$$

 OpenBabel03252508243D

 48 51  0  0  1  0  0  0  0  0999 V2000
   36.3790   27.8310   41.2140 C   0  0  0  0  0  0  0  0  0  0  0  0
   35.5530   28.8530   40.7940 C   0  0  0  0  0  0  0  0  0  0  0  0
   35.0460   28.9710   39.5250 C   0  0  0  0  0  0  0  0  0  0  0  0
   35.4170   27.9630   38.6260 C   0  0  0  0  0  0  0  0  0  0  0  0
   36.2330   26.9250   38.9880 C   0  0  0  0  0  0  0  0  0  0  0  0
   36.7140   26.8500   40.2620 C   0  0  0  0  0  0  0  0  0  0  0  0
   35.2140   29.6560   41.4290 H   0  0  0  0  0  0  0  0  0  0  0  0
   34.4020   29.7560   39.1730 H   0  0  0  0  0  0  0  0  0  0  0  0
   35.0410   28.0070   37.5960 H   0  0  0  0  0  0  0  0  0  0  0  0
   36.4720   26.1860   38.2270 H   0  0  0  0  0  0  0  0  0  0  0  0
   37.5390   25.7420   40.5420 N   0  0  0  0  0  0  0  0  0  0  0  0
   37.0580   24.4710   40.9960 C   0  0  0  0  0  0  0  0  0  0  0  0
   38.0780   23.3770   40.7450 C   0  0  0  0  0  0  0  0  0  0  0  0
   38.7960   23.5010   39.5210 N   0  0  0  0  0  0  0  0  0  0  0  0
   39.4210   24.7590   39.3260 C   0  0  0  0  0  0  0  0  0  0  0  0
   39.0040   25.7210   40.4120 C   0  0  0  0  0  0  0  0  0  0  0  0
   36.0420   24.1970   40.7380 H   0  0  0  0  0  0  0  0  0  0  0  0
   37.0420   24.5660   42.1240 H   0  0  0  0  0  0  0  0  0  0  0  0
   37.5000   22.4230   40.6830 H   0  0  0  0  0  0  0  0  0  0  0  0
   38.8170   23.2850   41.5820 H   0  0  0  0  0  0  0  0  0  0  0  0
   39.4020   22.6810   39.4380 H   0  0  0  0  0  0  0  0  0  0  0  0
   40.5160   24.7380   39.2940 H   0  0  0  0  0  0  0  0  0  0  0  0
   39.0370   25.1810   38.3580 H   0  0  0  0  0  0  0  0  0  0  0  0
   39.4360   25.3890   41.3660 H   0  0  0  0  0  0  0  0  0  0  0  0
   39.3710   26.7290   40.1740 H   0  0  0  0  0  0  0  0  0  0  0  0
   36.9210   27.7100   42.5700 C   0  0  0  0  0  0  0  0  0  0  0  0
   37.7100   26.9640   42.6810 H   0  0  0  0  0  0  0  0  0  0  0  0
   36.0660   27.3120   43.1930 H   0  0  0  0  0  0  0  0  0  0  0  0
   37.3940   29.0480   43.0990 C   0  0  0  0  0  0  0  0  0  0  0  0
   36.6500   29.8260   43.1490 H   0  0  0  0  0  0  0  0  0  0  0  0
   37.8700   28.8610   44.1070 H   0  0  0  0  0  0  0  0  0  0  0  0
   40.8010   29.4120   41.5100 C   0  0  0  0  0  0  0  0  0  0  0  0
   39.7600   28.9270   42.3340 C   0  0  0  0  0  0  0  0  0  0  0  0
   38.5080   29.5390   42.2520 C   0  0  0  0  0  0  0  0  0  0  0  0
   38.3570   30.5790   41.3750 N   0  0  0  0  0  0  0  0  0  0  0  0
   39.3700   31.0110   40.6080 C   0  0  0  0  0  0  0  0  0  0  0  0
   40.5860   30.4330   40.6740 N   0  0  0  0  0  0  0  0  0  0  0  0
   41.7520   28.9060   41.6090 H   0  0  0  0  0  0  0  0  0  0  0  0
   39.9530   28.1080   42.9970 H   0  0  0  0  0  0  0  0  0  0  0  0
   36.9940   31.8800   38.6130 O   0  0  0  0  0  0  0  0  0  0  0  0
   37.8090   32.4880   39.3740 C   0  0  0  0  0  0  0  0  0  0  0  0
   39.2040   32.1450   39.6530 C   0  0  1  0  0  3  0  0  0  0  0  0
   39.7960   33.4240   40.2210 C   0  0  0  0  0  3  0  0  0  0  0  0
   40.5930   33.1300   40.9590 H   0  0  0  0  0  0  0  0  0  0  0  0
   38.6450   34.1570   40.8630 C   0  0  0  0  0  3  0  0  0  0  0  0
   38.5570   33.7890   41.9100 H   0  0  0  0  0  0  0  0  0  0  0  0
   37.5010   33.6590   40.1230 N   0  0  0  0  0  0  0  0  0  0  0  0
   36.5590   34.1450   40.1640 H   0  0  0  0  0  0  0  0  0  0  0  0
  1 26  1  0  0  0  0
  2  1  1  0  0  0  0
  2  7  1  0  0  0  0
  3  2  2  0  0  0  0
  4  5  2  0  0  0  0
  4  3  1  0  0  0  0
  5  6  1  0  0  0  0
  6 11  1  0  0  0  0
  6  1  2  0  0  0  0
  8  3  1  0  0  0  0
  9  4  1  0  0  0  0
 10  5  1  0  0  0  0
 11 12  1  0  0  0  0
 12 18  1  0  0  0  0
 13 12  1  0  0  0  0
 13 20  1  0  0  0  0
 14 13  1  0  0  0  0
 15 14  1  0  0  0  0
 15 16  1  0  0  0  0
 16 11  1  0  0  0  0
 16 24  1  0  0  0  0
 17 12  1  0  0  0  0
 19 13  1  0  0  0  0
 21 14  1  0  0  0  0
 22 15  1  0  0  0  0
 23 15  1  0  0  0  0
 25 16  1  0  0  0  0
 26 27  1  0  0  0  0
 26 29  1  0  0  0  0
 26 28  1  0  0  0  0
 29 30  1  0  0  0  0
 29 31  1  0  0  0  0
 32 38  1  0  0  0  0
 32 33  1  0  0  0  0
 33 39  1  0  0  0  0
 34 33  2  0  0  0  0
 34 29  1  0  0  0  0
 35 34  1  0  0  0  0
 36 37  1  0  0  0  0
 36 35  2  0  0  0  0
 37 32  2  0  0  0  0
 40 41  2  0  0  0  0
 41 42  1  0  0  0  0
 41 47  1  0  0  0  0
 42 43  1  0  0  0  0
 42 36  1  1  0  0  0
 43 45  1  0  0  0  0
 43 44  1  0  0  0  0
 45 46  1  0  0  0  0
 47 48  1  0  0  0  0
 47 45  1  0  0  0  0
M  END
>  <minimizedAffinity>
-5.85035276

$$$$

 OpenBabel03252508243D

 48 51  0  0  1  0  0  0  0  0999 V2000
   36.9410   26.7560   42.0040 C   0  0  0  0  0  0  0  0  0  0  0  0
   37.1660   25.4750   42.4620 C   0  0  0  0  0  0  0  0  0  0  0  0
   37.1210   24.3500   41.6790 C   0  0  0  0  0  0  0  0  0  0  0  0
   36.8220   24.5620   40.3270 C   0  0  0  0  0  0  0  0  0  0  0  0
   36.5900   25.8120   39.8180 C   0  0  0  0  0  0  0  0  0  0  0  0
   36.6460   26.9010   40.6360 C   0  0  0  0  0  0  0  0  0  0  0  0
   37.4140   25.2320   43.4840 H   0  0  0  0  0  0  0  0  0  0  0  0
   37.2920   23.3420   42.0110 H   0  0  0  0  0  0  0  0  0  0  0  0
   36.7710   23.6980   39.6530 H   0  0  0  0  0  0  0  0  0  0  0  0
   36.3640   25.8870   38.7570 H   0  0  0  0  0  0  0  0  0  0  0  0
   36.4010   28.1440   40.0180 N   0  0  0  0  0  0  0  0  0  0  0  0
   37.3530   28.8460   39.2100 C   0  0  0  0  0  0  0  0  0  0  0  0
   36.6700   29.8630   38.3160 C   0  0  0  0  0  0  0  0  0  0  0  0
   35.4160   29.4440   37.7850 N   0  0  0  0  0  0  0  0  0  0  0  0
   34.4850   28.9910   38.7540 C   0  0  0  0  0  0  0  0  0  0  0  0
   35.1450   28.9040   40.1100 C   0  0  0  0  0  0  0  0  0  0  0  0
   38.1170   28.2610   38.7110 H   0  0  0  0  0  0  0  0  0  0  0  0
   37.9290   29.4840   39.9480 H   0  0  0  0  0  0  0  0  0  0  0  0
   37.3510   30.0180   37.4450 H   0  0  0  0  0  0  0  0  0  0  0  0
   36.5260   30.8500   38.8280 H   0  0  0  0  0  0  0  0  0  0  0  0
   35.0870   30.1820   37.1580 H   0  0  0  0  0  0  0  0  0  0  0  0
   33.5810   29.6020   38.8560 H   0  0  0  0  0  0  0  0  0  0  0  0
   34.1870   27.9440   38.4740 H   0  0  0  0  0  0  0  0  0  0  0  0
   35.3740   29.9200   40.4590 H   0  0  0  0  0  0  0  0  0  0  0  0
   34.4650   28.4150   40.8210 H   0  0  0  0  0  0  0  0  0  0  0  0
   36.9880   27.9550   42.8450 C   0  0  0  0  0  0  0  0  0  0  0  0
   36.2410   27.9830   43.6410 H   0  0  0  0  0  0  0  0  0  0  0  0
   36.7020   28.8060   42.1590 H   0  0  0  0  0  0  0  0  0  0  0  0
   38.3700   28.1720   43.4250 C   0  0  0  0  0  0  0  0  0  0  0  0
   38.4070   28.6320   44.3990 H   0  0  0  0  0  0  0  0  0  0  0  0
   38.8990   27.1730   43.4150 H   0  0  0  0  0  0  0  0  0  0  0  0
   40.9660   29.2830   40.9160 C   0  0  0  0  0  0  0  0  0  0  0  0
   40.2350   28.4580   41.8010 C   0  0  0  0  0  0  0  0  0  0  0  0
   39.1600   29.0150   42.4950 C   0  0  0  0  0  0  0  0  0  0  0  0
   38.8710   30.3360   42.2790 N   0  0  0  0  0  0  0  0  0  0  0  0
   39.5880   31.0870   41.4300 C   0  0  0  0  0  0  0  0  0  0  0  0
   40.6300   30.5670   40.7520 N   0  0  0  0  0  0  0  0  0  0  0  0
   41.7900   28.8070   40.4020 H   0  0  0  0  0  0  0  0  0  0  0  0
   40.5210   27.4320   41.9190 H   0  0  0  0  0  0  0  0  0  0  0  0
   41.4100   33.6650   40.7790 O   0  0  0  0  0  0  0  0  0  0  0  0
   40.2770   33.2340   40.3990 C   0  0  0  0  0  0  0  0  0  0  0  0
   39.2720   32.5270   41.1960 C   0  0  1  0  0  3  0  0  0  0  0  0
   37.9900   32.6770   40.3950 C   0  0  0  0  0  3  0  0  0  0  0  0
   37.3680   31.7560   40.5750 H   0  0  0  0  0  0  0  0  0  0  0  0
   38.4190   32.8210   38.9570 C   0  0  0  0  0  3  0  0  0  0  0  0
   38.5090   31.7970   38.5310 H   0  0  0  0  0  0  0  0  0  0  0  0
   39.7580   33.3670   39.0810 N   0  0  0  0  0  0  0  0  0  0  0  0
   40.2580   33.8060   38.2540 H   0  0  0  0  0  0  0  0  0  0  0  0
  1  2  1  0  0  0  0
  1 26  1  0  0  0  0
  2  7  1  0  0  0  0
  3  8  1  0  0  0  0
  3  2  2  0  0  0  0
  4  3  1  0  0  0  0
  5  4  2  0  0  0  0
  5  6  1  0  0  0  0
  6  1  2  0  0  0  0
  9  4  1  0  0  0  0
 10  5  1  0  0  0  0
 11 16  1  0  0  0  0
 11  6  1  0  0  0  0
 12 18  1  0  0  0  0
 12 11  1  0  0  0  0
 13 20  1  0  0  0  0
 13 12  1  0  0  0  0
 14 13  1  0  0  0  0
 14 15  1  0  0  0  0
 15 22  1  0  0  0  0
 15 16  1  0  0  0  0
 16 24  1  0  0  0  0
 16 25  1  0  0  0  0
 17 12  1  0  0  0  0
 19 13  1  0  0  0  0
 21 14  1  0  0  0  0
 23 15  1  0  0  0  0
 26 29  1  0  0  0  0
 26 27  1  0  0  0  0
 28 26  1  0  0  0  0
 29 30  1  0  0  0  0
 31 29  1  0  0  0  0
 32 33  1  0  0  0  0
 33 39  1  0  0  0  0
 33 34  2  0  0  0  0
 34 29  1  0  0  0  0
 35 34  1  0  0  0  0
 36 35  2  0  0  0  0
 37 32  2  0  0  0  0
 37 36  1  0  0  0  0
 38 32  1  0  0  0  0
 41 40  2  0  0  0  0
 41 42  1  0  0  0  0
 42 36  1  6  0  0  0
 43 44  1  0  0  0  0
 43 42  1  0  0  0  0
 45 47  1  0  0  0  0
 45 43  1  0  0  0  0
 46 45  1  0  0  0  0
 47 41  1  0  0  0  0
 48 47  1  0  0  0  0
M  END
>  <minimizedAffinity>
-5.79960537

$$$$

 OpenBabel03252508243D

 48 51  0  0  1  0  0  0  0  0999 V2000
   39.0800   31.2340   40.1740 C   0  0  0  0  0  0  0  0  0  0  0  0
   39.6470   32.4270   40.5710 C   0  0  0  0  0  0  0  0  0  0  0  0
   39.0360   33.6500   40.4730 C   0  0  0  0  0  0  0  0  0  0  0  0
   37.7460   33.6430   39.9250 C   0  0  0  0  0  0  0  0  0  0  0  0
   37.1340   32.4890   39.5150 C   0  0  0  0  0  0  0  0  0  0  0  0
   37.7820   31.2950   39.6320 C   0  0  0  0  0  0  0  0  0  0  0  0
   40.6290   32.5120   41.0120 H   0  0  0  0  0  0  0  0  0  0  0  0
   39.4560   34.5920   40.7740 H   0  0  0  0  0  0  0  0  0  0  0  0
   37.2090   34.5940   39.8210 H   0  0  0  0  0  0  0  0  0  0  0  0
   36.1320   32.5730   39.1010 H   0  0  0  0  0  0  0  0  0  0  0  0
   37.0680   30.1640   39.1910 N   0  0  0  0  0  0  0  0  0  0  0  0
   35.9770   29.5680   39.9030 C   0  0  0  0  0  0  0  0  0  0  0  0
   35.1250   28.7110   38.9860 C   0  0  0  0  0  0  0  0  0  0  0  0
   34.9520   29.2330   37.6720 N   0  0  0  0  0  0  0  0  0  0  0  0
   36.1590   29.5580   37.0010 C   0  0  0  0  0  0  0  0  0  0  0  0
   37.3310   29.4280   37.9440 C   0  0  0  0  0  0  0  0  0  0  0  0
   35.4070   30.2030   40.5710 H   0  0  0  0  0  0  0  0  0  0  0  0
   36.4700   28.8150   40.5900 H   0  0  0  0  0  0  0  0  0  0  0  0
   34.1110   28.6720   39.4520 H   0  0  0  0  0  0  0  0  0  0  0  0
   35.5130   27.6630   38.9030 H   0  0  0  0  0  0  0  0  0  0  0  0
   34.3180   28.6050   37.1740 H   0  0  0  0  0  0  0  0  0  0  0  0
   36.3740   28.9590   36.1090 H   0  0  0  0  0  0  0  0  0  0  0  0
   36.1010   30.6410   36.7070 H   0  0  0  0  0  0  0  0  0  0  0  0
   37.4750   28.3660   38.1870 H   0  0  0  0  0  0  0  0  0  0  0  0
   38.2370   29.8210   37.4640 H   0  0  0  0  0  0  0  0  0  0  0  0
   39.7380   29.9300   40.2790 C   0  0  0  0  0  0  0  0  0  0  0  0
   40.6760   29.8470   39.7250 H   0  0  0  0  0  0  0  0  0  0  0  0
   39.0410   29.2060   39.7620 H   0  0  0  0  0  0  0  0  0  0  0  0
   39.9520   29.5310   41.7230 C   0  0  0  0  0  0  0  0  0  0  0  0
   40.8710   29.0090   41.9390 H   0  0  0  0  0  0  0  0  0  0  0  0
   39.8480   30.4660   42.3500 H   0  0  0  0  0  0  0  0  0  0  0  0
   37.0160   28.1840   43.6790 C   0  0  0  0  0  0  0  0  0  0  0  0
   38.0860   29.0200   43.2900 C   0  0  0  0  0  0  0  0  0  0  0  0
   38.8280   28.6690   42.1620 C   0  0  0  0  0  0  0  0  0  0  0  0
   38.4760   27.5280   41.4910 N   0  0  0  0  0  0  0  0  0  0  0  0
   37.4520   26.7590   41.8920 C   0  0  0  0  0  0  0  0  0  0  0  0
   36.7250   27.0820   42.9800 N   0  0  0  0  0  0  0  0  0  0  0  0
   36.4710   28.4980   44.5600 H   0  0  0  0  0  0  0  0  0  0  0  0
   38.3020   29.8990   43.8650 H   0  0  0  0  0  0  0  0  0  0  0  0
   37.3490   25.9860   38.7650 O   0  0  0  0  0  0  0  0  0  0  0  0
   37.6830   25.3920   39.8370 C   0  0  0  0  0  0  0  0  0  0  0  0
   37.0700   25.5150   41.1610 C   0  0  1  0  0  3  0  0  0  0  0  0
   37.5450   24.2800   41.9070 C   0  0  0  0  0  3  0  0  0  0  0  0
   37.6340   24.5540   42.9950 H   0  0  0  0  0  0  0  0  0  0  0  0
   38.8680   23.9100   41.2860 C   0  0  0  0  0  3  0  0  0  0  0  0
   39.6590   24.4790   41.8230 H   0  0  0  0  0  0  0  0  0  0  0  0
   38.7550   24.4630   39.9500 N   0  0  0  0  0  0  0  0  0  0  0  0
   39.4200   24.1790   39.1730 H   0  0  0  0  0  0  0  0  0  0  0  0
  1 26  1  0  0  0  0
  1  2  1  0  0  0  0
  2  7  1  0  0  0  0
  3  2  2  0  0  0  0
  3  8  1  0  0  0  0
  4  3  1  0  0  0  0
  5  6  1  0  0  0  0
  5  4  2  0  0  0  0
  6  1  2  0  0  0  0
  9  4  1  0  0  0  0
 10  5  1  0  0  0  0
 11  6  1  0  0  0  0
 11 12  1  0  0  0  0
 12 17  1  0  0  0  0
 12 18  1  0  0  0  0
 13 19  1  0  0  0  0
 13 12  1  0  0  0  0
 14 13  1  0  0  0  0
 15 14  1  0  0  0  0
 15 16  1  0  0  0  0
 16 24  1  0  0  0  0
 16 11  1  0  0  0  0
 20 13  1  0  0  0  0
 21 14  1  0  0  0  0
 22 15  1  0  0  0  0
 23 15  1  0  0  0  0
 25 16  1  0  0  0  0
 26 29  1  0  0  0  0
 27 26  1  0  0  0  0
 28 26  1  0  0  0  0
 29 30  1  0  0  0  0
 29 34  1  0  0  0  0
 29 31  1  0  0  0  0
 32 38  1  0  0  0  0
 33 32  1  0  0  0  0
 33 39  1  0  0  0  0
 34 33  2  0  0  0  0
 35 36  2  0  0  0  0
 35 34  1  0  0  0  0
 36 37  1  0  0  0  0
 37 32  2  0  0  0  0
 40 41  2  0  0  0  0
 41 47  1  0  0  0  0
 41 42  1  0  0  0  0
 42 36  1  1  0  0  0
 42 43  1  0  0  0  0
 43 44  1  0  0  0  0
 45 46  1  0  0  0  0
 45 43  1  0  0  0  0
 47 45  1  0  0  0  0
 48 47  1  0  0  0  0
M  END
>  <minimizedAffinity>
-5.58325195

$$$$

 OpenBabel03252508243D

 48 51  0  0  1  0  0  0  0  0999 V2000
   36.8400   30.0400   39.3180 C   0  0  0  0  0  0  0  0  0  0  0  0
   36.1390   29.0840   38.6130 C   0  0  0  0  0  0  0  0  0  0  0  0
   36.0420   29.0410   37.2460 C   0  0  0  0  0  0  0  0  0  0  0  0
   36.7160   30.0570   36.5560 C   0  0  0  0  0  0  0  0  0  0  0  0
   37.4280   31.0310   37.2050 C   0  0  0  0  0  0  0  0  0  0  0  0
   37.4960   31.0330   38.5670 C   0  0  0  0  0  0  0  0  0  0  0  0
   35.6060   28.2650   39.0710 H   0  0  0  0  0  0  0  0  0  0  0  0
   35.5030   28.3090   36.6730 H   0  0  0  0  0  0  0  0  0  0  0  0
   36.6730   30.0740   35.4600 H   0  0  0  0  0  0  0  0  0  0  0  0
   37.9210   31.7830   36.5930 H   0  0  0  0  0  0  0  0  0  0  0  0
   38.2580   32.0700   39.1410 N   0  0  0  0  0  0  0  0  0  0  0  0
   37.7070   33.2920   39.6470 C   0  0  0  0  0  0  0  0  0  0  0  0
   38.6640   33.9680   40.6100 C   0  0  0  0  0  0  0  0  0  0  0  0
   39.3870   33.0780   41.4550 N   0  0  0  0  0  0  0  0  0  0  0  0
   40.0810   32.0460   40.7720 C   0  0  0  0  0  0  0  0  0  0  0  0
   39.7190   32.0570   39.3060 C   0  0  0  0  0  0  0  0  0  0  0  0
   36.6770   33.2780   39.9830 H   0  0  0  0  0  0  0  0  0  0  0  0
   37.6970   33.9850   38.7510 H   0  0  0  0  0  0  0  0  0  0  0  0
   38.0350   34.6040   41.2780 H   0  0  0  0  0  0  0  0  0  0  0  0
   39.3980   34.6320   40.0840 H   0  0  0  0  0  0  0  0  0  0  0  0
   39.9470   33.6480   42.0930 H   0  0  0  0  0  0  0  0  0  0  0  0
   41.1740   32.0850   40.8520 H   0  0  0  0  0  0  0  0  0  0  0  0
   39.7210   31.0650   41.1850 H   0  0  0  0  0  0  0  0  0  0  0  0
   40.1320   32.9650   38.8450 H   0  0  0  0  0  0  0  0  0  0  0  0
   40.1420   31.1700   38.8150 H   0  0  0  0  0  0  0  0  0  0  0  0
   36.9390   30.0830   40.7790 C   0  0  0  0  0  0  0  0  0  0  0  0
   36.5960   31.0150   41.2320 H   0  0  0  0  0  0  0  0  0  0  0  0
   38.0470   30.0530   41.0000 H   0  0  0  0  0  0  0  0  0  0  0  0
   36.2320   28.9060   41.4180 C   0  0  0  0  0  0  0  0  0  0  0  0
   35.6030   29.1340   42.2630 H   0  0  0  0  0  0  0  0  0  0  0  0
   35.6560   28.3770   40.6010 H   0  0  0  0  0  0  0  0  0  0  0  0
   37.9550   25.6260   42.1500 C   0  0  0  0  0  0  0  0  0  0  0  0
   36.9710   26.5500   41.7290 C   0  0  0  0  0  0  0  0  0  0  0  0
   37.2410   27.9130   41.8580 C   0  0  0  0  0  0  0  0  0  0  0  0
   38.4490   28.2820   42.3860 N   0  0  0  0  0  0  0  0  0  0  0  0
   39.3580   27.3740   42.7750 C   0  0  0  0  0  0  0  0  0  0  0  0
   39.1150   26.0540   42.6590 N   0  0  0  0  0  0  0  0  0  0  0  0
   37.6990   24.5810   42.0300 H   0  0  0  0  0  0  0  0  0  0  0  0
   36.0480   26.1860   41.3240 H   0  0  0  0  0  0  0  0  0  0  0  0
   41.9700   25.7150   43.6750 O   0  0  0  0  0  0  0  0  0  0  0  0
   41.7540   26.8230   43.0930 C   0  0  0  0  0  0  0  0  0  0  0  0
   40.6740   27.7780   43.3520 C   0  0  1  0  0  3  0  0  0  0  0  0
   41.1650   29.0730   42.7280 C   0  0  0  0  0  3  0  0  0  0  0  0
   40.2620   29.6380   42.3630 H   0  0  0  0  0  0  0  0  0  0  0  0
   42.0900   28.6640   41.6100 C   0  0  0  0  0  3  0  0  0  0  0  0
   41.4690   28.5170   40.6990 H   0  0  0  0  0  0  0  0  0  0  0  0
   42.5530   27.3600   42.0450 N   0  0  0  0  0  0  0  0  0  0  0  0
   43.3970   26.8940   41.6020 H   0  0  0  0  0  0  0  0  0  0  0  0
  1 26  1  0  0  0  0
  2  7  1  0  0  0  0
  2  1  1  0  0  0  0
  3  2  2  0  0  0  0
  4  5  2  0  0  0  0
  4  3  1  0  0  0  0
  5  6  1  0  0  0  0
  6 11  1  0  0  0  0
  6  1  2  0  0  0  0
  8  3  1  0  0  0  0
  9  4  1  0  0  0  0
 10  5  1  0  0  0  0
 11 16  1  0  0  0  0
 11 12  1  0  0  0  0
 12 17  1  0  0  0  0
 12 13  1  0  0  0  0
 13 19  1  0  0  0  0
 13 14  1  0  0  0  0
 14 21  1  0  0  0  0
 15 22  1  0  0  0  0
 15 23  1  0  0  0  0
 15 14  1  0  0  0  0
 16 15  1  0  0  0  0
 18 12  1  0  0  0  0
 20 13  1  0  0  0  0
 24 16  1  0  0  0  0
 25 16  1  0  0  0  0
 26 28  1  0  0  0  0
 26 27  1  0  0  0  0
 26 29  1  0  0  0  0
 29 34  1  0  0  0  0
 29 30  1  0  0  0  0
 31 29  1  0  0  0  0
 32 37  1  0  0  0  0
 33 34  1  0  0  0  0
 33 32  2  0  0  0  0
 34 35  2  0  0  0  0
 35 36  1  0  0  0  0
 37 36  2  0  0  0  0
 38 32  1  0  0  0  0
 39 33  1  0  0  0  0
 41 42  1  0  0  0  0
 41 40  2  0  0  0  0
 42 36  1  6  0  0  0
 43 42  1  0  0  0  0
 44 43  1  0  0  0  0
 45 47  1  0  0  0  0
 45 43  1  0  0  0  0
 46 45  1  0  0  0  0
 47 41  1  0  0  0  0
 48 47  1  0  0  0  0
M  END
>  <minimizedAffinity>
-5.56968117

$$$$

 OpenBabel03252508243D

 48 51  0  0  1  0  0  0  0  0999 V2000
   37.3410   26.2650   41.0920 C   0  0  0  0  0  0  0  0  0  0  0  0
   37.7560   25.6520   42.2550 C   0  0  0  0  0  0  0  0  0  0  0  0
   38.4020   24.4430   42.3100 C   0  0  0  0  0  0  0  0  0  0  0  0
   38.6350   23.8220   41.0750 C   0  0  0  0  0  0  0  0  0  0  0  0
   38.2440   24.3850   39.8900 C   0  0  0  0  0  0  0  0  0  0  0  0
   37.6050   25.5900   39.8850 C   0  0  0  0  0  0  0  0  0  0  0  0
   37.6250   26.0710   43.2410 H   0  0  0  0  0  0  0  0  0  0  0  0
   38.7350   23.9440   43.2010 H   0  0  0  0  0  0  0  0  0  0  0  0
   39.1470   22.8520   41.0570 H   0  0  0  0  0  0  0  0  0  0  0  0
   38.4640   23.8360   38.9770 H   0  0  0  0  0  0  0  0  0  0  0  0
   37.2500   26.0910   38.6170 N   0  0  0  0  0  0  0  0  0  0  0  0
   38.0850   26.9440   37.8230 C   0  0  0  0  0  0  0  0  0  0  0  0
   37.6670   26.9160   36.3660 C   0  0  0  0  0  0  0  0  0  0  0  0
   37.2470   25.6400   35.8890 N   0  0  0  0  0  0  0  0  0  0  0  0
   36.2330   25.0240   36.6650 C   0  0  0  0  0  0  0  0  0  0  0  0
   35.9820   25.8210   37.9230 C   0  0  0  0  0  0  0  0  0  0  0  0
   39.1550   26.8840   37.9780 H   0  0  0  0  0  0  0  0  0  0  0  0
   37.8130   27.9910   38.1580 H   0  0  0  0  0  0  0  0  0  0  0  0
   38.5750   27.1950   35.7780 H   0  0  0  0  0  0  0  0  0  0  0  0
   36.8610   27.6610   36.1400 H   0  0  0  0  0  0  0  0  0  0  0  0
   37.0520   25.7360   34.8900 H   0  0  0  0  0  0  0  0  0  0  0  0
   35.2730   24.8850   36.1550 H   0  0  0  0  0  0  0  0  0  0  0  0
   36.6190   24.0210   36.9920 H   0  0  0  0  0  0  0  0  0  0  0  0
   35.5200   26.7800   37.6490 H   0  0  0  0  0  0  0  0  0  0  0  0
   35.3060   25.2630   38.5850 H   0  0  0  0  0  0  0  0  0  0  0  0
   36.6490   27.5560   41.0390 C   0  0  0  0  0  0  0  0  0  0  0  0
   35.5970   27.4980   40.7530 H   0  0  0  0  0  0  0  0  0  0  0  0
   37.1410   28.1180   40.1920 H   0  0  0  0  0  0  0  0  0  0  0  0
   36.7910   28.3140   42.3420 C   0  0  0  0  0  0  0  0  0  0  0  0
   35.8760   28.6810   42.7780 H   0  0  0  0  0  0  0  0  0  0  0  0
   37.3570   27.6480   43.0590 H   0  0  0  0  0  0  0  0  0  0  0  0
   39.7100   30.6910   42.6470 C   0  0  0  0  0  0  0  0  0  0  0  0
   38.8690   29.5780   42.8720 C   0  0  0  0  0  0  0  0  0  0  0  0
   37.6900   29.4750   42.1330 C   0  0  0  0  0  0  0  0  0  0  0  0
   37.4120   30.4620   41.2260 N   0  0  0  0  0  0  0  0  0  0  0  0
   38.2360   31.5050   41.0400 C   0  0  0  0  0  0  0  0  0  0  0  0
   39.3780   31.6210   41.7450 N   0  0  0  0  0  0  0  0  0  0  0  0
   40.6110   30.7270   43.2440 H   0  0  0  0  0  0  0  0  0  0  0  0
   39.1530   28.8440   43.6000 H   0  0  0  0  0  0  0  0  0  0  0  0
   39.9420   33.9840   39.8870 O   0  0  0  0  0  0  0  0  0  0  0  0
   39.1170   33.1470   39.4050 C   0  0  0  0  0  0  0  0  0  0  0  0
   37.9310   32.5800   40.0510 C   0  0  1  0  0  3  0  0  0  0  0  0
   37.1020   32.0390   38.8990 C   0  0  0  0  0  3  0  0  0  0  0  0
   36.5410   31.1400   39.2780 H   0  0  0  0  0  0  0  0  0  0  0  0
   38.0880   31.6970   37.8110 C   0  0  0  0  0  3  0  0  0  0  0  0
   38.4340   30.6550   37.9890 H   0  0  0  0  0  0  0  0  0  0  0  0
   39.1980   32.5860   38.0990 N   0  0  0  0  0  0  0  0  0  0  0  0
   39.9630   32.7700   37.3880 H   0  0  0  0  0  0  0  0  0  0  0  0
  1  2  1  0  0  0  0
  2  3  2  0  0  0  0
  2  7  1  0  0  0  0
  3  8  1  0  0  0  0
  4  3  1  0  0  0  0
  5  4  2  0  0  0  0
  6  5  1  0  0  0  0
  6  1  2  0  0  0  0
  9  4  1  0  0  0  0
 10  5  1  0  0  0  0
 11  6  1  0  0  0  0
 12 17  1  0  0  0  0
 12 18  1  0  0  0  0
 12 11  1  0  0  0  0
 13 12  1  0  0  0  0
 14 13  1  0  0  0  0
 14 15  1  0  0  0  0
 15 23  1  0  0  0  0
 15 16  1  0  0  0  0
 16 25  1  0  0  0  0
 16 11  1  0  0  0  0
 19 13  1  0  0  0  0
 20 13  1  0  0  0  0
 21 14  1  0  0  0  0
 22 15  1  0  0  0  0
 24 16  1  0  0  0  0
 26  1  1  0  0  0  0
 26 29  1  0  0  0  0
 27 26  1  0  0  0  0
 28 26  1  0  0  0  0
 29 30  1  0  0  0  0
 29 31  1  0  0  0  0
 32 33  1  0  0  0  0
 32 38  1  0  0  0  0
 33 39  1  0  0  0  0
 34 29  1  0  0  0  0
 34 33  2  0  0  0  0
 35 34  1  0  0  0  0
 36 35  2  0  0  0  0
 36 37  1  0  0  0  0
 37 32  2  0  0  0  0
 41 40  2  0  0  0  0
 41 42  1  0  0  0  0
 42 36  1  1  0  0  0
 43 44  1  0  0  0  0
 43 42  1  0  0  0  0
 45 46  1  0  0  0  0
 45 47  1  0  0  0  0
 45 43  1  0  0  0  0
 47 41  1  0  0  0  0
 48 47  1  0  0  0  0
M  END
>  <minimizedAffinity>
-5.54161596

$$$$

 OpenBabel03252508243D

 48 51  0  0  1  0  0  0  0  0999 V2000
   38.9010   31.6800   40.4430 C   0  0  0  0  0  0  0  0  0  0  0  0
   39.1050   32.9540   40.9290 C   0  0  0  0  0  0  0  0  0  0  0  0
   38.4160   34.0650   40.5140 C   0  0  0  0  0  0  0  0  0  0  0  0
   37.4470   33.8450   39.5260 C   0  0  0  0  0  0  0  0  0  0  0  0
   37.2030   32.6010   39.0070 C   0  0  0  0  0  0  0  0  0  0  0  0
   37.9150   31.5260   39.4520 C   0  0  0  0  0  0  0  0  0  0  0  0
   39.8210   33.2020   41.6980 H   0  0  0  0  0  0  0  0  0  0  0  0
   38.5540   35.0670   40.8760 H   0  0  0  0  0  0  0  0  0  0  0  0
   36.8650   34.6970   39.1540 H   0  0  0  0  0  0  0  0  0  0  0  0
   36.4340   32.5190   38.2430 H   0  0  0  0  0  0  0  0  0  0  0  0
   37.5860   30.2880   38.8640 N   0  0  0  0  0  0  0  0  0  0  0  0
   38.4330   29.5740   37.9550 C   0  0  0  0  0  0  0  0  0  0  0  0
   38.0490   28.1090   37.8830 C   0  0  0  0  0  0  0  0  0  0  0  0
   37.6470   27.5360   39.1240 N   0  0  0  0  0  0  0  0  0  0  0  0
   36.6180   28.2430   39.7960 C   0  0  0  0  0  0  0  0  0  0  0  0
   36.3350   29.5470   39.0900 C   0  0  0  0  0  0  0  0  0  0  0  0
   39.5010   29.7490   38.0220 H   0  0  0  0  0  0  0  0  0  0  0  0
   38.1490   29.9750   36.9350 H   0  0  0  0  0  0  0  0  0  0  0  0
   38.9680   27.5630   37.5600 H   0  0  0  0  0  0  0  0  0  0  0  0
   37.2440   27.9180   37.1270 H   0  0  0  0  0  0  0  0  0  0  0  0
   37.4730   26.5410   38.9590 H   0  0  0  0  0  0  0  0  0  0  0  0
   35.6710   27.7030   39.9030 H   0  0  0  0  0  0  0  0  0  0  0  0
   37.0030   28.5080   40.8190 H   0  0  0  0  0  0  0  0  0  0  0  0
   35.8740   29.3310   38.1160 H   0  0  0  0  0  0  0  0  0  0  0  0
   35.6470   30.1540   39.6950 H   0  0  0  0  0  0  0  0  0  0  0  0
   39.6430   30.4970   40.8880 C   0  0  0  0  0  0  0  0  0  0  0  0
   40.6990   30.4910   40.6140 H   0  0  0  0  0  0  0  0  0  0  0  0
   39.1960   29.6360   40.3090 H   0  0  0  0  0  0  0  0  0  0  0  0
   39.4930   30.2780   42.3790 C   0  0  0  0  0  0  0  0  0  0  0  0
   40.4070   30.2760   42.9510 H   0  0  0  0  0  0  0  0  0  0  0  0
   38.7630   31.0520   42.7610 H   0  0  0  0  0  0  0  0  0  0  0  0
   36.9590   27.7080   43.4940 C   0  0  0  0  0  0  0  0  0  0  0  0
   37.5910   28.9560   43.2910 C   0  0  0  0  0  0  0  0  0  0  0  0
   38.8100   28.9820   42.6130 C   0  0  0  0  0  0  0  0  0  0  0  0
   39.3300   27.7920   42.1790 N   0  0  0  0  0  0  0  0  0  0  0  0
   38.7000   26.6260   42.3910 C   0  0  0  0  0  0  0  0  0  0  0  0
   37.5220   26.5820   43.0440 N   0  0  0  0  0  0  0  0  0  0  0  0
   36.0170   27.7400   44.0250 H   0  0  0  0  0  0  0  0  0  0  0  0
   37.1230   29.8480   43.6600 H   0  0  0  0  0  0  0  0  0  0  0  0
   40.0110   25.6820   39.6030 O   0  0  0  0  0  0  0  0  0  0  0  0
   40.2410   25.4670   40.8330 C   0  0  0  0  0  0  0  0  0  0  0  0
   39.2670   25.3290   41.9180 C   0  0  1  0  0  3  0  0  0  0  0  0
   40.0420   24.6400   43.0290 C   0  0  0  0  0  3  0  0  0  0  0  0
   39.6260   25.0030   44.0090 H   0  0  0  0  0  0  0  0  0  0  0  0
   41.4840   25.0310   42.8240 C   0  0  0  0  0  3  0  0  0  0  0  0
   41.6510   25.9870   43.3670 H   0  0  0  0  0  0  0  0  0  0  0  0
   41.5360   25.3150   41.4030 N   0  0  0  0  0  0  0  0  0  0  0  0
   42.4590   25.3930   40.8850 H   0  0  0  0  0  0  0  0  0  0  0  0
  1 26  1  0  0  0  0
  1  2  1  0  0  0  0
  2  7  1  0  0  0  0
  3  8  1  0  0  0  0
  3  2  2  0  0  0  0
  4  3  1  0  0  0  0
  5  6  1  0  0  0  0
  5  4  2  0  0  0  0
  6  1  2  0  0  0  0
  9  4  1  0  0  0  0
 10  5  1  0  0  0  0
 11 16  1  0  0  0  0
 11  6  1  0  0  0  0
 12 17  1  0  0  0  0
 12 11  1  0  0  0  0
 13 12  1  0  0  0  0
 13 14  1  0  0  0  0
 14 15  1  0  0  0  0
 15 22  1  0  0  0  0
 15 23  1  0  0  0  0
 16 25  1  0  0  0  0
 16 15  1  0  0  0  0
 18 12  1  0  0  0  0
 19 13  1  0  0  0  0
 20 13  1  0  0  0  0
 21 14  1  0  0  0  0
 24 16  1  0  0  0  0
 26 29  1  0  0  0  0
 27 26  1  0  0  0  0
 28 26  1  0  0  0  0
 29 34  1  0  0  0  0
 29 31  1  0  0  0  0
 29 30  1  0  0  0  0
 32 38  1  0  0  0  0
 33 32  1  0  0  0  0
 33 39  1  0  0  0  0
 34 33  2  0  0  0  0
 35 36  2  0  0  0  0
 35 34  1  0  0  0  0
 36 37  1  0  0  0  0
 37 32  2  0  0  0  0
 40 41  2  0  0  0  0
 41 47  1  0  0  0  0
 41 42  1  0  0  0  0
 42 36  1  1  0  0  0
 42 43  1  0  0  0  0
 43 44  1  0  0  0  0
 45 43  1  0  0  0  0
 45 46  1  0  0  0  0
 47 45  1  0  0  0  0
 48 47  1  0  0  0  0
M  END
>  <minimizedAffinity>
-5.49164915

$$$$
