
     RDKit          3D

 23 24  0  0  0  0  0  0  0  0999 V2000
   46.2198   34.8359   43.1896 C   0  0  0  0  0  0  0  0  0  0  0  0
   45.3204   35.9123   43.2803 C   0  0  0  0  0  0  0  0  0  0  0  0
   44.5636   36.0077   44.4493 C   0  0  0  0  0  0  0  0  0  0  0  0
   44.7374   35.0632   45.4244 N   0  0  0  0  0  0  0  0  0  0  0  0
   45.6159   34.0521   45.2812 C   0  0  0  0  0  0  0  0  0  0  0  0
   46.3519   33.9396   44.1713 N   0  0  0  0  0  0  0  0  0  0  0  0
   46.9606   34.7978   41.9711 C   0  0  0  0  0  0  0  0  0  0  0  0
   48.0574   35.3944   41.7268 O   0  0  0  0  0  0  0  0  0  0  0  0
   45.1631   36.6639   42.5368 H   0  0  0  0  0  0  0  0  0  0  0  0
   43.8517   36.7997   44.6020 H   0  0  0  0  0  0  0  0  0  0  0  0
   46.7920   34.2947   41.0264 H   0  0  0  0  0  0  0  0  0  0  0  0
   48.2266   32.8335   46.2314 O   0  0  0  0  0  0  0  0  0  0  0  0
   47.0824   32.7672   46.7854 C   0  0  0  0  0  0  0  0  0  0  0  0
   45.6841   33.1110   46.4329 C   0  0  1  0  0  0  0  0  0  0  0  0
   45.1534   33.6688   47.7088 C   0  0  2  0  0  0  0  0  0  0  0  0
   44.0425   33.5417   47.7007 H   0  0  0  0  0  0  0  0  0  0  0  0
   45.8030   32.7945   48.7571 C   0  0  1  0  0  0  0  0  0  0  0  0
   46.0679   33.3853   49.6581 H   0  0  0  0  0  0  0  0  0  0  0  0
   46.9706   32.2395   48.1028 N   0  0  0  0  0  0  0  0  0  0  0  0
   45.1646   32.1852   46.1390 H   0  0  0  0  0  0  0  0  0  0  0  0
   45.4469   34.7297   47.8286 H   0  0  0  0  0  0  0  0  0  0  0  0
   45.0948   31.9666   48.9714 H   0  0  0  0  0  0  0  0  0  0  0  0
   47.5496   31.5510   48.6705 H   0  0  0  0  0  0  0  0  0  0  0  0
  1  2  2  0
  1  6  1  0
  2  3  1  0
  3  4  2  0
  5  4  1  0
  6  5  2  0
  7  1  1  0
  8  7  2  0
  2  9  1  0
  3 10  1  0
  7 11  1  0
 12 13  2  0
 13 14  1  0
 14 15  1  0
 15 16  1  6
 15 17  1  0
 17 18  1  1
 17 19  1  0
 19 13  1  0
 14 20  1  6
 15 21  1  0
 17 22  1  0
 19 23  1  0
  5 14  1  0
M  ISO  5   9  14  10  14  11   6  16   8  18   8
M  END
>  <DihAtoms>  (1) 
3,4,13,12

>  <DihDeg>  (1) 
-61.12811506294052

$$$$
