
 OpenBabel03252504203D

 19 20  0  0  1  0  0  0  0  0999 V2000
   44.7060   31.8840   41.6230 C   0  0  0  0  0  0  0  0  0  0  0  0
   45.0090   31.5940   40.2820 C   0  0  0  0  0  0  0  0  0  0  0  0
   46.1910   32.1300   39.7470 C   0  0  0  0  0  0  0  0  0  0  0  0
   46.9730   32.8960   40.5430 N   0  0  0  0  0  0  0  0  0  0  0  0
   46.6440   33.1500   41.8240 C   0  0  0  0  0  0  0  0  0  0  0  0
   45.5230   32.6540   42.3680 N   0  0  0  0  0  0  0  0  0  0  0  0
   44.4080   30.9900   39.6300 H   0  0  0  0  0  0  0  0  0  0  0  0
   46.4590   31.9290   38.7180 H   0  0  0  0  0  0  0  0  0  0  0  0
   49.1160   32.3330   42.7930 O   0  0  0  0  0  0  0  0  0  0  0  0
   48.9460   33.5280   42.3770 C   0  0  0  0  0  0  0  0  0  0  0  0
   47.5620   34.0040   42.6360 C   0  0  1  0  0  3  0  0  0  0  0  0
   47.6320   35.4230   42.1520 C   0  0  0  0  0  3  0  0  0  0  0  0
   46.6820   35.8110   41.7650 H   0  0  0  0  0  0  0  0  0  0  0  0
   48.7290   35.3520   41.1120 C   0  0  0  0  0  3  0  0  0  0  0  0
   48.2730   34.9120   40.1990 H   0  0  0  0  0  0  0  0  0  0  0  0
   49.7200   34.5290   41.7340 N   0  0  0  0  0  0  0  0  0  0  0  0
   50.7580   34.4040   41.8780 H   0  0  0  0  0  0  0  0  0  0  0  0
   43.1780   31.1570   42.2200 S   0  0  0  0  0  0  0  0  0  0  0  0
   42.6670   31.8040   43.3370 H   0  0  0  0  0  0  0  0  0  0  0  0
  1 18  1  0  0  0  0
  1  6  1  0  0  0  0
  2  1  2  0  0  0  0
  3  2  1  0  0  0  0
  3  4  2  0  0  0  0
  4  5  1  0  0  0  0
  5  6  2  0  0  0  0
  7  2  1  0  0  0  0
  8  3  1  0  0  0  0
 10 11  1  0  0  0  0
 10  9  2  0  0  0  0
 11  5  1  6  0  0  0
 12 11  1  0  0  0  0
 13 12  1  0  0  0  0
 14 16  1  0  0  0  0
 14 12  1  0  0  0  0
 15 14  1  0  0  0  0
 16 17  1  0  0  0  0
 16 10  1  0  0  0  0
 18 19  1  0  0  0  0
M  END
>  <minimizedAffinity>
-2.79334974

>  <minimizedRMSD>
6.02829456

$$$$
