REMARK  Name = 
REMARK  7 active torsions:
REMARK  status: ('A' for Active; 'I' for Inactive)
REMARK    1  A    between atoms: C_1  and  C_4
REMARK    2  A    between atoms: C_1  and  O_8
REMARK    3  A    between atoms: O_8  and  P_10
REMARK    4  A    between atoms: P_10  and  O_11
REMARK    5  A    between atoms: P_10  and  O_12
REMARK    6  A    between atoms: O_12  and  C_13
REMARK    7  A    between atoms: C_17  and  C_34
REMARK                            x       y       z     vdW  Elec       q    Type
REMARK                         _______ _______ _______ _____ _____    ______ ____
ROOT
ATOM      1  C   UNL     1      47.126  34.279  42.558  0.00  0.00    +0.000 C 
ATOM      2  C   UNL     1      46.962  34.472  41.056  0.00  0.00    +0.000 C 
ATOM      3  C   UNL     1      48.107  33.680  40.505  0.00  0.00    +0.000 C 
ATOM      4  C   UNL     1      49.158  33.644  41.579  0.00  0.00    +0.000 C 
ATOM      5  C   UNL     1      48.603  34.526  42.709  0.00  0.00    +0.000 C 
ATOM      6  H   UNL     1      46.959  33.202  42.784  0.00  0.00    +0.000 HD
ATOM      7  H   UNL     1      46.947  35.526  40.770  0.00  0.00    +0.000 HD
ATOM      8  H   UNL     1      46.011  33.939  40.786  0.00  0.00    +0.000 HD
ATOM      9  H   UNL     1      47.832  32.657  40.173  0.00  0.00    +0.000 HD
ATOM     10  H   UNL     1      48.490  34.238  39.611  0.00  0.00    +0.000 HD
ATOM     11  H   UNL     1      50.112  34.042  41.199  0.00  0.00    +0.000 HD
ATOM     12  H   UNL     1      49.326  32.604  41.928  0.00  0.00    +0.000 HD
ATOM     13  H   UNL     1      48.926  34.013  43.647  0.00  0.00    +0.000 HD
ENDROOT
BRANCH   5  16
ATOM     14  O   UNL     1      46.980  37.338  42.090  0.00  0.00    +0.000 OA
ATOM     15  C   UNL     1      48.102  36.782  41.817  0.00  0.00    +0.000 C 
ATOM     16  C   UNL     1      49.065  35.926  42.611  0.00  0.00    +0.000 C 
ATOM     17  C   UNL     1      50.285  36.008  41.721  0.00  0.00    +0.000 C 
ATOM     18  H   UNL     1      50.929  35.117  41.748  0.00  0.00    +0.000 HD
ATOM     19  C   UNL     1      49.648  36.035  40.326  0.00  0.00    +0.000 C 
ATOM     20  H   UNL     1      49.231  35.049  40.129  0.00  0.00    +0.000 HD
ATOM     21  N   UNL     1      48.587  36.986  40.498  0.00  0.00    +0.000 N 
ATOM     22  H   UNL     1      48.312  37.646  39.739  0.00  0.00    +0.000 HD
ENDBRANCH   5  16
BRANCH   1  23
ATOM     23  O   UNL     1      46.322  35.111  43.290  0.00  0.00    +0.000 OA
BRANCH  23  25
ATOM     24  O   UNL     1      44.644  35.176  45.260  0.00  0.00    +0.000 OA
ATOM     25  P   UNL     1      45.453  34.234  44.418  0.00  0.00    +0.000 P 
BRANCH  25  26
ATOM     26  O   UNL     1      44.519  33.057  43.670  0.00  0.00    +0.000 OA
ATOM     27  H   UNL     1      43.617  33.473  43.511  0.00  0.00    +0.000 HD
ENDBRANCH  25  26
BRANCH  25  28
ATOM     28  O   UNL     1      46.548  33.402  45.412  0.00  0.00    +0.000 OA
BRANCH  28  29
ATOM     29  C   UNL     1      46.181  32.087  45.434  0.00  0.00    +0.000 C 
ATOM     30  H   UNL     1      45.387  31.751  44.788  0.00  0.00    +0.000 HD
ATOM     31  H   UNL     1      47.093  31.498  45.116  0.00  0.00    +0.000 HD
BRANCH  29  34
ATOM     32  C   UNL     1      45.756  32.033  49.130  0.00  0.00    +0.000 A 
ATOM     33  C   UNL     1      46.048  32.509  47.848  0.00  0.00    +0.000 A 
ATOM     34  C   UNL     1      45.882  31.615  46.792  0.00  0.00    +0.000 A 
ATOM     35  N   UNL     1      45.450  30.341  47.058  0.00  0.00    +0.000 NA
ATOM     36  C   UNL     1      45.179  29.923  48.316  0.00  0.00    +0.000 A 
ATOM     37  N   UNL     1      45.334  30.764  49.328  0.00  0.00    +0.000 NA
ATOM     38  H   UNL     1      45.889  32.736  49.945  0.00  0.00    +0.000 HD
ATOM     39  H   UNL     1      46.386  33.515  47.668  0.00  0.00    +0.000 HD
ATOM     40  H   UNL     1      44.841  28.911  48.482  0.00  0.00    +0.000 HD
ENDBRANCH  29  34
ENDBRANCH  28  29
ENDBRANCH  25  28
ENDBRANCH  23  25
ENDBRANCH   1  23
TORSDOF 7
