
 OpenBabel03252500183D

 20 21  0  0  1  0  0  0  0  0999 V2000
   44.4910   36.1580   44.4430 C   0  0  0  0  0  0  0  0  0  0  0  0
   45.2550   36.0520   43.2810 C   0  0  0  0  0  0  0  0  0  0  0  0
   46.1470   34.9760   43.2130 C   0  0  0  0  0  0  0  0  0  0  0  0
   46.2280   34.0980   44.2600 N   0  0  0  0  0  0  0  0  0  0  0  0
   45.4620   34.2570   45.3580 C   0  0  0  0  0  0  0  0  0  0  0  0
   44.5810   35.2980   45.4500 N   0  0  0  0  0  0  0  0  0  0  0  0
   45.5290   33.3530   46.4620 N   0  0  0  0  0  0  0  0  0  0  0  0
   43.7930   36.9840   44.5190 H   0  0  0  0  0  0  0  0  0  0  0  0
   45.2040   36.7350   42.4440 H   0  0  0  0  0  0  0  0  0  0  0  0
   45.2900   32.3900   46.1270 H   0  0  0  0  0  0  0  0  0  0  0  0
   45.7760   33.5870   47.4550 H   0  0  0  0  0  0  0  0  0  0  0  0
   45.7140   32.6320   41.2550 O   0  0  0  0  0  0  0  0  0  0  0  0
   46.6980   33.4170   41.4270 C   0  0  0  0  0  0  0  0  0  0  0  0
   47.0260   34.7290   42.0460 C   0  0  2  0  0  3  0  0  0  0  0  0
   48.4740   34.5890   42.4340 C   0  0  0  0  0  3  0  0  0  0  0  0
   48.5800   34.3170   43.5170 H   0  0  0  0  0  0  0  0  0  0  0  0
   49.0660   33.5390   41.5440 C   0  0  0  0  0  3  0  0  0  0  0  0
   49.5650   32.7180   42.1130 H   0  0  0  0  0  0  0  0  0  0  0  0
   47.9330   32.9350   40.8580 N   0  0  0  0  0  0  0  0  0  0  0  0
   48.1820   32.2640   40.0790 H   0  0  0  0  0  0  0  0  0  0  0  0
  1  8  1  0  0  0  0
  1  6  1  0  0  0  0
  2  1  2  0  0  0  0
  3  2  1  0  0  0  0
  3  4  2  0  0  0  0
  4  5  1  0  0  0  0
  5  6  2  0  0  0  0
  5  7  1  0  0  0  0
  7 11  1  0  0  0  0
  9  2  1  0  0  0  0
 10  7  1  0  0  0  0
 12 13  2  0  0  0  0
 13 14  1  0  0  0  0
 14 15  1  0  0  0  0
 14  3  1  1  0  0  0
 15 16  1  0  0  0  0
 17 18  1  0  0  0  0
 17 15  1  0  0  0  0
 19 13  1  0  0  0  0
 19 17  1  0  0  0  0
 20 19  1  0  0  0  0
M  END
>  <minimizedAffinity>
-4.44934273

>  <minimizedRMSD>
1.22832763

$$$$
