
 OpenBabel03252509333D

 40 42  0  0  1  0  0  0  0  0999 V2000
   37.6740   28.1870   41.6800 C   0  0  1  0  0  0  0  0  0  0  0  0
   38.1790   28.5240   43.0770 C   0  0  0  0  0  0  0  0  0  0  0  0
   39.6280   28.1550   42.9900 C   0  0  0  0  0  0  0  0  0  0  0  0
   39.7390   27.1060   41.9190 C   0  0  0  0  0  0  0  0  0  0  0  0
   38.2920   26.8290   41.4820 C   0  0  1  0  0  0  0  0  0  0  0  0
   38.1760   28.8730   40.9610 H   0  0  0  0  0  0  0  0  0  0  0  0
   37.6160   28.0100   43.8590 H   0  0  0  0  0  0  0  0  0  0  0  0
   38.1110   29.6410   43.1600 H   0  0  0  0  0  0  0  0  0  0  0  0
   40.3020   29.0140   42.7870 H   0  0  0  0  0  0  0  0  0  0  0  0
   39.9150   27.7220   43.9830 H   0  0  0  0  0  0  0  0  0  0  0  0
   40.2120   26.1950   42.3190 H   0  0  0  0  0  0  0  0  0  0  0  0
   40.3510   27.4760   41.0700 H   0  0  0  0  0  0  0  0  0  0  0  0
   38.3610   26.6590   40.3800 H   0  0  0  0  0  0  0  0  0  0  0  0
   39.6140   24.5270   43.4510 O   0  0  0  0  0  0  0  0  0  0  0  0
   38.7060   24.6340   42.5510 C   0  0  0  0  0  0  0  0  0  0  0  0
   37.6860   25.7000   42.2170 C   0  0  2  0  0  3  0  0  0  0  0  0
   36.7750   24.9140   41.3000 C   0  0  0  0  0  3  0  0  0  0  0  0
   36.2810   25.5160   40.5240 H   0  0  0  0  0  0  0  0  0  0  0  0
   37.7750   24.0080   40.5730 C   0  0  0  0  0  3  0  0  0  0  0  0
   38.3660   24.6320   39.9040 H   0  0  0  0  0  0  0  0  0  0  0  0
   38.5980   23.5410   41.6520 N   0  0  0  0  0  0  0  0  0  0  0  0
   38.9840   22.5720   41.6690 H   0  0  0  0  0  0  0  0  0  0  0  0
   36.3080   28.2210   41.5880 O   0  0  0  0  0  0  0  0  0  0  0  0
   34.5980   29.0310   39.8210 O   0  0  0  0  0  0  0  0  0  0  0  0
   35.8250   29.4580   40.5720 P   0  0  1  0  0  0  0  0  0  0  0  0
   35.6060   30.8850   41.4280 O   0  0  0  0  0  0  0  0  0  0  0  0
   34.6340   30.9110   41.6860 H   0  0  0  0  0  0  0  0  0  0  0  0
   37.0750   29.7630   39.4640 O   0  0  0  0  0  0  0  0  0  0  0  0
   36.8130   30.9560   38.8530 C   0  0  0  0  0  0  0  0  0  0  0  0
   36.6650   30.9800   37.7870 H   0  0  0  0  0  0  0  0  0  0  0  0
   35.8440   31.3340   39.2980 H   0  0  0  0  0  0  0  0  0  0  0  0
   40.0360   32.8040   39.0570 C   0  0  0  0  0  0  0  0  0  0  0  0
   39.1100   31.8110   38.7230 C   0  0  0  0  0  0  0  0  0  0  0  0
   37.8080   31.9830   39.1890 C   0  0  0  0  0  0  0  0  0  0  0  0
   37.5070   33.0930   39.9350 N   0  0  0  0  0  0  0  0  0  0  0  0
   38.4370   34.0300   40.2350 C   0  0  0  0  0  0  0  0  0  0  0  0
   39.6780   33.8770   39.7980 N   0  0  0  0  0  0  0  0  0  0  0  0
   41.0470   32.6610   38.6910 H   0  0  0  0  0  0  0  0  0  0  0  0
   39.3740   30.9490   38.1350 H   0  0  0  0  0  0  0  0  0  0  0  0
   38.1580   34.8900   40.8260 H   0  0  0  0  0  0  0  0  0  0  0  0
  1  6  1  6  0  0  0
  1  2  1  0  0  0  0
  2  8  1  0  0  0  0
  2  7  1  0  0  0  0
  3  2  1  0  0  0  0
  3 10  1  0  0  0  0
  4 11  1  0  0  0  0
  4  3  1  0  0  0  0
  5 13  1  6  0  0  0
  5  1  1  0  0  0  0
  5  4  1  0  0  0  0
  5 16  1  0  0  0  0
  9  3  1  0  0  0  0
 12  4  1  0  0  0  0
 15 14  2  0  0  0  0
 16 17  1  6  0  0  0
 16 15  1  0  0  0  0
 18 17  1  0  0  0  0
 19 17  1  0  0  0  0
 19 21  1  0  0  0  0
 20 19  1  0  0  0  0
 21 22  1  0  0  0  0
 21 15  1  0  0  0  0
 23  1  1  0  0  0  0
 25 24  2  6  0  0  0
 25 26  1  0  0  0  0
 25 23  1  0  0  0  0
 26 27  1  0  0  0  0
 28 25  1  0  0  0  0
 29 34  1  0  0  0  0
 29 31  1  0  0  0  0
 29 28  1  0  0  0  0
 30 29  1  0  0  0  0
 32 37  1  0  0  0  0
 33 32  2  0  0  0  0
 33 34  1  0  0  0  0
 34 35  2  0  0  0  0
 35 36  1  0  0  0  0
 36 40  1  0  0  0  0
 37 36  2  0  0  0  0
 38 32  1  0  0  0  0
 39 33  1  0  0  0  0
M  END
>  <minimizedAffinity>
-5.94200611

$$$$

 OpenBabel03252509333D

 40 42  0  0  1  0  0  0  0  0999 V2000
   37.0610   31.1530   40.4240 C   0  0  1  0  0  0  0  0  0  0  0  0
   37.1430   30.5490   39.0280 C   0  0  0  0  0  0  0  0  0  0  0  0
   35.8700   29.7650   38.9440 C   0  0  0  0  0  0  0  0  0  0  0  0
   35.4870   29.4190   40.3550 C   0  0  0  0  0  0  0  0  0  0  0  0
   36.6400   29.9490   41.2220 C   0  0  1  0  0  0  0  0  0  0  0  0
   36.2020   31.8610   40.4400 H   0  0  0  0  0  0  0  0  0  0  0  0
   38.0560   29.9690   38.8770 H   0  0  0  0  0  0  0  0  0  0  0  0
   37.0630   31.4170   38.3190 H   0  0  0  0  0  0  0  0  0  0  0  0
   35.0470   30.2930   38.4190 H   0  0  0  0  0  0  0  0  0  0  0  0
   36.0990   28.8310   38.3670 H   0  0  0  0  0  0  0  0  0  0  0  0
   35.3760   28.3290   40.4690 H   0  0  0  0  0  0  0  0  0  0  0  0
   34.5250   29.9000   40.6300 H   0  0  0  0  0  0  0  0  0  0  0  0
   36.1420   30.3280   42.1470 H   0  0  0  0  0  0  0  0  0  0  0  0
   36.6980   26.6970   40.6300 O   0  0  0  0  0  0  0  0  0  0  0  0
   37.0760   27.5300   41.5290 C   0  0  0  0  0  0  0  0  0  0  0  0
   37.6690   28.9210   41.4830 C   0  0  2  0  0  3  0  0  0  0  0  0
   38.1710   29.0400   42.9050 C   0  0  0  0  0  3  0  0  0  0  0  0
   38.1690   30.0640   43.3040 H   0  0  0  0  0  0  0  0  0  0  0  0
   37.0940   28.2720   43.6790 C   0  0  0  0  0  3  0  0  0  0  0  0
   36.1810   28.8660   43.6590 H   0  0  0  0  0  0  0  0  0  0  0  0
   36.9230   27.0970   42.8730 N   0  0  0  0  0  0  0  0  0  0  0  0
   36.7310   26.1630   43.2950 H   0  0  0  0  0  0  0  0  0  0  0  0
   38.2380   31.7300   40.8210 O   0  0  0  0  0  0  0  0  0  0  0  0
   37.0280   33.6830   39.6290 O   0  0  0  0  0  0  0  0  0  0  0  0
   38.3400   33.2970   40.2460 P   0  0  1  0  0  0  0  0  0  0  0  0
   38.8280   34.3480   41.4600 O   0  0  0  0  0  0  0  0  0  0  0  0
   37.9860   34.7090   41.8750 H   0  0  0  0  0  0  0  0  0  0  0  0
   39.5510   33.3560   39.0590 O   0  0  0  0  0  0  0  0  0  0  0  0
   40.6120   34.0430   39.5750 C   0  0  0  0  0  0  0  0  0  0  0  0
   40.5530   35.1150   39.6630 H   0  0  0  0  0  0  0  0  0  0  0  0
   40.7520   33.6640   40.6310 H   0  0  0  0  0  0  0  0  0  0  0  0
   43.0290   32.5770   37.1550 C   0  0  0  0  0  0  0  0  0  0  0  0
   41.8170   32.8660   37.7890 C   0  0  0  0  0  0  0  0  0  0  0  0
   41.8700   33.7200   38.8890 C   0  0  0  0  0  0  0  0  0  0  0  0
   43.0830   34.2220   39.2860 N   0  0  0  0  0  0  0  0  0  0  0  0
   44.2330   33.9140   38.6420 C   0  0  0  0  0  0  0  0  0  0  0  0
   44.1940   33.1030   37.5950 N   0  0  0  0  0  0  0  0  0  0  0  0
   42.9770   31.9110   36.3000 H   0  0  0  0  0  0  0  0  0  0  0  0
   40.8780   32.4580   37.4560 H   0  0  0  0  0  0  0  0  0  0  0  0
   45.1670   34.3310   38.9870 H   0  0  0  0  0  0  0  0  0  0  0  0
  1  6  1  1  0  0  0
  1 23  1  0  0  0  0
  1  5  1  0  0  0  0
  2  1  1  0  0  0  0
  3  2  1  0  0  0  0
  3  4  1  0  0  0  0
  4 11  1  0  0  0  0
  4 12  1  0  0  0  0
  4  5  1  0  0  0  0
  5 16  1  0  0  0  0
  5 13  1  1  0  0  0
  7  2  1  0  0  0  0
  8  2  1  0  0  0  0
  9  3  1  0  0  0  0
 10  3  1  0  0  0  0
 14 15  2  0  0  0  0
 15 21  1  0  0  0  0
 16 15  1  1  0  0  0
 16 17  1  0  0  0  0
 17 18  1  0  0  0  0
 17 19  1  0  0  0  0
 20 19  1  0  0  0  0
 21 22  1  0  0  0  0
 21 19  1  0  0  0  0
 25 24  2  6  0  0  0
 25 23  1  0  0  0  0
 25 26  1  0  0  0  0
 26 27  1  0  0  0  0
 28 29  1  0  0  0  0
 28 25  1  0  0  0  0
 29 30  1  0  0  0  0
 29 31  1  0  0  0  0
 32 37  2  0  0  0  0
 32 33  1  0  0  0  0
 33 34  2  0  0  0  0
 34 35  1  0  0  0  0
 34 29  1  0  0  0  0
 36 40  1  0  0  0  0
 36 35  2  0  0  0  0
 37 36  1  0  0  0  0
 38 32  1  0  0  0  0
 39 33  1  0  0  0  0
M  END
>  <minimizedAffinity>
-5.49807167

$$$$

 OpenBabel03252509333D

 40 42  0  0  1  0  0  0  0  0999 V2000
   37.4830   29.1400   41.7670 C   0  0  1  0  0  0  0  0  0  0  0  0
   36.7030   27.8530   41.5310 C   0  0  0  0  0  0  0  0  0  0  0  0
   36.6090   27.2790   42.9110 C   0  0  0  0  0  0  0  0  0  0  0  0
   37.7830   27.8190   43.6800 C   0  0  0  0  0  0  0  0  0  0  0  0
   38.5880   28.6340   42.6550 C   0  0  1  0  0  0  0  0  0  0  0  0
   36.8540   29.8110   42.3940 H   0  0  0  0  0  0  0  0  0  0  0  0
   37.1780   27.2070   40.7910 H   0  0  0  0  0  0  0  0  0  0  0  0
   35.6730   28.1780   41.2220 H   0  0  0  0  0  0  0  0  0  0  0  0
   35.6510   27.4960   43.4280 H   0  0  0  0  0  0  0  0  0  0  0  0
   36.6970   26.1660   42.8080 H   0  0  0  0  0  0  0  0  0  0  0  0
   38.3860   26.9960   44.0930 H   0  0  0  0  0  0  0  0  0  0  0  0
   37.4400   28.4580   44.5200 H   0  0  0  0  0  0  0  0  0  0  0  0
   38.9690   29.5100   43.2340 H   0  0  0  0  0  0  0  0  0  0  0  0
   40.0290   25.7890   43.5230 O   0  0  0  0  0  0  0  0  0  0  0  0
   40.3400   26.9180   43.0010 C   0  0  0  0  0  0  0  0  0  0  0  0
   39.6560   27.8390   42.0150 C   0  0  2  0  0  3  0  0  0  0  0  0
   40.8160   28.7340   41.6420 C   0  0  0  0  0  3  0  0  0  0  0  0
   40.5310   29.7620   41.3750 H   0  0  0  0  0  0  0  0  0  0  0  0
   41.5740   28.8290   42.9710 C   0  0  0  0  0  3  0  0  0  0  0  0
   40.9740   29.4270   43.6560 H   0  0  0  0  0  0  0  0  0  0  0  0
   41.5870   27.4620   43.4080 N   0  0  0  0  0  0  0  0  0  0  0  0
   42.4030   27.0550   43.9140 H   0  0  0  0  0  0  0  0  0  0  0  0
   37.8990   29.7280   40.6030 O   0  0  0  0  0  0  0  0  0  0  0  0
   36.6770   31.1760   38.8400 O   0  0  0  0  0  0  0  0  0  0  0  0
   37.0100   31.1120   40.3010 P   0  0  1  0  0  0  0  0  0  0  0  0
   35.6520   31.1760   41.2860 O   0  0  0  0  0  0  0  0  0  0  0  0
   34.9040   30.7540   40.7620 H   0  0  0  0  0  0  0  0  0  0  0  0
   37.9540   32.4590   40.7150 O   0  0  0  0  0  0  0  0  0  0  0  0
   38.5250   32.9400   39.5720 C   0  0  0  0  0  0  0  0  0  0  0  0
   38.3060   32.4620   38.6320 H   0  0  0  0  0  0  0  0  0  0  0  0
   38.1570   34.0040   39.4580 H   0  0  0  0  0  0  0  0  0  0  0  0
   42.1250   32.0230   39.7770 C   0  0  0  0  0  0  0  0  0  0  0  0
   40.7380   31.8840   39.6680 C   0  0  0  0  0  0  0  0  0  0  0  0
   39.9850   33.0560   39.6850 C   0  0  0  0  0  0  0  0  0  0  0  0
   40.6280   34.2610   39.8060 N   0  0  0  0  0  0  0  0  0  0  0  0
   41.9740   34.3490   39.9090 C   0  0  0  0  0  0  0  0  0  0  0  0
   42.7010   33.2410   39.8940 N   0  0  0  0  0  0  0  0  0  0  0  0
   42.7030   31.1050   39.7630 H   0  0  0  0  0  0  0  0  0  0  0  0
   40.2590   30.9240   39.5740 H   0  0  0  0  0  0  0  0  0  0  0  0
   42.4410   35.3180   40.0020 H   0  0  0  0  0  0  0  0  0  0  0  0
  1  6  1  1  0  0  0
  1  5  1  0  0  0  0
  2  1  1  0  0  0  0
  2  3  1  0  0  0  0
  3  9  1  0  0  0  0
  3  4  1  0  0  0  0
  4 11  1  0  0  0  0
  4 12  1  0  0  0  0
  5 13  1  1  0  0  0
  5  4  1  0  0  0  0
  7  2  1  0  0  0  0
  8  2  1  0  0  0  0
 10  3  1  0  0  0  0
 15 21  1  0  0  0  0
 15 14  2  0  0  0  0
 16 17  1  1  0  0  0
 16  5  1  0  0  0  0
 16 15  1  0  0  0  0
 17 19  1  0  0  0  0
 18 17  1  0  0  0  0
 19 21  1  0  0  0  0
 19 20  1  0  0  0  0
 21 22  1  0  0  0  0
 23  1  1  0  0  0  0
 25 24  2  6  0  0  0
 25 23  1  0  0  0  0
 25 28  1  0  0  0  0
 25 26  1  0  0  0  0
 27 26  1  0  0  0  0
 29 34  1  0  0  0  0
 29 28  1  0  0  0  0
 30 29  1  0  0  0  0
 31 29  1  0  0  0  0
 32 37  1  0  0  0  0
 33 34  1  0  0  0  0
 33 32  2  0  0  0  0
 34 35  2  0  0  0  0
 35 36  1  0  0  0  0
 36 40  1  0  0  0  0
 37 36  2  0  0  0  0
 38 32  1  0  0  0  0
 39 33  1  0  0  0  0
M  END
>  <minimizedAffinity>
-5.43713045

$$$$

 OpenBabel03252509333D

 40 42  0  0  1  0  0  0  0  0999 V2000
   37.5260   28.0980   41.7410 C   0  0  1  0  0  0  0  0  0  0  0  0
   37.9570   28.3820   43.1740 C   0  0  0  0  0  0  0  0  0  0  0  0
   39.4170   28.0510   43.1400 C   0  0  0  0  0  0  0  0  0  0  0  0
   39.6040   27.0550   42.0300 C   0  0  0  0  0  0  0  0  0  0  0  0
   38.1850   26.7650   41.5130 C   0  0  1  0  0  0  0  0  0  0  0  0
   38.0430   28.8270   41.0780 H   0  0  0  0  0  0  0  0  0  0  0  0
   37.3720   27.8210   43.9050 H   0  0  0  0  0  0  0  0  0  0  0  0
   37.8580   29.4930   43.3040 H   0  0  0  0  0  0  0  0  0  0  0  0
   40.0790   28.9330   43.0080 H   0  0  0  0  0  0  0  0  0  0  0  0
   39.6690   27.5800   44.1260 H   0  0  0  0  0  0  0  0  0  0  0  0
   40.0800   26.1380   42.4110 H   0  0  0  0  0  0  0  0  0  0  0  0
   40.2450   27.4760   41.2280 H   0  0  0  0  0  0  0  0  0  0  0  0
   38.3100   26.6470   40.4090 H   0  0  0  0  0  0  0  0  0  0  0  0
   39.4790   24.3840   43.4050 O   0  0  0  0  0  0  0  0  0  0  0  0
   38.6010   24.5240   42.4820 C   0  0  0  0  0  0  0  0  0  0  0  0
   37.5740   25.5900   42.1680 C   0  0  2  0  0  3  0  0  0  0  0  0
   36.7080   24.8390   41.1810 C   0  0  0  0  0  3  0  0  0  0  0  0
   36.2300   25.4730   40.4200 H   0  0  0  0  0  0  0  0  0  0  0  0
   37.7470   23.9880   40.4430 C   0  0  0  0  0  3  0  0  0  0  0  0
   38.3500   24.6550   39.8270 H   0  0  0  0  0  0  0  0  0  0  0  0
   38.5410   23.4770   41.5230 N   0  0  0  0  0  0  0  0  0  0  0  0
   38.9430   22.5150   41.5040 H   0  0  0  0  0  0  0  0  0  0  0  0
   36.1650   28.1060   41.5870 O   0  0  0  0  0  0  0  0  0  0  0  0
   34.3680   29.0450   39.9790 O   0  0  0  0  0  0  0  0  0  0  0  0
   35.7010   29.3640   40.5870 P   0  0  1  0  0  0  0  0  0  0  0  0
   35.7110   30.8220   41.4180 O   0  0  0  0  0  0  0  0  0  0  0  0
   34.7780   30.9500   41.7730 H   0  0  0  0  0  0  0  0  0  0  0  0
   36.8530   29.5210   39.3510 O   0  0  0  0  0  0  0  0  0  0  0  0
   37.3720   30.7820   39.4170 C   0  0  0  0  0  0  0  0  0  0  0  0
   37.4550   31.3650   38.5150 H   0  0  0  0  0  0  0  0  0  0  0  0
   36.6840   31.3730   40.0930 H   0  0  0  0  0  0  0  0  0  0  0  0
   40.9660   30.1670   40.1610 C   0  0  0  0  0  0  0  0  0  0  0  0
   39.7350   30.1220   39.4990 C   0  0  0  0  0  0  0  0  0  0  0  0
   38.6770   30.8110   40.0900 C   0  0  0  0  0  0  0  0  0  0  0  0
   38.8930   31.4850   41.2640 N   0  0  0  0  0  0  0  0  0  0  0  0
   40.1030   31.5020   41.8700 C   0  0  0  0  0  0  0  0  0  0  0  0
   41.1150   30.8490   41.3190 N   0  0  0  0  0  0  0  0  0  0  0  0
   41.7820   29.6270   39.6940 H   0  0  0  0  0  0  0  0  0  0  0  0
   39.5930   29.5840   38.5770 H   0  0  0  0  0  0  0  0  0  0  0  0
   40.2300   32.0450   42.7950 H   0  0  0  0  0  0  0  0  0  0  0  0
  1  6  1  6  0  0  0
  1  2  1  0  0  0  0
  2  8  1  0  0  0  0
  2  7  1  0  0  0  0
  3  2  1  0  0  0  0
  3 10  1  0  0  0  0
  4 11  1  0  0  0  0
  4  3  1  0  0  0  0
  5 13  1  6  0  0  0
  5  1  1  0  0  0  0
  5  4  1  0  0  0  0
  5 16  1  0  0  0  0
  9  3  1  0  0  0  0
 12  4  1  0  0  0  0
 15 14  2  0  0  0  0
 16 17  1  6  0  0  0
 16 15  1  0  0  0  0
 18 17  1  0  0  0  0
 19 17  1  0  0  0  0
 19 21  1  0  0  0  0
 20 19  1  0  0  0  0
 21 15  1  0  0  0  0
 22 21  1  0  0  0  0
 23  1  1  0  0  0  0
 25 24  2  6  0  0  0
 25 26  1  0  0  0  0
 25 23  1  0  0  0  0
 26 27  1  0  0  0  0
 28 29  1  0  0  0  0
 28 25  1  0  0  0  0
 29 34  1  0  0  0  0
 29 31  1  0  0  0  0
 30 29  1  0  0  0  0
 32 37  1  0  0  0  0
 33 34  1  0  0  0  0
 33 32  2  0  0  0  0
 34 35  2  0  0  0  0
 35 36  1  0  0  0  0
 36 40  1  0  0  0  0
 37 36  2  0  0  0  0
 38 32  1  0  0  0  0
 39 33  1  0  0  0  0
M  END
>  <minimizedAffinity>
-5.39607

$$$$

 OpenBabel03252509333D

 40 42  0  0  1  0  0  0  0  0999 V2000
   37.0600   29.7890   40.1440 C   0  0  1  0  0  0  0  0  0  0  0  0
   35.6130   30.0000   39.7160 C   0  0  0  0  0  0  0  0  0  0  0  0
   35.5810   29.3510   38.3680 C   0  0  0  0  0  0  0  0  0  0  0  0
   36.9850   29.4030   37.8340 C   0  0  0  0  0  0  0  0  0  0  0  0
   37.7820   30.1910   38.8860 C   0  0  1  0  0  0  0  0  0  0  0  0
   37.2230   28.6950   40.2680 H   0  0  0  0  0  0  0  0  0  0  0  0
   35.3230   31.0530   39.7310 H   0  0  0  0  0  0  0  0  0  0  0  0
   34.9980   29.3740   40.4170 H   0  0  0  0  0  0  0  0  0  0  0  0
   35.1880   28.3130   38.3740 H   0  0  0  0  0  0  0  0  0  0  0  0
   34.9020   29.9690   37.7240 H   0  0  0  0  0  0  0  0  0  0  0  0
   37.0090   29.9110   36.8580 H   0  0  0  0  0  0  0  0  0  0  0  0
   37.3940   28.3790   37.7060 H   0  0  0  0  0  0  0  0  0  0  0  0
   38.7810   29.6930   38.9090 H   0  0  0  0  0  0  0  0  0  0  0  0
   37.3100   31.8640   36.0750 O   0  0  0  0  0  0  0  0  0  0  0  0
   38.0730   31.8870   37.1050 C   0  0  0  0  0  0  0  0  0  0  0  0
   37.8470   31.6350   38.5800 C   0  0  2  0  0  3  0  0  0  0  0  0
   39.1190   32.2270   39.1460 C   0  0  0  0  0  3  0  0  0  0  0  0
   39.4720   31.7490   40.0700 H   0  0  0  0  0  0  0  0  0  0  0  0
   40.1380   31.8680   38.0580 C   0  0  0  0  0  3  0  0  0  0  0  0
   40.2980   30.7910   38.0920 H   0  0  0  0  0  0  0  0  0  0  0  0
   39.4330   32.2150   36.8580 N   0  0  0  0  0  0  0  0  0  0  0  0
   39.9210   32.6210   36.0310 H   0  0  0  0  0  0  0  0  0  0  0  0
   37.3940   30.5100   41.2590 O   0  0  0  0  0  0  0  0  0  0  0  0
   39.3490   30.1780   42.9220 O   0  0  0  0  0  0  0  0  0  0  0  0
   38.1070   29.5180   42.4000 P   0  0  1  0  0  0  0  0  0  0  0  0
   37.0170   29.1220   43.6140 O   0  0  0  0  0  0  0  0  0  0  0  0
   37.1430   29.8070   44.3400 H   0  0  0  0  0  0  0  0  0  0  0  0
   38.5280   28.0540   41.6530 O   0  0  0  0  0  0  0  0  0  0  0  0
   37.8740   27.0460   42.3020 C   0  0  0  0  0  0  0  0  0  0  0  0
   38.3920   26.4860   43.0620 H   0  0  0  0  0  0  0  0  0  0  0  0
   36.9970   27.5270   42.8320 H   0  0  0  0  0  0  0  0  0  0  0  0
   36.4530   23.8960   40.9250 C   0  0  0  0  0  0  0  0  0  0  0  0
   37.0280   24.7910   41.8320 C   0  0  0  0  0  0  0  0  0  0  0  0
   37.2700   26.0840   41.3710 C   0  0  0  0  0  0  0  0  0  0  0  0
   36.9390   26.4060   40.0800 N   0  0  0  0  0  0  0  0  0  0  0  0
   36.3830   25.5060   39.2360 C   0  0  0  0  0  0  0  0  0  0  0  0
   36.1490   24.2730   39.6620 N   0  0  0  0  0  0  0  0  0  0  0  0
   36.2690   22.8920   41.2920 H   0  0  0  0  0  0  0  0  0  0  0  0
   37.2780   24.5110   42.8400 H   0  0  0  0  0  0  0  0  0  0  0  0
   36.1380   25.8000   38.2270 H   0  0  0  0  0  0  0  0  0  0  0  0
  1  6  1  1  0  0  0
  1 23  1  0  0  0  0
  2  7  1  0  0  0  0
  2  1  1  0  0  0  0
  2  8  1  0  0  0  0
  3  9  1  0  0  0  0
  3  2  1  0  0  0  0
  4  3  1  0  0  0  0
  4  5  1  0  0  0  0
  5 13  1  1  0  0  0
  5  1  1  0  0  0  0
 10  3  1  0  0  0  0
 11  4  1  0  0  0  0
 12  4  1  0  0  0  0
 14 15  2  0  0  0  0
 16 15  1  6  0  0  0
 16  5  1  0  0  0  0
 16 17  1  0  0  0  0
 17 18  1  0  0  0  0
 19 20  1  0  0  0  0
 19 17  1  0  0  0  0
 21 15  1  0  0  0  0
 21 19  1  0  0  0  0
 22 21  1  0  0  0  0
 23 25  1  0  0  0  0
 25 24  2  1  0  0  0
 25 26  1  0  0  0  0
 26 27  1  0  0  0  0
 28 29  1  0  0  0  0
 28 25  1  0  0  0  0
 29 31  1  0  0  0  0
 29 30  1  0  0  0  0
 32 38  1  0  0  0  0
 32 33  1  0  0  0  0
 33 39  1  0  0  0  0
 34 33  2  0  0  0  0
 34 29  1  0  0  0  0
 35 34  1  0  0  0  0
 36 37  1  0  0  0  0
 36 35  2  0  0  0  0
 37 32  2  0  0  0  0
 40 36  1  0  0  0  0
M  END
>  <minimizedAffinity>
-5.36757612

$$$$

 OpenBabel03252509333D

 40 42  0  0  1  0  0  0  0  0999 V2000
   37.6870   28.2370   41.6590 C   0  0  1  0  0  0  0  0  0  0  0  0
   38.1930   28.6050   43.0480 C   0  0  0  0  0  0  0  0  0  0  0  0
   39.6460   28.2520   42.9620 C   0  0  0  0  0  0  0  0  0  0  0  0
   39.7650   27.1850   41.9100 C   0  0  0  0  0  0  0  0  0  0  0  0
   38.3190   26.8830   41.4840 C   0  0  1  0  0  0  0  0  0  0  0  0
   38.1780   28.9160   40.9260 H   0  0  0  0  0  0  0  0  0  0  0  0
   37.6390   28.0990   43.8420 H   0  0  0  0  0  0  0  0  0  0  0  0
   38.1120   29.7240   43.1120 H   0  0  0  0  0  0  0  0  0  0  0  0
   40.3090   29.1140   42.7410 H   0  0  0  0  0  0  0  0  0  0  0  0
   39.9420   27.8410   43.9620 H   0  0  0  0  0  0  0  0  0  0  0  0
   40.2500   26.2870   42.3240 H   0  0  0  0  0  0  0  0  0  0  0  0
   40.3690   27.5460   41.0520 H   0  0  0  0  0  0  0  0  0  0  0  0
   38.3870   26.6940   40.3850 H   0  0  0  0  0  0  0  0  0  0  0  0
   39.6780   24.6220   43.4750 O   0  0  0  0  0  0  0  0  0  0  0  0
   38.7610   24.7080   42.5830 C   0  0  0  0  0  0  0  0  0  0  0  0
   37.7290   25.7610   42.2420 C   0  0  2  0  0  3  0  0  0  0  0  0
   36.8160   24.9540   41.3460 C   0  0  0  0  0  3  0  0  0  0  0  0
   36.3100   25.5400   40.5660 H   0  0  0  0  0  0  0  0  0  0  0  0
   37.8160   24.0440   40.6230 C   0  0  0  0  0  3  0  0  0  0  0  0
   38.3960   24.6630   39.9390 H   0  0  0  0  0  0  0  0  0  0  0  0
   38.6530   23.6000   41.7010 N   0  0  0  0  0  0  0  0  0  0  0  0
   39.0470   22.6350   41.7290 H   0  0  0  0  0  0  0  0  0  0  0  0
   36.3200   28.2540   41.5730 O   0  0  0  0  0  0  0  0  0  0  0  0
   34.5800   29.0920   39.8490 O   0  0  0  0  0  0  0  0  0  0  0  0
   35.8160   29.5090   40.5890 P   0  0  1  0  0  0  0  0  0  0  0  0
   35.6040   30.9170   41.4780 O   0  0  0  0  0  0  0  0  0  0  0  0
   34.6360   30.9340   41.7520 H   0  0  0  0  0  0  0  0  0  0  0  0
   37.0470   29.8430   39.4700 O   0  0  0  0  0  0  0  0  0  0  0  0
   36.6090   29.4580   38.2350 C   0  0  0  0  0  0  0  0  0  0  0  0
   35.5580   29.2730   38.0840 H   0  0  0  0  0  0  0  0  0  0  0  0
   36.8670   30.3030   37.5290 H   0  0  0  0  0  0  0  0  0  0  0  0
   39.1680   27.4070   36.4780 C   0  0  0  0  0  0  0  0  0  0  0  0
   38.4860   28.5310   36.9550 C   0  0  0  0  0  0  0  0  0  0  0  0
   37.3450   28.2960   37.7200 C   0  0  0  0  0  0  0  0  0  0  0  0
   36.9570   27.0030   37.9610 N   0  0  0  0  0  0  0  0  0  0  0  0
   37.6480   25.9450   37.4780 C   0  0  0  0  0  0  0  0  0  0  0  0
   38.7350   26.1560   36.7490 N   0  0  0  0  0  0  0  0  0  0  0  0
   40.0540   27.6000   35.8830 H   0  0  0  0  0  0  0  0  0  0  0  0
   38.8140   29.5360   36.7510 H   0  0  0  0  0  0  0  0  0  0  0  0
   37.3090   24.9420   37.6910 H   0  0  0  0  0  0  0  0  0  0  0  0
  1  6  1  6  0  0  0
  1  2  1  0  0  0  0
  2  8  1  0  0  0  0
  2  7  1  0  0  0  0
  3  2  1  0  0  0  0
  3 10  1  0  0  0  0
  4 11  1  0  0  0  0
  4  3  1  0  0  0  0
  5 13  1  6  0  0  0
  5  1  1  0  0  0  0
  5  4  1  0  0  0  0
  5 16  1  0  0  0  0
  9  3  1  0  0  0  0
 12  4  1  0  0  0  0
 15 14  2  0  0  0  0
 16 17  1  6  0  0  0
 16 15  1  0  0  0  0
 18 17  1  0  0  0  0
 19 17  1  0  0  0  0
 19 21  1  0  0  0  0
 20 19  1  0  0  0  0
 21 22  1  0  0  0  0
 21 15  1  0  0  0  0
 23  1  1  0  0  0  0
 25 24  2  6  0  0  0
 25 26  1  0  0  0  0
 25 23  1  0  0  0  0
 26 27  1  0  0  0  0
 28 25  1  0  0  0  0
 29 28  1  0  0  0  0
 30 29  1  0  0  0  0
 31 29  1  0  0  0  0
 32 37  2  0  0  0  0
 32 33  1  0  0  0  0
 33 34  2  0  0  0  0
 34 35  1  0  0  0  0
 34 29  1  0  0  0  0
 36 40  1  0  0  0  0
 36 35  2  0  0  0  0
 37 36  1  0  0  0  0
 38 32  1  0  0  0  0
 39 33  1  0  0  0  0
M  END
>  <minimizedAffinity>
-5.17631626

$$$$

 OpenBabel03252509333D

 40 42  0  0  1  0  0  0  0  0999 V2000
   39.4390   30.9150   38.7530 C   0  0  1  0  0  0  0  0  0  0  0  0
   39.1450   29.7900   37.7690 C   0  0  0  0  0  0  0  0  0  0  0  0
   40.3050   28.8680   37.9810 C   0  0  0  0  0  0  0  0  0  0  0  0
   41.4340   29.7130   38.4990 C   0  0  0  0  0  0  0  0  0  0  0  0
   40.8980   31.1530   38.4730 C   0  0  1  0  0  0  0  0  0  0  0  0
   39.3780   30.4920   39.7810 H   0  0  0  0  0  0  0  0  0  0  0  0
   39.0220   30.1530   36.7460 H   0  0  0  0  0  0  0  0  0  0  0  0
   38.2220   29.2820   38.1590 H   0  0  0  0  0  0  0  0  0  0  0  0
   40.0890   28.0190   38.6630 H   0  0  0  0  0  0  0  0  0  0  0  0
   40.5710   28.4410   36.9790 H   0  0  0  0  0  0  0  0  0  0  0  0
   42.3210   29.6100   37.8540 H   0  0  0  0  0  0  0  0  0  0  0  0
   41.7130   29.4080   39.5290 H   0  0  0  0  0  0  0  0  0  0  0  0
   41.3330   31.6290   39.3850 H   0  0  0  0  0  0  0  0  0  0  0  0
   42.7890   30.2870   35.9040 O   0  0  0  0  0  0  0  0  0  0  0  0
   42.5090   31.3260   36.6000 C   0  0  0  0  0  0  0  0  0  0  0  0
   41.2360   31.8590   37.2190 C   0  0  2  0  0  3  0  0  0  0  0  0
   41.6650   33.2780   37.5230 C   0  0  0  0  0  3  0  0  0  0  0  0
   41.1750   33.7230   38.4010 H   0  0  0  0  0  0  0  0  0  0  0  0
   43.1370   33.0810   37.9040 C   0  0  0  0  0  3  0  0  0  0  0  0
   43.1680   32.5730   38.8670 H   0  0  0  0  0  0  0  0  0  0  0  0
   43.5990   32.1960   36.8740 N   0  0  0  0  0  0  0  0  0  0  0  0
   44.5610   32.2670   36.4780 H   0  0  0  0  0  0  0  0  0  0  0  0
   38.6290   32.0030   38.5720 O   0  0  0  0  0  0  0  0  0  0  0  0
   38.5180   32.0520   41.1580 O   0  0  0  0  0  0  0  0  0  0  0  0
   37.6830   32.2550   39.9280 P   0  0  1  0  0  0  0  0  0  0  0  0
   36.9500   33.7640   39.8740 O   0  0  0  0  0  0  0  0  0  0  0  0
   37.5650   34.3930   40.3630 H   0  0  0  0  0  0  0  0  0  0  0  0
   36.4200   31.1210   39.9210 O   0  0  0  0  0  0  0  0  0  0  0  0
   36.3840   30.5250   41.1490 C   0  0  0  0  0  0  0  0  0  0  0  0
   37.0100   30.9060   41.9390 H   0  0  0  0  0  0  0  0  0  0  0  0
   35.3240   30.6420   41.5270 H   0  0  0  0  0  0  0  0  0  0  0  0
   37.0650   27.0060   42.1480 C   0  0  0  0  0  0  0  0  0  0  0  0
   36.8650   28.3860   42.2520 C   0  0  0  0  0  0  0  0  0  0  0  0
   36.5980   29.0740   41.0700 C   0  0  0  0  0  0  0  0  0  0  0  0
   36.5470   28.3780   39.8900 N   0  0  0  0  0  0  0  0  0  0  0  0
   36.7470   27.0410   39.8360 C   0  0  0  0  0  0  0  0  0  0  0  0
   37.0020   26.3760   40.9540 N   0  0  0  0  0  0  0  0  0  0  0  0
   37.2720   26.4800   43.0730 H   0  0  0  0  0  0  0  0  0  0  0  0
   36.9110   28.9070   43.1930 H   0  0  0  0  0  0  0  0  0  0  0  0
   36.6980   26.5310   38.8860 H   0  0  0  0  0  0  0  0  0  0  0  0
  1  6  1  1  0  0  0
  2  3  1  0  0  0  0
  2  8  1  0  0  0  0
  2  1  1  0  0  0  0
  3  4  1  0  0  0  0
  3  9  1  0  0  0  0
  4 12  1  0  0  0  0
  5  4  1  0  0  0  0
  5  1  1  0  0  0  0
  5 13  1  1  0  0  0
  7  2  1  0  0  0  0
 10  3  1  0  0  0  0
 11  4  1  0  0  0  0
 14 15  2  0  0  0  0
 15 21  1  0  0  0  0
 16 15  1  1  0  0  0
 16 17  1  0  0  0  0
 16  5  1  0  0  0  0
 17 19  1  0  0  0  0
 17 18  1  0  0  0  0
 19 20  1  0  0  0  0
 21 19  1  0  0  0  0
 22 21  1  0  0  0  0
 23  1  1  0  0  0  0
 23 25  1  0  0  0  0
 25 24  2  1  0  0  0
 26 25  1  0  0  0  0
 26 27  1  0  0  0  0
 28 25  1  0  0  0  0
 28 29  1  0  0  0  0
 29 31  1  0  0  0  0
 29 30  1  0  0  0  0
 32 33  1  0  0  0  0
 32 38  1  0  0  0  0
 33 39  1  0  0  0  0
 34 29  1  0  0  0  0
 34 33  2  0  0  0  0
 35 34  1  0  0  0  0
 36 35  2  0  0  0  0
 36 37  1  0  0  0  0
 37 32  2  0  0  0  0
 40 36  1  0  0  0  0
M  END
>  <minimizedAffinity>
-4.96386003

$$$$

 OpenBabel03252509333D

 40 42  0  0  1  0  0  0  0  0999 V2000
   36.7480   30.0070   38.9320 C   0  0  1  0  0  0  0  0  0  0  0  0
   35.4600   29.7630   39.7080 C   0  0  0  0  0  0  0  0  0  0  0  0
   35.4290   28.2700   39.8140 C   0  0  0  0  0  0  0  0  0  0  0  0
   36.2190   27.7420   38.6500 C   0  0  0  0  0  0  0  0  0  0  0  0
   36.6080   28.9860   37.8350 C   0  0  1  0  0  0  0  0  0  0  0  0
   37.5990   29.6750   39.5690 H   0  0  0  0  0  0  0  0  0  0  0  0
   34.5900   30.2120   39.2240 H   0  0  0  0  0  0  0  0  0  0  0  0
   35.6440   30.1800   40.7350 H   0  0  0  0  0  0  0  0  0  0  0  0
   35.8150   27.8760   40.7780 H   0  0  0  0  0  0  0  0  0  0  0  0
   34.3550   27.9590   39.7230 H   0  0  0  0  0  0  0  0  0  0  0  0
   35.6060   27.0510   38.0490 H   0  0  0  0  0  0  0  0  0  0  0  0
   37.1190   27.1960   39.0030 H   0  0  0  0  0  0  0  0  0  0  0  0
   37.6370   28.7640   37.4620 H   0  0  0  0  0  0  0  0  0  0  0  0
   34.0690   27.2490   36.6250 O   0  0  0  0  0  0  0  0  0  0  0  0
   35.0050   28.0230   36.2120 C   0  0  0  0  0  0  0  0  0  0  0  0
   35.6390   29.2820   36.7600 C   0  0  2  0  0  3  0  0  0  0  0  0
   36.3670   29.7680   35.5260 C   0  0  0  0  0  3  0  0  0  0  0  0
   37.2900   30.3290   35.7340 H   0  0  0  0  0  0  0  0  0  0  0  0
   36.8000   28.4470   34.8820 C   0  0  0  0  0  3  0  0  0  0  0  0
   37.5790   28.0100   35.5060 H   0  0  0  0  0  0  0  0  0  0  0  0
   35.6050   27.6590   34.9770 N   0  0  0  0  0  0  0  0  0  0  0  0
   35.3290   26.9860   34.2300 H   0  0  0  0  0  0  0  0  0  0  0  0
   36.8730   31.3020   38.5060 O   0  0  0  0  0  0  0  0  0  0  0  0
   39.1110   32.3560   39.2680 O   0  0  0  0  0  0  0  0  0  0  0  0
   37.6680   32.2180   39.6560 P   0  0  1  0  0  0  0  0  0  0  0  0
   36.9050   33.6970   39.8750 O   0  0  0  0  0  0  0  0  0  0  0  0
   37.3610   34.3430   39.2540 H   0  0  0  0  0  0  0  0  0  0  0  0
   37.5690   31.4140   41.1470 O   0  0  0  0  0  0  0  0  0  0  0  0
   38.8250   31.0040   41.4890 C   0  0  0  0  0  0  0  0  0  0  0  0
   39.5760   30.9110   40.7220 H   0  0  0  0  0  0  0  0  0  0  0  0
   39.2280   31.7810   42.2070 H   0  0  0  0  0  0  0  0  0  0  0  0
   39.9810   27.8960   43.1750 C   0  0  0  0  0  0  0  0  0  0  0  0
   40.0220   29.0850   42.4410 C   0  0  0  0  0  0  0  0  0  0  0  0
   38.8130   29.7520   42.2570 C   0  0  0  0  0  0  0  0  0  0  0  0
   37.6690   29.2200   42.7930 N   0  0  0  0  0  0  0  0  0  0  0  0
   37.6760   28.0650   43.4980 C   0  0  0  0  0  0  0  0  0  0  0  0
   38.8200   27.4220   43.6790 N   0  0  0  0  0  0  0  0  0  0  0  0
   40.9270   27.3830   43.3130 H   0  0  0  0  0  0  0  0  0  0  0  0
   40.9360   29.4800   42.0310 H   0  0  0  0  0  0  0  0  0  0  0  0
   36.7520   27.6810   43.9040 H   0  0  0  0  0  0  0  0  0  0  0  0
  1  6  1  1  0  0  0
  1  2  1  0  0  0  0
  2  3  1  0  0  0  0
  2  8  1  0  0  0  0
  3  9  1  0  0  0  0
  4 12  1  0  0  0  0
  4  3  1  0  0  0  0
  5 13  1  6  0  0  0
  5  4  1  0  0  0  0
  5  1  1  0  0  0  0
  7  2  1  0  0  0  0
 10  3  1  0  0  0  0
 11  4  1  0  0  0  0
 15 14  2  0  0  0  0
 15 16  1  0  0  0  0
 16 17  1  6  0  0  0
 16  5  1  0  0  0  0
 17 18  1  0  0  0  0
 19 21  1  0  0  0  0
 19 20  1  0  0  0  0
 19 17  1  0  0  0  0
 21 15  1  0  0  0  0
 22 21  1  0  0  0  0
 23  1  1  0  0  0  0
 23 25  1  0  0  0  0
 25 24  2  6  0  0  0
 25 26  1  0  0  0  0
 25 28  1  0  0  0  0
 27 26  1  0  0  0  0
 28 29  1  0  0  0  0
 29 31  1  0  0  0  0
 29 34  1  0  0  0  0
 30 29  1  0  0  0  0
 32 38  1  0  0  0  0
 32 37  1  0  0  0  0
 33 32  2  0  0  0  0
 34 33  1  0  0  0  0
 34 35  2  0  0  0  0
 35 36  1  0  0  0  0
 36 37  2  0  0  0  0
 36 40  1  0  0  0  0
 39 33  1  0  0  0  0
M  END
>  <minimizedAffinity>
-4.861022

$$$$

 OpenBabel03252509333D

 40 42  0  0  1  0  0  0  0  0999 V2000
   37.7990   26.0140   41.6770 C   0  0  1  0  0  0  0  0  0  0  0  0
   39.0430   26.6090   42.3250 C   0  0  0  0  0  0  0  0  0  0  0  0
   38.4760   27.3180   43.5150 C   0  0  0  0  0  0  0  0  0  0  0  0
   37.0520   27.6560   43.1730 C   0  0  0  0  0  0  0  0  0  0  0  0
   36.8740   27.2010   41.7160 C   0  0  1  0  0  0  0  0  0  0  0  0
   37.3770   25.2590   42.3780 H   0  0  0  0  0  0  0  0  0  0  0  0
   39.6120   27.2380   41.6370 H   0  0  0  0  0  0  0  0  0  0  0  0
   39.6380   25.7310   42.6960 H   0  0  0  0  0  0  0  0  0  0  0  0
   38.5390   26.7390   44.4600 H   0  0  0  0  0  0  0  0  0  0  0  0
   39.0730   28.2580   43.6500 H   0  0  0  0  0  0  0  0  0  0  0  0
   36.8780   28.7390   43.2730 H   0  0  0  0  0  0  0  0  0  0  0  0
   36.3500   27.1240   43.8480 H   0  0  0  0  0  0  0  0  0  0  0  0
   35.8310   26.8040   41.6740 H   0  0  0  0  0  0  0  0  0  0  0  0
   37.5970   30.3980   42.1450 O   0  0  0  0  0  0  0  0  0  0  0  0
   36.9070   29.6520   41.3630 C   0  0  0  0  0  0  0  0  0  0  0  0
   37.1330   28.2880   40.7490 C   0  0  2  0  0  3  0  0  0  0  0  0
   36.0600   28.2990   39.6830 C   0  0  0  0  0  3  0  0  0  0  0  0
   35.6470   27.3090   39.4430 H   0  0  0  0  0  0  0  0  0  0  0  0
   34.9380   29.0770   40.3800 C   0  0  0  0  0  3  0  0  0  0  0  0
   34.5340   28.4450   41.1700 H   0  0  0  0  0  0  0  0  0  0  0  0
   35.6510   30.1790   40.9600 N   0  0  0  0  0  0  0  0  0  0  0  0
   35.2340   31.1330   41.0190 H   0  0  0  0  0  0  0  0  0  0  0  0
   38.0420   25.5100   40.4280 O   0  0  0  0  0  0  0  0  0  0  0  0
   38.4090   23.2630   39.1960 O   0  0  0  0  0  0  0  0  0  0  0  0
   37.7430   23.8650   40.3980 P   0  0  1  0  0  0  0  0  0  0  0  0
   38.2170   23.1450   41.8390 O   0  0  0  0  0  0  0  0  0  0  0  0
   39.1620   22.8300   41.6980 H   0  0  0  0  0  0  0  0  0  0  0  0
   36.0670   23.6250   40.2830 O   0  0  0  0  0  0  0  0  0  0  0  0
   35.8030   23.0770   39.0610 C   0  0  0  0  0  0  0  0  0  0  0  0
   36.6230   22.8190   38.4110 H   0  0  0  0  0  0  0  0  0  0  0  0
   35.2640   22.1030   39.2600 H   0  0  0  0  0  0  0  0  0  0  0  0
   34.3610   25.8570   37.0520 C   0  0  0  0  0  0  0  0  0  0  0  0
   35.2860   25.1110   37.7890 C   0  0  0  0  0  0  0  0  0  0  0  0
   34.8530   23.8820   38.2830 C   0  0  0  0  0  0  0  0  0  0  0  0
   33.5690   23.4750   38.0270 N   0  0  0  0  0  0  0  0  0  0  0  0
   32.7070   24.2300   37.3080 C   0  0  0  0  0  0  0  0  0  0  0  0
   33.1070   25.4010   36.8340 N   0  0  0  0  0  0  0  0  0  0  0  0
   34.7070   26.8120   36.6730 H   0  0  0  0  0  0  0  0  0  0  0  0
   36.2890   25.4560   37.9750 H   0  0  0  0  0  0  0  0  0  0  0  0
   31.7040   23.8720   37.1290 H   0  0  0  0  0  0  0  0  0  0  0  0
  1  5  1  0  0  0  0
  1  2  1  0  0  0  0
  1  6  1  1  0  0  0
  2  8  1  0  0  0  0
  2  3  1  0  0  0  0
  3 10  1  0  0  0  0
  3  9  1  0  0  0  0
  4 11  1  0  0  0  0
  4  3  1  0  0  0  0
  4 12  1  0  0  0  0
  5 13  1  6  0  0  0
  5  4  1  0  0  0  0
  7  2  1  0  0  0  0
 15 14  2  0  0  0  0
 16 17  1  6  0  0  0
 16 15  1  0  0  0  0
 16  5  1  0  0  0  0
 17 19  1  0  0  0  0
 18 17  1  0  0  0  0
 19 21  1  0  0  0  0
 19 20  1  0  0  0  0
 21 22  1  0  0  0  0
 21 15  1  0  0  0  0
 23  1  1  0  0  0  0
 25 24  2  6  0  0  0
 25 23  1  0  0  0  0
 25 26  1  0  0  0  0
 27 26  1  0  0  0  0
 28 25  1  0  0  0  0
 29 31  1  0  0  0  0
 29 28  1  0  0  0  0
 30 29  1  0  0  0  0
 32 33  1  0  0  0  0
 33 39  1  0  0  0  0
 33 34  2  0  0  0  0
 34 29  1  0  0  0  0
 35 34  1  0  0  0  0
 36 35  2  0  0  0  0
 37 32  2  0  0  0  0
 37 36  1  0  0  0  0
 38 32  1  0  0  0  0
 40 36  1  0  0  0  0
M  END
>  <minimizedAffinity>
-4.84755087

$$$$
