
 OpenBabel03252509333D

 40 42  0  0  1  0  0  0  0  0999 V2000
   46.6180   32.8300   45.7810 C   0  0  1  0  0  0  0  0  0  0  0  0
   46.5340   31.6300   44.8460 C   0  0  0  0  0  0  0  0  0  0  0  0
   47.4160   32.0480   43.7110 C   0  0  0  0  0  0  0  0  0  0  0  0
   47.4150   33.5510   43.6990 C   0  0  0  0  0  0  0  0  0  0  0  0
   46.4250   33.9570   44.8020 C   0  0  1  0  0  0  0  0  0  0  0  0
   47.6650   32.9040   46.1490 H   0  0  0  0  0  0  0  0  0  0  0  0
   45.5060   31.3870   44.5700 H   0  0  0  0  0  0  0  0  0  0  0  0
   47.0440   30.7890   45.3890 H   0  0  0  0  0  0  0  0  0  0  0  0
   48.4490   31.6440   43.7670 H   0  0  0  0  0  0  0  0  0  0  0  0
   46.9470   31.6560   42.7710 H   0  0  0  0  0  0  0  0  0  0  0  0
   47.0900   33.9290   42.7170 H   0  0  0  0  0  0  0  0  0  0  0  0
   48.4320   33.9450   43.9080 H   0  0  0  0  0  0  0  0  0  0  0  0
   46.8770   34.8690   45.2610 H   0  0  0  0  0  0  0  0  0  0  0  0
   45.2140   33.9340   41.7270 O   0  0  0  0  0  0  0  0  0  0  0  0
   45.0680   34.5780   42.8250 C   0  0  0  0  0  0  0  0  0  0  0  0
   45.0580   34.1710   44.2830 C   0  0  2  0  0  3  0  0  0  0  0  0
   44.4600   35.4160   44.9000 C   0  0  0  0  0  3  0  0  0  0  0  0
   44.8010   35.6250   45.9230 H   0  0  0  0  0  0  0  0  0  0  0  0
   45.0560   36.5180   44.0140 C   0  0  0  0  0  3  0  0  0  0  0  0
   46.1200   36.5860   44.2360 H   0  0  0  0  0  0  0  0  0  0  0  0
   44.8700   35.9790   42.6970 N   0  0  0  0  0  0  0  0  0  0  0  0
   44.6370   36.5860   41.8830 H   0  0  0  0  0  0  0  0  0  0  0  0
   45.6970   32.7780   46.7930 O   0  0  0  0  0  0  0  0  0  0  0  0
   45.7100   32.4090   49.3550 O   0  0  0  0  0  0  0  0  0  0  0  0
   46.2940   31.8860   48.0760 P   0  0  1  0  0  0  0  0  0  0  0  0
   46.0110   30.2480   47.8480 O   0  0  0  0  0  0  0  0  0  0  0  0
   45.1360   30.0470   48.3020 H   0  0  0  0  0  0  0  0  0  0  0  0
   47.9800   32.0690   48.1190 O   0  0  0  0  0  0  0  0  0  0  0  0
   48.5290   30.8470   48.3790 C   0  0  0  0  0  0  0  0  0  0  0  0
   47.8820   29.9960   48.5120 H   0  0  0  0  0  0  0  0  0  0  0  0
   49.1750   30.5930   47.4860 H   0  0  0  0  0  0  0  0  0  0  0  0
   51.0200   32.0780   50.8540 C   0  0  0  0  0  0  0  0  0  0  0  0
   50.1440   32.0710   49.7650 C   0  0  0  0  0  0  0  0  0  0  0  0
   49.4570   30.8840   49.5170 C   0  0  0  0  0  0  0  0  0  0  0  0
   49.6720   29.8060   50.3370 N   0  0  0  0  0  0  0  0  0  0  0  0
   50.5300   29.8580   51.3810 C   0  0  0  0  0  0  0  0  0  0  0  0
   51.1890   30.9810   51.6260 N   0  0  0  0  0  0  0  0  0  0  0  0
   51.5500   33.0060   51.0380 H   0  0  0  0  0  0  0  0  0  0  0  0
   49.9950   32.9330   49.1370 H   0  0  0  0  0  0  0  0  0  0  0  0
   50.6700   28.9850   52.0020 H   0  0  0  0  0  0  0  0  0  0  0  0
  1  6  1  1  0  0  0
  1 23  1  0  0  0  0
  2  8  1  0  0  0  0
  2  1  1  0  0  0  0
  3  9  1  0  0  0  0
  3  2  1  0  0  0  0
  4  3  1  0  0  0  0
  4 12  1  0  0  0  0
  4  5  1  0  0  0  0
  5 13  1  1  0  0  0
  5  1  1  0  0  0  0
  7  2  1  0  0  0  0
 10  3  1  0  0  0  0
 11  4  1  0  0  0  0
 14 15  2  0  0  0  0
 16 15  1  6  0  0  0
 16  5  1  0  0  0  0
 16 17  1  0  0  0  0
 17 18  1  0  0  0  0
 19 20  1  0  0  0  0
 19 17  1  0  0  0  0
 21 15  1  0  0  0  0
 21 19  1  0  0  0  0
 22 21  1  0  0  0  0
 23 25  1  0  0  0  0
 25 28  1  0  0  0  0
 25 24  2  1  0  0  0
 26 25  1  0  0  0  0
 26 27  1  0  0  0  0
 28 29  1  0  0  0  0
 29 30  1  0  0  0  0
 29 34  1  0  0  0  0
 31 29  1  0  0  0  0
 32 38  1  0  0  0  0
 32 37  1  0  0  0  0
 33 32  2  0  0  0  0
 34 33  1  0  0  0  0
 34 35  2  0  0  0  0
 35 36  1  0  0  0  0
 36 37  2  0  0  0  0
 36 40  1  0  0  0  0
 39 33  1  0  0  0  0
M  END
>  <minimizedAffinity>
-5.23831129

>  <minimizedRMSD>
4.85369158

$$$$
