
 OpenBabel03252503073D

 20 21  0  0  1  0  0  0  0  0999 V2000
   36.0670   29.0940   41.1170 C   0  0  0  0  0  0  0  0  0  0  0  0
   36.6850   28.0780   41.8760 C   0  0  0  0  0  0  0  0  0  0  0  0
   36.9820   26.8810   41.2190 C   0  0  0  0  0  0  0  0  0  0  0  0
   36.6690   26.7500   39.9130 N   0  0  0  0  0  0  0  0  0  0  0  0
   36.0720   27.7510   39.2140 C   0  0  0  0  0  0  0  0  0  0  0  0
   35.7760   28.9170   39.8230 N   0  0  0  0  0  0  0  0  0  0  0  0
   35.8340   30.0260   41.6210 H   0  0  0  0  0  0  0  0  0  0  0  0
   35.8310   27.6200   38.1640 H   0  0  0  0  0  0  0  0  0  0  0  0
   36.2100   23.8640   41.0760 O   0  0  0  0  0  0  0  0  0  0  0  0
   37.1590   24.4480   41.6380 C   0  0  0  0  0  0  0  0  0  0  0  0
   37.6310   25.8080   42.0040 C   0  0  1  0  0  3  0  0  0  0  0  0
   39.1200   25.7160   41.7440 C   0  0  0  0  0  3  0  0  0  0  0  0
   39.6360   26.5220   42.3180 H   0  0  0  0  0  0  0  0  0  0  0  0
   39.4580   24.3450   42.2420 C   0  0  0  0  0  3  0  0  0  0  0  0
   40.2500   23.9180   41.5860 H   0  0  0  0  0  0  0  0  0  0  0  0
   38.2190   23.6200   42.1520 N   0  0  0  0  0  0  0  0  0  0  0  0
   38.3380   22.6160   42.4830 H   0  0  0  0  0  0  0  0  0  0  0  0
   36.9940   28.2730   43.2560 C   0  0  0  0  0  0  0  0  0  0  0  0
   37.9590   29.0260   43.5340 O   0  0  0  0  0  0  0  0  0  0  0  0
   36.5540   27.8940   44.1790 H   0  0  0  0  0  0  0  0  0  0  0  0
  1  7  1  0  0  0  0
  1  2  1  0  0  0  0
  2 18  1  0  0  0  0
  3  2  2  0  0  0  0
  4  3  1  0  0  0  0
  5  6  1  0  0  0  0
  5  4  2  0  0  0  0
  6  1  2  0  0  0  0
  8  5  1  0  0  0  0
  9 10  2  0  0  0  0
 10 11  1  0  0  0  0
 10 16  1  0  0  0  0
 11  3  1  6  0  0  0
 12 11  1  0  0  0  0
 12 14  1  0  0  0  0
 12 13  1  0  0  0  0
 15 14  1  0  0  0  0
 16 14  1  0  0  0  0
 16 17  1  0  0  0  0
 18 19  2  0  0  0  0
 18 20  1  0  0  0  0
M  END
>  <minimizedAffinity>
-3.99340487

$$$$

 OpenBabel03252503073D

 20 21  0  0  1  0  0  0  0  0999 V2000
   37.6400   24.2500   40.2840 C   0  0  0  0  0  0  0  0  0  0  0  0
   37.4370   25.6290   40.5050 C   0  0  0  0  0  0  0  0  0  0  0  0
   38.0660   26.1950   41.6180 C   0  0  0  0  0  0  0  0  0  0  0  0
   38.8230   25.4160   42.4160 N   0  0  0  0  0  0  0  0  0  0  0  0
   38.9960   24.0900   42.1710 C   0  0  0  0  0  0  0  0  0  0  0  0
   38.4020   23.5170   41.1040 N   0  0  0  0  0  0  0  0  0  0  0  0
   37.1550   23.8040   39.4210 H   0  0  0  0  0  0  0  0  0  0  0  0
   39.6100   23.4840   42.8280 H   0  0  0  0  0  0  0  0  0  0  0  0
   36.0430   27.3780   43.6740 O   0  0  0  0  0  0  0  0  0  0  0  0
   36.9360   27.9180   42.9900 C   0  0  0  0  0  0  0  0  0  0  0  0
   37.8610   27.6400   41.8610 C   0  0  1  0  0  3  0  0  0  0  0  0
   39.1290   28.3430   42.2990 C   0  0  0  0  0  3  0  0  0  0  0  0
   39.7650   28.5290   41.4020 H   0  0  0  0  0  0  0  0  0  0  0  0
   38.6120   29.6060   42.9140 C   0  0  0  0  0  3  0  0  0  0  0  0
   39.2620   29.8690   43.7780 H   0  0  0  0  0  0  0  0  0  0  0  0
   37.2690   29.2810   43.3150 N   0  0  0  0  0  0  0  0  0  0  0  0
   36.7940   30.1150   43.7720 H   0  0  0  0  0  0  0  0  0  0  0  0
   36.6250   26.4050   39.6260 C   0  0  0  0  0  0  0  0  0  0  0  0
   36.1500   25.8320   38.6160 O   0  0  0  0  0  0  0  0  0  0  0  0
   36.3040   27.4480   39.6330 H   0  0  0  0  0  0  0  0  0  0  0  0
  1  2  2  0  0  0  0
  1  6  1  0  0  0  0
  2  3  1  0  0  0  0
  3  4  2  0  0  0  0
  5  4  1  0  0  0  0
  5  8  1  0  0  0  0
  6  5  2  0  0  0  0
  7  1  1  0  0  0  0
 10 16  1  0  0  0  0
 10  9  2  0  0  0  0
 11  3  1  1  0  0  0
 11 12  1  0  0  0  0
 11 10  1  0  0  0  0
 12 14  1  0  0  0  0
 13 12  1  0  0  0  0
 14 16  1  0  0  0  0
 14 15  1  0  0  0  0
 16 17  1  0  0  0  0
 18 20  1  0  0  0  0
 18  2  1  0  0  0  0
 19 18  2  0  0  0  0
M  END
>  <minimizedAffinity>
-3.93451738

$$$$

 OpenBabel03252503073D

 20 21  0  0  1  0  0  0  0  0999 V2000
   39.7160   32.3050   38.6180 C   0  0  0  0  0  0  0  0  0  0  0  0
   39.2190   32.0540   39.9150 C   0  0  0  0  0  0  0  0  0  0  0  0
   38.9030   30.7300   40.2320 C   0  0  0  0  0  0  0  0  0  0  0  0
   39.0830   29.7690   39.3040 N   0  0  0  0  0  0  0  0  0  0  0  0
   39.5640   30.0480   38.0640 C   0  0  0  0  0  0  0  0  0  0  0  0
   39.8770   31.3170   37.7310 N   0  0  0  0  0  0  0  0  0  0  0  0
   39.9640   33.3320   38.3660 H   0  0  0  0  0  0  0  0  0  0  0  0
   39.6990   29.2560   37.3350 H   0  0  0  0  0  0  0  0  0  0  0  0
   35.9170   30.1330   40.8960 O   0  0  0  0  0  0  0  0  0  0  0  0
   36.9470   30.0690   41.5970 C   0  0  0  0  0  0  0  0  0  0  0  0
   38.3820   30.4540   41.5890 C   0  0  1  0  0  3  0  0  0  0  0  0
   39.0440   29.2550   42.2350 C   0  0  0  0  0  3  0  0  0  0  0  0
   40.0440   29.5620   42.6230 H   0  0  0  0  0  0  0  0  0  0  0  0
   38.0840   28.8960   43.3260 C   0  0  0  0  0  3  0  0  0  0  0  0
   38.0710   27.7880   43.4330 H   0  0  0  0  0  0  0  0  0  0  0  0
   36.8230   29.4210   42.8770 N   0  0  0  0  0  0  0  0  0  0  0  0
   36.0520   29.2220   43.5820 H   0  0  0  0  0  0  0  0  0  0  0  0
   39.0500   33.1130   40.8570 C   0  0  0  0  0  0  0  0  0  0  0  0
   38.4850   34.1600   40.4600 O   0  0  0  0  0  0  0  0  0  0  0  0
   39.3180   33.2240   41.9090 H   0  0  0  0  0  0  0  0  0  0  0  0
  1  2  1  0  0  0  0
  2  3  2  0  0  0  0
  2 18  1  0  0  0  0
  4  3  1  0  0  0  0
  5  4  2  0  0  0  0
  6  5  1  0  0  0  0
  6  1  2  0  0  0  0
  7  1  1  0  0  0  0
  8  5  1  0  0  0  0
  9 10  2  0  0  0  0
 10 16  1  0  0  0  0
 11  3  1  6  0  0  0
 11 10  1  0  0  0  0
 11 12  1  0  0  0  0
 12 13  1  0  0  0  0
 12 14  1  0  0  0  0
 14 15  1  0  0  0  0
 16 14  1  0  0  0  0
 16 17  1  0  0  0  0
 18 20  1  0  0  0  0
 19 18  2  0  0  0  0
M  END
>  <minimizedAffinity>
-3.9064939

$$$$

 OpenBabel03252503073D

 20 21  0  0  1  0  0  0  0  0999 V2000
   35.9160   29.3120   38.3390 C   0  0  0  0  0  0  0  0  0  0  0  0
   36.2890   30.1880   39.3800 C   0  0  0  0  0  0  0  0  0  0  0  0
   37.1660   31.2280   39.0560 C   0  0  0  0  0  0  0  0  0  0  0  0
   37.6100   31.3450   37.7880 N   0  0  0  0  0  0  0  0  0  0  0  0
   37.2290   30.4800   36.8110 C   0  0  0  0  0  0  0  0  0  0  0  0
   36.3840   29.4690   37.0950 N   0  0  0  0  0  0  0  0  0  0  0  0
   35.2350   28.5030   38.5840 H   0  0  0  0  0  0  0  0  0  0  0  0
   37.6010   30.5970   35.7980 H   0  0  0  0  0  0  0  0  0  0  0  0
   39.6430   30.8320   40.9060 O   0  0  0  0  0  0  0  0  0  0  0  0
   38.8590   31.7930   40.7700 C   0  0  0  0  0  0  0  0  0  0  0  0
   37.5630   32.1540   40.1390 C   0  0  1  0  0  3  0  0  0  0  0  0
   37.8260   33.5580   39.6370 C   0  0  0  0  0  3  0  0  0  0  0  0
   36.8480   34.0730   39.4820 H   0  0  0  0  0  0  0  0  0  0  0  0
   38.6280   34.1610   40.7480 C   0  0  0  0  0  3  0  0  0  0  0  0
   39.3810   34.8510   40.3040 H   0  0  0  0  0  0  0  0  0  0  0  0
   39.2340   33.0320   41.4020 N   0  0  0  0  0  0  0  0  0  0  0  0
   39.8380   33.3420   42.2200 H   0  0  0  0  0  0  0  0  0  0  0  0
   35.7860   30.0160   40.7040 C   0  0  0  0  0  0  0  0  0  0  0  0
   36.2850   29.1000   41.4010 O   0  0  0  0  0  0  0  0  0  0  0  0
   35.0180   30.5310   41.2830 H   0  0  0  0  0  0  0  0  0  0  0  0
  1  7  1  0  0  0  0
  1  2  1  0  0  0  0
  2 18  1  0  0  0  0
  3  2  2  0  0  0  0
  4  3  1  0  0  0  0
  5  6  1  0  0  0  0
  5  4  2  0  0  0  0
  6  1  2  0  0  0  0
  8  5  1  0  0  0  0
 10  9  2  0  0  0  0
 10 16  1  0  0  0  0
 11  3  1  6  0  0  0
 11 10  1  0  0  0  0
 12 11  1  0  0  0  0
 12 14  1  0  0  0  0
 13 12  1  0  0  0  0
 14 16  1  0  0  0  0
 15 14  1  0  0  0  0
 16 17  1  0  0  0  0
 18 20  1  0  0  0  0
 18 19  2  0  0  0  0
M  END
>  <minimizedAffinity>
-3.87685204

$$$$

 OpenBabel03252503073D

 20 21  0  0  1  0  0  0  0  0999 V2000
   40.2410   24.9080   42.8250 C   0  0  0  0  0  0  0  0  0  0  0  0
   39.1400   25.4950   42.1650 C   0  0  0  0  0  0  0  0  0  0  0  0
   38.9720   26.8750   42.3090 C   0  0  0  0  0  0  0  0  0  0  0  0
   39.8500   27.5720   43.0580 N   0  0  0  0  0  0  0  0  0  0  0  0
   40.8990   26.9720   43.6800 C   0  0  0  0  0  0  0  0  0  0  0  0
   41.0860   25.6430   43.5580 N   0  0  0  0  0  0  0  0  0  0  0  0
   40.3780   23.8370   42.7170 H   0  0  0  0  0  0  0  0  0  0  0  0
   41.5910   27.5560   44.2770 H   0  0  0  0  0  0  0  0  0  0  0  0
   36.1940   27.4040   43.6220 O   0  0  0  0  0  0  0  0  0  0  0  0
   36.6690   27.7560   42.5230 C   0  0  0  0  0  0  0  0  0  0  0  0
   37.8210   27.5020   41.6220 C   0  0  1  0  0  3  0  0  0  0  0  0
   38.1390   28.8870   41.1000 C   0  0  0  0  0  3  0  0  0  0  0  0
   38.7220   28.7910   40.1530 H   0  0  0  0  0  0  0  0  0  0  0  0
   36.7810   29.4790   40.8860 C   0  0  0  0  0  3  0  0  0  0  0  0
   36.8260   30.5640   41.1330 H   0  0  0  0  0  0  0  0  0  0  0  0
   35.9290   28.7460   41.7840 N   0  0  0  0  0  0  0  0  0  0  0  0
   34.9230   29.0850   41.7190 H   0  0  0  0  0  0  0  0  0  0  0  0
   38.2430   24.7060   41.3850 C   0  0  0  0  0  0  0  0  0  0  0  0
   37.5200   23.8770   41.9900 O   0  0  0  0  0  0  0  0  0  0  0  0
   38.0300   24.6570   40.3150 H   0  0  0  0  0  0  0  0  0  0  0  0
  1  6  1  0  0  0  0
  2  3  1  0  0  0  0
  2  1  2  0  0  0  0
  3  4  2  0  0  0  0
  4  5  1  0  0  0  0
  5  8  1  0  0  0  0
  6  5  2  0  0  0  0
  7  1  1  0  0  0  0
 10  9  2  0  0  0  0
 11  3  1  1  0  0  0
 11 10  1  0  0  0  0
 12 11  1  0  0  0  0
 13 12  1  0  0  0  0
 14 12  1  0  0  0  0
 14 15  1  0  0  0  0
 14 16  1  0  0  0  0
 16 10  1  0  0  0  0
 17 16  1  0  0  0  0
 18 19  2  0  0  0  0
 18  2  1  0  0  0  0
 20 18  1  0  0  0  0
M  END
>  <minimizedAffinity>
-3.8132

$$$$

 OpenBabel03252503073D

 20 21  0  0  1  0  0  0  0  0999 V2000
   38.4210   23.3560   41.0790 C   0  0  0  0  0  0  0  0  0  0  0  0
   38.6500   24.4120   41.9860 C   0  0  0  0  0  0  0  0  0  0  0  0
   37.8810   25.5690   41.8260 C   0  0  0  0  0  0  0  0  0  0  0  0
   36.9730   25.6240   40.8310 N   0  0  0  0  0  0  0  0  0  0  0  0
   36.7800   24.5870   39.9760 C   0  0  0  0  0  0  0  0  0  0  0  0
   37.5070   23.4590   40.1070 N   0  0  0  0  0  0  0  0  0  0  0  0
   39.0150   22.4550   41.1980 H   0  0  0  0  0  0  0  0  0  0  0  0
   36.0430   24.6570   39.1830 H   0  0  0  0  0  0  0  0  0  0  0  0
   39.8220   27.9540   41.3170 O   0  0  0  0  0  0  0  0  0  0  0  0
   38.9820   27.7510   42.2170 C   0  0  0  0  0  0  0  0  0  0  0  0
   38.1110   26.6830   42.7720 C   0  0  1  0  0  3  0  0  0  0  0  0
   36.8410   27.4380   43.1030 C   0  0  0  0  0  3  0  0  0  0  0  0
   36.2590   26.8510   43.8520 H   0  0  0  0  0  0  0  0  0  0  0  0
   37.3590   28.7300   43.6550 C   0  0  0  0  0  3  0  0  0  0  0  0
   36.6700   29.5470   43.3430 H   0  0  0  0  0  0  0  0  0  0  0  0
   38.6690   28.8630   43.0760 N   0  0  0  0  0  0  0  0  0  0  0  0
   39.1410   29.7590   43.4010 H   0  0  0  0  0  0  0  0  0  0  0  0
   39.6260   24.2970   43.0210 C   0  0  0  0  0  0  0  0  0  0  0  0
   40.7970   24.6640   42.7600 O   0  0  0  0  0  0  0  0  0  0  0  0
   39.5810   23.9390   44.0510 H   0  0  0  0  0  0  0  0  0  0  0  0
  1  7  1  0  0  0  0
  1  2  1  0  0  0  0
  2 18  1  0  0  0  0
  3  2  2  0  0  0  0
  4  3  1  0  0  0  0
  5  6  1  0  0  0  0
  5  4  2  0  0  0  0
  6  1  2  0  0  0  0
  8  5  1  0  0  0  0
  9 10  2  0  0  0  0
 10 11  1  0  0  0  0
 10 16  1  0  0  0  0
 11  3  1  6  0  0  0
 11 12  1  0  0  0  0
 12 14  1  0  0  0  0
 12 13  1  0  0  0  0
 15 14  1  0  0  0  0
 16 17  1  0  0  0  0
 16 14  1  0  0  0  0
 18 20  1  0  0  0  0
 19 18  2  0  0  0  0
M  END
>  <minimizedAffinity>
-3.79858279

$$$$

 OpenBabel03252503073D

 20 21  0  0  1  0  0  0  0  0999 V2000
   35.9860   26.5630   38.4860 C   0  0  0  0  0  0  0  0  0  0  0  0
   36.1510   27.6230   39.4030 C   0  0  0  0  0  0  0  0  0  0  0  0
   36.8890   27.3550   40.5600 C   0  0  0  0  0  0  0  0  0  0  0  0
   37.4000   26.1200   40.7450 N   0  0  0  0  0  0  0  0  0  0  0  0
   37.2190   25.1240   39.8390 C   0  0  0  0  0  0  0  0  0  0  0  0
   36.5120   25.3550   38.7140 N   0  0  0  0  0  0  0  0  0  0  0  0
   35.4140   26.7650   37.5850 H   0  0  0  0  0  0  0  0  0  0  0  0
   37.6400   24.1390   40.0120 H   0  0  0  0  0  0  0  0  0  0  0  0
   36.1540   27.1940   43.5850 O   0  0  0  0  0  0  0  0  0  0  0  0
   36.7650   28.0620   42.9280 C   0  0  0  0  0  0  0  0  0  0  0  0
   37.0710   28.4570   41.5300 C   0  0  1  0  0  3  0  0  0  0  0  0
   38.5110   28.9150   41.6290 C   0  0  0  0  0  3  0  0  0  0  0  0
   38.7400   29.5720   40.7570 H   0  0  0  0  0  0  0  0  0  0  0  0
   38.5340   29.6520   42.9310 C   0  0  0  0  0  3  0  0  0  0  0  0
   39.5200   29.4780   43.4170 H   0  0  0  0  0  0  0  0  0  0  0  0
   37.4440   29.0850   43.6800 N   0  0  0  0  0  0  0  0  0  0  0  0
   37.3620   29.5380   44.6390 H   0  0  0  0  0  0  0  0  0  0  0  0
   35.5880   28.9100   39.1530 C   0  0  0  0  0  0  0  0  0  0  0  0
   34.3500   29.0420   39.3070 O   0  0  0  0  0  0  0  0  0  0  0  0
   36.0170   29.8630   38.8390 H   0  0  0  0  0  0  0  0  0  0  0  0
  1  6  2  0  0  0  0
  1  2  1  0  0  0  0
  2  3  2  0  0  0  0
  3  4  1  0  0  0  0
  5  8  1  0  0  0  0
  5  4  2  0  0  0  0
  6  5  1  0  0  0  0
  7  1  1  0  0  0  0
 10  9  2  0  0  0  0
 10 16  1  0  0  0  0
 11  3  1  6  0  0  0
 11 12  1  0  0  0  0
 11 10  1  0  0  0  0
 12 14  1  0  0  0  0
 13 12  1  0  0  0  0
 14 15  1  0  0  0  0
 14 16  1  0  0  0  0
 16 17  1  0  0  0  0
 18 19  2  0  0  0  0
 18  2  1  0  0  0  0
 20 18  1  0  0  0  0
M  END
>  <minimizedAffinity>
-3.77010274

$$$$

 OpenBabel03252503073D

 20 21  0  0  1  0  0  0  0  0999 V2000
   40.1640   28.0790   41.4580 C   0  0  0  0  0  0  0  0  0  0  0  0
   39.8010   29.2110   40.6980 C   0  0  0  0  0  0  0  0  0  0  0  0
   38.8730   30.0890   41.2650 C   0  0  0  0  0  0  0  0  0  0  0  0
   38.3720   29.8210   42.4880 N   0  0  0  0  0  0  0  0  0  0  0  0
   38.7450   28.7190   43.1910 C   0  0  0  0  0  0  0  0  0  0  0  0
   39.6400   27.8560   42.6690 N   0  0  0  0  0  0  0  0  0  0  0  0
   40.8860   27.3940   41.0240 H   0  0  0  0  0  0  0  0  0  0  0  0
   38.3280   28.5260   44.1740 H   0  0  0  0  0  0  0  0  0  0  0  0
   35.9390   31.0570   40.8440 O   0  0  0  0  0  0  0  0  0  0  0  0
   37.0330   31.5860   40.5570 C   0  0  0  0  0  0  0  0  0  0  0  0
   38.4840   31.2800   40.4780 C   0  0  1  0  0  3  0  0  0  0  0  0
   39.1140   32.5540   41.0010 C   0  0  0  0  0  3  0  0  0  0  0  0
   40.1720   32.6020   40.6510 H   0  0  0  0  0  0  0  0  0  0  0  0
   38.2550   33.6200   40.3940 C   0  0  0  0  0  3  0  0  0  0  0  0
   38.1640   34.4560   41.1230 H   0  0  0  0  0  0  0  0  0  0  0  0
   36.9990   32.9650   40.1460 N   0  0  0  0  0  0  0  0  0  0  0  0
   36.2980   33.6350   39.7090 H   0  0  0  0  0  0  0  0  0  0  0  0
   40.3650   29.4450   39.4080 C   0  0  0  0  0  0  0  0  0  0  0  0
   40.0540   28.6520   38.4860 O   0  0  0  0  0  0  0  0  0  0  0  0
   41.0470   30.2020   39.0180 H   0  0  0  0  0  0  0  0  0  0  0  0
  1  6  1  0  0  0  0
  2  3  1  0  0  0  0
  2  1  2  0  0  0  0
  3  4  2  0  0  0  0
  4  5  1  0  0  0  0
  5  8  1  0  0  0  0
  6  5  2  0  0  0  0
  7  1  1  0  0  0  0
 10  9  2  0  0  0  0
 11 10  1  0  0  0  0
 11 12  1  0  0  0  0
 11  3  1  1  0  0  0
 13 12  1  0  0  0  0
 14 12  1  0  0  0  0
 14 15  1  0  0  0  0
 16 14  1  0  0  0  0
 16 10  1  0  0  0  0
 17 16  1  0  0  0  0
 18  2  1  0  0  0  0
 19 18  2  0  0  0  0
 20 18  1  0  0  0  0
M  END
>  <minimizedAffinity>
-3.70629597

$$$$

 OpenBabel03252503073D

 20 21  0  0  1  0  0  0  0  0999 V2000
   38.4550   28.7540   43.2080 C   0  0  0  0  0  0  0  0  0  0  0  0
   38.7220   29.9200   42.4600 C   0  0  0  0  0  0  0  0  0  0  0  0
   37.8580   30.2080   41.3990 C   0  0  0  0  0  0  0  0  0  0  0  0
   36.8300   29.3750   41.1400 N   0  0  0  0  0  0  0  0  0  0  0  0
   36.6050   28.2590   41.8830 C   0  0  0  0  0  0  0  0  0  0  0  0
   37.4210   27.9580   42.9130 N   0  0  0  0  0  0  0  0  0  0  0  0
   39.1220   28.5250   44.0340 H   0  0  0  0  0  0  0  0  0  0  0  0
   35.7700   27.6050   41.6540 H   0  0  0  0  0  0  0  0  0  0  0  0
   39.3860   30.2590   38.6810 O   0  0  0  0  0  0  0  0  0  0  0  0
   38.7520   31.1450   39.2890 C   0  0  0  0  0  0  0  0  0  0  0  0
   38.1260   31.4280   40.6060 C   0  0  1  0  0  3  0  0  0  0  0  0
   36.8590   32.1590   40.2150 C   0  0  0  0  0  3  0  0  0  0  0  0
   36.4950   32.7430   41.0920 H   0  0  0  0  0  0  0  0  0  0  0  0
   37.3160   33.0310   39.0870 C   0  0  0  0  0  3  0  0  0  0  0  0
   36.4920   33.1030   38.3420 H   0  0  0  0  0  0  0  0  0  0  0  0
   38.4750   32.3580   38.5640 N   0  0  0  0  0  0  0  0  0  0  0  0
   38.8910   32.8940   37.7450 H   0  0  0  0  0  0  0  0  0  0  0  0
   39.8250   30.7660   42.7800 C   0  0  0  0  0  0  0  0  0  0  0  0
   40.9770   30.3440   42.5150 O   0  0  0  0  0  0  0  0  0  0  0  0
   39.8990   31.7570   43.2310 H   0  0  0  0  0  0  0  0  0  0  0  0
  1  7  1  0  0  0  0
  2 18  1  0  0  0  0
  2  1  2  0  0  0  0
  3  2  1  0  0  0  0
  4  3  2  0  0  0  0
  4  5  1  0  0  0  0
  5  6  2  0  0  0  0
  6  1  1  0  0  0  0
  8  5  1  0  0  0  0
  9 10  2  0  0  0  0
 10 11  1  0  0  0  0
 11  3  1  6  0  0  0
 12 11  1  0  0  0  0
 12 13  1  0  0  0  0
 14 12  1  0  0  0  0
 15 14  1  0  0  0  0
 16 14  1  0  0  0  0
 16 10  1  0  0  0  0
 17 16  1  0  0  0  0
 18 20  1  0  0  0  0
 19 18  2  0  0  0  0
M  END
>  <minimizedAffinity>
-3.69784117

$$$$
