
     RDKit          3D

 40 43  0  0  0  0  0  0  0  0999 V2000
   47.5354   32.8428   43.9071 C   0  0  0  0  0  0  0  0  0  0  0  0
   48.3731   33.3909   43.0166 C   0  0  0  0  0  0  0  0  0  0  0  0
   49.2364   32.4933   42.4212 C   0  0  0  0  0  0  0  0  0  0  0  0
   49.1657   31.1407   42.7905 N   0  0  0  0  0  0  0  0  0  0  0  0
   48.3180   30.6790   43.6762 C   0  0  0  0  0  0  0  0  0  0  0  0
   47.4356   31.5431   44.2928 N   0  0  0  0  0  0  0  0  0  0  0  0
   48.5237   34.7723   42.7317 C   0  0  0  0  0  0  0  0  0  0  0  0
   49.5222   35.3937   42.0471 C   0  0  0  0  0  0  0  0  0  0  0  0
   48.2735   35.2187   41.2264 C   0  0  0  0  0  0  0  0  0  0  0  0
   46.4474   33.5292   44.6185 C   0  0  0  0  0  0  0  0  0  0  0  0
   45.8699   33.8886   45.6155 O   0  0  0  0  0  0  0  0  0  0  0  0
   44.6887   31.6705   42.9105 Cl  0  0  0  0  0  0  0  0  0  0  0  0
   44.6485   33.4237   42.7623 C   0  0  0  0  0  0  0  0  0  0  0  0
   45.5216   34.1241   43.6199 C   0  0  0  0  0  0  0  0  0  0  0  0
   45.4207   35.4901   43.4081 C   0  0  0  0  0  0  0  0  0  0  0  0
   44.6523   36.1725   42.5478 C   0  0  0  0  0  0  0  0  0  0  0  0
   43.8391   35.4188   41.7572 C   0  0  0  0  0  0  0  0  0  0  0  0
   43.8162   34.0620   41.8427 C   0  0  0  0  0  0  0  0  0  0  0  0
   49.9788   32.7659   41.6745 H   0  0  0  0  0  0  0  0  0  0  0  0
   48.3856   29.6112   43.8567 H   0  0  0  0  0  0  0  0  0  0  0  0
   48.0675   35.4417   43.4858 H   0  0  0  0  0  0  0  0  0  0  0  0
   50.3901   34.7925   41.6429 H   0  0  0  0  0  0  0  0  0  0  0  0
   49.8414   36.4599   42.0666 H   0  0  0  0  0  0  0  0  0  0  0  0
   47.5463   36.0360   41.1377 H   0  0  0  0  0  0  0  0  0  0  0  0
   48.2103   34.3525   40.5312 H   0  0  0  0  0  0  0  0  0  0  0  0
   46.0186   36.1908   44.0287 H   0  0  0  0  0  0  0  0  0  0  0  0
   44.6159   37.2434   42.4224 H   0  0  0  0  0  0  0  0  0  0  0  0
   43.1463   35.7895   41.0020 H   0  0  0  0  0  0  0  0  0  0  0  0
   44.4227   31.1655   41.0805 O   0  0  0  0  0  0  0  0  0  0  0  0
   43.8011   32.0619   40.4133 C   0  0  0  0  0  0  0  0  0  0  0  0
   42.9618   33.1553   41.0245 C   0  0  2  0  0  0  0  0  0  0  0  0
   42.3459   33.7686   39.8338 C   0  0  2  0  0  0  0  0  0  0  0  0
   42.8568   34.6669   39.4359 H   0  0  0  0  0  0  0  0  0  0  0  0
   42.4431   32.7621   38.6981 C   0  0  1  0  0  0  0  0  0  0  0  0
   41.6775   31.9549   38.8640 H   0  0  0  0  0  0  0  0  0  0  0  0
   43.7753   32.2081   38.9771 N   0  0  0  0  0  0  0  0  0  0  0  0
   42.2026   32.6659   41.6458 H   0  0  0  0  0  0  0  0  0  0  0  0
   41.2337   33.9270   39.9127 H   0  0  0  0  0  0  0  0  0  0  0  0
   42.3733   33.2317   37.7082 H   0  0  0  0  0  0  0  0  0  0  0  0
   44.5756   31.9501   38.3553 H   0  0  0  0  0  0  0  0  0  0  0  0
  1  6  1  0
  1 10  1  0
  2  1  2  0
  3  4  2  0
  3  2  1  0
  4  5  1  0
  5  6  2  0
  7  2  1  0
  8  7  1  0
  9  8  1  0
  9  7  1  0
 10 11  2  0
 13 12  1  0
 13 14  2  0
 14 10  1  0
 15 14  1  0
 16 15  2  0
 17 18  2  0
 17 16  1  0
 18 13  1  0
  3 19  1  0
  5 20  1  0
  7 21  1  0
  8 22  1  0
  8 23  1  0
  9 24  1  0
  9 25  1  0
 15 26  1  0
 16 27  1  0
 17 28  1  0
 29 30  2  0
 30 31  1  0
 31 32  1  0
 32 33  1  6
 32 34  1  0
 34 35  1  1
 34 36  1  0
 36 30  1  0
 31 37  1  1
 32 38  1  0
 34 39  1  0
 36 40  1  0
 18 31  1  0
M  ISO  8  19  14  20  14  21  13  22  13  23  13  24  13  25  13  26  14
M  ISO  4  27  14  28  14  33   8  35   8
M  END
>  <DihAtoms>  (1) 
16,17,30,29

>  <DihDeg>  (1) 
24.758305447402627

$$$$
