REMARK  Name = 
REMARK  2 active torsions:
REMARK  status: ('A' for Active; 'I' for Inactive)
REMARK    1  A    between atoms: C_1  and  C_14
REMARK    2  A    between atoms: C_2  and  N_7
REMARK                            x       y       z     vdW  Elec       q    Type
REMARK                         _______ _______ _______ _____ _____    ______ ____
ROOT
ATOM      1  C   UNL     1      44.382  35.809  44.592  0.00  0.00    +0.000 A 
ATOM      2  C   UNL     1      44.566  35.308  43.303  0.00  0.00    +0.000 A 
ATOM      3  C   UNL     1      45.208  34.078  43.151  0.00  0.00    +0.000 A 
ATOM      4  N   UNL     1      45.612  33.448  44.268  0.00  0.00    +0.000 NA
ATOM      5  C   UNL     1      45.429  33.944  45.516  0.00  0.00    +0.000 A 
ATOM      6  N   UNL     1      44.809  35.133  45.679  0.00  0.00    +0.000 NA
ATOM      7  H   UNL     1      45.330  33.728  42.153  0.00  0.00    +0.000 HD
ATOM      8  H   UNL     1      45.781  33.382  46.369  0.00  0.00    +0.000 HD
ENDROOT
BRANCH   1  11
ATOM      9  O   UNL     1      42.860  36.303  46.880  0.00  0.00    +0.000 OA
ATOM     10  C   UNL     1      43.417  37.249  46.312  0.00  0.00    +0.000 C 
ATOM     11  C   UNL     1      43.714  37.102  44.869  0.00  0.00    +0.000 C 
ATOM     12  C   UNL     1      44.662  38.209  44.520  0.00  0.00    +0.000 C 
ATOM     13  H   UNL     1      45.733  37.852  44.504  0.00  0.00    +0.000 HD
ATOM     14  C   UNL     1      44.454  39.255  45.567  0.00  0.00    +0.000 C 
ATOM     15  H   UNL     1      45.412  39.752  45.886  0.00  0.00    +0.000 HD
ATOM     16  N   UNL     1      43.892  38.535  46.664  0.00  0.00    +0.000 N 
ATOM     17  H   UNL     1      43.807  38.864  47.663  0.00  0.00    +0.000 HD
ENDBRANCH   1  11
BRANCH   2  18
ATOM     18  N   UNL     1      44.067  36.121  42.242  0.00  0.00    +0.000 N 
ATOM     19  H   UNL     1      44.536  36.884  41.684  0.00  0.00    +0.000 HD
ATOM     20  H   UNL     1      43.101  35.722  42.196  0.00  0.00    +0.000 HD
ENDBRANCH   2  18
TORSDOF 2
