
 OpenBabel03252508233D

 48 51  0  0  1  0  0  0  0  0999 V2000
   46.1090   33.7690   40.4350 C   0  0  0  0  0  0  0  0  0  0  0  0
   46.6820   33.5580   39.1990 C   0  0  0  0  0  0  0  0  0  0  0  0
   47.9050   34.0460   38.8150 C   0  0  0  0  0  0  0  0  0  0  0  0
   48.5850   34.8060   39.7750 C   0  0  0  0  0  0  0  0  0  0  0  0
   48.0630   35.0470   41.0180 C   0  0  0  0  0  0  0  0  0  0  0  0
   46.8420   34.5410   41.3550 C   0  0  0  0  0  0  0  0  0  0  0  0
   46.2270   32.9750   38.4120 H   0  0  0  0  0  0  0  0  0  0  0  0
   48.3730   33.8960   37.8590 H   0  0  0  0  0  0  0  0  0  0  0  0
   49.5680   35.2230   39.5240 H   0  0  0  0  0  0  0  0  0  0  0  0
   48.6580   35.6470   41.7040 H   0  0  0  0  0  0  0  0  0  0  0  0
   46.3950   34.8350   42.6580 N   0  0  0  0  0  0  0  0  0  0  0  0
   45.5170   35.9200   42.9850 C   0  0  0  0  0  0  0  0  0  0  0  0
   44.8460   35.6970   44.3260 C   0  0  0  0  0  0  0  0  0  0  0  0
   44.4820   34.3460   44.5940 N   0  0  0  0  0  0  0  0  0  0  0  0
   45.5370   33.4100   44.4520 C   0  0  0  0  0  0  0  0  0  0  0  0
   46.7570   34.0840   43.8700 C   0  0  0  0  0  0  0  0  0  0  0  0
   44.8500   36.2780   42.2100 H   0  0  0  0  0  0  0  0  0  0  0  0
   46.2130   36.7930   43.1770 H   0  0  0  0  0  0  0  0  0  0  0  0
   43.8970   36.2860   44.3000 H   0  0  0  0  0  0  0  0  0  0  0  0
   45.4670   36.0720   45.1800 H   0  0  0  0  0  0  0  0  0  0  0  0
   43.9880   34.3340   45.4900 H   0  0  0  0  0  0  0  0  0  0  0  0
   45.8400   32.9020   45.3750 H   0  0  0  0  0  0  0  0  0  0  0  0
   45.2080   32.6390   43.7040 H   0  0  0  0  0  0  0  0  0  0  0  0
   47.1620   34.7870   44.6110 H   0  0  0  0  0  0  0  0  0  0  0  0
   47.5160   33.3280   43.6260 H   0  0  0  0  0  0  0  0  0  0  0  0
   44.8000   33.2480   40.8390 C   0  0  0  0  0  0  0  0  0  0  0  0
   44.4090   33.6670   41.7690 H   0  0  0  0  0  0  0  0  0  0  0  0
   44.9780   32.1570   41.0750 H   0  0  0  0  0  0  0  0  0  0  0  0
   43.7770   33.3980   39.7330 C   0  0  0  0  0  0  0  0  0  0  0  0
   44.0800   33.9940   38.8870 H   0  0  0  0  0  0  0  0  0  0  0  0
   43.4660   32.3580   39.4200 H   0  0  0  0  0  0  0  0  0  0  0  0
   41.4410   35.5540   41.7730 C   0  0  0  0  0  0  0  0  0  0  0  0
   42.6350   34.9950   41.2640 C   0  0  0  0  0  0  0  0  0  0  0  0
   42.5410   33.9990   40.2910 C   0  0  0  0  0  0  0  0  0  0  0  0
   41.2920   33.6160   39.8820 N   0  0  0  0  0  0  0  0  0  0  0  0
   40.1810   34.1710   40.3890 C   0  0  0  0  0  0  0  0  0  0  0  0
   40.2520   35.1340   41.3290 N   0  0  0  0  0  0  0  0  0  0  0  0
   41.5650   36.3220   42.5250 H   0  0  0  0  0  0  0  0  0  0  0  0
   43.5780   35.3460   41.6330 H   0  0  0  0  0  0  0  0  0  0  0  0
   38.7120   34.1590   37.5210 O   0  0  0  0  0  0  0  0  0  0  0  0
   38.7460   33.3840   38.5270 C   0  0  0  0  0  0  0  0  0  0  0  0
   38.8200   33.7530   39.9420 C   0  0  1  0  0  3  0  0  0  0  0  0
   38.3690   32.5020   40.6760 C   0  0  0  0  0  3  0  0  0  0  0  0
   38.9160   32.4690   41.6590 H   0  0  0  0  0  0  0  0  0  0  0  0
   38.7200   31.3470   39.7720 C   0  0  0  0  0  3  0  0  0  0  0  0
   39.7660   31.0480   40.0040 H   0  0  0  0  0  0  0  0  0  0  0  0
   38.7180   31.9630   38.4580 N   0  0  0  0  0  0  0  0  0  0  0  0
   38.6970   31.3810   37.5720 H   0  0  0  0  0  0  0  0  0  0  0  0
  1 26  1  0  0  0  0
  1  6  1  0  0  0  0
  2  1  2  0  0  0  0
  3  2  1  0  0  0  0
  3  4  2  0  0  0  0
  4  5  1  0  0  0  0
  5  6  2  0  0  0  0
  5 10  1  0  0  0  0
  6 11  1  0  0  0  0
  7  2  1  0  0  0  0
  8  3  1  0  0  0  0
  9  4  1  0  0  0  0
 11 12  1  0  0  0  0
 11 16  1  0  0  0  0
 12 18  1  0  0  0  0
 12 13  1  0  0  0  0
 13 14  1  0  0  0  0
 13 20  1  0  0  0  0
 14 21  1  0  0  0  0
 15 14  1  0  0  0  0
 15 22  1  0  0  0  0
 16 15  1  0  0  0  0
 16 24  1  0  0  0  0
 17 12  1  0  0  0  0
 19 13  1  0  0  0  0
 23 15  1  0  0  0  0
 25 16  1  0  0  0  0
 26 28  1  0  0  0  0
 26 27  1  0  0  0  0
 29 34  1  0  0  0  0
 29 26  1  0  0  0  0
 30 29  1  0  0  0  0
 31 29  1  0  0  0  0
 32 38  1  0  0  0  0
 33 39  1  0  0  0  0
 33 32  2  0  0  0  0
 34 33  1  0  0  0  0
 35 34  2  0  0  0  0
 35 36  1  0  0  0  0
 36 37  2  0  0  0  0
 37 32  1  0  0  0  0
 40 41  2  0  0  0  0
 41 42  1  0  0  0  0
 42 36  1  1  0  0  0
 42 43  1  0  0  0  0
 43 44  1  0  0  0  0
 45 46  1  0  0  0  0
 45 43  1  0  0  0  0
 47 41  1  0  0  0  0
 47 45  1  0  0  0  0
 48 47  1  0  0  0  0
M  END
>  <minimizedAffinity>
-6.51714182

>  <minimizedRMSD>
2.71519756

$$$$
