
 OpenBabel03252503053D

 20 21  0  0  1  0  0  0  0  0999 V2000
   45.5700   35.7950   43.2110 C   0  0  0  0  0  0  0  0  0  0  0  0
   46.2280   34.5580   43.3760 C   0  0  0  0  0  0  0  0  0  0  0  0
   45.9730   33.8530   44.5560 C   0  0  0  0  0  0  0  0  0  0  0  0
   45.1280   34.3750   45.4670 N   0  0  0  0  0  0  0  0  0  0  0  0
   44.5120   35.5710   45.2740 C   0  0  0  0  0  0  0  0  0  0  0  0
   44.7390   36.2730   44.1450 N   0  0  0  0  0  0  0  0  0  0  0  0
   45.7630   36.3480   42.2960 H   0  0  0  0  0  0  0  0  0  0  0  0
   43.8360   35.9700   46.0230 H   0  0  0  0  0  0  0  0  0  0  0  0
   47.1370   32.8310   47.2610 O   0  0  0  0  0  0  0  0  0  0  0  0
   46.9880   32.2640   46.1600 C   0  0  0  0  0  0  0  0  0  0  0  0
   46.6560   32.5540   44.7410 C   0  0  1  0  0  0  0  0  0  0  0  0
   45.7810   31.3770   44.3640 C   0  0  0  0  0  0  0  0  0  0  0  0
   45.7730   31.2750   43.2530 H   0  0  0  0  0  0  0  0  0  0  0  0
   46.4600   30.2290   45.0450 C   0  0  0  0  0  0  0  0  0  0  0  0
   45.6800   29.5170   45.3970 H   0  0  0  0  0  0  0  0  0  0  0  0
   47.1810   30.8370   46.1320 N   0  0  0  0  0  0  0  0  0  0  0  0
   47.7090   30.1080   46.6970 H   0  0  0  0  0  0  0  0  0  0  0  0
   47.1120   34.0540   42.3760 C   0  0  0  0  0  0  0  0  0  0  0  0
   47.5280   34.8590   41.5090 O   0  0  0  0  0  0  0  0  0  0  0  0
   47.5340   33.0660   42.1830 H   0  0  0  0  0  0  0  0  0  0  0  0
  1  2  2  0  0  0  0
  1  6  1  0  0  0  0
  2  3  1  0  0  0  0
  3  4  2  0  0  0  0
  5  4  1  0  0  0  0
  5  8  1  0  0  0  0
  6  5  2  0  0  0  0
  7  1  1  0  0  0  0
 10  9  2  0  0  0  0
 11  3  1  1  0  0  0
 11 10  1  0  0  0  0
 12 11  1  0  0  0  0
 12 14  1  0  0  0  0
 13 12  1  0  0  0  0
 14 15  1  0  0  0  0
 14 16  1  0  0  0  0
 16 10  1  0  0  0  0
 16 17  1  0  0  0  0
 18  2  1  0  0  0  0
 19 18  2  0  0  0  0
 20 18  1  0  0  0  0
M  END
>  <minimizedAffinity>
-3.9403553

>  <minimizedRMSD>
1.0468297

$$$$
