
     RDKit          3D

 23 24  0  0  0  0  0  0  0  0999 V2000
   44.6623   36.0337   44.3239 C   0  0  0  0  0  0  0  0  0  0  0  0
   45.4629   35.5619   43.2839 C   0  0  0  0  0  0  0  0  0  0  0  0
   46.1729   34.3795   43.5252 C   0  0  0  0  0  0  0  0  0  0  0  0
   46.0531   33.7563   44.7373 N   0  0  0  0  0  0  0  0  0  0  0  0
   45.2620   34.2635   45.7026 C   0  0  0  0  0  0  0  0  0  0  0  0
   44.5575   35.4165   45.4941 N   0  0  0  0  0  0  0  0  0  0  0  0
   45.1223   33.6294   46.9751 N   0  0  0  0  0  0  0  0  0  0  0  0
   44.1033   36.9478   44.1598 H   0  0  0  0  0  0  0  0  0  0  0  0
   45.5686   36.0425   42.3198 H   0  0  0  0  0  0  0  0  0  0  0  0
   44.7501   32.6601   46.8309 H   0  0  0  0  0  0  0  0  0  0  0  0
   45.3467   34.0400   47.9140 H   0  0  0  0  0  0  0  0  0  0  0  0
   47.9897   31.9706   44.1632 O   0  0  0  0  0  0  0  0  0  0  0  0
   47.9638   32.7695   43.1753 C   0  0  0  0  0  0  0  0  0  0  0  0
   47.0636   33.7546   42.5203 C   0  0  2  0  0  0  0  0  0  0  0  0
   48.0121   34.7445   41.8963 C   0  0  2  0  0  0  0  0  0  0  0  0
   48.1416   35.6484   42.5462 H   0  0  0  0  0  0  0  0  0  0  0  0
   49.3116   34.0302   41.6841 C   0  0  2  0  0  0  0  0  0  0  0  0
   50.1786   34.5601   42.1457 H   0  0  0  0  0  0  0  0  0  0  0  0
   49.1752   32.7663   42.3937 N   0  0  0  0  0  0  0  0  0  0  0  0
   46.5366   33.2367   41.7060 H   0  0  0  0  0  0  0  0  0  0  0  0
   47.5392   35.1129   40.9585 H   0  0  0  0  0  0  0  0  0  0  0  0
   49.5123   33.8405   40.6047 H   0  0  0  0  0  0  0  0  0  0  0  0
   49.9555   32.0709   42.2312 H   0  0  0  0  0  0  0  0  0  0  0  0
  1  6  2  0
  2  3  2  0
  2  1  1  0
  3  4  1  0
  4  5  2  0
  5  7  1  0
  6  5  1  0
  1  8  1  0
  2  9  1  0
  7 10  1  0
  7 11  1  0
 12 13  2  0
 13 14  1  0
 14 15  1  0
 15 16  1  1
 15 17  1  0
 17 18  1  1
 17 19  1  0
 19 13  1  0
 14 20  1  6
 15 21  1  0
 17 22  1  0
 19 23  1  0
  3 14  1  0
M  ISO  4   8  14   9  14  16   8  18   8
M  END
>  <DihAtoms>  (1) 
1,2,13,12

>  <DihDeg>  (1) 
58.48768933036323

$$$$
