
     RDKit          3D

 23 24  0  0  0  0  0  0  0  0999 V2000
   45.2029   35.9680   43.3770 C   0  0  0  0  0  0  0  0  0  0  0  0
   46.0966   34.9005   43.1456 C   0  0  0  0  0  0  0  0  0  0  0  0
   46.2452   33.9599   44.1690 C   0  0  0  0  0  0  0  0  0  0  0  0
   45.5424   34.1099   45.3102 N   0  0  0  0  0  0  0  0  0  0  0  0
   44.6901   35.1519   45.4974 C   0  0  0  0  0  0  0  0  0  0  0  0
   44.5269   36.0744   44.5272 N   0  0  0  0  0  0  0  0  0  0  0  0
   46.8140   34.7928   41.9173 C   0  0  0  0  0  0  0  0  0  0  0  0
   47.9109   35.3956   41.8292 O   0  0  0  0  0  0  0  0  0  0  0  0
   45.0831   36.7015   42.5864 H   0  0  0  0  0  0  0  0  0  0  0  0
   44.1363   35.2498   46.4248 H   0  0  0  0  0  0  0  0  0  0  0  0
   46.6122   34.2726   40.9789 H   0  0  0  0  0  0  0  0  0  0  0  0
   45.9435   31.8408   41.9028 O   0  0  0  0  0  0  0  0  0  0  0  0
   46.8703   32.0620   42.7091 C   0  0  0  0  0  0  0  0  0  0  0  0
   47.1792   32.8360   43.9387 C   0  0  1  0  0  0  0  0  0  0  0  0
   48.5975   33.3006   43.6834 C   0  0  2  0  0  0  0  0  0  0  0  0
   49.0699   33.5639   44.6590 H   0  0  0  0  0  0  0  0  0  0  0  0
   49.2266   32.1030   43.0402 C   0  0  1  0  0  0  0  0  0  0  0  0
   49.9520   32.4567   42.2733 H   0  0  0  0  0  0  0  0  0  0  0  0
   48.1195   31.3887   42.4630 N   0  0  0  0  0  0  0  0  0  0  0  0
   47.2337   32.1460   44.7992 H   0  0  0  0  0  0  0  0  0  0  0  0
   48.5872   34.2095   43.0653 H   0  0  0  0  0  0  0  0  0  0  0  0
   49.7697   31.5455   43.8299 H   0  0  0  0  0  0  0  0  0  0  0  0
   48.4497   30.5059   41.9701 H   0  0  0  0  0  0  0  0  0  0  0  0
  1  6  2  0
  2  1  1  0
  2  3  2  0
  3  4  1  0
  4  5  2  0
  6  5  1  0
  7  2  1  0
  8  7  2  0
  1  9  1  0
  5 10  1  0
  7 11  1  0
 12 13  2  0
 13 14  1  0
 14 15  1  0
 15 16  1  1
 15 17  1  0
 17 18  1  6
 17 19  1  0
 19 13  1  0
 14 20  1  1
 15 21  1  0
 17 22  1  0
 19 23  1  0
  3 14  1  0
M  ISO  5   9  14  10  14  11   6  16   8  18   8
M  END
>  <DihAtoms>  (1) 
1,2,13,12

>  <DihDeg>  (1) 
154.4167169632511

$$$$
