
     RDKit          3D

 23 24  0  0  0  0  0  0  0  0999 V2000
   44.6623   36.0337   44.3239 C   0  0  0  0  0  0  0  0  0  0  0  0
   45.4629   35.5619   43.2839 C   0  0  0  0  0  0  0  0  0  0  0  0
   46.1729   34.3795   43.5252 C   0  0  0  0  0  0  0  0  0  0  0  0
   46.0531   33.7563   44.7373 N   0  0  0  0  0  0  0  0  0  0  0  0
   45.2620   34.2635   45.7026 C   0  0  0  0  0  0  0  0  0  0  0  0
   44.5575   35.4165   45.4941 N   0  0  0  0  0  0  0  0  0  0  0  0
   45.1223   33.6294   46.9751 N   0  0  0  0  0  0  0  0  0  0  0  0
   44.1033   36.9478   44.1598 H   0  0  0  0  0  0  0  0  0  0  0  0
   45.5686   36.0425   42.3198 H   0  0  0  0  0  0  0  0  0  0  0  0
   44.7501   32.6601   46.8309 H   0  0  0  0  0  0  0  0  0  0  0  0
   45.3467   34.0400   47.9140 H   0  0  0  0  0  0  0  0  0  0  0  0
   48.4249   35.9230   42.0912 O   0  0  0  0  0  0  0  0  0  0  0  0
   47.8941   34.7928   41.8553 C   0  0  0  0  0  0  0  0  0  0  0  0
   47.0636   33.7546   42.5203 C   0  0  2  0  0  0  0  0  0  0  0  0
   46.2994   33.1274   41.3838 C   0  0  2  0  0  0  0  0  0  0  0  0
   45.2695   33.5611   41.2985 H   0  0  0  0  0  0  0  0  0  0  0  0
   47.0985   33.3612   40.1385 C   0  0  2  0  0  0  0  0  0  0  0  0
   46.5085   33.8558   39.3307 H   0  0  0  0  0  0  0  0  0  0  0  0
   48.1414   34.3016   40.5226 N   0  0  0  0  0  0  0  0  0  0  0  0
   47.7435   32.9924   42.9276 H   0  0  0  0  0  0  0  0  0  0  0  0
   46.1539   32.0525   41.6338 H   0  0  0  0  0  0  0  0  0  0  0  0
   47.5570   32.4212   39.7541 H   0  0  0  0  0  0  0  0  0  0  0  0
   48.8878   34.4707   39.7925 H   0  0  0  0  0  0  0  0  0  0  0  0
  1  6  2  0
  2  3  2  0
  2  1  1  0
  3  4  1  0
  4  5  2  0
  5  7  1  0
  6  5  1  0
  1  8  1  0
  2  9  1  0
  7 10  1  0
  7 11  1  0
 12 13  2  0
 13 14  1  0
 14 15  1  0
 15 16  1  6
 15 17  1  0
 17 18  1  6
 17 19  1  0
 19 13  1  0
 14 20  1  1
 15 21  1  0
 17 22  1  0
 19 23  1  0
  3 14  1  0
M  ISO  4   8  14   9  14  16   8  18   8
M  END
>  <DihAtoms>  (1) 
1,2,13,12

>  <DihDeg>  (1) 
58.48768933036323

$$$$
