
 OpenBabel03242514123D

 46 49  0  0  1  0  0  0  0  0999 V2000
   38.3520   30.3720   40.4360 C   0  0  0  0  0  0  0  0  0  0  0  0
   37.3150   31.2990   40.5320 C   0  0  0  0  0  0  0  0  0  0  0  0
   37.4320   32.6330   40.1570 C   0  0  0  0  0  0  0  0  0  0  0  0
   38.7000   32.9800   39.6680 C   0  0  0  0  0  0  0  0  0  0  0  0
   39.7410   32.0390   39.5750 C   0  0  0  0  0  0  0  0  0  0  0  0
   39.5480   30.7640   39.9580 N   0  0  0  0  0  0  0  0  0  0  0  0
   36.3760   30.9300   40.9220 H   0  0  0  0  0  0  0  0  0  0  0  0
   36.6150   33.3110   40.2450 H   0  0  0  0  0  0  0  0  0  0  0  0
   38.7390   34.0230   39.3940 H   0  0  0  0  0  0  0  0  0  0  0  0
   41.0270   32.4650   39.0370 C   0  0  1  0  0  0  0  0  0  0  0  0
   40.9500   32.5960   37.4600 C   0  0  0  0  0  0  0  0  0  0  0  0
   42.4500   32.6010   37.0660 C   0  0  0  0  0  0  0  0  0  0  0  0
   42.9230   33.9990   37.4800 C   0  0  0  0  0  0  0  0  0  0  0  0
   42.8390   34.1700   38.9500 C   0  0  0  0  0  0  0  0  0  0  0  0
   41.6420   33.6150   39.6280 C   0  0  2  0  0  0  0  0  0  0  0  0
   41.6980   31.5570   39.1070 H   0  0  0  0  0  0  0  0  0  0  0  0
   40.4950   31.6980   37.0430 H   0  0  0  0  0  0  0  0  0  0  0  0
   40.4650   33.5520   37.2020 H   0  0  0  0  0  0  0  0  0  0  0  0
   42.5600   32.5230   35.9820 H   0  0  0  0  0  0  0  0  0  0  0  0
   42.9620   31.8270   37.6430 H   0  0  0  0  0  0  0  0  0  0  0  0
   42.3360   34.7220   36.8950 H   0  0  0  0  0  0  0  0  0  0  0  0
   43.9750   34.0690   37.1420 H   0  0  0  0  0  0  0  0  0  0  0  0
   42.9550   35.2510   39.1790 H   0  0  0  0  0  0  0  0  0  0  0  0
   43.7880   33.7200   39.3640 H   0  0  0  0  0  0  0  0  0  0  0  0
   40.9000   34.4710   39.6730 H   0  0  0  0  0  0  0  0  0  0  0  0
   42.1900   33.1220   41.2950 S   0  0  0  0  0  0  0  0  0  0  0  0
   42.3630   31.7300   41.3940 H   0  0  0  0  0  0  0  0  0  0  0  0
   38.4050   26.7320   40.6530 C   0  0  0  0  0  0  0  0  0  0  0  0
   37.6090   26.4450   41.7570 C   0  0  0  0  0  0  0  0  0  0  0  0
   37.0660   27.5260   42.4090 C   0  0  0  0  0  0  0  0  0  0  0  0
   37.3320   28.7840   41.9470 N   0  0  0  0  0  0  0  0  0  0  0  0
   38.1320   29.0010   40.8420 C   0  0  0  0  0  0  0  0  0  0  0  0
   38.6450   27.9970   40.2260 N   0  0  0  0  0  0  0  0  0  0  0  0
   36.2450   27.4450   43.5340 N   0  0  0  0  0  0  0  0  0  0  0  0
   38.8460   25.8990   40.1200 H   0  0  0  0  0  0  0  0  0  0  0  0
   37.0100   27.4920   44.2620 H   0  0  0  0  0  0  0  0  0  0  0  0
   35.2200   27.3630   43.7070 H   0  0  0  0  0  0  0  0  0  0  0  0
   39.3440   24.6590   43.3230 O   0  0  0  0  0  0  0  0  0  0  0  0
   38.5710   24.3080   42.3860 C   0  0  0  0  0  0  0  0  0  0  0  0
   37.3310   25.0710   42.2420 C   0  0  2  0  0  3  0  0  0  0  0  0
   36.4750   24.3140   41.2500 C   0  0  0  0  0  3  0  0  0  0  0  0
   35.6280   23.8330   41.7930 H   0  0  0  0  0  0  0  0  0  0  0  0
   37.3560   23.2270   40.6800 C   0  0  0  0  0  3  0  0  0  0  0  0
   36.9260   22.2210   40.7690 H   0  0  0  0  0  0  0  0  0  0  0  0
   38.6050   23.3070   41.3840 N   0  0  0  0  0  0  0  0  0  0  0  0
   39.4430   22.7440   41.2280 H   0  0  0  0  0  0  0  0  0  0  0  0
  1  2  1  0  0  0  0
  1 32  1  0  0  0  0
  2  7  1  0  0  0  0
  3  8  1  0  0  0  0
  3  2  2  0  0  0  0
  4  3  1  0  0  0  0
  5  4  2  0  0  0  0
  5  6  1  0  0  0  0
  6  1  2  0  0  0  0
  9  4  1  0  0  0  0
 10 16  1  1  0  0  0
 10  5  1  0  0  0  0
 10 15  1  0  0  0  0
 11 10  1  0  0  0  0
 12 11  1  0  0  0  0
 12 13  1  0  0  0  0
 12 20  1  0  0  0  0
 13 14  1  0  0  0  0
 14 23  1  0  0  0  0
 14 24  1  0  0  0  0
 14 15  1  0  0  0  0
 15 25  1  1  0  0  0
 15 26  1  0  0  0  0
 17 11  1  0  0  0  0
 18 11  1  0  0  0  0
 19 12  1  0  0  0  0
 21 13  1  0  0  0  0
 22 13  1  0  0  0  0
 26 27  1  0  0  0  0
 28 29  1  0  0  0  0
 29 30  2  0  0  0  0
 30 34  1  0  0  0  0
 31 30  1  0  0  0  0
 32 31  2  0  0  0  0
 33 28  2  0  0  0  0
 33 32  1  0  0  0  0
 34 37  1  0  0  0  0
 34 36  1  0  0  0  0
 35 28  1  0  0  0  0
 39 38  2  0  0  0  0
 40 29  1  6  0  0  0
 40 39  1  0  0  0  0
 41 42  1  0  0  0  0
 41 40  1  0  0  0  0
 43 44  1  0  0  0  0
 43 41  1  0  0  0  0
 43 45  1  0  0  0  0
 45 39  1  0  0  0  0
 46 45  1  0  0  0  0
M  END
>  <minimizedAffinity>
-6.61011553

$$$$

 OpenBabel03242514123D

 46 49  0  0  1  0  0  0  0  0999 V2000
   37.9600   28.8820   41.9490 C   0  0  0  0  0  0  0  0  0  0  0  0
   37.3350   28.9960   43.1910 C   0  0  0  0  0  0  0  0  0  0  0  0
   36.7550   27.9280   43.8660 C   0  0  0  0  0  0  0  0  0  0  0  0
   36.8480   26.7040   43.1860 C   0  0  0  0  0  0  0  0  0  0  0  0
   37.4780   26.5980   41.9350 C   0  0  0  0  0  0  0  0  0  0  0  0
   38.0180   27.6800   41.3450 N   0  0  0  0  0  0  0  0  0  0  0  0
   37.3180   29.9840   43.6300 H   0  0  0  0  0  0  0  0  0  0  0  0
   36.2870   28.0550   44.8150 H   0  0  0  0  0  0  0  0  0  0  0  0
   36.3820   25.9100   43.7510 H   0  0  0  0  0  0  0  0  0  0  0  0
   37.5560   25.2900   41.2950 C   0  0  1  0  0  0  0  0  0  0  0  0
   36.5630   25.2190   40.0630 C   0  0  0  0  0  0  0  0  0  0  0  0
   36.4570   23.6900   39.8260 C   0  0  0  0  0  0  0  0  0  0  0  0
   37.7990   23.3360   39.1750 C   0  0  0  0  0  0  0  0  0  0  0  0
   38.9200   23.5740   40.1170 C   0  0  0  0  0  0  0  0  0  0  0  0
   38.8550   24.8000   40.9490 C   0  0  2  0  0  0  0  0  0  0  0  0
   37.0200   24.5810   41.9960 H   0  0  0  0  0  0  0  0  0  0  0  0
   35.5810   25.5820   40.3670 H   0  0  0  0  0  0  0  0  0  0  0  0
   37.0230   25.7270   39.2000 H   0  0  0  0  0  0  0  0  0  0  0  0
   35.6700   23.4700   39.1000 H   0  0  0  0  0  0  0  0  0  0  0  0
   36.3480   23.1960   40.7940 H   0  0  0  0  0  0  0  0  0  0  0  0
   37.8580   23.9010   38.2340 H   0  0  0  0  0  0  0  0  0  0  0  0
   37.7310   22.2610   38.9190 H   0  0  0  0  0  0  0  0  0  0  0  0
   39.8680   23.5390   39.5400 H   0  0  0  0  0  0  0  0  0  0  0  0
   38.9800   22.6470   40.7590 H   0  0  0  0  0  0  0  0  0  0  0  0
   39.4240   25.5880   40.3650 H   0  0  0  0  0  0  0  0  0  0  0  0
   39.6980   24.3920   42.5130 S   0  0  0  0  0  0  0  0  0  0  0  0
   38.7810   24.1540   43.5510 H   0  0  0  0  0  0  0  0  0  0  0  0
   40.2890   31.2680   40.4730 C   0  0  0  0  0  0  0  0  0  0  0  0
   39.4930   32.3570   40.1350 C   0  0  0  0  0  0  0  0  0  0  0  0
   38.1550   32.2430   40.4280 C   0  0  0  0  0  0  0  0  0  0  0  0
   37.6990   31.0980   41.0170 N   0  0  0  0  0  0  0  0  0  0  0  0
   38.5440   30.0500   41.3280 C   0  0  0  0  0  0  0  0  0  0  0  0
   39.7970   30.1470   41.0580 N   0  0  0  0  0  0  0  0  0  0  0  0
   37.1980   33.2230   40.1650 N   0  0  0  0  0  0  0  0  0  0  0  0
   41.3480   31.3300   40.2540 H   0  0  0  0  0  0  0  0  0  0  0  0
   36.9320   32.8940   39.1970 H   0  0  0  0  0  0  0  0  0  0  0  0
   36.8070   34.0420   40.6790 H   0  0  0  0  0  0  0  0  0  0  0  0
   40.6850   32.6910   37.4670 O   0  0  0  0  0  0  0  0  0  0  0  0
   41.0550   33.2780   38.5230 C   0  0  0  0  0  0  0  0  0  0  0  0
   40.0090   33.5930   39.4970 C   0  0  2  0  0  3  0  0  0  0  0  0
   40.6410   34.5060   40.5250 C   0  0  0  0  0  3  0  0  0  0  0  0
   40.2440   35.5390   40.3870 H   0  0  0  0  0  0  0  0  0  0  0  0
   42.1210   34.5180   40.2220 C   0  0  0  0  0  3  0  0  0  0  0  0
   42.5330   35.5260   40.0860 H   0  0  0  0  0  0  0  0  0  0  0  0
   42.2970   33.7350   39.0310 N   0  0  0  0  0  0  0  0  0  0  0  0
   43.1760   33.5030   38.5640 H   0  0  0  0  0  0  0  0  0  0  0  0
  1  2  1  0  0  0  0
  2  7  1  0  0  0  0
  2  3  2  0  0  0  0
  3  8  1  0  0  0  0
  4  9  1  0  0  0  0
  4  3  1  0  0  0  0
  5  4  2  0  0  0  0
  6  5  1  0  0  0  0
  6  1  2  0  0  0  0
 10  5  1  0  0  0  0
 10 16  1  1  0  0  0
 11 17  1  0  0  0  0
 11 10  1  0  0  0  0
 12 11  1  0  0  0  0
 12 20  1  0  0  0  0
 13 12  1  0  0  0  0
 13 14  1  0  0  0  0
 14 24  1  0  0  0  0
 14 15  1  0  0  0  0
 15 25  1  6  0  0  0
 15 10  1  0  0  0  0
 15 26  1  0  0  0  0
 18 11  1  0  0  0  0
 19 12  1  0  0  0  0
 21 13  1  0  0  0  0
 22 13  1  0  0  0  0
 23 14  1  0  0  0  0
 26 27  1  0  0  0  0
 28 33  1  0  0  0  0
 29 30  1  0  0  0  0
 29 28  2  0  0  0  0
 30 31  2  0  0  0  0
 31 32  1  0  0  0  0
 32  1  1  0  0  0  0
 33 32  2  0  0  0  0
 34 30  1  0  0  0  0
 34 37  1  0  0  0  0
 35 28  1  0  0  0  0
 36 34  1  0  0  0  0
 38 39  2  0  0  0  0
 39 45  1  0  0  0  0
 39 40  1  0  0  0  0
 40 29  1  1  0  0  0
 40 41  1  0  0  0  0
 42 41  1  0  0  0  0
 43 41  1  0  0  0  0
 44 43  1  0  0  0  0
 45 43  1  0  0  0  0
 46 45  1  0  0  0  0
M  END
>  <minimizedAffinity>
-6.60631466

$$$$

 OpenBabel03242514123D

 46 49  0  0  1  0  0  0  0  0999 V2000
   34.1880   28.1990   37.8740 C   0  0  0  0  0  0  0  0  0  0  0  0
   34.1570   27.0050   37.1550 C   0  0  0  0  0  0  0  0  0  0  0  0
   33.3280   26.7800   36.0620 C   0  0  0  0  0  0  0  0  0  0  0  0
   32.5070   27.8700   35.7340 C   0  0  0  0  0  0  0  0  0  0  0  0
   32.5440   29.0710   36.4650 C   0  0  0  0  0  0  0  0  0  0  0  0
   33.3770   29.2110   37.5120 N   0  0  0  0  0  0  0  0  0  0  0  0
   34.8300   26.2260   37.4890 H   0  0  0  0  0  0  0  0  0  0  0  0
   33.3330   25.8530   35.5380 H   0  0  0  0  0  0  0  0  0  0  0  0
   31.8830   27.6440   34.8830 H   0  0  0  0  0  0  0  0  0  0  0  0
   31.6780   30.1690   36.0540 C   0  0  1  0  0  0  0  0  0  0  0  0
   31.9080   30.5120   34.5250 C   0  0  0  0  0  0  0  0  0  0  0  0
   31.2770   31.9250   34.4150 C   0  0  0  0  0  0  0  0  0  0  0  0
   29.7700   31.6460   34.4570 C   0  0  0  0  0  0  0  0  0  0  0  0
   29.3760   31.0720   35.7660 C   0  0  0  0  0  0  0  0  0  0  0  0
   30.2840   30.0620   36.3620 C   0  0  2  0  0  0  0  0  0  0  0  0
   32.1320   31.0980   36.5150 H   0  0  0  0  0  0  0  0  0  0  0  0
   32.9770   30.6050   34.3310 H   0  0  0  0  0  0  0  0  0  0  0  0
   31.3630   29.7810   33.9060 H   0  0  0  0  0  0  0  0  0  0  0  0
   31.5040   32.3700   33.4430 H   0  0  0  0  0  0  0  0  0  0  0  0
   31.5910   32.5120   35.2810 H   0  0  0  0  0  0  0  0  0  0  0  0
   29.5370   31.0160   33.5860 H   0  0  0  0  0  0  0  0  0  0  0  0
   29.2820   32.6280   34.3020 H   0  0  0  0  0  0  0  0  0  0  0  0
   28.3460   30.6670   35.6700 H   0  0  0  0  0  0  0  0  0  0  0  0
   29.2380   31.9550   36.4560 H   0  0  0  0  0  0  0  0  0  0  0  0
   29.8860   29.0590   36.0130 H   0  0  0  0  0  0  0  0  0  0  0  0
   30.1280   30.2470   38.1680 S   0  0  0  0  0  0  0  0  0  0  0  0
   31.2250   30.9330   38.7170 H   0  0  0  0  0  0  0  0  0  0  0  0
   36.7500   27.6160   40.4030 C   0  0  0  0  0  0  0  0  0  0  0  0
   36.7560   28.7850   41.1580 C   0  0  0  0  0  0  0  0  0  0  0  0
   35.8650   29.7580   40.7730 C   0  0  0  0  0  0  0  0  0  0  0  0
   35.0490   29.5280   39.7020 N   0  0  0  0  0  0  0  0  0  0  0  0
   35.0940   28.3420   38.9930 C   0  0  0  0  0  0  0  0  0  0  0  0
   35.9230   27.4260   39.3440 N   0  0  0  0  0  0  0  0  0  0  0  0
   35.7220   30.9960   41.4000 N   0  0  0  0  0  0  0  0  0  0  0  0
   37.4410   26.8320   40.6840 H   0  0  0  0  0  0  0  0  0  0  0  0
   36.4280   31.5240   40.8160 H   0  0  0  0  0  0  0  0  0  0  0  0
   35.1460   31.3750   42.1820 H   0  0  0  0  0  0  0  0  0  0  0  0
   39.5010   29.8420   41.1870 O   0  0  0  0  0  0  0  0  0  0  0  0
   39.0550   28.9160   41.9230 C   0  0  0  0  0  0  0  0  0  0  0  0
   37.6490   29.0150   42.3190 C   0  0  2  0  0  3  0  0  0  0  0  0
   37.4290   27.9640   43.3840 C   0  0  0  0  0  3  0  0  0  0  0  0
   37.3120   28.4660   44.3730 H   0  0  0  0  0  0  0  0  0  0  0  0
   38.6880   27.1300   43.4170 C   0  0  0  0  0  3  0  0  0  0  0  0
   39.1390   27.0550   44.4150 H   0  0  0  0  0  0  0  0  0  0  0  0
   39.6020   27.7400   42.4930 N   0  0  0  0  0  0  0  0  0  0  0  0
   40.5370   27.4150   42.2390 H   0  0  0  0  0  0  0  0  0  0  0  0
  1 32  1  0  0  0  0
  2  7  1  0  0  0  0
  2  1  2  0  0  0  0
  3  2  1  0  0  0  0
  4  3  2  0  0  0  0
  4  5  1  0  0  0  0
  5  6  2  0  0  0  0
  6  1  1  0  0  0  0
  8  3  1  0  0  0  0
  9  4  1  0  0  0  0
 10 15  1  0  0  0  0
 10  5  1  0  0  0  0
 10 16  1  1  0  0  0
 11 10  1  0  0  0  0
 12 13  1  0  0  0  0
 12 11  1  0  0  0  0
 12 20  1  0  0  0  0
 13 14  1  0  0  0  0
 14 15  1  0  0  0  0
 14 24  1  0  0  0  0
 15 25  1  6  0  0  0
 15 26  1  0  0  0  0
 17 11  1  0  0  0  0
 18 11  1  0  0  0  0
 19 12  1  0  0  0  0
 21 13  1  0  0  0  0
 22 13  1  0  0  0  0
 23 14  1  0  0  0  0
 26 27  1  0  0  0  0
 28 35  1  0  0  0  0
 28 29  1  0  0  0  0
 30 29  2  0  0  0  0
 30 34  1  0  0  0  0
 31 30  1  0  0  0  0
 32 33  1  0  0  0  0
 32 31  2  0  0  0  0
 33 28  2  0  0  0  0
 34 37  1  0  0  0  0
 36 34  1  0  0  0  0
 38 39  2  0  0  0  0
 39 40  1  0  0  0  0
 39 45  1  0  0  0  0
 40 29  1  6  0  0  0
 40 41  1  0  0  0  0
 41 43  1  0  0  0  0
 41 42  1  0  0  0  0
 43 44  1  0  0  0  0
 45 43  1  0  0  0  0
 46 45  1  0  0  0  0
M  END
>  <minimizedAffinity>
-6.50430632

$$$$

 OpenBabel03242514123D

 46 49  0  0  1  0  0  0  0  0999 V2000
   38.5780   28.8640   41.9470 C   0  0  0  0  0  0  0  0  0  0  0  0
   37.8950   29.2330   43.1060 C   0  0  0  0  0  0  0  0  0  0  0  0
   37.0820   28.3700   43.8330 C   0  0  0  0  0  0  0  0  0  0  0  0
   37.0010   27.0750   43.2980 C   0  0  0  0  0  0  0  0  0  0  0  0
   37.6920   26.7120   42.1290 C   0  0  0  0  0  0  0  0  0  0  0  0
   38.4610   27.6060   41.4820 N   0  0  0  0  0  0  0  0  0  0  0  0
   38.0250   30.2550   43.4350 H   0  0  0  0  0  0  0  0  0  0  0  0
   36.5760   28.6900   44.7140 H   0  0  0  0  0  0  0  0  0  0  0  0
   36.3580   26.4470   43.8970 H   0  0  0  0  0  0  0  0  0  0  0  0
   37.5770   25.3430   41.6420 C   0  0  1  0  0  0  0  0  0  0  0  0
   36.5470   25.2690   40.4400 C   0  0  0  0  0  0  0  0  0  0  0  0
   36.2340   23.7520   40.3800 C   0  0  0  0  0  0  0  0  0  0  0  0
   37.4980   23.1510   39.7540 C   0  0  0  0  0  0  0  0  0  0  0  0
   38.6680   23.3390   40.6460 C   0  0  0  0  0  0  0  0  0  0  0  0
   38.7900   24.6470   41.3340 C   0  0  2  0  0  0  0  0  0  0  0  0
   36.9740   24.7950   42.4260 H   0  0  0  0  0  0  0  0  0  0  0  0
   35.6310   25.7930   40.7150 H   0  0  0  0  0  0  0  0  0  0  0  0
   37.0450   25.6130   39.5180 H   0  0  0  0  0  0  0  0  0  0  0  0
   35.4040   23.5610   39.6950 H   0  0  0  0  0  0  0  0  0  0  0  0
   36.0900   23.3870   41.4000 H   0  0  0  0  0  0  0  0  0  0  0  0
   37.6030   23.5950   38.7540 H   0  0  0  0  0  0  0  0  0  0  0  0
   37.2820   22.0730   39.6230 H   0  0  0  0  0  0  0  0  0  0  0  0
   39.5860   23.1140   40.0630 H   0  0  0  0  0  0  0  0  0  0  0  0
   38.6240   22.4900   41.3880 H   0  0  0  0  0  0  0  0  0  0  0  0
   39.4400   25.2820   40.6570 H   0  0  0  0  0  0  0  0  0  0  0  0
   39.6180   24.3060   42.9220 S   0  0  0  0  0  0  0  0  0  0  0  0
   38.7080   24.3100   43.9940 H   0  0  0  0  0  0  0  0  0  0  0  0
   40.1820   30.9270   39.4040 C   0  0  0  0  0  0  0  0  0  0  0  0
   41.0670   31.7260   40.1220 C   0  0  0  0  0  0  0  0  0  0  0  0
   41.0900   31.5330   41.4820 C   0  0  0  0  0  0  0  0  0  0  0  0
   40.2670   30.5930   42.0340 N   0  0  0  0  0  0  0  0  0  0  0  0
   39.4090   29.8310   41.2640 C   0  0  0  0  0  0  0  0  0  0  0  0
   39.3790   30.0050   39.9910 N   0  0  0  0  0  0  0  0  0  0  0  0
   41.9050   32.2350   42.3700 N   0  0  0  0  0  0  0  0  0  0  0  0
   40.1420   31.0590   38.3300 H   0  0  0  0  0  0  0  0  0  0  0  0
   41.2310   33.0230   42.5750 H   0  0  0  0  0  0  0  0  0  0  0  0
   42.8630   32.1110   42.7620 H   0  0  0  0  0  0  0  0  0  0  0  0
   40.4810   34.5360   39.4750 O   0  0  0  0  0  0  0  0  0  0  0  0
   41.1730   33.7430   38.7760 C   0  0  0  0  0  0  0  0  0  0  0  0
   41.9540   32.7410   39.5020 C   0  0  2  0  0  3  0  0  0  0  0  0
   42.8770   32.1000   38.4890 C   0  0  0  0  0  3  0  0  0  0  0  0
   43.9210   32.4460   38.6790 H   0  0  0  0  0  0  0  0  0  0  0  0
   42.4400   32.6160   37.1380 C   0  0  0  0  0  3  0  0  0  0  0  0
   43.2520   33.0750   36.5600 H   0  0  0  0  0  0  0  0  0  0  0  0
   41.3950   33.5680   37.3870 N   0  0  0  0  0  0  0  0  0  0  0  0
   40.8470   34.0840   36.6950 H   0  0  0  0  0  0  0  0  0  0  0  0
  1  2  1  0  0  0  0
  2  7  1  0  0  0  0
  2  3  2  0  0  0  0
  3  8  1  0  0  0  0
  4  3  1  0  0  0  0
  4  9  1  0  0  0  0
  5  4  2  0  0  0  0
  6  1  2  0  0  0  0
  6  5  1  0  0  0  0
 10  5  1  0  0  0  0
 10 16  1  1  0  0  0
 11 17  1  0  0  0  0
 11 10  1  0  0  0  0
 12 11  1  0  0  0  0
 12 20  1  0  0  0  0
 13 12  1  0  0  0  0
 13 14  1  0  0  0  0
 14 15  1  0  0  0  0
 14 24  1  0  0  0  0
 15 25  1  6  0  0  0
 15 10  1  0  0  0  0
 15 26  1  0  0  0  0
 18 11  1  0  0  0  0
 19 12  1  0  0  0  0
 21 13  1  0  0  0  0
 22 13  1  0  0  0  0
 23 14  1  0  0  0  0
 26 27  1  0  0  0  0
 28 33  2  0  0  0  0
 28 29  1  0  0  0  0
 29 30  2  0  0  0  0
 30 31  1  0  0  0  0
 30 34  1  0  0  0  0
 32  1  1  0  0  0  0
 32 31  2  0  0  0  0
 33 32  1  0  0  0  0
 34 36  1  0  0  0  0
 34 37  1  0  0  0  0
 35 28  1  0  0  0  0
 39 38  2  0  0  0  0
 39 40  1  0  0  0  0
 40 29  1  6  0  0  0
 41 42  1  0  0  0  0
 41 40  1  0  0  0  0
 43 45  1  0  0  0  0
 43 41  1  0  0  0  0
 44 43  1  0  0  0  0
 45 39  1  0  0  0  0
 46 45  1  0  0  0  0
M  END
>  <minimizedAffinity>
-6.49958706

$$$$

 OpenBabel03242514123D

 46 49  0  0  1  0  0  0  0  0999 V2000
   37.9380   29.9870   40.2190 C   0  0  0  0  0  0  0  0  0  0  0  0
   36.6430   30.5040   40.2030 C   0  0  0  0  0  0  0  0  0  0  0  0
   35.5190   29.7900   40.6030 C   0  0  0  0  0  0  0  0  0  0  0  0
   35.7960   28.4820   41.0310 C   0  0  0  0  0  0  0  0  0  0  0  0
   37.1040   27.9690   41.0450 C   0  0  0  0  0  0  0  0  0  0  0  0
   38.1410   28.7240   40.6410 N   0  0  0  0  0  0  0  0  0  0  0  0
   36.5370   31.5230   39.8540 H   0  0  0  0  0  0  0  0  0  0  0  0
   34.5450   30.2200   40.5760 H   0  0  0  0  0  0  0  0  0  0  0  0
   34.8920   27.9720   41.3290 H   0  0  0  0  0  0  0  0  0  0  0  0
   37.3200   26.6080   41.5220 C   0  0  1  0  0  0  0  0  0  0  0  0
   36.8410   25.5590   40.4360 C   0  0  0  0  0  0  0  0  0  0  0  0
   36.7250   24.2600   41.2750 C   0  0  0  0  0  0  0  0  0  0  0  0
   38.1850   23.8470   41.4950 C   0  0  0  0  0  0  0  0  0  0  0  0
   38.9000   24.8550   42.3140 C   0  0  0  0  0  0  0  0  0  0  0  0
   38.6190   26.2830   42.0250 C   0  0  2  0  0  0  0  0  0  0  0  0
   36.5190   26.4330   42.3020 H   0  0  0  0  0  0  0  0  0  0  0  0
   35.8430   25.8270   40.0880 H   0  0  0  0  0  0  0  0  0  0  0  0
   37.6170   25.4670   39.6580 H   0  0  0  0  0  0  0  0  0  0  0  0
   36.2440   23.4710   40.6920 H   0  0  0  0  0  0  0  0  0  0  0  0
   36.2380   24.5020   42.2220 H   0  0  0  0  0  0  0  0  0  0  0  0
   38.6200   23.6650   40.5020 H   0  0  0  0  0  0  0  0  0  0  0  0
   38.1430   22.8770   42.0270 H   0  0  0  0  0  0  0  0  0  0  0  0
   39.9880   24.6470   42.2470 H   0  0  0  0  0  0  0  0  0  0  0  0
   38.6590   24.6020   43.3880 H   0  0  0  0  0  0  0  0  0  0  0  0
   39.4140   26.5990   41.2800 H   0  0  0  0  0  0  0  0  0  0  0  0
   38.8070   27.1640   43.6100 S   0  0  0  0  0  0  0  0  0  0  0  0
   37.5600   27.4780   44.1800 H   0  0  0  0  0  0  0  0  0  0  0  0
   41.0320   31.9120   40.1130 C   0  0  0  0  0  0  0  0  0  0  0  0
   41.0900   32.3930   38.8080 C   0  0  0  0  0  0  0  0  0  0  0  0
   40.0480   32.0380   37.9860 C   0  0  0  0  0  0  0  0  0  0  0  0
   39.0450   31.2560   38.4840 N   0  0  0  0  0  0  0  0  0  0  0  0
   39.0470   30.8110   39.7920 C   0  0  0  0  0  0  0  0  0  0  0  0
   40.0170   31.1370   40.5690 N   0  0  0  0  0  0  0  0  0  0  0  0
   39.9270   32.4180   36.6490 N   0  0  0  0  0  0  0  0  0  0  0  0
   41.8410   32.1770   40.7830 H   0  0  0  0  0  0  0  0  0  0  0  0
   40.4340   31.5910   36.2290 H   0  0  0  0  0  0  0  0  0  0  0  0
   39.5010   33.2190   36.1360 H   0  0  0  0  0  0  0  0  0  0  0  0
   43.0990   31.7530   36.7570 O   0  0  0  0  0  0  0  0  0  0  0  0
   43.3020   32.4210   37.8100 C   0  0  0  0  0  0  0  0  0  0  0  0
   42.1890   33.2430   38.2880 C   0  0  2  0  0  3  0  0  0  0  0  0
   42.7480   34.1280   39.3800 C   0  0  0  0  0  3  0  0  0  0  0  0
   42.8130   35.1750   39.0010 H   0  0  0  0  0  0  0  0  0  0  0  0
   44.1470   33.6280   39.6500 C   0  0  0  0  0  3  0  0  0  0  0  0
   44.9140   34.4100   39.5770 H   0  0  0  0  0  0  0  0  0  0  0  0
   44.3960   32.5850   38.6950 N   0  0  0  0  0  0  0  0  0  0  0  0
   45.2320   32.0030   38.6160 H   0  0  0  0  0  0  0  0  0  0  0  0
  1  6  1  0  0  0  0
  2  1  2  0  0  0  0
  2  3  1  0  0  0  0
  3  4  2  0  0  0  0
  4  5  1  0  0  0  0
  4  9  1  0  0  0  0
  5 10  1  0  0  0  0
  6  5  2  0  0  0  0
  7  2  1  0  0  0  0
  8  3  1  0  0  0  0
 10 15  1  0  0  0  0
 10 16  1  1  0  0  0
 11 12  1  0  0  0  0
 11 10  1  0  0  0  0
 12 13  1  0  0  0  0
 12 20  1  0  0  0  0
 13 22  1  0  0  0  0
 13 14  1  0  0  0  0
 14 24  1  0  0  0  0
 15 25  1  6  0  0  0
 15 14  1  0  0  0  0
 15 26  1  0  0  0  0
 17 11  1  0  0  0  0
 18 11  1  0  0  0  0
 19 12  1  0  0  0  0
 21 13  1  0  0  0  0
 23 14  1  0  0  0  0
 26 27  1  0  0  0  0
 28 33  1  0  0  0  0
 28 35  1  0  0  0  0
 29 28  2  0  0  0  0
 30 31  2  0  0  0  0
 30 29  1  0  0  0  0
 31 32  1  0  0  0  0
 32  1  1  0  0  0  0
 32 33  2  0  0  0  0
 34 30  1  0  0  0  0
 36 34  1  0  0  0  0
 37 34  1  0  0  0  0
 38 39  2  0  0  0  0
 39 40  1  0  0  0  0
 39 45  1  0  0  0  0
 40 29  1  1  0  0  0
 40 41  1  0  0  0  0
 41 43  1  0  0  0  0
 42 41  1  0  0  0  0
 44 43  1  0  0  0  0
 45 43  1  0  0  0  0
 46 45  1  0  0  0  0
M  END
>  <minimizedAffinity>
-6.4731288

$$$$

 OpenBabel03242514123D

 46 49  0  0  1  0  0  0  0  0999 V2000
   34.5780   28.2510   38.0430 C   0  0  0  0  0  0  0  0  0  0  0  0
   35.2480   27.2280   37.3730 C   0  0  0  0  0  0  0  0  0  0  0  0
   36.3180   26.5210   37.9100 C   0  0  0  0  0  0  0  0  0  0  0  0
   36.6780   26.9270   39.2040 C   0  0  0  0  0  0  0  0  0  0  0  0
   35.9980   27.9590   39.8730 C   0  0  0  0  0  0  0  0  0  0  0  0
   34.9700   28.5960   39.2840 N   0  0  0  0  0  0  0  0  0  0  0  0
   34.8920   26.9920   36.3790 H   0  0  0  0  0  0  0  0  0  0  0  0
   36.8040   25.7450   37.3660 H   0  0  0  0  0  0  0  0  0  0  0  0
   37.5130   26.3500   39.5740 H   0  0  0  0  0  0  0  0  0  0  0  0
   36.4140   28.3140   41.2250 C   0  0  1  0  0  0  0  0  0  0  0  0
   36.7500   27.0100   42.0590 C   0  0  0  0  0  0  0  0  0  0  0  0
   36.7180   27.5450   43.5150 C   0  0  0  0  0  0  0  0  0  0  0  0
   38.0210   28.3420   43.6310 C   0  0  0  0  0  0  0  0  0  0  0  0
   38.0070   29.5100   42.7170 C   0  0  0  0  0  0  0  0  0  0  0  0
   37.4410   29.3020   41.3620 C   0  0  2  0  0  0  0  0  0  0  0  0
   35.4670   28.6260   41.7580 H   0  0  0  0  0  0  0  0  0  0  0  0
   35.9410   26.2880   41.9460 H   0  0  0  0  0  0  0  0  0  0  0  0
   37.7570   26.6570   41.7840 H   0  0  0  0  0  0  0  0  0  0  0  0
   36.7730   26.7170   44.2260 H   0  0  0  0  0  0  0  0  0  0  0  0
   35.8480   28.1960   43.6250 H   0  0  0  0  0  0  0  0  0  0  0  0
   38.8460   27.6350   43.4650 H   0  0  0  0  0  0  0  0  0  0  0  0
   38.0720   28.6770   44.6850 H   0  0  0  0  0  0  0  0  0  0  0  0
   39.0410   29.9120   42.6530 H   0  0  0  0  0  0  0  0  0  0  0  0
   37.4530   30.3240   43.2700 H   0  0  0  0  0  0  0  0  0  0  0  0
   38.3260   29.0340   40.7050 H   0  0  0  0  0  0  0  0  0  0  0  0
   36.7070   30.8960   40.8720 S   0  0  0  0  0  0  0  0  0  0  0  0
   35.3060   30.8830   40.9930 H   0  0  0  0  0  0  0  0  0  0  0  0
   32.3410   29.7640   35.5940 C   0  0  0  0  0  0  0  0  0  0  0  0
   31.2680   30.2240   36.3500 C   0  0  0  0  0  0  0  0  0  0  0  0
   31.3420   29.9990   37.7040 C   0  0  0  0  0  0  0  0  0  0  0  0
   32.4340   29.3550   38.2130 N   0  0  0  0  0  0  0  0  0  0  0  0
   33.4680   28.9230   37.4050 C   0  0  0  0  0  0  0  0  0  0  0  0
   33.4090   29.1280   36.1370 N   0  0  0  0  0  0  0  0  0  0  0  0
   30.3680   30.3810   38.6270 N   0  0  0  0  0  0  0  0  0  0  0  0
   32.3100   29.9280   34.5240 H   0  0  0  0  0  0  0  0  0  0  0  0
   29.7950   29.4940   38.5920 H   0  0  0  0  0  0  0  0  0  0  0  0
   30.1790   31.2270   39.2060 H   0  0  0  0  0  0  0  0  0  0  0  0
   29.0840   29.1180   34.7200 O   0  0  0  0  0  0  0  0  0  0  0  0
   29.6250   30.2490   34.5650 C   0  0  0  0  0  0  0  0  0  0  0  0
   30.0910   30.9230   35.7780 C   0  0  2  0  0  3  0  0  0  0  0  0
   30.4490   32.3360   35.3740 C   0  0  0  0  0  3  0  0  0  0  0  0
   29.6810   33.0350   35.7800 H   0  0  0  0  0  0  0  0  0  0  0  0
   30.3770   32.3710   33.8650 C   0  0  0  0  0  3  0  0  0  0  0  0
   29.7230   33.1610   33.4750 H   0  0  0  0  0  0  0  0  0  0  0  0
   29.9100   31.0780   33.4510 N   0  0  0  0  0  0  0  0  0  0  0  0
   29.7790   30.7410   32.4950 H   0  0  0  0  0  0  0  0  0  0  0  0
  1  6  1  0  0  0  0
  2  3  1  0  0  0  0
  2  1  2  0  0  0  0
  3  4  2  0  0  0  0
  4  9  1  0  0  0  0
  4  5  1  0  0  0  0
  5 10  1  0  0  0  0
  6  5  2  0  0  0  0
  7  2  1  0  0  0  0
  8  3  1  0  0  0  0
 10 15  1  0  0  0  0
 10 16  1  1  0  0  0
 10 11  1  0  0  0  0
 11 12  1  0  0  0  0
 12 20  1  0  0  0  0
 12 13  1  0  0  0  0
 12 19  1  0  0  0  0
 13 22  1  0  0  0  0
 14 24  1  0  0  0  0
 14 13  1  0  0  0  0
 15 25  1  6  0  0  0
 15 14  1  0  0  0  0
 17 11  1  0  0  0  0
 18 11  1  0  0  0  0
 21 13  1  0  0  0  0
 23 14  1  0  0  0  0
 26 27  1  0  0  0  0
 26 15  1  0  0  0  0
 28 33  2  0  0  0  0
 28 29  1  0  0  0  0
 29 30  2  0  0  0  0
 30 31  1  0  0  0  0
 30 34  1  0  0  0  0
 32  1  1  0  0  0  0
 32 31  2  0  0  0  0
 33 32  1  0  0  0  0
 34 37  1  0  0  0  0
 35 28  1  0  0  0  0
 36 34  1  0  0  0  0
 39 38  2  0  0  0  0
 39 40  1  0  0  0  0
 40 29  1  6  0  0  0
 41 40  1  0  0  0  0
 41 42  1  0  0  0  0
 43 41  1  0  0  0  0
 44 43  1  0  0  0  0
 45 43  1  0  0  0  0
 45 39  1  0  0  0  0
 46 45  1  0  0  0  0
M  END
>  <minimizedAffinity>
-6.23263025

$$$$

 OpenBabel03242514123D

 46 49  0  0  1  0  0  0  0  0999 V2000
   37.8240   29.9950   40.4340 C   0  0  0  0  0  0  0  0  0  0  0  0
   36.4880   30.3900   40.4910 C   0  0  0  0  0  0  0  0  0  0  0  0
   35.4190   29.5010   40.5200 C   0  0  0  0  0  0  0  0  0  0  0  0
   35.7980   28.1500   40.4860 C   0  0  0  0  0  0  0  0  0  0  0  0
   37.1480   27.7610   40.4280 C   0  0  0  0  0  0  0  0  0  0  0  0
   38.1260   28.6830   40.4030 N   0  0  0  0  0  0  0  0  0  0  0  0
   36.3020   31.4550   40.5140 H   0  0  0  0  0  0  0  0  0  0  0  0
   34.4110   29.8420   40.5640 H   0  0  0  0  0  0  0  0  0  0  0  0
   34.9340   27.5040   40.5090 H   0  0  0  0  0  0  0  0  0  0  0  0
   37.4690   26.3390   40.4160 C   0  0  1  0  0  0  0  0  0  0  0  0
   37.3180   25.7270   41.8690 C   0  0  0  0  0  0  0  0  0  0  0  0
   38.1100   24.3990   41.7400 C   0  0  0  0  0  0  0  0  0  0  0  0
   37.1750   23.5050   40.9190 C   0  0  0  0  0  0  0  0  0  0  0  0
   36.9840   24.0540   39.5550 C   0  0  0  0  0  0  0  0  0  0  0  0
   36.8190   25.5240   39.4350 C   0  0  2  0  0  0  0  0  0  0  0  0
   38.5940   26.2860   40.3170 H   0  0  0  0  0  0  0  0  0  0  0  0
   37.8390   26.3620   42.5860 H   0  0  0  0  0  0  0  0  0  0  0  0
   36.2510   25.5390   42.0720 H   0  0  0  0  0  0  0  0  0  0  0  0
   38.2350   23.9330   42.7210 H   0  0  0  0  0  0  0  0  0  0  0  0
   39.0370   24.6010   41.1980 H   0  0  0  0  0  0  0  0  0  0  0  0
   36.2520   23.3840   41.5030 H   0  0  0  0  0  0  0  0  0  0  0  0
   37.6740   22.5170   40.8710 H   0  0  0  0  0  0  0  0  0  0  0  0
   36.1290   23.5230   39.0850 H   0  0  0  0  0  0  0  0  0  0  0  0
   37.8680   23.6920   38.9540 H   0  0  0  0  0  0  0  0  0  0  0  0
   35.7000   25.7020   39.4620 H   0  0  0  0  0  0  0  0  0  0  0  0
   37.5270   25.9800   37.8180 S   0  0  0  0  0  0  0  0  0  0  0  0
   38.7980   26.5630   37.9540 H   0  0  0  0  0  0  0  0  0  0  0  0
   41.0150   31.7190   40.0580 C   0  0  0  0  0  0  0  0  0  0  0  0
   40.7430   33.0290   40.4420 C   0  0  0  0  0  0  0  0  0  0  0  0
   39.4500   33.2890   40.8260 C   0  0  0  0  0  0  0  0  0  0  0  0
   38.5330   32.2760   40.8090 N   0  0  0  0  0  0  0  0  0  0  0  0
   38.8700   30.9950   40.4170 C   0  0  0  0  0  0  0  0  0  0  0  0
   40.0760   30.7410   40.0550 N   0  0  0  0  0  0  0  0  0  0  0  0
   38.9810   34.5360   41.2410 N   0  0  0  0  0  0  0  0  0  0  0  0
   42.0270   31.4850   39.7500 H   0  0  0  0  0  0  0  0  0  0  0  0
   38.6850   34.8910   40.2910 H   0  0  0  0  0  0  0  0  0  0  0  0
   38.9040   35.0400   42.1510 H   0  0  0  0  0  0  0  0  0  0  0  0
   41.8540   34.5350   38.1730 O   0  0  0  0  0  0  0  0  0  0  0  0
   42.4940   34.1510   39.1930 C   0  0  0  0  0  0  0  0  0  0  0  0
   41.7530   34.1150   40.4540 C   0  0  2  0  0  3  0  0  0  0  0  0
   42.7760   33.8850   41.5450 C   0  0  0  0  0  3  0  0  0  0  0  0
   42.9030   34.8270   42.1280 H   0  0  0  0  0  0  0  0  0  0  0  0
   44.0770   33.5770   40.8420 C   0  0  0  0  0  3  0  0  0  0  0  0
   44.9080   34.2230   41.1540 H   0  0  0  0  0  0  0  0  0  0  0  0
   43.8230   33.7230   39.4370 N   0  0  0  0  0  0  0  0  0  0  0  0
   44.4730   33.5550   38.6670 H   0  0  0  0  0  0  0  0  0  0  0  0
  1  2  1  0  0  0  0
  2  7  1  0  0  0  0
  2  3  2  0  0  0  0
  3  8  1  0  0  0  0
  4  9  1  0  0  0  0
  4  3  1  0  0  0  0
  5  4  2  0  0  0  0
  6  5  1  0  0  0  0
  6  1  2  0  0  0  0
 10 16  1  6  0  0  0
 10  5  1  0  0  0  0
 10 11  1  0  0  0  0
 11 18  1  0  0  0  0
 11 17  1  0  0  0  0
 12 11  1  0  0  0  0
 12 19  1  0  0  0  0
 13 21  1  0  0  0  0
 13 12  1  0  0  0  0
 14 13  1  0  0  0  0
 15 25  1  6  0  0  0
 15 14  1  0  0  0  0
 15 10  1  0  0  0  0
 20 12  1  0  0  0  0
 22 13  1  0  0  0  0
 23 14  1  0  0  0  0
 24 14  1  0  0  0  0
 26 27  1  0  0  0  0
 26 15  1  0  0  0  0
 28 29  1  0  0  0  0
 29 30  2  0  0  0  0
 30 34  1  0  0  0  0
 31 30  1  0  0  0  0
 32  1  1  0  0  0  0
 32 31  2  0  0  0  0
 33 28  2  0  0  0  0
 33 32  1  0  0  0  0
 34 37  1  0  0  0  0
 35 28  1  0  0  0  0
 36 34  1  0  0  0  0
 38 39  2  0  0  0  0
 39 45  1  0  0  0  0
 39 40  1  0  0  0  0
 40 29  1  6  0  0  0
 40 41  1  0  0  0  0
 41 42  1  0  0  0  0
 43 44  1  0  0  0  0
 43 41  1  0  0  0  0
 45 43  1  0  0  0  0
 46 45  1  0  0  0  0
M  END
>  <minimizedAffinity>
-6.12802362

$$$$

 OpenBabel03242514123D

 46 49  0  0  1  0  0  0  0  0999 V2000
   37.1740   26.5880   40.7880 C   0  0  0  0  0  0  0  0  0  0  0  0
   37.1820   25.9080   42.0050 C   0  0  0  0  0  0  0  0  0  0  0  0
   36.8690   24.5600   42.1430 C   0  0  0  0  0  0  0  0  0  0  0  0
   36.5360   23.9260   40.9360 C   0  0  0  0  0  0  0  0  0  0  0  0
   36.5290   24.6180   39.7130 C   0  0  0  0  0  0  0  0  0  0  0  0
   36.8450   25.9250   39.6630 N   0  0  0  0  0  0  0  0  0  0  0  0
   37.4530   26.4890   42.8770 H   0  0  0  0  0  0  0  0  0  0  0  0
   36.8870   24.0770   43.0910 H   0  0  0  0  0  0  0  0  0  0  0  0
   36.3000   22.8850   41.0970 H   0  0  0  0  0  0  0  0  0  0  0  0
   36.1930   23.8900   38.4950 C   0  0  1  0  0  0  0  0  0  0  0  0
   34.6810   24.1500   38.0960 C   0  0  0  0  0  0  0  0  0  0  0  0
   34.4080   22.9880   37.1060 C   0  0  0  0  0  0  0  0  0  0  0  0
   35.1510   23.4180   35.8370 C   0  0  0  0  0  0  0  0  0  0  0  0
   36.6130   23.4760   36.0770 C   0  0  0  0  0  0  0  0  0  0  0  0
   37.0640   24.0450   37.3700 C   0  0  2  0  0  0  0  0  0  0  0  0
   36.1100   22.8060   38.8070 H   0  0  0  0  0  0  0  0  0  0  0  0
   34.0460   24.0060   38.9700 H   0  0  0  0  0  0  0  0  0  0  0  0
   34.6050   25.1290   37.5960 H   0  0  0  0  0  0  0  0  0  0  0  0
   33.3440   22.9360   36.8640 H   0  0  0  0  0  0  0  0  0  0  0  0
   34.8360   22.0720   37.5210 H   0  0  0  0  0  0  0  0  0  0  0  0
   34.6990   24.3640   35.5050 H   0  0  0  0  0  0  0  0  0  0  0  0
   34.9150   22.6480   35.0780 H   0  0  0  0  0  0  0  0  0  0  0  0
   37.0820   24.0140   35.2260 H   0  0  0  0  0  0  0  0  0  0  0  0
   36.9860   22.4190   35.9440 H   0  0  0  0  0  0  0  0  0  0  0  0
   37.2430   25.1460   37.1670 H   0  0  0  0  0  0  0  0  0  0  0  0
   38.6170   23.1860   37.7850 S   0  0  0  0  0  0  0  0  0  0  0  0
   38.4210   22.2060   38.7730 H   0  0  0  0  0  0  0  0  0  0  0  0
   38.9740   29.7370   40.4230 C   0  0  0  0  0  0  0  0  0  0  0  0
   38.0190   30.7100   40.7040 C   0  0  0  0  0  0  0  0  0  0  0  0
   36.7620   30.2520   41.0180 C   0  0  0  0  0  0  0  0  0  0  0  0
   36.5300   28.9060   41.0340 N   0  0  0  0  0  0  0  0  0  0  0  0
   37.5240   27.9900   40.7440 C   0  0  0  0  0  0  0  0  0  0  0  0
   38.7030   28.4090   40.4490 N   0  0  0  0  0  0  0  0  0  0  0  0
   35.6740   31.0670   41.3270 N   0  0  0  0  0  0  0  0  0  0  0  0
   39.9730   30.0700   40.1730 H   0  0  0  0  0  0  0  0  0  0  0  0
   35.3020   31.1730   40.3430 H   0  0  0  0  0  0  0  0  0  0  0  0
   35.2760   31.4850   42.1950 H   0  0  0  0  0  0  0  0  0  0  0  0
   36.9840   32.7500   38.8540 O   0  0  0  0  0  0  0  0  0  0  0  0
   38.1550   32.7040   39.3280 C   0  0  0  0  0  0  0  0  0  0  0  0
   38.2920   32.1680   40.6830 C   0  0  2  0  0  3  0  0  0  0  0  0
   39.7130   32.4560   41.1150 C   0  0  0  0  0  3  0  0  0  0  0  0
   39.7030   33.2640   41.8840 H   0  0  0  0  0  0  0  0  0  0  0  0
   40.4300   32.9700   39.8890 C   0  0  0  0  0  3  0  0  0  0  0  0
   40.9190   33.9400   40.0410 H   0  0  0  0  0  0  0  0  0  0  0  0
   39.4410   33.0600   38.8510 N   0  0  0  0  0  0  0  0  0  0  0  0
   39.5860   33.3370   37.8780 H   0  0  0  0  0  0  0  0  0  0  0  0
  1  2  1  0  0  0  0
  2  3  2  0  0  0  0
  2  7  1  0  0  0  0
  3  8  1  0  0  0  0
  4  9  1  0  0  0  0
  4  3  1  0  0  0  0
  5  4  2  0  0  0  0
  6  5  1  0  0  0  0
  6  1  2  0  0  0  0
 10 16  1  1  0  0  0
 10  5  1  0  0  0  0
 11 10  1  0  0  0  0
 11 17  1  0  0  0  0
 12 20  1  0  0  0  0
 12 11  1  0  0  0  0
 13 14  1  0  0  0  0
 13 12  1  0  0  0  0
 14 15  1  0  0  0  0
 15 25  1  6  0  0  0
 15 26  1  0  0  0  0
 15 10  1  0  0  0  0
 18 11  1  0  0  0  0
 19 12  1  0  0  0  0
 21 13  1  0  0  0  0
 22 13  1  0  0  0  0
 23 14  1  0  0  0  0
 24 14  1  0  0  0  0
 26 27  1  0  0  0  0
 28 33  2  0  0  0  0
 28 29  1  0  0  0  0
 29 30  2  0  0  0  0
 30 31  1  0  0  0  0
 30 34  1  0  0  0  0
 32  1  1  0  0  0  0
 32 31  2  0  0  0  0
 33 32  1  0  0  0  0
 34 37  1  0  0  0  0
 35 28  1  0  0  0  0
 36 34  1  0  0  0  0
 38 39  2  0  0  0  0
 39 40  1  0  0  0  0
 40 29  1  6  0  0  0
 40 41  1  0  0  0  0
 41 42  1  0  0  0  0
 43 44  1  0  0  0  0
 43 41  1  0  0  0  0
 45 39  1  0  0  0  0
 45 43  1  0  0  0  0
 46 45  1  0  0  0  0
M  END
>  <minimizedAffinity>
-6.07965803

$$$$

 OpenBabel03242514123D

 46 49  0  0  1  0  0  0  0  0999 V2000
   34.9600   28.9110   37.4750 C   0  0  0  0  0  0  0  0  0  0  0  0
   35.7770   29.1770   36.3760 C   0  0  0  0  0  0  0  0  0  0  0  0
   35.3090   29.2850   35.0710 C   0  0  0  0  0  0  0  0  0  0  0  0
   33.9240   29.1000   34.9440 C   0  0  0  0  0  0  0  0  0  0  0  0
   33.1070   28.8320   36.0570 C   0  0  0  0  0  0  0  0  0  0  0  0
   33.6370   28.7430   37.2900 N   0  0  0  0  0  0  0  0  0  0  0  0
   36.8310   29.3040   36.5820 H   0  0  0  0  0  0  0  0  0  0  0  0
   35.9660   29.4890   34.2580 H   0  0  0  0  0  0  0  0  0  0  0  0
   33.6130   29.1910   33.9140 H   0  0  0  0  0  0  0  0  0  0  0  0
   31.6730   28.6710   35.8520 C   0  0  1  0  0  0  0  0  0  0  0  0
   31.2930   27.1340   35.7920 C   0  0  0  0  0  0  0  0  0  0  0  0
   29.8870   27.1770   35.1390 C   0  0  0  0  0  0  0  0  0  0  0  0
   28.9840   27.6850   36.2690 C   0  0  0  0  0  0  0  0  0  0  0  0
   29.3500   29.0700   36.6540 C   0  0  0  0  0  0  0  0  0  0  0  0
   30.7960   29.3920   36.7240 C   0  0  2  0  0  0  0  0  0  0  0  0
   31.4910   28.9410   34.7690 H   0  0  0  0  0  0  0  0  0  0  0  0
   31.9670   26.6200   35.1070 H   0  0  0  0  0  0  0  0  0  0  0  0
   31.2460   26.7340   36.8180 H   0  0  0  0  0  0  0  0  0  0  0  0
   29.5550   26.1690   34.8800 H   0  0  0  0  0  0  0  0  0  0  0  0
   29.9120   27.8870   34.3090 H   0  0  0  0  0  0  0  0  0  0  0  0
   29.0440   26.9480   37.0830 H   0  0  0  0  0  0  0  0  0  0  0  0
   27.9540   27.6560   35.8640 H   0  0  0  0  0  0  0  0  0  0  0  0
   28.8480   29.3050   37.6160 H   0  0  0  0  0  0  0  0  0  0  0  0
   28.8170   29.7410   35.9190 H   0  0  0  0  0  0  0  0  0  0  0  0
   31.0910   29.2130   37.8050 H   0  0  0  0  0  0  0  0  0  0  0  0
   30.9420   31.1530   36.2790 S   0  0  0  0  0  0  0  0  0  0  0  0
   31.4060   31.3190   34.9620 H   0  0  0  0  0  0  0  0  0  0  0  0
   36.6410   27.7490   40.4940 C   0  0  0  0  0  0  0  0  0  0  0  0
   36.5910   28.8420   41.3540 C   0  0  0  0  0  0  0  0  0  0  0  0
   35.9720   29.9670   40.8670 C   0  0  0  0  0  0  0  0  0  0  0  0
   35.4550   29.9480   39.6030 N   0  0  0  0  0  0  0  0  0  0  0  0
   35.5380   28.8270   38.7980 C   0  0  0  0  0  0  0  0  0  0  0  0
   36.1150   27.7700   39.2440 N   0  0  0  0  0  0  0  0  0  0  0  0
   35.8240   31.1610   41.5740 N   0  0  0  0  0  0  0  0  0  0  0  0
   37.1230   26.8480   40.8520 H   0  0  0  0  0  0  0  0  0  0  0  0
   36.7240   31.6170   41.2560 H   0  0  0  0  0  0  0  0  0  0  0  0
   35.1110   31.5640   42.2190 H   0  0  0  0  0  0  0  0  0  0  0  0
   38.8410   30.4110   42.4170 O   0  0  0  0  0  0  0  0  0  0  0  0
   38.5740   29.2100   42.7040 C   0  0  0  0  0  0  0  0  0  0  0  0
   37.1580   28.8420   42.7250 C   0  0  2  0  0  3  0  0  0  0  0  0
   37.0830   27.4610   43.3380 C   0  0  0  0  0  3  0  0  0  0  0  0
   36.6500   27.5410   44.3630 H   0  0  0  0  0  0  0  0  0  0  0  0
   38.5090   26.9770   43.4580 C   0  0  0  0  0  3  0  0  0  0  0  0
   38.7810   26.6590   44.4730 H   0  0  0  0  0  0  0  0  0  0  0  0
   39.3430   28.0650   43.0290 N   0  0  0  0  0  0  0  0  0  0  0  0
   40.3610   28.0710   42.9470 H   0  0  0  0  0  0  0  0  0  0  0  0
  1 32  1  0  0  0  0
  2  7  1  0  0  0  0
  2  1  2  0  0  0  0
  3  2  1  0  0  0  0
  4  3  2  0  0  0  0
  4  5  1  0  0  0  0
  5  6  2  0  0  0  0
  6  1  1  0  0  0  0
  8  3  1  0  0  0  0
  9  4  1  0  0  0  0
 10 16  1  6  0  0  0
 10  5  1  0  0  0  0
 10 15  1  0  0  0  0
 11 10  1  0  0  0  0
 11 18  1  0  0  0  0
 12 11  1  0  0  0  0
 12 13  1  0  0  0  0
 13 14  1  0  0  0  0
 13 21  1  0  0  0  0
 14 15  1  0  0  0  0
 14 23  1  0  0  0  0
 15 25  1  1  0  0  0
 17 11  1  0  0  0  0
 19 12  1  0  0  0  0
 20 12  1  0  0  0  0
 22 13  1  0  0  0  0
 24 14  1  0  0  0  0
 26 15  1  0  0  0  0
 27 26  1  0  0  0  0
 28 35  1  0  0  0  0
 28 29  1  0  0  0  0
 30 29  2  0  0  0  0
 30 34  1  0  0  0  0
 31 30  1  0  0  0  0
 32 33  1  0  0  0  0
 32 31  2  0  0  0  0
 33 28  2  0  0  0  0
 34 37  1  0  0  0  0
 36 34  1  0  0  0  0
 38 39  2  0  0  0  0
 39 40  1  0  0  0  0
 39 45  1  0  0  0  0
 40 29  1  6  0  0  0
 40 41  1  0  0  0  0
 41 43  1  0  0  0  0
 41 42  1  0  0  0  0
 43 44  1  0  0  0  0
 45 43  1  0  0  0  0
 46 45  1  0  0  0  0
M  END
>  <minimizedAffinity>
-5.97144127

$$$$
