
 OpenBabel03252503583D

 20 21  0  0  1  0  0  0  0  0999 V2000
   39.0310   28.7970   42.5050 C   0  0  0  0  0  0  0  0  0  0  0  0
   37.9870   29.0080   43.4220 C   0  0  0  0  0  0  0  0  0  0  0  0
   37.0730   27.9660   43.5900 C   0  0  0  0  0  0  0  0  0  0  0  0
   37.2420   26.8190   42.8630 N   0  0  0  0  0  0  0  0  0  0  0  0
   38.2640   26.6740   41.9970 C   0  0  0  0  0  0  0  0  0  0  0  0
   39.1520   27.6570   41.8200 N   0  0  0  0  0  0  0  0  0  0  0  0
   37.8290   29.8900   44.0030 H   0  0  0  0  0  0  0  0  0  0  0  0
   36.2440   28.0420   44.2720 H   0  0  0  0  0  0  0  0  0  0  0  0
   39.6130   24.2260   43.1750 O   0  0  0  0  0  0  0  0  0  0  0  0
   38.8950   24.2980   42.1270 C   0  0  0  0  0  0  0  0  0  0  0  0
   38.3050   25.3670   41.2860 C   0  0  1  0  0  3  0  0  0  0  0  0
   36.9630   24.8130   40.9490 C   0  0  0  0  0  3  0  0  0  0  0  0
   36.6250   25.2940   39.9970 H   0  0  0  0  0  0  0  0  0  0  0  0
   37.2420   23.3400   40.7570 C   0  0  0  0  0  3  0  0  0  0  0  0
   36.4020   22.7230   41.1400 H   0  0  0  0  0  0  0  0  0  0  0  0
   38.4730   23.1000   41.4820 N   0  0  0  0  0  0  0  0  0  0  0  0
   38.8670   22.1140   41.4330 H   0  0  0  0  0  0  0  0  0  0  0  0
   39.9290   29.8990   42.3830 C   0  0  0  0  0  0  0  0  0  0  0  0
   39.7880   31.0560   42.8900 O   0  0  0  0  0  0  0  0  0  0  0  0
   40.8760   30.0200   41.8700 H   0  0  0  0  0  0  0  0  0  0  0  0
  1  2  1  0  0  0  0
  2  3  2  0  0  0  0
  2  7  1  0  0  0  0
  3  8  1  0  0  0  0
  4  3  1  0  0  0  0
  5  4  2  0  0  0  0
  6  5  1  0  0  0  0
  6  1  2  0  0  0  0
 10  9  2  0  0  0  0
 11  5  1  1  0  0  0
 11 10  1  0  0  0  0
 12 11  1  0  0  0  0
 13 12  1  0  0  0  0
 14 12  1  0  0  0  0
 14 15  1  0  0  0  0
 14 16  1  0  0  0  0
 16 10  1  0  0  0  0
 17 16  1  0  0  0  0
 18  1  1  0  0  0  0
 18 19  2  0  0  0  0
 20 18  1  0  0  0  0
M  END
>  <minimizedAffinity>
-4.13515186

$$$$

 OpenBabel03252503583D

 20 21  0  0  1  0  0  0  0  0999 V2000
   36.1450   29.7170   38.0590 C   0  0  0  0  0  0  0  0  0  0  0  0
   35.3180   28.8970   38.8460 C   0  0  0  0  0  0  0  0  0  0  0  0
   35.1770   29.2430   40.1900 C   0  0  0  0  0  0  0  0  0  0  0  0
   35.8440   30.3430   40.6590 N   0  0  0  0  0  0  0  0  0  0  0  0
   36.6240   31.0930   39.8570 C   0  0  0  0  0  0  0  0  0  0  0  0
   36.7730   30.7810   38.5660 N   0  0  0  0  0  0  0  0  0  0  0  0
   34.7850   28.0330   38.5090 H   0  0  0  0  0  0  0  0  0  0  0  0
   34.5630   28.6710   40.8640 H   0  0  0  0  0  0  0  0  0  0  0  0
   39.2850   30.8560   41.2960 O   0  0  0  0  0  0  0  0  0  0  0  0
   38.6280   31.9140   41.0300 C   0  0  0  0  0  0  0  0  0  0  0  0
   37.2770   32.2540   40.5220 C   0  0  1  0  0  3  0  0  0  0  0  0
   37.5500   33.4030   39.6130 C   0  0  0  0  0  3  0  0  0  0  0  0
   36.6120   34.0060   39.5330 H   0  0  0  0  0  0  0  0  0  0  0  0
   38.6360   34.1610   40.3420 C   0  0  0  0  0  3  0  0  0  0  0  0
   39.3710   34.5870   39.6280 H   0  0  0  0  0  0  0  0  0  0  0  0
   39.2350   33.1860   41.2300 N   0  0  0  0  0  0  0  0  0  0  0  0
   40.0060   33.5400   41.8720 H   0  0  0  0  0  0  0  0  0  0  0  0
   36.2430   29.3070   36.6960 C   0  0  0  0  0  0  0  0  0  0  0  0
   36.5720   30.0320   35.7050 O   0  0  0  0  0  0  0  0  0  0  0  0
   36.0770   28.3570   36.2030 H   0  0  0  0  0  0  0  0  0  0  0  0
  1  6  2  0  0  0  0
  1  2  1  0  0  0  0
  2  3  2  0  0  0  0
  3  4  1  0  0  0  0
  3  8  1  0  0  0  0
  5  4  2  0  0  0  0
  6  5  1  0  0  0  0
  7  2  1  0  0  0  0
 10 16  1  0  0  0  0
 10  9  2  0  0  0  0
 11  5  1  6  0  0  0
 11 10  1  0  0  0  0
 12 14  1  0  0  0  0
 12 11  1  0  0  0  0
 13 12  1  0  0  0  0
 14 16  1  0  0  0  0
 15 14  1  0  0  0  0
 16 17  1  0  0  0  0
 18  1  1  0  0  0  0
 19 18  2  0  0  0  0
 20 18  1  0  0  0  0
M  END
>  <minimizedAffinity>
-4.13230467

$$$$

 OpenBabel03252503583D

 20 21  0  0  1  0  0  0  0  0999 V2000
   37.3690   26.8310   41.6720 C   0  0  0  0  0  0  0  0  0  0  0  0
   37.0610   26.8920   43.0420 C   0  0  0  0  0  0  0  0  0  0  0  0
   37.2480   28.1190   43.6790 C   0  0  0  0  0  0  0  0  0  0  0  0
   37.7150   29.1760   42.9460 N   0  0  0  0  0  0  0  0  0  0  0  0
   37.9940   29.0580   41.6330 C   0  0  0  0  0  0  0  0  0  0  0  0
   37.8220   27.8930   41.0010 N   0  0  0  0  0  0  0  0  0  0  0  0
   36.6960   26.0850   43.6410 H   0  0  0  0  0  0  0  0  0  0  0  0
   37.0370   28.2550   44.7250 H   0  0  0  0  0  0  0  0  0  0  0  0
   36.1310   31.2660   40.7060 O   0  0  0  0  0  0  0  0  0  0  0  0
   37.4030   31.2800   40.7510 C   0  0  0  0  0  0  0  0  0  0  0  0
   38.4920   30.3010   40.9820 C   0  0  1  0  0  3  0  0  0  0  0  0
   39.4590   31.0780   41.8080 C   0  0  0  0  0  3  0  0  0  0  0  0
   40.4710   30.6250   41.6650 H   0  0  0  0  0  0  0  0  0  0  0  0
   39.3820   32.4630   41.2090 C   0  0  0  0  0  3  0  0  0  0  0  0
   39.4690   33.2420   41.9940 H   0  0  0  0  0  0  0  0  0  0  0  0
   38.0990   32.5040   40.5370 N   0  0  0  0  0  0  0  0  0  0  0  0
   37.8690   33.3970   40.0060 H   0  0  0  0  0  0  0  0  0  0  0  0
   37.1540   25.5490   41.0840 C   0  0  0  0  0  0  0  0  0  0  0  0
   36.7820   24.4900   41.6810 O   0  0  0  0  0  0  0  0  0  0  0  0
   37.2460   25.1840   40.0680 H   0  0  0  0  0  0  0  0  0  0  0  0
  1  2  1  0  0  0  0
  2  7  1  0  0  0  0
  2  3  2  0  0  0  0
  3  8  1  0  0  0  0
  4  3  1  0  0  0  0
  5  4  2  0  0  0  0
  6  5  1  0  0  0  0
  6  1  2  0  0  0  0
  9 10  2  0  0  0  0
 10 11  1  0  0  0  0
 11  5  1  1  0  0  0
 11 12  1  0  0  0  0
 13 12  1  0  0  0  0
 14 12  1  0  0  0  0
 14 15  1  0  0  0  0
 16 10  1  0  0  0  0
 16 14  1  0  0  0  0
 17 16  1  0  0  0  0
 18  1  1  0  0  0  0
 18 19  2  0  0  0  0
 20 18  1  0  0  0  0
M  END
>  <minimizedAffinity>
-3.95829535

$$$$

 OpenBabel03252503583D

 20 21  0  0  1  0  0  0  0  0999 V2000
   39.1790   31.1920   39.2720 C   0  0  0  0  0  0  0  0  0  0  0  0
   38.3810   32.2490   38.7990 C   0  0  0  0  0  0  0  0  0  0  0  0
   37.1660   32.4630   39.4500 C   0  0  0  0  0  0  0  0  0  0  0  0
   36.8240   31.6450   40.4930 N   0  0  0  0  0  0  0  0  0  0  0  0
   37.6310   30.6470   40.9020 C   0  0  0  0  0  0  0  0  0  0  0  0
   38.8000   30.4220   40.2950 N   0  0  0  0  0  0  0  0  0  0  0  0
   38.6200   32.9030   37.9890 H   0  0  0  0  0  0  0  0  0  0  0  0
   36.4940   33.2500   39.1550 H   0  0  0  0  0  0  0  0  0  0  0  0
   35.9610   28.1430   40.5210 O   0  0  0  0  0  0  0  0  0  0  0  0
   36.4480   28.6030   41.6030 C   0  0  0  0  0  0  0  0  0  0  0  0
   37.1130   29.8510   42.0490 C   0  0  1  0  0  3  0  0  0  0  0  0
   38.1720   29.3460   42.9680 C   0  0  0  0  0  3  0  0  0  0  0  0
   38.4250   30.1680   43.6830 H   0  0  0  0  0  0  0  0  0  0  0  0
   37.4910   28.1930   43.6690 C   0  0  0  0  0  3  0  0  0  0  0  0
   38.2020   27.3600   43.8490 H   0  0  0  0  0  0  0  0  0  0  0  0
   36.4100   27.8090   42.7840 N   0  0  0  0  0  0  0  0  0  0  0  0
   35.7730   27.0280   43.1240 H   0  0  0  0  0  0  0  0  0  0  0  0
   40.4070   31.0290   38.5640 C   0  0  0  0  0  0  0  0  0  0  0  0
   40.7550   31.6240   37.4960 O   0  0  0  0  0  0  0  0  0  0  0  0
   41.2780   30.4090   38.7410 H   0  0  0  0  0  0  0  0  0  0  0  0
  1  6  1  0  0  0  0
  2  1  2  0  0  0  0
  2  3  1  0  0  0  0
  3  4  2  0  0  0  0
  4  5  1  0  0  0  0
  6  5  2  0  0  0  0
  7  2  1  0  0  0  0
  8  3  1  0  0  0  0
  9 10  2  0  0  0  0
 10 11  1  0  0  0  0
 10 16  1  0  0  0  0
 11  5  1  6  0  0  0
 11 12  1  0  0  0  0
 12 14  1  0  0  0  0
 12 13  1  0  0  0  0
 14 15  1  0  0  0  0
 16 17  1  0  0  0  0
 16 14  1  0  0  0  0
 18 20  1  0  0  0  0
 18  1  1  0  0  0  0
 19 18  2  0  0  0  0
M  END
>  <minimizedAffinity>
-3.93467164

$$$$

 OpenBabel03252503583D

 20 21  0  0  1  0  0  0  0  0999 V2000
   39.3450   25.3620   40.9270 C   0  0  0  0  0  0  0  0  0  0  0  0
   38.8740   24.1870   41.5400 C   0  0  0  0  0  0  0  0  0  0  0  0
   37.6510   24.2680   42.2070 C   0  0  0  0  0  0  0  0  0  0  0  0
   36.9920   25.4680   42.2280 N   0  0  0  0  0  0  0  0  0  0  0  0
   37.4940   26.5620   41.6230 C   0  0  0  0  0  0  0  0  0  0  0  0
   38.6630   26.5080   40.9770 N   0  0  0  0  0  0  0  0  0  0  0  0
   39.3660   23.2380   41.5400 H   0  0  0  0  0  0  0  0  0  0  0  0
   37.2170   23.4180   42.7020 H   0  0  0  0  0  0  0  0  0  0  0  0
   38.2440   28.8840   43.4250 O   0  0  0  0  0  0  0  0  0  0  0  0
   37.3020   28.8260   42.5700 C   0  0  0  0  0  0  0  0  0  0  0  0
   36.6530   27.7850   41.7390 C   0  0  1  0  0  3  0  0  0  0  0  0
   36.4250   28.4930   40.4480 C   0  0  0  0  0  3  0  0  0  0  0  0
   35.5750   27.9870   39.9260 H   0  0  0  0  0  0  0  0  0  0  0  0
   36.0510   29.8900   40.8880 C   0  0  0  0  0  3  0  0  0  0  0  0
   36.4670   30.6510   40.1960 H   0  0  0  0  0  0  0  0  0  0  0  0
   36.5940   30.0130   42.2260 N   0  0  0  0  0  0  0  0  0  0  0  0
   36.3970   30.9250   42.7360 H   0  0  0  0  0  0  0  0  0  0  0  0
   40.5990   25.2090   40.2630 C   0  0  0  0  0  0  0  0  0  0  0  0
   41.7490   25.1880   40.8030 O   0  0  0  0  0  0  0  0  0  0  0  0
   40.8650   25.0820   39.2200 H   0  0  0  0  0  0  0  0  0  0  0  0
  1  6  2  0  0  0  0
  1  2  1  0  0  0  0
  2  7  1  0  0  0  0
  2  3  2  0  0  0  0
  3  4  1  0  0  0  0
  3  8  1  0  0  0  0
  5  4  2  0  0  0  0
  6  5  1  0  0  0  0
 10  9  2  0  0  0  0
 11  5  1  6  0  0  0
 11 10  1  0  0  0  0
 12 14  1  0  0  0  0
 12 11  1  0  0  0  0
 13 12  1  0  0  0  0
 14 16  1  0  0  0  0
 15 14  1  0  0  0  0
 16 10  1  0  0  0  0
 16 17  1  0  0  0  0
 18 19  2  0  0  0  0
 18  1  1  0  0  0  0
 20 18  1  0  0  0  0
M  END
>  <minimizedAffinity>
-3.92157078

$$$$

 OpenBabel03252503583D

 20 21  0  0  1  0  0  0  0  0999 V2000
   36.2480   25.0690   39.1590 C   0  0  0  0  0  0  0  0  0  0  0  0
   36.2810   23.8940   39.9300 C   0  0  0  0  0  0  0  0  0  0  0  0
   36.7390   24.0110   41.2430 C   0  0  0  0  0  0  0  0  0  0  0  0
   37.1260   25.2430   41.6970 N   0  0  0  0  0  0  0  0  0  0  0  0
   37.0730   26.3350   40.9110 C   0  0  0  0  0  0  0  0  0  0  0  0
   36.6370   26.2480   39.6500 N   0  0  0  0  0  0  0  0  0  0  0  0
   35.9860   22.9200   39.6030 H   0  0  0  0  0  0  0  0  0  0  0  0
   36.7960   23.1630   41.9030 H   0  0  0  0  0  0  0  0  0  0  0  0
   35.3520   28.8330   40.9950 O   0  0  0  0  0  0  0  0  0  0  0  0
   36.4590   28.6220   41.5880 C   0  0  0  0  0  0  0  0  0  0  0  0
   37.5290   27.5970   41.5570 C   0  0  1  0  0  3  0  0  0  0  0  0
   37.8840   27.4520   42.9970 C   0  0  0  0  0  3  0  0  0  0  0  0
   38.9340   27.0700   43.0530 H   0  0  0  0  0  0  0  0  0  0  0  0
   37.7800   28.8670   43.5160 C   0  0  0  0  0  3  0  0  0  0  0  0
   37.3720   28.8830   44.5480 H   0  0  0  0  0  0  0  0  0  0  0  0
   36.9130   29.5440   42.5740 N   0  0  0  0  0  0  0  0  0  0  0  0
   36.7460   30.5810   42.7420 H   0  0  0  0  0  0  0  0  0  0  0  0
   35.7700   24.8790   37.8280 C   0  0  0  0  0  0  0  0  0  0  0  0
   34.6450   24.3970   37.4850 O   0  0  0  0  0  0  0  0  0  0  0  0
   36.2060   25.0800   36.8570 H   0  0  0  0  0  0  0  0  0  0  0  0
  1  6  2  0  0  0  0
  1  2  1  0  0  0  0
  2  3  2  0  0  0  0
  3  4  1  0  0  0  0
  3  8  1  0  0  0  0
  5  4  2  0  0  0  0
  6  5  1  0  0  0  0
  7  2  1  0  0  0  0
  9 10  2  0  0  0  0
 10 16  1  0  0  0  0
 11  5  1  1  0  0  0
 11 10  1  0  0  0  0
 11 12  1  0  0  0  0
 12 13  1  0  0  0  0
 12 14  1  0  0  0  0
 14 15  1  0  0  0  0
 16 17  1  0  0  0  0
 16 14  1  0  0  0  0
 18  1  1  0  0  0  0
 19 18  2  0  0  0  0
 20 18  1  0  0  0  0
M  END
>  <minimizedAffinity>
-3.901685

$$$$

 OpenBabel03252503583D

 20 21  0  0  1  0  0  0  0  0999 V2000
   38.0740   29.0130   41.4220 C   0  0  0  0  0  0  0  0  0  0  0  0
   38.5640   29.7160   42.5370 C   0  0  0  0  0  0  0  0  0  0  0  0
   39.4520   30.7630   42.2840 C   0  0  0  0  0  0  0  0  0  0  0  0
   39.7920   31.0380   40.9870 N   0  0  0  0  0  0  0  0  0  0  0  0
   39.2900   30.3280   39.9580 C   0  0  0  0  0  0  0  0  0  0  0  0
   38.4370   29.3220   40.1750 N   0  0  0  0  0  0  0  0  0  0  0  0
   38.3170   29.5250   43.5590 H   0  0  0  0  0  0  0  0  0  0  0  0
   39.8740   31.3540   43.0770 H   0  0  0  0  0  0  0  0  0  0  0  0
   37.5750   31.9970   38.0930 O   0  0  0  0  0  0  0  0  0  0  0  0
   38.7990   31.6740   37.9560 C   0  0  0  0  0  0  0  0  0  0  0  0
   39.7590   30.7560   38.6110 C   0  0  1  0  0  3  0  0  0  0  0  0
   41.0160   31.5560   38.6290 C   0  0  0  0  0  3  0  0  0  0  0  0
   41.8750   30.8420   38.6760 H   0  0  0  0  0  0  0  0  0  0  0  0
   40.9730   32.2840   37.3050 C   0  0  0  0  0  3  0  0  0  0  0  0
   41.3830   33.3110   37.4020 H   0  0  0  0  0  0  0  0  0  0  0  0
   39.5740   32.2860   36.9300 N   0  0  0  0  0  0  0  0  0  0  0  0
   39.3360   32.7220   35.9900 H   0  0  0  0  0  0  0  0  0  0  0  0
   37.1720   27.9580   41.7510 C   0  0  0  0  0  0  0  0  0  0  0  0
   36.5740   27.7850   42.8600 O   0  0  0  0  0  0  0  0  0  0  0  0
   36.7990   27.1100   41.1880 H   0  0  0  0  0  0  0  0  0  0  0  0
  1 18  1  0  0  0  0
  1  2  1  0  0  0  0
  2  7  1  0  0  0  0
  3  2  2  0  0  0  0
  3  8  1  0  0  0  0
  4  3  1  0  0  0  0
  5  6  1  0  0  0  0
  5  4  2  0  0  0  0
  6  1  2  0  0  0  0
 10  9  2  0  0  0  0
 10 11  1  0  0  0  0
 11 12  1  0  0  0  0
 11  5  1  1  0  0  0
 12 13  1  0  0  0  0
 14 15  1  0  0  0  0
 14 12  1  0  0  0  0
 16 14  1  0  0  0  0
 16 10  1  0  0  0  0
 17 16  1  0  0  0  0
 18 19  2  0  0  0  0
 20 18  1  0  0  0  0
M  END
>  <minimizedAffinity>
-3.88774824

$$$$

 OpenBabel03252503583D

 20 21  0  0  1  0  0  0  0  0999 V2000
   38.2770   27.5460   43.1000 C   0  0  0  0  0  0  0  0  0  0  0  0
   39.4500   27.0320   43.6800 C   0  0  0  0  0  0  0  0  0  0  0  0
   39.7410   25.6900   43.4350 C   0  0  0  0  0  0  0  0  0  0  0  0
   38.8800   24.9600   42.6600 N   0  0  0  0  0  0  0  0  0  0  0  0
   37.7680   25.5080   42.1310 C   0  0  0  0  0  0  0  0  0  0  0  0
   37.4690   26.7920   42.3510 N   0  0  0  0  0  0  0  0  0  0  0  0
   40.1410   27.5760   44.2880 H   0  0  0  0  0  0  0  0  0  0  0  0
   40.6180   25.2150   43.8390 H   0  0  0  0  0  0  0  0  0  0  0  0
   36.6290   26.2980   39.4330 O   0  0  0  0  0  0  0  0  0  0  0  0
   36.6220   25.1490   39.9810 C   0  0  0  0  0  0  0  0  0  0  0  0
   36.9390   24.5800   41.3130 C   0  0  1  0  0  3  0  0  0  0  0  0
   37.6180   23.3000   40.9670 C   0  0  0  0  0  3  0  0  0  0  0  0
   37.4980   22.6040   41.8350 H   0  0  0  0  0  0  0  0  0  0  0  0
   36.8430   22.8200   39.7620 C   0  0  0  0  0  3  0  0  0  0  0  0
   37.5150   22.3280   39.0270 H   0  0  0  0  0  0  0  0  0  0  0  0
   36.2220   24.0120   39.2230 N   0  0  0  0  0  0  0  0  0  0  0  0
   35.5870   23.8770   38.3810 H   0  0  0  0  0  0  0  0  0  0  0  0
   38.0400   28.9230   43.3890 C   0  0  0  0  0  0  0  0  0  0  0  0
   38.7900   29.9040   43.0860 O   0  0  0  0  0  0  0  0  0  0  0  0
   37.2320   29.4380   43.8960 H   0  0  0  0  0  0  0  0  0  0  0  0
  1 18  1  0  0  0  0
  1  2  1  0  0  0  0
  2  7  1  0  0  0  0
  3  2  2  0  0  0  0
  3  8  1  0  0  0  0
  4  3  1  0  0  0  0
  5  6  1  0  0  0  0
  5  4  2  0  0  0  0
  6  1  2  0  0  0  0
  9 10  2  0  0  0  0
 10 11  1  0  0  0  0
 11  5  1  6  0  0  0
 12 11  1  0  0  0  0
 12 13  1  0  0  0  0
 14 12  1  0  0  0  0
 15 14  1  0  0  0  0
 16 14  1  0  0  0  0
 16 10  1  0  0  0  0
 17 16  1  0  0  0  0
 18 20  1  0  0  0  0
 19 18  2  0  0  0  0
M  END
>  <minimizedAffinity>
-3.86972141

$$$$

 OpenBabel03252503583D

 20 21  0  0  1  0  0  0  0  0999 V2000
   37.6370   24.2990   40.4150 C   0  0  0  0  0  0  0  0  0  0  0  0
   38.5330   23.5870   41.2320 C   0  0  0  0  0  0  0  0  0  0  0  0
   39.1770   24.3050   42.2400 C   0  0  0  0  0  0  0  0  0  0  0  0
   38.9070   25.6410   42.3730 N   0  0  0  0  0  0  0  0  0  0  0  0
   38.0370   26.2700   41.5580 C   0  0  0  0  0  0  0  0  0  0  0  0
   37.4070   25.6030   40.5860 N   0  0  0  0  0  0  0  0  0  0  0  0
   38.7640   22.5470   41.1530 H   0  0  0  0  0  0  0  0  0  0  0  0
   39.8780   23.8400   42.9110 H   0  0  0  0  0  0  0  0  0  0  0  0
   36.1230   27.2910   43.6800 O   0  0  0  0  0  0  0  0  0  0  0  0
   36.9750   27.9560   43.0060 C   0  0  0  0  0  0  0  0  0  0  0  0
   37.8550   27.7220   41.8360 C   0  0  1  0  0  3  0  0  0  0  0  0
   39.1070   28.4310   42.2230 C   0  0  0  0  0  3  0  0  0  0  0  0
   39.6500   28.7020   41.2830 H   0  0  0  0  0  0  0  0  0  0  0  0
   38.5940   29.6580   42.9400 C   0  0  0  0  0  3  0  0  0  0  0  0
   39.2500   29.9220   43.7960 H   0  0  0  0  0  0  0  0  0  0  0  0
   37.2550   29.3050   43.3650 N   0  0  0  0  0  0  0  0  0  0  0  0
   36.6980   30.0640   43.8600 H   0  0  0  0  0  0  0  0  0  0  0  0
   37.0130   23.5060   39.4070 C   0  0  0  0  0  0  0  0  0  0  0  0
   35.7940   23.1480   39.3650 O   0  0  0  0  0  0  0  0  0  0  0  0
   37.3880   23.0470   38.4990 H   0  0  0  0  0  0  0  0  0  0  0  0
  1  6  2  0  0  0  0
  1  2  1  0  0  0  0
  2  3  2  0  0  0  0
  3  4  1  0  0  0  0
  3  8  1  0  0  0  0
  5  4  2  0  0  0  0
  6  5  1  0  0  0  0
  7  2  1  0  0  0  0
 10 16  1  0  0  0  0
 10  9  2  0  0  0  0
 11  5  1  1  0  0  0
 11 12  1  0  0  0  0
 11 10  1  0  0  0  0
 12 14  1  0  0  0  0
 13 12  1  0  0  0  0
 14 16  1  0  0  0  0
 14 15  1  0  0  0  0
 16 17  1  0  0  0  0
 18  1  1  0  0  0  0
 19 18  2  0  0  0  0
 20 18  1  0  0  0  0
M  END
>  <minimizedAffinity>
-3.85758591

$$$$
