
 OpenBabel03252500203D

 20 21  0  0  1  0  0  0  0  0999 V2000
   40.2620   33.2730   40.3760 C   0  0  0  0  0  0  0  0  0  0  0  0
   39.6890   32.2340   41.1100 C   0  0  0  0  0  0  0  0  0  0  0  0
   39.1660   31.1620   40.3770 C   0  0  0  0  0  0  0  0  0  0  0  0
   39.2380   31.1790   39.0110 N   0  0  0  0  0  0  0  0  0  0  0  0
   39.8050   32.2140   38.3600 C   0  0  0  0  0  0  0  0  0  0  0  0
   40.3240   33.2740   39.0500 N   0  0  0  0  0  0  0  0  0  0  0  0
   39.8920   32.2530   36.9340 N   0  0  0  0  0  0  0  0  0  0  0  0
   40.6740   34.1140   40.9220 H   0  0  0  0  0  0  0  0  0  0  0  0
   39.6240   32.2050   42.1890 H   0  0  0  0  0  0  0  0  0  0  0  0
   40.4380   31.4210   36.6050 H   0  0  0  0  0  0  0  0  0  0  0  0
   39.4850   32.9800   36.2960 H   0  0  0  0  0  0  0  0  0  0  0  0
   36.1770   31.0840   41.1330 O   0  0  0  0  0  0  0  0  0  0  0  0
   37.1470   30.3280   41.4500 C   0  0  0  0  0  0  0  0  0  0  0  0
   38.5260   29.9870   41.0130 C   0  0  2  0  0  3  0  0  0  0  0  0
   39.2140   29.5770   42.2880 C   0  0  0  0  0  3  0  0  0  0  0  0
   39.8120   30.4220   42.7180 H   0  0  0  0  0  0  0  0  0  0  0  0
   38.1450   29.1240   43.2350 C   0  0  0  0  0  3  0  0  0  0  0  0
   38.1810   29.6540   44.2160 H   0  0  0  0  0  0  0  0  0  0  0  0
   36.8890   29.5060   42.6050 N   0  0  0  0  0  0  0  0  0  0  0  0
   36.0180   29.1330   43.0770 H   0  0  0  0  0  0  0  0  0  0  0  0
  1  8  1  0  0  0  0
  1  2  1  0  0  0  0
  2  9  1  0  0  0  0
  3  2  2  0  0  0  0
  4  3  1  0  0  0  0
  5  4  2  0  0  0  0
  5  6  1  0  0  0  0
  6  1  2  0  0  0  0
  7  5  1  0  0  0  0
 10  7  1  0  0  0  0
 11  7  1  0  0  0  0
 12 13  2  0  0  0  0
 13 19  1  0  0  0  0
 14  3  1  1  0  0  0
 14 13  1  0  0  0  0
 14 15  1  0  0  0  0
 15 16  1  0  0  0  0
 15 17  1  0  0  0  0
 17 18  1  0  0  0  0
 19 20  1  0  0  0  0
 19 17  1  0  0  0  0
M  END
>  <minimizedAffinity>
-4.59085274

$$$$

 OpenBabel03252500203D

 20 21  0  0  1  0  0  0  0  0999 V2000
   36.2300   27.9090   39.2980 C   0  0  0  0  0  0  0  0  0  0  0  0
   36.7600   26.9650   40.1780 C   0  0  0  0  0  0  0  0  0  0  0  0
   36.9250   27.3690   41.5080 C   0  0  0  0  0  0  0  0  0  0  0  0
   36.5680   28.6370   41.8770 N   0  0  0  0  0  0  0  0  0  0  0  0
   36.0610   29.5040   40.9780 C   0  0  0  0  0  0  0  0  0  0  0  0
   35.8890   29.1360   39.6730 N   0  0  0  0  0  0  0  0  0  0  0  0
   35.6810   30.8330   41.3420 N   0  0  0  0  0  0  0  0  0  0  0  0
   36.0940   27.6190   38.2630 H   0  0  0  0  0  0  0  0  0  0  0  0
   37.0470   25.9590   39.9030 H   0  0  0  0  0  0  0  0  0  0  0  0
   34.9440   30.7830   42.0850 H   0  0  0  0  0  0  0  0  0  0  0  0
   36.0610   31.7280   40.9480 H   0  0  0  0  0  0  0  0  0  0  0  0
   39.5850   27.9370   42.9600 O   0  0  0  0  0  0  0  0  0  0  0  0
   38.8580   26.8980   42.9090 C   0  0  0  0  0  0  0  0  0  0  0  0
   37.4750   26.4810   42.5580 C   0  0  2  0  0  3  0  0  0  0  0  0
   37.6390   25.0610   42.0840 C   0  0  0  0  0  3  0  0  0  0  0  0
   37.6860   25.0090   40.9650 H   0  0  0  0  0  0  0  0  0  0  0  0
   38.8930   24.5330   42.7110 C   0  0  0  0  0  3  0  0  0  0  0  0
   39.6110   24.1200   41.9640 H   0  0  0  0  0  0  0  0  0  0  0  0
   39.5390   25.6920   43.3100 N   0  0  0  0  0  0  0  0  0  0  0  0
   40.3750   25.4760   43.9210 H   0  0  0  0  0  0  0  0  0  0  0  0
  1  6  2  0  0  0  0
  1  2  1  0  0  0  0
  2  3  2  0  0  0  0
  3  4  1  0  0  0  0
  5  7  1  0  0  0  0
  5  4  2  0  0  0  0
  6  5  1  0  0  0  0
  7 10  1  0  0  0  0
  8  1  1  0  0  0  0
  9  2  1  0  0  0  0
 11  7  1  0  0  0  0
 13 12  2  0  0  0  0
 13 19  1  0  0  0  0
 14  3  1  6  0  0  0
 14 13  1  0  0  0  0
 15 14  1  0  0  0  0
 15 17  1  0  0  0  0
 16 15  1  0  0  0  0
 17 19  1  0  0  0  0
 18 17  1  0  0  0  0
 19 20  1  0  0  0  0
M  END
>  <minimizedAffinity>
-4.46789694

$$$$

 OpenBabel03252500203D

 20 21  0  0  1  0  0  0  0  0999 V2000
   36.8790   28.1570   40.2080 C   0  0  0  0  0  0  0  0  0  0  0  0
   36.8790   26.7620   40.2260 C   0  0  0  0  0  0  0  0  0  0  0  0
   36.9780   26.1500   41.4810 C   0  0  0  0  0  0  0  0  0  0  0  0
   37.0680   26.9270   42.6050 N   0  0  0  0  0  0  0  0  0  0  0  0
   37.0640   28.2720   42.5200 C   0  0  0  0  0  0  0  0  0  0  0  0
   36.9670   28.8950   41.3070 N   0  0  0  0  0  0  0  0  0  0  0  0
   37.1560   29.1010   43.6800 N   0  0  0  0  0  0  0  0  0  0  0  0
   36.8030   28.6520   39.2470 H   0  0  0  0  0  0  0  0  0  0  0  0
   36.8090   26.1330   39.3480 H   0  0  0  0  0  0  0  0  0  0  0  0
   36.3490   28.8880   44.3140 H   0  0  0  0  0  0  0  0  0  0  0  0
   37.8970   29.8140   43.8890 H   0  0  0  0  0  0  0  0  0  0  0  0
   39.5040   24.5850   42.3060 O   0  0  0  0  0  0  0  0  0  0  0  0
   38.3860   24.1990   41.8450 C   0  0  0  0  0  0  0  0  0  0  0  0
   36.9910   24.6800   41.6630 C   0  0  2  0  0  3  0  0  0  0  0  0
   36.5160   23.9450   40.4390 C   0  0  0  0  0  3  0  0  0  0  0  0
   36.6050   24.5810   39.5210 H   0  0  0  0  0  0  0  0  0  0  0  0
   37.3440   22.7010   40.3270 C   0  0  0  0  0  3  0  0  0  0  0  0
   37.8400   22.5980   39.3330 H   0  0  0  0  0  0  0  0  0  0  0  0
   38.4110   22.8630   41.3050 N   0  0  0  0  0  0  0  0  0  0  0  0
   39.0140   22.0070   41.4600 H   0  0  0  0  0  0  0  0  0  0  0  0
  1  2  2  0  0  0  0
  1  6  1  0  0  0  0
  2  3  1  0  0  0  0
  3  4  2  0  0  0  0
  5  4  1  0  0  0  0
  5  7  1  0  0  0  0
  6  5  2  0  0  0  0
  7 11  1  0  0  0  0
  7 10  1  0  0  0  0
  8  1  1  0  0  0  0
  9  2  1  0  0  0  0
 13 12  2  0  0  0  0
 14  3  1  6  0  0  0
 14 13  1  0  0  0  0
 15 14  1  0  0  0  0
 16 15  1  0  0  0  0
 17 15  1  0  0  0  0
 17 19  1  0  0  0  0
 18 17  1  0  0  0  0
 19 20  1  0  0  0  0
 19 13  1  0  0  0  0
M  END
>  <minimizedAffinity>
-4.41293812

$$$$

 OpenBabel03252500203D

 20 21  0  0  1  0  0  0  0  0999 V2000
   37.5280   30.4890   38.3110 C   0  0  0  0  0  0  0  0  0  0  0  0
   37.3510   29.6250   39.3920 C   0  0  0  0  0  0  0  0  0  0  0  0
   37.0340   30.2150   40.6210 C   0  0  0  0  0  0  0  0  0  0  0  0
   36.9140   31.5760   40.7060 N   0  0  0  0  0  0  0  0  0  0  0  0
   37.0990   32.3570   39.6230 C   0  0  0  0  0  0  0  0  0  0  0  0
   37.4090   31.8070   38.4100 N   0  0  0  0  0  0  0  0  0  0  0  0
   36.9790   33.7790   39.6880 N   0  0  0  0  0  0  0  0  0  0  0  0
   37.7750   30.0540   37.3490 H   0  0  0  0  0  0  0  0  0  0  0  0
   37.4410   28.5480   39.3430 H   0  0  0  0  0  0  0  0  0  0  0  0
   36.0120   34.0230   40.0100 H   0  0  0  0  0  0  0  0  0  0  0  0
   37.7190   34.4860   39.4590 H   0  0  0  0  0  0  0  0  0  0  0  0
   39.0810   30.1150   42.9250 O   0  0  0  0  0  0  0  0  0  0  0  0
   38.0580   29.4060   42.6750 C   0  0  0  0  0  0  0  0  0  0  0  0
   36.8150   29.4320   41.8590 C   0  0  2  0  0  3  0  0  0  0  0  0
   36.5410   27.9780   41.5800 C   0  0  0  0  0  3  0  0  0  0  0  0
   36.9190   27.6800   40.5680 H   0  0  0  0  0  0  0  0  0  0  0  0
   37.2060   27.1910   42.6670 C   0  0  0  0  0  3  0  0  0  0  0  0
   37.8980   26.4080   42.2760 H   0  0  0  0  0  0  0  0  0  0  0  0
   38.0330   28.1520   43.3840 N   0  0  0  0  0  0  0  0  0  0  0  0
   38.4690   27.7910   44.2790 H   0  0  0  0  0  0  0  0  0  0  0  0
  1  6  2  0  0  0  0
  1  2  1  0  0  0  0
  2  3  2  0  0  0  0
  3  4  1  0  0  0  0
  5  7  1  0  0  0  0
  5  4  2  0  0  0  0
  6  5  1  0  0  0  0
  7 10  1  0  0  0  0
  8  1  1  0  0  0  0
  9  2  1  0  0  0  0
 11  7  1  0  0  0  0
 13 12  2  0  0  0  0
 13 19  1  0  0  0  0
 14  3  1  6  0  0  0
 14 13  1  0  0  0  0
 15 14  1  0  0  0  0
 15 17  1  0  0  0  0
 16 15  1  0  0  0  0
 17 19  1  0  0  0  0
 18 17  1  0  0  0  0
 19 20  1  0  0  0  0
M  END
>  <minimizedAffinity>
-4.3854022

$$$$

 OpenBabel03252500203D

 20 21  0  0  1  0  0  0  0  0999 V2000
   37.7100   30.9550   37.6500 C   0  0  0  0  0  0  0  0  0  0  0  0
   37.8390   29.8790   38.5280 C   0  0  0  0  0  0  0  0  0  0  0  0
   37.6690   30.1550   39.8900 C   0  0  0  0  0  0  0  0  0  0  0  0
   37.3890   31.4340   40.2890 N   0  0  0  0  0  0  0  0  0  0  0  0
   37.2780   32.4320   39.3900 C   0  0  0  0  0  0  0  0  0  0  0  0
   37.4390   32.1900   38.0540 N   0  0  0  0  0  0  0  0  0  0  0  0
   36.9860   33.7740   39.7840 N   0  0  0  0  0  0  0  0  0  0  0  0
   37.8380   30.7640   36.5910 H   0  0  0  0  0  0  0  0  0  0  0  0
   38.0590   28.8620   38.2300 H   0  0  0  0  0  0  0  0  0  0  0  0
   36.0680   33.7870   40.2880 H   0  0  0  0  0  0  0  0  0  0  0  0
   37.5760   34.6250   39.6120 H   0  0  0  0  0  0  0  0  0  0  0  0
   35.2250   28.6430   41.0080 O   0  0  0  0  0  0  0  0  0  0  0  0
   36.4220   28.7340   41.4220 C   0  0  0  0  0  0  0  0  0  0  0  0
   37.7750   29.1190   40.9430 C   0  0  2  0  0  3  0  0  0  0  0  0
   38.4620   29.6270   42.1830 C   0  0  0  0  0  3  0  0  0  0  0  0
   38.4220   30.7460   42.2410 H   0  0  0  0  0  0  0  0  0  0  0  0
   37.7750   28.9920   43.3540 C   0  0  0  0  0  3  0  0  0  0  0  0
   37.4150   29.7370   44.1020 H   0  0  0  0  0  0  0  0  0  0  0  0
   36.5900   28.3530   42.8020 N   0  0  0  0  0  0  0  0  0  0  0  0
   36.0580   27.7330   43.4750 H   0  0  0  0  0  0  0  0  0  0  0  0
  1  6  2  0  0  0  0
  1  2  1  0  0  0  0
  2  3  2  0  0  0  0
  3  4  1  0  0  0  0
  5  7  1  0  0  0  0
  5  4  2  0  0  0  0
  6  5  1  0  0  0  0
  7 10  1  0  0  0  0
  8  1  1  0  0  0  0
  9  2  1  0  0  0  0
 11  7  1  0  0  0  0
 12 13  2  0  0  0  0
 13 19  1  0  0  0  0
 14  3  1  6  0  0  0
 14 13  1  0  0  0  0
 14 15  1  0  0  0  0
 15 16  1  0  0  0  0
 15 17  1  0  0  0  0
 17 18  1  0  0  0  0
 19 17  1  0  0  0  0
 19 20  1  0  0  0  0
M  END
>  <minimizedAffinity>
-4.30163288

$$$$

 OpenBabel03252500203D

 20 21  0  0  1  0  0  0  0  0999 V2000
   39.4010   31.8550   38.7000 C   0  0  0  0  0  0  0  0  0  0  0  0
   39.0430   30.6110   39.2210 C   0  0  0  0  0  0  0  0  0  0  0  0
   38.6010   30.5900   40.5490 C   0  0  0  0  0  0  0  0  0  0  0  0
   38.5410   31.7580   41.2590 N   0  0  0  0  0  0  0  0  0  0  0  0
   38.9030   32.9300   40.6980 C   0  0  0  0  0  0  0  0  0  0  0  0
   39.3370   32.9790   39.4030 N   0  0  0  0  0  0  0  0  0  0  0  0
   38.8480   34.1610   41.4210 N   0  0  0  0  0  0  0  0  0  0  0  0
   39.7460   31.8960   37.6740 H   0  0  0  0  0  0  0  0  0  0  0  0
   39.0830   29.6790   38.6740 H   0  0  0  0  0  0  0  0  0  0  0  0
   37.8620   34.3270   41.7330 H   0  0  0  0  0  0  0  0  0  0  0  0
   39.6470   34.8110   41.6220 H   0  0  0  0  0  0  0  0  0  0  0  0
   35.6570   29.7030   40.7800 O   0  0  0  0  0  0  0  0  0  0  0  0
   36.7060   29.3060   41.3740 C   0  0  0  0  0  0  0  0  0  0  0  0
   38.1860   29.3480   41.2410 C   0  0  2  0  0  3  0  0  0  0  0  0
   38.6750   29.2910   42.6640 C   0  0  0  0  0  3  0  0  0  0  0  0
   38.9170   30.3140   43.0520 H   0  0  0  0  0  0  0  0  0  0  0  0
   37.5950   28.6380   43.4710 C   0  0  0  0  0  3  0  0  0  0  0  0
   37.2780   29.2510   44.3480 H   0  0  0  0  0  0  0  0  0  0  0  0
   36.4440   28.5640   42.5820 N   0  0  0  0  0  0  0  0  0  0  0  0
   35.6280   27.9990   42.9480 H   0  0  0  0  0  0  0  0  0  0  0  0
  1  2  2  0  0  0  0
  1  6  1  0  0  0  0
  2  3  1  0  0  0  0
  3  4  2  0  0  0  0
  5  4  1  0  0  0  0
  5  7  1  0  0  0  0
  6  5  2  0  0  0  0
  7 11  1  0  0  0  0
  7 10  1  0  0  0  0
  8  1  1  0  0  0  0
  9  2  1  0  0  0  0
 12 13  2  0  0  0  0
 13 19  1  0  0  0  0
 14  3  1  1  0  0  0
 14 13  1  0  0  0  0
 14 15  1  0  0  0  0
 15 16  1  0  0  0  0
 15 17  1  0  0  0  0
 17 18  1  0  0  0  0
 19 20  1  0  0  0  0
 19 17  1  0  0  0  0
M  END
>  <minimizedAffinity>
-4.29901886

$$$$

 OpenBabel03252500203D

 20 21  0  0  1  0  0  0  0  0999 V2000
   35.6700   28.9440   39.7650 C   0  0  0  0  0  0  0  0  0  0  0  0
   36.1410   30.0660   39.0820 C   0  0  0  0  0  0  0  0  0  0  0  0
   36.9490   30.9490   39.8080 C   0  0  0  0  0  0  0  0  0  0  0  0
   37.2330   30.6810   41.1190 N   0  0  0  0  0  0  0  0  0  0  0  0
   36.7460   29.5790   41.7230 C   0  0  0  0  0  0  0  0  0  0  0  0
   35.9560   28.6990   41.0380 N   0  0  0  0  0  0  0  0  0  0  0  0
   37.0300   29.2800   43.0910 N   0  0  0  0  0  0  0  0  0  0  0  0
   35.0420   28.2460   39.2230 H   0  0  0  0  0  0  0  0  0  0  0  0
   35.9260   30.2930   38.0460 H   0  0  0  0  0  0  0  0  0  0  0  0
   38.0680   29.1920   43.2100 H   0  0  0  0  0  0  0  0  0  0  0  0
   36.3360   29.1620   43.8690 H   0  0  0  0  0  0  0  0  0  0  0  0
   39.4690   30.9440   38.0300 O   0  0  0  0  0  0  0  0  0  0  0  0
   38.8430   31.8880   38.6040 C   0  0  0  0  0  0  0  0  0  0  0  0
   37.5240   32.1820   39.2220 C   0  0  2  0  0  3  0  0  0  0  0  0
   37.8410   33.2210   40.2650 C   0  0  0  0  0  3  0  0  0  0  0  0
   37.9490   32.7590   41.2800 H   0  0  0  0  0  0  0  0  0  0  0  0
   39.1050   33.9010   39.8340 C   0  0  0  0  0  3  0  0  0  0  0  0
   39.8950   33.8880   40.6220 H   0  0  0  0  0  0  0  0  0  0  0  0
   39.6110   33.1020   38.7270 N   0  0  0  0  0  0  0  0  0  0  0  0
   40.4310   33.5220   38.2070 H   0  0  0  0  0  0  0  0  0  0  0  0
  1  6  1  0  0  0  0
  2  1  2  0  0  0  0
  2  3  1  0  0  0  0
  3  4  2  0  0  0  0
  4  5  1  0  0  0  0
  5  7  1  0  0  0  0
  6  5  2  0  0  0  0
  7 10  1  0  0  0  0
  7 11  1  0  0  0  0
  8  1  1  0  0  0  0
  9  2  1  0  0  0  0
 12 13  2  0  0  0  0
 13 19  1  0  0  0  0
 13 14  1  0  0  0  0
 14  3  1  1  0  0  0
 14 15  1  0  0  0  0
 15 16  1  0  0  0  0
 17 15  1  0  0  0  0
 17 18  1  0  0  0  0
 19 17  1  0  0  0  0
 20 19  1  0  0  0  0
M  END
>  <minimizedAffinity>
-4.23667336

$$$$

 OpenBabel03252500203D

 20 21  0  0  1  0  0  0  0  0999 V2000
   41.8940   30.9020   38.7480 C   0  0  0  0  0  0  0  0  0  0  0  0
   40.5270   30.9020   39.0280 C   0  0  0  0  0  0  0  0  0  0  0  0
   39.7830   31.9760   38.5250 C   0  0  0  0  0  0  0  0  0  0  0  0
   40.4120   32.9520   37.8010 N   0  0  0  0  0  0  0  0  0  0  0  0
   41.7380   32.8940   37.5650 C   0  0  0  0  0  0  0  0  0  0  0  0
   42.4880   31.8560   38.0430 N   0  0  0  0  0  0  0  0  0  0  0  0
   42.4150   33.9010   36.8110 N   0  0  0  0  0  0  0  0  0  0  0  0
   42.4900   30.0800   39.1270 H   0  0  0  0  0  0  0  0  0  0  0  0
   40.0140   30.1390   39.5990 H   0  0  0  0  0  0  0  0  0  0  0  0
   41.9920   33.9490   35.8530 H   0  0  0  0  0  0  0  0  0  0  0  0
   43.2060   34.5090   37.1360 H   0  0  0  0  0  0  0  0  0  0  0  0
   38.5680   33.9670   40.5430 O   0  0  0  0  0  0  0  0  0  0  0  0
   38.0600   32.9870   39.9140 C   0  0  0  0  0  0  0  0  0  0  0  0
   38.3240   32.1170   38.7390 C   0  0  2  0  0  3  0  0  0  0  0  0
   37.6680   30.8120   39.1050 C   0  0  0  0  0  3  0  0  0  0  0  0
   38.4130   30.0830   39.5160 H   0  0  0  0  0  0  0  0  0  0  0  0
   36.5990   31.1270   40.1060 C   0  0  0  0  0  3  0  0  0  0  0  0
   36.6940   30.5310   41.0450 H   0  0  0  0  0  0  0  0  0  0  0  0
   36.8180   32.5180   40.4760 N   0  0  0  0  0  0  0  0  0  0  0  0
   36.0600   32.9500   41.0750 H   0  0  0  0  0  0  0  0  0  0  0  0
  1  2  1  0  0  0  0
  1  8  1  0  0  0  0
  2  9  1  0  0  0  0
  3  2  2  0  0  0  0
  4  3  1  0  0  0  0
  5  4  2  0  0  0  0
  5  6  1  0  0  0  0
  6  1  2  0  0  0  0
  7 11  1  0  0  0  0
  7  5  1  0  0  0  0
 10  7  1  0  0  0  0
 13 19  1  0  0  0  0
 13 12  2  0  0  0  0
 14  3  1  1  0  0  0
 14 15  1  0  0  0  0
 14 13  1  0  0  0  0
 15 16  1  0  0  0  0
 15 17  1  0  0  0  0
 17 19  1  0  0  0  0
 17 18  1  0  0  0  0
 19 20  1  0  0  0  0
M  END
>  <minimizedAffinity>
-4.21905661

$$$$

 OpenBabel03252500203D

 20 21  0  0  1  0  0  0  0  0999 V2000
   41.8390   30.7180   37.2890 C   0  0  0  0  0  0  0  0  0  0  0  0
   40.8400   30.7870   38.2600 C   0  0  0  0  0  0  0  0  0  0  0  0
   40.4830   32.0650   38.7050 C   0  0  0  0  0  0  0  0  0  0  0  0
   41.1130   33.1620   38.1810 N   0  0  0  0  0  0  0  0  0  0  0  0
   42.0730   33.0290   37.2440 C   0  0  0  0  0  0  0  0  0  0  0  0
   42.4400   31.7920   36.7920 N   0  0  0  0  0  0  0  0  0  0  0  0
   42.7420   34.1600   36.6840 N   0  0  0  0  0  0  0  0  0  0  0  0
   42.1320   29.7380   36.9300 H   0  0  0  0  0  0  0  0  0  0  0  0
   40.3320   29.9310   38.6840 H   0  0  0  0  0  0  0  0  0  0  0  0
   42.0330   34.7820   36.2290 H   0  0  0  0  0  0  0  0  0  0  0  0
   43.7720   34.3600   36.7100 H   0  0  0  0  0  0  0  0  0  0  0  0
   37.4640   31.9160   38.0930 O   0  0  0  0  0  0  0  0  0  0  0  0
   38.1010   32.3740   39.0920 C   0  0  0  0  0  0  0  0  0  0  0  0
   39.4410   32.3000   39.7310 C   0  0  2  0  0  3  0  0  0  0  0  0
   39.5890   33.6380   40.4060 C   0  0  0  0  0  3  0  0  0  0  0  0
   40.1880   34.3470   39.7770 H   0  0  0  0  0  0  0  0  0  0  0  0
   38.2060   34.1580   40.6530 C   0  0  0  0  0  3  0  0  0  0  0  0
   38.0450   35.1790   40.2330 H   0  0  0  0  0  0  0  0  0  0  0  0
   37.3240   33.2650   39.9170 N   0  0  0  0  0  0  0  0  0  0  0  0
   36.2900   33.4040   40.0970 H   0  0  0  0  0  0  0  0  0  0  0  0
  1  2  1  0  0  0  0
  2  9  1  0  0  0  0
  2  3  2  0  0  0  0
  4  3  1  0  0  0  0
  5  4  2  0  0  0  0
  6  5  1  0  0  0  0
  6  1  2  0  0  0  0
  7 11  1  0  0  0  0
  7  5  1  0  0  0  0
  8  1  1  0  0  0  0
 10  7  1  0  0  0  0
 12 13  2  0  0  0  0
 13 14  1  0  0  0  0
 13 19  1  0  0  0  0
 14  3  1  6  0  0  0
 14 15  1  0  0  0  0
 15 17  1  0  0  0  0
 16 15  1  0  0  0  0
 18 17  1  0  0  0  0
 19 20  1  0  0  0  0
 19 17  1  0  0  0  0
M  END
>  <minimizedAffinity>
-4.2140708

$$$$
