
     RDKit          3D

 23 24  0  0  0  0  0  0  0  0999 V2000
   45.2029   35.9680   43.3770 C   0  0  0  0  0  0  0  0  0  0  0  0
   46.0966   34.9005   43.1456 C   0  0  0  0  0  0  0  0  0  0  0  0
   46.2452   33.9599   44.1690 C   0  0  0  0  0  0  0  0  0  0  0  0
   45.5424   34.1099   45.3102 N   0  0  0  0  0  0  0  0  0  0  0  0
   44.6901   35.1519   45.4974 C   0  0  0  0  0  0  0  0  0  0  0  0
   44.5269   36.0744   44.5272 N   0  0  0  0  0  0  0  0  0  0  0  0
   46.8140   34.7928   41.9173 C   0  0  0  0  0  0  0  0  0  0  0  0
   47.9109   35.3956   41.8292 O   0  0  0  0  0  0  0  0  0  0  0  0
   45.0831   36.7015   42.5864 H   0  0  0  0  0  0  0  0  0  0  0  0
   44.1363   35.2498   46.4248 H   0  0  0  0  0  0  0  0  0  0  0  0
   46.6122   34.2726   40.9789 H   0  0  0  0  0  0  0  0  0  0  0  0
   45.6317   31.4847   42.3763 O   0  0  0  0  0  0  0  0  0  0  0  0
   46.6828   31.8599   42.9351 C   0  0  0  0  0  0  0  0  0  0  0  0
   47.1792   32.8360   43.9387 C   0  0  1  0  0  0  0  0  0  0  0  0
   48.4928   33.2851   43.3342 C   0  0  2  0  0  0  0  0  0  0  0  0
   49.1292   33.7193   44.1410 H   0  0  0  0  0  0  0  0  0  0  0  0
   49.0525   32.0122   42.7775 C   0  0  1  0  0  0  0  0  0  0  0  0
   49.5948   32.2497   41.8346 H   0  0  0  0  0  0  0  0  0  0  0  0
   47.8970   31.1850   42.5547 N   0  0  0  0  0  0  0  0  0  0  0  0
   47.4380   32.3013   44.8696 H   0  0  0  0  0  0  0  0  0  0  0  0
   48.3118   34.0772   42.5938 H   0  0  0  0  0  0  0  0  0  0  0  0
   49.7687   31.6079   43.5212 H   0  0  0  0  0  0  0  0  0  0  0  0
   48.1752   30.2403   42.1528 H   0  0  0  0  0  0  0  0  0  0  0  0
  1  6  2  0
  2  1  1  0
  2  3  2  0
  3  4  1  0
  4  5  2  0
  6  5  1  0
  7  2  1  0
  8  7  2  0
  1  9  1  0
  5 10  1  0
  7 11  1  0
 12 13  2  0
 13 14  1  0
 14 15  1  0
 15 16  1  1
 15 17  1  0
 17 18  1  6
 17 19  1  0
 19 13  1  0
 14 20  1  1
 15 21  1  0
 17 22  1  0
 19 23  1  0
  3 14  1  0
M  ISO  5   9  14  10  14  11   6  16   8  18   8
M  END
>  <DihAtoms>  (1) 
1,2,13,12

>  <DihDeg>  (1) 
154.4167169632511

$$$$
