
 OpenBabel03252502463D

 45 48  0  0  1  0  0  0  0  0999 V2000
   47.6070   35.5500   41.9350 C   0  0  0  0  0  0  0  0  0  0  0  0
   47.7600   35.9950   42.9490 H   0  0  0  0  0  0  0  0  0  0  0  0
   47.3220   36.4000   41.2620 H   0  0  0  0  0  0  0  0  0  0  0  0
   48.8730   34.8700   41.5170 C   0  0  1  0  0  0  0  0  0  0  0  0
   50.0140   34.8820   42.4820 C   0  0  0  0  0  0  0  0  0  0  0  0
   49.2330   33.6440   42.2140 C   0  0  2  0  0  0  0  0  0  0  0  0
   49.1180   35.0320   40.4720 H   0  0  0  0  0  0  0  0  0  0  0  0
   49.8500   35.4390   43.4360 H   0  0  0  0  0  0  0  0  0  0  0  0
   51.0610   35.0070   42.1060 H   0  0  0  0  0  0  0  0  0  0  0  0
   48.7410   33.2330   43.0890 H   0  0  0  0  0  0  0  0  0  0  0  0
   49.9660   32.6970   41.3900 N   0  0  0  0  0  0  0  0  0  0  0  0
   49.2100   32.1430   40.3260 C   0  0  0  0  0  0  0  0  0  0  0  0
   50.1440   31.1920   39.6040 C   0  0  0  0  0  0  0  0  0  0  0  0
   50.5660   30.1130   40.4440 N   0  0  0  0  0  0  0  0  0  0  0  0
   50.5810   30.4430   41.8520 C   0  0  0  0  0  0  0  0  0  0  0  0
   50.9290   31.9180   42.0390 C   0  0  0  0  0  0  0  0  0  0  0  0
   48.3180   31.6230   40.7180 H   0  0  0  0  0  0  0  0  0  0  0  0
   48.8790   32.8970   39.5990 H   0  0  0  0  0  0  0  0  0  0  0  0
   49.5780   30.7760   38.7350 H   0  0  0  0  0  0  0  0  0  0  0  0
   50.9810   31.7730   39.1890 H   0  0  0  0  0  0  0  0  0  0  0  0
   51.4310   29.6800   40.1020 H   0  0  0  0  0  0  0  0  0  0  0  0
   51.2820   29.7910   42.3980 H   0  0  0  0  0  0  0  0  0  0  0  0
   49.5510   30.2900   42.2570 H   0  0  0  0  0  0  0  0  0  0  0  0
   51.9550   32.1150   41.6810 H   0  0  0  0  0  0  0  0  0  0  0  0
   50.8870   32.0920   43.1350 H   0  0  0  0  0  0  0  0  0  0  0  0
   46.5490   34.4910   41.9930 C   0  0  0  0  0  0  0  0  0  0  0  0
   46.8130   33.5080   41.6270 H   0  0  0  0  0  0  0  0  0  0  0  0
   45.7110   34.8340   41.3160 H   0  0  0  0  0  0  0  0  0  0  0  0
   44.6960   35.6250   45.0420 C   0  0  0  0  0  0  0  0  0  0  0  0
   45.2540   35.6330   43.7450 C   0  0  0  0  0  0  0  0  0  0  0  0
   45.9460   34.5020   43.3660 C   0  0  0  0  0  0  0  0  0  0  0  0
   46.0620   33.4580   44.2210 N   0  0  0  0  0  0  0  0  0  0  0  0
   45.5280   33.4740   45.4330 C   0  0  0  0  0  0  0  0  0  0  0  0
   44.8530   34.5420   45.8430 N   0  0  0  0  0  0  0  0  0  0  0  0
   44.1410   36.4970   45.3820 H   0  0  0  0  0  0  0  0  0  0  0  0
   45.1480   36.4770   43.0840 H   0  0  0  0  0  0  0  0  0  0  0  0
   47.7140   31.5130   45.2010 O   0  0  0  0  0  0  0  0  0  0  0  0
   47.0160   31.6760   46.2500 C   0  0  0  0  0  0  0  0  0  0  0  0
   45.6750   32.3090   46.3460 C   0  0  1  0  0  3  0  0  0  0  0  0
   45.5270   32.7500   47.7680 C   0  0  0  0  0  3  0  0  0  0  0  0
   45.4520   33.8530   47.8870 H   0  0  0  0  0  0  0  0  0  0  0  0
   46.7350   32.2020   48.4790 C   0  0  0  0  0  3  0  0  0  0  0  0
   46.4520   31.6520   49.3930 H   0  0  0  0  0  0  0  0  0  0  0  0
   47.3840   31.2810   47.5590 N   0  0  0  0  0  0  0  0  0  0  0  0
   48.0010   30.4860   47.8330 H   0  0  0  0  0  0  0  0  0  0  0  0
  1 26  1  0  0  0  0
  1  2  1  0  0  0  0
  3  1  1  0  0  0  0
  4  7  1  6  0  0  0
  4  1  1  0  0  0  0
  4  6  1  0  0  0  0
  4  5  1  0  0  0  0
  5  8  1  0  0  0  0
  6  5  1  0  0  0  0
  6 10  1  1  0  0  0
  9  5  1  0  0  0  0
 11 16  1  0  0  0  0
 11  6  1  0  0  0  0
 12 17  1  0  0  0  0
 12 11  1  0  0  0  0
 13 12  1  0  0  0  0
 13 14  1  0  0  0  0
 14 15  1  0  0  0  0
 15 16  1  0  0  0  0
 15 23  1  0  0  0  0
 15 22  1  0  0  0  0
 16 25  1  0  0  0  0
 18 12  1  0  0  0  0
 19 13  1  0  0  0  0
 20 13  1  0  0  0  0
 21 14  1  0  0  0  0
 24 16  1  0  0  0  0
 26 31  1  0  0  0  0
 27 26  1  0  0  0  0
 28 26  1  0  0  0  0
 29 35  1  0  0  0  0
 29 34  1  0  0  0  0
 30 29  2  0  0  0  0
 31 30  1  0  0  0  0
 31 32  2  0  0  0  0
 32 33  1  0  0  0  0
 33 34  2  0  0  0  0
 36 30  1  0  0  0  0
 37 38  2  0  0  0  0
 38 39  1  0  0  0  0
 38 44  1  0  0  0  0
 39 33  1  6  0  0  0
 39 40  1  0  0  0  0
 40 41  1  0  0  0  0
 40 42  1  0  0  0  0
 42 43  1  0  0  0  0
 44 45  1  0  0  0  0
 44 42  1  0  0  0  0
M  END
>  <minimizedAffinity>
-5.17483425

>  <minimizedRMSD>
0.756232738

$$$$
