
     RDKit          3D

 40 42  0  0  0  0  0  0  0  0999 V2000
   47.3140   32.6909   47.5015 O   0  0  0  0  0  0  0  0  0  0  0  0
   45.9973   32.3263   46.8705 P   0  0  2  0  0  0  0  0  0  0  0  0
   46.2905   31.2093   45.6309 O   0  0  0  0  0  0  0  0  0  0  0  0
   45.3286   33.7642   46.2380 O   0  0  0  0  0  0  0  0  0  0  0  0
   45.2206   35.8279   43.3248 C   0  0  0  0  0  0  0  0  0  0  0  0
   46.2773   35.3370   42.5116 C   0  0  0  0  0  0  0  0  0  0  0  0
   47.0195   34.2603   43.0293 C   0  0  0  0  0  0  0  0  0  0  0  0
   46.6854   33.7714   44.2449 N   0  0  0  0  0  0  0  0  0  0  0  0
   45.6765   34.2668   44.9816 C   0  0  0  0  0  0  0  0  0  0  0  0
   44.9512   35.2921   44.5155 N   0  0  0  0  0  0  0  0  0  0  0  0
   44.4950   36.8776   42.8220 O   0  0  0  0  0  0  0  0  0  0  0  0
   45.0373   31.6289   48.0338 O   0  0  0  0  0  0  0  0  0  0  0  0
   46.7809   29.9993   48.0704 C   0  0  2  0  0  0  0  0  0  0  0  0
   45.3324   30.2897   48.1518 C   0  0  2  0  0  0  0  0  0  0  0  0
   44.7443   29.4588   47.0721 C   0  0  0  0  0  0  0  0  0  0  0  0
   45.5474   28.3465   46.9121 O   0  0  0  0  0  0  0  0  0  0  0  0
   46.6786   28.5112   47.6418 C   0  0  0  0  0  0  0  0  0  0  0  0
   47.4712   30.1300   49.2434 O   0  0  0  0  0  0  0  0  0  0  0  0
   47.0820   31.4357   45.1010 H   0  0  0  0  0  0  0  0  0  0  0  0
   46.4984   35.7716   41.5421 H   0  0  0  0  0  0  0  0  0  0  0  0
   47.8383   33.8448   42.4515 H   0  0  0  0  0  0  0  0  0  0  0  0
   44.3053   36.8974   41.8261 H   0  0  0  0  0  0  0  0  0  0  0  0
   47.4525   30.3713   47.3556 H   0  0  0  0  0  0  0  0  0  0  0  0
   45.0190   29.8994   49.1553 H   0  0  0  0  0  0  0  0  0  0  0  0
   43.7835   29.0199   47.4860 H   0  0  0  0  0  0  0  0  0  0  0  0
   44.3965   29.9480   46.1656 H   0  0  0  0  0  0  0  0  0  0  0  0
   47.6004   28.1421   47.1978 H   0  0  0  0  0  0  0  0  0  0  0  0
   46.5470   27.9271   48.5935 H   0  0  0  0  0  0  0  0  0  0  0  0
   48.6120   32.9833   49.6707 O   0  0  0  0  0  0  0  0  0  0  0  0
   48.8852   32.0117   48.8864 C   0  0  0  0  0  0  0  0  0  0  0  0
   48.7270   30.5718   49.3031 C   0  0  2  0  0  0  0  0  0  0  0  0
   49.4968   29.9220   48.1718 C   0  0  1  0  0  0  0  0  0  0  0  0
   50.5762   29.8303   48.3651 H   0  0  0  0  0  0  0  0  0  0  0  0
   49.2096   30.8360   46.9832 C   0  0  1  0  0  0  0  0  0  0  0  0
   50.0384   30.6894   46.2590 H   0  0  0  0  0  0  0  0  0  0  0  0
   49.3622   32.1639   47.5516 N   0  0  0  0  0  0  0  0  0  0  0  0
   49.2874   30.3739   50.2327 H   0  0  0  0  0  0  0  0  0  0  0  0
   49.0309   28.9351   47.9093 H   0  0  0  0  0  0  0  0  0  0  0  0
   48.2316   30.6375   46.5462 H   0  0  0  0  0  0  0  0  0  0  0  0
   49.7152   33.0747   47.1850 H   0  0  0  0  0  0  0  0  0  0  0  0
  2  1  2  0
  2 12  1  1
  3  2  1  0
  4  2  1  0
  5 10  2  0
  6  7  2  0
  6  5  1  0
  7  8  1  0
  8  9  2  0
  9  4  1  0
 10  9  1  0
 11  5  1  0
 13 14  1  0
 13 18  1  0
 14 12  1  0
 15 14  1  0
 16 15  1  0
 16 17  1  0
 17 13  1  0
  3 19  1  0
  6 20  1  0
  7 21  1  0
 11 22  1  0
 13 23  1  6
 14 24  1  1
 15 25  1  0
 15 26  1  0
 17 27  1  0
 17 28  1  0
 29 30  2  0
 30 31  1  0
 31 32  1  0
 32 33  1  1
 32 34  1  0
 34 35  1  6
 34 36  1  0
 36 30  1  0
 31 37  1  1
 32 38  1  0
 34 39  1  0
 36 40  1  0
 18 31  1  0
M  ISO  8  19   3  20  14  21  14  22   3  23  13  24  13  25  13  26  13
M  ISO  4  27  13  28  13  33   8  35   8
M  END
>  <DihAtoms>  (1) 
12,17,30,29

>  <DihDeg>  (1) 
-129.09161389859912

$$$$
