
     RDKit          3D

 23 24  0  0  0  0  0  0  0  0999 V2000
   45.2029   35.9680   43.3770 C   0  0  0  0  0  0  0  0  0  0  0  0
   46.0966   34.9005   43.1456 C   0  0  0  0  0  0  0  0  0  0  0  0
   46.2452   33.9599   44.1690 C   0  0  0  0  0  0  0  0  0  0  0  0
   45.5424   34.1099   45.3102 N   0  0  0  0  0  0  0  0  0  0  0  0
   44.6901   35.1519   45.4974 C   0  0  0  0  0  0  0  0  0  0  0  0
   44.5269   36.0744   44.5272 N   0  0  0  0  0  0  0  0  0  0  0  0
   46.8140   34.7928   41.9173 C   0  0  0  0  0  0  0  0  0  0  0  0
   47.9109   35.3956   41.8292 O   0  0  0  0  0  0  0  0  0  0  0  0
   45.0831   36.7015   42.5864 H   0  0  0  0  0  0  0  0  0  0  0  0
   44.1363   35.2498   46.4248 H   0  0  0  0  0  0  0  0  0  0  0  0
   46.6122   34.2726   40.9789 H   0  0  0  0  0  0  0  0  0  0  0  0
   45.4380   31.2055   42.9530 O   0  0  0  0  0  0  0  0  0  0  0  0
   46.5543   31.6941   43.2233 C   0  0  0  0  0  0  0  0  0  0  0  0
   47.1792   32.8360   43.9387 C   0  0  1  0  0  0  0  0  0  0  0  0
   48.3236   33.2089   43.0201 C   0  0  2  0  0  0  0  0  0  0  0  0
   49.0783   33.7872   43.6035 H   0  0  0  0  0  0  0  0  0  0  0  0
   48.8364   31.8745   42.5727 C   0  0  1  0  0  0  0  0  0  0  0  0
   49.1718   31.9637   41.5149 H   0  0  0  0  0  0  0  0  0  0  0  0
   47.7083   30.9943   42.7203 N   0  0  0  0  0  0  0  0  0  0  0  0
   47.6429   32.4711   44.8721 H   0  0  0  0  0  0  0  0  0  0  0  0
   47.9583   33.8612   42.2143 H   0  0  0  0  0  0  0  0  0  0  0  0
   49.7045   31.6177   43.2130 H   0  0  0  0  0  0  0  0  0  0  0  0
   47.9566   30.0025   42.4267 H   0  0  0  0  0  0  0  0  0  0  0  0
  1  6  2  0
  2  1  1  0
  2  3  2  0
  3  4  1  0
  4  5  2  0
  6  5  1  0
  7  2  1  0
  8  7  2  0
  1  9  1  0
  5 10  1  0
  7 11  1  0
 12 13  2  0
 13 14  1  0
 14 15  1  0
 15 16  1  1
 15 17  1  0
 17 18  1  6
 17 19  1  0
 19 13  1  0
 14 20  1  1
 15 21  1  0
 17 22  1  0
 19 23  1  0
  3 14  1  0
M  ISO  5   9  14  10  14  11   6  16   8  18   8
M  END
>  <DihAtoms>  (1) 
1,2,13,12

>  <DihDeg>  (1) 
154.4167169632511

$$$$
