
 OpenBabel03252503053D

 20 21  0  0  1  0  0  0  0  0999 V2000
   45.3780   36.0810   43.2120 C   0  0  0  0  0  0  0  0  0  0  0  0
   46.0920   34.8720   43.0660 C   0  0  0  0  0  0  0  0  0  0  0  0
   46.0200   33.9590   44.1220 C   0  0  0  0  0  0  0  0  0  0  0  0
   45.2880   34.2660   45.2120 N   0  0  0  0  0  0  0  0  0  0  0  0
   44.6150   35.4420   45.3170 C   0  0  0  0  0  0  0  0  0  0  0  0
   44.6650   36.3410   44.3140 N   0  0  0  0  0  0  0  0  0  0  0  0
   45.4290   36.7940   42.3950 H   0  0  0  0  0  0  0  0  0  0  0  0
   44.0330   35.6650   46.2050 H   0  0  0  0  0  0  0  0  0  0  0  0
   45.1070   31.5580   42.3570 O   0  0  0  0  0  0  0  0  0  0  0  0
   46.1710   31.7720   42.9730 C   0  0  0  0  0  0  0  0  0  0  0  0
   46.7630   32.6870   43.9820 C   0  0  1  0  0  3  0  0  0  0  0  0
   48.1680   32.8880   43.4530 C   0  0  0  0  0  3  0  0  0  0  0  0
   48.8190   33.2390   44.2880 H   0  0  0  0  0  0  0  0  0  0  0  0
   48.5370   31.5210   42.9670 C   0  0  0  0  0  3  0  0  0  0  0  0
   49.1670   31.6310   42.0560 H   0  0  0  0  0  0  0  0  0  0  0  0
   47.2740   30.8900   42.6900 N   0  0  0  0  0  0  0  0  0  0  0  0
   47.4120   29.8990   42.3320 H   0  0  0  0  0  0  0  0  0  0  0  0
   46.8490   34.6000   41.8880 C   0  0  0  0  0  0  0  0  0  0  0  0
   47.7410   35.4220   41.5680 O   0  0  0  0  0  0  0  0  0  0  0  0
   46.8270   33.7890   41.1580 H   0  0  0  0  0  0  0  0  0  0  0  0
  1  6  1  0  0  0  0
  2  1  2  0  0  0  0
  2  3  1  0  0  0  0
  3  4  2  0  0  0  0
  4  5  1  0  0  0  0
  5  8  1  0  0  0  0
  6  5  2  0  0  0  0
  7  1  1  0  0  0  0
  9 10  2  0  0  0  0
 10 11  1  0  0  0  0
 11  3  1  6  0  0  0
 12 11  1  0  0  0  0
 12 13  1  0  0  0  0
 14 12  1  0  0  0  0
 15 14  1  0  0  0  0
 16 14  1  0  0  0  0
 16 10  1  0  0  0  0
 17 16  1  0  0  0  0
 18  2  1  0  0  0  0
 19 18  2  0  0  0  0
 20 18  1  0  0  0  0
M  END
>  <minimizedAffinity>
-3.66291142

>  <minimizedRMSD>
0.438136488

$$$$
