
 OpenBabel03252508233D

 48 51  0  0  1  0  0  0  0  0999 V2000
   45.0510   34.2310   40.7570 C   0  0  0  0  0  0  0  0  0  0  0  0
   46.0800   34.5410   41.6210 C   0  0  0  0  0  0  0  0  0  0  0  0
   45.9400   35.2910   42.7600 C   0  0  0  0  0  0  0  0  0  0  0  0
   44.6450   35.7550   43.0270 C   0  0  0  0  0  0  0  0  0  0  0  0
   43.5860   35.4770   42.2030 C   0  0  0  0  0  0  0  0  0  0  0  0
   43.7750   34.7270   41.0800 C   0  0  0  0  0  0  0  0  0  0  0  0
   47.1000   34.2110   41.4910 H   0  0  0  0  0  0  0  0  0  0  0  0
   46.7230   35.5460   43.4490 H   0  0  0  0  0  0  0  0  0  0  0  0
   44.4720   36.3610   43.9240 H   0  0  0  0  0  0  0  0  0  0  0  0
   42.6140   35.8770   42.4840 H   0  0  0  0  0  0  0  0  0  0  0  0
   42.6250   34.4880   40.3020 N   0  0  0  0  0  0  0  0  0  0  0  0
   42.1800   35.3360   39.2360 C   0  0  0  0  0  0  0  0  0  0  0  0
   41.2420   34.5970   38.3020 C   0  0  0  0  0  0  0  0  0  0  0  0
   41.5840   33.2340   38.0680 N   0  0  0  0  0  0  0  0  0  0  0  0
   41.7610   32.4590   39.2420 C   0  0  0  0  0  0  0  0  0  0  0  0
   41.7130   33.3450   40.4640 C   0  0  0  0  0  0  0  0  0  0  0  0
   42.9250   35.9390   38.7290 H   0  0  0  0  0  0  0  0  0  0  0  0
   41.5090   36.0940   39.7430 H   0  0  0  0  0  0  0  0  0  0  0  0
   41.3110   35.1190   37.3170 H   0  0  0  0  0  0  0  0  0  0  0  0
   40.1770   34.6410   38.6480 H   0  0  0  0  0  0  0  0  0  0  0  0
   40.9200   32.8650   37.3830 H   0  0  0  0  0  0  0  0  0  0  0  0
   41.0360   31.6490   39.3820 H   0  0  0  0  0  0  0  0  0  0  0  0
   42.7950   32.0190   39.2050 H   0  0  0  0  0  0  0  0  0  0  0  0
   40.6900   33.7270   40.5850 H   0  0  0  0  0  0  0  0  0  0  0  0
   41.9970   32.7660   41.3530 H   0  0  0  0  0  0  0  0  0  0  0  0
   45.2080   33.4310   39.5380 C   0  0  0  0  0  0  0  0  0  0  0  0
   45.4790   34.0030   38.6490 H   0  0  0  0  0  0  0  0  0  0  0  0
   44.1740   33.0340   39.3130 H   0  0  0  0  0  0  0  0  0  0  0  0
   46.1870   32.2950   39.7430 C   0  0  0  0  0  0  0  0  0  0  0  0
   46.5780   32.1820   40.7410 H   0  0  0  0  0  0  0  0  0  0  0  0
   45.6840   31.3480   39.3830 H   0  0  0  0  0  0  0  0  0  0  0  0
   48.5530   33.7850   37.2050 C   0  0  0  0  0  0  0  0  0  0  0  0
   47.4440   33.6400   38.0680 C   0  0  0  0  0  0  0  0  0  0  0  0
   47.3360   32.4720   38.8230 C   0  0  0  0  0  0  0  0  0  0  0  0
   48.3160   31.5250   38.6850 N   0  0  0  0  0  0  0  0  0  0  0  0
   49.3560   31.6990   37.8550 C   0  0  0  0  0  0  0  0  0  0  0  0
   49.4760   32.8210   37.1170 N   0  0  0  0  0  0  0  0  0  0  0  0
   48.5920   34.7070   36.6400 H   0  0  0  0  0  0  0  0  0  0  0  0
   46.7160   34.4250   38.1230 H   0  0  0  0  0  0  0  0  0  0  0  0
   51.1610   30.7430   35.3630 O   0  0  0  0  0  0  0  0  0  0  0  0
   51.3530   30.9280   36.6040 C   0  0  0  0  0  0  0  0  0  0  0  0
   50.4230   30.6670   37.7050 C   0  0  1  0  0  3  0  0  0  0  0  0
   51.3090   30.6220   38.9380 C   0  0  0  0  0  3  0  0  0  0  0  0
   50.7030   31.0030   39.8070 H   0  0  0  0  0  0  0  0  0  0  0  0
   52.4950   31.4970   38.6220 C   0  0  0  0  0  3  0  0  0  0  0  0
   52.2290   32.5380   38.9120 H   0  0  0  0  0  0  0  0  0  0  0  0
   52.5520   31.4430   37.1730 N   0  0  0  0  0  0  0  0  0  0  0  0
   53.4090   31.7610   36.6380 H   0  0  0  0  0  0  0  0  0  0  0  0
  1  6  2  0  0  0  0
  1  2  1  0  0  0  0
  2  3  2  0  0  0  0
  3  4  1  0  0  0  0
  3  8  1  0  0  0  0
  4  9  1  0  0  0  0
  5 10  1  0  0  0  0
  5  4  2  0  0  0  0
  6  5  1  0  0  0  0
  7  2  1  0  0  0  0
 11 16  1  0  0  0  0
 11  6  1  0  0  0  0
 12 18  1  0  0  0  0
 12 11  1  0  0  0  0
 13 20  1  0  0  0  0
 13 12  1  0  0  0  0
 14 13  1  0  0  0  0
 14 15  1  0  0  0  0
 15 22  1  0  0  0  0
 15 16  1  0  0  0  0
 16 24  1  0  0  0  0
 16 25  1  0  0  0  0
 17 12  1  0  0  0  0
 19 13  1  0  0  0  0
 21 14  1  0  0  0  0
 23 15  1  0  0  0  0
 26 29  1  0  0  0  0
 26  1  1  0  0  0  0
 27 26  1  0  0  0  0
 28 26  1  0  0  0  0
 29 30  1  0  0  0  0
 31 29  1  0  0  0  0
 32 33  1  0  0  0  0
 33 39  1  0  0  0  0
 33 34  2  0  0  0  0
 34 29  1  0  0  0  0
 35 34  1  0  0  0  0
 36 35  2  0  0  0  0
 37 32  2  0  0  0  0
 37 36  1  0  0  0  0
 38 32  1  0  0  0  0
 40 41  2  0  0  0  0
 41 47  1  0  0  0  0
 41 42  1  0  0  0  0
 42 36  1  1  0  0  0
 42 43  1  0  0  0  0
 43 44  1  0  0  0  0
 45 46  1  0  0  0  0
 45 43  1  0  0  0  0
 47 45  1  0  0  0  0
 48 47  1  0  0  0  0
M  END
>  <minimizedAffinity>
-5.09930182

>  <minimizedRMSD>
8.64948082

$$$$
