
 OpenBabel03242510143D

 42 45  0  0  1  0  0  0  0  0999 V2000
   39.5750   29.9460   41.3770 N   0  0  0  0  0  0  0  0  0  0  0  0
   40.9860   30.1030   41.6690 C   0  0  0  0  0  0  0  0  0  0  0  0
   41.3940   31.5590   41.6560 C   0  0  0  0  0  0  0  0  0  0  0  0
   41.2140   32.1620   40.3360 N   0  0  0  0  0  0  0  0  0  0  0  0
   40.3360   31.2890   39.5830 C   0  0  0  0  0  0  0  0  0  0  0  0
   39.1200   30.9660   40.4610 C   0  0  1  0  0  0  0  0  0  0  0  0
   41.1450   29.7460   42.7100 H   0  0  0  0  0  0  0  0  0  0  0  0
   41.6060   29.4720   41.0150 H   0  0  0  0  0  0  0  0  0  0  0  0
   42.4640   31.5770   41.9560 H   0  0  0  0  0  0  0  0  0  0  0  0
   40.7390   32.0800   42.3850 H   0  0  0  0  0  0  0  0  0  0  0  0
   40.6790   33.0720   40.4520 H   0  0  0  0  0  0  0  0  0  0  0  0
   40.8780   30.3450   39.3300 H   0  0  0  0  0  0  0  0  0  0  0  0
   40.0920   31.7660   38.6410 H   0  0  0  0  0  0  0  0  0  0  0  0
   38.9370   31.8780   41.0970 H   0  0  0  0  0  0  0  0  0  0  0  0
   39.4260   27.3110   39.6720 Br  0  0  0  0  0  0  0  0  0  0  0  0
   38.5100   27.7160   41.2980 C   0  0  0  0  0  0  0  0  0  0  0  0
   37.6660   26.7850   41.8520 C   0  0  0  0  0  0  0  0  0  0  0  0
   36.9720   27.0710   43.0550 C   0  0  0  0  0  0  0  0  0  0  0  0
   37.1700   28.2900   43.6360 C   0  0  0  0  0  0  0  0  0  0  0  0
   38.0260   29.1830   43.0380 C   0  0  0  0  0  0  0  0  0  0  0  0
   38.7000   28.9430   41.8980 C   0  0  0  0  0  0  0  0  0  0  0  0
   36.3370   26.2790   43.4060 H   0  0  0  0  0  0  0  0  0  0  0  0
   36.6380   28.4790   44.5380 H   0  0  0  0  0  0  0  0  0  0  0  0
   38.1290   30.1300   43.5630 H   0  0  0  0  0  0  0  0  0  0  0  0
   38.1180   23.2710   40.9620 C   0  0  0  0  0  0  0  0  0  0  0  0
   37.1660   23.0550   39.9530 C   0  0  0  0  0  0  0  0  0  0  0  0
   36.3840   24.1440   39.6030 C   0  0  0  0  0  0  0  0  0  0  0  0
   36.5540   25.3390   40.2210 N   0  0  0  0  0  0  0  0  0  0  0  0
   37.4890   25.5040   41.1940 C   0  0  0  0  0  0  0  0  0  0  0  0
   38.2510   24.4520   41.5400 N   0  0  0  0  0  0  0  0  0  0  0  0
   38.7100   22.3940   41.2070 H   0  0  0  0  0  0  0  0  0  0  0  0
   36.9840   22.1290   39.4260 H   0  0  0  0  0  0  0  0  0  0  0  0
   35.6380   24.0290   38.8330 H   0  0  0  0  0  0  0  0  0  0  0  0
   35.5360   30.3080   40.6350 O   0  0  0  0  0  0  0  0  0  0  0  0
   36.6400   30.8440   40.2500 C   0  0  0  0  0  0  0  0  0  0  0  0
   37.9770   30.6840   39.5970 C   0  0  1  0  0  3  0  0  0  0  0  0
   37.8570   31.8730   38.6230 C   0  0  0  0  0  3  0  0  0  0  0  0
   37.1290   31.6470   37.8200 H   0  0  0  0  0  0  0  0  0  0  0  0
   37.3820   33.0000   39.5320 C   0  0  0  0  0  3  0  0  0  0  0  0
   36.5870   33.5980   38.9970 H   0  0  0  0  0  0  0  0  0  0  0  0
   36.6480   32.2550   40.5690 N   0  0  0  0  0  0  0  0  0  0  0  0
   36.2870   32.9170   41.3210 H   0  0  0  0  0  0  0  0  0  0  0  0
  1  2  1  0  0  0  0
  1 21  1  0  0  0  0
  2  7  1  0  0  0  0
  3  2  1  0  0  0  0
  3  9  1  0  0  0  0
  3 10  1  0  0  0  0
  4 11  1  0  0  0  0
  4  3  1  0  0  0  0
  5  4  1  0  0  0  0
  5  6  1  0  0  0  0
  6 14  1  1  0  0  0
  6  1  1  0  0  0  0
  8  2  1  0  0  0  0
 12  5  1  0  0  0  0
 13  5  1  0  0  0  0
 15 16  1  0  0  0  0
 16 17  2  0  0  0  0
 16 21  1  0  0  0  0
 17 18  1  0  0  0  0
 18 22  1  0  0  0  0
 18 19  2  0  0  0  0
 19 23  1  0  0  0  0
 20 24  1  0  0  0  0
 20 19  1  0  0  0  0
 21 20  2  0  0  0  0
 25 31  1  0  0  0  0
 25 30  1  0  0  0  0
 26 25  2  0  0  0  0
 27 26  1  0  0  0  0
 27 28  2  0  0  0  0
 28 29  1  0  0  0  0
 29 30  2  0  0  0  0
 29 17  1  0  0  0  0
 32 26  1  0  0  0  0
 33 27  1  0  0  0  0
 35 41  1  0  0  0  0
 35 34  2  0  0  0  0
 36 37  1  6  0  0  0
 36 35  1  0  0  0  0
 36  6  1  0  0  0  0
 37 39  1  0  0  0  0
 38 37  1  0  0  0  0
 39 41  1  0  0  0  0
 40 39  1  0  0  0  0
 41 42  1  0  0  0  0
M  END
>  <minimizedAffinity>
-6.25403166

$$$$

 OpenBabel03242510143D

 42 45  0  0  1  0  0  0  0  0999 V2000
   38.7650   27.6530   39.6610 N   0  0  0  0  0  0  0  0  0  0  0  0
   39.3730   26.4800   39.0650 C   0  0  0  0  0  0  0  0  0  0  0  0
   38.8050   25.2060   39.6500 C   0  0  0  0  0  0  0  0  0  0  0  0
   39.0890   25.0910   41.0790 N   0  0  0  0  0  0  0  0  0  0  0  0
   39.4670   26.4090   41.5480 C   0  0  0  0  0  0  0  0  0  0  0  0
   38.4210   27.4110   41.0430 C   0  0  1  0  0  0  0  0  0  0  0  0
   39.0920   26.4790   37.9890 H   0  0  0  0  0  0  0  0  0  0  0  0
   40.4710   26.5280   39.1110 H   0  0  0  0  0  0  0  0  0  0  0  0
   39.2790   24.3750   39.0840 H   0  0  0  0  0  0  0  0  0  0  0  0
   37.7050   25.2500   39.5010 H   0  0  0  0  0  0  0  0  0  0  0  0
   38.1830   24.8590   41.5840 H   0  0  0  0  0  0  0  0  0  0  0  0
   40.4720   26.6760   41.1370 H   0  0  0  0  0  0  0  0  0  0  0  0
   39.5730   26.3800   42.6270 H   0  0  0  0  0  0  0  0  0  0  0  0
   37.4400   26.8580   41.0140 H   0  0  0  0  0  0  0  0  0  0  0  0
   41.1450   29.7010   39.7690 Br  0  0  0  0  0  0  0  0  0  0  0  0
   39.4340   29.9250   38.9520 C   0  0  0  0  0  0  0  0  0  0  0  0
   39.1370   31.1020   38.3090 C   0  0  0  0  0  0  0  0  0  0  0  0
   37.8700   31.2880   37.7020 C   0  0  0  0  0  0  0  0  0  0  0  0
   36.9650   30.2690   37.7790 C   0  0  0  0  0  0  0  0  0  0  0  0
   37.3160   29.1140   38.4340 C   0  0  0  0  0  0  0  0  0  0  0  0
   38.5090   28.9050   39.0190 C   0  0  0  0  0  0  0  0  0  0  0  0
   37.7360   32.2420   37.2260 H   0  0  0  0  0  0  0  0  0  0  0  0
   36.0210   30.4350   37.3150 H   0  0  0  0  0  0  0  0  0  0  0  0
   36.5400   28.3510   38.4500 H   0  0  0  0  0  0  0  0  0  0  0  0
   41.9960   33.0970   37.2160 C   0  0  0  0  0  0  0  0  0  0  0  0
   42.0410   34.1540   38.1390 C   0  0  0  0  0  0  0  0  0  0  0  0
   41.0680   34.1480   39.1270 C   0  0  0  0  0  0  0  0  0  0  0  0
   40.1400   33.1600   39.1710 N   0  0  0  0  0  0  0  0  0  0  0  0
   40.1340   32.1550   38.2560 C   0  0  0  0  0  0  0  0  0  0  0  0
   41.0730   32.1540   37.2940 N   0  0  0  0  0  0  0  0  0  0  0  0
   42.7740   33.1380   36.4590 H   0  0  0  0  0  0  0  0  0  0  0  0
   42.7540   34.9670   38.1550 H   0  0  0  0  0  0  0  0  0  0  0  0
   41.0600   34.9390   39.8600 H   0  0  0  0  0  0  0  0  0  0  0  0
   36.5800   30.5070   41.6220 O   0  0  0  0  0  0  0  0  0  0  0  0
   37.1230   29.3690   41.8750 C   0  0  0  0  0  0  0  0  0  0  0  0
   38.3650   28.5400   41.9680 C   0  0  1  0  0  3  0  0  0  0  0  0
   38.0970   27.9510   43.3670 C   0  0  0  0  0  3  0  0  0  0  0  0
   38.2240   28.7260   44.1470 H   0  0  0  0  0  0  0  0  0  0  0  0
   36.6530   27.4740   43.2550 C   0  0  0  0  0  3  0  0  0  0  0  0
   36.1040   27.7330   44.2070 H   0  0  0  0  0  0  0  0  0  0  0  0
   36.1110   28.4060   42.2520 N   0  0  0  0  0  0  0  0  0  0  0  0
   35.0980   28.1640   42.0260 H   0  0  0  0  0  0  0  0  0  0  0  0
  1  6  1  0  0  0  0
  2  8  1  0  0  0  0
  2  3  1  0  0  0  0
  2  1  1  0  0  0  0
  3  4  1  0  0  0  0
  4  5  1  0  0  0  0
  4 11  1  0  0  0  0
  5 13  1  0  0  0  0
  6 14  1  1  0  0  0
  6  5  1  0  0  0  0
  6 36  1  0  0  0  0
  7  2  1  0  0  0  0
  9  3  1  0  0  0  0
 10  3  1  0  0  0  0
 12  5  1  0  0  0  0
 16 21  1  0  0  0  0
 16 15  1  0  0  0  0
 17 16  2  0  0  0  0
 18 19  2  0  0  0  0
 18 17  1  0  0  0  0
 19 20  1  0  0  0  0
 20 24  1  0  0  0  0
 20 21  2  0  0  0  0
 21  1  1  0  0  0  0
 22 18  1  0  0  0  0
 23 19  1  0  0  0  0
 25 30  2  0  0  0  0
 25 26  1  0  0  0  0
 26 32  1  0  0  0  0
 26 27  2  0  0  0  0
 27 28  1  0  0  0  0
 27 33  1  0  0  0  0
 29 17  1  0  0  0  0
 29 28  2  0  0  0  0
 30 29  1  0  0  0  0
 31 25  1  0  0  0  0
 34 35  2  0  0  0  0
 35 41  1  0  0  0  0
 36 35  1  6  0  0  0
 36 37  1  0  0  0  0
 37 38  1  0  0  0  0
 39 37  1  0  0  0  0
 39 40  1  0  0  0  0
 41 39  1  0  0  0  0
 42 41  1  0  0  0  0
M  END
>  <minimizedAffinity>
-5.73071194

$$$$

 OpenBabel03242510143D

 42 45  0  0  1  0  0  0  0  0999 V2000
   37.6040   29.3890   39.6090 N   0  0  0  0  0  0  0  0  0  0  0  0
   36.9180   28.7850   38.4840 C   0  0  0  0  0  0  0  0  0  0  0  0
   35.8900   27.7750   38.9420 C   0  0  0  0  0  0  0  0  0  0  0  0
   36.5060   26.6560   39.6510 N   0  0  0  0  0  0  0  0  0  0  0  0
   37.8410   27.0730   40.0320 C   0  0  0  0  0  0  0  0  0  0  0  0
   37.7360   28.4500   40.6990 C   0  0  1  0  0  0  0  0  0  0  0  0
   36.3520   29.5950   37.9750 H   0  0  0  0  0  0  0  0  0  0  0  0
   37.6290   28.3790   37.7500 H   0  0  0  0  0  0  0  0  0  0  0  0
   35.3780   27.4250   38.0190 H   0  0  0  0  0  0  0  0  0  0  0  0
   35.2040   28.3090   39.6330 H   0  0  0  0  0  0  0  0  0  0  0  0
   35.9830   26.5070   40.5640 H   0  0  0  0  0  0  0  0  0  0  0  0
   38.4830   27.1450   39.1210 H   0  0  0  0  0  0  0  0  0  0  0  0
   38.2820   26.3060   40.6600 H   0  0  0  0  0  0  0  0  0  0  0  0
   36.7430   28.4700   41.2320 H   0  0  0  0  0  0  0  0  0  0  0  0
   40.5490   29.7690   38.5820 Br  0  0  0  0  0  0  0  0  0  0  0  0
   39.3640   31.0940   39.2790 C   0  0  0  0  0  0  0  0  0  0  0  0
   39.7830   32.3990   39.3680 C   0  0  0  0  0  0  0  0  0  0  0  0
   38.9190   33.3950   39.8890 C   0  0  0  0  0  0  0  0  0  0  0  0
   37.6720   33.0160   40.2940 C   0  0  0  0  0  0  0  0  0  0  0  0
   37.3060   31.6970   40.1810 C   0  0  0  0  0  0  0  0  0  0  0  0
   38.1000   30.7270   39.6910 C   0  0  0  0  0  0  0  0  0  0  0  0
   39.3390   34.3840   39.9180 H   0  0  0  0  0  0  0  0  0  0  0  0
   37.0430   33.7840   40.6810 H   0  0  0  0  0  0  0  0  0  0  0  0
   36.2970   31.4770   40.5250 H   0  0  0  0  0  0  0  0  0  0  0  0
   42.5330   33.4850   37.2230 C   0  0  0  0  0  0  0  0  0  0  0  0
   43.6570   33.4250   38.0620 C   0  0  0  0  0  0  0  0  0  0  0  0
   43.4310   33.0040   39.3640 C   0  0  0  0  0  0  0  0  0  0  0  0
   42.1790   32.6770   39.7720 N   0  0  0  0  0  0  0  0  0  0  0  0
   41.1180   32.7500   38.9250 C   0  0  0  0  0  0  0  0  0  0  0  0
   41.3300   33.1580   37.6610 N   0  0  0  0  0  0  0  0  0  0  0  0
   42.7520   33.8190   36.2130 H   0  0  0  0  0  0  0  0  0  0  0  0
   44.6750   33.6720   37.7950 H   0  0  0  0  0  0  0  0  0  0  0  0
   44.2630   32.9410   40.0470 H   0  0  0  0  0  0  0  0  0  0  0  0
   39.1200   30.8510   43.0730 O   0  0  0  0  0  0  0  0  0  0  0  0
   38.6890   29.7280   42.6140 C   0  0  0  0  0  0  0  0  0  0  0  0
   38.8430   28.6050   41.6390 C   0  0  1  0  0  3  0  0  0  0  0  0
   38.7230   27.4520   42.6550 C   0  0  0  0  0  3  0  0  0  0  0  0
   39.6300   27.3950   43.2870 H   0  0  0  0  0  0  0  0  0  0  0  0
   37.4850   27.8420   43.4540 C   0  0  0  0  0  3  0  0  0  0  0  0
   37.6710   27.6360   44.5490 H   0  0  0  0  0  0  0  0  0  0  0  0
   37.5120   29.3100   43.3440 N   0  0  0  0  0  0  0  0  0  0  0  0
   36.6620   29.7370   43.8240 H   0  0  0  0  0  0  0  0  0  0  0  0
  1 21  1  0  0  0  0
  1  6  1  0  0  0  0
  2  3  1  0  0  0  0
  2  1  1  0  0  0  0
  3 10  1  0  0  0  0
  3  4  1  0  0  0  0
  4  5  1  0  0  0  0
  4 11  1  0  0  0  0
  5 13  1  0  0  0  0
  5  6  1  0  0  0  0
  6 14  1  1  0  0  0
  6 36  1  0  0  0  0
  7  2  1  0  0  0  0
  8  2  1  0  0  0  0
  9  3  1  0  0  0  0
 12  5  1  0  0  0  0
 15 16  1  0  0  0  0
 16 17  2  0  0  0  0
 16 21  1  0  0  0  0
 17 18  1  0  0  0  0
 18 22  1  0  0  0  0
 18 19  2  0  0  0  0
 19 23  1  0  0  0  0
 20 19  1  0  0  0  0
 20 24  1  0  0  0  0
 21 20  2  0  0  0  0
 25 30  2  0  0  0  0
 25 26  1  0  0  0  0
 26 27  2  0  0  0  0
 27 28  1  0  0  0  0
 27 33  1  0  0  0  0
 29 17  1  0  0  0  0
 29 28  2  0  0  0  0
 30 29  1  0  0  0  0
 31 25  1  0  0  0  0
 32 26  1  0  0  0  0
 35 34  2  0  0  0  0
 35 41  1  0  0  0  0
 36 35  1  1  0  0  0
 36 37  1  0  0  0  0
 37 38  1  0  0  0  0
 37 39  1  0  0  0  0
 39 40  1  0  0  0  0
 41 39  1  0  0  0  0
 41 42  1  0  0  0  0
M  END
>  <minimizedAffinity>
-5.64232779

$$$$

 OpenBabel03242510143D

 42 45  0  0  1  0  0  0  0  0999 V2000
   37.6350   29.3580   39.6870 N   0  0  0  0  0  0  0  0  0  0  0  0
   37.0790   28.8130   38.4650 C   0  0  0  0  0  0  0  0  0  0  0  0
   37.6890   29.4610   37.2430 C   0  0  0  0  0  0  0  0  0  0  0  0
   37.3960   30.8920   37.1840 N   0  0  0  0  0  0  0  0  0  0  0  0
   36.9640   31.2950   38.5070 C   0  0  0  0  0  0  0  0  0  0  0  0
   37.9750   30.7520   39.5240 C   0  0  1  0  0  0  0  0  0  0  0  0
   37.3700   27.7410   38.4250 H   0  0  0  0  0  0  0  0  0  0  0  0
   35.9790   28.8480   38.4730 H   0  0  0  0  0  0  0  0  0  0  0  0
   37.2520   28.9310   36.3690 H   0  0  0  0  0  0  0  0  0  0  0  0
   38.7880   29.3180   37.3220 H   0  0  0  0  0  0  0  0  0  0  0  0
   38.3050   31.4140   37.0100 H   0  0  0  0  0  0  0  0  0  0  0  0
   35.9540   30.8650   38.7150 H   0  0  0  0  0  0  0  0  0  0  0  0
   36.8490   32.3740   38.5240 H   0  0  0  0  0  0  0  0  0  0  0  0
   38.9770   30.7570   39.0090 H   0  0  0  0  0  0  0  0  0  0  0  0
   40.5460   28.2400   40.0800 Br  0  0  0  0  0  0  0  0  0  0  0  0
   39.0610   28.1080   41.2740 C   0  0  0  0  0  0  0  0  0  0  0  0
   39.2120   27.4590   42.4750 C   0  0  0  0  0  0  0  0  0  0  0  0
   38.1190   27.3460   43.3710 C   0  0  0  0  0  0  0  0  0  0  0  0
   36.9260   27.8960   43.0020 C   0  0  0  0  0  0  0  0  0  0  0  0
   36.8320   28.5330   41.7890 C   0  0  0  0  0  0  0  0  0  0  0  0
   37.8490   28.6600   40.9170 C   0  0  0  0  0  0  0  0  0  0  0  0
   38.3390   26.8200   44.2830 H   0  0  0  0  0  0  0  0  0  0  0  0
   36.1220   27.7960   43.6930 H   0  0  0  0  0  0  0  0  0  0  0  0
   35.8490   28.9450   41.5700 H   0  0  0  0  0  0  0  0  0  0  0  0
   41.9080   25.0330   42.9170 C   0  0  0  0  0  0  0  0  0  0  0  0
   42.9530   25.7900   43.4710 C   0  0  0  0  0  0  0  0  0  0  0  0
   42.6930   27.1360   43.6800 C   0  0  0  0  0  0  0  0  0  0  0  0
   41.4860   27.6610   43.3550 N   0  0  0  0  0  0  0  0  0  0  0  0
   40.5010   26.8910   42.8200 C   0  0  0  0  0  0  0  0  0  0  0  0
   40.7460   25.5850   42.6140 N   0  0  0  0  0  0  0  0  0  0  0  0
   42.1510   23.9850   42.7690 H   0  0  0  0  0  0  0  0  0  0  0  0
   43.9330   25.4290   43.7490 H   0  0  0  0  0  0  0  0  0  0  0  0
   43.4650   27.7590   44.1030 H   0  0  0  0  0  0  0  0  0  0  0  0
   39.8390   31.3440   42.6040 O   0  0  0  0  0  0  0  0  0  0  0  0
   39.2460   31.6020   41.4920 C   0  0  0  0  0  0  0  0  0  0  0  0
   37.9800   31.6240   40.6960 C   0  0  1  0  0  3  0  0  0  0  0  0
   38.1080   33.0670   40.1710 C   0  0  0  0  0  3  0  0  0  0  0  0
   37.9340   33.7950   40.9870 H   0  0  0  0  0  0  0  0  0  0  0  0
   39.5430   33.1070   39.6590 C   0  0  0  0  0  3  0  0  0  0  0  0
   40.0140   34.0910   39.9520 H   0  0  0  0  0  0  0  0  0  0  0  0
   40.1960   32.1120   40.5270 N   0  0  0  0  0  0  0  0  0  0  0  0
   41.2180   31.9900   40.2530 H   0  0  0  0  0  0  0  0  0  0  0  0
  1 21  1  0  0  0  0
  2  8  1  0  0  0  0
  2  1  1  0  0  0  0
  3 10  1  0  0  0  0
  3  2  1  0  0  0  0
  4  3  1  0  0  0  0
  4  5  1  0  0  0  0
  5 13  1  0  0  0  0
  5 12  1  0  0  0  0
  5  6  1  0  0  0  0
  6 14  1  6  0  0  0
  6  1  1  0  0  0  0
  6 36  1  0  0  0  0
  7  2  1  0  0  0  0
  9  3  1  0  0  0  0
 11  4  1  0  0  0  0
 15 16  1  0  0  0  0
 16 17  1  0  0  0  0
 17 29  1  0  0  0  0
 17 18  2  0  0  0  0
 18 22  1  0  0  0  0
 19 18  1  0  0  0  0
 19 23  1  0  0  0  0
 20 19  2  0  0  0  0
 21 16  2  0  0  0  0
 21 20  1  0  0  0  0
 24 20  1  0  0  0  0
 25 26  1  0  0  0  0
 26 27  2  0  0  0  0
 26 32  1  0  0  0  0
 27 33  1  0  0  0  0
 28 27  1  0  0  0  0
 29 28  2  0  0  0  0
 30 29  1  0  0  0  0
 30 25  2  0  0  0  0
 31 25  1  0  0  0  0
 35 34  2  0  0  0  0
 36 37  1  6  0  0  0
 36 35  1  0  0  0  0
 37 38  1  0  0  0  0
 39 40  1  0  0  0  0
 39 37  1  0  0  0  0
 39 41  1  0  0  0  0
 41 35  1  0  0  0  0
 42 41  1  0  0  0  0
M  END
>  <minimizedAffinity>
-5.55725336

$$$$

 OpenBabel03242510143D

 42 45  0  0  1  0  0  0  0  0999 V2000
   37.9870   30.5810   40.5760 N   0  0  0  0  0  0  0  0  0  0  0  0
   38.3710   31.9730   40.6980 C   0  0  0  0  0  0  0  0  0  0  0  0
   37.4270   32.8740   39.9320 C   0  0  0  0  0  0  0  0  0  0  0  0
   37.4590   32.5990   38.4970 N   0  0  0  0  0  0  0  0  0  0  0  0
   38.0750   31.2990   38.3230 C   0  0  0  0  0  0  0  0  0  0  0  0
   37.3940   30.3180   39.2860 C   0  0  1  0  0  0  0  0  0  0  0  0
   38.2610   32.2490   41.7690 H   0  0  0  0  0  0  0  0  0  0  0  0
   39.4270   32.1250   40.4330 H   0  0  0  0  0  0  0  0  0  0  0  0
   37.7630   33.9130   40.1430 H   0  0  0  0  0  0  0  0  0  0  0  0
   36.4070   32.6690   40.3190 H   0  0  0  0  0  0  0  0  0  0  0  0
   36.4600   32.4880   38.1530 H   0  0  0  0  0  0  0  0  0  0  0  0
   39.1630   31.3670   38.5650 H   0  0  0  0  0  0  0  0  0  0  0  0
   38.0080   31.0160   37.2780 H   0  0  0  0  0  0  0  0  0  0  0  0
   36.3220   30.6550   39.3770 H   0  0  0  0  0  0  0  0  0  0  0  0
   40.7670   29.1170   40.5310 Br  0  0  0  0  0  0  0  0  0  0  0  0
   39.2960   28.8160   41.7100 C   0  0  0  0  0  0  0  0  0  0  0  0
   39.3950   27.8570   42.6890 C   0  0  0  0  0  0  0  0  0  0  0  0
   38.3110   27.6160   43.5690 C   0  0  0  0  0  0  0  0  0  0  0  0
   37.1780   28.3600   43.4120 C   0  0  0  0  0  0  0  0  0  0  0  0
   37.1340   29.3060   42.4170 C   0  0  0  0  0  0  0  0  0  0  0  0
   38.1440   29.5600   41.5660 C   0  0  0  0  0  0  0  0  0  0  0  0
   38.4870   26.8460   44.2990 H   0  0  0  0  0  0  0  0  0  0  0  0
   36.3790   28.1580   44.0870 H   0  0  0  0  0  0  0  0  0  0  0  0
   36.1970   29.8560   42.3580 H   0  0  0  0  0  0  0  0  0  0  0  0
   41.8520   25.1830   42.2850 C   0  0  0  0  0  0  0  0  0  0  0  0
   42.9520   25.6210   43.0400 C   0  0  0  0  0  0  0  0  0  0  0  0
   42.8120   26.8450   43.6770 C   0  0  0  0  0  0  0  0  0  0  0  0
   41.6630   27.5550   43.5560 N   0  0  0  0  0  0  0  0  0  0  0  0
   40.6220   27.0920   42.8140 C   0  0  0  0  0  0  0  0  0  0  0  0
   40.7500   25.9060   42.1930 N   0  0  0  0  0  0  0  0  0  0  0  0
   42.0010   24.2210   41.8030 H   0  0  0  0  0  0  0  0  0  0  0  0
   43.8910   25.1020   43.1740 H   0  0  0  0  0  0  0  0  0  0  0  0
   43.6290   27.2250   44.2690 H   0  0  0  0  0  0  0  0  0  0  0  0
   36.2400   26.9140   39.9130 O   0  0  0  0  0  0  0  0  0  0  0  0
   36.4770   28.0010   39.2660 C   0  0  0  0  0  0  0  0  0  0  0  0
   37.4790   28.9720   38.7260 C   0  0  1  0  0  3  0  0  0  0  0  0
   36.9140   29.0530   37.2950 C   0  0  0  0  0  3  0  0  0  0  0  0
   37.1140   28.1140   36.7430 H   0  0  0  0  0  0  0  0  0  0  0  0
   35.4250   29.2730   37.5380 C   0  0  0  0  0  3  0  0  0  0  0  0
   34.8340   28.6460   36.8080 H   0  0  0  0  0  0  0  0  0  0  0  0
   35.2350   28.6070   38.8370 N   0  0  0  0  0  0  0  0  0  0  0  0
   34.2300   28.7190   39.1720 H   0  0  0  0  0  0  0  0  0  0  0  0
  1  2  1  0  0  0  0
  1 21  1  0  0  0  0
  2  7  1  0  0  0  0
  3  9  1  0  0  0  0
  3 10  1  0  0  0  0
  3  2  1  0  0  0  0
  4  3  1  0  0  0  0
  5  4  1  0  0  0  0
  5 12  1  0  0  0  0
  5  6  1  0  0  0  0
  6 14  1  1  0  0  0
  6  1  1  0  0  0  0
  8  2  1  0  0  0  0
 11  4  1  0  0  0  0
 13  5  1  0  0  0  0
 15 16  1  0  0  0  0
 16 17  1  0  0  0  0
 17 29  1  0  0  0  0
 17 18  2  0  0  0  0
 18 22  1  0  0  0  0
 19 18  1  0  0  0  0
 19 23  1  0  0  0  0
 20 19  2  0  0  0  0
 21 16  2  0  0  0  0
 21 20  1  0  0  0  0
 24 20  1  0  0  0  0
 25 26  1  0  0  0  0
 26 32  1  0  0  0  0
 26 27  2  0  0  0  0
 27 33  1  0  0  0  0
 28 27  1  0  0  0  0
 29 28  2  0  0  0  0
 30 25  2  0  0  0  0
 30 29  1  0  0  0  0
 31 25  1  0  0  0  0
 35 34  2  0  0  0  0
 36 37  1  6  0  0  0
 36 35  1  0  0  0  0
 36  6  1  0  0  0  0
 37 39  1  0  0  0  0
 38 37  1  0  0  0  0
 39 41  1  0  0  0  0
 40 39  1  0  0  0  0
 41 42  1  0  0  0  0
 41 35  1  0  0  0  0
M  END
>  <minimizedAffinity>
-5.48570061

$$$$

 OpenBabel03242510143D

 42 45  0  0  1  0  0  0  0  0999 V2000
   40.6260   30.7350   38.0800 N   0  0  0  0  0  0  0  0  0  0  0  0
   41.3930   29.9330   37.1480 C   0  0  0  0  0  0  0  0  0  0  0  0
   42.8720   29.9870   37.4600 C   0  0  0  0  0  0  0  0  0  0  0  0
   43.4070   31.3400   37.3210 N   0  0  0  0  0  0  0  0  0  0  0  0
   42.2780   32.2490   37.3220 C   0  0  0  0  0  0  0  0  0  0  0  0
   41.3790   31.8890   38.5110 C   0  0  1  0  0  0  0  0  0  0  0  0
   41.0840   28.8760   37.2970 H   0  0  0  0  0  0  0  0  0  0  0  0
   41.1590   30.1930   36.1050 H   0  0  0  0  0  0  0  0  0  0  0  0
   43.3590   29.2930   36.7410 H   0  0  0  0  0  0  0  0  0  0  0  0
   42.9870   29.6580   38.5140 H   0  0  0  0  0  0  0  0  0  0  0  0
   43.9610   31.5740   38.1970 H   0  0  0  0  0  0  0  0  0  0  0  0
   41.7060   32.1320   36.3700 H   0  0  0  0  0  0  0  0  0  0  0  0
   42.6500   33.2680   37.3360 H   0  0  0  0  0  0  0  0  0  0  0  0
   42.0630   31.5120   39.3240 H   0  0  0  0  0  0  0  0  0  0  0  0
   40.4830   29.0360   40.7190 Br  0  0  0  0  0  0  0  0  0  0  0  0
   39.0360   29.7490   39.6970 C   0  0  0  0  0  0  0  0  0  0  0  0
   37.7440   29.5360   40.1090 C   0  0  0  0  0  0  0  0  0  0  0  0
   36.6570   30.0520   39.3590 C   0  0  0  0  0  0  0  0  0  0  0  0
   36.9370   30.7600   38.2270 C   0  0  0  0  0  0  0  0  0  0  0  0
   38.2490   30.9440   37.8620 C   0  0  0  0  0  0  0  0  0  0  0  0
   39.3020   30.4680   38.5510 C   0  0  0  0  0  0  0  0  0  0  0  0
   35.6860   29.8310   39.7640 H   0  0  0  0  0  0  0  0  0  0  0  0
   36.1030   31.1370   37.6830 H   0  0  0  0  0  0  0  0  0  0  0  0
   38.3880   31.5180   36.9490 H   0  0  0  0  0  0  0  0  0  0  0  0
   36.9670   26.7450   42.3350 C   0  0  0  0  0  0  0  0  0  0  0  0
   37.0300   27.3110   43.6180 C   0  0  0  0  0  0  0  0  0  0  0  0
   37.3440   28.6600   43.6800 C   0  0  0  0  0  0  0  0  0  0  0  0
   37.5710   29.3650   42.5430 N   0  0  0  0  0  0  0  0  0  0  0  0
   37.4990   28.7760   41.3200 C   0  0  0  0  0  0  0  0  0  0  0  0
   37.1960   27.4670   41.2530 N   0  0  0  0  0  0  0  0  0  0  0  0
   36.7190   25.6870   42.3300 H   0  0  0  0  0  0  0  0  0  0  0  0
   36.8600   26.8020   44.5570 H   0  0  0  0  0  0  0  0  0  0  0  0
   37.4040   29.1420   44.6430 H   0  0  0  0  0  0  0  0  0  0  0  0
   39.0470   33.0270   41.0760 O   0  0  0  0  0  0  0  0  0  0  0  0
   40.0870   33.0180   40.3180 C   0  0  0  0  0  0  0  0  0  0  0  0
   40.6600   33.0870   38.9380 C   0  0  1  0  0  3  0  0  0  0  0  0
   41.7270   34.1610   39.2280 C   0  0  0  0  0  3  0  0  0  0  0  0
   41.2520   35.1500   39.3790 H   0  0  0  0  0  0  0  0  0  0  0  0
   42.3880   33.6380   40.4980 C   0  0  0  0  0  3  0  0  0  0  0  0
   42.5710   34.5010   41.2020 H   0  0  0  0  0  0  0  0  0  0  0  0
   41.2850   32.8830   41.1170 N   0  0  0  0  0  0  0  0  0  0  0  0
   41.6140   32.4080   42.0110 H   0  0  0  0  0  0  0  0  0  0  0  0
  1  6  1  0  0  0  0
  1 21  1  0  0  0  0
  2  7  1  0  0  0  0
  2  3  1  0  0  0  0
  2  1  1  0  0  0  0
  3 10  1  0  0  0  0
  4  5  1  0  0  0  0
  4  3  1  0  0  0  0
  4 11  1  0  0  0  0
  5 13  1  0  0  0  0
  5  6  1  0  0  0  0
  6 36  1  0  0  0  0
  6 14  1  1  0  0  0
  8  2  1  0  0  0  0
  9  3  1  0  0  0  0
 12  5  1  0  0  0  0
 16 17  1  0  0  0  0
 16 15  1  0  0  0  0
 17 29  1  0  0  0  0
 18 22  1  0  0  0  0
 18 17  2  0  0  0  0
 19 18  1  0  0  0  0
 20 19  2  0  0  0  0
 20 21  1  0  0  0  0
 21 16  2  0  0  0  0
 23 19  1  0  0  0  0
 24 20  1  0  0  0  0
 25 26  1  0  0  0  0
 26 27  2  0  0  0  0
 26 32  1  0  0  0  0
 27 33  1  0  0  0  0
 28 27  1  0  0  0  0
 29 28  2  0  0  0  0
 30 29  1  0  0  0  0
 30 25  2  0  0  0  0
 31 25  1  0  0  0  0
 35 34  2  0  0  0  0
 35 41  1  0  0  0  0
 36 37  1  1  0  0  0
 36 35  1  0  0  0  0
 37 38  1  0  0  0  0
 37 39  1  0  0  0  0
 39 41  1  0  0  0  0
 39 40  1  0  0  0  0
 41 42  1  0  0  0  0
M  END
>  <minimizedAffinity>
-5.46393776

$$$$

 OpenBabel03242510143D

 42 45  0  0  1  0  0  0  0  0999 V2000
   39.0300   30.8490   39.2070 N   0  0  0  0  0  0  0  0  0  0  0  0
   37.9480   31.6720   38.7040 C   0  0  0  0  0  0  0  0  0  0  0  0
   37.8880   31.6420   37.1940 C   0  0  0  0  0  0  0  0  0  0  0  0
   39.0960   32.1990   36.5900 N   0  0  0  0  0  0  0  0  0  0  0  0
   40.1150   32.2290   37.6210 C   0  0  0  0  0  0  0  0  0  0  0  0
   40.1490   30.8510   38.2950 C   0  0  1  0  0  0  0  0  0  0  0  0
   36.9990   31.2170   39.0620 H   0  0  0  0  0  0  0  0  0  0  0  0
   37.9920   32.6910   39.1170 H   0  0  0  0  0  0  0  0  0  0  0  0
   36.9940   32.2400   36.9140 H   0  0  0  0  0  0  0  0  0  0  0  0
   37.7940   30.5750   36.9000 H   0  0  0  0  0  0  0  0  0  0  0  0
   39.4530   31.5170   35.8580 H   0  0  0  0  0  0  0  0  0  0  0  0
   39.8580   33.0100   38.3770 H   0  0  0  0  0  0  0  0  0  0  0  0
   41.0570   32.5300   37.1740 H   0  0  0  0  0  0  0  0  0  0  0  0
   39.8850   30.1010   37.4970 H   0  0  0  0  0  0  0  0  0  0  0  0
   38.2830   27.8110   38.9150 Br  0  0  0  0  0  0  0  0  0  0  0  0
   38.7550   28.7610   40.5020 C   0  0  0  0  0  0  0  0  0  0  0  0
   38.7970   28.0960   41.7040 C   0  0  0  0  0  0  0  0  0  0  0  0
   39.1390   28.7870   42.8940 C   0  0  0  0  0  0  0  0  0  0  0  0
   39.4210   30.1190   42.8050 C   0  0  0  0  0  0  0  0  0  0  0  0
   39.3640   30.7330   41.5770 C   0  0  0  0  0  0  0  0  0  0  0  0
   39.0440   30.1070   40.4300 C   0  0  0  0  0  0  0  0  0  0  0  0
   39.1440   28.1790   43.7800 H   0  0  0  0  0  0  0  0  0  0  0  0
   39.6750   30.6130   43.7140 H   0  0  0  0  0  0  0  0  0  0  0  0
   39.6010   31.7940   41.5920 H   0  0  0  0  0  0  0  0  0  0  0  0
   39.2070   24.4690   41.5590 C   0  0  0  0  0  0  0  0  0  0  0  0
   37.9190   23.9750   41.8200 C   0  0  0  0  0  0  0  0  0  0  0  0
   36.9310   24.9220   42.0410 C   0  0  0  0  0  0  0  0  0  0  0  0
   37.2260   26.2450   42.0010 N   0  0  0  0  0  0  0  0  0  0  0  0
   38.4890   26.6800   41.7450 C   0  0  0  0  0  0  0  0  0  0  0  0
   39.4530   25.7670   41.5290 N   0  0  0  0  0  0  0  0  0  0  0  0
   39.9520   23.6960   41.3910 H   0  0  0  0  0  0  0  0  0  0  0  0
   37.6240   22.9360   41.8640 H   0  0  0  0  0  0  0  0  0  0  0  0
   35.9250   24.5920   42.2460 H   0  0  0  0  0  0  0  0  0  0  0  0
   42.2270   28.1790   39.6570 O   0  0  0  0  0  0  0  0  0  0  0  0
   41.8850   29.1750   38.9170 C   0  0  0  0  0  0  0  0  0  0  0  0
   41.4920   30.6150   38.8180 C   0  0  1  0  0  3  0  0  0  0  0  0
   42.4760   31.0050   37.6980 C   0  0  0  0  0  3  0  0  0  0  0  0
   43.5140   31.0280   38.0820 H   0  0  0  0  0  0  0  0  0  0  0  0
   42.2660   29.8980   36.6710 C   0  0  0  0  0  3  0  0  0  0  0  0
   43.2670   29.5820   36.2570 H   0  0  0  0  0  0  0  0  0  0  0  0
   41.8490   28.7750   37.5280 N   0  0  0  0  0  0  0  0  0  0  0  0
   41.6130   27.9210   36.9360 H   0  0  0  0  0  0  0  0  0  0  0  0
  1 21  1  0  0  0  0
  2  7  1  0  0  0  0
  2  8  1  0  0  0  0
  2  1  1  0  0  0  0
  3  2  1  0  0  0  0
  4  3  1  0  0  0  0
  4  5  1  0  0  0  0
  5  6  1  0  0  0  0
  5 12  1  0  0  0  0
  6 14  1  6  0  0  0
  6 36  1  0  0  0  0
  6  1  1  0  0  0  0
  9  3  1  0  0  0  0
 10  3  1  0  0  0  0
 11  4  1  0  0  0  0
 13  5  1  0  0  0  0
 15 16  1  0  0  0  0
 16 17  1  0  0  0  0
 17 29  1  0  0  0  0
 17 18  2  0  0  0  0
 18 22  1  0  0  0  0
 19 18  1  0  0  0  0
 19 23  1  0  0  0  0
 20 24  1  0  0  0  0
 20 19  2  0  0  0  0
 21 16  2  0  0  0  0
 21 20  1  0  0  0  0
 25 26  1  0  0  0  0
 26 32  1  0  0  0  0
 26 27  2  0  0  0  0
 27 33  1  0  0  0  0
 28 27  1  0  0  0  0
 29 28  2  0  0  0  0
 30 25  2  0  0  0  0
 30 29  1  0  0  0  0
 31 25  1  0  0  0  0
 35 34  2  0  0  0  0
 36 37  1  6  0  0  0
 36 35  1  0  0  0  0
 37 38  1  0  0  0  0
 39 41  1  0  0  0  0
 39 37  1  0  0  0  0
 40 39  1  0  0  0  0
 41 35  1  0  0  0  0
 42 41  1  0  0  0  0
M  END
>  <minimizedAffinity>
-5.41200304

$$$$

 OpenBabel03242510143D

 42 45  0  0  1  0  0  0  0  0999 V2000
   37.7350   30.5150   40.8180 N   0  0  0  0  0  0  0  0  0  0  0  0
   36.6520   31.2820   40.2350 C   0  0  0  0  0  0  0  0  0  0  0  0
   37.1050   32.0240   38.9980 C   0  0  0  0  0  0  0  0  0  0  0  0
   38.1390   33.0100   39.3050 N   0  0  0  0  0  0  0  0  0  0  0  0
   38.6750   32.6770   40.6100 C   0  0  0  0  0  0  0  0  0  0  0  0
   39.0030   31.1780   40.6210 C   0  0  1  0  0  0  0  0  0  0  0  0
   35.8840   30.5530   39.8950 H   0  0  0  0  0  0  0  0  0  0  0  0
   36.1710   31.9320   40.9810 H   0  0  0  0  0  0  0  0  0  0  0  0
   36.1960   32.5190   38.5920 H   0  0  0  0  0  0  0  0  0  0  0  0
   37.5210   31.2640   38.3050 H   0  0  0  0  0  0  0  0  0  0  0  0
   38.9450   32.8750   38.6250 H   0  0  0  0  0  0  0  0  0  0  0  0
   37.9100   32.8990   41.3940 H   0  0  0  0  0  0  0  0  0  0  0  0
   39.5230   33.3200   40.8150 H   0  0  0  0  0  0  0  0  0  0  0  0
   39.3170   30.9140   39.5710 H   0  0  0  0  0  0  0  0  0  0  0  0
   38.0230   27.9800   38.9860 Br  0  0  0  0  0  0  0  0  0  0  0  0
   37.7370   28.0430   40.8720 C   0  0  0  0  0  0  0  0  0  0  0  0
   37.6380   26.8730   41.5840 C   0  0  0  0  0  0  0  0  0  0  0  0
   37.4190   26.9010   42.9840 C   0  0  0  0  0  0  0  0  0  0  0  0
   37.3100   28.1170   43.5930 C   0  0  0  0  0  0  0  0  0  0  0  0
   37.4180   29.2560   42.8320 C   0  0  0  0  0  0  0  0  0  0  0  0
   37.6260   29.2640   41.5030 C   0  0  0  0  0  0  0  0  0  0  0  0
   37.3560   25.9330   43.4480 H   0  0  0  0  0  0  0  0  0  0  0  0
   37.1460   28.1100   44.6450 H   0  0  0  0  0  0  0  0  0  0  0  0
   37.3210   30.1840   43.3920 H   0  0  0  0  0  0  0  0  0  0  0  0
   36.7380   23.8150   39.7970 C   0  0  0  0  0  0  0  0  0  0  0  0
   37.9720   23.1890   39.5620 C   0  0  0  0  0  0  0  0  0  0  0  0
   39.0970   23.8490   40.0340 C   0  0  0  0  0  0  0  0  0  0  0  0
   38.9760   25.0340   40.6830 N   0  0  0  0  0  0  0  0  0  0  0  0
   37.7590   25.6050   40.8890 C   0  0  0  0  0  0  0  0  0  0  0  0
   36.6650   24.9710   40.4340 N   0  0  0  0  0  0  0  0  0  0  0  0
   35.8830   23.2670   39.4130 H   0  0  0  0  0  0  0  0  0  0  0  0
   38.1310   22.2480   39.0530 H   0  0  0  0  0  0  0  0  0  0  0  0
   40.0680   23.4080   39.8780 H   0  0  0  0  0  0  0  0  0  0  0  0
   41.2360   28.5280   41.7600 O   0  0  0  0  0  0  0  0  0  0  0  0
   40.8640   29.6850   41.3370 C   0  0  0  0  0  0  0  0  0  0  0  0
   40.0840   30.9390   41.5730 C   0  0  1  0  0  3  0  0  0  0  0  0
   41.2090   31.9320   41.2200 C   0  0  0  0  0  3  0  0  0  0  0  0
   41.9850   31.9380   42.0090 H   0  0  0  0  0  0  0  0  0  0  0  0
   41.7330   31.3840   39.8980 C   0  0  0  0  0  3  0  0  0  0  0  0
   42.8610   31.4420   39.8950 H   0  0  0  0  0  0  0  0  0  0  0  0
   41.4370   29.9480   40.0350 N   0  0  0  0  0  0  0  0  0  0  0  0
   41.7100   29.4240   39.1480 H   0  0  0  0  0  0  0  0  0  0  0  0
  1 21  1  0  0  0  0
  2  1  1  0  0  0  0
  2  8  1  0  0  0  0
  3  4  1  0  0  0  0
  3  2  1  0  0  0  0
  4  5  1  0  0  0  0
  5  6  1  0  0  0  0
  5 13  1  0  0  0  0
  5 12  1  0  0  0  0
  6 14  1  6  0  0  0
  6  1  1  0  0  0  0
  6 36  1  0  0  0  0
  7  2  1  0  0  0  0
  9  3  1  0  0  0  0
 10  3  1  0  0  0  0
 11  4  1  0  0  0  0
 15 16  1  0  0  0  0
 16 21  2  0  0  0  0
 16 17  1  0  0  0  0
 17 18  2  0  0  0  0
 18 22  1  0  0  0  0
 18 19  1  0  0  0  0
 19 23  1  0  0  0  0
 20 24  1  0  0  0  0
 20 19  2  0  0  0  0
 21 20  1  0  0  0  0
 25 30  1  0  0  0  0
 26 25  2  0  0  0  0
 26 27  1  0  0  0  0
 27 28  2  0  0  0  0
 28 29  1  0  0  0  0
 29 17  1  0  0  0  0
 30 29  2  0  0  0  0
 31 25  1  0  0  0  0
 32 26  1  0  0  0  0
 33 27  1  0  0  0  0
 35 36  1  0  0  0  0
 35 34  2  0  0  0  0
 36 37  1  6  0  0  0
 37 38  1  0  0  0  0
 39 41  1  0  0  0  0
 39 37  1  0  0  0  0
 40 39  1  0  0  0  0
 41 35  1  0  0  0  0
 42 41  1  0  0  0  0
M  END
>  <minimizedAffinity>
-5.38731956

$$$$

 OpenBabel03242510143D

 42 45  0  0  1  0  0  0  0  0999 V2000
   38.0140   29.4800   41.5380 N   0  0  0  0  0  0  0  0  0  0  0  0
   38.1930   29.3000   42.9650 C   0  0  0  0  0  0  0  0  0  0  0  0
   38.8120   27.9560   43.2780 C   0  0  0  0  0  0  0  0  0  0  0  0
   37.9470   26.8510   42.8660 N   0  0  0  0  0  0  0  0  0  0  0  0
   36.9740   27.3920   41.9390 C   0  0  0  0  0  0  0  0  0  0  0  0
   37.7260   28.2210   40.8900 C   0  0  1  0  0  0  0  0  0  0  0  0
   38.9280   30.0640   43.2990 H   0  0  0  0  0  0  0  0  0  0  0  0
   37.2600   29.4880   43.5160 H   0  0  0  0  0  0  0  0  0  0  0  0
   38.9700   27.9440   44.3780 H   0  0  0  0  0  0  0  0  0  0  0  0
   39.7640   27.9030   42.7100 H   0  0  0  0  0  0  0  0  0  0  0  0
   38.5270   26.1630   42.3010 H   0  0  0  0  0  0  0  0  0  0  0  0
   36.2570   28.0470   42.4910 H   0  0  0  0  0  0  0  0  0  0  0  0
   36.3910   26.5750   41.5270 H   0  0  0  0  0  0  0  0  0  0  0  0
   38.7270   27.7230   40.7500 H   0  0  0  0  0  0  0  0  0  0  0  0
   40.8940   30.1990   40.5090 Br  0  0  0  0  0  0  0  0  0  0  0  0
   39.2770   31.1870   40.2730 C   0  0  0  0  0  0  0  0  0  0  0  0
   39.3000   32.3690   39.5730 C   0  0  0  0  0  0  0  0  0  0  0  0
   38.1100   33.1190   39.3940 C   0  0  0  0  0  0  0  0  0  0  0  0
   36.9560   32.6330   39.9350 C   0  0  0  0  0  0  0  0  0  0  0  0
   36.9910   31.4450   40.6250 C   0  0  0  0  0  0  0  0  0  0  0  0
   38.1020   30.7090   40.8130 C   0  0  0  0  0  0  0  0  0  0  0  0
   38.2330   34.0280   38.8330 H   0  0  0  0  0  0  0  0  0  0  0  0
   36.0780   33.2160   39.7850 H   0  0  0  0  0  0  0  0  0  0  0  0
   36.0310   31.1260   41.0250 H   0  0  0  0  0  0  0  0  0  0  0  0
   42.0420   32.9300   37.2260 C   0  0  0  0  0  0  0  0  0  0  0  0
   42.9380   33.7400   37.9430 C   0  0  0  0  0  0  0  0  0  0  0  0
   42.5630   34.0740   39.2350 C   0  0  0  0  0  0  0  0  0  0  0  0
   41.3900   33.6270   39.7480 N   0  0  0  0  0  0  0  0  0  0  0  0
   40.5530   32.8440   39.0180 C   0  0  0  0  0  0  0  0  0  0  0  0
   40.9090   32.5150   37.7630 N   0  0  0  0  0  0  0  0  0  0  0  0
   42.3720   32.6900   36.2190 H   0  0  0  0  0  0  0  0  0  0  0  0
   43.8830   34.1260   37.5880 H   0  0  0  0  0  0  0  0  0  0  0  0
   43.2170   34.6950   39.8270 H   0  0  0  0  0  0  0  0  0  0  0  0
   37.9800   29.2680   37.4040 O   0  0  0  0  0  0  0  0  0  0  0  0
   37.7550   28.5030   38.4140 C   0  0  0  0  0  0  0  0  0  0  0  0
   36.9570   28.2220   39.6490 C   0  0  1  0  0  3  0  0  0  0  0  0
   36.6300   26.7490   39.3330 C   0  0  0  0  0  3  0  0  0  0  0  0
   35.8950   26.6820   38.5080 H   0  0  0  0  0  0  0  0  0  0  0  0
   37.9910   26.1840   38.9400 C   0  0  0  0  0  3  0  0  0  0  0  0
   37.8650   25.5020   38.0490 H   0  0  0  0  0  0  0  0  0  0  0  0
   38.6630   27.3780   38.4010 N   0  0  0  0  0  0  0  0  0  0  0  0
   39.6650   27.1490   38.1210 H   0  0  0  0  0  0  0  0  0  0  0  0
  1  2  1  0  0  0  0
  2  3  1  0  0  0  0
  2  7  1  0  0  0  0
  2  8  1  0  0  0  0
  3  9  1  0  0  0  0
  4  3  1  0  0  0  0
  5 12  1  0  0  0  0
  5  4  1  0  0  0  0
  6 14  1  6  0  0  0
  6  1  1  0  0  0  0
  6  5  1  0  0  0  0
 10  3  1  0  0  0  0
 11  4  1  0  0  0  0
 13  5  1  0  0  0  0
 16 15  1  0  0  0  0
 16 21  1  0  0  0  0
 17 16  2  0  0  0  0
 18 17  1  0  0  0  0
 18 19  2  0  0  0  0
 19 20  1  0  0  0  0
 20 21  2  0  0  0  0
 20 24  1  0  0  0  0
 21  1  1  0  0  0  0
 22 18  1  0  0  0  0
 23 19  1  0  0  0  0
 25 30  2  0  0  0  0
 25 26  1  0  0  0  0
 26 27  2  0  0  0  0
 27 28  1  0  0  0  0
 27 33  1  0  0  0  0
 29 17  1  0  0  0  0
 29 28  2  0  0  0  0
 30 29  1  0  0  0  0
 31 25  1  0  0  0  0
 32 26  1  0  0  0  0
 34 35  2  0  0  0  0
 36 35  1  6  0  0  0
 36  6  1  0  0  0  0
 37 36  1  0  0  0  0
 38 37  1  0  0  0  0
 39 37  1  0  0  0  0
 40 39  1  0  0  0  0
 41 35  1  0  0  0  0
 41 39  1  0  0  0  0
 42 41  1  0  0  0  0
M  END
>  <minimizedAffinity>
-5.36100578

$$$$
