
 OpenBabel03252508233D

 48 51  0  0  1  0  0  0  0  0999 V2000
   45.5840   34.5180   41.4180 C   0  0  0  0  0  0  0  0  0  0  0  0
   46.2710   35.1600   42.4270 C   0  0  0  0  0  0  0  0  0  0  0  0
   45.6810   35.8020   43.4850 C   0  0  0  0  0  0  0  0  0  0  0  0
   44.2800   35.7810   43.5030 C   0  0  0  0  0  0  0  0  0  0  0  0
   43.5460   35.1590   42.5280 C   0  0  0  0  0  0  0  0  0  0  0  0
   44.1780   34.5330   41.4940 C   0  0  0  0  0  0  0  0  0  0  0  0
   47.3480   35.2080   42.4890 H   0  0  0  0  0  0  0  0  0  0  0  0
   46.1920   36.3080   44.2820 H   0  0  0  0  0  0  0  0  0  0  0  0
   43.7520   36.2790   44.3260 H   0  0  0  0  0  0  0  0  0  0  0  0
   42.4630   35.1910   42.6190 H   0  0  0  0  0  0  0  0  0  0  0  0
   43.3390   33.9160   40.5460 N   0  0  0  0  0  0  0  0  0  0  0  0
   42.8160   34.5690   39.3830 C   0  0  0  0  0  0  0  0  0  0  0  0
   42.3750   33.5610   38.3390 C   0  0  0  0  0  0  0  0  0  0  0  0
   43.2100   32.4120   38.2290 N   0  0  0  0  0  0  0  0  0  0  0  0
   43.4420   31.7300   39.4510 C   0  0  0  0  0  0  0  0  0  0  0  0
   42.8740   32.5210   40.6050 C   0  0  0  0  0  0  0  0  0  0  0  0
   43.3780   35.4050   38.9810 H   0  0  0  0  0  0  0  0  0  0  0  0
   41.8450   35.0310   39.7350 H   0  0  0  0  0  0  0  0  0  0  0  0
   42.4250   34.0890   37.3570 H   0  0  0  0  0  0  0  0  0  0  0  0
   41.3200   33.2180   38.4990 H   0  0  0  0  0  0  0  0  0  0  0  0
   42.8470   31.8430   37.4610 H   0  0  0  0  0  0  0  0  0  0  0  0
   43.0360   30.7140   39.5050 H   0  0  0  0  0  0  0  0  0  0  0  0
   44.5540   31.6860   39.6080 H   0  0  0  0  0  0  0  0  0  0  0  0
   41.7780   32.5140   40.5360 H   0  0  0  0  0  0  0  0  0  0  0  0
   43.1850   32.0650   41.5550 H   0  0  0  0  0  0  0  0  0  0  0  0
   46.2200   33.8360   40.2880 C   0  0  0  0  0  0  0  0  0  0  0  0
   45.6860   33.9290   39.3400 H   0  0  0  0  0  0  0  0  0  0  0  0
   46.1610   32.7360   40.5380 H   0  0  0  0  0  0  0  0  0  0  0  0
   47.6600   34.2720   40.1160 C   0  0  0  0  0  0  0  0  0  0  0  0
   47.8250   35.3330   40.0320 H   0  0  0  0  0  0  0  0  0  0  0  0
   48.2500   33.8240   40.9700 H   0  0  0  0  0  0  0  0  0  0  0  0
   48.4390   33.4870   36.5050 C   0  0  0  0  0  0  0  0  0  0  0  0
   47.8820   34.1160   37.6420 C   0  0  0  0  0  0  0  0  0  0  0  0
   48.2220   33.6280   38.9040 C   0  0  0  0  0  0  0  0  0  0  0  0
   49.0790   32.5620   38.9730 N   0  0  0  0  0  0  0  0  0  0  0  0
   49.5870   31.9910   37.8700 C   0  0  0  0  0  0  0  0  0  0  0  0
   49.2700   32.4490   36.6420 N   0  0  0  0  0  0  0  0  0  0  0  0
   48.1460   33.9000   35.5490 H   0  0  0  0  0  0  0  0  0  0  0  0
   47.2180   34.9470   37.5100 H   0  0  0  0  0  0  0  0  0  0  0  0
   51.6740   30.7050   35.7800 O   0  0  0  0  0  0  0  0  0  0  0  0
   51.6600   30.9220   37.0300 C   0  0  0  0  0  0  0  0  0  0  0  0
   50.5200   30.8290   37.9450 C   0  0  1  0  0  3  0  0  0  0  0  0
   51.1550   30.7330   39.3220 C   0  0  0  0  0  3  0  0  0  0  0  0
   50.4560   31.2260   40.0540 H   0  0  0  0  0  0  0  0  0  0  0  0
   52.4820   31.4410   39.2110 C   0  0  0  0  0  3  0  0  0  0  0  0
   52.3040   32.5180   39.4230 H   0  0  0  0  0  0  0  0  0  0  0  0
   52.7920   31.3120   37.8000 N   0  0  0  0  0  0  0  0  0  0  0  0
   53.7670   31.4960   37.4260 H   0  0  0  0  0  0  0  0  0  0  0  0
  1  6  2  0  0  0  0
  1  2  1  0  0  0  0
  2  7  1  0  0  0  0
  2  3  2  0  0  0  0
  3  4  1  0  0  0  0
  3  8  1  0  0  0  0
  4  9  1  0  0  0  0
  5 10  1  0  0  0  0
  5  4  2  0  0  0  0
  6  5  1  0  0  0  0
 11 16  1  0  0  0  0
 11  6  1  0  0  0  0
 12 18  1  0  0  0  0
 12 11  1  0  0  0  0
 13 20  1  0  0  0  0
 13 12  1  0  0  0  0
 14 13  1  0  0  0  0
 14 15  1  0  0  0  0
 15 22  1  0  0  0  0
 15 23  1  0  0  0  0
 15 16  1  0  0  0  0
 16 25  1  0  0  0  0
 17 12  1  0  0  0  0
 19 13  1  0  0  0  0
 21 14  1  0  0  0  0
 24 16  1  0  0  0  0
 26 28  1  0  0  0  0
 26  1  1  0  0  0  0
 27 26  1  0  0  0  0
 29 26  1  0  0  0  0
 29 31  1  0  0  0  0
 30 29  1  0  0  0  0
 32 37  2  0  0  0  0
 32 33  1  0  0  0  0
 33 34  2  0  0  0  0
 34 35  1  0  0  0  0
 34 29  1  0  0  0  0
 36 35  2  0  0  0  0
 37 36  1  0  0  0  0
 38 32  1  0  0  0  0
 39 33  1  0  0  0  0
 40 41  2  0  0  0  0
 41 47  1  0  0  0  0
 41 42  1  0  0  0  0
 42 36  1  1  0  0  0
 42 43  1  0  0  0  0
 43 44  1  0  0  0  0
 45 43  1  0  0  0  0
 45 46  1  0  0  0  0
 47 45  1  0  0  0  0
 48 47  1  0  0  0  0
M  END
>  <minimizedAffinity>
-4.91261911

>  <minimizedRMSD>
8.76604748

$$$$
