
 OpenBabel03242522553D

 40 42  0  0  1  0  0  0  0  0999 V2000
   37.3540   26.3300   39.0710 C   0  0  0  0  0  0  0  0  0  0  0  0
   36.1480   26.6050   39.4250 O   0  0  0  0  0  0  0  0  0  0  0  0
   37.2640   27.3510   38.0970 N   0  0  0  0  0  0  0  0  0  0  0  0
   38.0680   26.9120   36.9460 C   0  0  0  0  0  0  0  0  0  0  0  0
   38.0470   28.0540   35.9540 C   0  0  0  0  0  0  0  0  0  0  0  0
   38.2140   29.3260   36.6540 N   0  0  0  0  0  0  0  0  0  0  0  0
   36.9080   29.6170   37.1860 C   0  0  0  0  0  0  0  0  0  0  0  0
   36.5320   28.5870   38.1960 C   0  0  2  0  0  0  0  0  0  0  0  0
   39.0680   26.5880   37.2150 H   0  0  0  0  0  0  0  0  0  0  0  0
   37.4740   26.0990   36.4640 H   0  0  0  0  0  0  0  0  0  0  0  0
   38.9370   27.9070   35.3070 H   0  0  0  0  0  0  0  0  0  0  0  0
   37.1240   28.0770   35.3550 H   0  0  0  0  0  0  0  0  0  0  0  0
   38.5800   30.0660   36.0190 H   0  0  0  0  0  0  0  0  0  0  0  0
   36.9170   30.6600   37.5410 H   0  0  0  0  0  0  0  0  0  0  0  0
   36.1860   29.6030   36.3220 H   0  0  0  0  0  0  0  0  0  0  0  0
   35.4550   28.3510   38.0570 H   0  0  0  0  0  0  0  0  0  0  0  0
   34.0510   29.1930   39.9840 O   0  0  0  0  0  0  0  0  0  0  0  0
   35.2610   29.5680   40.0880 C   0  0  0  0  0  0  0  0  0  0  0  0
   36.6380   29.2520   39.5560 C   0  0  2  0  0  3  0  0  0  0  0  0
   37.2300   30.6110   39.3840 C   0  0  0  0  0  3  0  0  0  0  0  0
   38.3390   30.6300   39.3540 H   0  0  0  0  0  0  0  0  0  0  0  0
   36.8340   31.2920   40.6850 C   0  0  0  0  0  3  0  0  0  0  0  0
   37.5840   31.0680   41.4670 H   0  0  0  0  0  0  0  0  0  0  0  0
   35.5600   30.6550   40.9890 N   0  0  0  0  0  0  0  0  0  0  0  0
   35.0890   31.1050   41.8100 H   0  0  0  0  0  0  0  0  0  0  0  0
   37.8970   25.3140   39.8020 O   0  0  0  0  0  0  0  0  0  0  0  0
   35.8660   23.7550   40.4250 O   0  0  0  0  0  0  0  0  0  0  0  0
   37.2150   24.3320   40.9290 P   0  0  1  0  0  0  0  0  0  0  0  0
   38.1760   22.9920   41.2500 O   0  0  0  0  0  0  0  0  0  0  0  0
   37.9230   22.1980   40.6810 H   0  0  0  0  0  0  0  0  0  0  0  0
   36.8970   25.1790   42.3540 O   0  0  0  0  0  0  0  0  0  0  0  0
   37.3920   28.6620   43.2300 C   0  0  0  0  0  0  0  0  0  0  0  0
   36.7700   27.4350   42.9020 C   0  0  0  0  0  0  0  0  0  0  0  0
   37.5580   26.3360   42.6670 C   0  0  0  0  0  0  0  0  0  0  0  0
   38.9070   26.4650   42.7570 N   0  0  0  0  0  0  0  0  0  0  0  0
   39.4880   27.6430   43.0700 C   0  0  0  0  0  0  0  0  0  0  0  0
   38.7410   28.7340   43.3060 N   0  0  0  0  0  0  0  0  0  0  0  0
   36.8390   29.5670   43.4290 H   0  0  0  0  0  0  0  0  0  0  0  0
   35.6950   27.5300   42.8810 H   0  0  0  0  0  0  0  0  0  0  0  0
   40.5640   27.7210   43.1360 H   0  0  0  0  0  0  0  0  0  0  0  0
  1  2  2  0  0  0  0
  1 26  1  0  0  0  0
  3  8  1  0  0  0  0
  3  1  1  0  0  0  0
  4  9  1  0  0  0  0
  4  3  1  0  0  0  0
  5  6  1  0  0  0  0
  5  4  1  0  0  0  0
  6  7  1  0  0  0  0
  7 14  1  0  0  0  0
  7  8  1  0  0  0  0
  8 16  1  6  0  0  0
  8 19  1  0  0  0  0
 10  4  1  0  0  0  0
 11  5  1  0  0  0  0
 12  5  1  0  0  0  0
 13  6  1  0  0  0  0
 15  7  1  0  0  0  0
 17 18  2  0  0  0  0
 18 24  1  0  0  0  0
 19 20  1  6  0  0  0
 19 18  1  0  0  0  0
 20 22  1  0  0  0  0
 21 20  1  0  0  0  0
 22 24  1  0  0  0  0
 22 23  1  0  0  0  0
 24 25  1  0  0  0  0
 26 28  1  0  0  0  0
 28 27  2  6  0  0  0
 28 29  1  0  0  0  0
 28 31  1  0  0  0  0
 30 29  1  0  0  0  0
 31 34  1  0  0  0  0
 32 37  1  0  0  0  0
 32 38  1  0  0  0  0
 33 32  2  0  0  0  0
 34 35  2  0  0  0  0
 34 33  1  0  0  0  0
 35 36  1  0  0  0  0
 36 40  1  0  0  0  0
 36 37  2  0  0  0  0
 39 33  1  0  0  0  0
M  END
>  <minimizedAffinity>
-6.03209448

$$$$

 OpenBabel03242522553D

 40 42  0  0  1  0  0  0  0  0999 V2000
   37.9540   29.3620   40.2860 C   0  0  0  0  0  0  0  0  0  0  0  0
   37.7110   30.4690   40.8950 O   0  0  0  0  0  0  0  0  0  0  0  0
   37.5630   29.9810   39.0770 N   0  0  0  0  0  0  0  0  0  0  0  0
   36.9260   28.9420   38.2540 C   0  0  0  0  0  0  0  0  0  0  0  0
   36.6040   29.5900   36.9260 C   0  0  0  0  0  0  0  0  0  0  0  0
   37.7210   30.4300   36.4960 N   0  0  0  0  0  0  0  0  0  0  0  0
   37.5680   31.6450   37.2540 C   0  0  0  0  0  0  0  0  0  0  0  0
   37.7430   31.3610   38.7060 C   0  0  2  0  0  0  0  0  0  0  0  0
   37.5210   28.0370   38.1640 H   0  0  0  0  0  0  0  0  0  0  0  0
   35.9360   28.7510   38.7310 H   0  0  0  0  0  0  0  0  0  0  0  0
   36.5120   28.7570   36.1980 H   0  0  0  0  0  0  0  0  0  0  0  0
   35.6810   30.1880   36.9600 H   0  0  0  0  0  0  0  0  0  0  0  0
   37.7140   30.5770   35.4660 H   0  0  0  0  0  0  0  0  0  0  0  0
   38.2510   32.3950   36.8230 H   0  0  0  0  0  0  0  0  0  0  0  0
   36.5310   32.0350   37.0510 H   0  0  0  0  0  0  0  0  0  0  0  0
   36.9910   31.9590   39.2640 H   0  0  0  0  0  0  0  0  0  0  0  0
   38.0870   34.1600   40.0350 O   0  0  0  0  0  0  0  0  0  0  0  0
   38.9470   33.3600   39.5500 C   0  0  0  0  0  0  0  0  0  0  0  0
   39.0950   31.9270   39.1000 C   0  0  2  0  0  3  0  0  0  0  0  0
   39.9360   32.0650   37.8760 C   0  0  0  0  0  3  0  0  0  0  0  0
   40.4750   31.1410   37.5800 H   0  0  0  0  0  0  0  0  0  0  0  0
   41.0050   33.0440   38.3380 C   0  0  0  0  0  3  0  0  0  0  0  0
   41.8250   32.4920   38.8350 H   0  0  0  0  0  0  0  0  0  0  0  0
   40.2740   33.8640   39.2950 N   0  0  0  0  0  0  0  0  0  0  0  0
   40.8490   34.6770   39.6240 H   0  0  0  0  0  0  0  0  0  0  0  0
   38.3950   28.3850   41.1300 O   0  0  0  0  0  0  0  0  0  0  0  0
   39.2060   27.9750   43.6040 O   0  0  0  0  0  0  0  0  0  0  0  0
   37.9630   28.0410   42.6780 P   0  0  1  0  0  0  0  0  0  0  0  0
   36.9880   29.2420   43.3330 O   0  0  0  0  0  0  0  0  0  0  0  0
   37.5230   29.9330   43.8370 H   0  0  0  0  0  0  0  0  0  0  0  0
   37.1900   26.5440   42.7700 O   0  0  0  0  0  0  0  0  0  0  0  0
   37.0680   23.5150   40.7810 C   0  0  0  0  0  0  0  0  0  0  0  0
   36.6710   24.6540   41.5180 C   0  0  0  0  0  0  0  0  0  0  0  0
   37.6380   25.4570   42.0690 C   0  0  0  0  0  0  0  0  0  0  0  0
   38.9440   25.1290   41.8870 N   0  0  0  0  0  0  0  0  0  0  0  0
   39.3100   24.0380   41.1820 C   0  0  0  0  0  0  0  0  0  0  0  0
   38.3840   23.2350   40.6310 N   0  0  0  0  0  0  0  0  0  0  0  0
   36.3660   22.8380   40.3190 H   0  0  0  0  0  0  0  0  0  0  0  0
   35.5960   24.7480   41.5500 H   0  0  0  0  0  0  0  0  0  0  0  0
   40.3560   23.7970   41.0510 H   0  0  0  0  0  0  0  0  0  0  0  0
  1  2  2  0  0  0  0
  1 26  1  0  0  0  0
  3  1  1  0  0  0  0
  4 10  1  0  0  0  0
  4  3  1  0  0  0  0
  5 12  1  0  0  0  0
  5  4  1  0  0  0  0
  6  5  1  0  0  0  0
  6  7  1  0  0  0  0
  7  8  1  0  0  0  0
  8  3  1  0  0  0  0
  8 19  1  0  0  0  0
  8 16  1  1  0  0  0
  9  4  1  0  0  0  0
 11  5  1  0  0  0  0
 13  6  1  0  0  0  0
 14  7  1  0  0  0  0
 15  7  1  0  0  0  0
 18 17  2  0  0  0  0
 19 20  1  6  0  0  0
 19 18  1  0  0  0  0
 20 22  1  0  0  0  0
 21 20  1  0  0  0  0
 22 23  1  0  0  0  0
 22 24  1  0  0  0  0
 24 18  1  0  0  0  0
 24 25  1  0  0  0  0
 26 28  1  0  0  0  0
 28 31  1  0  0  0  0
 28 29  1  0  0  0  0
 28 27  2  1  0  0  0
 29 30  1  0  0  0  0
 32 33  1  0  0  0  0
 33 39  1  0  0  0  0
 33 34  2  0  0  0  0
 34 31  1  0  0  0  0
 35 34  1  0  0  0  0
 36 35  2  0  0  0  0
 37 32  2  0  0  0  0
 37 36  1  0  0  0  0
 38 32  1  0  0  0  0
 40 36  1  0  0  0  0
M  END
>  <minimizedAffinity>
-5.60354757

$$$$

 OpenBabel03242522553D

 40 42  0  0  1  0  0  0  0  0999 V2000
   40.2670   30.9070   39.8800 C   0  0  0  0  0  0  0  0  0  0  0  0
   39.9580   30.3740   38.7490 O   0  0  0  0  0  0  0  0  0  0  0  0
   39.2810   31.8930   39.6440 N   0  0  0  0  0  0  0  0  0  0  0  0
   39.7750   33.1410   40.2460 C   0  0  0  0  0  0  0  0  0  0  0  0
   38.6700   34.1600   40.0770 C   0  0  0  0  0  0  0  0  0  0  0  0
   37.3760   33.5470   40.3680 N   0  0  0  0  0  0  0  0  0  0  0  0
   37.0450   32.8220   39.1680 C   0  0  0  0  0  0  0  0  0  0  0  0
   38.0300   31.7260   38.9500 C   0  0  2  0  0  0  0  0  0  0  0  0
   40.1060   33.0240   41.2730 H   0  0  0  0  0  0  0  0  0  0  0  0
   40.5960   33.4890   39.5740 H   0  0  0  0  0  0  0  0  0  0  0  0
   38.8550   34.9360   40.8490 H   0  0  0  0  0  0  0  0  0  0  0  0
   38.6540   34.6030   39.0690 H   0  0  0  0  0  0  0  0  0  0  0  0
   36.6660   34.2600   40.6340 H   0  0  0  0  0  0  0  0  0  0  0  0
   35.9890   32.5150   39.2450 H   0  0  0  0  0  0  0  0  0  0  0  0
   37.0780   33.5580   38.3150 H   0  0  0  0  0  0  0  0  0  0  0  0
   38.2530   31.6800   37.8620 H   0  0  0  0  0  0  0  0  0  0  0  0
   36.5530   30.0090   36.8070 O   0  0  0  0  0  0  0  0  0  0  0  0
   36.5560   29.9320   38.0760 C   0  0  0  0  0  0  0  0  0  0  0  0
   37.3170   30.4280   39.2810 C   0  0  2  0  0  3  0  0  0  0  0  0
   36.2210   30.7130   40.2520 C   0  0  0  0  0  3  0  0  0  0  0  0
   36.5410   30.7400   41.3140 H   0  0  0  0  0  0  0  0  0  0  0  0
   35.3450   29.4780   40.1080 C   0  0  0  0  0  3  0  0  0  0  0  0
   35.7200   28.6760   40.7730 H   0  0  0  0  0  0  0  0  0  0  0  0
   35.5390   29.1260   38.7080 N   0  0  0  0  0  0  0  0  0  0  0  0
   34.9000   28.3490   38.4140 H   0  0  0  0  0  0  0  0  0  0  0  0
   41.2630   30.2350   40.5230 O   0  0  0  0  0  0  0  0  0  0  0  0
   43.1490   30.2510   42.3640 O   0  0  0  0  0  0  0  0  0  0  0  0
   41.6210   30.1400   42.1250 P   0  0  1  0  0  0  0  0  0  0  0  0
   40.9450   31.4120   42.9890 O   0  0  0  0  0  0  0  0  0  0  0  0
   41.5840   32.1870   43.0870 H   0  0  0  0  0  0  0  0  0  0  0  0
   41.1180   28.6630   42.7690 O   0  0  0  0  0  0  0  0  0  0  0  0
   38.1450   26.5910   42.8980 C   0  0  0  0  0  0  0  0  0  0  0  0
   39.4960   26.9960   42.7990 C   0  0  0  0  0  0  0  0  0  0  0  0
   39.7930   28.3350   42.8710 C   0  0  0  0  0  0  0  0  0  0  0  0
   38.7790   29.2230   43.0330 N   0  0  0  0  0  0  0  0  0  0  0  0
   37.4930   28.8230   43.1250 C   0  0  0  0  0  0  0  0  0  0  0  0
   37.1740   27.5200   43.0590 N   0  0  0  0  0  0  0  0  0  0  0  0
   37.8350   25.5590   42.8510 H   0  0  0  0  0  0  0  0  0  0  0  0
   40.1540   26.1490   42.6750 H   0  0  0  0  0  0  0  0  0  0  0  0
   36.7020   29.5500   43.2540 H   0  0  0  0  0  0  0  0  0  0  0  0
  1 26  1  0  0  0  0
  2  1  2  0  0  0  0
  3  1  1  0  0  0  0
  3  4  1  0  0  0  0
  4  9  1  0  0  0  0
  5  4  1  0  0  0  0
  5  6  1  0  0  0  0
  5 11  1  0  0  0  0
  6 13  1  0  0  0  0
  7 14  1  0  0  0  0
  7  6  1  0  0  0  0
  8 16  1  6  0  0  0
  8  7  1  0  0  0  0
  8 19  1  0  0  0  0
  8  3  1  0  0  0  0
 10  4  1  0  0  0  0
 12  5  1  0  0  0  0
 15  7  1  0  0  0  0
 17 18  2  0  0  0  0
 18 24  1  0  0  0  0
 19 18  1  6  0  0  0
 19 20  1  0  0  0  0
 20 21  1  0  0  0  0
 22 20  1  0  0  0  0
 22 23  1  0  0  0  0
 24 22  1  0  0  0  0
 25 24  1  0  0  0  0
 26 28  1  0  0  0  0
 28 27  2  1  0  0  0
 28 31  1  0  0  0  0
 28 29  1  0  0  0  0
 29 30  1  0  0  0  0
 31 34  1  0  0  0  0
 32 37  1  0  0  0  0
 33 34  1  0  0  0  0
 33 32  2  0  0  0  0
 34 35  2  0  0  0  0
 35 36  1  0  0  0  0
 36 40  1  0  0  0  0
 37 36  2  0  0  0  0
 38 32  1  0  0  0  0
 39 33  1  0  0  0  0
M  END
>  <minimizedAffinity>
-5.52725363

$$$$

 OpenBabel03242522553D

 40 42  0  0  1  0  0  0  0  0999 V2000
   39.0080   29.6370   38.9660 C   0  0  0  0  0  0  0  0  0  0  0  0
   38.9060   28.3750   38.7340 O   0  0  0  0  0  0  0  0  0  0  0  0
   37.9680   29.5120   39.9150 N   0  0  0  0  0  0  0  0  0  0  0  0
   37.2040   30.7690   39.8750 C   0  0  0  0  0  0  0  0  0  0  0  0
   36.1580   30.6640   40.9630 C   0  0  0  0  0  0  0  0  0  0  0  0
   36.7470   30.0800   42.1670 N   0  0  0  0  0  0  0  0  0  0  0  0
   36.7760   28.6650   41.9020 C   0  0  0  0  0  0  0  0  0  0  0  0
   37.6930   28.3810   40.7630 C   0  0  2  0  0  0  0  0  0  0  0  0
   37.8250   31.6550   39.9540 H   0  0  0  0  0  0  0  0  0  0  0  0
   36.6310   30.7370   38.9180 H   0  0  0  0  0  0  0  0  0  0  0  0
   35.8670   31.7070   41.2040 H   0  0  0  0  0  0  0  0  0  0  0  0
   35.2830   30.0720   40.6530 H   0  0  0  0  0  0  0  0  0  0  0  0
   36.2050   30.3340   43.0190 H   0  0  0  0  0  0  0  0  0  0  0  0
   37.0100   28.1530   42.8500 H   0  0  0  0  0  0  0  0  0  0  0  0
   35.7230   28.3520   41.6490 H   0  0  0  0  0  0  0  0  0  0  0  0
   37.2220   27.5960   40.1330 H   0  0  0  0  0  0  0  0  0  0  0  0
   37.7970   25.4090   41.6990 O   0  0  0  0  0  0  0  0  0  0  0  0
   38.6200   26.3630   41.8690 C   0  0  0  0  0  0  0  0  0  0  0  0
   38.9380   27.7460   41.3540 C   0  0  2  0  0  3  0  0  0  0  0  0
   39.3040   28.4730   42.6050 C   0  0  0  0  0  3  0  0  0  0  0  0
   39.9160   29.3840   42.4460 H   0  0  0  0  0  0  0  0  0  0  0  0
   40.2150   27.4700   43.2950 C   0  0  0  0  0  3  0  0  0  0  0  0
   41.2510   27.5910   42.9250 H   0  0  0  0  0  0  0  0  0  0  0  0
   39.6540   26.1970   42.8620 N   0  0  0  0  0  0  0  0  0  0  0  0
   40.1060   25.3890   43.3530 H   0  0  0  0  0  0  0  0  0  0  0  0
   39.9740   30.2330   38.2090 O   0  0  0  0  0  0  0  0  0  0  0  0
   41.6760   32.0580   37.3590 O   0  0  0  0  0  0  0  0  0  0  0  0
   40.2300   31.8210   37.8680 P   0  0  1  0  0  0  0  0  0  0  0  0
   39.2320   32.3590   36.6290 O   0  0  0  0  0  0  0  0  0  0  0  0
   39.6770   32.2900   35.7260 H   0  0  0  0  0  0  0  0  0  0  0  0
   40.0200   32.7740   39.2450 O   0  0  0  0  0  0  0  0  0  0  0  0
   42.2640   32.0000   41.9870 C   0  0  0  0  0  0  0  0  0  0  0  0
   41.2430   31.8890   41.0150 C   0  0  0  0  0  0  0  0  0  0  0  0
   41.0220   32.9430   40.1640 C   0  0  0  0  0  0  0  0  0  0  0  0
   41.7900   34.0560   40.2850 N   0  0  0  0  0  0  0  0  0  0  0  0
   42.7610   34.1500   41.2180 C   0  0  0  0  0  0  0  0  0  0  0  0
   43.0000   33.1340   42.0640 N   0  0  0  0  0  0  0  0  0  0  0  0
   42.4960   31.2140   42.6890 H   0  0  0  0  0  0  0  0  0  0  0  0
   40.7450   30.9330   41.0720 H   0  0  0  0  0  0  0  0  0  0  0  0
   43.3600   35.0470   41.2960 H   0  0  0  0  0  0  0  0  0  0  0  0
  1  3  1  0  0  0  0
  2  1  2  0  0  0  0
  3  8  1  0  0  0  0
  4  3  1  0  0  0  0
  4  9  1  0  0  0  0
  4  5  1  0  0  0  0
  5 11  1  0  0  0  0
  5  6  1  0  0  0  0
  6 13  1  0  0  0  0
  7  6  1  0  0  0  0
  7 14  1  0  0  0  0
  8 16  1  6  0  0  0
  8 19  1  0  0  0  0
  8  7  1  0  0  0  0
 10  4  1  0  0  0  0
 12  5  1  0  0  0  0
 15  7  1  0  0  0  0
 17 18  2  0  0  0  0
 18 24  1  0  0  0  0
 19 18  1  1  0  0  0
 19 20  1  0  0  0  0
 20 22  1  0  0  0  0
 21 20  1  0  0  0  0
 23 22  1  0  0  0  0
 24 22  1  0  0  0  0
 24 25  1  0  0  0  0
 26  1  1  0  0  0  0
 28 27  2  6  0  0  0
 28 26  1  0  0  0  0
 28 31  1  0  0  0  0
 29 28  1  0  0  0  0
 30 29  1  0  0  0  0
 31 34  1  0  0  0  0
 32 37  1  0  0  0  0
 32 38  1  0  0  0  0
 33 39  1  0  0  0  0
 33 32  2  0  0  0  0
 34 35  2  0  0  0  0
 34 33  1  0  0  0  0
 35 36  1  0  0  0  0
 36 40  1  0  0  0  0
 36 37  2  0  0  0  0
M  END
>  <minimizedAffinity>
-5.48841715

$$$$

 OpenBabel03242522553D

 40 42  0  0  1  0  0  0  0  0999 V2000
   37.6470   27.9690   42.5600 C   0  0  0  0  0  0  0  0  0  0  0  0
   36.5490   27.3080   42.4460 O   0  0  0  0  0  0  0  0  0  0  0  0
   38.3320   26.7390   42.6990 N   0  0  0  0  0  0  0  0  0  0  0  0
   39.4550   26.9800   43.6180 C   0  0  0  0  0  0  0  0  0  0  0  0
   40.2370   25.6870   43.6800 C   0  0  0  0  0  0  0  0  0  0  0  0
   40.3600   25.1130   42.3410 N   0  0  0  0  0  0  0  0  0  0  0  0
   39.0940   24.4670   42.1110 C   0  0  0  0  0  0  0  0  0  0  0  0
   38.0060   25.4840   42.0720 C   0  0  2  0  0  0  0  0  0  0  0  0
   40.0580   27.8410   43.3470 H   0  0  0  0  0  0  0  0  0  0  0  0
   38.9930   27.0880   44.6280 H   0  0  0  0  0  0  0  0  0  0  0  0
   41.2560   25.9670   44.0200 H   0  0  0  0  0  0  0  0  0  0  0  0
   39.7830   24.9510   44.3600 H   0  0  0  0  0  0  0  0  0  0  0  0
   41.1750   24.4690   42.2750 H   0  0  0  0  0  0  0  0  0  0  0  0
   39.1980   23.8380   41.2110 H   0  0  0  0  0  0  0  0  0  0  0  0
   38.9290   23.7450   42.9600 H   0  0  0  0  0  0  0  0  0  0  0  0
   37.1260   25.0630   42.6040 H   0  0  0  0  0  0  0  0  0  0  0  0
   35.8810   23.6300   40.7430 O   0  0  0  0  0  0  0  0  0  0  0  0
   36.6830   24.4740   40.2320 C   0  0  0  0  0  0  0  0  0  0  0  0
   37.5860   25.6190   40.6200 C   0  0  2  0  0  3  0  0  0  0  0  0
   38.7770   25.3910   39.7500 C   0  0  0  0  0  3  0  0  0  0  0  0
   39.4090   26.2880   39.5890 H   0  0  0  0  0  0  0  0  0  0  0  0
   38.1310   25.0860   38.4080 C   0  0  0  0  0  3  0  0  0  0  0  0
   37.9250   26.0320   37.8710 H   0  0  0  0  0  0  0  0  0  0  0  0
   36.8920   24.4320   38.8050 N   0  0  0  0  0  0  0  0  0  0  0  0
   36.3760   24.0480   37.9780 H   0  0  0  0  0  0  0  0  0  0  0  0
   37.4600   29.3170   42.4790 O   0  0  0  0  0  0  0  0  0  0  0  0
   36.9870   29.4250   39.8890 O   0  0  0  0  0  0  0  0  0  0  0  0
   37.1190   30.2690   41.1830 P   0  0  1  0  0  0  0  0  0  0  0  0
   35.6410   31.0480   41.3550 O   0  0  0  0  0  0  0  0  0  0  0  0
   34.8860   30.5280   40.9310 H   0  0  0  0  0  0  0  0  0  0  0  0
   38.3480   31.3970   40.9230 O   0  0  0  0  0  0  0  0  0  0  0  0
   39.9210   31.9250   37.6990 C   0  0  0  0  0  0  0  0  0  0  0  0
   39.0250   32.0230   38.7880 C   0  0  0  0  0  0  0  0  0  0  0  0
   39.2510   31.2560   39.9040 C   0  0  0  0  0  0  0  0  0  0  0  0
   40.3280   30.4280   39.9230 N   0  0  0  0  0  0  0  0  0  0  0  0
   41.1750   30.3430   38.8760 C   0  0  0  0  0  0  0  0  0  0  0  0
   40.9790   31.0830   37.7720 N   0  0  0  0  0  0  0  0  0  0  0  0
   39.8090   32.4960   36.7910 H   0  0  0  0  0  0  0  0  0  0  0  0
   38.2350   32.7320   38.5870 H   0  0  0  0  0  0  0  0  0  0  0  0
   42.0260   29.6770   38.9140 H   0  0  0  0  0  0  0  0  0  0  0  0
  1  3  1  0  0  0  0
  2  1  2  0  0  0  0
  3  4  1  0  0  0  0
  4  5  1  0  0  0  0
  4 10  1  0  0  0  0
  5 11  1  0  0  0  0
  5 12  1  0  0  0  0
  6  5  1  0  0  0  0
  7  6  1  0  0  0  0
  7 15  1  0  0  0  0
  8  7  1  0  0  0  0
  8 16  1  1  0  0  0
  8  3  1  0  0  0  0
  9  4  1  0  0  0  0
 13  6  1  0  0  0  0
 14  7  1  0  0  0  0
 18 19  1  0  0  0  0
 18 17  2  0  0  0  0
 19 20  1  6  0  0  0
 19  8  1  0  0  0  0
 21 20  1  0  0  0  0
 22 24  1  0  0  0  0
 22 20  1  0  0  0  0
 23 22  1  0  0  0  0
 24 18  1  0  0  0  0
 25 24  1  0  0  0  0
 26  1  1  0  0  0  0
 28 27  2  6  0  0  0
 28 29  1  0  0  0  0
 28 26  1  0  0  0  0
 30 29  1  0  0  0  0
 31 28  1  0  0  0  0
 32 37  2  0  0  0  0
 32 33  1  0  0  0  0
 33 34  2  0  0  0  0
 34 35  1  0  0  0  0
 34 31  1  0  0  0  0
 36 40  1  0  0  0  0
 36 35  2  0  0  0  0
 37 36  1  0  0  0  0
 38 32  1  0  0  0  0
 39 33  1  0  0  0  0
M  END
>  <minimizedAffinity>
-5.40397644

$$$$

 OpenBabel03242522553D

 40 42  0  0  1  0  0  0  0  0999 V2000
   39.4440   28.8190   41.3550 C   0  0  0  0  0  0  0  0  0  0  0  0
   39.5780   28.9620   40.0830 O   0  0  0  0  0  0  0  0  0  0  0  0
   40.4470   29.7990   41.5360 N   0  0  0  0  0  0  0  0  0  0  0  0
   41.1910   29.4280   42.7500 C   0  0  0  0  0  0  0  0  0  0  0  0
   42.1930   30.5350   42.9890 C   0  0  0  0  0  0  0  0  0  0  0  0
   41.5660   31.8350   42.7570 N   0  0  0  0  0  0  0  0  0  0  0  0
   41.5720   31.9850   41.3250 C   0  0  0  0  0  0  0  0  0  0  0  0
   40.7070   30.9440   40.7020 C   0  0  2  0  0  0  0  0  0  0  0  0
   40.5510   29.2280   43.6040 H   0  0  0  0  0  0  0  0  0  0  0  0
   41.8030   28.5400   42.4620 H   0  0  0  0  0  0  0  0  0  0  0  0
   42.4560   30.4760   44.0660 H   0  0  0  0  0  0  0  0  0  0  0  0
   43.0900   30.4370   42.3590 H   0  0  0  0  0  0  0  0  0  0  0  0
   42.0680   32.5960   43.2590 H   0  0  0  0  0  0  0  0  0  0  0  0
   41.3090   33.0310   41.0980 H   0  0  0  0  0  0  0  0  0  0  0  0
   42.6390   31.8670   40.9830 H   0  0  0  0  0  0  0  0  0  0  0  0
   41.2170   30.5820   39.7840 H   0  0  0  0  0  0  0  0  0  0  0  0
   40.4960   32.3390   37.9210 O   0  0  0  0  0  0  0  0  0  0  0  0
   39.7200   32.3710   38.9280 C   0  0  0  0  0  0  0  0  0  0  0  0
   39.4510   31.6500   40.2270 C   0  0  2  0  0  3  0  0  0  0  0  0
   39.1480   32.7770   41.1570 C   0  0  0  0  0  3  0  0  0  0  0  0
   38.5730   32.4870   42.0600 H   0  0  0  0  0  0  0  0  0  0  0  0
   38.2110   33.6320   40.3190 C   0  0  0  0  0  3  0  0  0  0  0  0
   37.1730   33.2660   40.4300 H   0  0  0  0  0  0  0  0  0  0  0  0
   38.7050   33.3950   38.9690 N   0  0  0  0  0  0  0  0  0  0  0  0
   38.2300   34.0160   38.2700 H   0  0  0  0  0  0  0  0  0  0  0  0
   38.5000   27.8910   41.6830 O   0  0  0  0  0  0  0  0  0  0  0  0
   36.6490   26.7520   43.1730 O   0  0  0  0  0  0  0  0  0  0  0  0
   37.0620   28.0660   42.4610 P   0  0  1  0  0  0  0  0  0  0  0  0
   37.1500   29.2200   43.6780 O   0  0  0  0  0  0  0  0  0  0  0  0
   37.3680   28.8100   44.5740 H   0  0  0  0  0  0  0  0  0  0  0  0
   35.8320   28.4550   41.3730 O   0  0  0  0  0  0  0  0  0  0  0  0
   36.4840   30.3620   38.3590 C   0  0  0  0  0  0  0  0  0  0  0  0
   36.2160   30.0320   39.7070 C   0  0  0  0  0  0  0  0  0  0  0  0
   36.0910   28.7090   40.0530 C   0  0  0  0  0  0  0  0  0  0  0  0
   36.2280   27.7640   39.0870 N   0  0  0  0  0  0  0  0  0  0  0  0
   36.4830   28.0930   37.8040 C   0  0  0  0  0  0  0  0  0  0  0  0
   36.6110   29.3780   37.4380 N   0  0  0  0  0  0  0  0  0  0  0  0
   36.5970   31.3780   38.0130 H   0  0  0  0  0  0  0  0  0  0  0  0
   36.1440   30.9150   40.3230 H   0  0  0  0  0  0  0  0  0  0  0  0
   36.5880   27.3220   37.0520 H   0  0  0  0  0  0  0  0  0  0  0  0
  1  3  1  0  0  0  0
  1 26  1  0  0  0  0
  2  1  2  0  0  0  0
  3  4  1  0  0  0  0
  4  5  1  0  0  0  0
  4  9  1  0  0  0  0
  5 11  1  0  0  0  0
  6  5  1  0  0  0  0
  6 13  1  0  0  0  0
  7  6  1  0  0  0  0
  8 16  1  6  0  0  0
  8  7  1  0  0  0  0
  8  3  1  0  0  0  0
 10  4  1  0  0  0  0
 12  5  1  0  0  0  0
 14  7  1  0  0  0  0
 15  7  1  0  0  0  0
 17 18  2  0  0  0  0
 18 24  1  0  0  0  0
 19 18  1  6  0  0  0
 19  8  1  0  0  0  0
 19 20  1  0  0  0  0
 20 21  1  0  0  0  0
 22 23  1  0  0  0  0
 22 20  1  0  0  0  0
 24 22  1  0  0  0  0
 25 24  1  0  0  0  0
 26 28  1  0  0  0  0
 28 27  2  1  0  0  0
 28 29  1  0  0  0  0
 29 30  1  0  0  0  0
 31 28  1  0  0  0  0
 32 33  1  0  0  0  0
 33 34  2  0  0  0  0
 33 39  1  0  0  0  0
 34 31  1  0  0  0  0
 35 34  1  0  0  0  0
 36 35  2  0  0  0  0
 37 36  1  0  0  0  0
 37 32  2  0  0  0  0
 38 32  1  0  0  0  0
 40 36  1  0  0  0  0
M  END
>  <minimizedAffinity>
-5.30581331

$$$$

 OpenBabel03242522553D

 40 42  0  0  1  0  0  0  0  0999 V2000
   38.2940   30.0860   39.1120 C   0  0  0  0  0  0  0  0  0  0  0  0
   39.3810   29.7300   39.7030 O   0  0  0  0  0  0  0  0  0  0  0  0
   37.9310   28.7220   39.0350 N   0  0  0  0  0  0  0  0  0  0  0  0
   37.1780   28.5520   37.7820 C   0  0  0  0  0  0  0  0  0  0  0  0
   36.7090   27.1150   37.7600 C   0  0  0  0  0  0  0  0  0  0  0  0
   36.2280   26.7260   39.0840 N   0  0  0  0  0  0  0  0  0  0  0  0
   37.4250   26.4410   39.8320 C   0  0  0  0  0  0  0  0  0  0  0  0
   38.2320   27.6840   39.9870 C   0  0  2  0  0  0  0  0  0  0  0  0
   36.3760   29.2740   37.6590 H   0  0  0  0  0  0  0  0  0  0  0  0
   37.9390   28.6220   36.9680 H   0  0  0  0  0  0  0  0  0  0  0  0
   35.8420   27.0910   37.0670 H   0  0  0  0  0  0  0  0  0  0  0  0
   37.4960   26.4190   37.4310 H   0  0  0  0  0  0  0  0  0  0  0  0
   35.5690   25.9220   39.0300 H   0  0  0  0  0  0  0  0  0  0  0  0
   37.1240   25.9410   40.7670 H   0  0  0  0  0  0  0  0  0  0  0  0
   38.0030   25.6660   39.2530 H   0  0  0  0  0  0  0  0  0  0  0  0
   39.3030   27.4140   39.8610 H   0  0  0  0  0  0  0  0  0  0  0  0
   40.0770   26.6360   42.2720 O   0  0  0  0  0  0  0  0  0  0  0  0
   38.9990   27.3100   42.3170 C   0  0  0  0  0  0  0  0  0  0  0  0
   38.0840   28.1210   41.4330 C   0  0  2  0  0  3  0  0  0  0  0  0
   36.7330   27.7200   41.9230 C   0  0  0  0  0  3  0  0  0  0  0  0
   35.9240   28.4400   41.6840 H   0  0  0  0  0  0  0  0  0  0  0  0
   36.9160   27.7810   43.4310 C   0  0  0  0  0  3  0  0  0  0  0  0
   36.7350   28.8120   43.7880 H   0  0  0  0  0  0  0  0  0  0  0  0
   38.3180   27.4160   43.5850 N   0  0  0  0  0  0  0  0  0  0  0  0
   38.5770   27.2950   44.5930 H   0  0  0  0  0  0  0  0  0  0  0  0
   38.2000   31.4370   38.9540 O   0  0  0  0  0  0  0  0  0  0  0  0
   36.9710   33.7610   39.1450 O   0  0  0  0  0  0  0  0  0  0  0  0
   37.5790   32.5850   39.9530 P   0  0  1  0  0  0  0  0  0  0  0  0
   36.3120   31.9840   40.8790 O   0  0  0  0  0  0  0  0  0  0  0  0
   35.4150   32.1470   40.4460 H   0  0  0  0  0  0  0  0  0  0  0  0
   38.7780   33.2290   40.9510 O   0  0  0  0  0  0  0  0  0  0  0  0
   41.8270   34.1520   39.2190 C   0  0  0  0  0  0  0  0  0  0  0  0
   40.4750   34.1180   39.6340 C   0  0  0  0  0  0  0  0  0  0  0  0
   40.0990   33.2110   40.5930 C   0  0  0  0  0  0  0  0  0  0  0  0
   41.0380   32.3770   41.1100 N   0  0  0  0  0  0  0  0  0  0  0  0
   42.3240   32.4180   40.7040 C   0  0  0  0  0  0  0  0  0  0  0  0
   42.7200   33.2960   39.7680 N   0  0  0  0  0  0  0  0  0  0  0  0
   42.1960   34.8370   38.4720 H   0  0  0  0  0  0  0  0  0  0  0  0
   39.8840   34.8560   39.1120 H   0  0  0  0  0  0  0  0  0  0  0  0
   43.0540   31.7440   41.1310 H   0  0  0  0  0  0  0  0  0  0  0  0
  1  2  2  0  0  0  0
  3  1  1  0  0  0  0
  3  8  1  0  0  0  0
  4  3  1  0  0  0  0
  5  4  1  0  0  0  0
  5  6  1  0  0  0  0
  6  7  1  0  0  0  0
  7  8  1  0  0  0  0
  7 14  1  0  0  0  0
  8 16  1  6  0  0  0
  8 19  1  0  0  0  0
  9  4  1  0  0  0  0
 10  4  1  0  0  0  0
 11  5  1  0  0  0  0
 12  5  1  0  0  0  0
 13  6  1  0  0  0  0
 15  7  1  0  0  0  0
 17 18  2  0  0  0  0
 18 24  1  0  0  0  0
 19 20  1  1  0  0  0
 19 18  1  0  0  0  0
 20 22  1  0  0  0  0
 21 20  1  0  0  0  0
 22 24  1  0  0  0  0
 22 23  1  0  0  0  0
 24 25  1  0  0  0  0
 26  1  1  0  0  0  0
 26 28  1  0  0  0  0
 28 27  2  6  0  0  0
 28 29  1  0  0  0  0
 28 31  1  0  0  0  0
 30 29  1  0  0  0  0
 32 33  2  0  0  0  0
 32 37  1  0  0  0  0
 33 34  1  0  0  0  0
 34 31  1  0  0  0  0
 34 35  2  0  0  0  0
 36 35  1  0  0  0  0
 36 40  1  0  0  0  0
 37 36  2  0  0  0  0
 38 32  1  0  0  0  0
 39 33  1  0  0  0  0
M  END
>  <minimizedAffinity>
-5.25919867

$$$$

 OpenBabel03242522553D

 40 42  0  0  1  0  0  0  0  0999 V2000
   35.5620   29.4990   37.9500 C   0  0  0  0  0  0  0  0  0  0  0  0
   36.7050   29.6360   37.3740 O   0  0  0  0  0  0  0  0  0  0  0  0
   36.2370   29.3980   39.1880 N   0  0  0  0  0  0  0  0  0  0  0  0
   35.4580   28.4690   40.0220 C   0  0  0  0  0  0  0  0  0  0  0  0
   36.1320   28.4480   41.3760 C   0  0  0  0  0  0  0  0  0  0  0  0
   36.5140   29.8040   41.7660 N   0  0  0  0  0  0  0  0  0  0  0  0
   37.7310   30.0570   41.0380 C   0  0  0  0  0  0  0  0  0  0  0  0
   37.4540   30.0650   39.5750 C   0  0  2  0  0  0  0  0  0  0  0  0
   34.4010   28.7120   40.0670 H   0  0  0  0  0  0  0  0  0  0  0  0
   35.6420   27.4570   39.5900 H   0  0  0  0  0  0  0  0  0  0  0  0
   35.3600   28.0970   42.0920 H   0  0  0  0  0  0  0  0  0  0  0  0
   37.0160   27.7920   41.3970 H   0  0  0  0  0  0  0  0  0  0  0  0
   36.6190   29.8890   42.7980 H   0  0  0  0  0  0  0  0  0  0  0  0
   38.1800   30.9760   41.4500 H   0  0  0  0  0  0  0  0  0  0  0  0
   38.4520   29.2310   41.2990 H   0  0  0  0  0  0  0  0  0  0  0  0
   38.2950   29.5480   39.0650 H   0  0  0  0  0  0  0  0  0  0  0  0
   40.0140   31.3270   38.3210 O   0  0  0  0  0  0  0  0  0  0  0  0
   38.9380   31.8660   38.7320 C   0  0  0  0  0  0  0  0  0  0  0  0
   37.5240   31.5130   39.1260 C   0  0  2  0  0  3  0  0  0  0  0  0
   37.2950   32.3960   40.3060 C   0  0  0  0  0  3  0  0  0  0  0  0
   36.2270   32.5820   40.5420 H   0  0  0  0  0  0  0  0  0  0  0  0
   37.8550   33.7230   39.8190 C   0  0  0  0  0  3  0  0  0  0  0  0
   37.0750   34.2740   39.2600 H   0  0  0  0  0  0  0  0  0  0  0  0
   38.9270   33.2950   38.9310 N   0  0  0  0  0  0  0  0  0  0  0  0
   39.4990   34.1070   38.5970 H   0  0  0  0  0  0  0  0  0  0  0  0
   34.5220   29.5360   37.0690 O   0  0  0  0  0  0  0  0  0  0  0  0
   34.6050   27.7270   35.1540 O   0  0  0  0  0  0  0  0  0  0  0  0
   33.7370   28.3150   36.2970 P   0  0  1  0  0  0  0  0  0  0  0  0
   33.4290   27.0250   37.3270 O   0  0  0  0  0  0  0  0  0  0  0  0
   34.1560   26.3260   37.2880 H   0  0  0  0  0  0  0  0  0  0  0  0
   32.3000   28.8660   35.6030 O   0  0  0  0  0  0  0  0  0  0  0  0
   30.3400   30.6170   38.1010 C   0  0  0  0  0  0  0  0  0  0  0  0
   31.1110   29.6250   37.4520 C   0  0  0  0  0  0  0  0  0  0  0  0
   31.5590   29.8640   36.1770 C   0  0  0  0  0  0  0  0  0  0  0  0
   31.2460   31.0450   35.5830 N   0  0  0  0  0  0  0  0  0  0  0  0
   30.5080   31.9820   36.2130 C   0  0  0  0  0  0  0  0  0  0  0  0
   30.0580   31.7750   37.4610 N   0  0  0  0  0  0  0  0  0  0  0  0
   29.9540   30.5000   39.1020 H   0  0  0  0  0  0  0  0  0  0  0  0
   31.2550   28.7610   38.0830 H   0  0  0  0  0  0  0  0  0  0  0  0
   30.2720   32.9150   35.7200 H   0  0  0  0  0  0  0  0  0  0  0  0
  1  3  1  0  0  0  0
  2  1  2  0  0  0  0
  3  8  1  0  0  0  0
  3  4  1  0  0  0  0
  4  9  1  0  0  0  0
  4  5  1  0  0  0  0
  5 12  1  0  0  0  0
  5  6  1  0  0  0  0
  5 11  1  0  0  0  0
  6 13  1  0  0  0  0
  7 15  1  0  0  0  0
  7 14  1  0  0  0  0
  7  6  1  0  0  0  0
  8 16  1  6  0  0  0
  8  7  1  0  0  0  0
 10  4  1  0  0  0  0
 17 18  2  0  0  0  0
 18 24  1  0  0  0  0
 19 18  1  1  0  0  0
 19  8  1  0  0  0  0
 19 20  1  0  0  0  0
 20 21  1  0  0  0  0
 22 20  1  0  0  0  0
 23 22  1  0  0  0  0
 24 22  1  0  0  0  0
 25 24  1  0  0  0  0
 26  1  1  0  0  0  0
 28 27  2  6  0  0  0
 28 26  1  0  0  0  0
 28 29  1  0  0  0  0
 30 29  1  0  0  0  0
 31 34  1  0  0  0  0
 31 28  1  0  0  0  0
 32 38  1  0  0  0  0
 33 39  1  0  0  0  0
 33 32  2  0  0  0  0
 34 33  1  0  0  0  0
 35 34  2  0  0  0  0
 35 36  1  0  0  0  0
 36 37  2  0  0  0  0
 37 32  1  0  0  0  0
 40 36  1  0  0  0  0
M  END
>  <minimizedAffinity>
-5.24467707

$$$$

 OpenBabel03242522553D

 40 42  0  0  1  0  0  0  0  0999 V2000
   38.8990   30.3670   41.3910 C   0  0  0  0  0  0  0  0  0  0  0  0
   39.7570   30.6510   42.3070 O   0  0  0  0  0  0  0  0  0  0  0  0
   38.9940   31.7020   40.9370 N   0  0  0  0  0  0  0  0  0  0  0  0
   37.6630   32.0750   40.4330 C   0  0  0  0  0  0  0  0  0  0  0  0
   37.8010   33.4670   39.8590 C   0  0  0  0  0  0  0  0  0  0  0  0
   39.0440   33.5710   39.0960 N   0  0  0  0  0  0  0  0  0  0  0  0
   40.0630   33.7610   40.0950 C   0  0  0  0  0  0  0  0  0  0  0  0
   40.1580   32.5490   40.9580 C   0  0  2  0  0  0  0  0  0  0  0  0
   37.2480   31.3550   39.7350 H   0  0  0  0  0  0  0  0  0  0  0  0
   37.0260   32.1980   41.3420 H   0  0  0  0  0  0  0  0  0  0  0  0
   36.9580   33.5840   39.1460 H   0  0  0  0  0  0  0  0  0  0  0  0
   37.7730   34.2490   40.6330 H   0  0  0  0  0  0  0  0  0  0  0  0
   38.9980   34.3400   38.3950 H   0  0  0  0  0  0  0  0  0  0  0  0
   40.9890   34.0570   39.5760 H   0  0  0  0  0  0  0  0  0  0  0  0
   39.7660   34.6580   40.7080 H   0  0  0  0  0  0  0  0  0  0  0  0
   40.3080   32.8870   42.0050 H   0  0  0  0  0  0  0  0  0  0  0  0
   42.9770   33.4830   41.9080 O   0  0  0  0  0  0  0  0  0  0  0  0
   42.6370   32.6260   41.0320 C   0  0  0  0  0  0  0  0  0  0  0  0
   41.4390   31.8360   40.5660 C   0  0  2  0  0  3  0  0  0  0  0  0
   41.5850   31.8850   39.0820 C   0  0  0  0  0  3  0  0  0  0  0  0
   41.0420   31.0850   38.5380 H   0  0  0  0  0  0  0  0  0  0  0  0
   43.0650   31.5850   38.9020 C   0  0  0  0  0  3  0  0  0  0  0  0
   43.2220   30.4900   38.8780 H   0  0  0  0  0  0  0  0  0  0  0  0
   43.6430   32.1670   40.1060 N   0  0  0  0  0  0  0  0  0  0  0  0
   44.6910   32.1470   40.0780 H   0  0  0  0  0  0  0  0  0  0  0  0
   38.4850   29.0680   41.4440 O   0  0  0  0  0  0  0  0  0  0  0  0
   37.3860   26.8860   42.4330 O   0  0  0  0  0  0  0  0  0  0  0  0
   37.1700   28.3990   42.1690 P   0  0  1  0  0  0  0  0  0  0  0  0
   36.8830   29.0750   43.6800 O   0  0  0  0  0  0  0  0  0  0  0  0
   37.3220   28.5480   44.4210 H   0  0  0  0  0  0  0  0  0  0  0  0
   35.8020   28.5470   41.1910 O   0  0  0  0  0  0  0  0  0  0  0  0
   35.4640   29.2270   37.6460 C   0  0  0  0  0  0  0  0  0  0  0  0
   35.4330   29.3790   39.0510 C   0  0  0  0  0  0  0  0  0  0  0  0
   35.8570   28.3380   39.8400 C   0  0  0  0  0  0  0  0  0  0  0  0
   36.2900   27.1980   39.2420 N   0  0  0  0  0  0  0  0  0  0  0  0
   36.3130   27.0650   37.9000 C   0  0  0  0  0  0  0  0  0  0  0  0
   35.9060   28.0680   37.1040 N   0  0  0  0  0  0  0  0  0  0  0  0
   35.1490   30.0000   36.9630 H   0  0  0  0  0  0  0  0  0  0  0  0
   35.0610   30.3520   39.3350 H   0  0  0  0  0  0  0  0  0  0  0  0
   36.6630   26.1470   37.4470 H   0  0  0  0  0  0  0  0  0  0  0  0
  1 26  1  0  0  0  0
  1  2  2  0  0  0  0
  3  8  1  0  0  0  0
  3  1  1  0  0  0  0
  4  3  1  0  0  0  0
  4 10  1  0  0  0  0
  5  4  1  0  0  0  0
  5 12  1  0  0  0  0
  6  5  1  0  0  0  0
  6  7  1  0  0  0  0
  7 15  1  0  0  0  0
  7  8  1  0  0  0  0
  8 16  1  1  0  0  0
  9  4  1  0  0  0  0
 11  5  1  0  0  0  0
 13  6  1  0  0  0  0
 14  7  1  0  0  0  0
 18 17  2  0  0  0  0
 19 20  1  6  0  0  0
 19  8  1  0  0  0  0
 19 18  1  0  0  0  0
 21 20  1  0  0  0  0
 22 20  1  0  0  0  0
 22 24  1  0  0  0  0
 23 22  1  0  0  0  0
 24 18  1  0  0  0  0
 25 24  1  0  0  0  0
 26 28  1  0  0  0  0
 28 27  2  1  0  0  0
 28 29  1  0  0  0  0
 29 30  1  0  0  0  0
 31 28  1  0  0  0  0
 32 33  1  0  0  0  0
 33 39  1  0  0  0  0
 33 34  2  0  0  0  0
 34 31  1  0  0  0  0
 35 34  1  0  0  0  0
 36 35  2  0  0  0  0
 37 32  2  0  0  0  0
 37 36  1  0  0  0  0
 38 32  1  0  0  0  0
 40 36  1  0  0  0  0
M  END
>  <minimizedAffinity>
-5.23666382

$$$$
