REMARK  Name = 
REMARK  4 active torsions:
REMARK  status: ('A' for Active; 'I' for Inactive)
REMARK    1  A    between atoms: C_1  and  C_10
REMARK    2  A    between atoms: C_2  and  C_7
REMARK    3  A    between atoms: C_10  and  C_14
REMARK    4  A    between atoms: C_18  and  C_31
REMARK                            x       y       z     vdW  Elec       q    Type
REMARK                         _______ _______ _______ _____ _____    ______ ____
ROOT
ATOM      1 CL   UNL     1      44.689  31.671  42.910  0.00  0.00    +0.000 Cl
ATOM      2  C   UNL     1      44.648  33.424  42.762  0.00  0.00    +0.000 A 
ATOM      3  C   UNL     1      45.522  34.124  43.620  0.00  0.00    +0.000 A 
ATOM      4  C   UNL     1      45.421  35.490  43.408  0.00  0.00    +0.000 A 
ATOM      5  C   UNL     1      44.652  36.172  42.548  0.00  0.00    +0.000 A 
ATOM      6  C   UNL     1      43.839  35.419  41.757  0.00  0.00    +0.000 A 
ATOM      7  C   UNL     1      43.816  34.062  41.843  0.00  0.00    +0.000 A 
ATOM      8  H   UNL     1      46.019  36.191  44.029  0.00  0.00    +0.000 HD
ATOM      9  H   UNL     1      44.616  37.243  42.422  0.00  0.00    +0.000 HD
ATOM     10  H   UNL     1      43.146  35.789  41.002  0.00  0.00    +0.000 HD
ENDROOT
BRANCH   7  13
ATOM     11  O   UNL     1      43.425  34.152  38.813  0.00  0.00    +0.000 OA
ATOM     12  C   UNL     1      42.590  33.824  39.725  0.00  0.00    +0.000 C 
ATOM     13  C   UNL     1      42.962  33.155  41.025  0.00  0.00    +0.000 C 
ATOM     14  C   UNL     1      41.639  32.844  41.596  0.00  0.00    +0.000 C 
ATOM     15  H   UNL     1      41.245  33.578  42.325  0.00  0.00    +0.000 HD
ATOM     16  C   UNL     1      40.629  32.881  40.460  0.00  0.00    +0.000 C 
ATOM     17  H   UNL     1      40.747  31.950  39.841  0.00  0.00    +0.000 HD
ATOM     18  N   UNL     1      41.160  34.021  39.699  0.00  0.00    +0.000 N 
ATOM     19  H   UNL     1      40.696  34.826  39.220  0.00  0.00    +0.000 HD
ENDBRANCH   7  13
BRANCH   3  20
ATOM     20  C   UNL     1      46.447  33.529  44.618  0.00  0.00    +0.000 C 
ATOM     21  O   UNL     1      45.870  33.889  45.615  0.00  0.00    +0.000 OA
BRANCH  20  22
ATOM     22  C   UNL     1      47.535  32.843  43.907  0.00  0.00    +0.000 A 
ATOM     23  C   UNL     1      48.373  33.391  43.017  0.00  0.00    +0.000 A 
ATOM     24  C   UNL     1      49.236  32.493  42.421  0.00  0.00    +0.000 A 
ATOM     25  N   UNL     1      49.166  31.141  42.791  0.00  0.00    +0.000 NA
ATOM     26  C   UNL     1      48.318  30.679  43.676  0.00  0.00    +0.000 A 
ATOM     27  N   UNL     1      47.436  31.543  44.293  0.00  0.00    +0.000 NA
ATOM     28  H   UNL     1      49.979  32.766  41.675  0.00  0.00    +0.000 HD
ATOM     29  H   UNL     1      48.386  29.611  43.857  0.00  0.00    +0.000 HD
BRANCH  23  30
ATOM     30  C   UNL     1      48.524  34.772  42.732  0.00  0.00    +0.000 C 
ATOM     31  C   UNL     1      49.522  35.394  42.047  0.00  0.00    +0.000 C 
ATOM     32  C   UNL     1      48.273  35.219  41.226  0.00  0.00    +0.000 C 
ATOM     33  H   UNL     1      48.068  35.442  43.486  0.00  0.00    +0.000 HD
ATOM     34  H   UNL     1      50.390  34.792  41.643  0.00  0.00    +0.000 HD
ATOM     35  H   UNL     1      49.841  36.460  42.067  0.00  0.00    +0.000 HD
ATOM     36  H   UNL     1      47.546  36.036  41.138  0.00  0.00    +0.000 HD
ATOM     37  H   UNL     1      48.210  34.352  40.531  0.00  0.00    +0.000 HD
ENDBRANCH  23  30
ENDBRANCH  20  22
ENDBRANCH   3  20
TORSDOF 4
