
 OpenBabel03252508383D

 41 44  0  0  1  0  0  0  0  0999 V2000
   45.2090   33.9600   40.6830 C   0  0  0  0  0  0  0  0  0  0  0  0
   44.1570   33.6410   39.8720 C   0  0  0  0  0  0  0  0  0  0  0  0
   44.4580   33.1390   38.6380 C   0  0  0  0  0  0  0  0  0  0  0  0
   45.7390   32.9410   38.1770 C   0  0  0  0  0  0  0  0  0  0  0  0
   46.7690   33.2730   39.0240 C   0  0  0  0  0  0  0  0  0  0  0  0
   46.5320   33.7830   40.2780 C   0  0  0  0  0  0  0  0  0  0  0  0
   43.6400   32.8800   37.9770 H   0  0  0  0  0  0  0  0  0  0  0  0
   45.9040   32.5380   37.1850 H   0  0  0  0  0  0  0  0  0  0  0  0
   47.7750   33.1160   38.6600 H   0  0  0  0  0  0  0  0  0  0  0  0
   40.8690   35.2420   40.7850 C   0  0  0  0  0  0  0  0  0  0  0  0
   42.1710   35.0910   40.2550 C   0  0  0  0  0  0  0  0  0  0  0  0
   42.8270   33.8640   40.3910 C   0  0  0  0  0  0  0  0  0  0  0  0
   42.1270   32.8950   41.0440 N   0  0  0  0  0  0  0  0  0  0  0  0
   40.9000   33.0610   41.5360 C   0  0  0  0  0  0  0  0  0  0  0  0
   40.2760   34.2350   41.4040 N   0  0  0  0  0  0  0  0  0  0  0  0
   40.2590   36.5160   40.6120 N   0  0  0  0  0  0  0  0  0  0  0  0
   42.7220   35.8580   39.7390 H   0  0  0  0  0  0  0  0  0  0  0  0
   40.3620   32.2780   42.0510 H   0  0  0  0  0  0  0  0  0  0  0  0
   40.0510   36.7820   39.6230 H   0  0  0  0  0  0  0  0  0  0  0  0
   40.0180   37.1780   41.4020 H   0  0  0  0  0  0  0  0  0  0  0  0
   47.6860   34.1030   41.0960 C   0  0  0  0  0  0  0  0  0  0  0  0
   48.1570   35.4000   40.9730 C   0  0  0  0  0  0  0  0  0  0  0  0
   49.2540   35.8930   41.6780 C   0  0  0  0  0  0  0  0  0  0  0  0
   49.8920   35.0210   42.5420 C   0  0  0  0  0  0  0  0  0  0  0  0
   49.4340   33.7260   42.6750 C   0  0  0  0  0  0  0  0  0  0  0  0
   48.3370   33.2620   41.9590 C   0  0  0  0  0  0  0  0  0  0  0  0
   47.6960   36.1240   40.3120 H   0  0  0  0  0  0  0  0  0  0  0  0
   49.5950   36.9120   41.5560 H   0  0  0  0  0  0  0  0  0  0  0  0
   50.7500   35.3390   43.1200 H   0  0  0  0  0  0  0  0  0  0  0  0
   49.9600   33.0840   43.3580 H   0  0  0  0  0  0  0  0  0  0  0  0
   46.7620   32.4670   44.2260 O   0  0  0  0  0  0  0  0  0  0  0  0
   46.8170   31.7480   43.1700 C   0  0  0  0  0  0  0  0  0  0  0  0
   47.8380   31.8950   42.0840 C   0  0  1  0  0  3  0  0  0  0  0  0
   47.0910   31.3980   40.8810 C   0  0  0  0  0  3  0  0  0  0  0  0
   46.8680   32.2680   40.2350 H   0  0  0  0  0  0  0  0  0  0  0  0
   45.8610   30.6880   41.3720 C   0  0  0  0  0  3  0  0  0  0  0  0
   44.9860   31.3010   41.0400 H   0  0  0  0  0  0  0  0  0  0  0  0
   45.9390   30.6840   42.8210 N   0  0  0  0  0  0  0  0  0  0  0  0
   45.4650   30.0500   43.4890 H   0  0  0  0  0  0  0  0  0  0  0  0
   44.8100   34.9190   43.0950 N   0  0  0  0  0  0  0  0  0  0  0  0
   44.9840   34.4970   42.0080 C   0  0  0  0  0  0  0  0  0  0  0  0
  1 41  1  0  0  0  0
  2 12  1  0  0  0  0
  2  1  2  0  0  0  0
  3  2  1  0  0  0  0
  4  3  2  0  0  0  0
  4  5  1  0  0  0  0
  5  6  2  0  0  0  0
  6  1  1  0  0  0  0
  6 21  1  0  0  0  0
  7  3  1  0  0  0  0
  8  4  1  0  0  0  0
  9  5  1  0  0  0  0
 10 15  1  0  0  0  0
 11 12  1  0  0  0  0
 11 10  2  0  0  0  0
 12 13  2  0  0  0  0
 13 14  1  0  0  0  0
 14 18  1  0  0  0  0
 15 14  2  0  0  0  0
 16 10  1  0  0  0  0
 16 20  1  0  0  0  0
 17 11  1  0  0  0  0
 19 16  1  0  0  0  0
 21 26  1  0  0  0  0
 22 21  2  0  0  0  0
 22 23  1  0  0  0  0
 23 24  2  0  0  0  0
 24 25  1  0  0  0  0
 24 29  1  0  0  0  0
 25 30  1  0  0  0  0
 26 25  2  0  0  0  0
 27 22  1  0  0  0  0
 28 23  1  0  0  0  0
 32 31  2  0  0  0  0
 33 26  1  6  0  0  0
 33 32  1  0  0  0  0
 34 36  1  0  0  0  0
 34 33  1  0  0  0  0
 35 34  1  0  0  0  0
 36 38  1  0  0  0  0
 37 36  1  0  0  0  0
 38 32  1  0  0  0  0
 38 39  1  0  0  0  0
 41 40  3  0  0  0  0
M  END
>  <minimizedAffinity>
-6.09925127

>  <minimizedRMSD>
1.15780902

$$$$
