REMARK  Name = 
REMARK  9 active torsions:
REMARK  status: ('A' for Active; 'I' for Inactive)
REMARK    1  A    between atoms: O_1  and  C_2
REMARK    2  A    between atoms: O_1  and  P_10
REMARK    3  A    between atoms: C_6  and  C_7
REMARK    4  A    between atoms: C_7  and  O_8
REMARK    5  A    between atoms: P_10  and  O_11
REMARK    6  A    between atoms: P_10  and  O_12
REMARK    7  A    between atoms: O_12  and  C_13
REMARK    8  A    between atoms: C_13  and  C_16
REMARK    9  A    between atoms: C_18  and  C_38
REMARK                            x       y       z     vdW  Elec       q    Type
REMARK                         _______ _______ _______ _____ _____    ______ ____
ROOT
ATOM      1  O   UNL     1      44.727  35.351  44.995  0.00  0.00    +0.000 OA
ATOM      2  P   UNL     1      45.581  34.240  44.413  0.00  0.00    +0.000 P 
ENDROOT
BRANCH   2   3
ATOM      3  O   UNL     1      44.607  33.042  43.719  0.00  0.00    +0.000 OA
ATOM      4  H   UNL     1      43.694  33.166  44.110  0.00  0.00    +0.000 HD
ENDBRANCH   2   3
BRANCH   2   5
ATOM      5  O   UNL     1      46.575  34.909  43.249  0.00  0.00    +0.000 OA
BRANCH   5   6
ATOM      6  C   UNL     1      46.805  33.975  42.231  0.00  0.00    +0.000 C 
ATOM      7  C   UNL     1      46.077  34.411  40.955  0.00  0.00    +0.000 C 
ATOM      8  C   UNL     1      46.685  33.474  39.946  0.00  0.00    +0.000 C 
ATOM      9  C   UNL     1      48.068  33.141  40.470  0.00  0.00    +0.000 C 
ATOM     10  C   UNL     1      48.219  33.959  41.745  0.00  0.00    +0.000 C 
ATOM     11  H   UNL     1      46.458  32.966  42.456  0.00  0.00    +0.000 HD
ATOM     12  H   UNL     1      44.996  34.139  41.102  0.00  0.00    +0.000 HD
ATOM     13  H   UNL     1      46.172  35.468  40.735  0.00  0.00    +0.000 HD
ATOM     14  H   UNL     1      46.106  32.545  39.938  0.00  0.00    +0.000 HD
ATOM     15  H   UNL     1      46.766  33.921  38.936  0.00  0.00    +0.000 HD
ATOM     16  H   UNL     1      48.844  33.498  39.758  0.00  0.00    +0.000 HD
ATOM     17  H   UNL     1      48.196  32.068  40.682  0.00  0.00    +0.000 HD
ATOM     18  H   UNL     1      48.922  33.438  42.455  0.00  0.00    +0.000 HD
BRANCH  10  19
ATOM     19  C   UNL     1      48.761  35.335  41.459  0.00  0.00    +0.000 C 
ATOM     20  H   UNL     1      49.318  35.358  40.479  0.00  0.00    +0.000 HD
ATOM     21  H   UNL     1      47.991  36.124  41.384  0.00  0.00    +0.000 HD
BRANCH  19  22
ATOM     22  O   UNL     1      49.656  35.755  42.417  0.00  0.00    +0.000 OA
ATOM     23  H   UNL     1      50.485  35.260  42.312  0.00  0.00    +0.000 HD
ENDBRANCH  19  22
ENDBRANCH  10  19
ENDBRANCH   5   6
ENDBRANCH   2   5
BRANCH   2  24
ATOM     24  O   UNL     1      46.477  33.495  45.606  0.00  0.00    +0.000 OA
BRANCH  24  25
ATOM     25  C   UNL     1      46.239  32.159  45.573  0.00  0.00    +0.000 C 
ATOM     26  H   UNL     1      47.201  31.648  45.272  0.00  0.00    +0.000 HD
ATOM     27  H   UNL     1      45.496  31.782  44.871  0.00  0.00    +0.000 HD
BRANCH  25  30
ATOM     28  C   UNL     1      45.641  31.907  49.238  0.00  0.00    +0.000 A 
ATOM     29  C   UNL     1      45.980  32.457  47.995  0.00  0.00    +0.000 A 
ATOM     30  C   UNL     1      45.886  31.602  46.891  0.00  0.00    +0.000 A 
ATOM     31  N   UNL     1      45.480  30.315  47.076  0.00  0.00    +0.000 NA
ATOM     32  C   UNL     1      45.160  29.813  48.288  0.00  0.00    +0.000 A 
ATOM     33  N   UNL     1      45.242  30.604  49.351  0.00  0.00    +0.000 NA
ATOM     34  H   UNL     1      45.698  32.530  50.127  0.00  0.00    +0.000 HD
ATOM     35  H   UNL     1      46.297  33.488  47.906  0.00  0.00    +0.000 HD
BRANCH  32  38
ATOM     36  O   UNL     1      46.229  27.538  46.804  0.00  0.00    +0.000 OA
ATOM     37  C   UNL     1      45.705  27.433  47.944  0.00  0.00    +0.000 C 
ATOM     38  C   UNL     1      44.721  28.402  48.452  0.00  0.00    +0.000 C 
ATOM     39  C   UNL     1      44.708  28.022  49.939  0.00  0.00    +0.000 C 
ATOM     40  H   UNL     1      45.638  28.350  50.445  0.00  0.00    +0.000 HD
ATOM     41  C   UNL     1      44.813  26.497  49.811  0.00  0.00    +0.000 C 
ATOM     42  H   UNL     1      43.868  26.185  49.285  0.00  0.00    +0.000 HD
ATOM     43  N   UNL     1      45.961  26.395  48.913  0.00  0.00    +0.000 N 
ATOM     44  H   UNL     1      46.799  25.744  48.921  0.00  0.00    +0.000 HD
ENDBRANCH  32  38
ENDBRANCH  25  30
ENDBRANCH  24  25
ENDBRANCH   2  24
TORSDOF 9
