
 OpenBabel03252508233D

 48 51  0  0  1  0  0  0  0  0999 V2000
   45.0410   34.1130   40.8710 C   0  0  0  0  0  0  0  0  0  0  0  0
   46.1080   34.4380   41.6820 C   0  0  0  0  0  0  0  0  0  0  0  0
   46.0540   35.3410   42.7120 C   0  0  0  0  0  0  0  0  0  0  0  0
   44.8110   35.9540   42.9200 C   0  0  0  0  0  0  0  0  0  0  0  0
   43.7190   35.6690   42.1440 C   0  0  0  0  0  0  0  0  0  0  0  0
   43.8210   34.7630   41.1310 C   0  0  0  0  0  0  0  0  0  0  0  0
   47.0910   34.0010   41.5940 H   0  0  0  0  0  0  0  0  0  0  0  0
   46.8690   35.6120   43.3580 H   0  0  0  0  0  0  0  0  0  0  0  0
   44.7090   36.6870   43.7290 H   0  0  0  0  0  0  0  0  0  0  0  0
   42.7920   36.1900   42.3740 H   0  0  0  0  0  0  0  0  0  0  0  0
   42.6410   34.5310   40.3950 N   0  0  0  0  0  0  0  0  0  0  0  0
   42.3000   35.2090   39.1800 C   0  0  0  0  0  0  0  0  0  0  0  0
   41.2640   34.4320   38.3910 C   0  0  0  0  0  0  0  0  0  0  0  0
   41.4230   33.0170   38.4280 N   0  0  0  0  0  0  0  0  0  0  0  0
   41.5100   32.4650   39.7310 C   0  0  0  0  0  0  0  0  0  0  0  0
   41.5900   33.5680   40.7590 C   0  0  0  0  0  0  0  0  0  0  0  0
   43.1120   35.6000   38.5780 H   0  0  0  0  0  0  0  0  0  0  0  0
   41.7390   36.1300   39.5220 H   0  0  0  0  0  0  0  0  0  0  0  0
   41.3900   34.7410   37.3250 H   0  0  0  0  0  0  0  0  0  0  0  0
   40.2170   34.6790   38.7060 H   0  0  0  0  0  0  0  0  0  0  0  0
   40.7100   32.6130   37.8160 H   0  0  0  0  0  0  0  0  0  0  0  0
   40.6870   31.7990   40.0130 H   0  0  0  0  0  0  0  0  0  0  0  0
   42.4770   31.8960   39.7940 H   0  0  0  0  0  0  0  0  0  0  0  0
   40.6270   34.0960   40.7900 H   0  0  0  0  0  0  0  0  0  0  0  0
   41.8050   33.1380   41.7470 H   0  0  0  0  0  0  0  0  0  0  0  0
   45.1050   33.1480   39.7690 C   0  0  0  0  0  0  0  0  0  0  0  0
   44.8700   33.5620   38.7870 H   0  0  0  0  0  0  0  0  0  0  0  0
   44.2700   32.4140   39.9730 H   0  0  0  0  0  0  0  0  0  0  0  0
   46.4430   32.4410   39.7270 C   0  0  0  0  0  0  0  0  0  0  0  0
   47.1260   32.6740   40.5280 H   0  0  0  0  0  0  0  0  0  0  0  0
   46.2350   31.3320   39.6650 H   0  0  0  0  0  0  0  0  0  0  0  0
   48.6300   34.1220   37.1480 C   0  0  0  0  0  0  0  0  0  0  0  0
   47.9930   33.8470   38.3790 C   0  0  0  0  0  0  0  0  0  0  0  0
   47.1210   32.7600   38.4470 C   0  0  0  0  0  0  0  0  0  0  0  0
   46.9300   32.0160   37.3130 N   0  0  0  0  0  0  0  0  0  0  0  0
   47.5540   32.3090   36.1620 C   0  0  0  0  0  0  0  0  0  0  0  0
   48.4000   33.3560   36.0770 N   0  0  0  0  0  0  0  0  0  0  0  0
   49.2960   34.9750   37.1440 H   0  0  0  0  0  0  0  0  0  0  0  0
   48.1920   34.4740   39.2250 H   0  0  0  0  0  0  0  0  0  0  0  0
   47.6070   29.1420   35.5720 O   0  0  0  0  0  0  0  0  0  0  0  0
   46.9050   30.1260   35.1850 C   0  0  0  0  0  0  0  0  0  0  0  0
   47.3460   31.4980   34.9270 C   0  0  1  0  0  3  0  0  0  0  0  0
   46.2400   32.0900   34.0710 C   0  0  0  0  0  3  0  0  0  0  0  0
   46.1780   33.1890   34.3060 H   0  0  0  0  0  0  0  0  0  0  0  0
   44.9860   31.3400   34.4440 C   0  0  0  0  0  3  0  0  0  0  0  0
   44.5290   31.8650   35.3110 H   0  0  0  0  0  0  0  0  0  0  0  0
   45.5060   30.0730   34.9190 N   0  0  0  0  0  0  0  0  0  0  0  0
   44.8810   29.2250   35.0410 H   0  0  0  0  0  0  0  0  0  0  0  0
  1  6  2  0  0  0  0
  1  2  1  0  0  0  0
  2  3  2  0  0  0  0
  3  4  1  0  0  0  0
  3  8  1  0  0  0  0
  4  9  1  0  0  0  0
  5 10  1  0  0  0  0
  5  4  2  0  0  0  0
  6  5  1  0  0  0  0
  7  2  1  0  0  0  0
 11 16  1  0  0  0  0
 11  6  1  0  0  0  0
 12 18  1  0  0  0  0
 12 11  1  0  0  0  0
 13 14  1  0  0  0  0
 13 20  1  0  0  0  0
 13 12  1  0  0  0  0
 14 15  1  0  0  0  0
 15 23  1  0  0  0  0
 15 22  1  0  0  0  0
 15 16  1  0  0  0  0
 16 24  1  0  0  0  0
 16 25  1  0  0  0  0
 17 12  1  0  0  0  0
 19 13  1  0  0  0  0
 21 14  1  0  0  0  0
 26 28  1  0  0  0  0
 26  1  1  0  0  0  0
 27 26  1  0  0  0  0
 29 26  1  0  0  0  0
 29 30  1  0  0  0  0
 31 29  1  0  0  0  0
 32 33  1  0  0  0  0
 33 34  2  0  0  0  0
 33 39  1  0  0  0  0
 34 29  1  0  0  0  0
 35 34  1  0  0  0  0
 36 35  2  0  0  0  0
 37 36  1  0  0  0  0
 37 32  2  0  0  0  0
 38 32  1  0  0  0  0
 41 40  2  0  0  0  0
 42 41  1  0  0  0  0
 42 36  1  1  0  0  0
 43 44  1  0  0  0  0
 43 45  1  0  0  0  0
 43 42  1  0  0  0  0
 45 47  1  0  0  0  0
 45 46  1  0  0  0  0
 47 48  1  0  0  0  0
 47 41  1  0  0  0  0
M  END
>  <minimizedAffinity>
-5.12011147

>  <minimizedRMSD>
7.52127028

$$$$
