
 OpenBabel03252508333D

 32 34  0  0  1  0  0  0  0  0999 V2000
   38.3970   31.2330   40.8180 N   0  0  0  0  0  0  0  0  0  0  0  0
   37.3910   31.1850   39.8180 C   0  0  1  0  0  0  0  0  0  0  0  0
   37.1700   32.4790   39.0970 C   0  0  0  0  0  0  0  0  0  0  0  0
   37.2800   33.6510   39.8540 N   0  0  0  0  0  0  0  0  0  0  0  0
   38.3070   33.6840   40.8100 C   0  0  0  0  0  0  0  0  0  0  0  0
   39.1580   32.4510   40.8070 C   0  0  0  0  0  0  0  0  0  0  0  0
   36.4340   30.8990   40.3020 H   0  0  0  0  0  0  0  0  0  0  0  0
   38.0010   32.5270   38.3310 H   0  0  0  0  0  0  0  0  0  0  0  0
   36.1960   32.4420   38.5680 H   0  0  0  0  0  0  0  0  0  0  0  0
   37.0570   34.4870   39.3170 H   0  0  0  0  0  0  0  0  0  0  0  0
   37.8840   33.8520   41.8150 H   0  0  0  0  0  0  0  0  0  0  0  0
   39.0060   34.5260   40.5310 H   0  0  0  0  0  0  0  0  0  0  0  0
   39.9460   32.5410   41.5700 H   0  0  0  0  0  0  0  0  0  0  0  0
   39.7130   32.4870   39.8320 H   0  0  0  0  0  0  0  0  0  0  0  0
   39.8590   29.6190   41.7720 C   0  0  0  0  0  0  0  0  0  0  0  0
   38.5550   30.1380   41.6810 C   0  0  0  0  0  0  0  0  0  0  0  0
   37.5540   29.5270   42.4160 C   0  0  0  0  0  0  0  0  0  0  0  0
   37.8220   28.4490   43.2050 N   0  0  0  0  0  0  0  0  0  0  0  0
   39.0990   27.9610   43.2770 C   0  0  0  0  0  0  0  0  0  0  0  0
   40.0900   28.5380   42.5730 N   0  0  0  0  0  0  0  0  0  0  0  0
   40.7660   29.9420   41.2880 H   0  0  0  0  0  0  0  0  0  0  0  0
   36.5520   29.9260   42.3650 H   0  0  0  0  0  0  0  0  0  0  0  0
   39.3120   27.1060   43.9030 H   0  0  0  0  0  0  0  0  0  0  0  0
   39.9810   30.8730   37.6500 O   0  0  0  0  0  0  0  0  0  0  0  0
   38.8580   30.3540   37.9480 C   0  0  0  0  0  0  0  0  0  0  0  0
   37.6310   30.1540   38.7510 C   0  0  2  0  0  3  0  0  0  0  0  0
   36.5870   30.1850   37.6580 C   0  0  0  0  0  3  0  0  0  0  0  0
   36.6130   31.0970   37.0570 H   0  0  0  0  0  0  0  0  0  0  0  0
   37.1650   29.0810   36.7580 C   0  0  0  0  0  3  0  0  0  0  0  0
   36.9050   28.0810   37.1280 H   0  0  0  0  0  0  0  0  0  0  0  0
   38.5990   29.3780   36.9060 N   0  0  0  0  0  0  0  0  0  0  0  0
   39.1160   28.7810   36.1840 H   0  0  0  0  0  0  0  0  0  0  0  0
  1 16  1  0  0  0  0
  2  7  1  1  0  0  0
  2  1  1  0  0  0  0
  3  2  1  0  0  0  0
  3  4  1  0  0  0  0
  4  5  1  0  0  0  0
  5 11  1  0  0  0  0
  6  5  1  0  0  0  0
  6  1  1  0  0  0  0
  6 13  1  0  0  0  0
  8  3  1  0  0  0  0
  9  3  1  0  0  0  0
 10  4  1  0  0  0  0
 12  5  1  0  0  0  0
 14  6  1  0  0  0  0
 15 20  1  0  0  0  0
 16 15  2  0  0  0  0
 16 17  1  0  0  0  0
 17 18  2  0  0  0  0
 18 19  1  0  0  0  0
 19 23  1  0  0  0  0
 20 19  2  0  0  0  0
 21 15  1  0  0  0  0
 22 17  1  0  0  0  0
 24 25  2  0  0  0  0
 25 26  1  0  0  0  0
 26 27  1  6  0  0  0
 26  2  1  0  0  0  0
 28 27  1  0  0  0  0
 29 31  1  0  0  0  0
 29 30  1  0  0  0  0
 29 27  1  0  0  0  0
 31 25  1  0  0  0  0
 32 31  1  0  0  0  0
M  END
>  <minimizedAffinity>
-4.74280977

$$$$

 OpenBabel03252508333D

 32 34  0  0  1  0  0  0  0  0999 V2000
   38.2520   31.1010   40.4800 N   0  0  0  0  0  0  0  0  0  0  0  0
   37.0960   31.6180   39.8390 C   0  0  1  0  0  0  0  0  0  0  0  0
   37.1920   33.0610   39.4530 C   0  0  0  0  0  0  0  0  0  0  0  0
   37.8810   33.9060   40.3310 N   0  0  0  0  0  0  0  0  0  0  0  0
   39.0420   33.3810   40.9210 C   0  0  0  0  0  0  0  0  0  0  0  0
   39.3730   31.9990   40.4490 C   0  0  0  0  0  0  0  0  0  0  0  0
   36.2370   31.5100   40.5340 H   0  0  0  0  0  0  0  0  0  0  0  0
   37.7880   33.0630   38.4920 H   0  0  0  0  0  0  0  0  0  0  0  0
   36.1760   33.4550   39.2460 H   0  0  0  0  0  0  0  0  0  0  0  0
   37.8560   34.8810   40.0390 H   0  0  0  0  0  0  0  0  0  0  0  0
   38.9470   33.3950   42.0210 H   0  0  0  0  0  0  0  0  0  0  0  0
   39.9120   34.0230   40.5940 H   0  0  0  0  0  0  0  0  0  0  0  0
   40.2930   31.6480   40.9410 H   0  0  0  0  0  0  0  0  0  0  0  0
   39.6670   32.1260   39.3730 H   0  0  0  0  0  0  0  0  0  0  0  0
   37.3080   29.6720   42.1290 C   0  0  0  0  0  0  0  0  0  0  0  0
   38.2020   29.8210   41.0530 C   0  0  0  0  0  0  0  0  0  0  0  0
   38.9560   28.7270   40.6710 C   0  0  0  0  0  0  0  0  0  0  0  0
   38.8400   27.5340   41.3210 N   0  0  0  0  0  0  0  0  0  0  0  0
   37.9630   27.4130   42.3660 C   0  0  0  0  0  0  0  0  0  0  0  0
   37.2170   28.4630   42.7550 N   0  0  0  0  0  0  0  0  0  0  0  0
   36.6400   30.3900   42.5760 H   0  0  0  0  0  0  0  0  0  0  0  0
   39.6350   28.8260   39.8380 H   0  0  0  0  0  0  0  0  0  0  0  0
   37.8710   26.4670   42.8810 H   0  0  0  0  0  0  0  0  0  0  0  0
   35.2850   28.7730   39.4790 O   0  0  0  0  0  0  0  0  0  0  0  0
   35.9430   29.6320   38.8090 C   0  0  0  0  0  0  0  0  0  0  0  0
   36.7030   30.8820   38.5890 C   0  0  2  0  0  3  0  0  0  0  0  0
   37.8920   30.3430   37.8260 C   0  0  0  0  0  3  0  0  0  0  0  0
   38.4280   29.5530   38.3570 H   0  0  0  0  0  0  0  0  0  0  0  0
   37.1340   29.6360   36.6910 C   0  0  0  0  0  3  0  0  0  0  0  0
   36.8180   30.3450   35.9140 H   0  0  0  0  0  0  0  0  0  0  0  0
   35.9960   29.1020   37.4580 N   0  0  0  0  0  0  0  0  0  0  0  0
   35.4710   28.4340   36.8100 H   0  0  0  0  0  0  0  0  0  0  0  0
  1 16  1  0  0  0  0
  2  1  1  0  0  0  0
  2  7  1  1  0  0  0
  3  2  1  0  0  0  0
  3  4  1  0  0  0  0
  4  5  1  0  0  0  0
  5 11  1  0  0  0  0
  6  1  1  0  0  0  0
  6  5  1  0  0  0  0
  6 13  1  0  0  0  0
  8  3  1  0  0  0  0
  9  3  1  0  0  0  0
 10  4  1  0  0  0  0
 12  5  1  0  0  0  0
 14  6  1  0  0  0  0
 15 21  1  0  0  0  0
 15 20  1  0  0  0  0
 16 15  2  0  0  0  0
 17 16  1  0  0  0  0
 17 18  2  0  0  0  0
 18 19  1  0  0  0  0
 19 20  2  0  0  0  0
 19 23  1  0  0  0  0
 22 17  1  0  0  0  0
 25 24  2  0  0  0  0
 26 27  1  1  0  0  0
 26 25  1  0  0  0  0
 26  2  1  0  0  0  0
 27 28  1  0  0  0  0
 29 31  1  0  0  0  0
 29 27  1  0  0  0  0
 30 29  1  0  0  0  0
 31 25  1  0  0  0  0
 32 31  1  0  0  0  0
M  END
>  <minimizedAffinity>
-4.66705561

$$$$

 OpenBabel03252508333D

 32 34  0  0  1  0  0  0  0  0999 V2000
   38.9870   31.0580   39.3230 N   0  0  0  0  0  0  0  0  0  0  0  0
   39.4240   30.7130   40.6290 C   0  0  1  0  0  0  0  0  0  0  0  0
   39.6250   31.8800   41.5450 C   0  0  0  0  0  0  0  0  0  0  0  0
   40.1400   33.0500   40.9750 N   0  0  0  0  0  0  0  0  0  0  0  0
   39.6620   33.3860   39.6990 C   0  0  0  0  0  0  0  0  0  0  0  0
   38.6190   32.4390   39.1890 C   0  0  0  0  0  0  0  0  0  0  0  0
   40.3940   30.1800   40.5410 H   0  0  0  0  0  0  0  0  0  0  0  0
   38.5860   32.1450   41.9070 H   0  0  0  0  0  0  0  0  0  0  0  0
   40.2370   31.5640   42.4140 H   0  0  0  0  0  0  0  0  0  0  0  0
   40.3090   33.7810   41.6630 H   0  0  0  0  0  0  0  0  0  0  0  0
   40.5010   33.4480   38.9840 H   0  0  0  0  0  0  0  0  0  0  0  0
   39.1410   34.3840   39.7810 H   0  0  0  0  0  0  0  0  0  0  0  0
   38.2810   32.7600   38.1920 H   0  0  0  0  0  0  0  0  0  0  0  0
   37.7280   32.6110   39.8510 H   0  0  0  0  0  0  0  0  0  0  0  0
   37.7050   29.8780   37.7060 C   0  0  0  0  0  0  0  0  0  0  0  0
   38.9510   30.0660   38.3310 C   0  0  0  0  0  0  0  0  0  0  0  0
   40.0070   29.2620   37.9420 C   0  0  0  0  0  0  0  0  0  0  0  0
   39.8470   28.3100   36.9790 N   0  0  0  0  0  0  0  0  0  0  0  0
   38.6240   28.1450   36.3850 C   0  0  0  0  0  0  0  0  0  0  0  0
   37.5810   28.9160   36.7450 N   0  0  0  0  0  0  0  0  0  0  0  0
   36.7700   30.3910   37.8610 H   0  0  0  0  0  0  0  0  0  0  0  0
   40.9720   29.4080   38.4050 H   0  0  0  0  0  0  0  0  0  0  0  0
   38.4970   27.3920   35.6220 H   0  0  0  0  0  0  0  0  0  0  0  0
   36.0900   30.9490   41.2080 O   0  0  0  0  0  0  0  0  0  0  0  0
   37.1010   30.2190   41.4630 C   0  0  0  0  0  0  0  0  0  0  0  0
   38.5070   29.7700   41.3570 C   0  0  2  0  0  3  0  0  0  0  0  0
   38.8540   29.6260   42.8210 C   0  0  0  0  0  3  0  0  0  0  0  0
   38.6930   30.5380   43.3990 H   0  0  0  0  0  0  0  0  0  0  0  0
   37.7200   28.6720   43.2320 C   0  0  0  0  0  3  0  0  0  0  0  0
   37.9490   27.6330   42.9630 H   0  0  0  0  0  0  0  0  0  0  0  0
   36.6280   29.2340   42.4200 N   0  0  0  0  0  0  0  0  0  0  0  0
   35.7260   28.7630   42.7450 H   0  0  0  0  0  0  0  0  0  0  0  0
  1  2  1  0  0  0  0
  2  7  1  6  0  0  0
  2 26  1  0  0  0  0
  2  3  1  0  0  0  0
  3  8  1  0  0  0  0
  3  9  1  0  0  0  0
  4  3  1  0  0  0  0
  4 10  1  0  0  0  0
  5 12  1  0  0  0  0
  5  4  1  0  0  0  0
  6  1  1  0  0  0  0
  6  5  1  0  0  0  0
  6 14  1  0  0  0  0
 11  5  1  0  0  0  0
 13  6  1  0  0  0  0
 15 21  1  0  0  0  0
 15 16  1  0  0  0  0
 16  1  1  0  0  0  0
 17 16  2  0  0  0  0
 17 22  1  0  0  0  0
 18 17  1  0  0  0  0
 19 20  1  0  0  0  0
 19 18  2  0  0  0  0
 20 15  2  0  0  0  0
 23 19  1  0  0  0  0
 24 25  2  0  0  0  0
 25 31  1  0  0  0  0
 26 25  1  1  0  0  0
 26 27  1  0  0  0  0
 27 29  1  0  0  0  0
 27 28  1  0  0  0  0
 30 29  1  0  0  0  0
 31 32  1  0  0  0  0
 31 29  1  0  0  0  0
M  END
>  <minimizedAffinity>
-4.66612196

$$$$

 OpenBabel03252508333D

 32 34  0  0  1  0  0  0  0  0999 V2000
   37.9420   30.2950   39.6730 N   0  0  0  0  0  0  0  0  0  0  0  0
   39.1170   30.9070   39.1630 C   0  0  1  0  0  0  0  0  0  0  0  0
   38.9590   31.5160   37.8040 C   0  0  0  0  0  0  0  0  0  0  0  0
   38.1320   30.8390   36.9000 N   0  0  0  0  0  0  0  0  0  0  0  0
   36.9590   30.2770   37.4260 C   0  0  0  0  0  0  0  0  0  0  0  0
   36.7700   30.5590   38.8850 C   0  0  0  0  0  0  0  0  0  0  0  0
   39.9090   30.1320   39.0970 H   0  0  0  0  0  0  0  0  0  0  0  0
   38.4600   32.5130   37.9910 H   0  0  0  0  0  0  0  0  0  0  0  0
   39.9610   31.6930   37.3630 H   0  0  0  0  0  0  0  0  0  0  0  0
   38.1190   31.2730   35.9790 H   0  0  0  0  0  0  0  0  0  0  0  0
   36.9450   29.1890   37.2440 H   0  0  0  0  0  0  0  0  0  0  0  0
   36.0830   30.7720   36.9140 H   0  0  0  0  0  0  0  0  0  0  0  0
   35.8330   30.0990   39.2360 H   0  0  0  0  0  0  0  0  0  0  0  0
   36.5740   31.6630   38.9420 H   0  0  0  0  0  0  0  0  0  0  0  0
   38.8600   28.4020   40.7800 C   0  0  0  0  0  0  0  0  0  0  0  0
   38.0250   29.5310   40.8480 C   0  0  0  0  0  0  0  0  0  0  0  0
   37.3500   29.7780   42.0300 C   0  0  0  0  0  0  0  0  0  0  0  0
   37.4900   28.9470   43.1030 N   0  0  0  0  0  0  0  0  0  0  0  0
   38.3090   27.8540   43.0130 C   0  0  0  0  0  0  0  0  0  0  0  0
   38.9760   27.5940   41.8740 N   0  0  0  0  0  0  0  0  0  0  0  0
   39.4640   28.0370   39.9640 H   0  0  0  0  0  0  0  0  0  0  0  0
   36.7170   30.6490   42.0980 H   0  0  0  0  0  0  0  0  0  0  0  0
   38.4200   27.1970   43.8630 H   0  0  0  0  0  0  0  0  0  0  0  0
   37.7640   33.8850   40.0580 O   0  0  0  0  0  0  0  0  0  0  0  0
   38.8250   33.1920   40.1760 C   0  0  0  0  0  0  0  0  0  0  0  0
   39.6780   31.9910   40.0390 C   0  0  2  0  0  3  0  0  0  0  0  0
   40.9320   32.6160   39.4700 C   0  0  0  0  0  3  0  0  0  0  0  0
   40.7590   33.1790   38.5500 H   0  0  0  0  0  0  0  0  0  0  0  0
   41.1750   33.6720   40.5600 C   0  0  0  0  0  3  0  0  0  0  0  0
   41.6610   33.2370   41.4430 H   0  0  0  0  0  0  0  0  0  0  0  0
   39.7830   34.0680   40.8260 N   0  0  0  0  0  0  0  0  0  0  0  0
   39.8200   34.9330   41.4530 H   0  0  0  0  0  0  0  0  0  0  0  0
  1 16  1  0  0  0  0
  2  7  1  6  0  0  0
  2  1  1  0  0  0  0
  2 26  1  0  0  0  0
  3  8  1  0  0  0  0
  3  2  1  0  0  0  0
  4  5  1  0  0  0  0
  4  3  1  0  0  0  0
  5  6  1  0  0  0  0
  6 14  1  0  0  0  0
  6 13  1  0  0  0  0
  6  1  1  0  0  0  0
  9  3  1  0  0  0  0
 10  4  1  0  0  0  0
 11  5  1  0  0  0  0
 12  5  1  0  0  0  0
 15 16  2  0  0  0  0
 15 20  1  0  0  0  0
 16 17  1  0  0  0  0
 17 22  1  0  0  0  0
 17 18  2  0  0  0  0
 19 18  1  0  0  0  0
 19 23  1  0  0  0  0
 20 19  2  0  0  0  0
 21 15  1  0  0  0  0
 24 25  2  0  0  0  0
 25 31  1  0  0  0  0
 26 27  1  6  0  0  0
 26 25  1  0  0  0  0
 27 29  1  0  0  0  0
 28 27  1  0  0  0  0
 29 31  1  0  0  0  0
 29 30  1  0  0  0  0
 31 32  1  0  0  0  0
M  END
>  <minimizedAffinity>
-4.59743643

$$$$

 OpenBabel03252508333D

 32 34  0  0  1  0  0  0  0  0999 V2000
   38.7730   27.6830   41.6120 N   0  0  0  0  0  0  0  0  0  0  0  0
   38.0910   27.0420   42.6790 C   0  0  1  0  0  0  0  0  0  0  0  0
   36.8840   27.7780   43.1740 C   0  0  0  0  0  0  0  0  0  0  0  0
   36.9600   29.1750   43.1960 N   0  0  0  0  0  0  0  0  0  0  0  0
   37.6070   29.7820   42.1090 C   0  0  0  0  0  0  0  0  0  0  0  0
   38.0610   28.8050   41.0680 C   0  0  0  0  0  0  0  0  0  0  0  0
   38.7970   26.9390   43.5290 H   0  0  0  0  0  0  0  0  0  0  0  0
   36.0680   27.5250   42.4330 H   0  0  0  0  0  0  0  0  0  0  0  0
   36.5980   27.3840   44.1710 H   0  0  0  0  0  0  0  0  0  0  0  0
   36.1310   29.6070   43.6000 H   0  0  0  0  0  0  0  0  0  0  0  0
   38.4620   30.3840   42.4650 H   0  0  0  0  0  0  0  0  0  0  0  0
   36.8540   30.4420   41.5870 H   0  0  0  0  0  0  0  0  0  0  0  0
   38.5530   29.3420   40.2430 H   0  0  0  0  0  0  0  0  0  0  0  0
   37.1140   28.4090   40.6140 H   0  0  0  0  0  0  0  0  0  0  0  0
   41.0500   27.2620   42.1510 C   0  0  0  0  0  0  0  0  0  0  0  0
   40.0180   27.1830   41.1990 C   0  0  0  0  0  0  0  0  0  0  0  0
   40.3120   26.6530   39.9560 C   0  0  0  0  0  0  0  0  0  0  0  0
   41.5700   26.2190   39.6580 N   0  0  0  0  0  0  0  0  0  0  0  0
   42.5590   26.3070   40.6020 C   0  0  0  0  0  0  0  0  0  0  0  0
   42.2970   26.8180   41.8190 N   0  0  0  0  0  0  0  0  0  0  0  0
   41.0300   27.6370   43.1620 H   0  0  0  0  0  0  0  0  0  0  0  0
   39.5240   26.5730   39.2220 H   0  0  0  0  0  0  0  0  0  0  0  0
   43.5560   25.9630   40.3660 H   0  0  0  0  0  0  0  0  0  0  0  0
   39.7900   24.1100   42.8060 O   0  0  0  0  0  0  0  0  0  0  0  0
   38.6600   24.5980   42.4830 C   0  0  0  0  0  0  0  0  0  0  0  0
   37.6240   25.6480   42.3650 C   0  0  2  0  0  3  0  0  0  0  0  0
   37.2280   25.4740   40.9160 C   0  0  0  0  0  3  0  0  0  0  0  0
   38.0670   25.5590   40.2220 H   0  0  0  0  0  0  0  0  0  0  0  0
   36.8760   23.9780   40.9550 C   0  0  0  0  0  3  0  0  0  0  0  0
   35.8710   23.8110   41.3640 H   0  0  0  0  0  0  0  0  0  0  0  0
   37.9350   23.5050   41.8610 N   0  0  0  0  0  0  0  0  0  0  0  0
   37.9090   22.4370   41.8380 H   0  0  0  0  0  0  0  0  0  0  0  0
  1  2  1  0  0  0  0
  2  3  1  0  0  0  0
  2  7  1  1  0  0  0
  3  4  1  0  0  0  0
  3  9  1  0  0  0  0
  4 10  1  0  0  0  0
  5 11  1  0  0  0  0
  5  4  1  0  0  0  0
  6  1  1  0  0  0  0
  6  5  1  0  0  0  0
  8  3  1  0  0  0  0
 12  5  1  0  0  0  0
 13  6  1  0  0  0  0
 14  6  1  0  0  0  0
 15 21  1  0  0  0  0
 16  1  1  0  0  0  0
 16 15  2  0  0  0  0
 17 16  1  0  0  0  0
 18 17  2  0  0  0  0
 18 19  1  0  0  0  0
 19 20  2  0  0  0  0
 20 15  1  0  0  0  0
 22 17  1  0  0  0  0
 23 19  1  0  0  0  0
 25 24  2  0  0  0  0
 26 27  1  6  0  0  0
 26 25  1  0  0  0  0
 26  2  1  0  0  0  0
 27 29  1  0  0  0  0
 28 27  1  0  0  0  0
 29 30  1  0  0  0  0
 29 31  1  0  0  0  0
 31 25  1  0  0  0  0
 32 31  1  0  0  0  0
M  END
>  <minimizedAffinity>
-4.59212637

$$$$

 OpenBabel03252508333D

 32 34  0  0  1  0  0  0  0  0999 V2000
   37.9910   29.5180   39.9240 N   0  0  0  0  0  0  0  0  0  0  0  0
   37.4170   30.8070   39.7710 C   0  0  1  0  0  0  0  0  0  0  0  0
   36.3030   31.1080   40.7260 C   0  0  0  0  0  0  0  0  0  0  0  0
   35.4490   30.0500   41.0550 N   0  0  0  0  0  0  0  0  0  0  0  0
   36.0500   28.7950   41.2370 C   0  0  0  0  0  0  0  0  0  0  0  0
   37.5410   28.8260   41.0990 C   0  0  0  0  0  0  0  0  0  0  0  0
   37.0100   30.8840   38.7410 H   0  0  0  0  0  0  0  0  0  0  0  0
   36.8210   31.3970   41.6890 H   0  0  0  0  0  0  0  0  0  0  0  0
   35.7260   31.9790   40.3540 H   0  0  0  0  0  0  0  0  0  0  0  0
   34.6810   30.3380   41.6580 H   0  0  0  0  0  0  0  0  0  0  0  0
   35.6190   28.0620   40.5330 H   0  0  0  0  0  0  0  0  0  0  0  0
   35.8580   28.4750   42.3030 H   0  0  0  0  0  0  0  0  0  0  0  0
   37.9520   27.8180   41.2600 H   0  0  0  0  0  0  0  0  0  0  0  0
   37.8990   29.4140   41.9870 H   0  0  0  0  0  0  0  0  0  0  0  0
   38.3760   28.8210   37.6840 C   0  0  0  0  0  0  0  0  0  0  0  0
   38.9070   29.0600   38.9640 C   0  0  0  0  0  0  0  0  0  0  0  0
   40.2510   28.8080   39.1740 C   0  0  0  0  0  0  0  0  0  0  0  0
   41.0420   28.3380   38.1680 N   0  0  0  0  0  0  0  0  0  0  0  0
   40.5020   28.1130   36.9290 C   0  0  0  0  0  0  0  0  0  0  0  0
   39.1980   28.3520   36.7000 N   0  0  0  0  0  0  0  0  0  0  0  0
   37.3710   28.9500   37.3180 H   0  0  0  0  0  0  0  0  0  0  0  0
   40.6720   29.0010   40.1490 H   0  0  0  0  0  0  0  0  0  0  0  0
   41.1290   27.7410   36.1320 H   0  0  0  0  0  0  0  0  0  0  0  0
   39.5750   31.5100   42.2900 O   0  0  0  0  0  0  0  0  0  0  0  0
   39.1530   31.9640   41.1790 C   0  0  0  0  0  0  0  0  0  0  0  0
   38.3960   31.9390   39.9080 C   0  0  2  0  0  3  0  0  0  0  0  0
   37.7250   33.2920   39.9680 C   0  0  0  0  0  3  0  0  0  0  0  0
   37.1270   33.4420   40.8700 H   0  0  0  0  0  0  0  0  0  0  0  0
   38.9790   34.1610   40.1560 C   0  0  0  0  0  3  0  0  0  0  0  0
   39.4950   34.3370   39.2030 H   0  0  0  0  0  0  0  0  0  0  0  0
   39.7470   33.2830   41.0540 N   0  0  0  0  0  0  0  0  0  0  0  0
   40.5820   33.8510   41.4050 H   0  0  0  0  0  0  0  0  0  0  0  0
  1  6  1  0  0  0  0
  2  7  1  6  0  0  0
  2 26  1  0  0  0  0
  2  1  1  0  0  0  0
  2  3  1  0  0  0  0
  3  4  1  0  0  0  0
  3  8  1  0  0  0  0
  4  5  1  0  0  0  0
  4 10  1  0  0  0  0
  5 12  1  0  0  0  0
  6  5  1  0  0  0  0
  6 13  1  0  0  0  0
  6 14  1  0  0  0  0
  9  3  1  0  0  0  0
 11  5  1  0  0  0  0
 15 16  1  0  0  0  0
 16 17  2  0  0  0  0
 16  1  1  0  0  0  0
 17 22  1  0  0  0  0
 18 17  1  0  0  0  0
 19 18  2  0  0  0  0
 20 19  1  0  0  0  0
 20 15  2  0  0  0  0
 21 15  1  0  0  0  0
 23 19  1  0  0  0  0
 25 24  2  0  0  0  0
 26 27  1  1  0  0  0
 26 25  1  0  0  0  0
 27 29  1  0  0  0  0
 27 28  1  0  0  0  0
 29 31  1  0  0  0  0
 30 29  1  0  0  0  0
 31 25  1  0  0  0  0
 31 32  1  0  0  0  0
M  END
>  <minimizedAffinity>
-4.58492517

$$$$

 OpenBabel03252508333D

 32 34  0  0  1  0  0  0  0  0999 V2000
   38.3090   30.5440   39.9470 N   0  0  0  0  0  0  0  0  0  0  0  0
   38.4620   30.4100   41.3510 C   0  0  1  0  0  0  0  0  0  0  0  0
   37.2570   29.8710   42.0590 C   0  0  0  0  0  0  0  0  0  0  0  0
   36.0080   30.2760   41.5760 N   0  0  0  0  0  0  0  0  0  0  0  0
   35.8750   30.3630   40.1820 C   0  0  0  0  0  0  0  0  0  0  0  0
   37.1070   29.9420   39.4410 C   0  0  0  0  0  0  0  0  0  0  0  0
   38.6820   31.4130   41.7730 H   0  0  0  0  0  0  0  0  0  0  0  0
   37.3030   28.7530   41.8950 H   0  0  0  0  0  0  0  0  0  0  0  0
   37.3450   30.0790   43.1450 H   0  0  0  0  0  0  0  0  0  0  0  0
   35.2360   29.9230   42.1390 H   0  0  0  0  0  0  0  0  0  0  0  0
   35.5890   31.3890   39.8910 H   0  0  0  0  0  0  0  0  0  0  0  0
   35.0750   29.6300   39.8680 H   0  0  0  0  0  0  0  0  0  0  0  0
   36.9370   30.0260   38.3570 H   0  0  0  0  0  0  0  0  0  0  0  0
   37.1870   28.8370   39.6230 H   0  0  0  0  0  0  0  0  0  0  0  0
   39.5500   32.5420   39.6000 C   0  0  0  0  0  0  0  0  0  0  0  0
   39.3000   31.2130   39.2120 C   0  0  0  0  0  0  0  0  0  0  0  0
   40.0180   30.6940   38.1490 C   0  0  0  0  0  0  0  0  0  0  0  0
   40.9420   31.4510   37.4920 N   0  0  0  0  0  0  0  0  0  0  0  0
   41.1680   32.7420   37.8880 C   0  0  0  0  0  0  0  0  0  0  0  0
   40.4840   33.2690   38.9190 N   0  0  0  0  0  0  0  0  0  0  0  0
   39.1050   33.1260   40.3890 H   0  0  0  0  0  0  0  0  0  0  0  0
   39.8450   29.6710   37.8520 H   0  0  0  0  0  0  0  0  0  0  0  0
   41.9010   33.3410   37.3670 H   0  0  0  0  0  0  0  0  0  0  0  0
   38.5310   27.8240   43.5450 O   0  0  0  0  0  0  0  0  0  0  0  0
   39.2870   28.5200   42.7950 C   0  0  0  0  0  0  0  0  0  0  0  0
   39.6100   29.5320   41.7660 C   0  0  2  0  0  3  0  0  0  0  0  0
   40.7070   30.2950   42.4730 C   0  0  0  0  0  3  0  0  0  0  0  0
   40.4050   30.6910   43.4450 H   0  0  0  0  0  0  0  0  0  0  0  0
   41.6430   29.1150   42.7820 C   0  0  0  0  0  3  0  0  0  0  0  0
   42.2480   28.8400   41.9080 H   0  0  0  0  0  0  0  0  0  0  0  0
   40.6380   28.0920   43.1120 N   0  0  0  0  0  0  0  0  0  0  0  0
   41.1670   27.2560   43.5180 H   0  0  0  0  0  0  0  0  0  0  0  0
  1  2  1  0  0  0  0
  2 26  1  0  0  0  0
  2  7  1  1  0  0  0
  2  3  1  0  0  0  0
  3  9  1  0  0  0  0
  4  3  1  0  0  0  0
  4 10  1  0  0  0  0
  5  4  1  0  0  0  0
  6 14  1  0  0  0  0
  6  1  1  0  0  0  0
  6  5  1  0  0  0  0
  8  3  1  0  0  0  0
 11  5  1  0  0  0  0
 12  5  1  0  0  0  0
 13  6  1  0  0  0  0
 15 21  1  0  0  0  0
 16 15  1  0  0  0  0
 16  1  1  0  0  0  0
 17 16  2  0  0  0  0
 18 19  2  0  0  0  0
 18 17  1  0  0  0  0
 19 20  1  0  0  0  0
 20 15  2  0  0  0  0
 22 17  1  0  0  0  0
 23 19  1  0  0  0  0
 25 31  1  0  0  0  0
 25 24  2  0  0  0  0
 26 27  1  1  0  0  0
 26 25  1  0  0  0  0
 27 29  1  0  0  0  0
 27 28  1  0  0  0  0
 29 31  1  0  0  0  0
 30 29  1  0  0  0  0
 31 32  1  0  0  0  0
M  END
>  <minimizedAffinity>
-4.50220823

$$$$

 OpenBabel03252508333D

 32 34  0  0  1  0  0  0  0  0999 V2000
   38.8600   29.3450   39.7790 N   0  0  0  0  0  0  0  0  0  0  0  0
   39.6020   30.5440   39.6180 C   0  0  1  0  0  0  0  0  0  0  0  0
   39.8870   30.9120   38.1940 C   0  0  0  0  0  0  0  0  0  0  0  0
   40.1510   29.8600   37.3100 N   0  0  0  0  0  0  0  0  0  0  0  0
   39.3760   28.7010   37.4690 C   0  0  0  0  0  0  0  0  0  0  0  0
   38.3420   28.8230   38.5450 C   0  0  0  0  0  0  0  0  0  0  0  0
   40.5760   30.4210   40.1370 H   0  0  0  0  0  0  0  0  0  0  0  0
   38.9320   31.3930   37.8250 H   0  0  0  0  0  0  0  0  0  0  0  0
   40.7020   31.6640   38.1650 H   0  0  0  0  0  0  0  0  0  0  0  0
   40.3960   30.1840   36.3760 H   0  0  0  0  0  0  0  0  0  0  0  0
   40.0290   27.8320   37.6650 H   0  0  0  0  0  0  0  0  0  0  0  0
   38.7930   28.5460   36.5140 H   0  0  0  0  0  0  0  0  0  0  0  0
   37.7650   27.8880   38.6150 H   0  0  0  0  0  0  0  0  0  0  0  0
   37.6050   29.5730   38.1520 H   0  0  0  0  0  0  0  0  0  0  0  0
   37.3740   28.5880   41.4730 C   0  0  0  0  0  0  0  0  0  0  0  0
   38.7020   28.8060   41.0650 C   0  0  0  0  0  0  0  0  0  0  0  0
   39.7190   28.5010   41.9520 C   0  0  0  0  0  0  0  0  0  0  0  0
   39.4430   28.0040   43.1910 N   0  0  0  0  0  0  0  0  0  0  0  0
   38.1420   27.8000   43.5660 C   0  0  0  0  0  0  0  0  0  0  0  0
   37.1360   28.0870   42.7200 N   0  0  0  0  0  0  0  0  0  0  0  0
   36.4520   28.7580   40.9420 H   0  0  0  0  0  0  0  0  0  0  0  0
   40.7430   28.6510   41.6440 H   0  0  0  0  0  0  0  0  0  0  0  0
   37.9230   27.4050   44.5470 H   0  0  0  0  0  0  0  0  0  0  0  0
   36.4540   31.7520   39.2520 O   0  0  0  0  0  0  0  0  0  0  0  0
   37.5670   32.0130   39.8110 C   0  0  0  0  0  0  0  0  0  0  0  0
   38.9600   31.7540   40.2360 C   0  0  2  0  0  3  0  0  0  0  0  0
   39.6160   33.0490   39.8130 C   0  0  0  0  0  3  0  0  0  0  0  0
   39.4820   33.2780   38.7530 H   0  0  0  0  0  0  0  0  0  0  0  0
   38.6990   34.0260   40.5650 C   0  0  0  0  0  3  0  0  0  0  0  0
   38.9760   34.1060   41.6240 H   0  0  0  0  0  0  0  0  0  0  0  0
   37.4100   33.3420   40.3730 N   0  0  0  0  0  0  0  0  0  0  0  0
   36.6490   34.0140   40.7070 H   0  0  0  0  0  0  0  0  0  0  0  0
  1 16  1  0  0  0  0
  2  1  1  0  0  0  0
  2  7  1  1  0  0  0
  2 26  1  0  0  0  0
  3  2  1  0  0  0  0
  4  5  1  0  0  0  0
  4  3  1  0  0  0  0
  5 11  1  0  0  0  0
  5  6  1  0  0  0  0
  6 13  1  0  0  0  0
  6  1  1  0  0  0  0
  8  3  1  0  0  0  0
  9  3  1  0  0  0  0
 10  4  1  0  0  0  0
 12  5  1  0  0  0  0
 14  6  1  0  0  0  0
 15 20  1  0  0  0  0
 16 15  2  0  0  0  0
 16 17  1  0  0  0  0
 17 18  2  0  0  0  0
 18 19  1  0  0  0  0
 19 23  1  0  0  0  0
 20 19  2  0  0  0  0
 21 15  1  0  0  0  0
 22 17  1  0  0  0  0
 24 25  2  0  0  0  0
 25 31  1  0  0  0  0
 26 25  1  6  0  0  0
 27 26  1  0  0  0  0
 27 29  1  0  0  0  0
 28 27  1  0  0  0  0
 29 30  1  0  0  0  0
 31 29  1  0  0  0  0
 31 32  1  0  0  0  0
M  END
>  <minimizedAffinity>
-4.47963667

$$$$

 OpenBabel03252508333D

 32 34  0  0  1  0  0  0  0  0999 V2000
   37.9420   27.2250   41.3900 N   0  0  0  0  0  0  0  0  0  0  0  0
   36.7160   27.8530   41.0470 C   0  0  1  0  0  0  0  0  0  0  0  0
   36.5320   29.2180   41.6340 C   0  0  0  0  0  0  0  0  0  0  0  0
   37.0290   29.4230   42.9260 N   0  0  0  0  0  0  0  0  0  0  0  0
   38.2610   28.8210   43.2250 C   0  0  0  0  0  0  0  0  0  0  0  0
   38.8650   28.0980   42.0600 C   0  0  0  0  0  0  0  0  0  0  0  0
   35.8850   27.2130   41.4120 H   0  0  0  0  0  0  0  0  0  0  0  0
   37.1300   29.9040   40.9620 H   0  0  0  0  0  0  0  0  0  0  0  0
   35.4610   29.5020   41.5750 H   0  0  0  0  0  0  0  0  0  0  0  0
   36.8160   30.3510   43.2870 H   0  0  0  0  0  0  0  0  0  0  0  0
   38.1500   28.1350   44.0820 H   0  0  0  0  0  0  0  0  0  0  0  0
   38.9920   29.6450   43.4740 H   0  0  0  0  0  0  0  0  0  0  0  0
   39.8290   27.6560   42.3550 H   0  0  0  0  0  0  0  0  0  0  0  0
   39.1430   28.9070   41.3330 H   0  0  0  0  0  0  0  0  0  0  0  0
   37.2700   24.9640   41.6830 C   0  0  0  0  0  0  0  0  0  0  0  0
   38.1360   25.8760   41.0550 C   0  0  0  0  0  0  0  0  0  0  0  0
   39.1000   25.3800   40.1960 C   0  0  0  0  0  0  0  0  0  0  0  0
   39.2110   24.0410   39.9650 N   0  0  0  0  0  0  0  0  0  0  0  0
   38.3560   23.1710   40.5890 C   0  0  0  0  0  0  0  0  0  0  0  0
   37.4090   23.6300   41.4280 N   0  0  0  0  0  0  0  0  0  0  0  0
   36.4640   25.1420   42.3770 H   0  0  0  0  0  0  0  0  0  0  0  0
   39.7610   26.0730   39.6970 H   0  0  0  0  0  0  0  0  0  0  0  0
   38.4440   22.1100   40.4050 H   0  0  0  0  0  0  0  0  0  0  0  0
   38.5590   29.5220   38.7410 O   0  0  0  0  0  0  0  0  0  0  0  0
   37.4830   28.8550   38.8700 C   0  0  0  0  0  0  0  0  0  0  0  0
   36.4930   28.0060   39.5690 C   0  0  2  0  0  3  0  0  0  0  0  0
   35.2190   28.7510   39.2400 C   0  0  0  0  0  3  0  0  0  0  0  0
   35.2390   29.8000   39.5430 H   0  0  0  0  0  0  0  0  0  0  0  0
   35.3510   28.7630   37.7080 C   0  0  0  0  0  3  0  0  0  0  0  0
   35.0340   27.8080   37.2690 H   0  0  0  0  0  0  0  0  0  0  0  0
   36.8020   28.9790   37.5930 N   0  0  0  0  0  0  0  0  0  0  0  0
   37.0050   29.1800   36.5630 H   0  0  0  0  0  0  0  0  0  0  0  0
  1  6  1  0  0  0  0
  2  1  1  0  0  0  0
  2  7  1  1  0  0  0
  2  3  1  0  0  0  0
  3  4  1  0  0  0  0
  4  5  1  0  0  0  0
  4 10  1  0  0  0  0
  5 12  1  0  0  0  0
  5 11  1  0  0  0  0
  6 13  1  0  0  0  0
  6  5  1  0  0  0  0
  8  3  1  0  0  0  0
  9  3  1  0  0  0  0
 14  6  1  0  0  0  0
 15 21  1  0  0  0  0
 16  1  1  0  0  0  0
 16 15  2  0  0  0  0
 17 16  1  0  0  0  0
 18 17  2  0  0  0  0
 18 19  1  0  0  0  0
 19 20  2  0  0  0  0
 20 15  1  0  0  0  0
 22 17  1  0  0  0  0
 23 19  1  0  0  0  0
 24 25  2  0  0  0  0
 26 25  1  1  0  0  0
 26  2  1  0  0  0  0
 27 28  1  0  0  0  0
 27 26  1  0  0  0  0
 29 27  1  0  0  0  0
 30 29  1  0  0  0  0
 31 29  1  0  0  0  0
 31 25  1  0  0  0  0
 32 31  1  0  0  0  0
M  END
>  <minimizedAffinity>
-4.41227055

$$$$
