REMARK  Name = 
REMARK  3 active torsions:
REMARK  status: ('A' for Active; 'I' for Inactive)
REMARK    1  A    between atoms: C_2  and  N_22
REMARK    2  A    between atoms: C_5  and  C_12
REMARK    3  A    between atoms: C_20  and  C_40
REMARK                            x       y       z     vdW  Elec       q    Type
REMARK                         _______ _______ _______ _____ _____    ______ ____
ROOT
ATOM      1  C   UNL     1      47.337  32.305  47.939  0.00  0.00    +0.000 A 
ATOM      2  C   UNL     1      46.834  31.033  48.028  0.00  0.00    +0.000 A 
ATOM      3  C   UNL     1      45.943  30.675  47.077  0.00  0.00    +0.000 A 
ATOM      4  N   UNL     1      45.590  31.520  46.111  0.00  0.00    +0.000 NA
ATOM      5  C   UNL     1      46.074  32.759  45.995  0.00  0.00    +0.000 A 
ATOM      6  N   UNL     1      46.967  33.121  46.964  0.00  0.00    +0.000 NA
ATOM      7  N   UNL     1      45.372  29.399  47.046  0.00  0.00    +0.000 N 
ATOM      8  C   UNL     1      44.256  28.968  46.203  0.00  0.00    +0.000 C 
ATOM      9  C   UNL     1      44.231  27.456  46.303  0.00  0.00    +0.000 C 
ATOM     10  C   UNL     1      44.820  27.199  47.661  0.00  0.00    +0.000 C 
ATOM     11  C   UNL     1      45.809  28.282  47.865  0.00  0.00    +0.000 C 
ATOM     12  H   UNL     1      48.059  32.623  48.708  0.00  0.00    +0.000 HD
ATOM     13  H   UNL     1      44.361  29.341  45.178  0.00  0.00    +0.000 HD
ATOM     14  H   UNL     1      43.273  29.309  46.635  0.00  0.00    +0.000 HD
ATOM     15  H   UNL     1      43.233  27.049  46.146  0.00  0.00    +0.000 HD
ATOM     16  H   UNL     1      44.923  27.091  45.498  0.00  0.00    +0.000 HD
ATOM     17  H   UNL     1      45.305  26.182  47.624  0.00  0.00    +0.000 HD
ATOM     18  H   UNL     1      44.002  27.126  48.390  0.00  0.00    +0.000 HD
ATOM     19  H   UNL     1      45.626  28.569  48.930  0.00  0.00    +0.000 HD
ATOM     20  H   UNL     1      46.813  27.931  47.641  0.00  0.00    +0.000 HD
ENDROOT
BRANCH   5  21
ATOM     21  C   UNL     1      45.846  33.822  45.037  0.00  0.00    +0.000 A 
ATOM     22  N   UNL     1      44.902  34.769  45.250  0.00  0.00    +0.000 NA
ATOM     23  C   UNL     1      44.651  35.798  44.436  0.00  0.00    +0.000 A 
ATOM     24  N   UNL     1      45.378  35.933  43.310  0.00  0.00    +0.000 NA
ATOM     25  C   UNL     1      46.347  35.041  43.004  0.00  0.00    +0.000 A 
ATOM     26  C   UNL     1      47.068  35.212  41.864  0.00  0.00    +0.000 A 
ATOM     27  C   UNL     1      48.049  34.332  41.536  0.00  0.00    +0.000 A 
ATOM     28  C   UNL     1      48.277  33.271  42.397  0.00  0.00    +0.000 A 
ATOM     29  C   UNL     1      47.529  33.126  43.547  0.00  0.00    +0.000 A 
ATOM     30  C   UNL     1      46.550  34.004  43.884  0.00  0.00    +0.000 A 
ATOM     31  H   UNL     1      43.896  36.524  44.640  0.00  0.00    +0.000 HD
ATOM     32  H   UNL     1      46.827  36.065  41.244  0.00  0.00    +0.000 HD
ATOM     33  H   UNL     1      48.578  34.525  40.627  0.00  0.00    +0.000 HD
ATOM     34  H   UNL     1      49.075  32.648  41.993  0.00  0.00    +0.000 HD
BRANCH  29  37
ATOM     35  O   UNL     1      50.454  32.064  43.635  0.00  0.00    +0.000 OA
ATOM     36  C   UNL     1      49.359  31.506  43.944  0.00  0.00    +0.000 C 
ATOM     37  C   UNL     1      47.892  31.886  44.258  0.00  0.00    +0.000 C 
ATOM     38  C   UNL     1      47.373  30.667  43.547  0.00  0.00    +0.000 C 
ATOM     39  H   UNL     1      47.734  30.733  42.482  0.00  0.00    +0.000 HD
ATOM     40  C   UNL     1      48.124  29.562  44.205  0.00  0.00    +0.000 C 
ATOM     41  H   UNL     1      47.913  29.561  45.278  0.00  0.00    +0.000 HD
ATOM     42  N   UNL     1      49.488  30.093  44.045  0.00  0.00    +0.000 N 
ATOM     43  H   UNL     1      50.256  29.400  44.036  0.00  0.00    +0.000 HD
ENDBRANCH  29  37
ENDBRANCH   5  21
BRANCH   2  44
ATOM     44  N   UNL     1      47.316  30.164  49.012  0.00  0.00    +0.000 N 
ATOM     45  H   UNL     1      46.719  30.481  49.834  0.00  0.00    +0.000 HD
ATOM     46  H   UNL     1      48.032  29.407  49.047  0.00  0.00    +0.000 HD
ENDBRANCH   2  44
TORSDOF 3
