
 OpenBabel03242511303D

 34 37  0  0  1  0  0  0  0  0999 V2000
   39.1410   26.8850   39.8330 Cl  0  0  0  0  0  0  0  0  0  0  0  0
   38.2380   27.1690   41.2760 C   0  0  0  0  0  0  0  0  0  0  0  0
   37.3930   26.2020   41.7650 C   0  0  0  0  0  0  0  0  0  0  0  0
   36.6410   26.3910   42.9340 C   0  0  0  0  0  0  0  0  0  0  0  0
   36.8040   27.6070   43.5580 C   0  0  0  0  0  0  0  0  0  0  0  0
   37.6340   28.5650   43.0830 C   0  0  0  0  0  0  0  0  0  0  0  0
   38.3680   28.3670   41.9340 C   0  0  0  0  0  0  0  0  0  0  0  0
   35.9930   25.5880   43.2680 H   0  0  0  0  0  0  0  0  0  0  0  0
   36.2060   27.7180   44.4590 H   0  0  0  0  0  0  0  0  0  0  0  0
   37.6780   29.4800   43.6620 H   0  0  0  0  0  0  0  0  0  0  0  0
   36.2340   23.5980   39.4210 C   0  0  0  0  0  0  0  0  0  0  0  0
   37.0600   22.5250   39.7250 C   0  0  0  0  0  0  0  0  0  0  0  0
   38.0100   22.6900   40.7300 C   0  0  0  0  0  0  0  0  0  0  0  0
   38.0820   23.8870   41.3570 N   0  0  0  0  0  0  0  0  0  0  0  0
   37.2680   24.9260   41.0480 C   0  0  0  0  0  0  0  0  0  0  0  0
   36.3620   24.7590   40.0860 N   0  0  0  0  0  0  0  0  0  0  0  0
   35.5260   23.4110   38.6420 H   0  0  0  0  0  0  0  0  0  0  0  0
   37.0720   21.5370   39.2760 H   0  0  0  0  0  0  0  0  0  0  0  0
   38.7200   21.9850   41.0940 H   0  0  0  0  0  0  0  0  0  0  0  0
   39.2210   29.4950   41.5450 C   0  0  0  0  0  0  0  0  0  0  0  0
   39.7100   30.3300   42.5440 C   0  0  0  0  0  0  0  0  0  0  0  0
   40.7100   31.5760   41.6040 S   0  0  0  0  0  0  0  0  0  0  0  0
   40.2570   30.6950   39.9680 C   0  0  0  0  0  0  0  0  0  0  0  0
   39.6150   29.8600   40.3610 N   0  0  0  0  0  0  0  0  0  0  0  0
   39.5810   30.3170   43.6260 H   0  0  0  0  0  0  0  0  0  0  0  0
   38.4270   31.9000   37.9330 O   0  0  0  0  0  0  0  0  0  0  0  0
   39.6630   31.8380   37.8640 C   0  0  0  0  0  0  0  0  0  0  0  0
   40.7360   31.1530   38.6280 C   0  0  1  0  0  3  0  0  0  0  0  0
   41.7790   32.2200   38.7050 C   0  0  0  0  0  3  0  0  0  0  0  0
   42.7910   31.8690   38.9720 H   0  0  0  0  0  0  0  0  0  0  0  0
   41.7510   32.8070   37.3080 C   0  0  0  0  0  3  0  0  0  0  0  0
   42.4490   32.2200   36.6700 H   0  0  0  0  0  0  0  0  0  0  0  0
   40.4010   32.5470   36.8480 N   0  0  0  0  0  0  0  0  0  0  0  0
   40.1140   32.8820   35.8800 H   0  0  0  0  0  0  0  0  0  0  0  0
  1  2  1  0  0  0  0
  2  3  2  0  0  0  0
  2  7  1  0  0  0  0
  3  4  1  0  0  0  0
  4  8  1  0  0  0  0
  4  5  2  0  0  0  0
  5  9  1  0  0  0  0
  6  5  1  0  0  0  0
  6 10  1  0  0  0  0
  7  6  2  0  0  0  0
 11 12  2  0  0  0  0
 11 16  1  0  0  0  0
 12 13  1  0  0  0  0
 13 19  1  0  0  0  0
 13 14  2  0  0  0  0
 15 14  1  0  0  0  0
 15  3  1  0  0  0  0
 16 15  2  0  0  0  0
 17 11  1  0  0  0  0
 18 12  1  0  0  0  0
 20  7  1  0  0  0  0
 20 21  2  0  0  0  0
 21 25  1  0  0  0  0
 22 21  1  0  0  0  0
 23 24  2  0  0  0  0
 23 22  1  0  0  0  0
 24 20  1  0  0  0  0
 27 26  2  0  0  0  0
 27 28  1  0  0  0  0
 28 29  1  0  0  0  0
 28 23  1  1  0  0  0
 29 30  1  0  0  0  0
 31 29  1  0  0  0  0
 32 31  1  0  0  0  0
 33 31  1  0  0  0  0
 33 27  1  0  0  0  0
 34 33  1  0  0  0  0
M  END
>  <minimizedAffinity>
-5.80929375

$$$$

 OpenBabel03242511303D

 34 37  0  0  1  0  0  0  0  0999 V2000
   40.8480   30.2280   40.4090 Cl  0  0  0  0  0  0  0  0  0  0  0  0
   39.3620   31.0880   40.2330 C   0  0  0  0  0  0  0  0  0  0  0  0
   39.3360   32.2970   39.5810 C   0  0  0  0  0  0  0  0  0  0  0  0
   38.1500   33.0290   39.4160 C   0  0  0  0  0  0  0  0  0  0  0  0
   37.0170   32.4580   39.9490 C   0  0  0  0  0  0  0  0  0  0  0  0
   37.0350   31.2670   40.5920 C   0  0  0  0  0  0  0  0  0  0  0  0
   38.2050   30.5580   40.7490 C   0  0  0  0  0  0  0  0  0  0  0  0
   38.1970   33.9770   38.8920 H   0  0  0  0  0  0  0  0  0  0  0  0
   36.1190   33.0530   39.8020 H   0  0  0  0  0  0  0  0  0  0  0  0
   36.0790   30.9200   40.9680 H   0  0  0  0  0  0  0  0  0  0  0  0
   42.5190   34.1410   39.2880 C   0  0  0  0  0  0  0  0  0  0  0  0
   42.9130   33.8640   37.9860 C   0  0  0  0  0  0  0  0  0  0  0  0
   42.0910   33.0500   37.2100 C   0  0  0  0  0  0  0  0  0  0  0  0
   40.9540   32.5690   37.7630 N   0  0  0  0  0  0  0  0  0  0  0  0
   40.5830   32.8480   39.0370 C   0  0  0  0  0  0  0  0  0  0  0  0
   41.3740   33.6280   39.7710 N   0  0  0  0  0  0  0  0  0  0  0  0
   43.1890   34.7710   39.8330 H   0  0  0  0  0  0  0  0  0  0  0  0
   43.8020   34.2050   37.4660 H   0  0  0  0  0  0  0  0  0  0  0  0
   42.2310   32.7350   36.2030 H   0  0  0  0  0  0  0  0  0  0  0  0
   38.0650   29.2860   41.4670 C   0  0  0  0  0  0  0  0  0  0  0  0
   37.7540   29.3230   42.8220 C   0  0  0  0  0  0  0  0  0  0  0  0
   37.6810   27.5300   43.2890 S   0  0  0  0  0  0  0  0  0  0  0  0
   38.1040   27.0510   41.4870 C   0  0  0  0  0  0  0  0  0  0  0  0
   38.1900   28.0720   41.0230 N   0  0  0  0  0  0  0  0  0  0  0  0
   37.5810   30.1560   43.5030 H   0  0  0  0  0  0  0  0  0  0  0  0
   40.0730   25.1450   42.6830 O   0  0  0  0  0  0  0  0  0  0  0  0
   39.1830   24.8650   41.8690 C   0  0  0  0  0  0  0  0  0  0  0  0
   38.2380   25.6370   41.0230 C   0  0  1  0  0  3  0  0  0  0  0  0
   36.9820   24.8420   41.1740 C   0  0  0  0  0  3  0  0  0  0  0  0
   36.2050   25.0420   40.4150 H   0  0  0  0  0  0  0  0  0  0  0  0
   37.4830   23.4150   41.0850 C   0  0  0  0  0  3  0  0  0  0  0  0
   37.4990   23.1180   40.0120 H   0  0  0  0  0  0  0  0  0  0  0  0
   38.8550   23.4990   41.5450 N   0  0  0  0  0  0  0  0  0  0  0  0
   39.4360   22.6090   41.5940 H   0  0  0  0  0  0  0  0  0  0  0  0
  2  1  1  0  0  0  0
  2  7  1  0  0  0  0
  3  2  2  0  0  0  0
  4  3  1  0  0  0  0
  4  5  2  0  0  0  0
  5  6  1  0  0  0  0
  6  7  2  0  0  0  0
  6 10  1  0  0  0  0
  7 20  1  0  0  0  0
  8  4  1  0  0  0  0
  9  5  1  0  0  0  0
 11 16  1  0  0  0  0
 11 17  1  0  0  0  0
 12 11  2  0  0  0  0
 13 14  2  0  0  0  0
 13 12  1  0  0  0  0
 14 15  1  0  0  0  0
 15  3  1  0  0  0  0
 15 16  2  0  0  0  0
 18 12  1  0  0  0  0
 19 13  1  0  0  0  0
 20 21  2  0  0  0  0
 21 22  1  0  0  0  0
 21 25  1  0  0  0  0
 23 22  1  0  0  0  0
 24 20  1  0  0  0  0
 24 23  2  0  0  0  0
 27 26  2  0  0  0  0
 28 29  1  0  0  0  0
 28 23  1  1  0  0  0
 28 27  1  0  0  0  0
 30 29  1  0  0  0  0
 31 29  1  0  0  0  0
 31 33  1  0  0  0  0
 32 31  1  0  0  0  0
 33 34  1  0  0  0  0
 33 27  1  0  0  0  0
M  END
>  <minimizedAffinity>
-5.66638565

$$$$

 OpenBabel03242511303D

 34 37  0  0  1  0  0  0  0  0999 V2000
   39.5020   26.2660   39.0370 Cl  0  0  0  0  0  0  0  0  0  0  0  0
   38.4350   25.7410   40.2870 C   0  0  0  0  0  0  0  0  0  0  0  0
   37.8450   24.5020   40.2180 C   0  0  0  0  0  0  0  0  0  0  0  0
   36.9710   24.0370   41.2130 C   0  0  0  0  0  0  0  0  0  0  0  0
   36.7450   24.9000   42.2610 C   0  0  0  0  0  0  0  0  0  0  0  0
   37.3220   26.1220   42.3360 C   0  0  0  0  0  0  0  0  0  0  0  0
   38.1780   26.5680   41.3530 C   0  0  0  0  0  0  0  0  0  0  0  0
   36.5380   23.0490   41.0990 H   0  0  0  0  0  0  0  0  0  0  0  0
   36.0630   24.5060   43.0110 H   0  0  0  0  0  0  0  0  0  0  0  0
   37.0670   26.7110   43.2090 H   0  0  0  0  0  0  0  0  0  0  0  0
   37.6220   22.8660   36.9180 C   0  0  0  0  0  0  0  0  0  0  0  0
   38.6960   21.9880   36.9410 C   0  0  0  0  0  0  0  0  0  0  0  0
   39.4940   21.9540   38.0810 C   0  0  0  0  0  0  0  0  0  0  0  0
   39.1840   22.7780   39.1080 N   0  0  0  0  0  0  0  0  0  0  0  0
   38.1310   23.6320   39.0710 C   0  0  0  0  0  0  0  0  0  0  0  0
   37.3730   23.6570   37.9770 N   0  0  0  0  0  0  0  0  0  0  0  0
   37.0470   22.8470   36.0170 H   0  0  0  0  0  0  0  0  0  0  0  0
   39.0150   21.2960   36.1680 H   0  0  0  0  0  0  0  0  0  0  0  0
   40.3500   21.3500   38.2750 H   0  0  0  0  0  0  0  0  0  0  0  0
   38.7250   27.9120   41.5740 C   0  0  0  0  0  0  0  0  0  0  0  0
   39.6790   28.0800   42.5720 C   0  0  0  0  0  0  0  0  0  0  0  0
   40.0650   29.8920   42.4860 S   0  0  0  0  0  0  0  0  0  0  0  0
   38.8090   30.0850   41.0570 C   0  0  0  0  0  0  0  0  0  0  0  0
   38.4500   29.0230   40.9610 N   0  0  0  0  0  0  0  0  0  0  0  0
   40.1340   27.3750   43.2670 H   0  0  0  0  0  0  0  0  0  0  0  0
   36.0530   31.2280   40.8570 O   0  0  0  0  0  0  0  0  0  0  0  0
   37.1080   31.7960   40.5410 C   0  0  0  0  0  0  0  0  0  0  0  0
   38.5260   31.3880   40.3820 C   0  0  1  0  0  3  0  0  0  0  0  0
   39.2430   32.5430   41.0000 C   0  0  0  0  0  3  0  0  0  0  0  0
   40.3160   32.6190   40.7490 H   0  0  0  0  0  0  0  0  0  0  0  0
   38.4690   33.7320   40.4690 C   0  0  0  0  0  3  0  0  0  0  0  0
   38.9110   34.0280   39.4910 H   0  0  0  0  0  0  0  0  0  0  0  0
   37.1440   33.2010   40.2170 N   0  0  0  0  0  0  0  0  0  0  0  0
   36.3900   33.8530   39.8460 H   0  0  0  0  0  0  0  0  0  0  0  0
  1  2  1  0  0  0  0
  2  7  1  0  0  0  0
  3  2  2  0  0  0  0
  3  4  1  0  0  0  0
  4  5  2  0  0  0  0
  5  6  1  0  0  0  0
  5  9  1  0  0  0  0
  6 10  1  0  0  0  0
  7 20  1  0  0  0  0
  7  6  2  0  0  0  0
  8  4  1  0  0  0  0
 11 12  2  0  0  0  0
 11 16  1  0  0  0  0
 12 13  1  0  0  0  0
 13 19  1  0  0  0  0
 13 14  2  0  0  0  0
 15 14  1  0  0  0  0
 15  3  1  0  0  0  0
 16 15  2  0  0  0  0
 17 11  1  0  0  0  0
 18 12  1  0  0  0  0
 20 21  2  0  0  0  0
 21 25  1  0  0  0  0
 22 21  1  0  0  0  0
 23 22  1  0  0  0  0
 24 23  2  0  0  0  0
 24 20  1  0  0  0  0
 27 26  2  0  0  0  0
 28 27  1  0  0  0  0
 28 29  1  0  0  0  0
 28 23  1  1  0  0  0
 30 29  1  0  0  0  0
 31 29  1  0  0  0  0
 32 31  1  0  0  0  0
 33 31  1  0  0  0  0
 33 27  1  0  0  0  0
 34 33  1  0  0  0  0
M  END
>  <minimizedAffinity>
-5.40178919

$$$$

 OpenBabel03242511303D

 34 37  0  0  1  0  0  0  0  0999 V2000
   36.0820   26.3840   38.5550 Cl  0  0  0  0  0  0  0  0  0  0  0  0
   36.8220   25.8540   40.0210 C   0  0  0  0  0  0  0  0  0  0  0  0
   36.7450   24.5340   40.3970 C   0  0  0  0  0  0  0  0  0  0  0  0
   37.3320   24.0620   41.5810 C   0  0  0  0  0  0  0  0  0  0  0  0
   37.9890   25.0040   42.3400 C   0  0  0  0  0  0  0  0  0  0  0  0
   38.0690   26.3050   41.9760 C   0  0  0  0  0  0  0  0  0  0  0  0
   37.4880   26.7580   40.8110 C   0  0  0  0  0  0  0  0  0  0  0  0
   37.2350   23.0080   41.8210 H   0  0  0  0  0  0  0  0  0  0  0  0
   38.4300   24.6010   43.2480 H   0  0  0  0  0  0  0  0  0  0  0  0
   38.6130   26.9510   42.6550 H   0  0  0  0  0  0  0  0  0  0  0  0
   34.0870   22.3910   38.9990 C   0  0  0  0  0  0  0  0  0  0  0  0
   34.7140   21.7960   37.9140 C   0  0  0  0  0  0  0  0  0  0  0  0
   36.0430   22.1260   37.6610 C   0  0  0  0  0  0  0  0  0  0  0  0
   36.6550   23.0090   38.4830 N   0  0  0  0  0  0  0  0  0  0  0  0
   36.0270   23.5830   39.5400 C   0  0  0  0  0  0  0  0  0  0  0  0
   34.7570   23.2600   39.7750 N   0  0  0  0  0  0  0  0  0  0  0  0
   33.0680   22.0980   39.1430 H   0  0  0  0  0  0  0  0  0  0  0  0
   34.3030   21.0820   37.2070 H   0  0  0  0  0  0  0  0  0  0  0  0
   36.6780   21.7720   36.8830 H   0  0  0  0  0  0  0  0  0  0  0  0
   37.6610   28.1920   40.5530 C   0  0  0  0  0  0  0  0  0  0  0  0
   36.9290   29.0940   41.3180 C   0  0  0  0  0  0  0  0  0  0  0  0
   37.4600   30.7410   40.6530 S   0  0  0  0  0  0  0  0  0  0  0  0
   38.6190   29.8590   39.4130 C   0  0  0  0  0  0  0  0  0  0  0  0
   38.4210   28.7850   39.6830 N   0  0  0  0  0  0  0  0  0  0  0  0
   36.2090   28.9450   42.1220 H   0  0  0  0  0  0  0  0  0  0  0  0
   37.4790   31.4280   37.1370 O   0  0  0  0  0  0  0  0  0  0  0  0
   38.6680   31.3990   37.4860 C   0  0  0  0  0  0  0  0  0  0  0  0
   39.4770   30.5880   38.4300 C   0  0  1  0  0  3  0  0  0  0  0  0
   40.3420   31.6310   39.0580 C   0  0  0  0  0  3  0  0  0  0  0  0
   41.2330   31.2470   39.5850 H   0  0  0  0  0  0  0  0  0  0  0  0
   40.7330   32.4900   37.8720 C   0  0  0  0  0  3  0  0  0  0  0  0
   41.6510   32.0550   37.4140 H   0  0  0  0  0  0  0  0  0  0  0  0
   39.6410   32.3100   36.9360 N   0  0  0  0  0  0  0  0  0  0  0  0
   39.6670   32.8310   36.0090 H   0  0  0  0  0  0  0  0  0  0  0  0
  1  2  1  0  0  0  0
  2  3  2  0  0  0  0
  2  7  1  0  0  0  0
  3  4  1  0  0  0  0
  4  8  1  0  0  0  0
  4  5  2  0  0  0  0
  5  9  1  0  0  0  0
  6  5  1  0  0  0  0
  6 10  1  0  0  0  0
  7  6  2  0  0  0  0
 11 17  1  0  0  0  0
 11 16  1  0  0  0  0
 12 11  2  0  0  0  0
 13 12  1  0  0  0  0
 13 14  2  0  0  0  0
 14 15  1  0  0  0  0
 15 16  2  0  0  0  0
 15  3  1  0  0  0  0
 18 12  1  0  0  0  0
 19 13  1  0  0  0  0
 20  7  1  0  0  0  0
 20 21  2  0  0  0  0
 21 25  1  0  0  0  0
 22 21  1  0  0  0  0
 23 24  2  0  0  0  0
 23 22  1  0  0  0  0
 24 20  1  0  0  0  0
 26 27  2  0  0  0  0
 27 28  1  0  0  0  0
 28 29  1  0  0  0  0
 28 23  1  1  0  0  0
 29 30  1  0  0  0  0
 31 29  1  0  0  0  0
 32 31  1  0  0  0  0
 33 27  1  0  0  0  0
 33 31  1  0  0  0  0
 34 33  1  0  0  0  0
M  END
>  <minimizedAffinity>
-5.35544062

$$$$

 OpenBabel03242511303D

 34 37  0  0  1  0  0  0  0  0999 V2000
   36.0370   26.5500   38.2460 Cl  0  0  0  0  0  0  0  0  0  0  0  0
   36.5070   25.9740   39.8030 C   0  0  0  0  0  0  0  0  0  0  0  0
   36.5080   24.6270   40.0720 C   0  0  0  0  0  0  0  0  0  0  0  0
   36.8830   24.1170   41.3240 C   0  0  0  0  0  0  0  0  0  0  0  0
   37.2500   25.0530   42.2650 C   0  0  0  0  0  0  0  0  0  0  0  0
   37.2510   26.3820   42.0080 C   0  0  0  0  0  0  0  0  0  0  0  0
   36.8810   26.8710   40.7740 C   0  0  0  0  0  0  0  0  0  0  0  0
   36.8620   23.0420   41.4720 H   0  0  0  0  0  0  0  0  0  0  0  0
   37.5330   24.6210   43.2210 H   0  0  0  0  0  0  0  0  0  0  0  0
   37.5590   27.0190   42.8280 H   0  0  0  0  0  0  0  0  0  0  0  0
   36.6410   22.3140   37.1990 C   0  0  0  0  0  0  0  0  0  0  0  0
   35.3170   21.9200   37.0640 C   0  0  0  0  0  0  0  0  0  0  0  0
   34.3810   22.4440   37.9520 C   0  0  0  0  0  0  0  0  0  0  0  0
   34.8080   23.3080   38.9010 N   0  0  0  0  0  0  0  0  0  0  0  0
   36.1060   23.6830   39.0210 C   0  0  0  0  0  0  0  0  0  0  0  0
   36.9940   23.1780   38.1670 N   0  0  0  0  0  0  0  0  0  0  0  0
   37.3120   21.8790   36.4900 H   0  0  0  0  0  0  0  0  0  0  0  0
   34.8900   21.2360   36.3370 H   0  0  0  0  0  0  0  0  0  0  0  0
   33.3340   22.2570   37.9980 H   0  0  0  0  0  0  0  0  0  0  0  0
   36.9340   28.3310   40.6480 C   0  0  0  0  0  0  0  0  0  0  0  0
   35.7850   29.0610   40.9350 C   0  0  0  0  0  0  0  0  0  0  0  0
   36.3150   30.8150   40.6450 S   0  0  0  0  0  0  0  0  0  0  0  0
   38.0630   30.2010   40.1700 C   0  0  0  0  0  0  0  0  0  0  0  0
   37.9260   29.0910   40.2950 N   0  0  0  0  0  0  0  0  0  0  0  0
   34.7910   28.7520   41.2550 H   0  0  0  0  0  0  0  0  0  0  0  0
   38.0910   31.6470   37.5530 O   0  0  0  0  0  0  0  0  0  0  0  0
   38.8820   31.8140   38.4930 C   0  0  0  0  0  0  0  0  0  0  0  0
   39.1740   31.1160   39.7700 C   0  0  1  0  0  3  0  0  0  0  0  0
   39.3600   32.2660   40.7050 C   0  0  0  0  0  3  0  0  0  0  0  0
   39.8710   32.0230   41.6530 H   0  0  0  0  0  0  0  0  0  0  0  0
   40.1760   33.2360   39.8740 C   0  0  0  0  0  3  0  0  0  0  0  0
   41.2540   32.9940   40.0150 H   0  0  0  0  0  0  0  0  0  0  0  0
   39.8200   32.9090   38.5080 N   0  0  0  0  0  0  0  0  0  0  0  0
   40.2540   33.4700   37.7150 H   0  0  0  0  0  0  0  0  0  0  0  0
  1  2  1  0  0  0  0
  2  3  2  0  0  0  0
  2  7  1  0  0  0  0
  3  4  1  0  0  0  0
  4  8  1  0  0  0  0
  4  5  2  0  0  0  0
  5  9  1  0  0  0  0
  6  5  1  0  0  0  0
  6 10  1  0  0  0  0
  7  6  2  0  0  0  0
 11 16  1  0  0  0  0
 12 11  2  0  0  0  0
 12 13  1  0  0  0  0
 13 19  1  0  0  0  0
 13 14  2  0  0  0  0
 14 15  1  0  0  0  0
 15  3  1  0  0  0  0
 16 15  2  0  0  0  0
 17 11  1  0  0  0  0
 18 12  1  0  0  0  0
 20  7  1  0  0  0  0
 20 21  2  0  0  0  0
 21 25  1  0  0  0  0
 22 21  1  0  0  0  0
 23 24  2  0  0  0  0
 23 22  1  0  0  0  0
 24 20  1  0  0  0  0
 26 27  2  0  0  0  0
 27 33  1  0  0  0  0
 27 28  1  0  0  0  0
 28 23  1  1  0  0  0
 28 29  1  0  0  0  0
 29 30  1  0  0  0  0
 31 32  1  0  0  0  0
 31 29  1  0  0  0  0
 33 31  1  0  0  0  0
 34 33  1  0  0  0  0
M  END
>  <minimizedAffinity>
-5.3273859

$$$$

 OpenBabel03242511303D

 34 37  0  0  1  0  0  0  0  0999 V2000
   35.4900   29.6660   39.6100 Cl  0  0  0  0  0  0  0  0  0  0  0  0
   35.7480   28.0200   39.1600 C   0  0  0  0  0  0  0  0  0  0  0  0
   36.5800   27.2210   39.9080 C   0  0  0  0  0  0  0  0  0  0  0  0
   36.8180   25.8780   39.5770 C   0  0  0  0  0  0  0  0  0  0  0  0
   36.1650   25.4140   38.4580 C   0  0  0  0  0  0  0  0  0  0  0  0
   35.3440   26.1950   37.7170 C   0  0  0  0  0  0  0  0  0  0  0  0
   35.1180   27.5120   38.0510 C   0  0  0  0  0  0  0  0  0  0  0  0
   37.4850   25.3010   40.2080 H   0  0  0  0  0  0  0  0  0  0  0  0
   36.3730   24.3710   38.2330 H   0  0  0  0  0  0  0  0  0  0  0  0
   34.8860   25.7160   36.8590 H   0  0  0  0  0  0  0  0  0  0  0  0
   37.2630   28.2600   43.3820 C   0  0  0  0  0  0  0  0  0  0  0  0
   38.5190   28.8420   43.2850 C   0  0  0  0  0  0  0  0  0  0  0  0
   39.1300   28.8810   42.0340 C   0  0  0  0  0  0  0  0  0  0  0  0
   38.4720   28.3490   40.9790 N   0  0  0  0  0  0  0  0  0  0  0  0
   37.2450   27.7820   41.0900 C   0  0  0  0  0  0  0  0  0  0  0  0
   36.6670   27.7510   42.2900 N   0  0  0  0  0  0  0  0  0  0  0  0
   36.8450   28.2600   44.3660 H   0  0  0  0  0  0  0  0  0  0  0  0
   39.1150   29.2900   44.0730 H   0  0  0  0  0  0  0  0  0  0  0  0
   40.0810   29.2840   41.7730 H   0  0  0  0  0  0  0  0  0  0  0  0
   34.2050   28.2290   37.1540 C   0  0  0  0  0  0  0  0  0  0  0  0
   34.5800   28.3950   35.8250 C   0  0  0  0  0  0  0  0  0  0  0  0
   33.1550   29.3310   35.0970 S   0  0  0  0  0  0  0  0  0  0  0  0
   32.2870   29.3200   36.8010 C   0  0  0  0  0  0  0  0  0  0  0  0
   33.0480   28.7600   37.4100 N   0  0  0  0  0  0  0  0  0  0  0  0
   35.4690   28.0810   35.2780 H   0  0  0  0  0  0  0  0  0  0  0  0
   29.7310   28.0750   35.8720 O   0  0  0  0  0  0  0  0  0  0  0  0
   29.8400   29.0640   36.6110 C   0  0  0  0  0  0  0  0  0  0  0  0
   30.9520   29.9460   37.0470 C   0  0  1  0  0  3  0  0  0  0  0  0
   30.6400   30.1280   38.4960 C   0  0  0  0  0  3  0  0  0  0  0  0
   31.1530   30.9760   38.9840 H   0  0  0  0  0  0  0  0  0  0  0  0
   29.1380   30.3270   38.4870 C   0  0  0  0  0  3  0  0  0  0  0  0
   28.9310   31.4110   38.3430 H   0  0  0  0  0  0  0  0  0  0  0  0
   28.7020   29.6270   37.2940 N   0  0  0  0  0  0  0  0  0  0  0  0
   27.6640   29.6020   37.0640 H   0  0  0  0  0  0  0  0  0  0  0  0
  2  1  1  0  0  0  0
  2  3  1  0  0  0  0
  3 15  1  0  0  0  0
  4  3  2  0  0  0  0
  4  8  1  0  0  0  0
  5  4  1  0  0  0  0
  6  7  1  0  0  0  0
  6  5  2  0  0  0  0
  7  2  2  0  0  0  0
  9  5  1  0  0  0  0
 10  6  1  0  0  0  0
 11 17  1  0  0  0  0
 12 11  1  0  0  0  0
 12 18  1  0  0  0  0
 13 12  2  0  0  0  0
 14 15  2  0  0  0  0
 14 13  1  0  0  0  0
 15 16  1  0  0  0  0
 16 11  2  0  0  0  0
 19 13  1  0  0  0  0
 20 24  1  0  0  0  0
 20  7  1  0  0  0  0
 21 20  2  0  0  0  0
 22 21  1  0  0  0  0
 22 23  1  0  0  0  0
 23 24  2  0  0  0  0
 25 21  1  0  0  0  0
 26 27  2  0  0  0  0
 27 28  1  0  0  0  0
 27 33  1  0  0  0  0
 28 23  1  1  0  0  0
 28 29  1  0  0  0  0
 29 30  1  0  0  0  0
 31 29  1  0  0  0  0
 32 31  1  0  0  0  0
 33 31  1  0  0  0  0
 34 33  1  0  0  0  0
M  END
>  <minimizedAffinity>
-5.30484772

$$$$

 OpenBabel03242511303D

 34 37  0  0  1  0  0  0  0  0999 V2000
   38.1560   28.1860   39.4120 Cl  0  0  0  0  0  0  0  0  0  0  0  0
   37.7130   27.9540   41.0640 C   0  0  0  0  0  0  0  0  0  0  0  0
   37.7380   29.0110   41.9410 C   0  0  0  0  0  0  0  0  0  0  0  0
   37.3860   28.8660   43.2920 C   0  0  0  0  0  0  0  0  0  0  0  0
   37.0140   27.5990   43.6800 C   0  0  0  0  0  0  0  0  0  0  0  0
   36.9870   26.5530   42.8210 C   0  0  0  0  0  0  0  0  0  0  0  0
   37.3360   26.7070   41.4970 C   0  0  0  0  0  0  0  0  0  0  0  0
   37.4260   29.7400   43.9330 H   0  0  0  0  0  0  0  0  0  0  0  0
   36.7490   27.5250   44.7310 H   0  0  0  0  0  0  0  0  0  0  0  0
   36.6780   25.6040   43.2440 H   0  0  0  0  0  0  0  0  0  0  0  0
   39.7900   31.9700   41.1350 C   0  0  0  0  0  0  0  0  0  0  0  0
   38.8700   32.8270   40.5460 C   0  0  0  0  0  0  0  0  0  0  0  0
   37.5520   32.3950   40.4270 C   0  0  0  0  0  0  0  0  0  0  0  0
   37.2340   31.1640   40.8870 N   0  0  0  0  0  0  0  0  0  0  0  0
   38.1440   30.3370   41.4590 C   0  0  0  0  0  0  0  0  0  0  0  0
   39.4020   30.7590   41.5700 N   0  0  0  0  0  0  0  0  0  0  0  0
   40.7840   32.3560   41.1990 H   0  0  0  0  0  0  0  0  0  0  0  0
   39.0380   33.8240   40.1520 H   0  0  0  0  0  0  0  0  0  0  0  0
   36.7210   32.9120   40.0070 H   0  0  0  0  0  0  0  0  0  0  0  0
   37.2570   25.4830   40.6920 C   0  0  0  0  0  0  0  0  0  0  0  0
   38.2430   24.5170   40.8600 C   0  0  0  0  0  0  0  0  0  0  0  0
   37.7420   23.1890   39.6670 S   0  0  0  0  0  0  0  0  0  0  0  0
   36.2300   24.2380   39.1450 C   0  0  0  0  0  0  0  0  0  0  0  0
   36.3730   25.1380   39.8040 N   0  0  0  0  0  0  0  0  0  0  0  0
   39.1180   24.4800   41.5080 H   0  0  0  0  0  0  0  0  0  0  0  0
   33.7750   22.6790   39.8420 O   0  0  0  0  0  0  0  0  0  0  0  0
   34.0470   23.1650   38.7350 C   0  0  0  0  0  0  0  0  0  0  0  0
   35.2390   23.7960   38.1170 C   0  0  1  0  0  3  0  0  0  0  0  0
   34.6230   24.9290   37.3630 C   0  0  0  0  0  3  0  0  0  0  0  0
   35.2640   25.3800   36.5860 H   0  0  0  0  0  0  0  0  0  0  0  0
   33.3910   24.2880   36.7560 C   0  0  0  0  0  3  0  0  0  0  0  0
   33.6780   23.8400   35.7780 H   0  0  0  0  0  0  0  0  0  0  0  0
   33.0780   23.2050   37.6680 N   0  0  0  0  0  0  0  0  0  0  0  0
   32.2270   22.5980   37.4700 H   0  0  0  0  0  0  0  0  0  0  0  0
  1  2  1  0  0  0  0
  2  7  2  0  0  0  0
  2  3  1  0  0  0  0
  3  4  2  0  0  0  0
  4  5  1  0  0  0  0
  4  8  1  0  0  0  0
  5  9  1  0  0  0  0
  6 10  1  0  0  0  0
  6  5  2  0  0  0  0
  7  6  1  0  0  0  0
 11 17  1  0  0  0  0
 11 16  1  0  0  0  0
 12 11  2  0  0  0  0
 13 12  1  0  0  0  0
 13 14  2  0  0  0  0
 14 15  1  0  0  0  0
 15 16  2  0  0  0  0
 15  3  1  0  0  0  0
 18 12  1  0  0  0  0
 19 13  1  0  0  0  0
 20 21  2  0  0  0  0
 20  7  1  0  0  0  0
 21 25  1  0  0  0  0
 22 21  1  0  0  0  0
 23 22  1  0  0  0  0
 23 24  2  0  0  0  0
 24 20  1  0  0  0  0
 27 26  2  0  0  0  0
 28 27  1  0  0  0  0
 28 23  1  1  0  0  0
 29 28  1  0  0  0  0
 30 29  1  0  0  0  0
 31 29  1  0  0  0  0
 31 33  1  0  0  0  0
 32 31  1  0  0  0  0
 33 27  1  0  0  0  0
 34 33  1  0  0  0  0
M  END
>  <minimizedAffinity>
-5.282516

$$$$

 OpenBabel03242511303D

 34 37  0  0  1  0  0  0  0  0999 V2000
   40.4120   30.6720   38.2330 Cl  0  0  0  0  0  0  0  0  0  0  0  0
   39.3910   31.8690   38.9430 C   0  0  0  0  0  0  0  0  0  0  0  0
   39.8960   33.1050   39.2690 C   0  0  0  0  0  0  0  0  0  0  0  0
   39.1010   34.1060   39.8480 C   0  0  0  0  0  0  0  0  0  0  0  0
   37.7840   33.7710   40.0660 C   0  0  0  0  0  0  0  0  0  0  0  0
   37.2790   32.5560   39.7470 C   0  0  0  0  0  0  0  0  0  0  0  0
   38.0690   31.5810   39.1800 C   0  0  0  0  0  0  0  0  0  0  0  0
   39.5610   35.0600   40.0820 H   0  0  0  0  0  0  0  0  0  0  0  0
   37.2000   34.5700   40.5150 H   0  0  0  0  0  0  0  0  0  0  0  0
   36.2280   32.4110   39.9670 H   0  0  0  0  0  0  0  0  0  0  0  0
   43.5420   33.4590   39.7170 C   0  0  0  0  0  0  0  0  0  0  0  0
   43.9540   33.9480   38.4850 C   0  0  0  0  0  0  0  0  0  0  0  0
   42.9880   34.1580   37.5050 C   0  0  0  0  0  0  0  0  0  0  0  0
   41.6990   33.8730   37.8000 N   0  0  0  0  0  0  0  0  0  0  0  0
   41.3120   33.3950   39.0080 C   0  0  0  0  0  0  0  0  0  0  0  0
   42.2420   33.1990   39.9400 N   0  0  0  0  0  0  0  0  0  0  0  0
   44.3270   33.3200   40.4290 H   0  0  0  0  0  0  0  0  0  0  0  0
   44.9590   34.2020   38.1650 H   0  0  0  0  0  0  0  0  0  0  0  0
   43.1180   34.5230   36.5130 H   0  0  0  0  0  0  0  0  0  0  0  0
   37.3800   30.3180   38.8910 C   0  0  0  0  0  0  0  0  0  0  0  0
   36.6970   30.1990   37.6860 C   0  0  0  0  0  0  0  0  0  0  0  0
   36.0030   28.4810   37.7600 S   0  0  0  0  0  0  0  0  0  0  0  0
   36.8030   28.2410   39.4810 C   0  0  0  0  0  0  0  0  0  0  0  0
   37.2990   29.2410   39.6130 N   0  0  0  0  0  0  0  0  0  0  0  0
   36.5600   30.8950   36.8590 H   0  0  0  0  0  0  0  0  0  0  0  0
   38.4520   25.8140   38.9060 O   0  0  0  0  0  0  0  0  0  0  0  0
   37.7040   25.9790   39.8790 C   0  0  0  0  0  0  0  0  0  0  0  0
   36.6810   26.9800   40.2740 C   0  0  1  0  0  3  0  0  0  0  0  0
   36.9840   27.1610   41.7260 C   0  0  0  0  0  3  0  0  0  0  0  0
   36.1810   27.6380   42.3160 H   0  0  0  0  0  0  0  0  0  0  0  0
   37.2370   25.7410   42.1880 C   0  0  0  0  0  3  0  0  0  0  0  0
   36.2630   25.2910   42.4840 H   0  0  0  0  0  0  0  0  0  0  0  0
   37.6970   25.0620   40.9930 N   0  0  0  0  0  0  0  0  0  0  0  0
   37.9640   24.0340   41.0550 H   0  0  0  0  0  0  0  0  0  0  0  0
  1  2  1  0  0  0  0
  2  7  2  0  0  0  0
  2  3  1  0  0  0  0
  3  4  2  0  0  0  0
  4  5  1  0  0  0  0
  4  8  1  0  0  0  0
  5  9  1  0  0  0  0
  6 10  1  0  0  0  0
  6  5  2  0  0  0  0
  7  6  1  0  0  0  0
 11 16  1  0  0  0  0
 11 17  1  0  0  0  0
 12 11  2  0  0  0  0
 13 14  2  0  0  0  0
 13 12  1  0  0  0  0
 14 15  1  0  0  0  0
 15  3  1  0  0  0  0
 15 16  2  0  0  0  0
 18 12  1  0  0  0  0
 19 13  1  0  0  0  0
 20  7  1  0  0  0  0
 20 24  1  0  0  0  0
 21 22  1  0  0  0  0
 21 20  2  0  0  0  0
 22 23  1  0  0  0  0
 23 24  2  0  0  0  0
 25 21  1  0  0  0  0
 26 27  2  0  0  0  0
 27 28  1  0  0  0  0
 27 33  1  0  0  0  0
 28 23  1  6  0  0  0
 28 29  1  0  0  0  0
 29 31  1  0  0  0  0
 29 30  1  0  0  0  0
 31 32  1  0  0  0  0
 33 34  1  0  0  0  0
 33 31  1  0  0  0  0
M  END
>  <minimizedAffinity>
-5.27908373

$$$$

 OpenBabel03242511303D

 34 37  0  0  1  0  0  0  0  0999 V2000
   39.2750   29.3780   39.4030 Cl  0  0  0  0  0  0  0  0  0  0  0  0
   38.9420   31.0540   39.6450 C   0  0  0  0  0  0  0  0  0  0  0  0
   37.6520   31.5210   39.5680 C   0  0  0  0  0  0  0  0  0  0  0  0
   37.3370   32.8750   39.7580 C   0  0  0  0  0  0  0  0  0  0  0  0
   38.4030   33.7040   40.0270 C   0  0  0  0  0  0  0  0  0  0  0  0
   39.6760   33.2510   40.1050 C   0  0  0  0  0  0  0  0  0  0  0  0
   39.9730   31.9190   39.9160 C   0  0  0  0  0  0  0  0  0  0  0  0
   36.2990   33.1810   39.6830 H   0  0  0  0  0  0  0  0  0  0  0  0
   38.1210   34.7440   40.1680 H   0  0  0  0  0  0  0  0  0  0  0  0
   40.4300   33.9990   40.3230 H   0  0  0  0  0  0  0  0  0  0  0  0
   34.7900   29.2320   39.9980 C   0  0  0  0  0  0  0  0  0  0  0  0
   34.5300   28.8210   38.6980 C   0  0  0  0  0  0  0  0  0  0  0  0
   35.3330   29.3240   37.6770 C   0  0  0  0  0  0  0  0  0  0  0  0
   36.3210   30.1880   38.0020 N   0  0  0  0  0  0  0  0  0  0  0  0
   36.5620   30.5810   39.2770 C   0  0  0  0  0  0  0  0  0  0  0  0
   35.7910   30.0940   40.2470 N   0  0  0  0  0  0  0  0  0  0  0  0
   34.1420   28.8120   40.7370 H   0  0  0  0  0  0  0  0  0  0  0  0
   33.7640   28.1370   38.3490 H   0  0  0  0  0  0  0  0  0  0  0  0
   35.2810   29.1230   36.6330 H   0  0  0  0  0  0  0  0  0  0  0  0
   41.3960   31.5810   40.0320 C   0  0  0  0  0  0  0  0  0  0  0  0
   41.8320   30.9460   41.1900 C   0  0  0  0  0  0  0  0  0  0  0  0
   43.6490   30.7260   40.8930 S   0  0  0  0  0  0  0  0  0  0  0  0
   43.4650   31.5720   39.1870 C   0  0  0  0  0  0  0  0  0  0  0  0
   42.3620   31.7890   39.1890 N   0  0  0  0  0  0  0  0  0  0  0  0
   41.3000   30.6260   42.0850 H   0  0  0  0  0  0  0  0  0  0  0  0
   43.2860   30.9750   36.2630 O   0  0  0  0  0  0  0  0  0  0  0  0
   44.2200   31.5490   36.8390 C   0  0  0  0  0  0  0  0  0  0  0  0
   44.6100   31.7890   38.2510 C   0  0  1  0  0  3  0  0  0  0  0  0
   45.0720   33.2090   38.1990 C   0  0  0  0  0  3  0  0  0  0  0  0
   45.6830   33.5350   39.0580 H   0  0  0  0  0  0  0  0  0  0  0  0
   45.8690   33.2470   36.9110 C   0  0  0  0  0  3  0  0  0  0  0  0
   46.9180   32.9520   37.1410 H   0  0  0  0  0  0  0  0  0  0  0  0
   45.2780   32.1980   36.1040 N   0  0  0  0  0  0  0  0  0  0  0  0
   45.6570   32.0280   35.1240 H   0  0  0  0  0  0  0  0  0  0  0  0
  1  2  1  0  0  0  0
  2  7  1  0  0  0  0
  3  2  2  0  0  0  0
  3  4  1  0  0  0  0
  4  5  2  0  0  0  0
  5  6  1  0  0  0  0
  5  9  1  0  0  0  0
  6 10  1  0  0  0  0
  7 20  1  0  0  0  0
  7  6  2  0  0  0  0
  8  4  1  0  0  0  0
 11 16  1  0  0  0  0
 11 17  1  0  0  0  0
 12 11  2  0  0  0  0
 13 14  2  0  0  0  0
 13 12  1  0  0  0  0
 14 15  1  0  0  0  0
 15  3  1  0  0  0  0
 15 16  2  0  0  0  0
 18 12  1  0  0  0  0
 19 13  1  0  0  0  0
 20 21  2  0  0  0  0
 21 25  1  0  0  0  0
 22 21  1  0  0  0  0
 23 24  2  0  0  0  0
 23 22  1  0  0  0  0
 24 20  1  0  0  0  0
 26 27  2  0  0  0  0
 27 28  1  0  0  0  0
 28 23  1  1  0  0  0
 29 28  1  0  0  0  0
 29 30  1  0  0  0  0
 31 32  1  0  0  0  0
 31 29  1  0  0  0  0
 33 27  1  0  0  0  0
 33 31  1  0  0  0  0
 34 33  1  0  0  0  0
M  END
>  <minimizedAffinity>
-5.25113344

$$$$
