
 OpenBabel03252508373D

 41 44  0  0  1  0  0  0  0  0999 V2000
   45.1470   33.9650   40.7090 C   0  0  0  0  0  0  0  0  0  0  0  0
   44.0920   33.6430   39.9030 C   0  0  0  0  0  0  0  0  0  0  0  0
   44.3890   33.1220   38.6770 C   0  0  0  0  0  0  0  0  0  0  0  0
   45.6690   32.9080   38.2180 C   0  0  0  0  0  0  0  0  0  0  0  0
   46.7010   33.2450   39.0600 C   0  0  0  0  0  0  0  0  0  0  0  0
   46.4690   33.7730   40.3070 C   0  0  0  0  0  0  0  0  0  0  0  0
   43.5690   32.8600   38.0190 H   0  0  0  0  0  0  0  0  0  0  0  0
   45.8300   32.4900   37.2310 H   0  0  0  0  0  0  0  0  0  0  0  0
   47.7060   33.0740   38.6970 H   0  0  0  0  0  0  0  0  0  0  0  0
   40.8230   35.2850   40.8080 C   0  0  0  0  0  0  0  0  0  0  0  0
   42.1230   35.1180   40.2800 C   0  0  0  0  0  0  0  0  0  0  0  0
   42.7640   33.8830   40.4190 C   0  0  0  0  0  0  0  0  0  0  0  0
   42.0510   32.9240   41.0720 N   0  0  0  0  0  0  0  0  0  0  0  0
   40.8250   33.1050   41.5610 C   0  0  0  0  0  0  0  0  0  0  0  0
   40.2160   34.2860   41.4270 N   0  0  0  0  0  0  0  0  0  0  0  0
   40.2290   36.5670   40.6320 N   0  0  0  0  0  0  0  0  0  0  0  0
   42.6850   35.8780   39.7650 H   0  0  0  0  0  0  0  0  0  0  0  0
   40.2770   32.3290   42.0760 H   0  0  0  0  0  0  0  0  0  0  0  0
   40.0260   36.8340   39.6430 H   0  0  0  0  0  0  0  0  0  0  0  0
   39.9940   37.2320   41.4210 H   0  0  0  0  0  0  0  0  0  0  0  0
   47.6250   34.0960   41.1200 C   0  0  0  0  0  0  0  0  0  0  0  0
   48.1160   35.3820   40.9670 C   0  0  0  0  0  0  0  0  0  0  0  0
   49.2180   35.8760   41.6620 C   0  0  0  0  0  0  0  0  0  0  0  0
   49.8410   35.0160   42.5490 C   0  0  0  0  0  0  0  0  0  0  0  0
   49.3640   33.7310   42.7120 C   0  0  0  0  0  0  0  0  0  0  0  0
   48.2610   33.2670   42.0040 C   0  0  0  0  0  0  0  0  0  0  0  0
   47.6670   36.0970   40.2860 H   0  0  0  0  0  0  0  0  0  0  0  0
   49.5740   36.8870   41.5170 H   0  0  0  0  0  0  0  0  0  0  0  0
   50.7020   35.3350   43.1210 H   0  0  0  0  0  0  0  0  0  0  0  0
   49.8790   33.0980   43.4120 H   0  0  0  0  0  0  0  0  0  0  0  0
   46.6920   32.5430   44.2990 O   0  0  0  0  0  0  0  0  0  0  0  0
   46.7270   31.8030   43.2580 C   0  0  0  0  0  0  0  0  0  0  0  0
   47.7420   31.9100   42.1610 C   0  0  1  0  0  3  0  0  0  0  0  0
   46.9770   31.4010   40.9730 C   0  0  0  0  0  3  0  0  0  0  0  0
   46.7640   32.2630   40.3120 H   0  0  0  0  0  0  0  0  0  0  0  0
   45.7400   30.7230   41.4880 C   0  0  0  0  0  3  0  0  0  0  0  0
   44.8720   31.3440   41.1510 H   0  0  0  0  0  0  0  0  0  0  0  0
   45.8290   30.7470   42.9360 N   0  0  0  0  0  0  0  0  0  0  0  0
   45.3490   30.1340   43.6210 H   0  0  0  0  0  0  0  0  0  0  0  0
   44.7560   34.9600   43.1080 N   0  0  0  0  0  0  0  0  0  0  0  0
   44.9270   34.5220   42.0270 C   0  0  0  0  0  0  0  0  0  0  0  0
  1 41  1  0  0  0  0
  2 12  1  0  0  0  0
  2  1  2  0  0  0  0
  3  2  1  0  0  0  0
  4  3  2  0  0  0  0
  4  5  1  0  0  0  0
  5  6  2  0  0  0  0
  6  1  1  0  0  0  0
  6 21  1  0  0  0  0
  7  3  1  0  0  0  0
  8  4  1  0  0  0  0
  9  5  1  0  0  0  0
 10 15  1  0  0  0  0
 11 12  1  0  0  0  0
 11 10  2  0  0  0  0
 12 13  2  0  0  0  0
 13 14  1  0  0  0  0
 14 18  1  0  0  0  0
 15 14  2  0  0  0  0
 16 10  1  0  0  0  0
 16 20  1  0  0  0  0
 17 11  1  0  0  0  0
 19 16  1  0  0  0  0
 21 26  1  0  0  0  0
 22 21  2  0  0  0  0
 22 23  1  0  0  0  0
 23 24  2  0  0  0  0
 24 25  1  0  0  0  0
 24 29  1  0  0  0  0
 25 30  1  0  0  0  0
 26 25  2  0  0  0  0
 27 22  1  0  0  0  0
 28 23  1  0  0  0  0
 32 31  2  0  0  0  0
 33 26  1  6  0  0  0
 33 32  1  0  0  0  0
 34 36  1  0  0  0  0
 34 33  1  0  0  0  0
 35 34  1  0  0  0  0
 36 38  1  0  0  0  0
 37 36  1  0  0  0  0
 38 32  1  0  0  0  0
 38 39  1  0  0  0  0
 41 40  3  0  0  0  0
M  END
>  <minimizedAffinity>
-6.10485411

>  <minimizedRMSD>
0.319212139

$$$$
