
 OpenBabel03252503553D

 20 21  0  0  1  0  0  0  0  0999 V2000
   46.1430   34.8140   43.1680 C   0  0  0  0  0  0  0  0  0  0  0  0
   45.3800   35.9730   43.3900 C   0  0  0  0  0  0  0  0  0  0  0  0
   44.6520   36.0320   44.5790 C   0  0  0  0  0  0  0  0  0  0  0  0
   44.7180   34.9740   45.4450 N   0  0  0  0  0  0  0  0  0  0  0  0
   45.4680   33.8870   45.1770 C   0  0  0  0  0  0  0  0  0  0  0  0
   46.1760   33.8080   44.0460 N   0  0  0  0  0  0  0  0  0  0  0  0
   45.3080   36.8140   42.7350 H   0  0  0  0  0  0  0  0  0  0  0  0
   44.0410   36.8810   44.8300 H   0  0  0  0  0  0  0  0  0  0  0  0
   47.6940   31.8500   45.4990 O   0  0  0  0  0  0  0  0  0  0  0  0
   46.6950   32.0480   46.2630 C   0  0  0  0  0  0  0  0  0  0  0  0
   45.4330   32.8260   46.2210 C   0  0  1  0  0  3  0  0  0  0  0  0
   45.3230   33.3440   47.6150 C   0  0  0  0  0  3  0  0  0  0  0  0
   44.2420   33.5480   47.8180 H   0  0  0  0  0  0  0  0  0  0  0  0
   45.8350   32.1910   48.4470 C   0  0  0  0  0  3  0  0  0  0  0  0
   46.4170   32.5580   49.3180 H   0  0  0  0  0  0  0  0  0  0  0  0
   46.6460   31.4100   47.5350 N   0  0  0  0  0  0  0  0  0  0  0  0
   47.0700   30.5160   47.9250 H   0  0  0  0  0  0  0  0  0  0  0  0
   46.8640   34.8190   41.9360 C   0  0  0  0  0  0  0  0  0  0  0  0
   47.9960   35.3550   41.7180 O   0  0  0  0  0  0  0  0  0  0  0  0
   46.6470   34.4050   40.9580 H   0  0  0  0  0  0  0  0  0  0  0  0
  1  2  2  0  0  0  0
  1  6  1  0  0  0  0
  2  3  1  0  0  0  0
  3  8  1  0  0  0  0
  3  4  2  0  0  0  0
  5  4  1  0  0  0  0
  6  5  2  0  0  0  0
  7  2  1  0  0  0  0
  9 10  2  0  0  0  0
 10 16  1  0  0  0  0
 11  5  1  6  0  0  0
 11 10  1  0  0  0  0
 11 12  1  0  0  0  0
 12 13  1  0  0  0  0
 12 14  1  0  0  0  0
 14 15  1  0  0  0  0
 16 17  1  0  0  0  0
 16 14  1  0  0  0  0
 18  1  1  0  0  0  0
 19 18  2  0  0  0  0
 20 18  1  0  0  0  0
M  END
>  <minimizedAffinity>
-3.75246501

>  <minimizedRMSD>
0.428333372

$$$$
