
     RDKit          3D

 48 51  0  0  0  0  0  0  0  0999 V2000
   48.9631   34.7675   41.5144 C   0  0  1  0  0  0  0  0  0  0  0  0
   50.0756   34.7961   42.5112 C   0  0  0  0  0  0  0  0  0  0  0  0
   49.3426   33.5391   42.1973 C   0  0  2  0  0  0  0  0  0  0  0  0
   50.1288   32.6334   41.3765 N   0  0  0  0  0  0  0  0  0  0  0  0
   49.4665   32.1837   40.2063 C   0  0  0  0  0  0  0  0  0  0  0  0
   50.4434   31.2587   39.5045 C   0  0  0  0  0  0  0  0  0  0  0  0
   50.7548   30.1084   40.2958 N   0  0  0  0  0  0  0  0  0  0  0  0
   50.6412   30.3318   41.7207 C   0  0  0  0  0  0  0  0  0  0  0  0
   51.0045   31.7770   42.0531 C   0  0  0  0  0  0  0  0  0  0  0  0
   47.6644   35.3966   41.9086 C   0  0  0  0  0  0  0  0  0  0  0  0
   46.6984   34.2772   42.1487 C   0  0  0  0  0  0  0  0  0  0  0  0
   44.5081   35.8948   44.7189 C   0  0  0  0  0  0  0  0  0  0  0  0
   45.1741   35.6610   43.4962 C   0  0  0  0  0  0  0  0  0  0  0  0
   45.9804   34.5443   43.4387 C   0  0  0  0  0  0  0  0  0  0  0  0
   46.1017   33.7375   44.5205 N   0  0  0  0  0  0  0  0  0  0  0  0
   45.4661   33.9784   45.6569 C   0  0  0  0  0  0  0  0  0  0  0  0
   44.6783   35.0423   45.7596 N   0  0  0  0  0  0  0  0  0  0  0  0
   49.2309   34.9572   40.4796 H   0  0  0  0  0  0  0  0  0  0  0  0
   49.8670   35.3283   43.4714 H   0  0  0  0  0  0  0  0  0  0  0  0
   51.1284   34.9616   42.1669 H   0  0  0  0  0  0  0  0  0  0  0  0
   48.8414   33.0950   43.0501 H   0  0  0  0  0  0  0  0  0  0  0  0
   48.5292   31.6651   40.4701 H   0  0  0  0  0  0  0  0  0  0  0  0
   49.2271   33.0003   39.5111 H   0  0  0  0  0  0  0  0  0  0  0  0
   49.9551   30.9269   38.5568 H   0  0  0  0  0  0  0  0  0  0  0  0
   51.3312   31.8416   39.2178 H   0  0  0  0  0  0  0  0  0  0  0  0
   51.6375   29.6738   40.0059 H   0  0  0  0  0  0  0  0  0  0  0  0
   51.2693   29.6204   42.2795 H   0  0  0  0  0  0  0  0  0  0  0  0
   49.5729   30.1831   42.0128 H   0  0  0  0  0  0  0  0  0  0  0  0
   52.0661   31.9675   41.8102 H   0  0  0  0  0  0  0  0  0  0  0  0
   50.8612   31.8710   43.1501 H   0  0  0  0  0  0  0  0  0  0  0  0
   47.8219   35.9775   42.8516 H   0  0  0  0  0  0  0  0  0  0  0  0
   47.2853   36.1323   41.1520 H   0  0  0  0  0  0  0  0  0  0  0  0
   47.0751   33.2687   42.0450 H   0  0  0  0  0  0  0  0  0  0  0  0
   45.8956   34.3669   41.3582 H   0  0  0  0  0  0  0  0  0  0  0  0
   43.8615   36.7649   44.8083 H   0  0  0  0  0  0  0  0  0  0  0  0
   45.0613   36.3179   42.6496 H   0  0  0  0  0  0  0  0  0  0  0  0
   44.5406   34.6639   48.3683 O   0  0  0  0  0  0  0  0  0  0  0  0
   44.7876   33.4786   47.9815 C   0  0  0  0  0  0  0  0  0  0  0  0
   45.6235   33.0698   46.8245 C   0  0  1  0  0  0  0  0  0  0  0  0
   45.1783   31.6884   46.4604 C   0  0  1  0  0  0  0  0  0  0  0  0
   44.7162   31.6198   45.4522 H   0  0  0  0  0  0  0  0  0  0  0  0
   44.2054   31.2911   47.5384 C   0  0  2  0  0  0  0  0  0  0  0  0
   44.4535   30.3039   47.9638 H   0  0  0  0  0  0  0  0  0  0  0  0
   44.3063   32.2933   48.5875 N   0  0  0  0  0  0  0  0  0  0  0  0
   46.7022   33.0272   47.1396 H   0  0  0  0  0  0  0  0  0  0  0  0
   46.0385   30.9808   46.4642 H   0  0  0  0  0  0  0  0  0  0  0  0
   43.1594   31.3066   47.1785 H   0  0  0  0  0  0  0  0  0  0  0  0
   44.0644   32.1454   49.5914 H   0  0  0  0  0  0  0  0  0  0  0  0
  1 10  1  0
  1  3  1  0
  1  2  1  0
  3  2  1  0
  4  9  1  0
  4  3  1  0
  5  4  1  0
  6  5  1  0
  6  7  1  0
  7  8  1  0
  8  9  1  0
 10 11  1  0
 11 14  1  0
 12 17  2  0
 13 12  1  0
 14 13  2  0
 14 15  1  0
 15 16  2  0
 16 17  1  0
  1 18  1  6
  2 19  1  0
  2 20  1  0
  3 21  1  1
  5 22  1  0
  5 23  1  0
  6 24  1  0
  6 25  1  0
  7 26  1  0
  8 27  1  0
  8 28  1  0
  9 29  1  0
  9 30  1  0
 10 31  1  0
 10 32  1  0
 11 33  1  0
 11 34  1  0
 12 35  1  0
 13 36  1  0
 37 38  2  0
 38 39  1  0
 39 40  1  0
 40 41  1  6
 40 42  1  0
 42 43  1  1
 42 44  1  0
 44 38  1  0
 39 45  1  1
 40 46  1  0
 42 47  1  0
 44 48  1  0
 16 39  1  0
M  ISO  8  18  13  19  13  20  13  21  13  22  13  23  13  24  13  25  13
M  ISO  8  26   5  27  13  28  13  29  13  30  13  31   8  32   8  33   8
M  ISO  5  34   8  35  14  36  14  41   8  43   8
M  END
>  <DihAtoms>  (1) 
14,15,38,37

>  <DihDeg>  (1) 
122.40617275744376

$$$$
