
 OpenBabel03242511273D

 34 37  0  0  1  0  0  0  0  0999 V2000
   44.7340   33.3330   41.0420 Cl  0  0  0  0  0  0  0  0  0  0  0  0
   46.2900   34.0610   40.8750 C   0  0  0  0  0  0  0  0  0  0  0  0
   46.8470   34.7510   41.9240 C   0  0  0  0  0  0  0  0  0  0  0  0
   48.1090   35.3570   41.8310 C   0  0  0  0  0  0  0  0  0  0  0  0
   48.7510   35.2160   40.6210 C   0  0  0  0  0  0  0  0  0  0  0  0
   48.2090   34.5380   39.5830 C   0  0  0  0  0  0  0  0  0  0  0  0
   46.9680   33.9470   39.6870 C   0  0  0  0  0  0  0  0  0  0  0  0
   48.4940   35.8870   42.6950 H   0  0  0  0  0  0  0  0  0  0  0  0
   49.7250   35.6990   40.5860 H   0  0  0  0  0  0  0  0  0  0  0  0
   48.8100   34.4960   38.6820 H   0  0  0  0  0  0  0  0  0  0  0  0
   45.5670   34.0380   45.3110 C   0  0  0  0  0  0  0  0  0  0  0  0
   44.7030   35.1000   45.5400 C   0  0  0  0  0  0  0  0  0  0  0  0
   44.5580   36.0570   44.5380 C   0  0  0  0  0  0  0  0  0  0  0  0
   45.2650   35.9050   43.3960 N   0  0  0  0  0  0  0  0  0  0  0  0
   46.1060   34.8620   43.1870 C   0  0  0  0  0  0  0  0  0  0  0  0
   46.2380   33.9510   44.1500 N   0  0  0  0  0  0  0  0  0  0  0  0
   45.6360   33.3370   46.1150 H   0  0  0  0  0  0  0  0  0  0  0  0
   44.1010   35.2990   46.4200 H   0  0  0  0  0  0  0  0  0  0  0  0
   43.9470   36.9290   44.5380 H   0  0  0  0  0  0  0  0  0  0  0  0
   46.5150   33.2490   38.4790 C   0  0  0  0  0  0  0  0  0  0  0  0
   47.2230   33.4430   37.2980 C   0  0  0  0  0  0  0  0  0  0  0  0
   46.3070   32.3890   36.0770 S   0  0  0  0  0  0  0  0  0  0  0  0
   45.0900   31.8640   37.4550 C   0  0  0  0  0  0  0  0  0  0  0  0
   45.5110   32.4390   38.3250 N   0  0  0  0  0  0  0  0  0  0  0  0
   48.1010   34.0460   37.0710 H   0  0  0  0  0  0  0  0  0  0  0  0
   42.2810   32.5350   38.2310 O   0  0  0  0  0  0  0  0  0  0  0  0
   42.6450   31.5520   37.5710 C   0  0  0  0  0  0  0  0  0  0  0  0
   43.9470   30.9270   37.2280 C   0  0  1  0  0  0  0  0  0  0  0  0
   43.7440   30.5790   35.7890 C   0  0  0  0  0  0  0  0  0  0  0  0
   44.4580   29.8440   35.3790 H   0  0  0  0  0  0  0  0  0  0  0  0
   42.3290   30.0350   35.7810 C   0  0  0  0  0  0  0  0  0  0  0  0
   42.3740   28.9440   36.0020 H   0  0  0  0  0  0  0  0  0  0  0  0
   41.6970   30.6920   36.9070 N   0  0  0  0  0  0  0  0  0  0  0  0
   40.6720   30.4890   37.1120 H   0  0  0  0  0  0  0  0  0  0  0  0
  2  1  1  0  0  0  0
  2  3  1  0  0  0  0
  3 15  1  0  0  0  0
  4  3  2  0  0  0  0
  4  8  1  0  0  0  0
  5  4  1  0  0  0  0
  6  7  1  0  0  0  0
  6  5  2  0  0  0  0
  7  2  2  0  0  0  0
  9  5  1  0  0  0  0
 10  6  1  0  0  0  0
 11 12  1  0  0  0  0
 11 17  1  0  0  0  0
 12 18  1  0  0  0  0
 13 12  2  0  0  0  0
 14 13  1  0  0  0  0
 15 14  2  0  0  0  0
 15 16  1  0  0  0  0
 16 11  2  0  0  0  0
 19 13  1  0  0  0  0
 20  7  1  0  0  0  0
 21 20  2  0  0  0  0
 22 21  1  0  0  0  0
 22 23  1  0  0  0  0
 23 24  2  0  0  0  0
 24 20  1  0  0  0  0
 25 21  1  0  0  0  0
 27 26  2  0  0  0  0
 28 23  1  6  0  0  0
 28 27  1  0  0  0  0
 29 28  1  0  0  0  0
 30 29  1  0  0  0  0
 31 29  1  0  0  0  0
 31 32  1  0  0  0  0
 31 33  1  0  0  0  0
 33 34  1  0  0  0  0
 33 27  1  0  0  0  0
M  END
>  <minimizedAffinity>
-6.03919935

>  <minimizedRMSD>
1.04678547

$$$$
