REMARK  Name = 
REMARK  5 active torsions:
REMARK  status: ('A' for Active; 'I' for Inactive)
REMARK    1  A    between atoms: C_1  and  C_10
REMARK    2  A    between atoms: C_3  and  N_4
REMARK    3  A    between atoms: C_10  and  C_11
REMARK    4  A    between atoms: C_11  and  C_14
REMARK    5  A    between atoms: C_16  and  C_39
REMARK                            x       y       z     vdW  Elec       q    Type
REMARK                         _______ _______ _______ _____ _____    ______ ____
ROOT
ATOM      1  C   UNL     1      47.664  35.397  41.909  0.00  0.00    +0.000 C 
ATOM      2  H   UNL     1      47.822  35.977  42.852  0.00  0.00    +0.000 HD
ATOM      3  H   UNL     1      47.285  36.132  41.152  0.00  0.00    +0.000 HD
ENDROOT
BRANCH   1   4
ATOM      4  C   UNL     1      48.963  34.767  41.514  0.00  0.00    +0.000 C 
ATOM      5  C   UNL     1      50.076  34.796  42.511  0.00  0.00    +0.000 C 
ATOM      6  C   UNL     1      49.343  33.539  42.197  0.00  0.00    +0.000 C 
ATOM      7  H   UNL     1      49.231  34.957  40.480  0.00  0.00    +0.000 HD
ATOM      8  H   UNL     1      49.867  35.328  43.471  0.00  0.00    +0.000 HD
ATOM      9  H   UNL     1      51.128  34.962  42.167  0.00  0.00    +0.000 HD
ATOM     10  H   UNL     1      48.841  33.095  43.050  0.00  0.00    +0.000 HD
BRANCH   6  11
ATOM     11  N   UNL     1      50.129  32.633  41.377  0.00  0.00    +0.000 NA
ATOM     12  C   UNL     1      49.467  32.184  40.206  0.00  0.00    +0.000 C 
ATOM     13  C   UNL     1      50.443  31.259  39.505  0.00  0.00    +0.000 C 
ATOM     14  N   UNL     1      50.755  30.108  40.296  0.00  0.00    +0.000 NA
ATOM     15  C   UNL     1      50.641  30.332  41.721  0.00  0.00    +0.000 C 
ATOM     16  C   UNL     1      51.005  31.777  42.053  0.00  0.00    +0.000 C 
ATOM     17  H   UNL     1      48.529  31.665  40.470  0.00  0.00    +0.000 HD
ATOM     18  H   UNL     1      49.227  33.000  39.511  0.00  0.00    +0.000 HD
ATOM     19  H   UNL     1      49.955  30.927  38.557  0.00  0.00    +0.000 HD
ATOM     20  H   UNL     1      51.331  31.842  39.218  0.00  0.00    +0.000 HD
ATOM     21  H   UNL     1      51.638  29.674  40.006  0.00  0.00    +0.000 HD
ATOM     22  H   UNL     1      51.269  29.620  42.279  0.00  0.00    +0.000 HD
ATOM     23  H   UNL     1      49.573  30.183  42.013  0.00  0.00    +0.000 HD
ATOM     24  H   UNL     1      52.066  31.968  41.810  0.00  0.00    +0.000 HD
ATOM     25  H   UNL     1      50.861  31.871  43.150  0.00  0.00    +0.000 HD
ENDBRANCH   6  11
ENDBRANCH   1   4
BRANCH   1  26
ATOM     26  C   UNL     1      46.698  34.277  42.149  0.00  0.00    +0.000 C 
ATOM     27  H   UNL     1      47.075  33.269  42.045  0.00  0.00    +0.000 HD
ATOM     28  H   UNL     1      45.896  34.367  41.358  0.00  0.00    +0.000 HD
BRANCH  26  31
ATOM     29  C   UNL     1      44.508  35.895  44.719  0.00  0.00    +0.000 A 
ATOM     30  C   UNL     1      45.174  35.661  43.496  0.00  0.00    +0.000 A 
ATOM     31  C   UNL     1      45.980  34.544  43.439  0.00  0.00    +0.000 A 
ATOM     32  N   UNL     1      46.102  33.737  44.520  0.00  0.00    +0.000 NA
ATOM     33  C   UNL     1      45.466  33.978  45.657  0.00  0.00    +0.000 A 
ATOM     34  N   UNL     1      44.678  35.042  45.760  0.00  0.00    +0.000 NA
ATOM     35  H   UNL     1      43.861  36.765  44.808  0.00  0.00    +0.000 HD
ATOM     36  H   UNL     1      45.061  36.318  42.650  0.00  0.00    +0.000 HD
BRANCH  33  39
ATOM     37  O   UNL     1      48.084  33.037  46.625  0.00  0.00    +0.000 OA
ATOM     38  C   UNL     1      47.022  33.017  47.322  0.00  0.00    +0.000 C 
ATOM     39  C   UNL     1      45.623  33.070  46.825  0.00  0.00    +0.000 C 
ATOM     40  C   UNL     1      44.796  33.562  47.970  0.00  0.00    +0.000 C 
ATOM     41  H   UNL     1      44.320  34.549  47.785  0.00  0.00    +0.000 HD
ATOM     42  C   UNL     1      45.739  33.617  49.142  0.00  0.00    +0.000 C 
ATOM     43  H   UNL     1      45.322  33.099  50.022  0.00  0.00    +0.000 HD
ATOM     44  N   UNL     1      46.959  32.941  48.733  0.00  0.00    +0.000 N 
ATOM     45  H   UNL     1      47.646  32.490  49.377  0.00  0.00    +0.000 HD
ENDBRANCH  33  39
ENDBRANCH  26  31
ENDBRANCH   1  26
TORSDOF 5
