
 OpenBabel03252508323D

 32 34  0  0  1  0  0  0  0  0999 V2000
   44.5730   34.3710   41.6000 N   0  0  0  0  0  0  0  0  0  0  0  0
   45.4650   33.5180   40.9000 C   0  0  1  0  0  0  0  0  0  0  0  0
   45.1180   33.3030   39.4590 C   0  0  0  0  0  0  0  0  0  0  0  0
   43.7580   33.2220   39.1420 N   0  0  0  0  0  0  0  0  0  0  0  0
   42.9030   34.1030   39.8220 C   0  0  0  0  0  0  0  0  0  0  0  0
   43.6270   35.0340   40.7460 C   0  0  0  0  0  0  0  0  0  0  0  0
   45.4610   32.5270   41.4000 H   0  0  0  0  0  0  0  0  0  0  0  0
   45.5030   34.2260   38.9290 H   0  0  0  0  0  0  0  0  0  0  0  0
   45.6640   32.4160   39.0780 H   0  0  0  0  0  0  0  0  0  0  0  0
   43.5950   33.0140   38.1580 H   0  0  0  0  0  0  0  0  0  0  0  0
   42.1370   33.5350   40.3780 H   0  0  0  0  0  0  0  0  0  0  0  0
   42.4160   34.7700   39.0520 H   0  0  0  0  0  0  0  0  0  0  0  0
   42.9060   35.7020   41.2420 H   0  0  0  0  0  0  0  0  0  0  0  0
   44.2110   35.7130   40.0690 H   0  0  0  0  0  0  0  0  0  0  0  0
   44.3450   35.7420   43.5280 C   0  0  0  0  0  0  0  0  0  0  0  0
   44.6910   34.4890   42.9930 C   0  0  0  0  0  0  0  0  0  0  0  0
   45.1310   33.5040   43.8600 C   0  0  0  0  0  0  0  0  0  0  0  0
   45.2290   33.7420   45.1990 N   0  0  0  0  0  0  0  0  0  0  0  0
   44.8880   34.9720   45.6970 C   0  0  0  0  0  0  0  0  0  0  0  0
   44.4560   35.9450   44.8730 N   0  0  0  0  0  0  0  0  0  0  0  0
   43.9870   36.6300   43.0320 H   0  0  0  0  0  0  0  0  0  0  0  0
   45.3850   32.5330   43.4620 H   0  0  0  0  0  0  0  0  0  0  0  0
   44.9650   35.1600   46.7570 H   0  0  0  0  0  0  0  0  0  0  0  0
   47.6100   34.0090   38.3180 O   0  0  0  0  0  0  0  0  0  0  0  0
   47.5530   34.0340   39.5900 C   0  0  0  0  0  0  0  0  0  0  0  0
   46.8970   33.9760   40.9150 C   0  0  2  0  0  3  0  0  0  0  0  0
   47.8150   33.0110   41.6280 C   0  0  0  0  0  3  0  0  0  0  0  0
   47.9240   32.0530   41.1150 H   0  0  0  0  0  0  0  0  0  0  0  0
   49.1440   33.7530   41.4050 C   0  0  0  0  0  3  0  0  0  0  0  0
   49.2720   34.5750   42.1200 H   0  0  0  0  0  0  0  0  0  0  0  0
   48.9210   34.2340   40.0310 N   0  0  0  0  0  0  0  0  0  0  0  0
   49.8530   34.6270   39.6850 H   0  0  0  0  0  0  0  0  0  0  0  0
  1 16  1  0  0  0  0
  2 26  1  0  0  0  0
  2  7  1  1  0  0  0
  2  1  1  0  0  0  0
  3  2  1  0  0  0  0
  4  3  1  0  0  0  0
  4  5  1  0  0  0  0
  5 11  1  0  0  0  0
  5  6  1  0  0  0  0
  6 13  1  0  0  0  0
  6  1  1  0  0  0  0
  8  3  1  0  0  0  0
  9  3  1  0  0  0  0
 10  4  1  0  0  0  0
 12  5  1  0  0  0  0
 14  6  1  0  0  0  0
 15 20  1  0  0  0  0
 16 15  2  0  0  0  0
 16 17  1  0  0  0  0
 17 18  2  0  0  0  0
 18 19  1  0  0  0  0
 19 23  1  0  0  0  0
 20 19  2  0  0  0  0
 21 15  1  0  0  0  0
 22 17  1  0  0  0  0
 24 25  2  0  0  0  0
 25 31  1  0  0  0  0
 26 25  1  6  0  0  0
 26 27  1  0  0  0  0
 28 27  1  0  0  0  0
 29 27  1  0  0  0  0
 29 30  1  0  0  0  0
 31 29  1  0  0  0  0
 32 31  1  0  0  0  0
M  END
>  <minimizedAffinity>
-4.52833939

>  <minimizedRMSD>
1.39910948

$$$$
