
 OpenBabel03242521313D

 47 50  0  0  1  0  0  0  0  0999 V2000
   38.0900   28.7420   40.4930 C   0  0  1  0  0  0  0  0  0  0  0  0
   37.3450   27.9500   41.5660 C   0  0  2  0  0  0  0  0  0  0  0  0
   38.0610   27.8650   42.7240 O   0  0  0  0  0  0  0  0  0  0  0  0
   38.0800   29.1060   43.2920 C   0  0  0  0  0  0  0  0  0  0  0  0
   38.9610   30.0090   42.4820 C   0  0  2  0  0  0  0  0  0  0  0  0
   38.7420   29.9640   40.9820 C   0  0  2  0  0  0  0  0  0  0  0  0
   37.2880   29.0620   39.7600 H   0  0  0  0  0  0  0  0  0  0  0  0
   36.3560   28.4630   41.7020 H   0  0  0  0  0  0  0  0  0  0  0  0
   38.4800   29.0710   44.3090 H   0  0  0  0  0  0  0  0  0  0  0  0
   37.0440   29.4990   43.3340 H   0  0  0  0  0  0  0  0  0  0  0  0
   38.7400   31.0080   42.9080 H   0  0  0  0  0  0  0  0  0  0  0  0
   39.7650   30.0360   40.5600 H   0  0  0  0  0  0  0  0  0  0  0  0
   36.9240   24.1870   41.4010 C   0  0  0  0  0  0  0  0  0  0  0  0
   37.2230   25.4540   41.9100 C   0  0  0  0  0  0  0  0  0  0  0  0
   37.0300   26.6030   41.0710 C   0  0  0  0  0  0  0  0  0  0  0  0
   36.5660   26.4190   39.8190 N   0  0  0  0  0  0  0  0  0  0  0  0
   36.2850   25.1550   39.3600 C   0  0  0  0  0  0  0  0  0  0  0  0
   36.4610   24.0510   40.1420 N   0  0  0  0  0  0  0  0  0  0  0  0
   37.0520   23.3010   41.9930 H   0  0  0  0  0  0  0  0  0  0  0  0
   37.5940   25.5750   42.9190 H   0  0  0  0  0  0  0  0  0  0  0  0
   35.9160   24.9870   38.3730 H   0  0  0  0  0  0  0  0  0  0  0  0
   38.9400   27.9370   39.7500 O   0  0  0  0  0  0  0  0  0  0  0  0
   38.6970   27.8040   38.8210 H   0  0  0  0  0  0  0  0  0  0  0  0
   40.2690   29.6070   42.7910 O   0  0  0  0  0  0  0  0  0  0  0  0
   40.7840   29.5030   41.9500 H   0  0  0  0  0  0  0  0  0  0  0  0
   38.1140   31.1520   40.5890 O   0  0  0  0  0  0  0  0  0  0  0  0
   38.1990   32.6660   38.7850 N   0  0  0  0  0  0  0  0  0  0  0  0
   37.3900   33.6090   39.5800 C   0  0  0  0  0  0  0  0  0  0  0  0
   38.4940   34.3490   40.2920 C   0  0  0  0  0  0  0  0  0  0  0  0
   39.3810   33.1840   40.7030 C   0  0  0  0  0  0  0  0  0  0  0  0
   38.8990   31.9890   39.8500 C   0  0  1  0  0  0  0  0  0  0  0  0
   37.5230   32.0650   38.2960 H   0  0  0  0  0  0  0  0  0  0  0  0
   36.7430   33.1020   40.3000 H   0  0  0  0  0  0  0  0  0  0  0  0
   36.8310   34.2860   38.8960 H   0  0  0  0  0  0  0  0  0  0  0  0
   38.0320   34.8130   41.1890 H   0  0  0  0  0  0  0  0  0  0  0  0
   38.9910   35.0790   39.6380 H   0  0  0  0  0  0  0  0  0  0  0  0
   40.3930   33.5090   40.4570 H   0  0  0  0  0  0  0  0  0  0  0  0
   39.2460   32.9950   41.7760 H   0  0  0  0  0  0  0  0  0  0  0  0
   38.8000   30.3780   37.6210 O   0  0  0  0  0  0  0  0  0  0  0  0
   39.8350   31.0850   37.8520 C   0  0  0  0  0  0  0  0  0  0  0  0
   40.1790   31.4670   39.2850 C   0  0  1  0  0  3  0  0  0  0  0  0
   41.2640   32.4300   39.0030 C   0  0  0  0  0  3  0  0  0  0  0  0
   41.0120   33.4470   38.7360 H   0  0  0  0  0  0  0  0  0  0  0  0
   41.9080   31.7990   37.7580 C   0  0  0  0  0  3  0  0  0  0  0  0
   42.6600   32.4720   37.3180 H   0  0  0  0  0  0  0  0  0  0  0  0
   40.7610   31.5920   36.8960 N   0  0  0  0  0  0  0  0  0  0  0  0
   40.5100   31.7150   35.8870 H   0  0  0  0  0  0  0  0  0  0  0  0
  1  7  1  6  0  0  0
  1  6  1  0  0  0  0
  1  2  1  0  0  0  0
  2  8  1  1  0  0  0
  2  3  1  0  0  0  0
  3  4  1  0  0  0  0
  4 10  1  0  0  0  0
  4  9  1  0  0  0  0
  5 24  1  0  0  0  0
  5 11  1  1  0  0  0
  5  4  1  0  0  0  0
  6 12  1  6  0  0  0
  6  5  1  0  0  0  0
 13 14  1  0  0  0  0
 13 19  1  0  0  0  0
 14 20  1  0  0  0  0
 15  2  1  0  0  0  0
 15 14  2  0  0  0  0
 16 15  1  0  0  0  0
 17 16  2  0  0  0  0
 17 18  1  0  0  0  0
 18 13  2  0  0  0  0
 21 17  1  0  0  0  0
 22  1  1  0  0  0  0
 23 22  1  0  0  0  0
 25 24  1  0  0  0  0
 26  6  1  0  0  0  0
 27 28  1  0  0  0  0
 27 31  1  0  0  0  0
 28 29  1  0  0  0  0
 28 33  1  0  0  0  0
 29 30  1  0  0  0  0
 29 35  1  0  0  0  0
 30 38  1  0  0  0  0
 31 26  1  1  0  0  0
 31 30  1  0  0  0  0
 32 27  1  0  0  0  0
 34 28  1  0  0  0  0
 36 29  1  0  0  0  0
 37 30  1  0  0  0  0
 39 40  2  0  0  0  0
 41 40  1  6  0  0  0
 41 31  1  0  0  0  0
 42 41  1  0  0  0  0
 43 42  1  0  0  0  0
 44 42  1  0  0  0  0
 45 44  1  0  0  0  0
 46 44  1  0  0  0  0
 46 40  1  0  0  0  0
 47 46  1  0  0  0  0
M  END
>  <minimizedAffinity>
-5.81744289

$$$$

 OpenBabel03242521313D

 47 50  0  0  1  0  0  0  0  0999 V2000
   37.8650   27.6630   40.4690 C   0  0  1  0  0  0  0  0  0  0  0  0
   37.0640   26.7050   41.3480 C   0  0  2  0  0  0  0  0  0  0  0  0
   37.3270   26.8920   42.6740 O   0  0  0  0  0  0  0  0  0  0  0  0
   36.7820   28.0890   43.0400 C   0  0  0  0  0  0  0  0  0  0  0  0
   37.5800   29.2040   42.4350 C   0  0  2  0  0  0  0  0  0  0  0  0
   37.9170   29.0450   40.9640 C   0  0  2  0  0  0  0  0  0  0  0  0
   37.3090   27.6830   39.4820 H   0  0  0  0  0  0  0  0  0  0  0  0
   35.9840   26.8740   41.0910 H   0  0  0  0  0  0  0  0  0  0  0  0
   36.7970   28.2170   44.1260 H   0  0  0  0  0  0  0  0  0  0  0  0
   35.7280   28.1260   42.6960 H   0  0  0  0  0  0  0  0  0  0  0  0
   36.9410   30.0900   42.6240 H   0  0  0  0  0  0  0  0  0  0  0  0
   38.9520   29.4330   40.8830 H   0  0  0  0  0  0  0  0  0  0  0  0
   36.7500   23.2640   39.7900 C   0  0  0  0  0  0  0  0  0  0  0  0
   36.4510   24.5900   40.1180 C   0  0  0  0  0  0  0  0  0  0  0  0
   37.3510   25.3150   40.9710 C   0  0  0  0  0  0  0  0  0  0  0  0
   38.4540   24.6900   41.4270 N   0  0  0  0  0  0  0  0  0  0  0  0
   38.7090   23.3850   41.0790 C   0  0  0  0  0  0  0  0  0  0  0  0
   37.8670   22.6800   40.2690 N   0  0  0  0  0  0  0  0  0  0  0  0
   36.1070   22.6860   39.1550 H   0  0  0  0  0  0  0  0  0  0  0  0
   35.5590   25.0690   39.7380 H   0  0  0  0  0  0  0  0  0  0  0  0
   39.5760   22.8720   41.4290 H   0  0  0  0  0  0  0  0  0  0  0  0
   39.1160   27.1550   40.1540 O   0  0  0  0  0  0  0  0  0  0  0  0
   39.2590   26.9230   39.2230 H   0  0  0  0  0  0  0  0  0  0  0  0
   38.7580   29.2580   43.1950 O   0  0  0  0  0  0  0  0  0  0  0  0
   39.5370   29.3010   42.5840 H   0  0  0  0  0  0  0  0  0  0  0  0
   37.1420   29.9530   40.2310 O   0  0  0  0  0  0  0  0  0  0  0  0
   39.1190   30.6920   39.1810 N   0  0  0  0  0  0  0  0  0  0  0  0
   38.6780   30.0140   37.9470 C   0  0  0  0  0  0  0  0  0  0  0  0
   37.8890   31.1340   37.3160 C   0  0  0  0  0  0  0  0  0  0  0  0
   37.1140   31.6360   38.5240 C   0  0  0  0  0  0  0  0  0  0  0  0
   37.8340   31.0250   39.7470 C   0  0  1  0  0  0  0  0  0  0  0  0
   39.6280   29.9790   39.7210 H   0  0  0  0  0  0  0  0  0  0  0  0
   38.0320   29.1570   38.1480 H   0  0  0  0  0  0  0  0  0  0  0  0
   39.5660   29.7540   37.3290 H   0  0  0  0  0  0  0  0  0  0  0  0
   37.1970   30.6570   36.5890 H   0  0  0  0  0  0  0  0  0  0  0  0
   38.5390   31.8910   36.8570 H   0  0  0  0  0  0  0  0  0  0  0  0
   37.1970   32.7220   38.4720 H   0  0  0  0  0  0  0  0  0  0  0  0
   36.0750   31.2860   38.4510 H   0  0  0  0  0  0  0  0  0  0  0  0
   40.0880   31.1540   41.3210 O   0  0  0  0  0  0  0  0  0  0  0  0
   39.5190   32.2270   40.9320 C   0  0  0  0  0  0  0  0  0  0  0  0
   38.0270   32.2170   40.6270 C   0  0  1  0  0  3  0  0  0  0  0  0
   37.9160   33.5600   40.0220 C   0  0  0  0  0  3  0  0  0  0  0  0
   38.1820   33.6940   38.9810 H   0  0  0  0  0  0  0  0  0  0  0  0
   38.9520   34.3450   40.8410 C   0  0  0  0  0  3  0  0  0  0  0  0
   39.1080   35.3510   40.4230 H   0  0  0  0  0  0  0  0  0  0  0  0
   40.1250   33.5000   40.7350 N   0  0  0  0  0  0  0  0  0  0  0  0
   41.1540   33.6080   40.5720 H   0  0  0  0  0  0  0  0  0  0  0  0
  1  7  1  6  0  0  0
  1  6  1  0  0  0  0
  1  2  1  0  0  0  0
  2  8  1  6  0  0  0
  2  3  1  0  0  0  0
  3  4  1  0  0  0  0
  4  9  1  0  0  0  0
  5 11  1  1  0  0  0
  5  4  1  0  0  0  0
  5 24  1  0  0  0  0
  6 12  1  6  0  0  0
  6  5  1  0  0  0  0
 10  4  1  0  0  0  0
 13 14  2  0  0  0  0
 13 18  1  0  0  0  0
 14 15  1  0  0  0  0
 15  2  1  0  0  0  0
 15 16  2  0  0  0  0
 17 16  1  0  0  0  0
 17 21  1  0  0  0  0
 18 17  2  0  0  0  0
 19 13  1  0  0  0  0
 20 14  1  0  0  0  0
 22  1  1  0  0  0  0
 23 22  1  0  0  0  0
 25 24  1  0  0  0  0
 26  6  1  0  0  0  0
 27 32  1  0  0  0  0
 27 31  1  0  0  0  0
 28 33  1  0  0  0  0
 28 27  1  0  0  0  0
 29 28  1  0  0  0  0
 29 30  1  0  0  0  0
 30 31  1  0  0  0  0
 31 26  1  1  0  0  0
 31 41  1  0  0  0  0
 34 28  1  0  0  0  0
 35 29  1  0  0  0  0
 36 29  1  0  0  0  0
 37 30  1  0  0  0  0
 38 30  1  0  0  0  0
 40 39  2  0  0  0  0
 41 42  1  6  0  0  0
 41 40  1  0  0  0  0
 42 44  1  0  0  0  0
 43 42  1  0  0  0  0
 45 44  1  0  0  0  0
 46 44  1  0  0  0  0
 46 40  1  0  0  0  0
 47 46  1  0  0  0  0
M  END
>  <minimizedAffinity>
-5.75922489

$$$$

 OpenBabel03242521313D

 47 50  0  0  1  0  0  0  0  0999 V2000
   39.4100   31.4440   40.3900 C   0  0  1  0  0  0  0  0  0  0  0  0
   39.7830   32.8910   40.7050 C   0  0  2  0  0  0  0  0  0  0  0  0
   39.2900   33.7570   39.7720 O   0  0  0  0  0  0  0  0  0  0  0  0
   37.9350   33.8040   39.9240 C   0  0  0  0  0  0  0  0  0  0  0  0
   37.3370   32.5140   39.4530 C   0  0  2  0  0  0  0  0  0  0  0  0
   38.0220   31.2540   39.9500 C   0  0  2  0  0  0  0  0  0  0  0  0
   39.5270   30.8940   41.3730 H   0  0  0  0  0  0  0  0  0  0  0  0
   39.3920   33.0960   41.7380 H   0  0  0  0  0  0  0  0  0  0  0  0
   37.4970   34.6130   39.3320 H   0  0  0  0  0  0  0  0  0  0  0  0
   37.6980   33.9820   40.9930 H   0  0  0  0  0  0  0  0  0  0  0  0
   36.2890   32.5880   39.8070 H   0  0  0  0  0  0  0  0  0  0  0  0
   37.9960   30.5720   39.0760 H   0  0  0  0  0  0  0  0  0  0  0  0
   43.3300   34.0680   40.0760 C   0  0  0  0  0  0  0  0  0  0  0  0
   41.9390   33.9740   39.9700 C   0  0  0  0  0  0  0  0  0  0  0  0
   41.2420   33.0280   40.7970 C   0  0  0  0  0  0  0  0  0  0  0  0
   41.9550   32.2630   41.6470 N   0  0  0  0  0  0  0  0  0  0  0  0
   43.3210   32.3900   41.7180 C   0  0  0  0  0  0  0  0  0  0  0  0
   44.0010   33.2830   40.9410 N   0  0  0  0  0  0  0  0  0  0  0  0
   43.8910   34.7610   39.4780 H   0  0  0  0  0  0  0  0  0  0  0  0
   41.3900   34.6000   39.2800 H   0  0  0  0  0  0  0  0  0  0  0  0
   43.9040   31.7950   42.3840 H   0  0  0  0  0  0  0  0  0  0  0  0
   40.3310   30.8440   39.5440 O   0  0  0  0  0  0  0  0  0  0  0  0
   40.8630   30.1320   39.9300 H   0  0  0  0  0  0  0  0  0  0  0  0
   37.4030   32.5770   38.0530 O   0  0  0  0  0  0  0  0  0  0  0  0
   37.7740   31.7260   37.7060 H   0  0  0  0  0  0  0  0  0  0  0  0
   37.1920   30.6430   40.8980 O   0  0  0  0  0  0  0  0  0  0  0  0
   35.7830   28.7870   41.2480 N   0  0  0  0  0  0  0  0  0  0  0  0
   34.8400   29.3580   40.2680 C   0  0  0  0  0  0  0  0  0  0  0  0
   35.3880   28.7410   39.0060 C   0  0  0  0  0  0  0  0  0  0  0  0
   36.8780   28.9600   39.2200 C   0  0  0  0  0  0  0  0  0  0  0  0
   37.0230   29.3010   40.7200 C   0  0  1  0  0  0  0  0  0  0  0  0
   35.5250   29.2010   42.1540 H   0  0  0  0  0  0  0  0  0  0  0  0
   34.8970   30.4480   40.2180 H   0  0  0  0  0  0  0  0  0  0  0  0
   33.8130   28.9860   40.4810 H   0  0  0  0  0  0  0  0  0  0  0  0
   35.0250   29.3720   38.1670 H   0  0  0  0  0  0  0  0  0  0  0  0
   35.1020   27.6860   38.9030 H   0  0  0  0  0  0  0  0  0  0  0  0
   37.3370   28.0090   38.9470 H   0  0  0  0  0  0  0  0  0  0  0  0
   37.2100   29.7900   38.5830 H   0  0  0  0  0  0  0  0  0  0  0  0
   37.5540   29.0410   43.4080 O   0  0  0  0  0  0  0  0  0  0  0  0
   37.8070   28.0780   42.6120 C   0  0  0  0  0  0  0  0  0  0  0  0
   38.1130   28.3730   41.1500 C   0  0  1  0  0  3  0  0  0  0  0  0
   38.0960   26.9880   40.6370 C   0  0  0  0  0  3  0  0  0  0  0  0
   37.1480   26.5230   40.4000 H   0  0  0  0  0  0  0  0  0  0  0  0
   38.6710   26.2170   41.8350 C   0  0  0  0  0  3  0  0  0  0  0  0
   38.5970   25.1300   41.6790 H   0  0  0  0  0  0  0  0  0  0  0  0
   37.8410   26.6900   42.9260 N   0  0  0  0  0  0  0  0  0  0  0  0
   37.3440   26.2930   43.7580 H   0  0  0  0  0  0  0  0  0  0  0  0
  1  2  1  0  0  0  0
  1  7  1  1  0  0  0
  2 15  1  0  0  0  0
  2  8  1  1  0  0  0
  3  4  1  0  0  0  0
  3  2  1  0  0  0  0
  4 10  1  0  0  0  0
  5 11  1  1  0  0  0
  5  4  1  0  0  0  0
  5  6  1  0  0  0  0
  6 12  1  6  0  0  0
  6  1  1  0  0  0  0
  6 26  1  0  0  0  0
  9  4  1  0  0  0  0
 13 18  1  0  0  0  0
 14 13  2  0  0  0  0
 14 15  1  0  0  0  0
 15 16  2  0  0  0  0
 16 17  1  0  0  0  0
 17 21  1  0  0  0  0
 18 17  2  0  0  0  0
 19 13  1  0  0  0  0
 20 14  1  0  0  0  0
 22 23  1  0  0  0  0
 22  1  1  0  0  0  0
 24  5  1  0  0  0  0
 25 24  1  0  0  0  0
 27 32  1  0  0  0  0
 28 34  1  0  0  0  0
 28 27  1  0  0  0  0
 29 30  1  0  0  0  0
 29 28  1  0  0  0  0
 30 31  1  0  0  0  0
 31 26  1  1  0  0  0
 31 41  1  0  0  0  0
 31 27  1  0  0  0  0
 33 28  1  0  0  0  0
 35 29  1  0  0  0  0
 36 29  1  0  0  0  0
 37 30  1  0  0  0  0
 38 30  1  0  0  0  0
 40 46  1  0  0  0  0
 40 39  2  0  0  0  0
 41 42  1  6  0  0  0
 41 40  1  0  0  0  0
 42 44  1  0  0  0  0
 43 42  1  0  0  0  0
 44 46  1  0  0  0  0
 45 44  1  0  0  0  0
 46 47  1  0  0  0  0
M  END
>  <minimizedAffinity>
-5.72903728

$$$$

 OpenBabel03242521313D

 47 50  0  0  1  0  0  0  0  0999 V2000
   39.5760   31.6810   38.4730 C   0  0  1  0  0  0  0  0  0  0  0  0
   40.3820   32.5310   39.4510 C   0  0  2  0  0  0  0  0  0  0  0  0
   39.7020   33.6510   39.8320 O   0  0  0  0  0  0  0  0  0  0  0  0
   38.6670   33.2570   40.6310 C   0  0  0  0  0  0  0  0  0  0  0  0
   37.6310   32.5670   39.7960 C   0  0  2  0  0  0  0  0  0  0  0  0
   38.1580   31.5300   38.8230 C   0  0  2  0  0  0  0  0  0  0  0  0
   40.0450   30.6520   38.5280 H   0  0  0  0  0  0  0  0  0  0  0  0
   40.6330   31.8590   40.3160 H   0  0  0  0  0  0  0  0  0  0  0  0
   38.1920   34.1130   41.1160 H   0  0  0  0  0  0  0  0  0  0  0  0
   39.0570   32.5770   41.4160 H   0  0  0  0  0  0  0  0  0  0  0  0
   36.9610   32.1240   40.5590 H   0  0  0  0  0  0  0  0  0  0  0  0
   37.5320   31.6690   37.9180 H   0  0  0  0  0  0  0  0  0  0  0  0
   44.0570   32.5150   38.5260 C   0  0  0  0  0  0  0  0  0  0  0  0
   42.8470   32.1210   39.1030 C   0  0  0  0  0  0  0  0  0  0  0  0
   41.6700   32.9060   38.8520 C   0  0  0  0  0  0  0  0  0  0  0  0
   41.7750   33.9970   38.0680 N   0  0  0  0  0  0  0  0  0  0  0  0
   42.9860   34.3470   37.5220 C   0  0  0  0  0  0  0  0  0  0  0  0
   44.1150   33.6140   37.7470 N   0  0  0  0  0  0  0  0  0  0  0  0
   44.9610   31.9580   38.6850 H   0  0  0  0  0  0  0  0  0  0  0  0
   42.7890   31.2410   39.7280 H   0  0  0  0  0  0  0  0  0  0  0  0
   43.0910   35.2060   36.8980 H   0  0  0  0  0  0  0  0  0  0  0  0
   39.7670   32.0800   37.1580 O   0  0  0  0  0  0  0  0  0  0  0  0
   40.2390   31.4540   36.5880 H   0  0  0  0  0  0  0  0  0  0  0  0
   36.9870   33.6000   39.0970 O   0  0  0  0  0  0  0  0  0  0  0  0
   36.9200   33.3520   38.1400 H   0  0  0  0  0  0  0  0  0  0  0  0
   37.8100   30.2590   39.2990 O   0  0  0  0  0  0  0  0  0  0  0  0
   36.9830   28.1270   38.7300 N   0  0  0  0  0  0  0  0  0  0  0  0
   36.2230   28.1200   39.9950 C   0  0  0  0  0  0  0  0  0  0  0  0
   34.9480   28.7730   39.5240 C   0  0  0  0  0  0  0  0  0  0  0  0
   35.5170   29.9130   38.6940 C   0  0  0  0  0  0  0  0  0  0  0  0
   37.0000   29.5450   38.4650 C   0  0  1  0  0  0  0  0  0  0  0  0
   37.9100   27.7460   38.9630 H   0  0  0  0  0  0  0  0  0  0  0  0
   36.6980   28.7240   40.7720 H   0  0  0  0  0  0  0  0  0  0  0  0
   36.0410   27.0700   40.3130 H   0  0  0  0  0  0  0  0  0  0  0  0
   34.4480   29.1730   40.4320 H   0  0  0  0  0  0  0  0  0  0  0  0
   34.3140   28.0800   38.9550 H   0  0  0  0  0  0  0  0  0  0  0  0
   34.9240   29.9070   37.7780 H   0  0  0  0  0  0  0  0  0  0  0  0
   35.4160   30.8490   39.2590 H   0  0  0  0  0  0  0  0  0  0  0  0
   39.2100   28.4820   37.2170 O   0  0  0  0  0  0  0  0  0  0  0  0
   38.1230   28.6350   36.5680 C   0  0  0  0  0  0  0  0  0  0  0  0
   37.1450   29.7230   36.9890 C   0  0  1  0  0  3  0  0  0  0  0  0
   36.0090   29.3470   36.1230 C   0  0  0  0  0  3  0  0  0  0  0  0
   35.3440   28.5530   36.4380 H   0  0  0  0  0  0  0  0  0  0  0  0
   36.7420   28.8310   34.8750 C   0  0  0  0  0  3  0  0  0  0  0  0
   36.0390   28.3660   34.1660 H   0  0  0  0  0  0  0  0  0  0  0  0
   37.6790   27.8820   35.4440 N   0  0  0  0  0  0  0  0  0  0  0  0
   38.0400   26.9210   35.2390 H   0  0  0  0  0  0  0  0  0  0  0  0
  1  7  1  1  0  0  0
  1  6  1  0  0  0  0
  1  2  1  0  0  0  0
  2  3  1  0  0  0  0
  2  8  1  1  0  0  0
  3  4  1  0  0  0  0
  4  9  1  0  0  0  0
  4 10  1  0  0  0  0
  5 11  1  1  0  0  0
  5  4  1  0  0  0  0
  6 12  1  6  0  0  0
  6 26  1  0  0  0  0
  6  5  1  0  0  0  0
 13 19  1  0  0  0  0
 13 14  1  0  0  0  0
 14 20  1  0  0  0  0
 15 14  2  0  0  0  0
 15  2  1  0  0  0  0
 16 15  1  0  0  0  0
 17 18  1  0  0  0  0
 17 16  2  0  0  0  0
 18 13  2  0  0  0  0
 21 17  1  0  0  0  0
 22  1  1  0  0  0  0
 23 22  1  0  0  0  0
 24  5  1  0  0  0  0
 25 24  1  0  0  0  0
 27 32  1  0  0  0  0
 27 28  1  0  0  0  0
 28 34  1  0  0  0  0
 28 33  1  0  0  0  0
 29 28  1  0  0  0  0
 29 35  1  0  0  0  0
 30 38  1  0  0  0  0
 30 29  1  0  0  0  0
 31 30  1  0  0  0  0
 31 27  1  0  0  0  0
 31 26  1  1  0  0  0
 36 29  1  0  0  0  0
 37 30  1  0  0  0  0
 40 41  1  0  0  0  0
 40 39  2  0  0  0  0
 41 42  1  6  0  0  0
 41 31  1  0  0  0  0
 42 43  1  0  0  0  0
 44 46  1  0  0  0  0
 44 42  1  0  0  0  0
 45 44  1  0  0  0  0
 46 40  1  0  0  0  0
 47 46  1  0  0  0  0
M  END
>  <minimizedAffinity>
-5.70511389

$$$$

 OpenBabel03242521313D

 47 50  0  0  1  0  0  0  0  0999 V2000
   37.9230   28.7340   40.3260 C   0  0  1  0  0  0  0  0  0  0  0  0
   36.7320   27.7990   40.1260 C   0  0  2  0  0  0  0  0  0  0  0  0
   35.5910   28.3040   40.6780 O   0  0  0  0  0  0  0  0  0  0  0  0
   35.2040   29.3750   39.9250 C   0  0  0  0  0  0  0  0  0  0  0  0
   36.1540   30.5120   40.1520 C   0  0  2  0  0  0  0  0  0  0  0  0
   37.6270   30.1550   40.0990 C   0  0  2  0  0  0  0  0  0  0  0  0
   38.6740   28.4200   39.5390 H   0  0  0  0  0  0  0  0  0  0  0  0
   36.6450   27.6390   39.0170 H   0  0  0  0  0  0  0  0  0  0  0  0
   34.2020   29.7140   40.2020 H   0  0  0  0  0  0  0  0  0  0  0  0
   35.1920   29.0780   38.8560 H   0  0  0  0  0  0  0  0  0  0  0  0
   35.8680   31.2290   39.3570 H   0  0  0  0  0  0  0  0  0  0  0  0
   38.0800   30.7650   40.9060 H   0  0  0  0  0  0  0  0  0  0  0  0
   37.6550   24.1360   40.4260 C   0  0  0  0  0  0  0  0  0  0  0  0
   37.3950   25.3810   39.8480 C   0  0  0  0  0  0  0  0  0  0  0  0
   37.0250   26.4790   40.6980 C   0  0  0  0  0  0  0  0  0  0  0  0
   36.9410   26.2680   42.0260 N   0  0  0  0  0  0  0  0  0  0  0  0
   37.2050   25.0270   42.5520 C   0  0  0  0  0  0  0  0  0  0  0  0
   37.5590   23.9720   41.7610 N   0  0  0  0  0  0  0  0  0  0  0  0
   37.9350   23.2890   39.8290 H   0  0  0  0  0  0  0  0  0  0  0  0
   37.4700   25.5250   38.7780 H   0  0  0  0  0  0  0  0  0  0  0  0
   37.1450   24.8380   43.6000 H   0  0  0  0  0  0  0  0  0  0  0  0
   38.5660   28.5030   41.5330 O   0  0  0  0  0  0  0  0  0  0  0  0
   39.4610   28.1360   41.4740 H   0  0  0  0  0  0  0  0  0  0  0  0
   35.8240   31.0070   41.4230 O   0  0  0  0  0  0  0  0  0  0  0  0
   36.6540   31.1220   41.9520 H   0  0  0  0  0  0  0  0  0  0  0  0
   38.1670   30.6780   38.9170 O   0  0  0  0  0  0  0  0  0  0  0  0
   40.4350   30.4820   39.5290 N   0  0  0  0  0  0  0  0  0  0  0  0
   40.6650   29.6960   38.3020 C   0  0  0  0  0  0  0  0  0  0  0  0
   40.9890   30.8160   37.3460 C   0  0  0  0  0  0  0  0  0  0  0  0
   39.9030   31.8140   37.7170 C   0  0  0  0  0  0  0  0  0  0  0  0
   39.3560   31.3270   39.0780 C   0  0  1  0  0  0  0  0  0  0  0  0
   40.1450   29.8010   40.2440 H   0  0  0  0  0  0  0  0  0  0  0  0
   39.7710   29.1600   37.9750 H   0  0  0  0  0  0  0  0  0  0  0  0
   41.5430   29.0290   38.4480 H   0  0  0  0  0  0  0  0  0  0  0  0
   40.8090   30.4170   36.3250 H   0  0  0  0  0  0  0  0  0  0  0  0
   42.0100   31.1960   37.4840 H   0  0  0  0  0  0  0  0  0  0  0  0
   40.4200   32.7720   37.7770 H   0  0  0  0  0  0  0  0  0  0  0  0
   39.1260   31.7990   36.9410 H   0  0  0  0  0  0  0  0  0  0  0  0
   40.0760   31.1490   41.7280 O   0  0  0  0  0  0  0  0  0  0  0  0
   40.2820   32.2290   41.0820 C   0  0  0  0  0  0  0  0  0  0  0  0
   39.3920   32.5760   39.8960 C   0  0  1  0  0  3  0  0  0  0  0  0
   40.1540   33.7320   39.3790 C   0  0  0  0  0  3  0  0  0  0  0  0
   41.0160   33.5570   38.7490 H   0  0  0  0  0  0  0  0  0  0  0  0
   40.6850   34.3490   40.6820 C   0  0  0  0  0  3  0  0  0  0  0  0
   41.4060   35.1540   40.4740 H   0  0  0  0  0  0  0  0  0  0  0  0
   41.2890   33.2040   41.3350 N   0  0  0  0  0  0  0  0  0  0  0  0
   42.1630   32.9780   41.8660 H   0  0  0  0  0  0  0  0  0  0  0  0
  1  7  1  6  0  0  0
  1 22  1  0  0  0  0
  2  8  1  6  0  0  0
  2  1  1  0  0  0  0
  2  3  1  0  0  0  0
  2 15  1  0  0  0  0
  4  5  1  0  0  0  0
  4  9  1  0  0  0  0
  4  3  1  0  0  0  0
  5 11  1  6  0  0  0
  5 24  1  0  0  0  0
  6  5  1  0  0  0  0
  6  1  1  0  0  0  0
  6 12  1  1  0  0  0
 10  4  1  0  0  0  0
 13 18  1  0  0  0  0
 14 13  2  0  0  0  0
 14 15  1  0  0  0  0
 15 16  2  0  0  0  0
 16 17  1  0  0  0  0
 17 21  1  0  0  0  0
 18 17  2  0  0  0  0
 19 13  1  0  0  0  0
 20 14  1  0  0  0  0
 23 22  1  0  0  0  0
 24 25  1  0  0  0  0
 26  6  1  0  0  0  0
 27 32  1  0  0  0  0
 28 34  1  0  0  0  0
 28 27  1  0  0  0  0
 29 36  1  0  0  0  0
 29 30  1  0  0  0  0
 29 28  1  0  0  0  0
 30 37  1  0  0  0  0
 30 31  1  0  0  0  0
 31 26  1  6  0  0  0
 31 27  1  0  0  0  0
 31 41  1  0  0  0  0
 33 28  1  0  0  0  0
 35 29  1  0  0  0  0
 38 30  1  0  0  0  0
 40 46  1  0  0  0  0
 40 39  2  0  0  0  0
 41 42  1  6  0  0  0
 41 40  1  0  0  0  0
 42 44  1  0  0  0  0
 43 42  1  0  0  0  0
 44 46  1  0  0  0  0
 45 44  1  0  0  0  0
 46 47  1  0  0  0  0
M  END
>  <minimizedAffinity>
-5.55203485

$$$$

 OpenBabel03242521313D

 47 50  0  0  1  0  0  0  0  0999 V2000
   39.6510   31.9270   39.4010 C   0  0  1  0  0  0  0  0  0  0  0  0
   40.4610   33.1300   39.8810 C   0  0  2  0  0  0  0  0  0  0  0  0
   39.7760   34.3000   39.7210 O   0  0  0  0  0  0  0  0  0  0  0  0
   38.7510   34.3070   40.6220 C   0  0  0  0  0  0  0  0  0  0  0  0
   37.7120   33.3130   40.2000 C   0  0  2  0  0  0  0  0  0  0  0  0
   38.2370   31.9480   39.7950 C   0  0  2  0  0  0  0  0  0  0  0  0
   40.1270   31.0360   39.9110 H   0  0  0  0  0  0  0  0  0  0  0  0
   40.7220   32.9220   40.9530 H   0  0  0  0  0  0  0  0  0  0  0  0
   38.2740   35.2900   40.6720 H   0  0  0  0  0  0  0  0  0  0  0  0
   39.1510   34.0570   41.6260 H   0  0  0  0  0  0  0  0  0  0  0  0
   37.0510   33.2610   41.0880 H   0  0  0  0  0  0  0  0  0  0  0  0
   37.6030   31.6620   38.9320 H   0  0  0  0  0  0  0  0  0  0  0  0
   43.2740   34.3420   37.6490 C   0  0  0  0  0  0  0  0  0  0  0  0
   42.0510   34.3200   38.3250 C   0  0  0  0  0  0  0  0  0  0  0  0
   41.7410   33.1960   39.1640 C   0  0  0  0  0  0  0  0  0  0  0  0
   42.6430   32.2000   39.2700 N   0  0  0  0  0  0  0  0  0  0  0  0
   43.8330   32.2640   38.5870 C   0  0  0  0  0  0  0  0  0  0  0  0
   44.1450   33.3230   37.7850 N   0  0  0  0  0  0  0  0  0  0  0  0
   43.5460   35.1620   37.0120 H   0  0  0  0  0  0  0  0  0  0  0  0
   41.3440   35.1320   38.2240 H   0  0  0  0  0  0  0  0  0  0  0  0
   44.5610   31.4870   38.6570 H   0  0  0  0  0  0  0  0  0  0  0  0
   39.8300   31.6890   38.0460 O   0  0  0  0  0  0  0  0  0  0  0  0
   40.3010   30.8740   37.8160 H   0  0  0  0  0  0  0  0  0  0  0  0
   37.0560   33.9160   39.1160 O   0  0  0  0  0  0  0  0  0  0  0  0
   36.9820   33.2620   38.3750 H   0  0  0  0  0  0  0  0  0  0  0  0
   37.9010   31.0300   40.7980 O   0  0  0  0  0  0  0  0  0  0  0  0
   38.1600   28.7400   40.3040 N   0  0  0  0  0  0  0  0  0  0  0  0
   38.2910   28.4760   41.7490 C   0  0  0  0  0  0  0  0  0  0  0  0
   36.8390   28.2670   42.0970 C   0  0  0  0  0  0  0  0  0  0  0  0
   36.2070   29.4210   41.3340 C   0  0  0  0  0  0  0  0  0  0  0  0
   37.2960   29.8940   40.3450 C   0  0  1  0  0  0  0  0  0  0  0  0
   39.1110   28.9560   39.9750 H   0  0  0  0  0  0  0  0  0  0  0  0
   38.6970   29.3300   42.2960 H   0  0  0  0  0  0  0  0  0  0  0  0
   38.8770   27.5430   41.9040 H   0  0  0  0  0  0  0  0  0  0  0  0
   36.7520   28.4380   43.1910 H   0  0  0  0  0  0  0  0  0  0  0  0
   36.4770   27.2770   41.7880 H   0  0  0  0  0  0  0  0  0  0  0  0
   35.3380   28.9820   40.8430 H   0  0  0  0  0  0  0  0  0  0  0  0
   35.9370   30.2120   42.0460 H   0  0  0  0  0  0  0  0  0  0  0  0
   38.5670   29.0580   38.0510 O   0  0  0  0  0  0  0  0  0  0  0  0
   37.2980   28.9770   38.1430 C   0  0  0  0  0  0  0  0  0  0  0  0
   36.5480   29.9410   39.0530 C   0  0  1  0  0  3  0  0  0  0  0  0
   35.2140   29.3090   38.9920 C   0  0  0  0  0  3  0  0  0  0  0  0
   35.0020   28.4600   39.6290 H   0  0  0  0  0  0  0  0  0  0  0  0
   35.1950   28.7860   37.5470 C   0  0  0  0  0  3  0  0  0  0  0  0
   34.3150   28.1500   37.3680 H   0  0  0  0  0  0  0  0  0  0  0  0
   36.4450   28.0540   37.4740 N   0  0  0  0  0  0  0  0  0  0  0  0
   36.7960   27.1440   37.0950 H   0  0  0  0  0  0  0  0  0  0  0  0
  1  6  1  0  0  0  0
  1  2  1  0  0  0  0
  1  7  1  1  0  0  0
  2  8  1  1  0  0  0
  3  2  1  0  0  0  0
  3  4  1  0  0  0  0
  4  9  1  0  0  0  0
  4 10  1  0  0  0  0
  5  4  1  0  0  0  0
  5 11  1  1  0  0  0
  6 12  1  6  0  0  0
  6  5  1  0  0  0  0
  6 26  1  0  0  0  0
 13 18  2  0  0  0  0
 13 14  1  0  0  0  0
 14 15  2  0  0  0  0
 15 16  1  0  0  0  0
 15  2  1  0  0  0  0
 17 21  1  0  0  0  0
 17 16  2  0  0  0  0
 18 17  1  0  0  0  0
 19 13  1  0  0  0  0
 20 14  1  0  0  0  0
 22  1  1  0  0  0  0
 23 22  1  0  0  0  0
 24  5  1  0  0  0  0
 25 24  1  0  0  0  0
 27 31  1  0  0  0  0
 27 28  1  0  0  0  0
 28 34  1  0  0  0  0
 28 29  1  0  0  0  0
 28 33  1  0  0  0  0
 29 35  1  0  0  0  0
 30 38  1  0  0  0  0
 30 29  1  0  0  0  0
 31 26  1  1  0  0  0
 31 30  1  0  0  0  0
 32 27  1  0  0  0  0
 36 29  1  0  0  0  0
 37 30  1  0  0  0  0
 39 40  2  0  0  0  0
 41 40  1  6  0  0  0
 41 31  1  0  0  0  0
 42 41  1  0  0  0  0
 42 43  1  0  0  0  0
 44 42  1  0  0  0  0
 45 44  1  0  0  0  0
 46 44  1  0  0  0  0
 46 40  1  0  0  0  0
 47 46  1  0  0  0  0
M  END
>  <minimizedAffinity>
-5.51252079

$$$$

 OpenBabel03242521313D

 47 50  0  0  1  0  0  0  0  0999 V2000
   38.3210   29.1180   40.6760 C   0  0  1  0  0  0  0  0  0  0  0  0
   37.3650   27.9970   40.2760 C   0  0  2  0  0  0  0  0  0  0  0  0
   36.0860   28.2520   40.6770 O   0  0  0  0  0  0  0  0  0  0  0  0
   35.6080   29.2780   39.9150 C   0  0  0  0  0  0  0  0  0  0  0  0
   36.2880   30.5520   40.3140 C   0  0  2  0  0  0  0  0  0  0  0  0
   37.7960   30.4730   40.4590 C   0  0  2  0  0  0  0  0  0  0  0  0
   39.2160   28.9940   39.9930 H   0  0  0  0  0  0  0  0  0  0  0  0
   37.4580   27.8910   39.1620 H   0  0  0  0  0  0  0  0  0  0  0  0
   34.5330   29.4120   40.0590 H   0  0  0  0  0  0  0  0  0  0  0  0
   35.7950   29.0500   38.8460 H   0  0  0  0  0  0  0  0  0  0  0  0
   35.9810   31.2530   39.5130 H   0  0  0  0  0  0  0  0  0  0  0  0
   38.0150   31.1050   41.3430 H   0  0  0  0  0  0  0  0  0  0  0  0
   37.4040   24.6970   42.1400 C   0  0  0  0  0  0  0  0  0  0  0  0
   36.9300   25.9010   41.6110 C   0  0  0  0  0  0  0  0  0  0  0  0
   37.8220   26.7190   40.8370 C   0  0  0  0  0  0  0  0  0  0  0  0
   39.0880   26.2960   40.6490 N   0  0  0  0  0  0  0  0  0  0  0  0
   39.5110   25.1050   41.1880 C   0  0  0  0  0  0  0  0  0  0  0  0
   38.6780   24.3140   41.9240 N   0  0  0  0  0  0  0  0  0  0  0  0
   36.7720   24.0540   42.7230 H   0  0  0  0  0  0  0  0  0  0  0  0
   35.9090   26.2180   41.7760 H   0  0  0  0  0  0  0  0  0  0  0  0
   40.5080   24.7520   41.0500 H   0  0  0  0  0  0  0  0  0  0  0  0
   38.8300   28.9350   41.9530 O   0  0  0  0  0  0  0  0  0  0  0  0
   39.7780   28.7400   42.0090 H   0  0  0  0  0  0  0  0  0  0  0  0
   35.7050   30.9020   41.5420 O   0  0  0  0  0  0  0  0  0  0  0  0
   36.4210   31.1330   42.1870 H   0  0  0  0  0  0  0  0  0  0  0  0
   38.3810   31.1550   39.3850 O   0  0  0  0  0  0  0  0  0  0  0  0
   39.4250   33.2270   38.9680 N   0  0  0  0  0  0  0  0  0  0  0  0
   38.2330   33.9010   39.5170 C   0  0  0  0  0  0  0  0  0  0  0  0
   38.6270   33.9610   40.9710 C   0  0  0  0  0  0  0  0  0  0  0  0
   39.1700   32.5540   41.1640 C   0  0  0  0  0  0  0  0  0  0  0  0
   39.3880   32.0060   39.7360 C   0  0  1  0  0  0  0  0  0  0  0  0
   39.2260   33.0840   37.9690 H   0  0  0  0  0  0  0  0  0  0  0  0
   37.3230   33.3110   39.3910 H   0  0  0  0  0  0  0  0  0  0  0  0
   38.1520   34.9220   39.0820 H   0  0  0  0  0  0  0  0  0  0  0  0
   37.6850   34.0910   41.5450 H   0  0  0  0  0  0  0  0  0  0  0  0
   39.3620   34.7540   41.1670 H   0  0  0  0  0  0  0  0  0  0  0  0
   40.0980   32.6920   41.7200 H   0  0  0  0  0  0  0  0  0  0  0  0
   38.4290   31.9600   41.7160 H   0  0  0  0  0  0  0  0  0  0  0  0
   40.6400   31.2480   37.4050 O   0  0  0  0  0  0  0  0  0  0  0  0
   41.3310   31.6500   38.3990 C   0  0  0  0  0  0  0  0  0  0  0  0
   40.7850   31.4800   39.8100 C   0  0  1  0  0  3  0  0  0  0  0  0
   41.7950   32.2770   40.5350 C   0  0  0  0  0  3  0  0  0  0  0  0
   41.6950   33.3540   40.5690 H   0  0  0  0  0  0  0  0  0  0  0  0
   43.0580   31.9820   39.7100 C   0  0  0  0  0  3  0  0  0  0  0  0
   43.8970   32.6190   40.0290 H   0  0  0  0  0  0  0  0  0  0  0  0
   42.6120   32.2700   38.3610 N   0  0  0  0  0  0  0  0  0  0  0  0
   42.9710   32.7550   37.5060 H   0  0  0  0  0  0  0  0  0  0  0  0
  1  7  1  6  0  0  0
  1 22  1  0  0  0  0
  2  8  1  6  0  0  0
  2  1  1  0  0  0  0
  2  3  1  0  0  0  0
  2 15  1  0  0  0  0
  4  9  1  0  0  0  0
  4  5  1  0  0  0  0
  4  3  1  0  0  0  0
  5 11  1  6  0  0  0
  5  6  1  0  0  0  0
  5 24  1  0  0  0  0
  6  1  1  0  0  0  0
  6 12  1  1  0  0  0
 10  4  1  0  0  0  0
 13 19  1  0  0  0  0
 14 20  1  0  0  0  0
 14 13  2  0  0  0  0
 15 14  1  0  0  0  0
 16 15  2  0  0  0  0
 16 17  1  0  0  0  0
 17 18  2  0  0  0  0
 18 13  1  0  0  0  0
 21 17  1  0  0  0  0
 22 23  1  0  0  0  0
 24 25  1  0  0  0  0
 26  6  1  0  0  0  0
 27 28  1  0  0  0  0
 27 31  1  0  0  0  0
 28 29  1  0  0  0  0
 29 30  1  0  0  0  0
 29 36  1  0  0  0  0
 29 35  1  0  0  0  0
 30 38  1  0  0  0  0
 30 37  1  0  0  0  0
 31 26  1  6  0  0  0
 31 41  1  0  0  0  0
 31 30  1  0  0  0  0
 32 27  1  0  0  0  0
 33 28  1  0  0  0  0
 34 28  1  0  0  0  0
 39 40  2  0  0  0  0
 41 40  1  6  0  0  0
 41 42  1  0  0  0  0
 42 43  1  0  0  0  0
 44 45  1  0  0  0  0
 44 42  1  0  0  0  0
 46 40  1  0  0  0  0
 46 44  1  0  0  0  0
 47 46  1  0  0  0  0
M  END
>  <minimizedAffinity>
-5.50786352

$$$$

 OpenBabel03242521313D

 47 50  0  0  1  0  0  0  0  0999 V2000
   36.3940   28.3670   38.8080 C   0  0  1  0  0  0  0  0  0  0  0  0
   36.5690   29.3340   37.6400 C   0  0  2  0  0  0  0  0  0  0  0  0
   36.2050   30.6070   37.9740 O   0  0  0  0  0  0  0  0  0  0  0  0
   37.1380   31.0900   38.8460 C   0  0  0  0  0  0  0  0  0  0  0  0
   36.9880   30.3980   40.1670 C   0  0  2  0  0  0  0  0  0  0  0  0
   36.8500   28.8880   40.1040 C   0  0  2  0  0  0  0  0  0  0  0  0
   37.0530   27.4830   38.5530 H   0  0  0  0  0  0  0  0  0  0  0  0
   37.6460   29.2570   37.3300 H   0  0  0  0  0  0  0  0  0  0  0  0
   37.0070   32.1620   39.0120 H   0  0  0  0  0  0  0  0  0  0  0  0
   38.1490   30.9190   38.4230 H   0  0  0  0  0  0  0  0  0  0  0  0
   37.9010   30.7130   40.7100 H   0  0  0  0  0  0  0  0  0  0  0  0
   36.1000   28.6540   40.8860 H   0  0  0  0  0  0  0  0  0  0  0  0
   35.6530   27.7700   34.3110 C   0  0  0  0  0  0  0  0  0  0  0  0
   36.4260   28.1810   35.4010 C   0  0  0  0  0  0  0  0  0  0  0  0
   35.7880   28.8760   36.4830 C   0  0  0  0  0  0  0  0  0  0  0  0
   34.4630   29.1090   36.4100 N   0  0  0  0  0  0  0  0  0  0  0  0
   33.7410   28.6870   35.3200 C   0  0  0  0  0  0  0  0  0  0  0  0
   34.3300   28.0250   34.2820 N   0  0  0  0  0  0  0  0  0  0  0  0
   36.0890   27.2470   33.4810 H   0  0  0  0  0  0  0  0  0  0  0  0
   37.4890   27.9820   35.4360 H   0  0  0  0  0  0  0  0  0  0  0  0
   32.6920   28.8600   35.2420 H   0  0  0  0  0  0  0  0  0  0  0  0
   35.1120   27.8420   38.8590 O   0  0  0  0  0  0  0  0  0  0  0  0
   35.0320   26.8950   38.6710 H   0  0  0  0  0  0  0  0  0  0  0  0
   35.8380   30.9620   40.7400 O   0  0  0  0  0  0  0  0  0  0  0  0
   35.2550   30.2370   41.0810 H   0  0  0  0  0  0  0  0  0  0  0  0
   38.0380   28.3150   40.5730 O   0  0  0  0  0  0  0  0  0  0  0  0
   38.9050   27.2060   42.4630 N   0  0  0  0  0  0  0  0  0  0  0  0
   38.5920   28.4020   43.2680 C   0  0  0  0  0  0  0  0  0  0  0  0
   37.1810   28.0650   43.6800 C   0  0  0  0  0  0  0  0  0  0  0  0
   36.6240   27.5640   42.3560 C   0  0  0  0  0  0  0  0  0  0  0  0
   37.8620   27.3020   41.4710 C   0  0  1  0  0  0  0  0  0  0  0  0
   39.8460   27.3680   42.0810 H   0  0  0  0  0  0  0  0  0  0  0  0
   38.6090   29.3210   42.6770 H   0  0  0  0  0  0  0  0  0  0  0  0
   39.2670   28.4420   44.1520 H   0  0  0  0  0  0  0  0  0  0  0  0
   36.6990   29.0260   43.9590 H   0  0  0  0  0  0  0  0  0  0  0  0
   37.1520   27.3200   44.4870 H   0  0  0  0  0  0  0  0  0  0  0  0
   36.0780   26.6560   42.6150 H   0  0  0  0  0  0  0  0  0  0  0  0
   35.9770   28.3400   41.9270 H   0  0  0  0  0  0  0  0  0  0  0  0
   39.8750   25.9800   40.1380 O   0  0  0  0  0  0  0  0  0  0  0  0
   38.9830   25.3190   40.7660 C   0  0  0  0  0  0  0  0  0  0  0  0
   37.5990   25.9230   40.9610 C   0  0  1  0  0  3  0  0  0  0  0  0
   37.0520   24.9220   41.8990 C   0  0  0  0  0  3  0  0  0  0  0  0
   37.2910   24.9980   42.9520 H   0  0  0  0  0  0  0  0  0  0  0  0
   37.7220   23.6360   41.3910 C   0  0  0  0  0  3  0  0  0  0  0  0
   37.5350   22.7950   42.0750 H   0  0  0  0  0  0  0  0  0  0  0  0
   39.1180   24.0230   41.3390 N   0  0  0  0  0  0  0  0  0  0  0  0
   40.0510   23.6190   41.5900 H   0  0  0  0  0  0  0  0  0  0  0  0
  1  7  1  6  0  0  0
  1 22  1  0  0  0  0
  1  6  1  0  0  0  0
  2  8  1  6  0  0  0
  2  3  1  0  0  0  0
  2  1  1  0  0  0  0
  3  4  1  0  0  0  0
  4  9  1  0  0  0  0
  4  5  1  0  0  0  0
  5 11  1  1  0  0  0
  5 24  1  0  0  0  0
  6  5  1  0  0  0  0
  6 26  1  0  0  0  0
  6 12  1  1  0  0  0
 10  4  1  0  0  0  0
 13 14  1  0  0  0  0
 14 20  1  0  0  0  0
 14 15  2  0  0  0  0
 15  2  1  0  0  0  0
 16 15  1  0  0  0  0
 17 16  2  0  0  0  0
 18 13  2  0  0  0  0
 18 17  1  0  0  0  0
 19 13  1  0  0  0  0
 21 17  1  0  0  0  0
 23 22  1  0  0  0  0
 24 25  1  0  0  0  0
 27 28  1  0  0  0  0
 28 29  1  0  0  0  0
 28 34  1  0  0  0  0
 29 35  1  0  0  0  0
 29 36  1  0  0  0  0
 30 37  1  0  0  0  0
 30 29  1  0  0  0  0
 31 26  1  6  0  0  0
 31 30  1  0  0  0  0
 31 27  1  0  0  0  0
 32 27  1  0  0  0  0
 33 28  1  0  0  0  0
 38 30  1  0  0  0  0
 39 40  2  0  0  0  0
 40 46  1  0  0  0  0
 41 40  1  1  0  0  0
 41 31  1  0  0  0  0
 41 42  1  0  0  0  0
 42 43  1  0  0  0  0
 44 42  1  0  0  0  0
 44 45  1  0  0  0  0
 46 44  1  0  0  0  0
 46 47  1  0  0  0  0
M  END
>  <minimizedAffinity>
-5.45217323

$$$$

 OpenBabel03242521313D

 47 50  0  0  1  0  0  0  0  0999 V2000
   37.3340   30.3820   39.0420 C   0  0  1  0  0  0  0  0  0  0  0  0
   38.1620   30.5300   40.3170 C   0  0  2  0  0  0  0  0  0  0  0  0
   37.3830   30.4870   41.4370 O   0  0  0  0  0  0  0  0  0  0  0  0
   36.9260   29.2080   41.5760 C   0  0  0  0  0  0  0  0  0  0  0  0
   35.9070   28.9260   40.5140 C   0  0  2  0  0  0  0  0  0  0  0  0
   36.2920   29.3500   39.1090 C   0  0  2  0  0  0  0  0  0  0  0  0
   38.0760   30.0580   38.2510 H   0  0  0  0  0  0  0  0  0  0  0  0
   38.9270   29.7080   40.2880 H   0  0  0  0  0  0  0  0  0  0  0  0
   36.4470   29.0620   42.5480 H   0  0  0  0  0  0  0  0  0  0  0  0
   37.7830   28.5090   41.4960 H   0  0  0  0  0  0  0  0  0  0  0  0
   35.7670   27.8300   40.5970 H   0  0  0  0  0  0  0  0  0  0  0  0
   35.3480   29.7420   38.6790 H   0  0  0  0  0  0  0  0  0  0  0  0
   40.9600   33.0230   39.7550 C   0  0  0  0  0  0  0  0  0  0  0  0
   40.2620   31.8120   39.7600 C   0  0  0  0  0  0  0  0  0  0  0  0
   38.9230   31.7850   40.2820 C   0  0  0  0  0  0  0  0  0  0  0  0
   38.3880   32.9300   40.7490 N   0  0  0  0  0  0  0  0  0  0  0  0
   39.1110   34.0970   40.7240 C   0  0  0  0  0  0  0  0  0  0  0  0
   40.3830   34.1440   40.2320 N   0  0  0  0  0  0  0  0  0  0  0  0
   41.9620   33.0900   39.3730 H   0  0  0  0  0  0  0  0  0  0  0  0
   40.7140   30.9070   39.3790 H   0  0  0  0  0  0  0  0  0  0  0  0
   38.7070   35.0150   41.0880 H   0  0  0  0  0  0  0  0  0  0  0  0
   36.8550   31.6030   38.5910 O   0  0  0  0  0  0  0  0  0  0  0  0
   37.2270   31.9240   37.7550 H   0  0  0  0  0  0  0  0  0  0  0  0
   34.7570   29.6170   40.9260 O   0  0  0  0  0  0  0  0  0  0  0  0
   34.3940   30.1300   40.1600 H   0  0  0  0  0  0  0  0  0  0  0  0
   36.5680   28.1990   38.3590 O   0  0  0  0  0  0  0  0  0  0  0  0
   36.0690   26.8700   36.4780 N   0  0  0  0  0  0  0  0  0  0  0  0
   35.2530   26.0020   37.3480 C   0  0  0  0  0  0  0  0  0  0  0  0
   33.9270   26.7120   37.2360 C   0  0  0  0  0  0  0  0  0  0  0  0
   34.3780   28.1560   37.3880 C   0  0  0  0  0  0  0  0  0  0  0  0
   35.9070   28.1270   37.1680 C   0  0  1  0  0  0  0  0  0  0  0  0
   37.0260   26.4970   36.5340 H   0  0  0  0  0  0  0  0  0  0  0  0
   35.6010   26.0020   38.3830 H   0  0  0  0  0  0  0  0  0  0  0  0
   35.1990   24.9820   36.9070 H   0  0  0  0  0  0  0  0  0  0  0  0
   33.3310   26.4020   38.1200 H   0  0  0  0  0  0  0  0  0  0  0  0
   33.4240   26.4990   36.2830 H   0  0  0  0  0  0  0  0  0  0  0  0
   33.8400   28.6950   36.6070 H   0  0  0  0  0  0  0  0  0  0  0  0
   34.1210   28.5050   38.3970 H   0  0  0  0  0  0  0  0  0  0  0  0
   38.3580   28.3680   35.9400 O   0  0  0  0  0  0  0  0  0  0  0  0
   37.3040   28.7690   35.3450 C   0  0  0  0  0  0  0  0  0  0  0  0
   36.1030   29.2180   36.1670 C   0  0  1  0  0  3  0  0  0  0  0  0
   35.1210   29.3460   35.0700 C   0  0  0  0  0  3  0  0  0  0  0  0
   34.6120   28.4620   34.7100 H   0  0  0  0  0  0  0  0  0  0  0  0
   36.0180   29.8310   33.9200 C   0  0  0  0  0  3  0  0  0  0  0  0
   35.4670   29.8440   32.9670 H   0  0  0  0  0  0  0  0  0  0  0  0
   37.0900   28.8560   33.9400 N   0  0  0  0  0  0  0  0  0  0  0  0
   37.6490   28.2950   33.2550 H   0  0  0  0  0  0  0  0  0  0  0  0
  1  7  1  6  0  0  0
  1  6  1  0  0  0  0
  1  2  1  0  0  0  0
  2  8  1  1  0  0  0
  2  3  1  0  0  0  0
  3  4  1  0  0  0  0
  4  9  1  0  0  0  0
  5 11  1  6  0  0  0
  5 24  1  0  0  0  0
  5  4  1  0  0  0  0
  6 12  1  6  0  0  0
  6  5  1  0  0  0  0
 10  4  1  0  0  0  0
 13 14  2  0  0  0  0
 13 18  1  0  0  0  0
 14 15  1  0  0  0  0
 15  2  1  0  0  0  0
 15 16  2  0  0  0  0
 17 16  1  0  0  0  0
 17 21  1  0  0  0  0
 18 17  2  0  0  0  0
 19 13  1  0  0  0  0
 20 14  1  0  0  0  0
 22  1  1  0  0  0  0
 23 22  1  0  0  0  0
 25 24  1  0  0  0  0
 26  6  1  0  0  0  0
 27 32  1  0  0  0  0
 27 31  1  0  0  0  0
 27 28  1  0  0  0  0
 28 33  1  0  0  0  0
 29 28  1  0  0  0  0
 29 30  1  0  0  0  0
 29 35  1  0  0  0  0
 30 38  1  0  0  0  0
 31 30  1  0  0  0  0
 31 26  1  1  0  0  0
 34 28  1  0  0  0  0
 36 29  1  0  0  0  0
 37 30  1  0  0  0  0
 40 39  2  0  0  0  0
 40 41  1  0  0  0  0
 41 42  1  6  0  0  0
 41 31  1  0  0  0  0
 43 42  1  0  0  0  0
 44 46  1  0  0  0  0
 44 42  1  0  0  0  0
 45 44  1  0  0  0  0
 46 40  1  0  0  0  0
 47 46  1  0  0  0  0
M  END
>  <minimizedAffinity>
-5.43674898

$$$$
