
 OpenBabel03252508383D

 41 44  0  0  1  0  0  0  0  0999 V2000
   44.9450   33.5940   40.5280 C   0  0  0  0  0  0  0  0  0  0  0  0
   43.9840   32.9000   39.8510 C   0  0  0  0  0  0  0  0  0  0  0  0
   44.3830   31.7720   39.1940 C   0  0  0  0  0  0  0  0  0  0  0  0
   45.6780   31.3060   39.1770 C   0  0  0  0  0  0  0  0  0  0  0  0
   46.6150   32.0340   39.8710 C   0  0  0  0  0  0  0  0  0  0  0  0
   46.2760   33.1780   40.5520 C   0  0  0  0  0  0  0  0  0  0  0  0
   43.6380   31.2050   38.6490 H   0  0  0  0  0  0  0  0  0  0  0  0
   45.9240   30.4010   38.6330 H   0  0  0  0  0  0  0  0  0  0  0  0
   47.6320   31.6650   39.8570 H   0  0  0  0  0  0  0  0  0  0  0  0
   40.7140   34.5090   38.8880 C   0  0  0  0  0  0  0  0  0  0  0  0
   42.0370   34.0220   38.7810 C   0  0  0  0  0  0  0  0  0  0  0  0
   42.6360   33.4200   39.8910 C   0  0  0  0  0  0  0  0  0  0  0  0
   41.8630   33.3580   41.0110 N   0  0  0  0  0  0  0  0  0  0  0  0
   40.6180   33.8240   41.0890 C   0  0  0  0  0  0  0  0  0  0  0  0
   40.0490   34.3990   40.0250 N   0  0  0  0  0  0  0  0  0  0  0  0
   40.1650   35.1100   37.7200 N   0  0  0  0  0  0  0  0  0  0  0  0
   42.6450   34.0720   37.8940 H   0  0  0  0  0  0  0  0  0  0  0  0
   40.0220   33.7640   41.9880 H   0  0  0  0  0  0  0  0  0  0  0  0
   40.0230   34.4660   36.9100 H   0  0  0  0  0  0  0  0  0  0  0  0
   39.9050   36.1330   37.6380 H   0  0  0  0  0  0  0  0  0  0  0  0
   47.3370   33.8740   41.2530 C   0  0  0  0  0  0  0  0  0  0  0  0
   47.9710   34.8700   40.5280 C   0  0  0  0  0  0  0  0  0  0  0  0
   49.0130   35.6480   41.0320 C   0  0  0  0  0  0  0  0  0  0  0  0
   49.4190   35.3950   42.3300 C   0  0  0  0  0  0  0  0  0  0  0  0
   48.7970   34.4050   43.0650 C   0  0  0  0  0  0  0  0  0  0  0  0
   47.7600   33.6450   42.5350 C   0  0  0  0  0  0  0  0  0  0  0  0
   47.6940   35.1110   39.5090 H   0  0  0  0  0  0  0  0  0  0  0  0
   49.4840   36.4180   40.4370 H   0  0  0  0  0  0  0  0  0  0  0  0
   50.2210   35.9620   42.7820 H   0  0  0  0  0  0  0  0  0  0  0  0
   49.1450   34.2430   44.0680 H   0  0  0  0  0  0  0  0  0  0  0  0
   45.7440   34.2830   44.4790 O   0  0  0  0  0  0  0  0  0  0  0  0
   45.8920   33.0900   44.0420 C   0  0  0  0  0  0  0  0  0  0  0  0
   47.0910   32.5920   43.2960 C   0  0  1  0  0  3  0  0  0  0  0  0
   46.5040   31.4990   42.4510 C   0  0  0  0  0  3  0  0  0  0  0  0
   46.4960   31.8470   41.4000 H   0  0  0  0  0  0  0  0  0  0  0  0
   45.1350   31.1960   42.9890 C   0  0  0  0  0  3  0  0  0  0  0  0
   44.4050   31.5120   42.2020 H   0  0  0  0  0  0  0  0  0  0  0  0
   44.9660   32.0170   44.1730 N   0  0  0  0  0  0  0  0  0  0  0  0
   44.3150   31.8770   44.9670 H   0  0  0  0  0  0  0  0  0  0  0  0
   44.3470   35.7760   41.8620 N   0  0  0  0  0  0  0  0  0  0  0  0
   44.6120   34.8020   41.2540 C   0  0  0  0  0  0  0  0  0  0  0  0
  1  6  1  0  0  0  0
  1 41  1  0  0  0  0
  2 12  1  0  0  0  0
  2  1  2  0  0  0  0
  3  2  1  0  0  0  0
  4  3  2  0  0  0  0
  4  5  1  0  0  0  0
  5  6  2  0  0  0  0
  6 21  1  0  0  0  0
  7  3  1  0  0  0  0
  8  4  1  0  0  0  0
  9  5  1  0  0  0  0
 10 15  1  0  0  0  0
 11 10  2  0  0  0  0
 11 12  1  0  0  0  0
 12 13  2  0  0  0  0
 13 14  1  0  0  0  0
 14 18  1  0  0  0  0
 15 14  2  0  0  0  0
 16 10  1  0  0  0  0
 17 11  1  0  0  0  0
 19 16  1  0  0  0  0
 20 16  1  0  0  0  0
 21 26  1  0  0  0  0
 22 23  1  0  0  0  0
 22 21  2  0  0  0  0
 23 24  2  0  0  0  0
 24 29  1  0  0  0  0
 24 25  1  0  0  0  0
 25 30  1  0  0  0  0
 26 25  2  0  0  0  0
 27 22  1  0  0  0  0
 28 23  1  0  0  0  0
 32 38  1  0  0  0  0
 32 31  2  0  0  0  0
 33 26  1  6  0  0  0
 33 32  1  0  0  0  0
 34 36  1  0  0  0  0
 34 33  1  0  0  0  0
 35 34  1  0  0  0  0
 36 38  1  0  0  0  0
 37 36  1  0  0  0  0
 38 39  1  0  0  0  0
 41 40  3  0  0  0  0
M  END
>  <minimizedAffinity>
-5.9145298

>  <minimizedRMSD>
1.92801797

$$$$
