
     RDKit          3D

 23 24  0  0  0  0  0  0  0  0999 V2000
   44.6623   36.0337   44.3239 C   0  0  0  0  0  0  0  0  0  0  0  0
   45.4629   35.5619   43.2839 C   0  0  0  0  0  0  0  0  0  0  0  0
   46.1729   34.3795   43.5252 C   0  0  0  0  0  0  0  0  0  0  0  0
   46.0531   33.7563   44.7373 N   0  0  0  0  0  0  0  0  0  0  0  0
   45.2620   34.2635   45.7026 C   0  0  0  0  0  0  0  0  0  0  0  0
   44.5575   35.4165   45.4941 N   0  0  0  0  0  0  0  0  0  0  0  0
   45.1223   33.6294   46.9751 N   0  0  0  0  0  0  0  0  0  0  0  0
   44.1033   36.9478   44.1598 H   0  0  0  0  0  0  0  0  0  0  0  0
   45.5686   36.0425   42.3198 H   0  0  0  0  0  0  0  0  0  0  0  0
   44.7501   32.6601   46.8309 H   0  0  0  0  0  0  0  0  0  0  0  0
   45.3467   34.0400   47.9140 H   0  0  0  0  0  0  0  0  0  0  0  0
   46.4067   31.3262   43.1609 O   0  0  0  0  0  0  0  0  0  0  0  0
   47.1224   32.2843   42.7312 C   0  0  0  0  0  0  0  0  0  0  0  0
   47.0636   33.7546   42.5203 C   0  0  2  0  0  0  0  0  0  0  0  0
   48.4969   34.1937   42.6685 C   0  0  2  0  0  0  0  0  0  0  0  0
   48.6970   34.5863   43.6990 H   0  0  0  0  0  0  0  0  0  0  0  0
   49.3524   33.0037   42.3586 C   0  0  2  0  0  0  0  0  0  0  0  0
   50.0793   32.7681   43.1720 H   0  0  0  0  0  0  0  0  0  0  0  0
   48.4326   31.8775   42.2882 N   0  0  0  0  0  0  0  0  0  0  0  0
   46.7654   33.9314   41.4768 H   0  0  0  0  0  0  0  0  0  0  0  0
   48.6536   35.0556   41.9819 H   0  0  0  0  0  0  0  0  0  0  0  0
   49.8897   33.1170   41.3891 H   0  0  0  0  0  0  0  0  0  0  0  0
   48.8530   30.9727   41.9369 H   0  0  0  0  0  0  0  0  0  0  0  0
  1  6  2  0
  2  3  2  0
  2  1  1  0
  3  4  1  0
  4  5  2  0
  5  7  1  0
  6  5  1  0
  1  8  1  0
  2  9  1  0
  7 10  1  0
  7 11  1  0
 12 13  2  0
 13 14  1  0
 14 15  1  0
 15 16  1  1
 15 17  1  0
 17 18  1  1
 17 19  1  0
 19 13  1  0
 14 20  1  6
 15 21  1  0
 17 22  1  0
 19 23  1  0
  3 14  1  0
M  ISO  4   8  14   9  14  16   8  18   8
M  END
>  <DihAtoms>  (1) 
1,2,13,12

>  <DihDeg>  (1) 
58.48768933036323

$$$$
