
     RDKit          3D

 23 24  0  0  0  0  0  0  0  0999 V2000
   44.6623   36.0337   44.3239 C   0  0  0  0  0  0  0  0  0  0  0  0
   45.4629   35.5619   43.2839 C   0  0  0  0  0  0  0  0  0  0  0  0
   46.1729   34.3795   43.5252 C   0  0  0  0  0  0  0  0  0  0  0  0
   46.0531   33.7563   44.7373 N   0  0  0  0  0  0  0  0  0  0  0  0
   45.2620   34.2635   45.7026 C   0  0  0  0  0  0  0  0  0  0  0  0
   44.5575   35.4165   45.4941 N   0  0  0  0  0  0  0  0  0  0  0  0
   45.1223   33.6294   46.9751 N   0  0  0  0  0  0  0  0  0  0  0  0
   44.1033   36.9478   44.1598 H   0  0  0  0  0  0  0  0  0  0  0  0
   45.5686   36.0425   42.3198 H   0  0  0  0  0  0  0  0  0  0  0  0
   44.7501   32.6601   46.8309 H   0  0  0  0  0  0  0  0  0  0  0  0
   45.3467   34.0400   47.9140 H   0  0  0  0  0  0  0  0  0  0  0  0
   48.8331   33.0068   44.2664 O   0  0  0  0  0  0  0  0  0  0  0  0
   48.3568   33.3748   43.1473 C   0  0  0  0  0  0  0  0  0  0  0  0
   47.0636   33.7546   42.5203 C   0  0  2  0  0  0  0  0  0  0  0  0
   47.4640   34.7135   41.4298 C   0  0  2  0  0  0  0  0  0  0  0  0
   47.3466   35.7777   41.7612 H   0  0  0  0  0  0  0  0  0  0  0  0
   48.8858   34.4025   41.0752 C   0  0  2  0  0  0  0  0  0  0  0  0
   49.5530   35.2952   41.1341 H   0  0  0  0  0  0  0  0  0  0  0  0
   49.3437   33.4768   42.1012 N   0  0  0  0  0  0  0  0  0  0  0  0
   46.6477   32.8568   42.0407 H   0  0  0  0  0  0  0  0  0  0  0  0
   46.7474   34.5790   40.5887 H   0  0  0  0  0  0  0  0  0  0  0  0
   48.9714   33.9290   40.0702 H   0  0  0  0  0  0  0  0  0  0  0  0
   50.2914   33.0411   41.9256 H   0  0  0  0  0  0  0  0  0  0  0  0
  1  6  2  0
  2  3  2  0
  2  1  1  0
  3  4  1  0
  4  5  2  0
  5  7  1  0
  6  5  1  0
  1  8  1  0
  2  9  1  0
  7 10  1  0
  7 11  1  0
 12 13  2  0
 13 14  1  0
 14 15  1  0
 15 16  1  1
 15 17  1  0
 17 18  1  6
 17 19  1  0
 19 13  1  0
 14 20  1  6
 15 21  1  0
 17 22  1  0
 19 23  1  0
  3 14  1  0
M  ISO  4   8  14   9  14  16   8  18   8
M  END
>  <DihAtoms>  (1) 
1,2,13,12

>  <DihDeg>  (1) 
58.48768933036323

$$$$
