REMARK  Name = 
REMARK  4 active torsions:
REMARK  status: ('A' for Active; 'I' for Inactive)
REMARK    1  A    between atoms: C_1  and  C_21
REMARK    2  A    between atoms: C_2  and  C_9
REMARK    3  A    between atoms: C_6  and  C_14
REMARK    4  A    between atoms: C_19  and  C_35
REMARK                            x       y       z     vdW  Elec       q    Type
REMARK                         _______ _______ _______ _____ _____    ______ ____
ROOT
ATOM      1  C   UNL     1      45.127  33.943  40.692  0.00  0.00    +0.000 A 
ATOM      2  C   UNL     1      44.077  33.642  39.872  0.00  0.00    +0.000 A 
ATOM      3  C   UNL     1      44.380  33.156  38.633  0.00  0.00    +0.000 A 
ATOM      4  C   UNL     1      45.662  32.957  38.174  0.00  0.00    +0.000 A 
ATOM      5  C   UNL     1      46.690  33.272  39.030  0.00  0.00    +0.000 A 
ATOM      6  C   UNL     1      46.451  33.765  40.290  0.00  0.00    +0.000 A 
ATOM      7  H   UNL     1      43.563  32.911  37.965  0.00  0.00    +0.000 HD
ATOM      8  H   UNL     1      45.829  32.567  37.177  0.00  0.00    +0.000 HD
ATOM      9  H   UNL     1      47.697  33.114  38.667  0.00  0.00    +0.000 HD
ENDROOT
BRANCH   2  12
ATOM     10  C   UNL     1      40.795  35.248  40.797  0.00  0.00    +0.000 A 
ATOM     11  C   UNL     1      42.098  35.098  40.270  0.00  0.00    +0.000 A 
ATOM     12  C   UNL     1      42.746  33.865  40.389  0.00  0.00    +0.000 A 
ATOM     13  N   UNL     1      42.037  32.890  41.023  0.00  0.00    +0.000 NA
ATOM     14  C   UNL     1      40.809  33.055  41.512  0.00  0.00    +0.000 A 
ATOM     15  N   UNL     1      40.193  34.235  41.397  0.00  0.00    +0.000 NA
ATOM     16  N   UNL     1      40.194  36.529  40.642  0.00  0.00    +0.000 N 
ATOM     17  H   UNL     1      42.656  35.870  39.769  0.00  0.00    +0.000 HD
ATOM     18  H   UNL     1      40.264  32.267  42.012  0.00  0.00    +0.000 HD
ATOM     19  H   UNL     1      39.992  36.812  39.657  0.00  0.00    +0.000 HD
ATOM     20  H   UNL     1      39.953  37.179  41.442  0.00  0.00    +0.000 HD
ENDBRANCH   2  12
BRANCH   6  21
ATOM     21  C   UNL     1      47.603  34.067  41.117  0.00  0.00    +0.000 A 
ATOM     22  C   UNL     1      48.132  35.337  40.954  0.00  0.00    +0.000 A 
ATOM     23  C   UNL     1      49.237  35.810  41.660  0.00  0.00    +0.000 A 
ATOM     24  C   UNL     1      49.822  34.946  42.569  0.00  0.00    +0.000 A 
ATOM     25  C   UNL     1      49.306  33.677  42.742  0.00  0.00    +0.000 A 
ATOM     26  C   UNL     1      48.202  33.233  42.023  0.00  0.00    +0.000 A 
ATOM     27  H   UNL     1      47.714  36.054  40.257  0.00  0.00    +0.000 HD
ATOM     28  H   UNL     1      49.623  36.808  41.507  0.00  0.00    +0.000 HD
ATOM     29  H   UNL     1      50.682  35.249  43.150  0.00  0.00    +0.000 HD
ATOM     30  H   UNL     1      49.792  33.040  43.458  0.00  0.00    +0.000 HD
BRANCH  26  33
ATOM     31  O   UNL     1      48.314  31.310  39.892  0.00  0.00    +0.000 OA
ATOM     32  C   UNL     1      48.042  30.958  41.090  0.00  0.00    +0.000 C 
ATOM     33  C   UNL     1      47.643  31.894  42.190  0.00  0.00    +0.000 C 
ATOM     34  C   UNL     1      48.130  31.170  43.411  0.00  0.00    +0.000 C 
ATOM     35  H   UNL     1      49.004  31.721  43.808  0.00  0.00    +0.000 HD
ATOM     36  C   UNL     1      48.447  29.759  43.006  0.00  0.00    +0.000 C 
ATOM     37  H   UNL     1      49.555  29.640  43.106  0.00  0.00    +0.000 HD
ATOM     38  N   UNL     1      48.062  29.634  41.613  0.00  0.00    +0.000 N 
ATOM     39  H   UNL     1      47.842  28.773  41.080  0.00  0.00    +0.000 HD
ENDBRANCH  26  33
ENDBRANCH   6  21
BRANCH   1  41
ATOM     40  N   UNL     1      44.724  34.870  43.116  0.00  0.00    +0.000 NA
ATOM     41  C   UNL     1      44.900  34.463  42.024  0.00  0.00    +0.000 C 
ENDBRANCH   1  41
TORSDOF 4
