
 OpenBabel03242519233D

 40 43  0  0  1  0  0  0  0  0999 V2000
   47.8910   33.7380   42.8730 C   0  0  0  0  0  0  0  0  0  0  0  0
   48.5870   34.9460   42.7060 C   0  0  0  0  0  0  0  0  0  0  0  0
   49.9580   34.9260   42.3810 C   0  0  0  0  0  0  0  0  0  0  0  0
   50.5280   33.6840   42.2500 N   0  0  0  0  0  0  0  0  0  0  0  0
   49.8140   32.5290   42.4220 C   0  0  0  0  0  0  0  0  0  0  0  0
   48.5260   32.5760   42.7250 N   0  0  0  0  0  0  0  0  0  0  0  0
   48.2170   35.9580   42.7900 H   0  0  0  0  0  0  0  0  0  0  0  0
   50.5470   35.8140   42.2390 H   0  0  0  0  0  0  0  0  0  0  0  0
   46.4610   33.8830   43.2170 C   0  0  0  0  0  0  0  0  0  0  0  0
   45.7610   34.8910   42.4200 C   0  0  0  0  0  0  0  0  0  0  0  0
   45.3280   36.0870   43.1850 C   0  0  0  0  0  0  0  0  0  0  0  0
   44.5380   35.7520   44.4370 C   0  0  0  0  0  0  0  0  0  0  0  0
   44.9860   34.4880   45.1300 C   0  0  0  0  0  0  0  0  0  0  0  0
   46.4140   34.1510   44.7310 C   0  0  0  0  0  0  0  0  0  0  0  0
   45.9740   32.8670   43.1310 H   0  0  0  0  0  0  0  0  0  0  0  0
   46.4680   35.2640   41.6320 H   0  0  0  0  0  0  0  0  0  0  0  0
   44.8920   34.4530   41.8830 H   0  0  0  0  0  0  0  0  0  0  0  0
   46.0800   36.8370   43.4140 H   0  0  0  0  0  0  0  0  0  0  0  0
   44.5780   36.6210   42.5290 H   0  0  0  0  0  0  0  0  0  0  0  0
   43.4360   35.7120   44.2450 H   0  0  0  0  0  0  0  0  0  0  0  0
   44.6860   36.5740   45.1670 H   0  0  0  0  0  0  0  0  0  0  0  0
   44.8970   34.5160   46.2140 H   0  0  0  0  0  0  0  0  0  0  0  0
   44.3440   33.6720   44.7080 H   0  0  0  0  0  0  0  0  0  0  0  0
   47.0180   35.0380   44.9940 H   0  0  0  0  0  0  0  0  0  0  0  0
   46.7160   33.2230   45.2550 H   0  0  0  0  0  0  0  0  0  0  0  0
   50.5780   31.3040   42.2530 C   0  0  0  0  0  0  0  0  0  0  0  0
   50.3000   30.5330   41.1790 N   0  0  0  0  0  0  0  0  0  0  0  0
   51.0910   29.4510   41.1730 C   0  0  0  0  0  0  0  0  0  0  0  0
   51.8800   29.5540   42.2700 N   0  0  0  0  0  0  0  0  0  0  0  0
   51.5690   30.6840   42.9340 N   0  0  0  0  0  0  0  0  0  0  0  0
   51.1400   28.6340   40.4690 H   0  0  0  0  0  0  0  0  0  0  0  0
   54.5610   29.7100   41.5990 O   0  0  0  0  0  0  0  0  0  0  0  0
   54.2530   29.2800   42.7440 C   0  0  0  0  0  0  0  0  0  0  0  0
   52.9040   28.6520   42.7250 C   0  0  1  0  0  0  0  0  0  0  0  0
   52.6910   28.3970   44.2050 C   0  0  0  0  0  0  0  0  0  0  0  0
   52.0660   27.4750   44.2960 H   0  0  0  0  0  0  0  0  0  0  0  0
   54.0990   28.1560   44.7160 C   0  0  0  0  0  0  0  0  0  0  0  0
   54.4720   27.2010   44.3030 H   0  0  0  0  0  0  0  0  0  0  0  0
   54.8290   29.2220   44.0590 N   0  0  0  0  0  0  0  0  0  0  0  0
   55.5920   29.9360   44.1880 H   0  0  0  0  0  0  0  0  0  0  0  0
  1  9  1  0  0  0  0
  2  7  1  0  0  0  0
  2  1  2  0  0  0  0
  3  2  1  0  0  0  0
  4  3  2  0  0  0  0
  4  5  1  0  0  0  0
  5  6  2  0  0  0  0
  6  1  1  0  0  0  0
  8  3  1  0  0  0  0
  9 14  1  0  0  0  0
 10 11  1  0  0  0  0
 10  9  1  0  0  0  0
 11 18  1  0  0  0  0
 11 12  1  0  0  0  0
 12 13  1  0  0  0  0
 12 21  1  0  0  0  0
 13 22  1  0  0  0  0
 14 24  1  0  0  0  0
 14 13  1  0  0  0  0
 14 25  1  0  0  0  0
 15  9  1  0  0  0  0
 16 10  1  0  0  0  0
 17 10  1  0  0  0  0
 19 11  1  0  0  0  0
 20 12  1  0  0  0  0
 23 13  1  0  0  0  0
 26  5  1  0  0  0  0
 26 30  2  0  0  0  0
 27 26  1  0  0  0  0
 28 27  2  0  0  0  0
 28 29  1  0  0  0  0
 29 30  1  0  0  0  0
 31 28  1  0  0  0  0
 32 33  2  0  0  0  0
 33 39  1  0  0  0  0
 34 29  1  1  0  0  0
 34 33  1  0  0  0  0
 34 35  1  0  0  0  0
 35 36  1  0  0  0  0
 35 37  1  0  0  0  0
 38 37  1  0  0  0  0
 39 40  1  0  0  0  0
 39 37  1  0  0  0  0
M  END
>  <minimizedAffinity>
-4.44426346

>  <minimizedRMSD>
2.37079883

$$$$
