
 OpenBabel03242519263D

 40 43  0  0  1  0  0  0  0  0999 V2000
   37.1560   28.3270   41.6340 C   0  0  0  0  0  0  0  0  0  0  0  0
   35.8250   28.5370   41.2400 C   0  0  0  0  0  0  0  0  0  0  0  0
   35.5010   29.6410   40.4250 C   0  0  0  0  0  0  0  0  0  0  0  0
   36.5480   30.4550   40.0700 N   0  0  0  0  0  0  0  0  0  0  0  0
   37.8320   30.2150   40.4760 C   0  0  0  0  0  0  0  0  0  0  0  0
   38.1100   29.1700   41.2400 N   0  0  0  0  0  0  0  0  0  0  0  0
   34.9490   27.9490   41.4740 H   0  0  0  0  0  0  0  0  0  0  0  0
   34.5030   29.8570   40.0890 H   0  0  0  0  0  0  0  0  0  0  0  0
   37.3750   27.1420   42.4900 C   0  0  0  0  0  0  0  0  0  0  0  0
   38.3960   27.3370   43.5200 C   0  0  0  0  0  0  0  0  0  0  0  0
   39.6280   26.5330   43.3240 C   0  0  0  0  0  0  0  0  0  0  0  0
   39.3590   25.0550   43.1110 C   0  0  0  0  0  0  0  0  0  0  0  0
   38.0920   24.7620   42.3440 C   0  0  0  0  0  0  0  0  0  0  0  0
   37.6800   25.9770   41.5310 C   0  0  0  0  0  0  0  0  0  0  0  0
   36.3820   26.8400   42.9350 H   0  0  0  0  0  0  0  0  0  0  0  0
   38.7180   28.4130   43.4910 H   0  0  0  0  0  0  0  0  0  0  0  0
   37.9870   27.1570   44.5370 H   0  0  0  0  0  0  0  0  0  0  0  0
   40.3470   26.8860   42.5890 H   0  0  0  0  0  0  0  0  0  0  0  0
   40.1810   26.5660   44.3090 H   0  0  0  0  0  0  0  0  0  0  0  0
   39.3660   24.4800   44.0710 H   0  0  0  0  0  0  0  0  0  0  0  0
   40.1910   24.6380   42.5050 H   0  0  0  0  0  0  0  0  0  0  0  0
   38.1500   23.8840   41.7040 H   0  0  0  0  0  0  0  0  0  0  0  0
   37.2980   24.6240   43.1230 H   0  0  0  0  0  0  0  0  0  0  0  0
   38.5430   26.2140   40.8840 H   0  0  0  0  0  0  0  0  0  0  0  0
   36.7520   25.7330   40.9790 H   0  0  0  0  0  0  0  0  0  0  0  0
   38.8130   31.1820   40.0130 C   0  0  0  0  0  0  0  0  0  0  0  0
   38.4450   32.4820   39.9760 N   0  0  0  0  0  0  0  0  0  0  0  0
   39.4600   33.2360   39.5320 C   0  0  0  0  0  0  0  0  0  0  0  0
   40.4850   32.3820   39.2880 N   0  0  0  0  0  0  0  0  0  0  0  0
   40.0930   31.1270   39.5800 N   0  0  0  0  0  0  0  0  0  0  0  0
   39.5150   34.3030   39.3800 H   0  0  0  0  0  0  0  0  0  0  0  0
   41.5080   31.5620   36.8510 O   0  0  0  0  0  0  0  0  0  0  0  0
   41.8760   32.6770   37.3110 C   0  0  0  0  0  0  0  0  0  0  0  0
   41.8030   32.6820   38.7980 C   0  0  1  0  0  3  0  0  0  0  0  0
   42.0990   34.1410   39.0900 C   0  0  0  0  0  3  0  0  0  0  0  0
   42.6330   34.1810   40.0710 H   0  0  0  0  0  0  0  0  0  0  0  0
   43.0200   34.5360   37.9510 C   0  0  0  0  0  3  0  0  0  0  0  0
   43.9850   34.0110   38.0700 H   0  0  0  0  0  0  0  0  0  0  0  0
   42.3440   33.9410   36.8150 N   0  0  0  0  0  0  0  0  0  0  0  0
   42.0830   34.0900   35.8070 H   0  0  0  0  0  0  0  0  0  0  0  0
  1  9  1  0  0  0  0
  2  7  1  0  0  0  0
  2  1  2  0  0  0  0
  3  2  1  0  0  0  0
  4  3  2  0  0  0  0
  4  5  1  0  0  0  0
  5  6  2  0  0  0  0
  6  1  1  0  0  0  0
  8  3  1  0  0  0  0
  9 15  1  0  0  0  0
  9 10  1  0  0  0  0
 10 17  1  0  0  0  0
 11 10  1  0  0  0  0
 11 19  1  0  0  0  0
 12 11  1  0  0  0  0
 12 20  1  0  0  0  0
 13 12  1  0  0  0  0
 13 23  1  0  0  0  0
 14 13  1  0  0  0  0
 14  9  1  0  0  0  0
 16 10  1  0  0  0  0
 18 11  1  0  0  0  0
 21 12  1  0  0  0  0
 22 13  1  0  0  0  0
 24 14  1  0  0  0  0
 25 14  1  0  0  0  0
 26  5  1  0  0  0  0
 27 26  1  0  0  0  0
 28 27  2  0  0  0  0
 29 28  1  0  0  0  0
 29 30  1  0  0  0  0
 30 26  2  0  0  0  0
 31 28  1  0  0  0  0
 32 33  2  0  0  0  0
 33 34  1  0  0  0  0
 34 35  1  0  0  0  0
 34 29  1  6  0  0  0
 35 36  1  0  0  0  0
 37 38  1  0  0  0  0
 37 35  1  0  0  0  0
 39 33  1  0  0  0  0
 39 37  1  0  0  0  0
 40 39  1  0  0  0  0
M  END
>  <minimizedAffinity>
-6.30366421

$$$$

 OpenBabel03242519263D

 40 43  0  0  1  0  0  0  0  0999 V2000
   37.2100   26.7360   42.0880 C   0  0  0  0  0  0  0  0  0  0  0  0
   37.0890   27.0720   43.4460 C   0  0  0  0  0  0  0  0  0  0  0  0
   37.3340   28.3940   43.8670 C   0  0  0  0  0  0  0  0  0  0  0  0
   37.6880   29.2840   42.8820 N   0  0  0  0  0  0  0  0  0  0  0  0
   37.7950   28.9160   41.5680 C   0  0  0  0  0  0  0  0  0  0  0  0
   37.5580   27.6670   41.1990 N   0  0  0  0  0  0  0  0  0  0  0  0
   36.8180   26.4380   44.2790 H   0  0  0  0  0  0  0  0  0  0  0  0
   37.2580   28.7160   44.8900 H   0  0  0  0  0  0  0  0  0  0  0  0
   36.9330   25.3210   41.7670 C   0  0  0  0  0  0  0  0  0  0  0  0
   37.9340   24.3890   42.2890 C   0  0  0  0  0  0  0  0  0  0  0  0
   38.7530   23.7210   41.2470 C   0  0  0  0  0  0  0  0  0  0  0  0
   37.9270   23.0620   40.1570 C   0  0  0  0  0  0  0  0  0  0  0  0
   36.6580   23.8030   39.8120 C   0  0  0  0  0  0  0  0  0  0  0  0
   36.7690   25.2580   40.2380 C   0  0  0  0  0  0  0  0  0  0  0  0
   35.8950   25.0720   42.1360 H   0  0  0  0  0  0  0  0  0  0  0  0
   38.6530   24.9720   42.9250 H   0  0  0  0  0  0  0  0  0  0  0  0
   37.4720   23.6270   42.9520 H   0  0  0  0  0  0  0  0  0  0  0  0
   39.5630   24.2910   40.8010 H   0  0  0  0  0  0  0  0  0  0  0  0
   39.2600   22.8510   41.7610 H   0  0  0  0  0  0  0  0  0  0  0  0
   37.6940   21.9930   40.3890 H   0  0  0  0  0  0  0  0  0  0  0  0
   38.5360   23.0430   39.2300 H   0  0  0  0  0  0  0  0  0  0  0  0
   36.3750   23.7410   38.7630 H   0  0  0  0  0  0  0  0  0  0  0  0
   35.8630   23.3490   40.4570 H   0  0  0  0  0  0  0  0  0  0  0  0
   37.6650   25.6540   39.7280 H   0  0  0  0  0  0  0  0  0  0  0  0
   35.8270   25.7750   39.9700 H   0  0  0  0  0  0  0  0  0  0  0  0
   38.1870   29.9830   40.6620 C   0  0  0  0  0  0  0  0  0  0  0  0
   37.6240   30.0030   39.4340 N   0  0  0  0  0  0  0  0  0  0  0  0
   38.0880   31.0460   38.7310 C   0  0  0  0  0  0  0  0  0  0  0  0
   38.9610   31.6890   39.5450 N   0  0  0  0  0  0  0  0  0  0  0  0
   39.0250   31.0430   40.7250 N   0  0  0  0  0  0  0  0  0  0  0  0
   37.8550   31.3620   37.7260 H   0  0  0  0  0  0  0  0  0  0  0  0
   38.1730   34.2800   40.1210 O   0  0  0  0  0  0  0  0  0  0  0  0
   39.4000   33.9960   40.1890 C   0  0  0  0  0  0  0  0  0  0  0  0
   39.7330   32.8720   39.2730 C   0  0  1  0  0  3  0  0  0  0  0  0
   41.1730   32.6020   39.6690 C   0  0  0  0  0  3  0  0  0  0  0  0
   41.7060   32.2420   38.7550 H   0  0  0  0  0  0  0  0  0  0  0  0
   41.6730   33.9720   40.0880 C   0  0  0  0  0  3  0  0  0  0  0  0
   41.7300   34.6220   39.1970 H   0  0  0  0  0  0  0  0  0  0  0  0
   40.5670   34.4460   40.8970 N   0  0  0  0  0  0  0  0  0  0  0  0
   40.3190   34.9740   41.7720 H   0  0  0  0  0  0  0  0  0  0  0  0
  1  2  1  0  0  0  0
  2  3  2  0  0  0  0
  2  7  1  0  0  0  0
  3  8  1  0  0  0  0
  4  3  1  0  0  0  0
  5  4  2  0  0  0  0
  6  5  1  0  0  0  0
  6  1  2  0  0  0  0
  9  1  1  0  0  0  0
  9 15  1  0  0  0  0
  9 10  1  0  0  0  0
 10 16  1  0  0  0  0
 10 17  1  0  0  0  0
 11 19  1  0  0  0  0
 11 10  1  0  0  0  0
 12 20  1  0  0  0  0
 12 11  1  0  0  0  0
 13 12  1  0  0  0  0
 13 14  1  0  0  0  0
 13 23  1  0  0  0  0
 14  9  1  0  0  0  0
 18 11  1  0  0  0  0
 21 12  1  0  0  0  0
 22 13  1  0  0  0  0
 24 14  1  0  0  0  0
 25 14  1  0  0  0  0
 26 30  2  0  0  0  0
 26  5  1  0  0  0  0
 27 26  1  0  0  0  0
 28 27  2  0  0  0  0
 28 29  1  0  0  0  0
 29 30  1  0  0  0  0
 31 28  1  0  0  0  0
 32 33  2  0  0  0  0
 33 39  1  0  0  0  0
 34 29  1  1  0  0  0
 34 35  1  0  0  0  0
 34 33  1  0  0  0  0
 35 37  1  0  0  0  0
 36 35  1  0  0  0  0
 37 39  1  0  0  0  0
 38 37  1  0  0  0  0
 39 40  1  0  0  0  0
M  END
>  <minimizedAffinity>
-6.0036664

$$$$

 OpenBabel03242519263D

 40 43  0  0  1  0  0  0  0  0999 V2000
   37.0440   28.5800   41.6030 C   0  0  0  0  0  0  0  0  0  0  0  0
   35.7520   28.5640   41.0550 C   0  0  0  0  0  0  0  0  0  0  0  0
   35.3350   29.6130   40.2110 C   0  0  0  0  0  0  0  0  0  0  0  0
   36.2560   30.6060   39.9840 N   0  0  0  0  0  0  0  0  0  0  0  0
   37.5070   30.5840   40.5390 C   0  0  0  0  0  0  0  0  0  0  0  0
   37.8740   29.5860   41.3270 N   0  0  0  0  0  0  0  0  0  0  0  0
   34.9710   27.8270   41.1810 H   0  0  0  0  0  0  0  0  0  0  0  0
   34.3610   29.6600   39.7590 H   0  0  0  0  0  0  0  0  0  0  0  0
   37.3670   27.4320   42.4750 C   0  0  0  0  0  0  0  0  0  0  0  0
   38.2350   27.7720   43.6040 C   0  0  0  0  0  0  0  0  0  0  0  0
   39.5950   27.1830   43.5320 C   0  0  0  0  0  0  0  0  0  0  0  0
   39.5940   25.6840   43.2920 C   0  0  0  0  0  0  0  0  0  0  0  0
   38.4740   25.2030   42.4010 C   0  0  0  0  0  0  0  0  0  0  0  0
   37.9520   26.3490   41.5510 C   0  0  0  0  0  0  0  0  0  0  0  0
   36.3970   26.9650   42.8180 H   0  0  0  0  0  0  0  0  0  0  0  0
   38.3780   28.8860   43.6090 H   0  0  0  0  0  0  0  0  0  0  0  0
   37.7610   27.5100   44.5740 H   0  0  0  0  0  0  0  0  0  0  0  0
   40.3170   27.6600   42.8750 H   0  0  0  0  0  0  0  0  0  0  0  0
   40.0350   27.2880   44.5680 H   0  0  0  0  0  0  0  0  0  0  0  0
   39.5990   25.1010   44.2470 H   0  0  0  0  0  0  0  0  0  0  0  0
   40.5380   25.4190   42.7730 H   0  0  0  0  0  0  0  0  0  0  0  0
   38.7380   24.3580   41.7680 H   0  0  0  0  0  0  0  0  0  0  0  0
   37.6400   24.9240   43.0950 H   0  0  0  0  0  0  0  0  0  0  0  0
   38.8250   26.7350   40.9950 H   0  0  0  0  0  0  0  0  0  0  0  0
   37.1360   25.9670   40.9080 H   0  0  0  0  0  0  0  0  0  0  0  0
   38.3490   31.7190   40.1990 C   0  0  0  0  0  0  0  0  0  0  0  0
   37.8760   32.9560   40.4660 N   0  0  0  0  0  0  0  0  0  0  0  0
   38.7710   33.8820   40.0960 C   0  0  0  0  0  0  0  0  0  0  0  0
   39.8280   33.2020   39.5870 N   0  0  0  0  0  0  0  0  0  0  0  0
   39.5740   31.8810   39.6470 N   0  0  0  0  0  0  0  0  0  0  0  0
   38.7220   34.9580   40.1650 H   0  0  0  0  0  0  0  0  0  0  0  0
   42.1340   33.6760   41.0430 O   0  0  0  0  0  0  0  0  0  0  0  0
   42.2470   33.3130   39.8410 C   0  0  0  0  0  0  0  0  0  0  0  0
   41.0550   33.7260   39.0510 C   0  0  1  0  0  3  0  0  0  0  0  0
   41.3350   33.0290   37.7320 C   0  0  0  0  0  3  0  0  0  0  0  0
   40.9000   33.6650   36.9230 H   0  0  0  0  0  0  0  0  0  0  0  0
   42.8500   33.0210   37.6660 C   0  0  0  0  0  3  0  0  0  0  0  0
   43.2100   34.0570   37.5330 H   0  0  0  0  0  0  0  0  0  0  0  0
   43.1940   32.6160   39.0150 N   0  0  0  0  0  0  0  0  0  0  0  0
   43.8540   32.0250   39.5830 H   0  0  0  0  0  0  0  0  0  0  0  0
  1  9  1  0  0  0  0
  2  7  1  0  0  0  0
  2  1  2  0  0  0  0
  3  2  1  0  0  0  0
  4  3  2  0  0  0  0
  4  5  1  0  0  0  0
  5  6  2  0  0  0  0
  6  1  1  0  0  0  0
  8  3  1  0  0  0  0
  9 15  1  0  0  0  0
  9 10  1  0  0  0  0
 10 16  1  0  0  0  0
 10 17  1  0  0  0  0
 11 10  1  0  0  0  0
 11 19  1  0  0  0  0
 12 11  1  0  0  0  0
 12 20  1  0  0  0  0
 13 23  1  0  0  0  0
 13 12  1  0  0  0  0
 14 13  1  0  0  0  0
 14  9  1  0  0  0  0
 18 11  1  0  0  0  0
 21 12  1  0  0  0  0
 22 13  1  0  0  0  0
 24 14  1  0  0  0  0
 25 14  1  0  0  0  0
 26 27  1  0  0  0  0
 26  5  1  0  0  0  0
 28 31  1  0  0  0  0
 28 27  2  0  0  0  0
 29 30  1  0  0  0  0
 29 28  1  0  0  0  0
 30 26  2  0  0  0  0
 33 32  2  0  0  0  0
 34 29  1  1  0  0  0
 34 33  1  0  0  0  0
 35 34  1  0  0  0  0
 36 35  1  0  0  0  0
 37 35  1  0  0  0  0
 37 39  1  0  0  0  0
 38 37  1  0  0  0  0
 39 40  1  0  0  0  0
 39 33  1  0  0  0  0
M  END
>  <minimizedAffinity>
-5.88454914

$$$$

 OpenBabel03242519263D

 40 43  0  0  1  0  0  0  0  0999 V2000
   38.3610   24.7290   41.8450 C   0  0  0  0  0  0  0  0  0  0  0  0
   39.3220   24.3180   42.7820 C   0  0  0  0  0  0  0  0  0  0  0  0
   40.1580   25.2740   43.3950 C   0  0  0  0  0  0  0  0  0  0  0  0
   39.9610   26.5790   43.0130 N   0  0  0  0  0  0  0  0  0  0  0  0
   39.0110   26.9380   42.0960 C   0  0  0  0  0  0  0  0  0  0  0  0
   38.2380   26.0200   41.5360 N   0  0  0  0  0  0  0  0  0  0  0  0
   39.5410   23.3210   43.1350 H   0  0  0  0  0  0  0  0  0  0  0  0
   40.9130   25.0260   44.1190 H   0  0  0  0  0  0  0  0  0  0  0  0
   37.5470   23.6400   41.2660 C   0  0  0  0  0  0  0  0  0  0  0  0
   38.3210   22.6740   40.4850 C   0  0  0  0  0  0  0  0  0  0  0  0
   38.0360   22.6930   39.0290 C   0  0  0  0  0  0  0  0  0  0  0  0
   36.5580   22.5850   38.6990 C   0  0  0  0  0  0  0  0  0  0  0  0
   35.6520   23.2720   39.6920 C   0  0  0  0  0  0  0  0  0  0  0  0
   36.4270   24.3280   40.4650 C   0  0  0  0  0  0  0  0  0  0  0  0
   36.9780   23.1410   42.1050 H   0  0  0  0  0  0  0  0  0  0  0  0
   39.4090   22.9320   40.5940 H   0  0  0  0  0  0  0  0  0  0  0  0
   38.2000   21.6430   40.8790 H   0  0  0  0  0  0  0  0  0  0  0  0
   38.4880   23.4860   38.4380 H   0  0  0  0  0  0  0  0  0  0  0  0
   38.4740   21.7370   38.6140 H   0  0  0  0  0  0  0  0  0  0  0  0
   36.2320   21.5240   38.5560 H   0  0  0  0  0  0  0  0  0  0  0  0
   36.3860   23.0870   37.7250 H   0  0  0  0  0  0  0  0  0  0  0  0
   34.7590   23.7110   39.2540 H   0  0  0  0  0  0  0  0  0  0  0  0
   35.3740   22.4830   40.4370 H   0  0  0  0  0  0  0  0  0  0  0  0
   36.8480   25.0090   39.7040 H   0  0  0  0  0  0  0  0  0  0  0  0
   35.7390   24.8150   41.1810 H   0  0  0  0  0  0  0  0  0  0  0  0
   38.9460   28.3600   41.8040 C   0  0  0  0  0  0  0  0  0  0  0  0
   39.0890   29.2200   42.8370 N   0  0  0  0  0  0  0  0  0  0  0  0
   39.0060   30.4840   42.3980 C   0  0  0  0  0  0  0  0  0  0  0  0
   38.8080   30.4060   41.0590 N   0  0  0  0  0  0  0  0  0  0  0  0
   38.7690   29.1100   40.6930 N   0  0  0  0  0  0  0  0  0  0  0  0
   39.0770   31.4120   42.9450 H   0  0  0  0  0  0  0  0  0  0  0  0
   36.4570   31.0550   39.7510 O   0  0  0  0  0  0  0  0  0  0  0  0
   37.2560   31.9850   40.0460 C   0  0  0  0  0  0  0  0  0  0  0  0
   38.6540   31.4780   40.1130 C   0  0  1  0  0  3  0  0  0  0  0  0
   39.3730   32.6990   40.6550 C   0  0  0  0  0  3  0  0  0  0  0  0
   40.4060   32.6910   40.2300 H   0  0  0  0  0  0  0  0  0  0  0  0
   38.5590   33.8500   40.0930 C   0  0  0  0  0  3  0  0  0  0  0  0
   38.7000   33.8880   38.9980 H   0  0  0  0  0  0  0  0  0  0  0  0
   37.2060   33.3910   40.3370 N   0  0  0  0  0  0  0  0  0  0  0  0
   36.2450   33.6980   40.6360 H   0  0  0  0  0  0  0  0  0  0  0  0
  1  2  1  0  0  0  0
  2  7  1  0  0  0  0
  2  3  2  0  0  0  0
  3  8  1  0  0  0  0
  4  3  1  0  0  0  0
  5  4  2  0  0  0  0
  6  1  2  0  0  0  0
  6  5  1  0  0  0  0
  9  1  1  0  0  0  0
  9 15  1  0  0  0  0
 10 16  1  0  0  0  0
 10 17  1  0  0  0  0
 10  9  1  0  0  0  0
 11 10  1  0  0  0  0
 12 11  1  0  0  0  0
 12 13  1  0  0  0  0
 13 23  1  0  0  0  0
 13 14  1  0  0  0  0
 14 25  1  0  0  0  0
 14  9  1  0  0  0  0
 18 11  1  0  0  0  0
 19 11  1  0  0  0  0
 20 12  1  0  0  0  0
 21 12  1  0  0  0  0
 22 13  1  0  0  0  0
 24 14  1  0  0  0  0
 26  5  1  0  0  0  0
 26 27  1  0  0  0  0
 28 27  2  0  0  0  0
 28 31  1  0  0  0  0
 29 28  1  0  0  0  0
 30 29  1  0  0  0  0
 30 26  2  0  0  0  0
 32 33  2  0  0  0  0
 33 34  1  0  0  0  0
 33 39  1  0  0  0  0
 34 35  1  0  0  0  0
 34 29  1  1  0  0  0
 36 35  1  0  0  0  0
 37 39  1  0  0  0  0
 37 35  1  0  0  0  0
 38 37  1  0  0  0  0
 39 40  1  0  0  0  0
M  END
>  <minimizedAffinity>
-5.87627697

$$$$

 OpenBabel03242519263D

 40 43  0  0  1  0  0  0  0  0999 V2000
   32.8420   29.2920   36.6940 C   0  0  0  0  0  0  0  0  0  0  0  0
   33.2110   29.2720   35.3400 C   0  0  0  0  0  0  0  0  0  0  0  0
   34.5580   29.0590   34.9820 C   0  0  0  0  0  0  0  0  0  0  0  0
   35.4360   28.8830   36.0230 N   0  0  0  0  0  0  0  0  0  0  0  0
   35.0350   28.9100   37.3320 C   0  0  0  0  0  0  0  0  0  0  0  0
   33.7630   29.1100   37.6400 N   0  0  0  0  0  0  0  0  0  0  0  0
   32.5880   29.4010   34.4660 H   0  0  0  0  0  0  0  0  0  0  0  0
   34.9050   29.0320   33.9650 H   0  0  0  0  0  0  0  0  0  0  0  0
   31.4050   29.5280   36.9470 C   0  0  0  0  0  0  0  0  0  0  0  0
   30.8160   30.5590   36.0920 C   0  0  0  0  0  0  0  0  0  0  0  0
   30.4110   31.7940   36.8080 C   0  0  0  0  0  0  0  0  0  0  0  0
   29.5290   31.5330   38.0150 C   0  0  0  0  0  0  0  0  0  0  0  0
   29.8580   30.2590   38.7570 C   0  0  0  0  0  0  0  0  0  0  0  0
   31.2840   29.8300   38.4510 C   0  0  0  0  0  0  0  0  0  0  0  0
   30.8640   28.5420   36.8500 H   0  0  0  0  0  0  0  0  0  0  0  0
   31.5900   30.8730   35.3420 H   0  0  0  0  0  0  0  0  0  0  0  0
   29.9560   30.1620   35.5110 H   0  0  0  0  0  0  0  0  0  0  0  0
   31.1920   32.5030   37.0700 H   0  0  0  0  0  0  0  0  0  0  0  0
   29.7350   32.3580   36.0990 H   0  0  0  0  0  0  0  0  0  0  0  0
   28.4400   31.5540   37.7580 H   0  0  0  0  0  0  0  0  0  0  0  0
   29.6830   32.3600   38.7380 H   0  0  0  0  0  0  0  0  0  0  0  0
   29.7070   30.3160   39.8320 H   0  0  0  0  0  0  0  0  0  0  0  0
   29.1950   29.4750   38.3100 H   0  0  0  0  0  0  0  0  0  0  0  0
   31.9230   30.6850   38.7350 H   0  0  0  0  0  0  0  0  0  0  0  0
   31.4970   28.8980   39.0090 H   0  0  0  0  0  0  0  0  0  0  0  0
   36.0980   28.7130   38.3030 C   0  0  0  0  0  0  0  0  0  0  0  0
   37.3690   28.6850   37.8460 N   0  0  0  0  0  0  0  0  0  0  0  0
   38.2210   28.5000   38.8650 C   0  0  0  0  0  0  0  0  0  0  0  0
   37.4580   28.4130   39.9820 N   0  0  0  0  0  0  0  0  0  0  0  0
   36.1610   28.5410   39.6430 N   0  0  0  0  0  0  0  0  0  0  0  0
   39.2980   28.4290   38.8620 H   0  0  0  0  0  0  0  0  0  0  0  0
   38.3290   30.4090   41.6900 O   0  0  0  0  0  0  0  0  0  0  0  0
   37.7010   29.4320   42.1810 C   0  0  0  0  0  0  0  0  0  0  0  0
   37.8820   28.2150   41.3430 C   0  0  1  0  0  3  0  0  0  0  0  0
   36.9080   27.2640   42.0120 C   0  0  0  0  0  3  0  0  0  0  0  0
   37.3250   26.2330   41.9040 H   0  0  0  0  0  0  0  0  0  0  0  0
   36.9320   27.7150   43.4600 C   0  0  0  0  0  3  0  0  0  0  0  0
   37.9200   27.4770   43.8940 H   0  0  0  0  0  0  0  0  0  0  0  0
   36.8610   29.1560   43.3130 N   0  0  0  0  0  0  0  0  0  0  0  0
   36.4400   30.0320   43.7160 H   0  0  0  0  0  0  0  0  0  0  0  0
  1  9  1  0  0  0  0
  1  6  1  0  0  0  0
  2  1  2  0  0  0  0
  3  2  1  0  0  0  0
  3  4  2  0  0  0  0
  4  5  1  0  0  0  0
  5  6  2  0  0  0  0
  5 26  1  0  0  0  0
  7  2  1  0  0  0  0
  8  3  1  0  0  0  0
  9 14  1  0  0  0  0
 10 11  1  0  0  0  0
 10  9  1  0  0  0  0
 11 18  1  0  0  0  0
 11 12  1  0  0  0  0
 12 21  1  0  0  0  0
 12 13  1  0  0  0  0
 13 22  1  0  0  0  0
 14 24  1  0  0  0  0
 14 13  1  0  0  0  0
 14 25  1  0  0  0  0
 15  9  1  0  0  0  0
 16 10  1  0  0  0  0
 17 10  1  0  0  0  0
 19 11  1  0  0  0  0
 20 12  1  0  0  0  0
 23 13  1  0  0  0  0
 26 30  2  0  0  0  0
 27 26  1  0  0  0  0
 27 28  2  0  0  0  0
 28 29  1  0  0  0  0
 30 29  1  0  0  0  0
 31 28  1  0  0  0  0
 32 33  2  0  0  0  0
 33 39  1  0  0  0  0
 34 29  1  6  0  0  0
 34 35  1  0  0  0  0
 34 33  1  0  0  0  0
 35 37  1  0  0  0  0
 36 35  1  0  0  0  0
 37 38  1  0  0  0  0
 39 37  1  0  0  0  0
 39 40  1  0  0  0  0
M  END
>  <minimizedAffinity>
-5.82391119

$$$$

 OpenBabel03242519263D

 40 43  0  0  1  0  0  0  0  0999 V2000
   36.4570   24.9420   39.9670 C   0  0  0  0  0  0  0  0  0  0  0  0
   36.8480   24.3480   41.1770 C   0  0  0  0  0  0  0  0  0  0  0  0
   37.3380   25.1510   42.2270 C   0  0  0  0  0  0  0  0  0  0  0  0
   37.3980   26.5000   41.9750 N   0  0  0  0  0  0  0  0  0  0  0  0
   37.0060   27.0400   40.7800 C   0  0  0  0  0  0  0  0  0  0  0  0
   36.5480   26.2630   39.8110 N   0  0  0  0  0  0  0  0  0  0  0  0
   36.8340   23.3040   41.4550 H   0  0  0  0  0  0  0  0  0  0  0  0
   37.6540   24.7590   43.1770 H   0  0  0  0  0  0  0  0  0  0  0  0
   35.9640   24.0010   38.9390 C   0  0  0  0  0  0  0  0  0  0  0  0
   35.5250   24.6520   37.7040 C   0  0  0  0  0  0  0  0  0  0  0  0
   34.0650   24.5710   37.4530 C   0  0  0  0  0  0  0  0  0  0  0  0
   33.5130   23.1590   37.5380 C   0  0  0  0  0  0  0  0  0  0  0  0
   34.1870   22.2950   38.5770 C   0  0  0  0  0  0  0  0  0  0  0  0
   34.8660   23.1660   39.6210 C   0  0  0  0  0  0  0  0  0  0  0  0
   36.7720   23.2360   38.7460 H   0  0  0  0  0  0  0  0  0  0  0  0
   35.7680   25.7460   37.7820 H   0  0  0  0  0  0  0  0  0  0  0  0
   36.0810   24.2680   36.8230 H   0  0  0  0  0  0  0  0  0  0  0  0
   33.4210   25.2510   38.0030 H   0  0  0  0  0  0  0  0  0  0  0  0
   33.9200   24.8500   36.3670 H   0  0  0  0  0  0  0  0  0  0  0  0
   33.5200   22.6400   36.5470 H   0  0  0  0  0  0  0  0  0  0  0  0
   32.4460   23.2250   37.8360 H   0  0  0  0  0  0  0  0  0  0  0  0
   33.5270   21.5780   39.0590 H   0  0  0  0  0  0  0  0  0  0  0  0
   35.0100   21.7620   38.0330 H   0  0  0  0  0  0  0  0  0  0  0  0
   34.0740   23.8150   40.0330 H   0  0  0  0  0  0  0  0  0  0  0  0
   35.3490   22.5060   40.3680 H   0  0  0  0  0  0  0  0  0  0  0  0
   37.1450   28.4830   40.6840 C   0  0  0  0  0  0  0  0  0  0  0  0
   36.3230   29.2450   41.4390 N   0  0  0  0  0  0  0  0  0  0  0  0
   36.5830   30.5450   41.2350 C   0  0  0  0  0  0  0  0  0  0  0  0
   37.5930   30.5890   40.3310 N   0  0  0  0  0  0  0  0  0  0  0  0
   37.9380   29.3320   39.9920 N   0  0  0  0  0  0  0  0  0  0  0  0
   36.1220   31.4190   41.6690 H   0  0  0  0  0  0  0  0  0  0  0  0
   36.9830   31.7460   37.8920 O   0  0  0  0  0  0  0  0  0  0  0  0
   37.3720   32.4940   38.8300 C   0  0  0  0  0  0  0  0  0  0  0  0
   38.2450   31.7430   39.7740 C   0  0  1  0  0  3  0  0  0  0  0  0
   38.4190   32.7710   40.8760 C   0  0  0  0  0  3  0  0  0  0  0  0
   39.4330   32.6150   41.3180 H   0  0  0  0  0  0  0  0  0  0  0  0
   38.3470   34.0890   40.1270 C   0  0  0  0  0  3  0  0  0  0  0  0
   39.2430   34.1890   39.4890 H   0  0  0  0  0  0  0  0  0  0  0  0
   37.2150   33.8590   39.2500 N   0  0  0  0  0  0  0  0  0  0  0  0
   36.3620   34.3060   38.8270 H   0  0  0  0  0  0  0  0  0  0  0  0
  1  2  1  0  0  0  0
  2  7  1  0  0  0  0
  2  3  2  0  0  0  0
  3  8  1  0  0  0  0
  4  3  1  0  0  0  0
  5  4  2  0  0  0  0
  6  1  2  0  0  0  0
  6  5  1  0  0  0  0
  9 14  1  0  0  0  0
  9  1  1  0  0  0  0
 10 16  1  0  0  0  0
 10  9  1  0  0  0  0
 11 12  1  0  0  0  0
 11 10  1  0  0  0  0
 11 18  1  0  0  0  0
 12 21  1  0  0  0  0
 12 13  1  0  0  0  0
 13 22  1  0  0  0  0
 13 14  1  0  0  0  0
 14 24  1  0  0  0  0
 14 25  1  0  0  0  0
 15  9  1  0  0  0  0
 17 10  1  0  0  0  0
 19 11  1  0  0  0  0
 20 12  1  0  0  0  0
 23 13  1  0  0  0  0
 26  5  1  0  0  0  0
 26 27  1  0  0  0  0
 28 27  2  0  0  0  0
 28 31  1  0  0  0  0
 29 28  1  0  0  0  0
 30 29  1  0  0  0  0
 30 26  2  0  0  0  0
 32 33  2  0  0  0  0
 33 39  1  0  0  0  0
 33 34  1  0  0  0  0
 34 29  1  1  0  0  0
 34 35  1  0  0  0  0
 35 36  1  0  0  0  0
 37 35  1  0  0  0  0
 38 37  1  0  0  0  0
 39 37  1  0  0  0  0
 40 39  1  0  0  0  0
M  END
>  <minimizedAffinity>
-5.45525599

$$$$

 OpenBabel03242519263D

 40 43  0  0  1  0  0  0  0  0999 V2000
   36.7410   27.9650   41.6770 C   0  0  0  0  0  0  0  0  0  0  0  0
   37.0940   29.2120   42.2170 C   0  0  0  0  0  0  0  0  0  0  0  0
   36.7920   30.3940   41.5110 C   0  0  0  0  0  0  0  0  0  0  0  0
   36.1550   30.2280   40.3050 N   0  0  0  0  0  0  0  0  0  0  0  0
   35.8280   28.9940   39.8130 C   0  0  0  0  0  0  0  0  0  0  0  0
   36.1220   27.9000   40.4980 N   0  0  0  0  0  0  0  0  0  0  0  0
   37.5920   29.4280   43.1510 H   0  0  0  0  0  0  0  0  0  0  0  0
   37.0340   31.3780   41.8690 H   0  0  0  0  0  0  0  0  0  0  0  0
   37.1110   26.7980   42.5040 C   0  0  0  0  0  0  0  0  0  0  0  0
   38.1930   27.0650   43.4530 C   0  0  0  0  0  0  0  0  0  0  0  0
   39.4610   26.3540   43.1550 C   0  0  0  0  0  0  0  0  0  0  0  0
   39.2840   24.8600   42.9530 C   0  0  0  0  0  0  0  0  0  0  0  0
   37.9860   24.4760   42.2850 C   0  0  0  0  0  0  0  0  0  0  0  0
   37.4240   25.6610   41.5150 C   0  0  0  0  0  0  0  0  0  0  0  0
   36.1800   26.4240   43.0230 H   0  0  0  0  0  0  0  0  0  0  0  0
   38.4320   28.1610   43.4070 H   0  0  0  0  0  0  0  0  0  0  0  0
   37.8790   26.8530   44.4970 H   0  0  0  0  0  0  0  0  0  0  0  0
   40.0930   26.7590   42.3690 H   0  0  0  0  0  0  0  0  0  0  0  0
   40.0860   26.4250   44.0940 H   0  0  0  0  0  0  0  0  0  0  0  0
   39.4080   24.2850   43.9050 H   0  0  0  0  0  0  0  0  0  0  0  0
   40.0940   24.5060   42.2810 H   0  0  0  0  0  0  0  0  0  0  0  0
   38.0560   23.6070   41.6350 H   0  0  0  0  0  0  0  0  0  0  0  0
   37.2670   24.2800   43.1220 H   0  0  0  0  0  0  0  0  0  0  0  0
   38.2150   25.9610   40.8050 H   0  0  0  0  0  0  0  0  0  0  0  0
   36.4760   25.3500   41.0350 H   0  0  0  0  0  0  0  0  0  0  0  0
   35.1650   29.0050   38.5200 C   0  0  0  0  0  0  0  0  0  0  0  0
   35.9370   29.1360   37.4190 N   0  0  0  0  0  0  0  0  0  0  0  0
   35.1740   29.1240   36.3170 C   0  0  0  0  0  0  0  0  0  0  0  0
   33.8960   28.9800   36.7460 N   0  0  0  0  0  0  0  0  0  0  0  0
   33.8860   28.9080   38.0910 N   0  0  0  0  0  0  0  0  0  0  0  0
   35.4560   29.2050   35.2790 H   0  0  0  0  0  0  0  0  0  0  0  0
   32.9150   26.6960   35.5290 O   0  0  0  0  0  0  0  0  0  0  0  0
   32.0900   27.5470   35.9610 C   0  0  0  0  0  0  0  0  0  0  0  0
   32.6910   28.9090   35.9630 C   0  0  1  0  0  3  0  0  0  0  0  0
   31.6090   29.6940   36.6800 C   0  0  0  0  0  3  0  0  0  0  0  0
   31.6230   30.7310   36.2650 H   0  0  0  0  0  0  0  0  0  0  0  0
   30.3400   28.9640   36.2840 C   0  0  0  0  0  3  0  0  0  0  0  0
   30.1540   29.1240   35.2070 H   0  0  0  0  0  0  0  0  0  0  0  0
   30.7400   27.5800   36.4510 N   0  0  0  0  0  0  0  0  0  0  0  0
   30.4180   26.6360   36.7840 H   0  0  0  0  0  0  0  0  0  0  0  0
  1  2  1  0  0  0  0
  1  9  1  0  0  0  0
  2  7  1  0  0  0  0
  3  8  1  0  0  0  0
  3  2  2  0  0  0  0
  4  3  1  0  0  0  0
  5  4  2  0  0  0  0
  5  6  1  0  0  0  0
  6  1  2  0  0  0  0
  9 15  1  0  0  0  0
  9 10  1  0  0  0  0
 10 17  1  0  0  0  0
 11 10  1  0  0  0  0
 11 19  1  0  0  0  0
 12 11  1  0  0  0  0
 12 20  1  0  0  0  0
 13 12  1  0  0  0  0
 13 23  1  0  0  0  0
 14 13  1  0  0  0  0
 14  9  1  0  0  0  0
 16 10  1  0  0  0  0
 18 11  1  0  0  0  0
 21 12  1  0  0  0  0
 22 13  1  0  0  0  0
 24 14  1  0  0  0  0
 25 14  1  0  0  0  0
 26  5  1  0  0  0  0
 27 26  1  0  0  0  0
 28 29  1  0  0  0  0
 28 27  2  0  0  0  0
 29 30  1  0  0  0  0
 30 26  2  0  0  0  0
 31 28  1  0  0  0  0
 32 33  2  0  0  0  0
 33 34  1  0  0  0  0
 33 39  1  0  0  0  0
 34 35  1  0  0  0  0
 34 29  1  1  0  0  0
 36 35  1  0  0  0  0
 37 39  1  0  0  0  0
 37 35  1  0  0  0  0
 38 37  1  0  0  0  0
 39 40  1  0  0  0  0
M  END
>  <minimizedAffinity>
-5.40488338

$$$$

 OpenBabel03242519263D

 40 43  0  0  1  0  0  0  0  0999 V2000
   39.8510   33.1790   40.4780 C   0  0  0  0  0  0  0  0  0  0  0  0
   38.8040   33.8910   39.8730 C   0  0  0  0  0  0  0  0  0  0  0  0
   37.5170   33.3210   39.8020 C   0  0  0  0  0  0  0  0  0  0  0  0
   37.3830   32.0680   40.3480 N   0  0  0  0  0  0  0  0  0  0  0  0
   38.4310   31.4070   40.9290 C   0  0  0  0  0  0  0  0  0  0  0  0
   39.6300   31.9660   40.9830 N   0  0  0  0  0  0  0  0  0  0  0  0
   38.8240   34.8740   39.4220 H   0  0  0  0  0  0  0  0  0  0  0  0
   36.6730   33.8130   39.3530 H   0  0  0  0  0  0  0  0  0  0  0  0
   41.1550   33.8750   40.4890 C   0  0  0  0  0  0  0  0  0  0  0  0
   41.4840   34.5360   39.2250 C   0  0  0  0  0  0  0  0  0  0  0  0
   42.6230   33.9290   38.4920 C   0  0  0  0  0  0  0  0  0  0  0  0
   43.8670   33.7560   39.3440 C   0  0  0  0  0  0  0  0  0  0  0  0
   43.5850   33.4180   40.7880 C   0  0  0  0  0  0  0  0  0  0  0  0
   42.1920   32.8240   40.9240 C   0  0  0  0  0  0  0  0  0  0  0  0
   41.1600   34.5990   41.3560 H   0  0  0  0  0  0  0  0  0  0  0  0
   40.5940   34.4490   38.5460 H   0  0  0  0  0  0  0  0  0  0  0  0
   41.6650   35.6220   39.3700 H   0  0  0  0  0  0  0  0  0  0  0  0
   42.4320   33.0190   37.9300 H   0  0  0  0  0  0  0  0  0  0  0  0
   42.9330   34.6890   37.7160 H   0  0  0  0  0  0  0  0  0  0  0  0
   44.5490   34.6400   39.2850 H   0  0  0  0  0  0  0  0  0  0  0  0
   44.4470   32.9020   38.9340 H   0  0  0  0  0  0  0  0  0  0  0  0
   44.3190   32.7580   41.2450 H   0  0  0  0  0  0  0  0  0  0  0  0
   43.5580   34.4020   41.3240 H   0  0  0  0  0  0  0  0  0  0  0  0
   42.1710   31.9470   40.2530 H   0  0  0  0  0  0  0  0  0  0  0  0
   42.0150   32.5850   41.9910 H   0  0  0  0  0  0  0  0  0  0  0  0
   38.1120   30.0870   41.4480 C   0  0  0  0  0  0  0  0  0  0  0  0
   36.8080   29.7740   41.6110 N   0  0  0  0  0  0  0  0  0  0  0  0
   36.6890   28.5290   42.0920 C   0  0  0  0  0  0  0  0  0  0  0  0
   37.9530   28.0570   42.2300 N   0  0  0  0  0  0  0  0  0  0  0  0
   38.8250   29.0060   41.8390 N   0  0  0  0  0  0  0  0  0  0  0  0
   35.8040   27.9630   42.3370 H   0  0  0  0  0  0  0  0  0  0  0  0
   38.4570   25.8490   40.6380 O   0  0  0  0  0  0  0  0  0  0  0  0
   39.1440   26.0040   41.6840 C   0  0  0  0  0  0  0  0  0  0  0  0
   38.3810   26.7690   42.7070 C   0  0  1  0  0  3  0  0  0  0  0  0
   39.4530   26.9830   43.7590 C   0  0  0  0  0  3  0  0  0  0  0  0
   38.9440   27.0010   44.7530 H   0  0  0  0  0  0  0  0  0  0  0  0
   40.3240   25.7490   43.6120 C   0  0  0  0  0  3  0  0  0  0  0  0
   39.7530   24.8650   43.9500 H   0  0  0  0  0  0  0  0  0  0  0  0
   40.4500   25.6550   42.1710 N   0  0  0  0  0  0  0  0  0  0  0  0
   41.1170   25.4350   41.3880 H   0  0  0  0  0  0  0  0  0  0  0  0
  1  9  1  0  0  0  0
  1  6  1  0  0  0  0
  2  1  2  0  0  0  0
  3  2  1  0  0  0  0
  3  4  2  0  0  0  0
  4  5  1  0  0  0  0
  5  6  2  0  0  0  0
  5 26  1  0  0  0  0
  7  2  1  0  0  0  0
  8  3  1  0  0  0  0
  9 14  1  0  0  0  0
  9 15  1  0  0  0  0
 10 17  1  0  0  0  0
 10  9  1  0  0  0  0
 11 10  1  0  0  0  0
 11 12  1  0  0  0  0
 12 13  1  0  0  0  0
 13 14  1  0  0  0  0
 13 22  1  0  0  0  0
 13 23  1  0  0  0  0
 14 25  1  0  0  0  0
 16 10  1  0  0  0  0
 18 11  1  0  0  0  0
 19 11  1  0  0  0  0
 20 12  1  0  0  0  0
 21 12  1  0  0  0  0
 24 14  1  0  0  0  0
 26 27  1  0  0  0  0
 26 30  2  0  0  0  0
 27 28  2  0  0  0  0
 28 29  1  0  0  0  0
 28 31  1  0  0  0  0
 30 29  1  0  0  0  0
 32 33  2  0  0  0  0
 33 39  1  0  0  0  0
 33 34  1  0  0  0  0
 34 29  1  6  0  0  0
 34 35  1  0  0  0  0
 35 36  1  0  0  0  0
 37 35  1  0  0  0  0
 37 38  1  0  0  0  0
 39 37  1  0  0  0  0
 40 39  1  0  0  0  0
M  END
>  <minimizedAffinity>
-5.39309025

$$$$

 OpenBabel03242519263D

 40 43  0  0  1  0  0  0  0  0999 V2000
   36.9740   27.8980   41.8270 C   0  0  0  0  0  0  0  0  0  0  0  0
   37.2630   29.2060   42.2490 C   0  0  0  0  0  0  0  0  0  0  0  0
   36.8260   30.3030   41.4800 C   0  0  0  0  0  0  0  0  0  0  0  0
   36.1290   29.9980   40.3370 N   0  0  0  0  0  0  0  0  0  0  0  0
   35.8680   28.7080   39.9610 C   0  0  0  0  0  0  0  0  0  0  0  0
   36.2880   27.6950   40.7020 N   0  0  0  0  0  0  0  0  0  0  0  0
   37.8020   29.5310   43.1270 H   0  0  0  0  0  0  0  0  0  0  0  0
   37.0140   31.3280   41.7470 H   0  0  0  0  0  0  0  0  0  0  0  0
   37.4860   26.8300   42.7100 C   0  0  0  0  0  0  0  0  0  0  0  0
   38.3840   27.3100   43.7610 C   0  0  0  0  0  0  0  0  0  0  0  0
   39.7950   26.8750   43.6100 C   0  0  0  0  0  0  0  0  0  0  0  0
   39.9490   25.3770   43.4200 C   0  0  0  0  0  0  0  0  0  0  0  0
   38.8340   24.7380   42.6280 C   0  0  0  0  0  0  0  0  0  0  0  0
   38.1270   25.7830   41.7810 C   0  0  0  0  0  0  0  0  0  0  0  0
   36.6010   26.2710   43.1370 H   0  0  0  0  0  0  0  0  0  0  0  0
   38.3980   28.4330   43.7200 H   0  0  0  0  0  0  0  0  0  0  0  0
   38.0110   27.0360   44.7710 H   0  0  0  0  0  0  0  0  0  0  0  0
   40.4100   27.4030   42.8870 H   0  0  0  0  0  0  0  0  0  0  0  0
   40.2890   27.0710   44.6080 H   0  0  0  0  0  0  0  0  0  0  0  0
   40.0860   24.8370   44.3900 H   0  0  0  0  0  0  0  0  0  0  0  0
   40.8800   25.1990   42.8420 H   0  0  0  0  0  0  0  0  0  0  0  0
   39.1490   23.9030   42.0050 H   0  0  0  0  0  0  0  0  0  0  0  0
   38.0860   24.3950   43.3890 H   0  0  0  0  0  0  0  0  0  0  0  0
   38.9100   26.2410   41.1510 H   0  0  0  0  0  0  0  0  0  0  0  0
   37.3180   25.2860   41.2120 H   0  0  0  0  0  0  0  0  0  0  0  0
   35.1250   28.5690   38.7200 C   0  0  0  0  0  0  0  0  0  0  0  0
   33.8570   29.0360   38.6900 N   0  0  0  0  0  0  0  0  0  0  0  0
   33.3190   28.8330   37.4790 C   0  0  0  0  0  0  0  0  0  0  0  0
   34.2790   28.2260   36.7380 N   0  0  0  0  0  0  0  0  0  0  0  0
   35.3820   28.0620   37.4930 N   0  0  0  0  0  0  0  0  0  0  0  0
   32.3360   29.0800   37.1090 H   0  0  0  0  0  0  0  0  0  0  0  0
   35.0580   29.7300   34.5500 O   0  0  0  0  0  0  0  0  0  0  0  0
   35.2110   28.4800   34.5030 C   0  0  0  0  0  0  0  0  0  0  0  0
   34.2120   27.7940   35.3680 C   0  0  1  0  0  3  0  0  0  0  0  0
   34.7100   26.3630   35.2950 C   0  0  0  0  0  3  0  0  0  0  0  0
   33.8160   25.6970   35.3770 H   0  0  0  0  0  0  0  0  0  0  0  0
   35.3220   26.2860   33.9090 C   0  0  0  0  0  3  0  0  0  0  0  0
   34.5170   26.3570   33.1560 H   0  0  0  0  0  0  0  0  0  0  0  0
   36.0710   27.5270   33.8570 N   0  0  0  0  0  0  0  0  0  0  0  0
   36.9710   27.9640   33.5330 H   0  0  0  0  0  0  0  0  0  0  0  0
  1  2  1  0  0  0  0
  1  9  1  0  0  0  0
  2  7  1  0  0  0  0
  3  8  1  0  0  0  0
  3  2  2  0  0  0  0
  4  3  1  0  0  0  0
  5  4  2  0  0  0  0
  5  6  1  0  0  0  0
  6  1  2  0  0  0  0
  9 15  1  0  0  0  0
  9 10  1  0  0  0  0
 10 17  1  0  0  0  0
 11 10  1  0  0  0  0
 11 19  1  0  0  0  0
 12 11  1  0  0  0  0
 12 20  1  0  0  0  0
 13 23  1  0  0  0  0
 13 12  1  0  0  0  0
 14 13  1  0  0  0  0
 14  9  1  0  0  0  0
 16 10  1  0  0  0  0
 18 11  1  0  0  0  0
 21 12  1  0  0  0  0
 22 13  1  0  0  0  0
 24 14  1  0  0  0  0
 25 14  1  0  0  0  0
 26  5  1  0  0  0  0
 27 26  1  0  0  0  0
 28 27  2  0  0  0  0
 29 28  1  0  0  0  0
 29 30  1  0  0  0  0
 30 26  2  0  0  0  0
 31 28  1  0  0  0  0
 33 32  2  0  0  0  0
 33 34  1  0  0  0  0
 34 29  1  1  0  0  0
 35 34  1  0  0  0  0
 35 36  1  0  0  0  0
 37 35  1  0  0  0  0
 38 37  1  0  0  0  0
 39 37  1  0  0  0  0
 39 33  1  0  0  0  0
 40 39  1  0  0  0  0
M  END
>  <minimizedAffinity>
-5.32248878

$$$$
