
 OpenBabel03242522413D

 47 50  0  0  1  0  0  0  0  0999 V2000
   46.7910   32.7600   44.2980 C   0  0  0  0  0  0  0  0  0  0  0  0
   47.7920   33.0310   44.6610 H   0  0  0  0  0  0  0  0  0  0  0  0
   46.7530   32.2880   43.3280 H   0  0  0  0  0  0  0  0  0  0  0  0
   46.3800   34.7740   43.0190 C   0  0  0  0  0  0  0  0  0  0  0  0
   46.0790   34.0390   44.1420 C   0  0  0  0  0  0  0  0  0  0  0  0
   45.1950   34.3870   45.0880 C   0  0  0  0  0  0  0  0  0  0  0  0
   44.5260   35.5710   44.9460 C   0  0  0  0  0  0  0  0  0  0  0  0
   44.7380   36.3830   43.8790 C   0  0  0  0  0  0  0  0  0  0  0  0
   45.6620   35.9560   42.9440 C   0  0  0  0  0  0  0  0  0  0  0  0
   44.8860   33.8880   45.9640 H   0  0  0  0  0  0  0  0  0  0  0  0
   43.7860   35.9670   45.6440 H   0  0  0  0  0  0  0  0  0  0  0  0
   44.2350   37.3290   43.7180 H   0  0  0  0  0  0  0  0  0  0  0  0
   45.8240   36.6260   42.0800 H   0  0  0  0  0  0  0  0  0  0  0  0
   47.5570   34.4820   41.8170 S   0  0  0  0  0  0  0  0  0  0  0  0
   48.4540   35.6480   41.5320 O   0  0  0  0  0  0  0  0  0  0  0  0
   46.7520   34.3030   40.4950 O   0  0  0  0  0  0  0  0  0  0  0  0
   50.8940   33.8580   42.5130 O   0  0  0  0  0  0  0  0  0  0  0  0
   49.9560   33.2220   41.9650 C   0  0  0  0  0  0  0  0  0  0  0  0
   48.5040   33.0930   41.6730 C   0  0  2  0  0  3  0  0  0  0  0  0
   48.6700   32.8620   40.1600 C   0  0  0  0  0  3  0  0  0  0  0  0
   49.1590   33.7070   39.6590 H   0  0  0  0  0  0  0  0  0  0  0  0
   49.5650   31.6270   40.2120 C   0  0  0  0  0  3  0  0  0  0  0  0
   50.0500   31.5010   39.2480 H   0  0  0  0  0  0  0  0  0  0  0  0
   50.4790   32.0600   41.2810 N   0  0  0  0  0  0  0  0  0  0  0  0
   51.3310   31.4240   41.3240 H   0  0  0  0  0  0  0  0  0  0  0  0
   46.1300   31.7530   45.1870 C   0  0  0  0  0  0  0  0  0  0  0  0
   45.9840   30.7410   44.7210 H   0  0  0  0  0  0  0  0  0  0  0  0
   45.0800   32.0040   45.4760 H   0  0  0  0  0  0  0  0  0  0  0  0
   47.0750   32.4930   47.3450 C   0  0  0  0  0  0  0  0  0  0  0  0
   47.0070   31.5140   46.3270 C   0  0  0  0  0  0  0  0  0  0  0  0
   47.7560   30.3650   46.4910 C   0  0  0  0  0  0  0  0  0  0  0  0
   48.5070   30.2390   47.6090 N   0  0  0  0  0  0  0  0  0  0  0  0
   48.5490   31.1750   48.5510 C   0  0  0  0  0  0  0  0  0  0  0  0
   47.8350   32.3210   48.4400 N   0  0  0  0  0  0  0  0  0  0  0  0
   46.5920   33.4490   47.4230 H   0  0  0  0  0  0  0  0  0  0  0  0
   47.7050   29.6220   45.7150 H   0  0  0  0  0  0  0  0  0  0  0  0
   49.4040   30.9370   49.7630 C   0  0  0  0  0  0  0  0  0  0  0  0
   48.8150   31.3430   50.6330 H   0  0  0  0  0  0  0  0  0  0  0  0
   49.5090   29.8420   49.9440 H   0  0  0  0  0  0  0  0  0  0  0  0
   50.6850   31.6300   49.7150 C   0  0  0  0  0  0  0  0  0  0  0  0
   51.8720   31.0920   49.2320 C   0  0  0  0  0  0  0  0  0  0  0  0
   52.8560   32.0370   49.3470 C   0  0  0  0  0  0  0  0  0  0  0  0
   52.2370   33.1270   49.9010 N   0  0  0  0  0  0  0  0  0  0  0  0
   50.9450   32.8860   50.1190 N   0  0  0  0  0  0  0  0  0  0  0  0
   52.0050   30.1000   48.8310 H   0  0  0  0  0  0  0  0  0  0  0  0
   53.9080   32.0080   49.0860 H   0  0  0  0  0  0  0  0  0  0  0  0
   52.7200   34.0330   50.1210 H   0  0  0  0  0  0  0  0  0  0  0  0
  1  2  1  0  0  0  0
  1 26  1  0  0  0  0
  3  1  1  0  0  0  0
  4  5  1  0  0  0  0
  5  1  1  0  0  0  0
  5  6  2  0  0  0  0
  6 10  1  0  0  0  0
  7  6  1  0  0  0  0
  7 11  1  0  0  0  0
  8  7  2  0  0  0  0
  9  4  2  0  0  0  0
  9  8  1  0  0  0  0
 12  8  1  0  0  0  0
 13  9  1  0  0  0  0
 14  4  1  0  0  0  0
 15 14  2  0  0  0  0
 16 14  2  0  0  0  0
 18 17  2  0  0  0  0
 19 14  1  6  0  0  0
 19 18  1  0  0  0  0
 20 22  1  0  0  0  0
 20 19  1  0  0  0  0
 21 20  1  0  0  0  0
 22 24  1  0  0  0  0
 23 22  1  0  0  0  0
 24 25  1  0  0  0  0
 24 18  1  0  0  0  0
 26 28  1  0  0  0  0
 26 30  1  0  0  0  0
 27 26  1  0  0  0  0
 29 35  1  0  0  0  0
 29 34  1  0  0  0  0
 30 31  1  0  0  0  0
 30 29  2  0  0  0  0
 31 32  2  0  0  0  0
 32 33  1  0  0  0  0
 33 37  1  0  0  0  0
 34 33  2  0  0  0  0
 36 31  1  0  0  0  0
 37 39  1  0  0  0  0
 37 38  1  0  0  0  0
 40 37  1  0  0  0  0
 40 44  2  0  0  0  0
 41 42  2  0  0  0  0
 41 40  1  0  0  0  0
 42 43  1  0  0  0  0
 43 44  1  0  0  0  0
 43 47  1  0  0  0  0
 45 41  1  0  0  0  0
 46 42  1  0  0  0  0
M  END
>  <minimizedAffinity>
-6.59961033

>  <minimizedRMSD>
0.546284914

$$$$
