
 OpenBabel03242522413D

 47 50  0  0  1  0  0  0  0  0999 V2000
   46.7870   32.6870   44.4760 C   0  0  0  0  0  0  0  0  0  0  0  0
   47.7740   33.0080   44.8380 H   0  0  0  0  0  0  0  0  0  0  0  0
   46.7780   32.1640   43.5320 H   0  0  0  0  0  0  0  0  0  0  0  0
   46.1950   34.5180   43.0060 C   0  0  0  0  0  0  0  0  0  0  0  0
   46.0390   33.9330   44.2420 C   0  0  0  0  0  0  0  0  0  0  0  0
   45.2650   34.3990   45.2320 C   0  0  0  0  0  0  0  0  0  0  0  0
   44.5640   35.5530   45.0200 C   0  0  0  0  0  0  0  0  0  0  0  0
   44.6360   36.2210   43.8400 C   0  0  0  0  0  0  0  0  0  0  0  0
   45.4520   35.6780   42.8650 C   0  0  0  0  0  0  0  0  0  0  0  0
   45.0700   34.0170   46.1960 H   0  0  0  0  0  0  0  0  0  0  0  0
   43.9030   36.0350   45.7440 H   0  0  0  0  0  0  0  0  0  0  0  0
   44.1010   37.1370   43.6190 H   0  0  0  0  0  0  0  0  0  0  0  0
   45.5010   36.2320   41.9090 H   0  0  0  0  0  0  0  0  0  0  0  0
   47.2280   34.0750   41.7210 S   0  0  0  0  0  0  0  0  0  0  0  0
   48.4100   34.9790   41.5380 O   0  0  0  0  0  0  0  0  0  0  0  0
   46.3890   34.2980   40.4280 O   0  0  0  0  0  0  0  0  0  0  0  0
   49.0210   32.7740   39.0570 O   0  0  0  0  0  0  0  0  0  0  0  0
   48.4140   32.2950   40.0490 C   0  0  0  0  0  0  0  0  0  0  0  0
   47.7520   32.5110   41.3630 C   0  0  2  0  0  3  0  0  0  0  0  0
   46.4770   31.7170   41.0280 C   0  0  0  0  0  3  0  0  0  0  0  0
   45.9340   32.1390   40.1720 H   0  0  0  0  0  0  0  0  0  0  0  0
   47.1230   30.3750   40.6950 C   0  0  0  0  0  3  0  0  0  0  0  0
   46.4170   29.7740   40.1280 H   0  0  0  0  0  0  0  0  0  0  0  0
   48.2560   30.8670   39.8930 N   0  0  0  0  0  0  0  0  0  0  0  0
   48.7190   30.0640   39.3700 H   0  0  0  0  0  0  0  0  0  0  0  0
   46.1430   31.7100   45.4090 C   0  0  0  0  0  0  0  0  0  0  0  0
   45.9610   30.6920   44.9680 H   0  0  0  0  0  0  0  0  0  0  0  0
   45.1100   31.9850   45.7340 H   0  0  0  0  0  0  0  0  0  0  0  0
   47.1950   32.4740   47.5080 C   0  0  0  0  0  0  0  0  0  0  0  0
   47.0600   31.4750   46.5180 C   0  0  0  0  0  0  0  0  0  0  0  0
   47.7870   30.3100   46.6800 C   0  0  0  0  0  0  0  0  0  0  0  0
   48.5790   30.1910   47.7690 N   0  0  0  0  0  0  0  0  0  0  0  0
   48.6830   31.1480   48.6850 C   0  0  0  0  0  0  0  0  0  0  0  0
   47.9950   32.3080   48.5750 N   0  0  0  0  0  0  0  0  0  0  0  0
   46.7400   33.4440   47.5820 H   0  0  0  0  0  0  0  0  0  0  0  0
   47.6850   29.5510   45.9250 H   0  0  0  0  0  0  0  0  0  0  0  0
   49.5810   30.9160   49.8670 C   0  0  0  0  0  0  0  0  0  0  0  0
   49.0170   31.3120   50.7580 H   0  0  0  0  0  0  0  0  0  0  0  0
   49.7050   29.8220   50.0400 H   0  0  0  0  0  0  0  0  0  0  0  0
   50.8520   31.6240   49.7790 C   0  0  0  0  0  0  0  0  0  0  0  0
   52.0330   31.0950   49.2720 C   0  0  0  0  0  0  0  0  0  0  0  0
   53.0080   32.0530   49.3520 C   0  0  0  0  0  0  0  0  0  0  0  0
   52.3890   33.1420   49.9080 N   0  0  0  0  0  0  0  0  0  0  0  0
   51.1060   32.8880   50.1610 N   0  0  0  0  0  0  0  0  0  0  0  0
   52.1690   30.1000   48.8810 H   0  0  0  0  0  0  0  0  0  0  0  0
   54.0530   32.0340   49.0650 H   0  0  0  0  0  0  0  0  0  0  0  0
   52.8660   34.0570   50.1050 H   0  0  0  0  0  0  0  0  0  0  0  0
  1  2  1  0  0  0  0
  1 26  1  0  0  0  0
  3  1  1  0  0  0  0
  4  5  1  0  0  0  0
  5  1  1  0  0  0  0
  5  6  2  0  0  0  0
  6 10  1  0  0  0  0
  7  6  1  0  0  0  0
  7 11  1  0  0  0  0
  8  7  2  0  0  0  0
  9  4  2  0  0  0  0
  9  8  1  0  0  0  0
 12  8  1  0  0  0  0
 13  9  1  0  0  0  0
 14  4  1  0  0  0  0
 15 14  2  0  0  0  0
 16 14  2  0  0  0  0
 17 18  2  0  0  0  0
 18 19  1  0  0  0  0
 19 14  1  6  0  0  0
 20 19  1  0  0  0  0
 21 20  1  0  0  0  0
 22 20  1  0  0  0  0
 23 22  1  0  0  0  0
 24 18  1  0  0  0  0
 24 22  1  0  0  0  0
 25 24  1  0  0  0  0
 26 28  1  0  0  0  0
 26 30  1  0  0  0  0
 27 26  1  0  0  0  0
 29 35  1  0  0  0  0
 29 34  1  0  0  0  0
 30 31  1  0  0  0  0
 30 29  2  0  0  0  0
 31 32  2  0  0  0  0
 32 33  1  0  0  0  0
 33 37  1  0  0  0  0
 34 33  2  0  0  0  0
 36 31  1  0  0  0  0
 37 39  1  0  0  0  0
 37 38  1  0  0  0  0
 40 37  1  0  0  0  0
 40 44  2  0  0  0  0
 41 42  2  0  0  0  0
 41 40  1  0  0  0  0
 42 43  1  0  0  0  0
 43 47  1  0  0  0  0
 43 44  1  0  0  0  0
 45 41  1  0  0  0  0
 46 42  1  0  0  0  0
M  END
>  <minimizedAffinity>
-5.93578196

>  <minimizedRMSD>
0.501932681

$$$$
