
     RDKit          3D

 50 53  0  0  0  0  0  0  0  0999 V2000
   46.0833   31.7364   45.2722 C   0  0  0  0  0  0  0  0  0  0  0  0
   47.1064   32.4901   47.3886 C   0  0  0  0  0  0  0  0  0  0  0  0
   46.9788   31.4917   46.3957 C   0  0  0  0  0  0  0  0  0  0  0  0
   47.6920   30.3210   46.5691 C   0  0  0  0  0  0  0  0  0  0  0  0
   48.4648   30.1938   47.6713 N   0  0  0  0  0  0  0  0  0  0  0  0
   48.5628   31.1487   48.5899 C   0  0  0  0  0  0  0  0  0  0  0  0
   47.8874   32.3159   48.4694 N   0  0  0  0  0  0  0  0  0  0  0  0
   49.4391   30.9076   49.7859 C   0  0  0  0  0  0  0  0  0  0  0  0
   50.7041   31.6302   49.7340 C   0  0  0  0  0  0  0  0  0  0  0  0
   51.8987   31.1206   49.2400 C   0  0  0  0  0  0  0  0  0  0  0  0
   52.8633   32.0870   49.3554 C   0  0  0  0  0  0  0  0  0  0  0  0
   52.2245   33.1599   49.9185 N   0  0  0  0  0  0  0  0  0  0  0  0
   50.9386   32.8894   50.1444 N   0  0  0  0  0  0  0  0  0  0  0  0
   46.7442   32.7200   44.3590 C   0  0  0  0  0  0  0  0  0  0  0  0
   46.2808   34.6765   43.0087 C   0  0  0  0  0  0  0  0  0  0  0  0
   46.0399   34.0010   44.1831 C   0  0  0  0  0  0  0  0  0  0  0  0
   45.2212   34.4092   45.1629 C   0  0  0  0  0  0  0  0  0  0  0  0
   44.5603   35.5951   45.0036 C   0  0  0  0  0  0  0  0  0  0  0  0
   44.7161   36.3511   43.8870 C   0  0  0  0  0  0  0  0  0  0  0  0
   45.5754   35.8644   42.9199 C   0  0  0  0  0  0  0  0  0  0  0  0
   47.3767   34.3072   41.7528 S   0  0  0  0  0  0  0  0  0  0  0  0
   48.3626   35.3948   41.4519 O   0  0  0  0  0  0  0  0  0  0  0  0
   46.5069   34.2304   40.4626 O   0  0  0  0  0  0  0  0  0  0  0  0
   45.9080   30.7224   44.8197 H   0  0  0  0  0  0  0  0  0  0  0  0
   45.0438   32.0099   45.5804 H   0  0  0  0  0  0  0  0  0  0  0  0
   46.6591   33.4643   47.4564 H   0  0  0  0  0  0  0  0  0  0  0  0
   47.5961   29.5630   45.8123 H   0  0  0  0  0  0  0  0  0  0  0  0
   48.8526   31.2861   50.6712 H   0  0  0  0  0  0  0  0  0  0  0  0
   49.5704   29.8134   49.9459 H   0  0  0  0  0  0  0  0  0  0  0  0
   52.0516   30.1353   48.8334 H   0  0  0  0  0  0  0  0  0  0  0  0
   53.9136   32.0832   49.0869 H   0  0  0  0  0  0  0  0  0  0  0  0
   52.6882   34.0746   50.1422 H   0  0  0  0  0  0  0  0  0  0  0  0
   47.7497   32.9909   44.7091 H   0  0  0  0  0  0  0  0  0  0  0  0
   46.6953   32.2302   43.3981 H   0  0  0  0  0  0  0  0  0  0  0  0
   44.9605   33.9577   46.0796 H   0  0  0  0  0  0  0  0  0  0  0  0
   43.8700   36.0368   45.7257 H   0  0  0  0  0  0  0  0  0  0  0  0
   44.2164   37.2961   43.7114 H   0  0  0  0  0  0  0  0  0  0  0  0
   45.6919   36.4894   42.0148 H   0  0  0  0  0  0  0  0  0  0  0  0
   50.7472   33.5186   41.5830 O   0  0  0  0  0  0  0  0  0  0  0  0
   49.6694   32.8947   41.4044 C   0  0  0  0  0  0  0  0  0  0  0  0
   48.1896   32.8427   41.5435 C   0  0  2  0  0  0  0  0  0  0  0  0
   47.9113   32.4214   40.0899 C   0  0  2  0  0  0  0  0  0  0  0  0
   48.2723   33.1612   39.3641 H   0  0  0  0  0  0  0  0  0  0  0  0
   48.7352   31.1368   40.0611 C   0  0  2  0  0  0  0  0  0  0  0  0
   48.9220   30.8604   39.0266 H   0  0  0  0  0  0  0  0  0  0  0  0
   49.9301   31.6234   40.7684 N   0  0  0  0  0  0  0  0  0  0  0  0
   47.8503   31.9103   42.0387 H   0  0  0  0  0  0  0  0  0  0  0  0
   46.8307   32.2229   39.9237 H   0  0  0  0  0  0  0  0  0  0  0  0
   48.1847   30.3855   40.6457 H   0  0  0  0  0  0  0  0  0  0  0  0
   50.7343   30.9347   40.6613 H   0  0  0  0  0  0  0  0  0  0  0  0
  1  3  1  0
  2  7  2  0
  3  4  2  0
  3  2  1  0
  4  5  1  0
  5  6  2  0
  6  8  1  0
  7  6  1  0
  9  8  1  0
  9 13  2  0
 10 11  2  0
 10  9  1  0
 11 12  1  0
 12 13  1  0
 14  1  1  0
 15 16  1  0
 16 14  1  0
 16 17  2  0
 18 17  1  0
 19 18  2  0
 20 15  2  0
 20 19  1  0
 21 15  1  0
 22 21  2  0
 23 21  2  0
  1 24  1  0
  1 25  1  0
  2 26  1  0
  4 27  1  0
  8 28  1  0
  8 29  1  0
 10 30  1  0
 11 31  1  0
 12 32  1  0
 14 33  1  0
 14 34  1  0
 17 35  1  0
 18 36  1  0
 19 37  1  0
 20 38  1  0
 39 40  2  0
 40 41  1  0
 41 42  1  0
 42 43  1  6
 42 44  1  0
 44 45  1  6
 44 46  1  0
 46 40  1  0
 41 47  1  1
 42 48  1  0
 44 49  1  0
 46 50  1  0
 21 41  1  0
M  ISO  8  24   8  25   8  26  14  27  14  28   8  29   8  30  14  31  14
M  ISO  8  32   9  33   8  34   8  35  14  36  14  37  14  38  14  43   8
M  ISO  1  45   8
M  END
>  <DihAtoms>  (1) 
14,20,40,39

>  <DihDeg>  (1) 
-81.71001259334523

$$$$
