REMARK  Name = 
REMARK  3 active torsions:
REMARK  status: ('A' for Active; 'I' for Inactive)
REMARK    1  A    between atoms: C_1  and  C_7
REMARK    2  A    between atoms: C_11  and  C_13
REMARK    3  A    between atoms: N_16  and  C_34
REMARK                            x       y       z     vdW  Elec       q    Type
REMARK                         _______ _______ _______ _____ _____    ______ ____
ROOT
ATOM      1  C   UNL     1      47.869  33.702  42.888  0.00  0.00    +0.000 A 
ATOM      2  C   UNL     1      48.578  34.900  42.709  0.00  0.00    +0.000 A 
ATOM      3  C   UNL     1      49.947  34.862  42.375  0.00  0.00    +0.000 A 
ATOM      4  N   UNL     1      50.501  33.612  42.248  0.00  0.00    +0.000 NA
ATOM      5  C   UNL     1      49.774  32.467  42.431  0.00  0.00    +0.000 A 
ATOM      6  N   UNL     1      48.489  32.531  42.743  0.00  0.00    +0.000 NA
ATOM      7  H   UNL     1      48.221  35.917  42.790  0.00  0.00    +0.000 HD
ATOM      8  H   UNL     1      50.546  35.742  42.224  0.00  0.00    +0.000 HD
ENDROOT
BRANCH   1   9
ATOM      9  C   UNL     1      46.443  33.866  43.240  0.00  0.00    +0.000 C 
ATOM     10  C   UNL     1      45.748  34.873  42.437  0.00  0.00    +0.000 C 
ATOM     11  C   UNL     1      45.334  36.082  43.192  0.00  0.00    +0.000 C 
ATOM     12  C   UNL     1      44.549  35.769  44.453  0.00  0.00    +0.000 C 
ATOM     13  C   UNL     1      44.989  34.508  45.157  0.00  0.00    +0.000 C 
ATOM     14  C   UNL     1      46.410  34.151  44.752  0.00  0.00    +0.000 C 
ATOM     15  H   UNL     1      45.944  32.855  43.169  0.00  0.00    +0.000 HD
ATOM     16  H   UNL     1      46.454  35.230  41.640  0.00  0.00    +0.000 HD
ATOM     17  H   UNL     1      44.871  34.439  41.911  0.00  0.00    +0.000 HD
ATOM     18  H   UNL     1      46.096  36.826  43.408  0.00  0.00    +0.000 HD
ATOM     19  H   UNL     1      44.585  36.617  42.536  0.00  0.00    +0.000 HD
ATOM     20  H   UNL     1      43.446  35.739  44.270  0.00  0.00    +0.000 HD
ATOM     21  H   UNL     1      44.712  36.598  45.173  0.00  0.00    +0.000 HD
ATOM     22  H   UNL     1      44.908  34.549  46.241  0.00  0.00    +0.000 HD
ATOM     23  H   UNL     1      44.335  33.695  44.748  0.00  0.00    +0.000 HD
ATOM     24  H   UNL     1      47.025  35.034  45.001  0.00  0.00    +0.000 HD
ATOM     25  H   UNL     1      46.705  33.226  45.284  0.00  0.00    +0.000 HD
ENDBRANCH   1   9
BRANCH   5  26
ATOM     26  C   UNL     1      50.522  31.232  42.265  0.00  0.00    +0.000 A 
ATOM     27  N   UNL     1      51.584  31.248  41.430  0.00  0.00    +0.000 NA
ATOM     28  C   UNL     1      52.160  30.038  41.394  0.00  0.00    +0.000 A 
ATOM     29  N   UNL     1      51.437  29.252  42.229  0.00  0.00    +0.000 N 
ATOM     30  N   UNL     1      50.435  29.977  42.762  0.00  0.00    +0.000 NA
ATOM     31  H   UNL     1      53.021  29.698  40.839  0.00  0.00    +0.000 HD
BRANCH  29  34
ATOM     32  O   UNL     1      50.762  27.123  40.594  0.00  0.00    +0.000 OA
ATOM     33  C   UNL     1      51.775  27.012  41.337  0.00  0.00    +0.000 C 
ATOM     34  C   UNL     1      51.637  27.864  42.549  0.00  0.00    +0.000 C 
ATOM     35  C   UNL     1      53.015  27.710  43.162  0.00  0.00    +0.000 C 
ATOM     36  H   UNL     1      52.895  27.779  44.271  0.00  0.00    +0.000 HD
ATOM     37  C   UNL     1      53.420  26.309  42.743  0.00  0.00    +0.000 C 
ATOM     38  H   UNL     1      52.781  25.578  43.269  0.00  0.00    +0.000 HD
ATOM     39  N   UNL     1      53.024  26.301  41.348  0.00  0.00    +0.000 N 
ATOM     40  H   UNL     1      53.304  25.979  40.387  0.00  0.00    +0.000 HD
ENDBRANCH  29  34
ENDBRANCH   5  26
TORSDOF 3
