
 OpenBabel03242522413D

 47 50  0  0  1  0  0  0  0  0999 V2000
   47.2320   32.7410   44.4520 C   0  0  0  0  0  0  0  0  0  0  0  0
   48.0760   33.1280   45.0400 H   0  0  0  0  0  0  0  0  0  0  0  0
   47.4890   32.2380   43.5320 H   0  0  0  0  0  0  0  0  0  0  0  0
   46.9740   34.6580   42.9960 C   0  0  0  0  0  0  0  0  0  0  0  0
   46.4660   33.9320   44.0480 C   0  0  0  0  0  0  0  0  0  0  0  0
   45.3410   34.2150   44.7200 C   0  0  0  0  0  0  0  0  0  0  0  0
   44.6230   35.3160   44.3470 C   0  0  0  0  0  0  0  0  0  0  0  0
   45.0220   36.1110   43.3210 C   0  0  0  0  0  0  0  0  0  0  0  0
   46.1910   35.7540   42.6750 C   0  0  0  0  0  0  0  0  0  0  0  0
   44.8680   33.7150   45.5190 H   0  0  0  0  0  0  0  0  0  0  0  0
   43.6950   35.6550   44.8130 H   0  0  0  0  0  0  0  0  0  0  0  0
   44.4900   36.9930   42.9850 H   0  0  0  0  0  0  0  0  0  0  0  0
   46.5040   36.4100   41.8410 H   0  0  0  0  0  0  0  0  0  0  0  0
   48.4400   34.4530   42.1460 S   0  0  0  0  0  0  0  0  0  0  0  0
   49.6640   34.4650   43.0110 O   0  0  0  0  0  0  0  0  0  0  0  0
   48.5900   35.7370   41.2760 O   0  0  0  0  0  0  0  0  0  0  0  0
   46.7020   31.6410   41.1090 O   0  0  0  0  0  0  0  0  0  0  0  0
   47.8100   32.1650   40.8280 C   0  0  0  0  0  0  0  0  0  0  0  0
   48.7260   33.3340   40.9160 C   0  0  2  0  0  3  0  0  0  0  0  0
   49.9590   32.5320   41.3660 C   0  0  0  0  0  3  0  0  0  0  0  0
   49.7950   32.0140   42.3190 H   0  0  0  0  0  0  0  0  0  0  0  0
   50.0460   31.5630   40.1900 C   0  0  0  0  0  3  0  0  0  0  0  0
   50.6600   30.7140   40.4770 H   0  0  0  0  0  0  0  0  0  0  0  0
   48.6170   31.2420   40.0610 N   0  0  0  0  0  0  0  0  0  0  0  0
   48.4780   30.3970   39.4280 H   0  0  0  0  0  0  0  0  0  0  0  0
   46.4630   31.6980   45.2020 C   0  0  0  0  0  0  0  0  0  0  0  0
   46.3330   30.7270   44.6510 H   0  0  0  0  0  0  0  0  0  0  0  0
   45.3980   31.9650   45.4120 H   0  0  0  0  0  0  0  0  0  0  0  0
   47.2340   32.2560   47.4800 C   0  0  0  0  0  0  0  0  0  0  0  0
   47.2240   31.3500   46.3960 C   0  0  0  0  0  0  0  0  0  0  0  0
   47.9130   30.1620   46.5470 C   0  0  0  0  0  0  0  0  0  0  0  0
   48.5540   29.9320   47.7150 N   0  0  0  0  0  0  0  0  0  0  0  0
   48.5440   30.8030   48.7190 C   0  0  0  0  0  0  0  0  0  0  0  0
   47.8850   31.9820   48.6240 N   0  0  0  0  0  0  0  0  0  0  0  0
   46.7810   33.2250   47.5800 H   0  0  0  0  0  0  0  0  0  0  0  0
   47.9060   29.4730   45.7200 H   0  0  0  0  0  0  0  0  0  0  0  0
   49.2760   30.4510   49.9820 C   0  0  0  0  0  0  0  0  0  0  0  0
   48.5340   30.6080   50.8160 H   0  0  0  0  0  0  0  0  0  0  0  0
   49.5230   29.3650   49.9880 H   0  0  0  0  0  0  0  0  0  0  0  0
   50.4350   31.2980   50.2370 C   0  0  0  0  0  0  0  0  0  0  0  0
   51.4280   31.5990   49.3130 C   0  0  0  0  0  0  0  0  0  0  0  0
   52.3460   32.4190   49.9130 C   0  0  0  0  0  0  0  0  0  0  0  0
   51.8830   32.5940   51.1910 N   0  0  0  0  0  0  0  0  0  0  0  0
   50.7450   31.9280   51.3840 N   0  0  0  0  0  0  0  0  0  0  0  0
   51.4770   31.2510   48.2940 H   0  0  0  0  0  0  0  0  0  0  0  0
   53.2570   32.8690   49.5350 H   0  0  0  0  0  0  0  0  0  0  0  0
   52.3620   33.1780   51.9200 H   0  0  0  0  0  0  0  0  0  0  0  0
  1  2  1  0  0  0  0
  1 26  1  0  0  0  0
  3  1  1  0  0  0  0
  4  5  1  0  0  0  0
  5  1  1  0  0  0  0
  5  6  2  0  0  0  0
  6 10  1  0  0  0  0
  7  6  1  0  0  0  0
  7 11  1  0  0  0  0
  8  7  2  0  0  0  0
  9  4  2  0  0  0  0
  9  8  1  0  0  0  0
 12  8  1  0  0  0  0
 13  9  1  0  0  0  0
 14  4  1  0  0  0  0
 14 15  2  0  0  0  0
 16 14  2  0  0  0  0
 18 19  1  0  0  0  0
 18 17  2  0  0  0  0
 19 20  1  0  0  0  0
 19 14  1  1  0  0  0
 20 21  1  0  0  0  0
 22 23  1  0  0  0  0
 22 20  1  0  0  0  0
 24 22  1  0  0  0  0
 24 18  1  0  0  0  0
 25 24  1  0  0  0  0
 26 28  1  0  0  0  0
 26 30  1  0  0  0  0
 27 26  1  0  0  0  0
 29 35  1  0  0  0  0
 29 34  1  0  0  0  0
 30 31  1  0  0  0  0
 30 29  2  0  0  0  0
 31 32  2  0  0  0  0
 32 33  1  0  0  0  0
 33 37  1  0  0  0  0
 34 33  2  0  0  0  0
 36 31  1  0  0  0  0
 37 39  1  0  0  0  0
 37 40  1  0  0  0  0
 37 38  1  0  0  0  0
 40 44  2  0  0  0  0
 41 42  2  0  0  0  0
 41 40  1  0  0  0  0
 42 43  1  0  0  0  0
 43 44  1  0  0  0  0
 43 47  1  0  0  0  0
 45 41  1  0  0  0  0
 46 42  1  0  0  0  0
M  END
>  <minimizedAffinity>
-6.00760221

>  <minimizedRMSD>
1.16789961

$$$$
