
     RDKit          3D

 43 46  0  0  0  0  0  0  0  0999 V2000
   46.4429   33.8663   43.2397 C   0  0  0  0  0  0  0  0  0  0  0  0
   45.7485   34.8729   42.4367 C   0  0  0  0  0  0  0  0  0  0  0  0
   45.3343   36.0818   43.1921 C   0  0  0  0  0  0  0  0  0  0  0  0
   44.5491   35.7693   44.4525 C   0  0  0  0  0  0  0  0  0  0  0  0
   44.9887   34.5079   45.1569 C   0  0  0  0  0  0  0  0  0  0  0  0
   46.4103   34.1515   44.7525 C   0  0  0  0  0  0  0  0  0  0  0  0
   47.8691   33.7016   42.8878 C   0  0  0  0  0  0  0  0  0  0  0  0
   48.5785   34.8999   42.7085 C   0  0  0  0  0  0  0  0  0  0  0  0
   49.9471   34.8624   42.3754 C   0  0  0  0  0  0  0  0  0  0  0  0
   50.5007   33.6124   42.2479 N   0  0  0  0  0  0  0  0  0  0  0  0
   49.7736   32.4671   42.4315 C   0  0  0  0  0  0  0  0  0  0  0  0
   48.4894   32.5308   42.7435 N   0  0  0  0  0  0  0  0  0  0  0  0
   50.5215   31.2323   42.2647 C   0  0  0  0  0  0  0  0  0  0  0  0
   51.5836   31.2482   41.4297 N   0  0  0  0  0  0  0  0  0  0  0  0
   52.1605   30.0377   41.3943 C   0  0  0  0  0  0  0  0  0  0  0  0
   51.4368   29.2515   42.2291 N   0  0  0  0  0  0  0  0  0  0  0  0
   50.4354   29.9766   42.7623 N   0  0  0  0  0  0  0  0  0  0  0  0
   45.9436   32.8548   43.1688 H   0  0  0  0  0  0  0  0  0  0  0  0
   46.4538   35.2300   41.6402 H   0  0  0  0  0  0  0  0  0  0  0  0
   44.8707   34.4394   41.9115 H   0  0  0  0  0  0  0  0  0  0  0  0
   46.0956   36.8259   43.4084 H   0  0  0  0  0  0  0  0  0  0  0  0
   44.5849   36.6172   42.5359 H   0  0  0  0  0  0  0  0  0  0  0  0
   43.4455   35.7393   44.2704 H   0  0  0  0  0  0  0  0  0  0  0  0
   44.7121   36.5980   45.1735 H   0  0  0  0  0  0  0  0  0  0  0  0
   44.9082   34.5486   46.2407 H   0  0  0  0  0  0  0  0  0  0  0  0
   44.3349   33.6949   44.7475 H   0  0  0  0  0  0  0  0  0  0  0  0
   47.0251   35.0342   45.0013 H   0  0  0  0  0  0  0  0  0  0  0  0
   46.7050   33.2256   45.2841 H   0  0  0  0  0  0  0  0  0  0  0  0
   48.2206   35.9171   42.7900 H   0  0  0  0  0  0  0  0  0  0  0  0
   50.5460   35.7420   42.2245 H   0  0  0  0  0  0  0  0  0  0  0  0
   53.0210   29.6976   40.8389 H   0  0  0  0  0  0  0  0  0  0  0  0
   52.9868   27.4839   40.7689 O   0  0  0  0  0  0  0  0  0  0  0  0
   52.9230   27.3350   42.0194 C   0  0  0  0  0  0  0  0  0  0  0  0
   51.6368   27.8640   42.5488 C   0  0  1  0  0  0  0  0  0  0  0  0
   51.8765   27.7483   44.0419 C   0  0  2  0  0  0  0  0  0  0  0  0
   50.8875   27.5473   44.5221 H   0  0  0  0  0  0  0  0  0  0  0  0
   52.7905   26.5417   44.1481 C   0  0  2  0  0  0  0  0  0  0  0  0
   52.2226   25.6357   43.8707 H   0  0  0  0  0  0  0  0  0  0  0  0
   53.7347   26.8019   43.0789 N   0  0  0  0  0  0  0  0  0  0  0  0
   50.8239   27.2164   42.1914 H   0  0  0  0  0  0  0  0  0  0  0  0
   52.3881   28.6362   44.4194 H   0  0  0  0  0  0  0  0  0  0  0  0
   53.2242   26.5244   45.1485 H   0  0  0  0  0  0  0  0  0  0  0  0
   54.7491   26.7453   42.8087 H   0  0  0  0  0  0  0  0  0  0  0  0
  1  6  1  0
  2  3  1  0
  2  1  1  0
  3  4  1  0
  4  5  1  0
  6  5  1  0
  7  1  1  0
  8  7  2  0
  9  8  1  0
 10  9  2  0
 10 11  1  0
 11 12  2  0
 12  7  1  0
 13 11  1  0
 13 17  2  0
 14 13  1  0
 15 14  2  0
 15 16  1  0
 16 17  1  0
  1 18  1  0
  2 19  1  0
  2 20  1  0
  3 21  1  0
  3 22  1  0
  4 23  1  0
  4 24  1  0
  5 25  1  0
  5 26  1  0
  6 27  1  0
  6 28  1  0
  8 29  1  0
  9 30  1  0
 15 31  1  0
 32 33  2  0
 33 34  1  0
 34 35  1  0
 35 36  1  1
 35 37  1  0
 37 38  1  6
 37 39  1  0
 39 33  1  0
 34 40  1  6
 35 41  1  0
 37 42  1  0
 39 43  1  0
 16 34  1  0
M  ISO  8  18  13  19  13  20  13  21  13  22  13  23  13  24  13  25  13
M  ISO  8  26  13  27  13  28  13  29  14  30  14  31  14  36   8  38   8
M  END
>  <DihAtoms>  (1) 
14,15,33,32

>  <DihDeg>  (1) 
144.35866362707128

$$$$
