
 OpenBabel03252506223D

 35 37  0  0  1  0  0  0  0  0999 V2000
   37.9970   30.4920   41.1530 C   0  0  0  0  0  0  0  0  0  0  0  0
   36.8230   31.1630   40.7940 C   0  0  0  0  0  0  0  0  0  0  0  0
   35.6840   30.3920   40.5470 C   0  0  0  0  0  0  0  0  0  0  0  0
   35.7720   29.0390   40.6650 N   0  0  0  0  0  0  0  0  0  0  0  0
   36.9300   28.4310   41.0160 C   0  0  0  0  0  0  0  0  0  0  0  0
   38.0390   29.1610   41.2580 N   0  0  0  0  0  0  0  0  0  0  0  0
   36.8160   32.2430   40.7160 H   0  0  0  0  0  0  0  0  0  0  0  0
   34.7520   30.8770   40.2650 H   0  0  0  0  0  0  0  0  0  0  0  0
   36.8690   27.3450   43.8450 Cl  0  0  0  0  0  0  0  0  0  0  0  0
   36.9040   26.4020   42.3900 C   0  0  0  0  0  0  0  0  0  0  0  0
   36.9310   26.9600   41.1190 C   0  0  0  0  0  0  0  0  0  0  0  0
   36.9570   26.2320   39.9670 C   0  0  0  0  0  0  0  0  0  0  0  0
   36.9570   24.8720   40.0860 C   0  0  0  0  0  0  0  0  0  0  0  0
   36.9320   24.2050   41.2970 C   0  0  0  0  0  0  0  0  0  0  0  0
   36.9050   25.0210   42.4130 C   0  0  0  0  0  0  0  0  0  0  0  0
   36.9780   26.7480   39.0100 H   0  0  0  0  0  0  0  0  0  0  0  0
   36.9790   24.2740   39.1800 H   0  0  0  0  0  0  0  0  0  0  0  0
   36.9320   23.1320   41.3980 H   0  0  0  0  0  0  0  0  0  0  0  0
   36.8850   24.5120   43.3810 H   0  0  0  0  0  0  0  0  0  0  0  0
   39.2190   31.2880   41.4210 C   0  0  0  0  0  3  0  0  0  0  0  0
   40.2180   31.1820   40.5650 C   0  0  0  0  0  3  0  0  0  0  0  0
   41.4600   31.9940   40.8410 C   0  0  0  0  0  0  0  0  0  0  0  0
   41.2000   33.0480   41.0600 H   0  0  0  0  0  0  0  0  0  0  0  0
   41.9760   31.4570   41.6390 H   0  0  0  0  0  0  0  0  0  0  0  0
   42.2170   31.9920   39.5910 N   0  0  0  0  0  0  0  0  0  0  0  0
   42.3700   31.0420   39.2440 H   0  0  0  0  0  0  0  0  0  0  0  0
   42.5260   31.5710   36.7470 O   0  0  0  0  0  0  0  0  0  0  0  0
   42.2230   32.6990   37.2680 C   0  0  0  0  0  0  0  0  0  0  0  0
   41.5570   32.8050   38.5900 C   0  0  2  0  0  3  0  0  0  0  0  0
   41.6310   34.2840   38.8770 C   0  0  0  0  0  3  0  0  0  0  0  0
   40.6200   34.7120   38.6220 H   0  0  0  0  0  0  0  0  0  0  0  0
   42.5890   34.8710   37.8610 C   0  0  0  0  0  3  0  0  0  0  0  0
   42.3230   35.9190   37.6070 H   0  0  0  0  0  0  0  0  0  0  0  0
   42.4580   34.0050   36.7050 N   0  0  0  0  0  0  0  0  0  0  0  0
   42.5030   34.1750   35.6710 H   0  0  0  0  0  0  0  0  0  0  0  0
  1  6  1  0  0  0  0
  1 20  1  0  0  0  0
  2  1  2  0  0  0  0
  3  4  2  0  0  0  0
  3  2  1  0  0  0  0
  4  5  1  0  0  0  0
  5 11  1  0  0  0  0
  5  6  2  0  0  0  0
  7  2  1  0  0  0  0
  8  3  1  0  0  0  0
 10 15  1  0  0  0  0
 10  9  1  0  0  0  0
 11 10  2  0  0  0  0
 12 13  2  0  0  0  0
 12 11  1  0  0  0  0
 13 14  1  0  0  0  0
 14 18  1  0  0  0  0
 14 15  2  0  0  0  0
 15 19  1  0  0  0  0
 16 12  1  0  0  0  0
 17 13  1  0  0  0  0
 21 22  1  0  0  0  0
 21 20  2  0  0  0  0
 22 23  1  0  0  0  0
 22 24  1  0  0  0  0
 25 22  1  0  0  0  0
 26 25  1  0  0  0  0
 27 28  2  0  0  0  0
 28 29  1  0  0  0  0
 29 30  1  0  0  0  0
 29 25  1  1  0  0  0
 31 30  1  0  0  0  0
 32 30  1  0  0  0  0
 33 32  1  0  0  0  0
 34 28  1  0  0  0  0
 34 32  1  0  0  0  0
 35 34  1  0  0  0  0
M  END
>  <minimizedAffinity>
-5.85116529

$$$$

 OpenBabel03252506223D

 35 37  0  0  1  0  0  0  0  0999 V2000
   37.1160   30.8100   40.5700 C   0  0  0  0  0  0  0  0  0  0  0  0
   35.8080   30.4230   40.2580 C   0  0  0  0  0  0  0  0  0  0  0  0
   35.4250   29.1160   40.5690 C   0  0  0  0  0  0  0  0  0  0  0  0
   36.3340   28.2900   41.1550 N   0  0  0  0  0  0  0  0  0  0  0  0
   37.5910   28.7070   41.4400 C   0  0  0  0  0  0  0  0  0  0  0  0
   37.9770   29.9660   41.1460 N   0  0  0  0  0  0  0  0  0  0  0  0
   35.1300   31.1280   39.7910 H   0  0  0  0  0  0  0  0  0  0  0  0
   34.4160   28.7780   40.3410 H   0  0  0  0  0  0  0  0  0  0  0  0
   39.2140   27.0220   39.5120 Cl  0  0  0  0  0  0  0  0  0  0  0  0
   39.2800   26.9410   41.2430 C   0  0  0  0  0  0  0  0  0  0  0  0
   38.5080   27.7420   42.0750 C   0  0  0  0  0  0  0  0  0  0  0  0
   38.5500   27.6900   43.4360 C   0  0  0  0  0  0  0  0  0  0  0  0
   39.4060   26.7900   44.0030 C   0  0  0  0  0  0  0  0  0  0  0  0
   40.2210   25.9410   43.2760 C   0  0  0  0  0  0  0  0  0  0  0  0
   40.1160   26.0620   41.9040 C   0  0  0  0  0  0  0  0  0  0  0  0
   37.9120   28.3540   44.0150 H   0  0  0  0  0  0  0  0  0  0  0  0
   39.4530   26.7320   45.0860 H   0  0  0  0  0  0  0  0  0  0  0  0
   40.9000   25.2290   43.7170 H   0  0  0  0  0  0  0  0  0  0  0  0
   40.7530   25.3990   41.3110 H   0  0  0  0  0  0  0  0  0  0  0  0
   37.5470   32.1920   40.2500 C   0  0  0  0  0  3  0  0  0  0  0  0
   38.6950   32.6070   40.7530 C   0  0  0  0  0  3  0  0  0  0  0  0
   39.1290   34.0150   40.4250 C   0  0  0  0  0  0  0  0  0  0  0  0
   38.2660   34.6250   40.0940 H   0  0  0  0  0  0  0  0  0  0  0  0
   39.6430   34.3670   41.3200 H   0  0  0  0  0  0  0  0  0  0  0  0
   40.0290   33.8910   39.2800 N   0  0  0  0  0  0  0  0  0  0  0  0
   39.5330   34.0120   38.3950 H   0  0  0  0  0  0  0  0  0  0  0  0
   42.1380   34.0960   37.3130 O   0  0  0  0  0  0  0  0  0  0  0  0
   42.2790   34.4260   38.5400 C   0  0  0  0  0  0  0  0  0  0  0  0
   41.1290   34.8280   39.3870 C   0  0  2  0  0  3  0  0  0  0  0  0
   41.7380   34.8800   40.7660 C   0  0  0  0  0  3  0  0  0  0  0  0
   41.9460   35.9660   40.9840 H   0  0  0  0  0  0  0  0  0  0  0  0
   43.0970   34.2190   40.6600 C   0  0  0  0  0  3  0  0  0  0  0  0
   43.8210   34.6560   41.3790 H   0  0  0  0  0  0  0  0  0  0  0  0
   43.5090   34.4670   39.2910 N   0  0  0  0  0  0  0  0  0  0  0  0
   44.4390   34.6470   38.8420 H   0  0  0  0  0  0  0  0  0  0  0  0
  1  6  1  0  0  0  0
  2  3  1  0  0  0  0
  2  1  2  0  0  0  0
  3  4  2  0  0  0  0
  4  5  1  0  0  0  0
  5 11  1  0  0  0  0
  6  5  2  0  0  0  0
  7  2  1  0  0  0  0
  8  3  1  0  0  0  0
  9 10  1  0  0  0  0
 10 15  2  0  0  0  0
 10 11  1  0  0  0  0
 11 12  2  0  0  0  0
 12 13  1  0  0  0  0
 12 16  1  0  0  0  0
 13 17  1  0  0  0  0
 14 18  1  0  0  0  0
 14 13  2  0  0  0  0
 15 14  1  0  0  0  0
 19 15  1  0  0  0  0
 20  1  1  0  0  0  0
 20 21  2  0  0  0  0
 22 21  1  0  0  0  0
 22 24  1  0  0  0  0
 23 22  1  0  0  0  0
 25 22  1  0  0  0  0
 26 25  1  0  0  0  0
 27 28  2  0  0  0  0
 28 34  1  0  0  0  0
 28 29  1  0  0  0  0
 29 25  1  1  0  0  0
 29 30  1  0  0  0  0
 30 31  1  0  0  0  0
 32 30  1  0  0  0  0
 32 33  1  0  0  0  0
 34 32  1  0  0  0  0
 35 34  1  0  0  0  0
M  END
>  <minimizedAffinity>
-5.83709621

$$$$

 OpenBabel03252506223D

 35 37  0  0  1  0  0  0  0  0999 V2000
   37.2070   30.8650   40.5360 C   0  0  0  0  0  0  0  0  0  0  0  0
   35.9610   30.4050   40.0960 C   0  0  0  0  0  0  0  0  0  0  0  0
   35.6550   29.0570   40.3050 C   0  0  0  0  0  0  0  0  0  0  0  0
   36.5760   28.2660   40.9210 N   0  0  0  0  0  0  0  0  0  0  0  0
   37.7700   28.7540   41.3310 C   0  0  0  0  0  0  0  0  0  0  0  0
   38.0810   30.0530   41.1370 N   0  0  0  0  0  0  0  0  0  0  0  0
   35.2710   31.0850   39.6110 H   0  0  0  0  0  0  0  0  0  0  0  0
   34.6960   28.6620   39.9760 H   0  0  0  0  0  0  0  0  0  0  0  0
   37.1590   28.1670   44.2420 Cl  0  0  0  0  0  0  0  0  0  0  0  0
   38.4770   27.5130   43.3240 C   0  0  0  0  0  0  0  0  0  0  0  0
   38.7040   27.8230   41.9890 C   0  0  0  0  0  0  0  0  0  0  0  0
   39.7350   27.3160   41.2550 C   0  0  0  0  0  0  0  0  0  0  0  0
   40.5880   26.4550   41.8830 C   0  0  0  0  0  0  0  0  0  0  0  0
   40.4610   26.0750   43.2070 C   0  0  0  0  0  0  0  0  0  0  0  0
   39.3890   26.6350   43.8750 C   0  0  0  0  0  0  0  0  0  0  0  0
   39.8430   27.6090   40.2130 H   0  0  0  0  0  0  0  0  0  0  0  0
   41.4160   26.0410   41.3160 H   0  0  0  0  0  0  0  0  0  0  0  0
   41.1310   25.3960   43.7090 H   0  0  0  0  0  0  0  0  0  0  0  0
   39.2710   26.3470   44.9250 H   0  0  0  0  0  0  0  0  0  0  0  0
   37.5550   32.2910   40.3260 C   0  0  0  0  0  3  0  0  0  0  0  0
   38.7270   32.7060   40.7680 C   0  0  0  0  0  3  0  0  0  0  0  0
   39.0780   34.1590   40.5530 C   0  0  0  0  0  0  0  0  0  0  0  0
   38.1610   34.7710   40.4420 H   0  0  0  0  0  0  0  0  0  0  0  0
   39.7250   34.4200   41.3910 H   0  0  0  0  0  0  0  0  0  0  0  0
   39.7810   34.2070   39.2720 N   0  0  0  0  0  0  0  0  0  0  0  0
   39.2040   34.6270   38.5400 H   0  0  0  0  0  0  0  0  0  0  0  0
   41.9780   33.8890   37.4210 O   0  0  0  0  0  0  0  0  0  0  0  0
   42.1250   34.2460   38.6390 C   0  0  0  0  0  0  0  0  0  0  0  0
   41.0400   34.9110   39.4030 C   0  0  2  0  0  3  0  0  0  0  0  0
   41.5810   34.9110   40.8120 C   0  0  0  0  0  3  0  0  0  0  0  0
   41.9930   35.9430   40.9970 H   0  0  0  0  0  0  0  0  0  0  0  0
   42.7830   33.9880   40.8090 C   0  0  0  0  0  3  0  0  0  0  0  0
   43.5450   34.3090   41.5500 H   0  0  0  0  0  0  0  0  0  0  0  0
   43.3000   34.0800   39.4570 N   0  0  0  0  0  0  0  0  0  0  0  0
   44.2680   34.0490   39.0540 H   0  0  0  0  0  0  0  0  0  0  0  0
  1  6  1  0  0  0  0
  2  3  1  0  0  0  0
  2  1  2  0  0  0  0
  3  4  2  0  0  0  0
  4  5  1  0  0  0  0
  5 11  1  0  0  0  0
  6  5  2  0  0  0  0
  7  2  1  0  0  0  0
  8  3  1  0  0  0  0
 10 15  1  0  0  0  0
 10  9  1  0  0  0  0
 11 10  2  0  0  0  0
 12 13  2  0  0  0  0
 12 11  1  0  0  0  0
 13 14  1  0  0  0  0
 14 18  1  0  0  0  0
 14 15  2  0  0  0  0
 15 19  1  0  0  0  0
 16 12  1  0  0  0  0
 17 13  1  0  0  0  0
 20  1  1  0  0  0  0
 20 21  2  0  0  0  0
 22 21  1  0  0  0  0
 22 24  1  0  0  0  0
 23 22  1  0  0  0  0
 25 22  1  0  0  0  0
 26 25  1  0  0  0  0
 27 28  2  0  0  0  0
 28 29  1  0  0  0  0
 28 34  1  0  0  0  0
 29 25  1  1  0  0  0
 29 30  1  0  0  0  0
 30 31  1  0  0  0  0
 32 30  1  0  0  0  0
 32 33  1  0  0  0  0
 34 32  1  0  0  0  0
 35 34  1  0  0  0  0
M  END
>  <minimizedAffinity>
-5.74877214

$$$$

 OpenBabel03252506223D

 35 37  0  0  1  0  0  0  0  0999 V2000
   38.0660   30.0210   41.3270 C   0  0  0  0  0  0  0  0  0  0  0  0
   36.8880   30.7310   41.0670 C   0  0  0  0  0  0  0  0  0  0  0  0
   35.7350   29.9940   40.7820 C   0  0  0  0  0  0  0  0  0  0  0  0
   35.8130   28.6350   40.7720 N   0  0  0  0  0  0  0  0  0  0  0  0
   36.9750   27.9900   41.0310 C   0  0  0  0  0  0  0  0  0  0  0  0
   38.0970   28.6850   41.3070 N   0  0  0  0  0  0  0  0  0  0  0  0
   36.8900   31.8140   41.0890 H   0  0  0  0  0  0  0  0  0  0  0  0
   34.8000   30.5100   40.5740 H   0  0  0  0  0  0  0  0  0  0  0  0
   36.7170   26.7720   38.2660 Cl  0  0  0  0  0  0  0  0  0  0  0  0
   36.8490   25.8980   39.7580 C   0  0  0  0  0  0  0  0  0  0  0  0
   36.9640   26.5160   40.9980 C   0  0  0  0  0  0  0  0  0  0  0  0
   37.0700   25.8420   42.1770 C   0  0  0  0  0  0  0  0  0  0  0  0
   37.0590   24.4780   42.1230 C   0  0  0  0  0  0  0  0  0  0  0  0
   36.9480   23.7550   40.9490 C   0  0  0  0  0  0  0  0  0  0  0  0
   36.8470   24.5180   39.8010 C   0  0  0  0  0  0  0  0  0  0  0  0
   37.1570   26.4020   43.1050 H   0  0  0  0  0  0  0  0  0  0  0  0
   37.1400   23.9220   43.0520 H   0  0  0  0  0  0  0  0  0  0  0  0
   36.9380   22.6780   40.8990 H   0  0  0  0  0  0  0  0  0  0  0  0
   36.7580   23.9640   38.8610 H   0  0  0  0  0  0  0  0  0  0  0  0
   39.3020   30.7800   41.6320 C   0  0  0  0  0  3  0  0  0  0  0  0
   39.9220   31.3690   40.6260 C   0  0  0  0  0  3  0  0  0  0  0  0
   41.1810   32.1400   40.9400 C   0  0  0  0  0  0  0  0  0  0  0  0
   40.9470   33.2010   41.1590 H   0  0  0  0  0  0  0  0  0  0  0  0
   41.6580   31.5840   41.7480 H   0  0  0  0  0  0  0  0  0  0  0  0
   41.9700   32.1210   39.7110 N   0  0  0  0  0  0  0  0  0  0  0  0
   42.0960   31.1700   39.3570 H   0  0  0  0  0  0  0  0  0  0  0  0
   42.1780   31.6070   36.8730 O   0  0  0  0  0  0  0  0  0  0  0  0
   41.9960   32.7700   37.3710 C   0  0  0  0  0  0  0  0  0  0  0  0
   41.3710   32.9710   38.7020 C   0  0  2  0  0  3  0  0  0  0  0  0
   41.5910   34.4430   38.9510 C   0  0  0  0  0  3  0  0  0  0  0  0
   40.6210   34.9590   38.7040 H   0  0  0  0  0  0  0  0  0  0  0  0
   42.5800   34.9110   37.9020 C   0  0  0  0  0  3  0  0  0  0  0  0
   42.4090   35.9730   37.6270 H   0  0  0  0  0  0  0  0  0  0  0  0
   42.3420   34.0340   36.7710 N   0  0  0  0  0  0  0  0  0  0  0  0
   42.3820   34.1750   35.7330 H   0  0  0  0  0  0  0  0  0  0  0  0
  1 20  1  0  0  0  0
  2  7  1  0  0  0  0
  2  1  2  0  0  0  0
  3  2  1  0  0  0  0
  4  3  2  0  0  0  0
  4  5  1  0  0  0  0
  5  6  2  0  0  0  0
  6  1  1  0  0  0  0
  8  3  1  0  0  0  0
  9 10  1  0  0  0  0
 10 15  2  0  0  0  0
 10 11  1  0  0  0  0
 11  5  1  0  0  0  0
 11 12  2  0  0  0  0
 12 16  1  0  0  0  0
 13 12  1  0  0  0  0
 13 17  1  0  0  0  0
 14 13  2  0  0  0  0
 15 14  1  0  0  0  0
 18 14  1  0  0  0  0
 19 15  1  0  0  0  0
 21 22  1  0  0  0  0
 21 20  2  0  0  0  0
 22 23  1  0  0  0  0
 22 24  1  0  0  0  0
 25 22  1  0  0  0  0
 26 25  1  0  0  0  0
 27 28  2  0  0  0  0
 28 29  1  0  0  0  0
 29 30  1  0  0  0  0
 29 25  1  1  0  0  0
 31 30  1  0  0  0  0
 32 30  1  0  0  0  0
 33 32  1  0  0  0  0
 34 28  1  0  0  0  0
 34 32  1  0  0  0  0
 35 34  1  0  0  0  0
M  END
>  <minimizedAffinity>
-5.68267965

$$$$

 OpenBabel03252506223D

 35 37  0  0  1  0  0  0  0  0999 V2000
   33.9480   28.2570   37.6620 C   0  0  0  0  0  0  0  0  0  0  0  0
   33.7870   27.0340   37.0000 C   0  0  0  0  0  0  0  0  0  0  0  0
   32.8320   26.9680   35.9810 C   0  0  0  0  0  0  0  0  0  0  0  0
   32.1120   28.0850   35.6870 N   0  0  0  0  0  0  0  0  0  0  0  0
   32.3020   29.2480   36.3530 C   0  0  0  0  0  0  0  0  0  0  0  0
   33.2190   29.3290   37.3390 N   0  0  0  0  0  0  0  0  0  0  0  0
   34.3910   26.1800   37.2810 H   0  0  0  0  0  0  0  0  0  0  0  0
   32.6780   26.0350   35.4440 H   0  0  0  0  0  0  0  0  0  0  0  0
   30.4110   30.2500   38.5010 Cl  0  0  0  0  0  0  0  0  0  0  0  0
   30.5880   30.9110   36.9080 C   0  0  0  0  0  0  0  0  0  0  0  0
   31.4750   30.4050   35.9660 C   0  0  0  0  0  0  0  0  0  0  0  0
   31.6260   30.9150   34.7110 C   0  0  0  0  0  0  0  0  0  0  0  0
   30.8510   31.9880   34.3730 C   0  0  0  0  0  0  0  0  0  0  0  0
   29.9350   32.5740   35.2270 C   0  0  0  0  0  0  0  0  0  0  0  0
   29.8480   31.9950   36.4780 C   0  0  0  0  0  0  0  0  0  0  0  0
   32.3440   30.4600   34.0330 H   0  0  0  0  0  0  0  0  0  0  0  0
   30.9550   32.4080   33.3780 H   0  0  0  0  0  0  0  0  0  0  0  0
   29.3200   33.4210   34.9660 H   0  0  0  0  0  0  0  0  0  0  0  0
   29.1280   32.4450   37.1690 H   0  0  0  0  0  0  0  0  0  0  0  0
   34.9560   28.3520   38.7450 C   0  0  0  0  0  3  0  0  0  0  0  0
   34.6530   29.0910   39.7980 C   0  0  0  0  0  3  0  0  0  0  0  0
   35.6820   29.1860   40.8990 C   0  0  0  0  0  0  0  0  0  0  0  0
   35.2520   28.8610   41.8660 H   0  0  0  0  0  0  0  0  0  0  0  0
   36.5340   28.6070   40.5400 H   0  0  0  0  0  0  0  0  0  0  0  0
   35.9910   30.6090   41.0250 N   0  0  0  0  0  0  0  0  0  0  0  0
   36.1260   30.8810   42.0010 H   0  0  0  0  0  0  0  0  0  0  0  0
   38.6920   30.5820   42.0540 O   0  0  0  0  0  0  0  0  0  0  0  0
   38.3140   31.3120   41.0750 C   0  0  0  0  0  0  0  0  0  0  0  0
   37.1490   30.9560   40.2280 C   0  0  2  0  0  3  0  0  0  0  0  0
   36.9530   32.2000   39.3970 C   0  0  0  0  0  3  0  0  0  0  0  0
   37.4200   31.9930   38.3930 H   0  0  0  0  0  0  0  0  0  0  0  0
   37.8110   33.2770   40.0300 C   0  0  0  0  0  3  0  0  0  0  0  0
   38.1800   34.0010   39.2740 H   0  0  0  0  0  0  0  0  0  0  0  0
   38.9100   32.5490   40.6350 N   0  0  0  0  0  0  0  0  0  0  0  0
   39.9260   32.7660   40.7730 H   0  0  0  0  0  0  0  0  0  0  0  0
  1 20  1  0  0  0  0
  2  7  1  0  0  0  0
  2  1  2  0  0  0  0
  3  2  1  0  0  0  0
  4  3  2  0  0  0  0
  4  5  1  0  0  0  0
  5  6  2  0  0  0  0
  6  1  1  0  0  0  0
  8  3  1  0  0  0  0
 10  9  1  0  0  0  0
 11  5  1  0  0  0  0
 11 10  2  0  0  0  0
 12 11  1  0  0  0  0
 13 12  2  0  0  0  0
 13 14  1  0  0  0  0
 14 15  2  0  0  0  0
 15 10  1  0  0  0  0
 15 19  1  0  0  0  0
 16 12  1  0  0  0  0
 17 13  1  0  0  0  0
 18 14  1  0  0  0  0
 20 21  2  0  0  0  0
 21 22  1  0  0  0  0
 22 25  1  0  0  0  0
 22 23  1  0  0  0  0
 24 22  1  0  0  0  0
 25 26  1  0  0  0  0
 28 27  2  0  0  0  0
 29 25  1  1  0  0  0
 29 28  1  0  0  0  0
 30 32  1  0  0  0  0
 30 29  1  0  0  0  0
 31 30  1  0  0  0  0
 32 34  1  0  0  0  0
 33 32  1  0  0  0  0
 34 35  1  0  0  0  0
 34 28  1  0  0  0  0
M  END
>  <minimizedAffinity>
-5.67535496

$$$$

 OpenBabel03252506223D

 35 37  0  0  1  0  0  0  0  0999 V2000
   34.0710   28.1530   37.6250 C   0  0  0  0  0  0  0  0  0  0  0  0
   33.8050   26.9200   37.0200 C   0  0  0  0  0  0  0  0  0  0  0  0
   32.7370   26.8540   36.1210 C   0  0  0  0  0  0  0  0  0  0  0  0
   32.0140   27.9820   35.8810 N   0  0  0  0  0  0  0  0  0  0  0  0
   32.3080   29.1550   36.4890 C   0  0  0  0  0  0  0  0  0  0  0  0
   33.3360   29.2360   37.3590 N   0  0  0  0  0  0  0  0  0  0  0  0
   34.4170   26.0560   37.2530 H   0  0  0  0  0  0  0  0  0  0  0  0
   32.4990   25.9120   35.6310 H   0  0  0  0  0  0  0  0  0  0  0  0
   30.4370   30.0390   38.7050 Cl  0  0  0  0  0  0  0  0  0  0  0  0
   30.5910   30.7780   37.1440 C   0  0  0  0  0  0  0  0  0  0  0  0
   31.4700   30.3250   36.1670 C   0  0  0  0  0  0  0  0  0  0  0  0
   31.6020   30.8960   34.9370 C   0  0  0  0  0  0  0  0  0  0  0  0
   30.8170   31.9780   34.6610 C   0  0  0  0  0  0  0  0  0  0  0  0
   29.9070   32.5160   35.5530 C   0  0  0  0  0  0  0  0  0  0  0  0
   29.8390   31.8760   36.7760 C   0  0  0  0  0  0  0  0  0  0  0  0
   32.3150   30.4790   34.2300 H   0  0  0  0  0  0  0  0  0  0  0  0
   30.9060   32.4470   33.6860 H   0  0  0  0  0  0  0  0  0  0  0  0
   29.2840   33.3710   35.3410 H   0  0  0  0  0  0  0  0  0  0  0  0
   29.1240   32.2880   37.4960 H   0  0  0  0  0  0  0  0  0  0  0  0
   35.2000   28.2480   38.5820 C   0  0  0  0  0  3  0  0  0  0  0  0
   35.2140   29.2760   39.4100 C   0  0  0  0  0  3  0  0  0  0  0  0
   36.3650   29.3700   40.3830 C   0  0  0  0  0  0  0  0  0  0  0  0
   37.2500   28.8280   39.9960 H   0  0  0  0  0  0  0  0  0  0  0  0
   36.5010   30.4380   40.5560 H   0  0  0  0  0  0  0  0  0  0  0  0
   35.9220   28.6650   41.5840 N   0  0  0  0  0  0  0  0  0  0  0  0
   34.9700   28.3050   41.4810 H   0  0  0  0  0  0  0  0  0  0  0  0
   36.0490   27.4500   44.2040 O   0  0  0  0  0  0  0  0  0  0  0  0
   37.0340   27.4820   43.3890 C   0  0  0  0  0  0  0  0  0  0  0  0
   36.8420   27.5980   41.9220 C   0  0  2  0  0  3  0  0  0  0  0  0
   38.2460   27.8380   41.4240 C   0  0  0  0  0  3  0  0  0  0  0  0
   38.6220   26.8500   41.0360 H   0  0  0  0  0  0  0  0  0  0  0  0
   39.0880   28.1430   42.6460 C   0  0  0  0  0  3  0  0  0  0  0  0
   40.1360   27.8040   42.5140 H   0  0  0  0  0  0  0  0  0  0  0  0
   38.4350   27.4160   43.7190 N   0  0  0  0  0  0  0  0  0  0  0  0
   38.7920   26.9230   44.5730 H   0  0  0  0  0  0  0  0  0  0  0  0
  1 20  1  0  0  0  0
  2  7  1  0  0  0  0
  2  1  2  0  0  0  0
  3  2  1  0  0  0  0
  4  3  2  0  0  0  0
  4  5  1  0  0  0  0
  5  6  2  0  0  0  0
  6  1  1  0  0  0  0
  8  3  1  0  0  0  0
 10  9  1  0  0  0  0
 11  5  1  0  0  0  0
 11 10  2  0  0  0  0
 12 11  1  0  0  0  0
 13 12  2  0  0  0  0
 13 14  1  0  0  0  0
 14 15  2  0  0  0  0
 15 10  1  0  0  0  0
 15 19  1  0  0  0  0
 16 12  1  0  0  0  0
 17 13  1  0  0  0  0
 18 14  1  0  0  0  0
 20 21  2  0  0  0  0
 21 22  1  0  0  0  0
 22 24  1  0  0  0  0
 22 25  1  0  0  0  0
 23 22  1  0  0  0  0
 26 25  1  0  0  0  0
 28 34  1  0  0  0  0
 28 27  2  0  0  0  0
 29 25  1  1  0  0  0
 29 28  1  0  0  0  0
 30 29  1  0  0  0  0
 30 32  1  0  0  0  0
 31 30  1  0  0  0  0
 32 34  1  0  0  0  0
 33 32  1  0  0  0  0
 34 35  1  0  0  0  0
M  END
>  <minimizedAffinity>
-5.65649939

$$$$

 OpenBabel03252506223D

 35 37  0  0  1  0  0  0  0  0999 V2000
   38.6600   28.5460   42.2950 C   0  0  0  0  0  0  0  0  0  0  0  0
   37.8480   28.7910   43.4080 C   0  0  0  0  0  0  0  0  0  0  0  0
   36.9170   27.8100   43.7620 C   0  0  0  0  0  0  0  0  0  0  0  0
   36.8470   26.6760   43.0130 N   0  0  0  0  0  0  0  0  0  0  0  0
   37.6540   26.4800   41.9440 C   0  0  0  0  0  0  0  0  0  0  0  0
   38.5570   27.4170   41.5880 N   0  0  0  0  0  0  0  0  0  0  0  0
   37.9510   29.7150   43.9640 H   0  0  0  0  0  0  0  0  0  0  0  0
   36.2670   27.9640   44.6210 H   0  0  0  0  0  0  0  0  0  0  0  0
   39.4610   24.2230   42.8550 Cl  0  0  0  0  0  0  0  0  0  0  0  0
   38.3070   24.1480   41.5630 C   0  0  0  0  0  0  0  0  0  0  0  0
   37.5060   25.2200   41.1920 C   0  0  0  0  0  0  0  0  0  0  0  0
   36.5940   25.1750   40.1800 C   0  0  0  0  0  0  0  0  0  0  0  0
   36.4730   23.9990   39.4970 C   0  0  0  0  0  0  0  0  0  0  0  0
   37.2180   22.8670   39.7770 C   0  0  0  0  0  0  0  0  0  0  0  0
   38.1160   23.0010   40.8180 C   0  0  0  0  0  0  0  0  0  0  0  0
   36.0050   26.0610   39.9530 H   0  0  0  0  0  0  0  0  0  0  0  0
   35.7540   23.9430   38.6860 H   0  0  0  0  0  0  0  0  0  0  0  0
   37.1270   21.9350   39.2420 H   0  0  0  0  0  0  0  0  0  0  0  0
   38.7140   22.1160   41.0550 H   0  0  0  0  0  0  0  0  0  0  0  0
   39.6550   29.5720   41.9000 C   0  0  0  0  0  3  0  0  0  0  0  0
   39.2980   30.8390   41.9960 C   0  0  0  0  0  3  0  0  0  0  0  0
   40.3140   31.8800   41.5930 C   0  0  0  0  0  0  0  0  0  0  0  0
   39.8420   32.8790   41.5120 H   0  0  0  0  0  0  0  0  0  0  0  0
   41.1150   31.7920   42.3290 H   0  0  0  0  0  0  0  0  0  0  0  0
   40.7500   31.5030   40.2500 N   0  0  0  0  0  0  0  0  0  0  0  0
   40.4020   30.5790   39.9860 H   0  0  0  0  0  0  0  0  0  0  0  0
   38.6680   31.0680   38.2920 O   0  0  0  0  0  0  0  0  0  0  0  0
   39.6290   31.8960   38.1320 C   0  0  0  0  0  0  0  0  0  0  0  0
   40.3480   32.5020   39.2800 C   0  0  2  0  0  3  0  0  0  0  0  0
   41.5130   33.1900   38.6130 C   0  0  0  0  0  3  0  0  0  0  0  0
   41.2420   34.2810   38.5400 H   0  0  0  0  0  0  0  0  0  0  0  0
   41.5500   32.6830   37.1860 C   0  0  0  0  0  3  0  0  0  0  0  0
   41.9480   33.4510   36.4900 H   0  0  0  0  0  0  0  0  0  0  0  0
   40.1660   32.3710   36.8820 N   0  0  0  0  0  0  0  0  0  0  0  0
   39.5900   32.4360   36.0080 H   0  0  0  0  0  0  0  0  0  0  0  0
  1  2  1  0  0  0  0
  2  3  2  0  0  0  0
  2  7  1  0  0  0  0
  3  8  1  0  0  0  0
  4  3  1  0  0  0  0
  5  4  2  0  0  0  0
  6  5  1  0  0  0  0
  6  1  2  0  0  0  0
 10  9  1  0  0  0  0
 11 10  1  0  0  0  0
 11  5  1  0  0  0  0
 12 11  2  0  0  0  0
 13 14  2  0  0  0  0
 13 12  1  0  0  0  0
 14 15  1  0  0  0  0
 15 19  1  0  0  0  0
 15 10  2  0  0  0  0
 16 12  1  0  0  0  0
 17 13  1  0  0  0  0
 18 14  1  0  0  0  0
 20 21  2  0  0  0  0
 20  1  1  0  0  0  0
 22 21  1  0  0  0  0
 22 24  1  0  0  0  0
 23 22  1  0  0  0  0
 25 22  1  0  0  0  0
 26 25  1  0  0  0  0
 28 27  2  0  0  0  0
 28 29  1  0  0  0  0
 29 25  1  1  0  0  0
 30 29  1  0  0  0  0
 31 30  1  0  0  0  0
 32 30  1  0  0  0  0
 33 32  1  0  0  0  0
 34 32  1  0  0  0  0
 34 28  1  0  0  0  0
 35 34  1  0  0  0  0
M  END
>  <minimizedAffinity>
-5.58355522

$$$$

 OpenBabel03252506223D

 35 37  0  0  1  0  0  0  0  0999 V2000
   38.4410   28.9470   42.5660 C   0  0  0  0  0  0  0  0  0  0  0  0
   37.9670   28.2690   43.6950 C   0  0  0  0  0  0  0  0  0  0  0  0
   36.7730   27.5540   43.5690 C   0  0  0  0  0  0  0  0  0  0  0  0
   36.1350   27.5520   42.3670 N   0  0  0  0  0  0  0  0  0  0  0  0
   36.6310   28.2220   41.3000 C   0  0  0  0  0  0  0  0  0  0  0  0
   37.7820   28.9180   41.4040 N   0  0  0  0  0  0  0  0  0  0  0  0
   38.5200   28.3100   44.6250 H   0  0  0  0  0  0  0  0  0  0  0  0
   36.3730   27.0140   44.4250 H   0  0  0  0  0  0  0  0  0  0  0  0
   37.4090   25.9580   39.4400 Cl  0  0  0  0  0  0  0  0  0  0  0  0
   36.1820   27.1470   39.1430 C   0  0  0  0  0  0  0  0  0  0  0  0
   35.8710   28.1630   40.0380 C   0  0  0  0  0  0  0  0  0  0  0  0
   34.9090   29.1030   39.8190 C   0  0  0  0  0  0  0  0  0  0  0  0
   34.2170   29.0290   38.6440 C   0  0  0  0  0  0  0  0  0  0  0  0
   34.4400   28.0630   37.6790 C   0  0  0  0  0  0  0  0  0  0  0  0
   35.4320   27.1510   37.9840 C   0  0  0  0  0  0  0  0  0  0  0  0
   34.7270   29.8660   40.5720 H   0  0  0  0  0  0  0  0  0  0  0  0
   33.4470   29.7690   38.4500 H   0  0  0  0  0  0  0  0  0  0  0  0
   33.8970   27.9990   36.7500 H   0  0  0  0  0  0  0  0  0  0  0  0
   35.6230   26.3780   37.2320 H   0  0  0  0  0  0  0  0  0  0  0  0
   39.7060   29.7130   42.6740 C   0  0  0  0  0  3  0  0  0  0  0  0
   40.1750   30.2760   41.5750 C   0  0  0  0  0  3  0  0  0  0  0  0
   41.4630   31.0540   41.6890 C   0  0  0  0  0  0  0  0  0  0  0  0
   41.9730   30.8320   42.6470 H   0  0  0  0  0  0  0  0  0  0  0  0
   42.0230   30.8070   40.7860 H   0  0  0  0  0  0  0  0  0  0  0  0
   41.0690   32.4610   41.7310 N   0  0  0  0  0  0  0  0  0  0  0  0
   41.8800   33.0780   41.8120 H   0  0  0  0  0  0  0  0  0  0  0  0
   42.1520   33.7800   39.3980 O   0  0  0  0  0  0  0  0  0  0  0  0
   40.9250   33.8560   39.7490 C   0  0  0  0  0  0  0  0  0  0  0  0
   40.2730   32.8060   40.5710 C   0  0  2  0  0  3  0  0  0  0  0  0
   38.9480   33.4380   40.9220 C   0  0  0  0  0  3  0  0  0  0  0  0
   38.1860   32.9970   40.2190 H   0  0  0  0  0  0  0  0  0  0  0  0
   39.0560   34.9000   40.5390 C   0  0  0  0  0  3  0  0  0  0  0  0
   38.0730   35.3150   40.2320 H   0  0  0  0  0  0  0  0  0  0  0  0
   39.9950   34.9110   39.4330 N   0  0  0  0  0  0  0  0  0  0  0  0
   40.0760   35.4940   38.5650 H   0  0  0  0  0  0  0  0  0  0  0  0
  1 20  1  0  0  0  0
  1  2  1  0  0  0  0
  2  7  1  0  0  0  0
  3  2  2  0  0  0  0
  3  8  1  0  0  0  0
  4  3  1  0  0  0  0
  5  6  1  0  0  0  0
  5  4  2  0  0  0  0
  6  1  2  0  0  0  0
 10  9  1  0  0  0  0
 10 11  1  0  0  0  0
 11  5  1  0  0  0  0
 12 11  2  0  0  0  0
 12 16  1  0  0  0  0
 13 12  1  0  0  0  0
 14 15  1  0  0  0  0
 14 13  2  0  0  0  0
 15 10  2  0  0  0  0
 17 13  1  0  0  0  0
 18 14  1  0  0  0  0
 19 15  1  0  0  0  0
 21 22  1  0  0  0  0
 21 20  2  0  0  0  0
 22 25  1  0  0  0  0
 22 23  1  0  0  0  0
 24 22  1  0  0  0  0
 25 26  1  0  0  0  0
 27 28  2  0  0  0  0
 28 29  1  0  0  0  0
 29 30  1  0  0  0  0
 29 25  1  1  0  0  0
 31 30  1  0  0  0  0
 32 30  1  0  0  0  0
 33 32  1  0  0  0  0
 34 28  1  0  0  0  0
 34 32  1  0  0  0  0
 35 34  1  0  0  0  0
M  END
>  <minimizedAffinity>
-5.53677416

$$$$

 OpenBabel03252506223D

 35 37  0  0  1  0  0  0  0  0999 V2000
   38.3180   32.6310   39.5980 C   0  0  0  0  0  0  0  0  0  0  0  0
   37.7890   33.8260   40.1000 C   0  0  0  0  0  0  0  0  0  0  0  0
   38.6580   34.9110   40.2440 C   0  0  0  0  0  0  0  0  0  0  0  0
   39.9630   34.7540   39.8930 N   0  0  0  0  0  0  0  0  0  0  0  0
   40.4320   33.5800   39.4100 C   0  0  0  0  0  0  0  0  0  0  0  0
   39.6080   32.5220   39.2650 N   0  0  0  0  0  0  0  0  0  0  0  0
   36.7400   33.8880   40.3620 H   0  0  0  0  0  0  0  0  0  0  0  0
   38.2840   35.8560   40.6310 H   0  0  0  0  0  0  0  0  0  0  0  0
   42.2520   32.6030   41.6300 Cl  0  0  0  0  0  0  0  0  0  0  0  0
   42.7460   33.0620   40.0330 C   0  0  0  0  0  0  0  0  0  0  0  0
   41.8620   33.5030   39.0570 C   0  0  0  0  0  0  0  0  0  0  0  0
   42.2360   33.8660   37.7980 C   0  0  0  0  0  0  0  0  0  0  0  0
   43.5640   33.7860   37.4910 C   0  0  0  0  0  0  0  0  0  0  0  0
   44.5350   33.3630   38.3810 C   0  0  0  0  0  0  0  0  0  0  0  0
   44.0680   33.0140   39.6340 C   0  0  0  0  0  0  0  0  0  0  0  0
   41.4800   34.2000   37.0920 H   0  0  0  0  0  0  0  0  0  0  0  0
   43.8830   34.0720   36.4940 H   0  0  0  0  0  0  0  0  0  0  0  0
   45.5850   33.2980   38.1460 H   0  0  0  0  0  0  0  0  0  0  0  0
   44.8210   32.6760   40.3520 H   0  0  0  0  0  0  0  0  0  0  0  0
   37.4160   31.4660   39.4350 C   0  0  0  0  0  3  0  0  0  0  0  0
   36.6670   31.1240   40.4670 C   0  0  0  0  0  3  0  0  0  0  0  0
   35.7500   29.9360   40.2970 C   0  0  0  0  0  0  0  0  0  0  0  0
   34.6990   30.2650   40.1870 H   0  0  0  0  0  0  0  0  0  0  0  0
   36.1640   29.3790   39.4560 H   0  0  0  0  0  0  0  0  0  0  0  0
   35.8370   29.1920   41.5520 N   0  0  0  0  0  0  0  0  0  0  0  0
   35.1490   28.4360   41.5910 H   0  0  0  0  0  0  0  0  0  0  0  0
   36.6960   26.5850   40.6460 O   0  0  0  0  0  0  0  0  0  0  0  0
   37.2270   27.2030   41.6310 C   0  0  0  0  0  0  0  0  0  0  0  0
   37.1770   28.6810   41.7560 C   0  0  2  0  0  3  0  0  0  0  0  0
   37.6990   28.9110   43.1530 C   0  0  0  0  0  3  0  0  0  0  0  0
   38.7790   29.2150   43.0450 H   0  0  0  0  0  0  0  0  0  0  0  0
   37.7230   27.5570   43.8300 C   0  0  0  0  0  3  0  0  0  0  0  0
   38.5400   27.4890   44.5780 H   0  0  0  0  0  0  0  0  0  0  0  0
   37.9320   26.6180   42.7440 N   0  0  0  0  0  0  0  0  0  0  0  0
   38.4500   25.7090   42.6690 H   0  0  0  0  0  0  0  0  0  0  0  0
  1  2  1  0  0  0  0
  2  3  2  0  0  0  0
  2  7  1  0  0  0  0
  3  8  1  0  0  0  0
  4  3  1  0  0  0  0
  5  4  2  0  0  0  0
  6  5  1  0  0  0  0
  6  1  2  0  0  0  0
 10  9  1  0  0  0  0
 11  5  1  0  0  0  0
 11 10  2  0  0  0  0
 12 11  1  0  0  0  0
 13 12  2  0  0  0  0
 13 14  1  0  0  0  0
 14 15  2  0  0  0  0
 15 10  1  0  0  0  0
 15 19  1  0  0  0  0
 16 12  1  0  0  0  0
 17 13  1  0  0  0  0
 18 14  1  0  0  0  0
 20  1  1  0  0  0  0
 20 21  2  0  0  0  0
 22 21  1  0  0  0  0
 22 25  1  0  0  0  0
 23 22  1  0  0  0  0
 24 22  1  0  0  0  0
 25 26  1  0  0  0  0
 27 28  2  0  0  0  0
 28 29  1  0  0  0  0
 28 34  1  0  0  0  0
 29 25  1  1  0  0  0
 29 30  1  0  0  0  0
 30 32  1  0  0  0  0
 31 30  1  0  0  0  0
 32 33  1  0  0  0  0
 34 32  1  0  0  0  0
 35 34  1  0  0  0  0
M  END
>  <minimizedAffinity>
-5.49724817

$$$$
