
 OpenBabel03252506373D

 44 47  0  0  1  0  0  0  0  0999 V2000
   44.5040   35.5310   45.1210 C   0  0  0  0  0  0  0  0  0  0  0  0
   45.1680   35.5070   43.8760 C   0  0  0  0  0  0  0  0  0  0  0  0
   46.0940   34.5440   43.6400 C   0  0  0  0  0  0  0  0  0  0  0  0
   46.3210   33.6530   44.6340 N   0  0  0  0  0  0  0  0  0  0  0  0
   45.6950   33.6800   45.8010 C   0  0  0  0  0  0  0  0  0  0  0  0
   44.7820   34.6130   46.0630 N   0  0  0  0  0  0  0  0  0  0  0  0
   46.0220   32.6820   46.7850 N   0  0  0  0  0  0  0  0  0  0  0  0
   45.2760   32.4480   47.9690 C   0  0  0  0  0  0  0  0  0  0  0  0
   46.3490   32.1180   48.9930 C   0  0  0  0  0  0  0  0  0  0  0  0
   47.6330   32.0170   48.2350 C   0  0  0  0  0  0  0  0  0  0  0  0
   47.1500   31.7800   46.8040 C   0  0  1  0  0  0  0  0  0  0  0  0
   43.7720   36.2920   45.3100 H   0  0  0  0  0  0  0  0  0  0  0  0
   46.6070   34.5080   42.7070 H   0  0  0  0  0  0  0  0  0  0  0  0
   44.4530   31.8170   48.0600 H   0  0  0  0  0  0  0  0  0  0  0  0
   44.9150   33.4710   48.3120 H   0  0  0  0  0  0  0  0  0  0  0  0
   46.3520   32.7520   49.8740 H   0  0  0  0  0  0  0  0  0  0  0  0
   46.1320   31.0750   49.3700 H   0  0  0  0  0  0  0  0  0  0  0  0
   48.2230   31.1400   48.5270 H   0  0  0  0  0  0  0  0  0  0  0  0
   48.1780   32.9820   48.3010 H   0  0  0  0  0  0  0  0  0  0  0  0
   47.9390   32.0980   46.1080 H   0  0  0  0  0  0  0  0  0  0  0  0
   44.8140   36.5240   42.9250 N   0  0  0  0  0  0  0  0  0  0  0  0
   43.8290   36.8530   42.8710 H   0  0  0  0  0  0  0  0  0  0  0  0
   45.5490   36.9270   42.2910 H   0  0  0  0  0  0  0  0  0  0  0  0
   46.6510   30.0820   46.6390 S   0  0  0  0  0  0  0  0  0  0  0  0
   45.7790   30.4660   43.4390 O   0  0  0  0  0  0  0  0  0  0  0  0
   45.1040   29.9590   44.3500 C   0  0  0  0  0  0  0  0  0  0  0  0
   45.1370   29.7760   45.8240 C   0  0  1  0  0  0  0  0  0  0  0  0
   44.5930   28.3770   45.9630 C   0  0  0  0  0  0  0  0  0  0  0  0
   43.3120   28.5690   45.1440 C   0  0  0  0  0  0  0  0  0  0  0  0
   43.8670   29.3030   44.0130 N   0  0  0  0  0  0  0  0  0  0  0  0
   44.2410   30.3820   46.1210 H   0  0  0  0  0  0  0  0  0  0  0  0
   44.3760   28.1330   47.0160 H   0  0  0  0  0  0  0  0  0  0  0  0
   45.2290   27.6260   45.4600 H   0  0  0  0  0  0  0  0  0  0  0  0
   42.5720   29.1520   45.7140 H   0  0  0  0  0  0  0  0  0  0  0  0
   42.9400   27.5750   44.8230 H   0  0  0  0  0  0  0  0  0  0  0  0
   44.6170   28.1950   41.0940 O   0  0  0  0  0  0  0  0  0  0  0  0
   43.5990   28.2400   41.8260 C   0  0  0  0  0  0  0  0  0  0  0  0
   43.1490   29.2960   42.7360 C   0  0  1  0  0  3  0  0  0  0  0  0
   41.6720   28.9850   42.9940 C   0  0  0  0  0  3  0  0  0  0  0  0
   41.4120   29.1990   44.0620 H   0  0  0  0  0  0  0  0  0  0  0  0
   41.4900   27.5400   42.6470 C   0  0  0  0  0  3  0  0  0  0  0  0
   41.4640   26.9750   43.6040 H   0  0  0  0  0  0  0  0  0  0  0  0
   42.6720   27.1670   41.8610 N   0  0  0  0  0  0  0  0  0  0  0  0
   42.6830   26.1920   41.4410 H   0  0  0  0  0  0  0  0  0  0  0  0
  1 12  1  0  0  0  0
  1  6  1  0  0  0  0
  2  1  2  0  0  0  0
  3  2  1  0  0  0  0
  3  4  2  0  0  0  0
  4  5  1  0  0  0  0
  5  6  2  0  0  0  0
  5  7  1  0  0  0  0
  7 11  1  0  0  0  0
  7  8  1  0  0  0  0
  8 14  1  0  0  0  0
  8 15  1  0  0  0  0
  8  9  1  0  0  0  0
  9 17  1  0  0  0  0
  9 16  1  0  0  0  0
 10 19  1  0  0  0  0
 10 18  1  0  0  0  0
 10  9  1  0  0  0  0
 11 20  1  6  0  0  0
 11 10  1  0  0  0  0
 13  3  1  0  0  0  0
 21  2  1  0  0  0  0
 22 21  1  0  0  0  0
 23 21  1  0  0  0  0
 24 11  1  0  0  0  0
 25 26  2  0  0  0  0
 26 27  1  0  0  0  0
 27 28  1  0  0  0  0
 27 31  1  1  0  0  0
 27 24  1  0  0  0  0
 28 32  1  0  0  0  0
 29 34  1  0  0  0  0
 29 28  1  0  0  0  0
 30 26  1  0  0  0  0
 30 29  1  0  0  0  0
 33 28  1  0  0  0  0
 35 29  1  0  0  0  0
 36 37  2  0  0  0  0
 37 43  1  0  0  0  0
 37 38  1  0  0  0  0
 38 39  1  0  0  0  0
 38 30  1  1  0  0  0
 39 40  1  0  0  0  0
 41 39  1  0  0  0  0
 41 42  1  0  0  0  0
 43 41  1  0  0  0  0
 44 43  1  0  0  0  0
M  END
>  <minimizedAffinity>
-5.16714811

>  <minimizedRMSD>
0.854874372

$$$$
