
 OpenBabel03252509103D

 41 44  0  0  1  0  0  0  0  0999 V2000
   36.1990   27.1420   39.2360 C   0  0  0  0  0  0  0  0  0  0  0  0
   35.9350   28.1610   40.1010 C   0  0  0  0  0  0  0  0  0  0  0  0
   34.9270   29.0520   39.7910 C   0  0  0  0  0  0  0  0  0  0  0  0
   34.2050   28.9110   38.6290 C   0  0  0  0  0  0  0  0  0  0  0  0
   34.4580   27.8770   37.7330 C   0  0  0  0  0  0  0  0  0  0  0  0
   35.4750   26.9860   38.0550 C   0  0  0  0  0  0  0  0  0  0  0  0
   34.6850   29.8800   40.4540 H   0  0  0  0  0  0  0  0  0  0  0  0
   33.4230   29.6250   38.4110 H   0  0  0  0  0  0  0  0  0  0  0  0
   33.9080   27.7380   36.8120 H   0  0  0  0  0  0  0  0  0  0  0  0
   35.6780   26.1820   37.3670 H   0  0  0  0  0  0  0  0  0  0  0  0
   39.5680   30.6710   42.7460 Cl  0  0  0  0  0  0  0  0  0  0  0  0
   38.2850   29.5110   42.5690 C   0  0  0  0  0  0  0  0  0  0  0  0
   37.6520   29.3480   41.3900 C   0  0  0  0  0  0  0  0  0  0  0  0
   36.6410   28.3920   41.3540 C   0  0  0  0  0  0  0  0  0  0  0  0
   36.2960   27.6480   42.4520 C   0  0  0  0  0  0  0  0  0  0  0  0
   36.9490   27.8300   43.6300 C   0  0  0  0  0  0  0  0  0  0  0  0
   37.9520   28.7720   43.6800 C   0  0  0  0  0  0  0  0  0  0  0  0
   35.5020   26.9050   42.4080 H   0  0  0  0  0  0  0  0  0  0  0  0
   36.7210   27.2690   44.5360 H   0  0  0  0  0  0  0  0  0  0  0  0
   38.4780   28.9170   44.6310 H   0  0  0  0  0  0  0  0  0  0  0  0
   37.9150   32.1570   38.8840 C   0  0  0  0  0  0  0  0  0  0  0  0
   37.5190   31.3940   39.9860 C   0  0  0  0  0  0  0  0  0  0  0  0
   38.0470   30.1430   40.2540 C   0  0  0  0  0  0  0  0  0  0  0  0
   38.9800   29.7100   39.3660 N   0  0  0  0  0  0  0  0  0  0  0  0
   39.3610   30.4440   38.3050 C   0  0  0  0  0  0  0  0  0  0  0  0
   38.8340   31.6500   38.0700 N   0  0  0  0  0  0  0  0  0  0  0  0
   37.4500   33.1200   38.7550 H   0  0  0  0  0  0  0  0  0  0  0  0
   36.7700   31.7660   40.6790 H   0  0  0  0  0  0  0  0  0  0  0  0
   40.1070   30.1050   37.5900 H   0  0  0  0  0  0  0  0  0  0  0  0
   37.4000   25.9960   39.5670 S   0  0  0  0  0  0  0  0  0  0  0  0
   36.8960   24.8610   40.4300 O   0  0  0  0  0  0  0  0  0  0  0  0
   37.6460   25.3200   38.1840 O   0  0  0  0  0  0  0  0  0  0  0  0
   38.8590   25.2610   42.5050 O   0  0  0  0  0  0  0  0  0  0  0  0
   39.3720   25.6800   41.4370 C   0  0  0  0  0  0  0  0  0  0  0  0
   38.9730   26.2420   40.0870 C   0  0  1  0  0  3  0  0  0  0  0  0
   39.8020   25.1070   39.3770 C   0  0  0  0  0  3  0  0  0  0  0  0
   39.7290   25.2470   38.2890 H   0  0  0  0  0  0  0  0  0  0  0  0
   41.1640   25.4060   39.9350 C   0  0  0  0  0  3  0  0  0  0  0  0
   41.8440   24.5380   39.8570 H   0  0  0  0  0  0  0  0  0  0  0  0
   40.8150   25.6760   41.3410 N   0  0  0  0  0  0  0  0  0  0  0  0
   41.6040   25.8170   42.0330 H   0  0  0  0  0  0  0  0  0  0  0  0
  1 30  1  0  0  0  0
  1  2  1  0  0  0  0
  2 14  1  0  0  0  0
  3  2  2  0  0  0  0
  3  7  1  0  0  0  0
  4  3  1  0  0  0  0
  5  6  1  0  0  0  0
  5  4  2  0  0  0  0
  6  1  2  0  0  0  0
  8  4  1  0  0  0  0
  9  5  1  0  0  0  0
 10  6  1  0  0  0  0
 12 11  1  0  0  0  0
 12 17  1  0  0  0  0
 13 12  2  0  0  0  0
 14 13  1  0  0  0  0
 14 15  2  0  0  0  0
 15 16  1  0  0  0  0
 16 17  2  0  0  0  0
 16 19  1  0  0  0  0
 17 20  1  0  0  0  0
 18 15  1  0  0  0  0
 21 22  1  0  0  0  0
 22 23  2  0  0  0  0
 22 28  1  0  0  0  0
 23 13  1  0  0  0  0
 24 23  1  0  0  0  0
 25 24  2  0  0  0  0
 26 25  1  0  0  0  0
 26 21  2  0  0  0  0
 27 21  1  0  0  0  0
 29 25  1  0  0  0  0
 30 31  2  0  0  0  0
 32 30  2  0  0  0  0
 34 33  2  0  0  0  0
 35 30  1  6  0  0  0
 35 34  1  0  0  0  0
 36 38  1  0  0  0  0
 36 35  1  0  0  0  0
 37 36  1  0  0  0  0
 38 40  1  0  0  0  0
 39 38  1  0  0  0  0
 40 34  1  0  0  0  0
 40 41  1  0  0  0  0
M  END
>  <minimizedAffinity>
-6.19940662

$$$$

 OpenBabel03252509103D

 41 44  0  0  1  0  0  0  0  0999 V2000
   36.0950   27.5400   39.1200 C   0  0  0  0  0  0  0  0  0  0  0  0
   35.8090   28.3840   40.1500 C   0  0  0  0  0  0  0  0  0  0  0  0
   34.6930   29.1930   40.0570 C   0  0  0  0  0  0  0  0  0  0  0  0
   33.8870   29.1440   38.9440 C   0  0  0  0  0  0  0  0  0  0  0  0
   34.1610   28.2880   37.8820 C   0  0  0  0  0  0  0  0  0  0  0  0
   35.2860   27.4790   37.9850 C   0  0  0  0  0  0  0  0  0  0  0  0
   34.4300   29.8830   40.8570 H   0  0  0  0  0  0  0  0  0  0  0  0
   33.0220   29.7900   38.8980 H   0  0  0  0  0  0  0  0  0  0  0  0
   33.5470   28.2250   36.9940 H   0  0  0  0  0  0  0  0  0  0  0  0
   35.5050   26.8120   37.1680 H   0  0  0  0  0  0  0  0  0  0  0  0
   39.4910   30.7880   42.8250 Cl  0  0  0  0  0  0  0  0  0  0  0  0
   38.2670   29.5760   42.5940 C   0  0  0  0  0  0  0  0  0  0  0  0
   37.5520   29.5160   41.4520 C   0  0  0  0  0  0  0  0  0  0  0  0
   36.5980   28.5070   41.3680 C   0  0  0  0  0  0  0  0  0  0  0  0
   36.3840   27.6130   42.3850 C   0  0  0  0  0  0  0  0  0  0  0  0
   37.1180   27.6930   43.5260 C   0  0  0  0  0  0  0  0  0  0  0  0
   38.0660   28.6860   43.6230 C   0  0  0  0  0  0  0  0  0  0  0  0
   35.6330   26.8300   42.3040 H   0  0  0  0  0  0  0  0  0  0  0  0
   36.9950   27.0110   44.3680 H   0  0  0  0  0  0  0  0  0  0  0  0
   38.6570   28.7470   44.5450 H   0  0  0  0  0  0  0  0  0  0  0  0
   37.4270   32.6060   39.2910 C   0  0  0  0  0  0  0  0  0  0  0  0
   37.1640   31.6900   40.3120 C   0  0  0  0  0  0  0  0  0  0  0  0
   37.8100   30.4690   40.4010 C   0  0  0  0  0  0  0  0  0  0  0  0
   38.7210   30.2270   39.4220 N   0  0  0  0  0  0  0  0  0  0  0  0
   38.9730   31.1100   38.4390 C   0  0  0  0  0  0  0  0  0  0  0  0
   38.3340   32.2820   38.3770 N   0  0  0  0  0  0  0  0  0  0  0  0
   36.8750   33.5320   39.3010 H   0  0  0  0  0  0  0  0  0  0  0  0
   36.4300   31.9110   41.0820 H   0  0  0  0  0  0  0  0  0  0  0  0
   39.7000   30.9240   37.6530 H   0  0  0  0  0  0  0  0  0  0  0  0
   37.4280   26.5000   39.1790 S   0  0  0  0  0  0  0  0  0  0  0  0
   38.5750   27.0730   39.9810 O   0  0  0  0  0  0  0  0  0  0  0  0
   36.9260   25.3160   40.0600 O   0  0  0  0  0  0  0  0  0  0  0  0
   39.0510   27.6560   36.4720 O   0  0  0  0  0  0  0  0  0  0  0  0
   38.9440   26.4790   36.9010 C   0  0  0  0  0  0  0  0  0  0  0  0
   38.1730   25.6730   37.9280 C   0  0  1  0  0  3  0  0  0  0  0  0
   39.5330   25.1710   38.5440 C   0  0  0  0  0  3  0  0  0  0  0  0
   39.3090   24.4900   39.3780 H   0  0  0  0  0  0  0  0  0  0  0  0
   40.1130   24.4850   37.3410 C   0  0  0  0  0  3  0  0  0  0  0  0
   41.2080   24.3560   37.4250 H   0  0  0  0  0  0  0  0  0  0  0  0
   39.7780   25.4660   36.2950 N   0  0  0  0  0  0  0  0  0  0  0  0
   40.1630   25.3090   35.3210 H   0  0  0  0  0  0  0  0  0  0  0  0
  1 30  1  0  0  0  0
  1  2  1  0  0  0  0
  2 14  1  0  0  0  0
  3  2  2  0  0  0  0
  3  7  1  0  0  0  0
  4  3  1  0  0  0  0
  5  6  1  0  0  0  0
  5  4  2  0  0  0  0
  6  1  2  0  0  0  0
  8  4  1  0  0  0  0
  9  5  1  0  0  0  0
 10  6  1  0  0  0  0
 12 11  1  0  0  0  0
 12 17  1  0  0  0  0
 13 12  2  0  0  0  0
 14 13  1  0  0  0  0
 14 15  2  0  0  0  0
 15 16  1  0  0  0  0
 16 17  2  0  0  0  0
 16 19  1  0  0  0  0
 17 20  1  0  0  0  0
 18 15  1  0  0  0  0
 21 27  1  0  0  0  0
 21 22  1  0  0  0  0
 22 23  2  0  0  0  0
 22 28  1  0  0  0  0
 23 13  1  0  0  0  0
 24 23  1  0  0  0  0
 25 24  2  0  0  0  0
 26 25  1  0  0  0  0
 26 21  2  0  0  0  0
 29 25  1  0  0  0  0
 30 31  2  0  0  0  0
 30 32  2  0  0  0  0
 33 34  2  0  0  0  0
 34 35  1  0  0  0  0
 35 36  1  0  0  0  0
 35 30  1  1  0  0  0
 36 37  1  0  0  0  0
 38 39  1  0  0  0  0
 38 36  1  0  0  0  0
 40 34  1  0  0  0  0
 40 38  1  0  0  0  0
 41 40  1  0  0  0  0
M  END
>  <minimizedAffinity>
-6.09707022

$$$$

 OpenBabel03252509103D

 41 44  0  0  1  0  0  0  0  0999 V2000
   37.2740   29.6440   39.1110 C   0  0  0  0  0  0  0  0  0  0  0  0
   36.7070   28.7630   39.9810 C   0  0  0  0  0  0  0  0  0  0  0  0
   35.5010   28.1790   39.6460 C   0  0  0  0  0  0  0  0  0  0  0  0
   34.8870   28.4840   38.4530 C   0  0  0  0  0  0  0  0  0  0  0  0
   35.4500   29.3800   37.5500 C   0  0  0  0  0  0  0  0  0  0  0  0
   36.6630   29.9620   37.8970 C   0  0  0  0  0  0  0  0  0  0  0  0
   35.0140   27.4710   40.3130 H   0  0  0  0  0  0  0  0  0  0  0  0
   33.9440   28.0120   38.2180 H   0  0  0  0  0  0  0  0  0  0  0  0
   34.9930   29.6390   36.6040 H   0  0  0  0  0  0  0  0  0  0  0  0
   37.1070   30.6560   37.2040 H   0  0  0  0  0  0  0  0  0  0  0  0
   39.1630   25.2870   42.8760 Cl  0  0  0  0  0  0  0  0  0  0  0  0
   38.3840   26.8150   42.5940 C   0  0  0  0  0  0  0  0  0  0  0  0
   37.8850   27.1300   41.3820 C   0  0  0  0  0  0  0  0  0  0  0  0
   37.2790   28.3770   41.2630 C   0  0  0  0  0  0  0  0  0  0  0  0
   37.1890   29.2520   42.3150 C   0  0  0  0  0  0  0  0  0  0  0  0
   37.6990   28.9110   43.5280 C   0  0  0  0  0  0  0  0  0  0  0  0
   38.3000   27.6800   43.6600 C   0  0  0  0  0  0  0  0  0  0  0  0
   36.7130   30.2240   42.2060 H   0  0  0  0  0  0  0  0  0  0  0  0
   37.6570   29.5630   44.4010 H   0  0  0  0  0  0  0  0  0  0  0  0
   38.7110   27.4080   44.6400 H   0  0  0  0  0  0  0  0  0  0  0  0
   37.1840   24.2610   39.0330 C   0  0  0  0  0  0  0  0  0  0  0  0
   37.0710   25.1710   40.0870 C   0  0  0  0  0  0  0  0  0  0  0  0
   37.9920   26.1820   40.3010 C   0  0  0  0  0  0  0  0  0  0  0  0
   39.0160   26.2250   39.4080 N   0  0  0  0  0  0  0  0  0  0  0  0
   39.1250   25.3490   38.3940 C   0  0  0  0  0  0  0  0  0  0  0  0
   38.2200   24.3820   38.2110 N   0  0  0  0  0  0  0  0  0  0  0  0
   36.4190   23.5070   38.9440 H   0  0  0  0  0  0  0  0  0  0  0  0
   36.2410   25.1120   40.7860 H   0  0  0  0  0  0  0  0  0  0  0  0
   39.9400   25.3770   37.6760 H   0  0  0  0  0  0  0  0  0  0  0  0
   38.7630   30.3740   39.4440 S   0  0  0  0  0  0  0  0  0  0  0  0
   39.8540   29.3650   39.7240 O   0  0  0  0  0  0  0  0  0  0  0  0
   39.1810   30.9880   38.0730 O   0  0  0  0  0  0  0  0  0  0  0  0
   41.6050   32.1130   39.8920 O   0  0  0  0  0  0  0  0  0  0  0  0
   40.4570   32.3180   40.3610 C   0  0  0  0  0  0  0  0  0  0  0  0
   39.1030   31.6460   40.4790 C   0  0  1  0  0  3  0  0  0  0  0  0
   38.4310   32.8970   39.7980 C   0  0  0  0  0  3  0  0  0  0  0  0
   37.3460   32.7250   39.7410 H   0  0  0  0  0  0  0  0  0  0  0  0
   38.8240   33.9590   40.7830 C   0  0  0  0  0  3  0  0  0  0  0  0
   38.7660   34.9730   40.3460 H   0  0  0  0  0  0  0  0  0  0  0  0
   40.2240   33.5750   41.0360 N   0  0  0  0  0  0  0  0  0  0  0  0
   40.8200   34.2200   41.6280 H   0  0  0  0  0  0  0  0  0  0  0  0
  1 30  1  0  0  0  0
  1  2  1  0  0  0  0
  2 14  1  0  0  0  0
  3  2  2  0  0  0  0
  3  7  1  0  0  0  0
  4  3  1  0  0  0  0
  5  6  1  0  0  0  0
  5  4  2  0  0  0  0
  6  1  2  0  0  0  0
  8  4  1  0  0  0  0
  9  5  1  0  0  0  0
 10  6  1  0  0  0  0
 12 11  1  0  0  0  0
 12 17  1  0  0  0  0
 13 12  2  0  0  0  0
 14 13  1  0  0  0  0
 14 15  2  0  0  0  0
 15 16  1  0  0  0  0
 16 17  2  0  0  0  0
 16 19  1  0  0  0  0
 17 20  1  0  0  0  0
 18 15  1  0  0  0  0
 21 22  1  0  0  0  0
 22 23  2  0  0  0  0
 22 28  1  0  0  0  0
 23 13  1  0  0  0  0
 24 23  1  0  0  0  0
 25 24  2  0  0  0  0
 26 25  1  0  0  0  0
 26 21  2  0  0  0  0
 27 21  1  0  0  0  0
 29 25  1  0  0  0  0
 30 31  2  0  0  0  0
 32 30  2  0  0  0  0
 33 34  2  0  0  0  0
 34 35  1  0  0  0  0
 34 40  1  0  0  0  0
 35 30  1  6  0  0  0
 36 35  1  0  0  0  0
 36 38  1  0  0  0  0
 37 36  1  0  0  0  0
 38 40  1  0  0  0  0
 39 38  1  0  0  0  0
 40 41  1  0  0  0  0
M  END
>  <minimizedAffinity>
-6.04401398

$$$$

 OpenBabel03252509103D

 41 44  0  0  1  0  0  0  0  0999 V2000
   37.7470   29.5380   41.5690 C   0  0  0  0  0  0  0  0  0  0  0  0
   37.0090   28.5630   40.9670 C   0  0  0  0  0  0  0  0  0  0  0  0
   36.6080   27.4740   41.7160 C   0  0  0  0  0  0  0  0  0  0  0  0
   36.9480   27.3790   43.0450 C   0  0  0  0  0  0  0  0  0  0  0  0
   37.6990   28.3640   43.6790 C   0  0  0  0  0  0  0  0  0  0  0  0
   38.0980   29.4550   42.9160 C   0  0  0  0  0  0  0  0  0  0  0  0
   36.0190   26.6740   41.2730 H   0  0  0  0  0  0  0  0  0  0  0  0
   36.6210   26.5160   43.6060 H   0  0  0  0  0  0  0  0  0  0  0  0
   37.9810   28.3190   44.7220 H   0  0  0  0  0  0  0  0  0  0  0  0
   38.6800   30.2230   43.3980 H   0  0  0  0  0  0  0  0  0  0  0  0
   37.8760   27.2020   36.0790 Cl  0  0  0  0  0  0  0  0  0  0  0  0
   36.9760   27.9760   37.3490 C   0  0  0  0  0  0  0  0  0  0  0  0
   37.3910   27.9210   38.6310 C   0  0  0  0  0  0  0  0  0  0  0  0
   36.6000   28.5750   39.5690 C   0  0  0  0  0  0  0  0  0  0  0  0
   35.4530   29.2440   39.2240 C   0  0  0  0  0  0  0  0  0  0  0  0
   35.0560   29.2860   37.9250 C   0  0  0  0  0  0  0  0  0  0  0  0
   35.8300   28.6440   36.9860 C   0  0  0  0  0  0  0  0  0  0  0  0
   34.8450   29.7500   39.9710 H   0  0  0  0  0  0  0  0  0  0  0  0
   34.1560   29.8020   37.5900 H   0  0  0  0  0  0  0  0  0  0  0  0
   35.5070   28.6800   35.9380 H   0  0  0  0  0  0  0  0  0  0  0  0
   39.8160   25.1980   39.6020 C   0  0  0  0  0  0  0  0  0  0  0  0
   38.6320   25.8720   39.2950 C   0  0  0  0  0  0  0  0  0  0  0  0
   38.6050   27.2140   38.9550 C   0  0  0  0  0  0  0  0  0  0  0  0
   39.8180   27.8280   38.9420 N   0  0  0  0  0  0  0  0  0  0  0  0
   40.9570   27.1790   39.2380 C   0  0  0  0  0  0  0  0  0  0  0  0
   40.9540   25.8830   39.5640 N   0  0  0  0  0  0  0  0  0  0  0  0
   39.7410   24.1540   39.8560 H   0  0  0  0  0  0  0  0  0  0  0  0
   37.6770   25.3550   39.3140 H   0  0  0  0  0  0  0  0  0  0  0  0
   41.9310   27.6630   39.2300 H   0  0  0  0  0  0  0  0  0  0  0  0
   38.2480   30.9130   40.7200 S   0  0  0  0  0  0  0  0  0  0  0  0
   37.1280   31.9090   40.5170 O   0  0  0  0  0  0  0  0  0  0  0  0
   39.1970   31.6340   41.7240 O   0  0  0  0  0  0  0  0  0  0  0  0
   37.3240   31.7980   37.6110 O   0  0  0  0  0  0  0  0  0  0  0  0
   38.4700   31.5700   38.0730 C   0  0  0  0  0  0  0  0  0  0  0  0
   39.1450   31.0090   39.3090 C   0  0  1  0  0  3  0  0  0  0  0  0
   39.9690   32.3430   39.4570 C   0  0  0  0  0  3  0  0  0  0  0  0
   40.6300   32.2510   40.3300 H   0  0  0  0  0  0  0  0  0  0  0  0
   40.6950   32.3350   38.1430 C   0  0  0  0  0  3  0  0  0  0  0  0
   41.0660   33.3400   37.8680 H   0  0  0  0  0  0  0  0  0  0  0  0
   39.6060   31.9130   37.2460 N   0  0  0  0  0  0  0  0  0  0  0  0
   39.7870   31.9190   36.2020 H   0  0  0  0  0  0  0  0  0  0  0  0
  1  6  1  0  0  0  0
  2  1  2  0  0  0  0
  2  3  1  0  0  0  0
  3  4  2  0  0  0  0
  4  8  1  0  0  0  0
  4  5  1  0  0  0  0
  5  9  1  0  0  0  0
  6 10  1  0  0  0  0
  6  5  2  0  0  0  0
  7  3  1  0  0  0  0
 11 12  1  0  0  0  0
 12 13  1  0  0  0  0
 13 23  1  0  0  0  0
 13 14  2  0  0  0  0
 14  2  1  0  0  0  0
 15 14  1  0  0  0  0
 15 18  1  0  0  0  0
 16 15  2  0  0  0  0
 17 12  2  0  0  0  0
 17 16  1  0  0  0  0
 19 16  1  0  0  0  0
 20 17  1  0  0  0  0
 21 27  1  0  0  0  0
 22 28  1  0  0  0  0
 22 21  2  0  0  0  0
 23 22  1  0  0  0  0
 24 23  2  0  0  0  0
 24 25  1  0  0  0  0
 25 26  2  0  0  0  0
 26 21  1  0  0  0  0
 29 25  1  0  0  0  0
 30  1  1  0  0  0  0
 30 32  2  0  0  0  0
 31 30  2  0  0  0  0
 33 34  2  0  0  0  0
 34 35  1  0  0  0  0
 35 36  1  0  0  0  0
 35 30  1  1  0  0  0
 36 37  1  0  0  0  0
 38 36  1  0  0  0  0
 39 38  1  0  0  0  0
 40 34  1  0  0  0  0
 40 38  1  0  0  0  0
 41 40  1  0  0  0  0
M  END
>  <minimizedAffinity>
-6.03688669

$$$$

 OpenBabel03252509103D

 41 44  0  0  1  0  0  0  0  0999 V2000
   37.7380   29.2360   41.3380 C   0  0  0  0  0  0  0  0  0  0  0  0
   36.6870   28.3790   41.2070 C   0  0  0  0  0  0  0  0  0  0  0  0
   36.2680   27.6660   42.3130 C   0  0  0  0  0  0  0  0  0  0  0  0
   36.9020   27.8210   43.5240 C   0  0  0  0  0  0  0  0  0  0  0  0
   37.9760   28.6920   43.6790 C   0  0  0  0  0  0  0  0  0  0  0  0
   38.3900   29.4040   42.5600 C   0  0  0  0  0  0  0  0  0  0  0  0
   35.4340   26.9700   42.2510 H   0  0  0  0  0  0  0  0  0  0  0  0
   36.5540   27.2490   44.3710 H   0  0  0  0  0  0  0  0  0  0  0  0
   38.4950   28.8370   44.6170 H   0  0  0  0  0  0  0  0  0  0  0  0
   39.2200   30.0810   42.6710 H   0  0  0  0  0  0  0  0  0  0  0  0
   35.8530   25.5140   37.0130 Cl  0  0  0  0  0  0  0  0  0  0  0  0
   35.5630   26.8700   38.0620 C   0  0  0  0  0  0  0  0  0  0  0  0
   36.2610   27.0280   39.2050 C   0  0  0  0  0  0  0  0  0  0  0  0
   35.9530   28.1480   39.9710 C   0  0  0  0  0  0  0  0  0  0  0  0
   34.9920   29.0510   39.5970 C   0  0  0  0  0  0  0  0  0  0  0  0
   34.3020   28.8700   38.4400 C   0  0  0  0  0  0  0  0  0  0  0  0
   34.5970   27.7670   37.6710 C   0  0  0  0  0  0  0  0  0  0  0  0
   34.7620   29.9220   40.2080 H   0  0  0  0  0  0  0  0  0  0  0  0
   33.5280   29.5530   38.0890 H   0  0  0  0  0  0  0  0  0  0  0  0
   34.0400   27.6240   36.7380 H   0  0  0  0  0  0  0  0  0  0  0  0
   37.9830   23.9900   40.6350 C   0  0  0  0  0  0  0  0  0  0  0  0
   36.9970   24.9210   40.2990 C   0  0  0  0  0  0  0  0  0  0  0  0
   37.2690   26.0610   39.5620 C   0  0  0  0  0  0  0  0  0  0  0  0
   38.5680   26.2080   39.1880 N   0  0  0  0  0  0  0  0  0  0  0  0
   39.5160   25.3110   39.5110 C   0  0  0  0  0  0  0  0  0  0  0  0
   39.2250   24.2190   40.2250 N   0  0  0  0  0  0  0  0  0  0  0  0
   37.6790   23.1320   41.2110 H   0  0  0  0  0  0  0  0  0  0  0  0
   35.9670   24.7780   40.6120 H   0  0  0  0  0  0  0  0  0  0  0  0
   40.5560   25.4210   39.2160 H   0  0  0  0  0  0  0  0  0  0  0  0
   38.2860   30.1620   40.0330 S   0  0  0  0  0  0  0  0  0  0  0  0
   37.2720   31.1920   39.5870 O   0  0  0  0  0  0  0  0  0  0  0  0
   39.4280   31.0230   40.6530 O   0  0  0  0  0  0  0  0  0  0  0  0
   39.7380   31.9360   37.5740 O   0  0  0  0  0  0  0  0  0  0  0  0
   39.6980   30.6920   37.7500 C   0  0  0  0  0  0  0  0  0  0  0  0
   39.0080   29.6520   38.6110 C   0  0  1  0  0  3  0  0  0  0  0  0
   40.4130   29.1010   39.0590 C   0  0  0  0  0  3  0  0  0  0  0  0
   40.2550   28.2510   39.7380 H   0  0  0  0  0  0  0  0  0  0  0  0
   40.9670   28.7100   37.7190 C   0  0  0  0  0  3  0  0  0  0  0  0
   42.0690   28.6210   37.7350 H   0  0  0  0  0  0  0  0  0  0  0  0
   40.5450   29.8700   36.9150 N   0  0  0  0  0  0  0  0  0  0  0  0
   40.8920   29.9390   35.9170 H   0  0  0  0  0  0  0  0  0  0  0  0
  1  6  1  0  0  0  0
  2  1  2  0  0  0  0
  2  3  1  0  0  0  0
  3  4  2  0  0  0  0
  4  5  1  0  0  0  0
  4  8  1  0  0  0  0
  5  9  1  0  0  0  0
  6 10  1  0  0  0  0
  6  5  2  0  0  0  0
  7  3  1  0  0  0  0
 11 12  1  0  0  0  0
 12 13  1  0  0  0  0
 13 23  1  0  0  0  0
 13 14  2  0  0  0  0
 14  2  1  0  0  0  0
 15 14  1  0  0  0  0
 15 18  1  0  0  0  0
 16 15  2  0  0  0  0
 17 12  2  0  0  0  0
 17 16  1  0  0  0  0
 19 16  1  0  0  0  0
 20 17  1  0  0  0  0
 21 27  1  0  0  0  0
 22 28  1  0  0  0  0
 22 21  1  0  0  0  0
 23 22  2  0  0  0  0
 24 25  2  0  0  0  0
 24 23  1  0  0  0  0
 25 26  1  0  0  0  0
 26 21  2  0  0  0  0
 29 25  1  0  0  0  0
 30 32  2  0  0  0  0
 30  1  1  0  0  0  0
 31 30  2  0  0  0  0
 33 34  2  0  0  0  0
 34 35  1  0  0  0  0
 35 36  1  0  0  0  0
 35 30  1  1  0  0  0
 36 37  1  0  0  0  0
 38 39  1  0  0  0  0
 38 36  1  0  0  0  0
 40 38  1  0  0  0  0
 40 34  1  0  0  0  0
 41 40  1  0  0  0  0
M  END
>  <minimizedAffinity>
-5.95522308

$$$$

 OpenBabel03252509103D

 41 44  0  0  1  0  0  0  0  0999 V2000
   36.5300   29.4160   39.2770 C   0  0  0  0  0  0  0  0  0  0  0  0
   36.6310   28.1440   39.7540 C   0  0  0  0  0  0  0  0  0  0  0  0
   36.0810   27.1120   39.0180 C   0  0  0  0  0  0  0  0  0  0  0  0
   35.4440   27.3680   37.8260 C   0  0  0  0  0  0  0  0  0  0  0  0
   35.3320   28.6600   37.3210 C   0  0  0  0  0  0  0  0  0  0  0  0
   35.8880   29.6910   38.0700 C   0  0  0  0  0  0  0  0  0  0  0  0
   36.1380   26.0820   39.3630 H   0  0  0  0  0  0  0  0  0  0  0  0
   35.0220   26.5420   37.2730 H   0  0  0  0  0  0  0  0  0  0  0  0
   34.8390   28.8940   36.3870 H   0  0  0  0  0  0  0  0  0  0  0  0
   35.8060   30.6940   37.6870 H   0  0  0  0  0  0  0  0  0  0  0  0
   40.8120   26.4610   42.2410 Cl  0  0  0  0  0  0  0  0  0  0  0  0
   39.1630   27.0060   42.1460 C   0  0  0  0  0  0  0  0  0  0  0  0
   38.6100   27.3530   40.9670 C   0  0  0  0  0  0  0  0  0  0  0  0
   37.2840   27.7730   41.0010 C   0  0  0  0  0  0  0  0  0  0  0  0
   36.5650   27.8380   42.1670 C   0  0  0  0  0  0  0  0  0  0  0  0
   37.1450   27.4820   43.3440 C   0  0  0  0  0  0  0  0  0  0  0  0
   38.4550   27.0630   43.3240 C   0  0  0  0  0  0  0  0  0  0  0  0
   35.5290   28.1700   42.1770 H   0  0  0  0  0  0  0  0  0  0  0  0
   36.6250   27.5110   44.3010 H   0  0  0  0  0  0  0  0  0  0  0  0
   38.9200   26.7760   44.2760 H   0  0  0  0  0  0  0  0  0  0  0  0
   40.2240   26.0510   37.8140 C   0  0  0  0  0  0  0  0  0  0  0  0
   39.4620   26.1220   38.9830 C   0  0  0  0  0  0  0  0  0  0  0  0
   39.3950   27.2650   39.7600 C   0  0  0  0  0  0  0  0  0  0  0  0
   40.1250   28.3160   39.3020 N   0  0  0  0  0  0  0  0  0  0  0  0
   40.8580   28.2480   38.1770 C   0  0  0  0  0  0  0  0  0  0  0  0
   40.9050   27.1300   37.4450 N   0  0  0  0  0  0  0  0  0  0  0  0
   40.2160   25.1200   37.2720 H   0  0  0  0  0  0  0  0  0  0  0  0
   38.8890   25.2650   39.3260 H   0  0  0  0  0  0  0  0  0  0  0  0
   41.4440   29.0840   37.8030 H   0  0  0  0  0  0  0  0  0  0  0  0
   37.2050   30.7240   40.1120 S   0  0  0  0  0  0  0  0  0  0  0  0
   36.8710   32.0540   39.4740 O   0  0  0  0  0  0  0  0  0  0  0  0
   36.4060   30.7520   41.4500 O   0  0  0  0  0  0  0  0  0  0  0  0
   39.0000   33.5190   40.6230 O   0  0  0  0  0  0  0  0  0  0  0  0
   39.2680   32.3280   40.9210 C   0  0  0  0  0  0  0  0  0  0  0  0
   38.7710   30.9180   40.6720 C   0  0  1  0  0  3  0  0  0  0  0  0
   38.6640   30.6880   42.2260 C   0  0  0  0  0  3  0  0  0  0  0  0
   38.3150   29.6610   42.4050 H   0  0  0  0  0  0  0  0  0  0  0  0
   40.0970   30.9160   42.6120 C   0  0  0  0  0  3  0  0  0  0  0  0
   40.2050   31.1510   43.6870 H   0  0  0  0  0  0  0  0  0  0  0  0
   40.4060   32.0930   41.7820 N   0  0  0  0  0  0  0  0  0  0  0  0
   41.3420   32.5690   41.9190 H   0  0  0  0  0  0  0  0  0  0  0  0
  1  2  1  0  0  0  0
  1 30  1  0  0  0  0
  2 14  1  0  0  0  0
  3  7  1  0  0  0  0
  3  2  2  0  0  0  0
  4  3  1  0  0  0  0
  5  4  2  0  0  0  0
  5  6  1  0  0  0  0
  6  1  2  0  0  0  0
  8  4  1  0  0  0  0
  9  5  1  0  0  0  0
 10  6  1  0  0  0  0
 12 11  1  0  0  0  0
 12 17  1  0  0  0  0
 13 14  1  0  0  0  0
 13 12  2  0  0  0  0
 14 15  2  0  0  0  0
 15 18  1  0  0  0  0
 15 16  1  0  0  0  0
 16 19  1  0  0  0  0
 17 16  2  0  0  0  0
 17 20  1  0  0  0  0
 21 22  1  0  0  0  0
 22 28  1  0  0  0  0
 22 23  2  0  0  0  0
 23 13  1  0  0  0  0
 24 23  1  0  0  0  0
 25 24  2  0  0  0  0
 26 21  2  0  0  0  0
 26 25  1  0  0  0  0
 27 21  1  0  0  0  0
 29 25  1  0  0  0  0
 30 32  2  0  0  0  0
 31 30  2  0  0  0  0
 33 34  2  0  0  0  0
 34 40  1  0  0  0  0
 35 30  1  6  0  0  0
 35 34  1  0  0  0  0
 35 36  1  0  0  0  0
 36 37  1  0  0  0  0
 36 38  1  0  0  0  0
 38 39  1  0  0  0  0
 40 41  1  0  0  0  0
 40 38  1  0  0  0  0
M  END
>  <minimizedAffinity>
-5.81095743

$$$$

 OpenBabel03252509103D

 41 44  0  0  1  0  0  0  0  0999 V2000
   37.6190   25.9780   39.8410 C   0  0  0  0  0  0  0  0  0  0  0  0
   37.2340   26.7110   40.9230 C   0  0  0  0  0  0  0  0  0  0  0  0
   36.8710   26.0490   42.0800 C   0  0  0  0  0  0  0  0  0  0  0  0
   36.9010   24.6750   42.1360 C   0  0  0  0  0  0  0  0  0  0  0  0
   37.2930   23.9080   41.0430 C   0  0  0  0  0  0  0  0  0  0  0  0
   37.6550   24.5840   39.8840 C   0  0  0  0  0  0  0  0  0  0  0  0
   36.5560   26.5970   42.9660 H   0  0  0  0  0  0  0  0  0  0  0  0
   36.6110   24.1850   43.0540 H   0  0  0  0  0  0  0  0  0  0  0  0
   37.3280   22.8280   41.0560 H   0  0  0  0  0  0  0  0  0  0  0  0
   37.9610   23.9980   39.0330 H   0  0  0  0  0  0  0  0  0  0  0  0
   39.4350   31.2170   42.0840 Cl  0  0  0  0  0  0  0  0  0  0  0  0
   38.1450   30.2160   41.4850 C   0  0  0  0  0  0  0  0  0  0  0  0
   38.2610   28.8730   41.4570 C   0  0  0  0  0  0  0  0  0  0  0  0
   37.1710   28.1650   40.9610 C   0  0  0  0  0  0  0  0  0  0  0  0
   36.0320   28.7870   40.5190 C   0  0  0  0  0  0  0  0  0  0  0  0
   35.9380   30.1430   40.5580 C   0  0  0  0  0  0  0  0  0  0  0  0
   37.0090   30.8560   41.0480 C   0  0  0  0  0  0  0  0  0  0  0  0
   35.1880   28.2190   40.1330 H   0  0  0  0  0  0  0  0  0  0  0  0
   35.0600   30.6940   40.2230 H   0  0  0  0  0  0  0  0  0  0  0  0
   36.9310   31.9490   41.0790 H   0  0  0  0  0  0  0  0  0  0  0  0
   40.7950   27.1780   43.6800 C   0  0  0  0  0  0  0  0  0  0  0  0
   39.6180   27.7800   43.2290 C   0  0  0  0  0  0  0  0  0  0  0  0
   39.4720   28.2530   41.9370 C   0  0  0  0  0  0  0  0  0  0  0  0
   40.5580   28.0890   41.1370 N   0  0  0  0  0  0  0  0  0  0  0  0
   41.6910   27.5090   41.5710 C   0  0  0  0  0  0  0  0  0  0  0  0
   41.8060   27.0610   42.8250 N   0  0  0  0  0  0  0  0  0  0  0  0
   40.8190   26.8390   44.7020 H   0  0  0  0  0  0  0  0  0  0  0  0
   38.7650   27.8980   43.8910 H   0  0  0  0  0  0  0  0  0  0  0  0
   42.5640   27.3740   40.9380 H   0  0  0  0  0  0  0  0  0  0  0  0
   38.1040   26.7220   38.4010 S   0  0  0  0  0  0  0  0  0  0  0  0
   39.5210   27.2460   38.4680 O   0  0  0  0  0  0  0  0  0  0  0  0
   38.2030   25.5360   37.3950 O   0  0  0  0  0  0  0  0  0  0  0  0
   38.6620   30.0130   38.0070 O   0  0  0  0  0  0  0  0  0  0  0  0
   37.8610   29.2570   37.4010 C   0  0  0  0  0  0  0  0  0  0  0  0
   37.2880   27.8560   37.4780 C   0  0  1  0  0  3  0  0  0  0  0  0
   37.7730   27.5850   36.0040 C   0  0  0  0  0  3  0  0  0  0  0  0
   37.4730   26.5660   35.7190 H   0  0  0  0  0  0  0  0  0  0  0  0
   37.0120   28.6630   35.2880 C   0  0  0  0  0  3  0  0  0  0  0  0
   37.4520   28.8960   34.3010 H   0  0  0  0  0  0  0  0  0  0  0  0
   37.2030   29.7830   36.2260 N   0  0  0  0  0  0  0  0  0  0  0  0
   36.8610   30.7420   35.9350 H   0  0  0  0  0  0  0  0  0  0  0  0
  1  6  2  0  0  0  0
  1  2  1  0  0  0  0
  2 14  1  0  0  0  0
  2  3  2  0  0  0  0
  3  4  1  0  0  0  0
  3  7  1  0  0  0  0
  4  8  1  0  0  0  0
  5  9  1  0  0  0  0
  5  4  2  0  0  0  0
  6  5  1  0  0  0  0
 10  6  1  0  0  0  0
 12 11  1  0  0  0  0
 13 12  1  0  0  0  0
 13 23  1  0  0  0  0
 14 13  2  0  0  0  0
 15 16  2  0  0  0  0
 15 14  1  0  0  0  0
 16 17  1  0  0  0  0
 17 20  1  0  0  0  0
 17 12  2  0  0  0  0
 18 15  1  0  0  0  0
 19 16  1  0  0  0  0
 21 27  1  0  0  0  0
 22 21  1  0  0  0  0
 22 28  1  0  0  0  0
 23 22  2  0  0  0  0
 24 25  2  0  0  0  0
 24 23  1  0  0  0  0
 25 26  1  0  0  0  0
 26 21  2  0  0  0  0
 29 25  1  0  0  0  0
 30 31  2  0  0  0  0
 30  1  1  0  0  0  0
 32 30  2  0  0  0  0
 34 35  1  0  0  0  0
 34 33  2  0  0  0  0
 35 30  1  1  0  0  0
 36 35  1  0  0  0  0
 37 36  1  0  0  0  0
 38 36  1  0  0  0  0
 38 40  1  0  0  0  0
 39 38  1  0  0  0  0
 40 34  1  0  0  0  0
 41 40  1  0  0  0  0
M  END
>  <minimizedAffinity>
-5.75816345

$$$$

 OpenBabel03252509103D

 41 44  0  0  1  0  0  0  0  0999 V2000
   36.2250   27.3750   39.0780 C   0  0  0  0  0  0  0  0  0  0  0  0
   35.9740   28.2550   40.0880 C   0  0  0  0  0  0  0  0  0  0  0  0
   34.8860   29.0990   39.9780 C   0  0  0  0  0  0  0  0  0  0  0  0
   34.0740   29.0490   38.8700 C   0  0  0  0  0  0  0  0  0  0  0  0
   34.3130   28.1580   37.8290 C   0  0  0  0  0  0  0  0  0  0  0  0
   35.4100   27.3130   37.9480 C   0  0  0  0  0  0  0  0  0  0  0  0
   34.6500   29.8170   40.7610 H   0  0  0  0  0  0  0  0  0  0  0  0
   33.2310   29.7230   38.8110 H   0  0  0  0  0  0  0  0  0  0  0  0
   33.6930   28.0930   36.9450 H   0  0  0  0  0  0  0  0  0  0  0  0
   35.6020   26.6190   37.1480 H   0  0  0  0  0  0  0  0  0  0  0  0
   39.5850   30.7460   42.7790 Cl  0  0  0  0  0  0  0  0  0  0  0  0
   38.4100   29.4890   42.5320 C   0  0  0  0  0  0  0  0  0  0  0  0
   37.6840   29.4270   41.3980 C   0  0  0  0  0  0  0  0  0  0  0  0
   36.7730   28.3810   41.2990 C   0  0  0  0  0  0  0  0  0  0  0  0
   36.6090   27.4540   42.2960 C   0  0  0  0  0  0  0  0  0  0  0  0
   37.3530   27.5370   43.4300 C   0  0  0  0  0  0  0  0  0  0  0  0
   38.2600   28.5660   43.5410 C   0  0  0  0  0  0  0  0  0  0  0  0
   35.8910   26.6410   42.2030 H   0  0  0  0  0  0  0  0  0  0  0  0
   37.2690   26.8300   44.2560 H   0  0  0  0  0  0  0  0  0  0  0  0
   38.8590   28.6300   44.4570 H   0  0  0  0  0  0  0  0  0  0  0  0
   39.0620   31.2740   38.4090 C   0  0  0  0  0  0  0  0  0  0  0  0
   38.8770   30.3110   39.4050 C   0  0  0  0  0  0  0  0  0  0  0  0
   37.8890   30.4160   40.3680 C   0  0  0  0  0  0  0  0  0  0  0  0
   37.1100   31.5250   40.2740 N   0  0  0  0  0  0  0  0  0  0  0  0
   37.2880   32.4520   39.3160 C   0  0  0  0  0  0  0  0  0  0  0  0
   38.2510   32.3260   38.3980 N   0  0  0  0  0  0  0  0  0  0  0  0
   39.8570   31.1090   37.7010 H   0  0  0  0  0  0  0  0  0  0  0  0
   39.5160   29.4340   39.4550 H   0  0  0  0  0  0  0  0  0  0  0  0
   36.6680   33.3420   39.2350 H   0  0  0  0  0  0  0  0  0  0  0  0
   37.5230   26.2920   39.1590 S   0  0  0  0  0  0  0  0  0  0  0  0
   37.2420   25.1170   40.0690 O   0  0  0  0  0  0  0  0  0  0  0  0
   37.5490   25.6510   37.7380 O   0  0  0  0  0  0  0  0  0  0  0  0
   40.1830   24.2400   39.0550 O   0  0  0  0  0  0  0  0  0  0  0  0
   40.1390   25.4920   39.1520 C   0  0  0  0  0  0  0  0  0  0  0  0
   39.1490   26.6140   39.3930 C   0  0  1  0  0  3  0  0  0  0  0  0
   39.6110   27.3000   38.0530 C   0  0  0  0  0  3  0  0  0  0  0  0
   39.0460   28.2350   37.9250 H   0  0  0  0  0  0  0  0  0  0  0  0
   41.0640   27.5090   38.3660 C   0  0  0  0  0  3  0  0  0  0  0  0
   41.6690   27.6560   37.4520 H   0  0  0  0  0  0  0  0  0  0  0  0
   41.3810   26.2190   39.0040 N   0  0  0  0  0  0  0  0  0  0  0  0
   42.3910   26.0160   39.2460 H   0  0  0  0  0  0  0  0  0  0  0  0
  1 30  1  0  0  0  0
  1  2  1  0  0  0  0
  2 14  1  0  0  0  0
  3  2  2  0  0  0  0
  3  7  1  0  0  0  0
  4  3  1  0  0  0  0
  5  6  1  0  0  0  0
  5  4  2  0  0  0  0
  6  1  2  0  0  0  0
  8  4  1  0  0  0  0
  9  5  1  0  0  0  0
 10  6  1  0  0  0  0
 12 11  1  0  0  0  0
 12 17  1  0  0  0  0
 13 12  2  0  0  0  0
 14 13  1  0  0  0  0
 14 15  2  0  0  0  0
 15 16  1  0  0  0  0
 16 17  2  0  0  0  0
 16 19  1  0  0  0  0
 17 20  1  0  0  0  0
 18 15  1  0  0  0  0
 21 22  1  0  0  0  0
 22 28  1  0  0  0  0
 22 23  2  0  0  0  0
 23 13  1  0  0  0  0
 24 23  1  0  0  0  0
 25 24  2  0  0  0  0
 26 21  2  0  0  0  0
 26 25  1  0  0  0  0
 27 21  1  0  0  0  0
 29 25  1  0  0  0  0
 30 31  2  0  0  0  0
 32 30  2  0  0  0  0
 33 34  2  0  0  0  0
 34 35  1  0  0  0  0
 35 30  1  6  0  0  0
 36 38  1  0  0  0  0
 36 35  1  0  0  0  0
 37 36  1  0  0  0  0
 38 40  1  0  0  0  0
 39 38  1  0  0  0  0
 40 34  1  0  0  0  0
 40 41  1  0  0  0  0
M  END
>  <minimizedAffinity>
-5.75371122

$$$$

 OpenBabel03252509103D

 41 44  0  0  1  0  0  0  0  0999 V2000
   38.4660   29.1430   42.1010 C   0  0  0  0  0  0  0  0  0  0  0  0
   37.9460   29.8590   41.0650 C   0  0  0  0  0  0  0  0  0  0  0  0
   38.4230   31.1340   40.8320 C   0  0  0  0  0  0  0  0  0  0  0  0
   39.4060   31.6680   41.6320 C   0  0  0  0  0  0  0  0  0  0  0  0
   39.9510   30.9530   42.6940 C   0  0  0  0  0  0  0  0  0  0  0  0
   39.4630   29.6710   42.9210 C   0  0  0  0  0  0  0  0  0  0  0  0
   38.0340   31.7400   40.0160 H   0  0  0  0  0  0  0  0  0  0  0  0
   39.7580   32.6690   41.4270 H   0  0  0  0  0  0  0  0  0  0  0  0
   40.7250   31.3440   43.3410 H   0  0  0  0  0  0  0  0  0  0  0  0
   39.8800   29.1100   43.7400 H   0  0  0  0  0  0  0  0  0  0  0  0
   36.6020   27.7740   36.5550 Cl  0  0  0  0  0  0  0  0  0  0  0  0
   36.2760   28.4450   38.1250 C   0  0  0  0  0  0  0  0  0  0  0  0
   37.2770   28.8580   38.9280 C   0  0  0  0  0  0  0  0  0  0  0  0
   36.9070   29.3810   40.1630 C   0  0  0  0  0  0  0  0  0  0  0  0
   35.5980   29.4760   40.5580 C   0  0  0  0  0  0  0  0  0  0  0  0
   34.6060   29.0530   39.7310 C   0  0  0  0  0  0  0  0  0  0  0  0
   34.9570   28.5340   38.5050 C   0  0  0  0  0  0  0  0  0  0  0  0
   35.3250   29.8860   41.5280 H   0  0  0  0  0  0  0  0  0  0  0  0
   33.5480   29.1030   39.9870 H   0  0  0  0  0  0  0  0  0  0  0  0
   34.1540   28.1940   37.8390 H   0  0  0  0  0  0  0  0  0  0  0  0
   40.6280   29.6540   37.3880 C   0  0  0  0  0  0  0  0  0  0  0  0
   39.3040   29.7710   37.8170 C   0  0  0  0  0  0  0  0  0  0  0  0
   38.6420   28.7490   38.4760 C   0  0  0  0  0  0  0  0  0  0  0  0
   39.3750   27.6230   38.6760 N   0  0  0  0  0  0  0  0  0  0  0  0
   40.6500   27.5110   38.2630 C   0  0  0  0  0  0  0  0  0  0  0  0
   41.2660   28.5130   37.6290 N   0  0  0  0  0  0  0  0  0  0  0  0
   41.0630   30.5010   36.8840 H   0  0  0  0  0  0  0  0  0  0  0  0
   38.7410   30.6840   37.6430 H   0  0  0  0  0  0  0  0  0  0  0  0
   41.2440   26.6140   38.4200 H   0  0  0  0  0  0  0  0  0  0  0  0
   37.9500   27.5660   42.4260 S   0  0  0  0  0  0  0  0  0  0  0  0
   38.7650   26.9010   43.5130 O   0  0  0  0  0  0  0  0  0  0  0  0
   36.5550   27.7700   43.0920 O   0  0  0  0  0  0  0  0  0  0  0  0
   39.9630   25.2210   41.1030 O   0  0  0  0  0  0  0  0  0  0  0  0
   38.7140   25.3380   41.0330 C   0  0  0  0  0  0  0  0  0  0  0  0
   37.6100   26.3270   41.3510 C   0  0  1  0  0  3  0  0  0  0  0  0
   36.8910   25.2330   42.2260 C   0  0  0  0  0  3  0  0  0  0  0  0
   35.9620   25.6610   42.6280 H   0  0  0  0  0  0  0  0  0  0  0  0
   36.6690   24.1810   41.1780 C   0  0  0  0  0  3  0  0  0  0  0  0
   36.4950   23.1840   41.6220 H   0  0  0  0  0  0  0  0  0  0  0  0
   37.9670   24.2280   40.4830 N   0  0  0  0  0  0  0  0  0  0  0  0
   38.1610   23.5020   39.7370 H   0  0  0  0  0  0  0  0  0  0  0  0
  1 30  1  0  0  0  0
  1  6  1  0  0  0  0
  2  1  2  0  0  0  0
  3  2  1  0  0  0  0
  3  4  2  0  0  0  0
  4  5  1  0  0  0  0
  5  6  2  0  0  0  0
  5  9  1  0  0  0  0
  6 10  1  0  0  0  0
  7  3  1  0  0  0  0
  8  4  1  0  0  0  0
 11 12  1  0  0  0  0
 12 17  2  0  0  0  0
 12 13  1  0  0  0  0
 13 14  2  0  0  0  0
 14 15  1  0  0  0  0
 14  2  1  0  0  0  0
 15 18  1  0  0  0  0
 16 19  1  0  0  0  0
 16 15  2  0  0  0  0
 17 16  1  0  0  0  0
 20 17  1  0  0  0  0
 21 26  2  0  0  0  0
 21 22  1  0  0  0  0
 22 23  2  0  0  0  0
 23 24  1  0  0  0  0
 23 13  1  0  0  0  0
 25 29  1  0  0  0  0
 25 24  2  0  0  0  0
 26 25  1  0  0  0  0
 27 21  1  0  0  0  0
 28 22  1  0  0  0  0
 30 32  2  0  0  0  0
 30 31  2  0  0  0  0
 34 33  2  0  0  0  0
 34 35  1  0  0  0  0
 35 36  1  0  0  0  0
 35 30  1  1  0  0  0
 36 37  1  0  0  0  0
 38 39  1  0  0  0  0
 38 36  1  0  0  0  0
 40 34  1  0  0  0  0
 40 38  1  0  0  0  0
 41 40  1  0  0  0  0
M  END
>  <minimizedAffinity>
-5.59975576

$$$$
