
     RDKit          3D

 44 47  0  0  0  0  0  0  0  0999 V2000
   45.2857   35.2902   43.1185 Cl  0  0  0  0  0  0  0  0  0  0  0  0
   45.1700   34.5366   41.5551 C   0  0  0  0  0  0  0  0  0  0  0  0
   46.2744   34.1568   40.8806 C   0  0  0  0  0  0  0  0  0  0  0  0
   46.0707   33.5620   39.6399 C   0  0  0  0  0  0  0  0  0  0  0  0
   44.8187   33.3670   39.1162 C   0  0  0  0  0  0  0  0  0  0  0  0
   43.7212   33.7581   39.8149 C   0  0  0  0  0  0  0  0  0  0  0  0
   43.9067   34.3472   41.0450 C   0  0  0  0  0  0  0  0  0  0  0  0
   49.5460   35.7439   41.8883 C   0  0  0  0  0  0  0  0  0  0  0  0
   48.2888   35.5470   41.3109 C   0  0  0  0  0  0  0  0  0  0  0  0
   47.5735   34.3724   41.4668 C   0  0  0  0  0  0  0  0  0  0  0  0
   48.1853   33.4232   42.2240 N   0  0  0  0  0  0  0  0  0  0  0  0
   49.3948   33.6134   42.7793 C   0  0  0  0  0  0  0  0  0  0  0  0
   50.0636   34.7581   42.6124 N   0  0  0  0  0  0  0  0  0  0  0  0
   47.8030   31.8860   38.9828 C   0  0  0  0  0  0  0  0  0  0  0  0
   47.2268   33.1164   38.8749 C   0  0  0  0  0  0  0  0  0  0  0  0
   47.7602   34.0244   37.9811 C   0  0  0  0  0  0  0  0  0  0  0  0
   48.8517   33.6894   37.2153 C   0  0  0  0  0  0  0  0  0  0  0  0
   49.4536   32.4376   37.3095 C   0  0  0  0  0  0  0  0  0  0  0  0
   48.9100   31.5320   38.2115 C   0  0  0  0  0  0  0  0  0  0  0  0
   47.1852   30.7146   40.0359 S   0  0  0  0  0  0  0  0  0  0  0  0
   46.7831   29.4445   39.3196 O   0  0  0  0  0  0  0  0  0  0  0  0
   48.4301   30.2833   40.8694 O   0  0  0  0  0  0  0  0  0  0  0  0
   44.6772   32.9012   38.1426 H   0  0  0  0  0  0  0  0  0  0  0  0
   42.7010   33.6293   39.4517 H   0  0  0  0  0  0  0  0  0  0  0  0
   43.0188   34.6615   41.6069 H   0  0  0  0  0  0  0  0  0  0  0  0
   50.0289   36.6908   41.7129 H   0  0  0  0  0  0  0  0  0  0  0  0
   47.8245   36.3242   40.7104 H   0  0  0  0  0  0  0  0  0  0  0  0
   49.8899   32.8592   43.3860 H   0  0  0  0  0  0  0  0  0  0  0  0
   47.3314   35.0169   37.8646 H   0  0  0  0  0  0  0  0  0  0  0  0
   49.2478   34.4205   36.5247 H   0  0  0  0  0  0  0  0  0  0  0  0
   50.3125   32.1440   36.7203 H   0  0  0  0  0  0  0  0  0  0  0  0
   49.3691   30.5612   38.2911 H   0  0  0  0  0  0  0  0  0  0  0  0
   47.4350   32.1002   43.0890 O   0  0  0  0  0  0  0  0  0  0  0  0
   46.4184   31.6807   42.4788 C   0  0  0  0  0  0  0  0  0  0  0  0
   46.0385   30.8873   41.2437 C   0  0  1  0  0  0  0  0  0  0  0  0
   45.1365   32.0856   40.7613 C   0  0  2  0  0  0  0  0  0  0  0  0
   44.6578   31.8025   39.8128 H   0  0  0  0  0  0  0  0  0  0  0  0
   44.1839   32.1641   41.9199 C   0  0  1  0  0  0  0  0  0  0  0  0
   43.6782   33.1449   41.9740 H   0  0  0  0  0  0  0  0  0  0  0  0
   45.1237   31.9936   43.0411 N   0  0  0  0  0  0  0  0  0  0  0  0
   45.2289   30.1947   41.4270 H   0  0  0  0  0  0  0  0  0  0  0  0
   45.7814   32.9577   40.7317 H   0  0  0  0  0  0  0  0  0  0  0  0
   43.4268   31.3576   41.8953 H   0  0  0  0  0  0  0  0  0  0  0  0
   44.7531   32.1139   44.0254 H   0  0  0  0  0  0  0  0  0  0  0  0
  2  1  1  0
  3 10  1  0
  3  2  2  0
  4  3  1  0
  5  4  2  0
  5  6  1  0
  6  7  2  0
  7  2  1  0
  8 13  2  0
  9 10  2  0
  9  8  1  0
 10 11  1  0
 11 12  2  0
 13 12  1  0
 14 20  1  0
 15 14  1  0
 15  4  1  0
 16 15  2  0
 17 18  2  0
 17 16  1  0
 18 19  1  0
 19 14  2  0
 20 22  2  0
 21 20  2  0
  5 23  1  0
  6 24  1  0
  7 25  1  0
  8 26  1  0
  9 27  1  0
 12 28  1  0
 16 29  1  0
 17 30  1  0
 18 31  1  0
 19 32  1  0
 33 34  2  0
 34 35  1  0
 35 36  1  0
 36 37  1  6
 36 38  1  0
 38 39  1  1
 38 40  1  0
 40 34  1  0
 35 41  1  1
 36 42  1  0
 38 43  1  0
 40 44  1  0
 20 35  1  0
M  ISO  8  23  14  24  14  25  14  26  14  27  14  28  14  29  14  30  14
M  ISO  4  31  14  32  14  37   8  39   8
M  END
>  <DihAtoms>  (1) 
13,19,34,33

>  <DihDeg>  (1) 
95.59261333537503

$$$$
