
     RDKit          3D

 47 50  0  0  0  0  0  0  0  0999 V2000
   44.5032   35.5354   45.1207 C   0  0  0  0  0  0  0  0  0  0  0  0
   45.1674   35.5085   43.8756 C   0  0  0  0  0  0  0  0  0  0  0  0
   46.0880   34.5410   43.6404 C   0  0  0  0  0  0  0  0  0  0  0  0
   46.3123   33.6493   44.6344 N   0  0  0  0  0  0  0  0  0  0  0  0
   45.6862   33.6791   45.8011 C   0  0  0  0  0  0  0  0  0  0  0  0
   44.7772   34.6158   46.0630 N   0  0  0  0  0  0  0  0  0  0  0  0
   46.0094   32.6801   46.7847 N   0  0  0  0  0  0  0  0  0  0  0  0
   45.2633   32.4491   47.9689 C   0  0  0  0  0  0  0  0  0  0  0  0
   46.3335   32.1147   48.9927 C   0  0  0  0  0  0  0  0  0  0  0  0
   47.6178   32.0079   48.2350 C   0  0  0  0  0  0  0  0  0  0  0  0
   47.1332   31.7731   46.8036 C   0  0  1  0  0  0  0  0  0  0  0  0
   44.8171   36.5256   42.9252 N   0  0  0  0  0  0  0  0  0  0  0  0
   46.6267   30.0774   46.6385 S   0  0  0  0  0  0  0  0  0  0  0  0
   45.6102   30.5087   43.4885 O   0  0  0  0  0  0  0  0  0  0  0  0
   44.9785   29.9867   44.4210 C   0  0  0  0  0  0  0  0  0  0  0  0
   45.0782   29.7809   45.8892 C   0  0  1  0  0  0  0  0  0  0  0  0
   44.5422   28.3791   46.0319 C   0  0  0  0  0  0  0  0  0  0  0  0
   43.2247   28.5822   45.2746 C   0  0  0  0  0  0  0  0  0  0  0  0
   43.7270   29.3345   44.1309 N   0  0  0  0  0  0  0  0  0  0  0  0
   43.7744   36.2994   45.3098 H   0  0  0  0  0  0  0  0  0  0  0  0
   46.6010   34.5027   42.7068 H   0  0  0  0  0  0  0  0  0  0  0  0
   44.4366   31.8224   48.0614 H   0  0  0  0  0  0  0  0  0  0  0  0
   44.9056   33.4735   48.3116 H   0  0  0  0  0  0  0  0  0  0  0  0
   46.3401   32.7494   49.8745 H   0  0  0  0  0  0  0  0  0  0  0  0
   46.1130   31.0734   49.3702 H   0  0  0  0  0  0  0  0  0  0  0  0
   48.2043   31.1291   48.5274 H   0  0  0  0  0  0  0  0  0  0  0  0
   48.1670   32.9709   48.3011 H   0  0  0  0  0  0  0  0  0  0  0  0
   47.9236   32.0882   46.1085 H   0  0  0  0  0  0  0  0  0  0  0  0
   43.8326   36.8597   42.8711 H   0  0  0  0  0  0  0  0  0  0  0  0
   45.5534   36.9265   42.2911 H   0  0  0  0  0  0  0  0  0  0  0  0
   44.1957   30.3813   46.2364 H   0  0  0  0  0  0  0  0  0  0  0  0
   44.3727   28.1189   47.0903 H   0  0  0  0  0  0  0  0  0  0  0  0
   45.1546   27.6369   45.4887 H   0  0  0  0  0  0  0  0  0  0  0  0
   42.5107   29.1547   45.8869 H   0  0  0  0  0  0  0  0  0  0  0  0
   42.8402   27.5919   44.9557 H   0  0  0  0  0  0  0  0  0  0  0  0
   43.8719   31.1458   41.4842 O   0  0  0  0  0  0  0  0  0  0  0  0
   43.6747   29.9380   41.7610 C   0  0  0  0  0  0  0  0  0  0  0  0
   42.9522   29.3446   42.8884 C   0  0  1  0  0  0  0  0  0  0  0  0
   42.6749   27.9024   42.4575 C   0  0  1  0  0  0  0  0  0  0  0  0
   42.7861   27.2091   43.3302 H   0  0  0  0  0  0  0  0  0  0  0  0
   43.6605   27.6016   41.3709 C   0  0  1  0  0  0  0  0  0  0  0  0
   44.4717   26.9917   41.8250 H   0  0  0  0  0  0  0  0  0  0  0  0
   44.1786   28.9027   40.9322 N   0  0  0  0  0  0  0  0  0  0  0  0
   41.9546   29.7732   43.0917 H   0  0  0  0  0  0  0  0  0  0  0  0
   41.6436   27.7609   42.0952 H   0  0  0  0  0  0  0  0  0  0  0  0
   43.2173   27.0573   40.5140 H   0  0  0  0  0  0  0  0  0  0  0  0
   44.8305   28.9035   40.0942 H   0  0  0  0  0  0  0  0  0  0  0  0
  1  6  2  0
  2  1  1  0
  3  2  2  0
  3  4  1  0
  4  5  2  0
  5  6  1  0
  5  7  1  0
  7 11  1  0
  7  8  1  0
  8  9  1  0
 10  9  1  0
 11 10  1  0
 12  2  1  0
 13 11  1  0
 14 15  2  0
 15 16  1  0
 16 17  1  0
 16 13  1  0
 18 17  1  0
 19 15  1  0
 19 18  1  0
  1 20  1  0
  3 21  1  0
  8 22  1  0
  8 23  1  0
  9 24  1  0
  9 25  1  0
 10 26  1  0
 10 27  1  0
 11 28  1  6
 12 29  1  0
 12 30  1  0
 16 31  1  1
 17 32  1  0
 17 33  1  0
 18 34  1  0
 18 35  1  0
 36 37  2  0
 37 38  1  0
 38 39  1  0
 39 40  1  1
 39 41  1  0
 41 42  1  1
 41 43  1  0
 43 37  1  0
 38 44  1  1
 39 45  1  0
 41 46  1  0
 43 47  1  0
 19 38  1  0
M  ISO  8  20  14  21  14  22  13  23  13  24  13  25  13  26  13  27  13
M  ISO  8  28  13  31  13  32  13  33  13  34  13  35  13  40   8  42   8
M  END
>  <DihAtoms>  (1) 
14,18,37,36

>  <DihDeg>  (1) 
129.95704400010413

$$$$
