REMARK  Name = 
REMARK  4 active torsions:
REMARK  status: ('A' for Active; 'I' for Inactive)
REMARK    1  A    between atoms: C_3  and  C_10
REMARK    2  A    between atoms: C_4  and  C_15
REMARK    3  A    between atoms: C_14  and  S_20
REMARK    4  A    between atoms: S_20  and  C_35
REMARK                            x       y       z     vdW  Elec       q    Type
REMARK                         _______ _______ _______ _____ _____    ______ ____
ROOT
ATOM      1  C   UNL     1      47.803  31.886  38.983  0.00  0.00    +0.000 A 
ATOM      2  C   UNL     1      47.227  33.116  38.875  0.00  0.00    +0.000 A 
ATOM      3  C   UNL     1      47.760  34.024  37.981  0.00  0.00    +0.000 A 
ATOM      4  C   UNL     1      48.852  33.689  37.215  0.00  0.00    +0.000 A 
ATOM      5  C   UNL     1      49.454  32.438  37.309  0.00  0.00    +0.000 A 
ATOM      6  C   UNL     1      48.910  31.532  38.212  0.00  0.00    +0.000 A 
ATOM      7  H   UNL     1      47.331  35.017  37.865  0.00  0.00    +0.000 HD
ATOM      8  H   UNL     1      49.248  34.420  36.525  0.00  0.00    +0.000 HD
ATOM      9  H   UNL     1      50.312  32.144  36.720  0.00  0.00    +0.000 HD
ATOM     10  H   UNL     1      49.369  30.561  38.291  0.00  0.00    +0.000 HD
ENDROOT
BRANCH   2  14
ATOM     11 CL   UNL     1      45.286  35.290  43.118  0.00  0.00    +0.000 Cl
ATOM     12  C   UNL     1      45.170  34.537  41.555  0.00  0.00    +0.000 A 
ATOM     13  C   UNL     1      46.274  34.157  40.881  0.00  0.00    +0.000 A 
ATOM     14  C   UNL     1      46.071  33.562  39.640  0.00  0.00    +0.000 A 
ATOM     15  C   UNL     1      44.819  33.367  39.116  0.00  0.00    +0.000 A 
ATOM     16  C   UNL     1      43.721  33.758  39.815  0.00  0.00    +0.000 A 
ATOM     17  C   UNL     1      43.907  34.347  41.045  0.00  0.00    +0.000 A 
ATOM     18  H   UNL     1      44.677  32.901  38.143  0.00  0.00    +0.000 HD
ATOM     19  H   UNL     1      42.701  33.629  39.452  0.00  0.00    +0.000 HD
ATOM     20  H   UNL     1      43.019  34.661  41.607  0.00  0.00    +0.000 HD
BRANCH  13  23
ATOM     21  C   UNL     1      49.546  35.744  41.888  0.00  0.00    +0.000 A 
ATOM     22  C   UNL     1      48.289  35.547  41.311  0.00  0.00    +0.000 A 
ATOM     23  C   UNL     1      47.574  34.372  41.467  0.00  0.00    +0.000 A 
ATOM     24  N   UNL     1      48.185  33.423  42.224  0.00  0.00    +0.000 NA
ATOM     25  C   UNL     1      49.395  33.613  42.779  0.00  0.00    +0.000 A 
ATOM     26  N   UNL     1      50.064  34.758  42.612  0.00  0.00    +0.000 NA
ATOM     27  H   UNL     1      50.029  36.691  41.713  0.00  0.00    +0.000 HD
ATOM     28  H   UNL     1      47.825  36.324  40.710  0.00  0.00    +0.000 HD
ATOM     29  H   UNL     1      49.890  32.859  43.386  0.00  0.00    +0.000 HD
ENDBRANCH  13  23
ENDBRANCH   2  14
BRANCH   1  30
ATOM     30  S   UNL     1      47.185  30.715  40.036  0.00  0.00    +0.000 S 
ATOM     31  O   UNL     1      46.783  29.445  39.320  0.00  0.00    +0.000 OA
ATOM     32  O   UNL     1      48.430  30.283  40.869  0.00  0.00    +0.000 OA
BRANCH  30  35
ATOM     33  O   UNL     1      47.410  30.154  43.343  0.00  0.00    +0.000 OA
ATOM     34  C   UNL     1      46.479  30.678  42.679  0.00  0.00    +0.000 C 
ATOM     35  C   UNL     1      46.038  30.887  41.244  0.00  0.00    +0.000 C 
ATOM     36  C   UNL     1      45.968  32.440  41.500  0.00  0.00    +0.000 C 
ATOM     37  H   UNL     1      45.632  32.932  40.576  0.00  0.00    +0.000 HD
ATOM     38  C   UNL     1      44.950  32.466  42.604  0.00  0.00    +0.000 C 
ATOM     39  H   UNL     1      44.991  33.406  43.183  0.00  0.00    +0.000 HD
ATOM     40  N   UNL     1      45.416  31.327  43.414  0.00  0.00    +0.000 N 
ATOM     41  H   UNL     1      44.948  31.154  44.348  0.00  0.00    +0.000 HD
ENDBRANCH  30  35
ENDBRANCH   1  30
TORSDOF 4
