
 OpenBabel03252509073D

 41 44  0  0  1  0  0  0  0  0999 V2000
   47.5540   31.7850   39.0000 C   0  0  0  0  0  0  0  0  0  0  0  0
   47.1270   33.0790   38.9860 C   0  0  0  0  0  0  0  0  0  0  0  0
   47.7940   33.9910   38.1920 C   0  0  0  0  0  0  0  0  0  0  0  0
   48.8690   33.5970   37.4300 C   0  0  0  0  0  0  0  0  0  0  0  0
   49.3200   32.2810   37.4280 C   0  0  0  0  0  0  0  0  0  0  0  0
   48.6420   31.3710   38.2310 C   0  0  0  0  0  0  0  0  0  0  0  0
   47.4860   35.0340   38.1530 H   0  0  0  0  0  0  0  0  0  0  0  0
   49.3720   34.3330   36.8190 H   0  0  0  0  0  0  0  0  0  0  0  0
   50.1600   31.9400   36.8390 H   0  0  0  0  0  0  0  0  0  0  0  0
   48.9830   30.3500   38.2360 H   0  0  0  0  0  0  0  0  0  0  0  0
   45.3420   35.4650   43.1830 Cl  0  0  0  0  0  0  0  0  0  0  0  0
   45.1710   34.6620   41.6510 C   0  0  0  0  0  0  0  0  0  0  0  0
   46.2480   34.2210   40.9710 C   0  0  0  0  0  0  0  0  0  0  0  0
   46.0020   33.5900   39.7560 C   0  0  0  0  0  0  0  0  0  0  0  0
   44.7340   33.4190   39.2620 C   0  0  0  0  0  0  0  0  0  0  0  0
   43.6630   33.8710   39.9660 C   0  0  0  0  0  0  0  0  0  0  0  0
   43.8920   34.4970   41.1710 C   0  0  0  0  0  0  0  0  0  0  0  0
   44.5580   32.9240   38.3090 H   0  0  0  0  0  0  0  0  0  0  0  0
   42.6330   33.7640   39.6270 H   0  0  0  0  0  0  0  0  0  0  0  0
   43.0260   34.8600   41.7370 H   0  0  0  0  0  0  0  0  0  0  0  0
   49.5670   35.7530   41.9070 C   0  0  0  0  0  0  0  0  0  0  0  0
   48.2930   35.5790   41.3610 C   0  0  0  0  0  0  0  0  0  0  0  0
   47.5660   34.4130   41.5250 C   0  0  0  0  0  0  0  0  0  0  0  0
   48.1830   33.4480   42.2570 N   0  0  0  0  0  0  0  0  0  0  0  0
   49.4090   33.6160   42.7820 C   0  0  0  0  0  0  0  0  0  0  0  0
   50.0900   34.7540   42.6080 N   0  0  0  0  0  0  0  0  0  0  0  0
   50.0590   36.6950   41.7280 H   0  0  0  0  0  0  0  0  0  0  0  0
   47.8250   36.3680   40.7790 H   0  0  0  0  0  0  0  0  0  0  0  0
   49.9090   32.8500   43.3690 H   0  0  0  0  0  0  0  0  0  0  0  0
   46.7670   30.6090   39.9260 S   0  0  0  0  0  0  0  0  0  0  0  0
   45.4330   30.2050   39.3390 O   0  0  0  0  0  0  0  0  0  0  0  0
   47.6500   29.3400   39.7280 O   0  0  0  0  0  0  0  0  0  0  0  0
   45.1100   28.3790   41.8200 O   0  0  0  0  0  0  0  0  0  0  0  0
   45.8300   29.3500   42.1680 C   0  0  0  0  0  0  0  0  0  0  0  0
   46.5170   30.5670   41.5820 C   0  0  1  0  0  3  0  0  0  0  0  0
   47.8900   30.0680   42.1730 C   0  0  0  0  0  3  0  0  0  0  0  0
   48.6680   30.8010   41.9180 H   0  0  0  0  0  0  0  0  0  0  0  0
   47.5380   30.0410   43.6330 C   0  0  0  0  0  3  0  0  0  0  0  0
   48.2230   29.3970   44.2120 H   0  0  0  0  0  0  0  0  0  0  0  0
   46.1900   29.4490   43.5650 N   0  0  0  0  0  0  0  0  0  0  0  0
   45.7100   29.1970   44.4730 H   0  0  0  0  0  0  0  0  0  0  0  0
  1 30  1  0  0  0  0
  2  1  1  0  0  0  0
  2 14  1  0  0  0  0
  3  2  2  0  0  0  0
  4  3  1  0  0  0  0
  5  4  2  0  0  0  0
  5  6  1  0  0  0  0
  6 10  1  0  0  0  0
  6  1  2  0  0  0  0
  7  3  1  0  0  0  0
  8  4  1  0  0  0  0
  9  5  1  0  0  0  0
 12 11  1  0  0  0  0
 13 23  1  0  0  0  0
 13 12  2  0  0  0  0
 14 13  1  0  0  0  0
 15 14  2  0  0  0  0
 15 16  1  0  0  0  0
 16 17  2  0  0  0  0
 17 12  1  0  0  0  0
 17 20  1  0  0  0  0
 18 15  1  0  0  0  0
 19 16  1  0  0  0  0
 21 26  1  0  0  0  0
 22 23  1  0  0  0  0
 22 21  2  0  0  0  0
 23 24  2  0  0  0  0
 24 25  1  0  0  0  0
 25 29  1  0  0  0  0
 26 25  2  0  0  0  0
 27 21  1  0  0  0  0
 28 22  1  0  0  0  0
 31 30  2  0  0  0  0
 32 30  2  0  0  0  0
 33 34  2  0  0  0  0
 34 40  1  0  0  0  0
 35 30  1  6  0  0  0
 35 34  1  0  0  0  0
 35 36  1  0  0  0  0
 36 38  1  0  0  0  0
 37 36  1  0  0  0  0
 38 39  1  0  0  0  0
 40 38  1  0  0  0  0
 40 41  1  0  0  0  0
M  END
>  <minimizedAffinity>
-4.56465673

>  <minimizedRMSD>
0.915519178

$$$$
