
 OpenBabel03252506333D

 33 35  0  0  1  0  0  0  0  0999 V2000
   44.4750   35.7320   45.0130 C   0  0  0  0  0  0  0  0  0  0  0  0
   45.1190   35.6960   43.7600 C   0  0  0  0  0  0  0  0  0  0  0  0
   46.0200   34.7080   43.5020 C   0  0  0  0  0  0  0  0  0  0  0  0
   46.2450   33.8040   44.4880 N   0  0  0  0  0  0  0  0  0  0  0  0
   45.6270   33.8490   45.6750 C   0  0  0  0  0  0  0  0  0  0  0  0
   44.7470   34.8030   45.9430 N   0  0  0  0  0  0  0  0  0  0  0  0
   45.9510   32.8390   46.6230 N   0  0  0  0  0  0  0  0  0  0  0  0
   45.1620   32.5670   47.8290 C   0  0  0  0  0  0  0  0  0  0  0  0
   46.2440   32.2580   48.8410 C   0  0  0  0  0  0  0  0  0  0  0  0
   47.5210   32.0890   48.0780 C   0  0  0  0  0  0  0  0  0  0  0  0
   47.0400   31.8990   46.6460 C   0  0  1  0  0  0  0  0  0  0  0  0
   43.7400   36.4770   45.3200 H   0  0  0  0  0  0  0  0  0  0  0  0
   46.5110   34.6820   42.5430 H   0  0  0  0  0  0  0  0  0  0  0  0
   44.6150   31.6200   47.6200 H   0  0  0  0  0  0  0  0  0  0  0  0
   44.5070   33.3970   48.1020 H   0  0  0  0  0  0  0  0  0  0  0  0
   46.2620   33.0720   49.5970 H   0  0  0  0  0  0  0  0  0  0  0  0
   45.9900   31.3240   49.4200 H   0  0  0  0  0  0  0  0  0  0  0  0
   48.0150   31.1440   48.3940 H   0  0  0  0  0  0  0  0  0  0  0  0
   48.1530   32.9690   48.1930 H   0  0  0  0  0  0  0  0  0  0  0  0
   47.8610   32.1880   45.9580 H   0  0  0  0  0  0  0  0  0  0  0  0
   44.7630   36.7280   42.8250 N   0  0  0  0  0  0  0  0  0  0  0  0
   44.0680   36.5720   42.0450 H   0  0  0  0  0  0  0  0  0  0  0  0
   45.1980   37.6730   42.9050 H   0  0  0  0  0  0  0  0  0  0  0  0
   46.5060   30.2100   46.4500 S   0  0  0  0  0  0  0  0  0  0  0  0
   45.7300   27.1620   45.3120 O   0  0  0  0  0  0  0  0  0  0  0  0
   45.8180   28.2290   44.6560 C   0  0  0  0  0  0  0  0  0  0  0  0
   46.2530   29.6310   44.8090 C   0  0  1  0  0  3  0  0  0  0  0  0
   45.2460   30.3670   43.9710 C   0  0  0  0  0  3  0  0  0  0  0  0
   45.5620   31.3870   43.6820 H   0  0  0  0  0  0  0  0  0  0  0  0
   45.3640   29.5350   42.6840 C   0  0  0  0  0  3  0  0  0  0  0  0
   44.5470   29.6970   41.9870 H   0  0  0  0  0  0  0  0  0  0  0  0
   45.3790   28.1940   43.2810 N   0  0  0  0  0  0  0  0  0  0  0  0
   45.0830   27.3940   42.6800 H   0  0  0  0  0  0  0  0  0  0  0  0
  1 12  1  0  0  0  0
  1  6  1  0  0  0  0
  2  1  2  0  0  0  0
  3  2  1  0  0  0  0
  3  4  2  0  0  0  0
  4  5  1  0  0  0  0
  5  6  2  0  0  0  0
  5  7  1  0  0  0  0
  7 11  1  0  0  0  0
  7  8  1  0  0  0  0
  8 15  1  0  0  0  0
  8  9  1  0  0  0  0
  9 17  1  0  0  0  0
  9 16  1  0  0  0  0
 10 19  1  0  0  0  0
 10 18  1  0  0  0  0
 10  9  1  0  0  0  0
 11 20  1  6  0  0  0
 11 10  1  0  0  0  0
 13  3  1  0  0  0  0
 14  8  1  0  0  0  0
 21 23  1  0  0  0  0
 21  2  1  0  0  0  0
 22 21  1  0  0  0  0
 24 11  1  0  0  0  0
 26 27  1  0  0  0  0
 26 25  2  0  0  0  0
 27 24  1  1  0  0  0
 28 27  1  0  0  0  0
 29 28  1  0  0  0  0
 30 32  1  0  0  0  0
 30 28  1  0  0  0  0
 31 30  1  0  0  0  0
 32 26  1  0  0  0  0
 33 32  1  0  0  0  0
M  END
>  <minimizedAffinity>
-4.81811857

>  <minimizedRMSD>
0.4296754

$$$$
