REMARK  Name = 
REMARK  7 active torsions:
REMARK  status: ('A' for Active; 'I' for Inactive)
REMARK    1  A    between atoms: C_3  and  O_13
REMARK    2  A    between atoms: C_5  and  C_8
REMARK    3  A    between atoms: C_7  and  O_12
REMARK    4  A    between atoms: O_13  and  P_15
REMARK    5  A    between atoms: P_15  and  O_16
REMARK    6  A    between atoms: P_15  and  O_17
REMARK    7  A    between atoms: O_17  and  C_30
REMARK                            x       y       z     vdW  Elec       q    Type
REMARK                         _______ _______ _______ _____ _____    ______ ____
ROOT
ATOM      1  C   UNL     1      44.569  35.589  44.751  0.00  0.00    +0.000 A 
ATOM      2  C   UNL     1      45.149  35.730  43.477  0.00  0.00    +0.000 A 
ATOM      3  C   UNL     1      46.193  34.879  43.160  0.00  0.00    +0.000 A 
ATOM      4  N   UNL     1      46.605  33.968  44.063  0.00  0.00    +0.000 NA
ATOM      5  C   UNL     1      46.044  33.845  45.271  0.00  0.00    +0.000 A 
ATOM      6  N   UNL     1      45.016  34.665  45.616  0.00  0.00    +0.000 NA
ATOM      7  H   UNL     1      43.754  36.259  44.990  0.00  0.00    +0.000 HD
ATOM      8  H   UNL     1      44.760  36.491  42.805  0.00  0.00    +0.000 HD
ENDROOT
BRANCH   5  10
ATOM      9  C   UNL     1      45.411  32.550  47.325  0.00  0.00    +0.000 C 
ATOM     10  C   UNL     1      46.459  32.877  46.302  0.00  0.00    +0.000 C 
ATOM     11  C   UNL     1      46.607  31.478  45.664  0.00  0.00    +0.000 C 
ATOM     12  O   UNL     1      46.336  30.566  46.634  0.00  0.00    +0.000 OA
ATOM     13  C   UNL     1      45.972  31.217  47.809  0.00  0.00    +0.000 C 
ATOM     14  H   UNL     1      44.441  32.347  46.823  0.00  0.00    +0.000 HD
ATOM     15  H   UNL     1      47.409  33.176  46.758  0.00  0.00    +0.000 HD
ATOM     16  H   UNL     1      47.679  31.403  45.386  0.00  0.00    +0.000 HD
ATOM     17  H   UNL     1      46.006  31.408  44.743  0.00  0.00    +0.000 HD
ATOM     18  H   UNL     1      45.177  30.617  48.297  0.00  0.00    +0.000 HD
ATOM     19  H   UNL     1      46.816  31.358  48.499  0.00  0.00    +0.000 HD
BRANCH   9  20
ATOM     20  O   UNL     1      45.248  33.489  48.299  0.00  0.00    +0.000 OA
ATOM     21  H   UNL     1      44.389  33.385  48.747  0.00  0.00    +0.000 HD
ENDBRANCH   9  20
ENDBRANCH   5  10
BRANCH   3  22
ATOM     22  O   UNL     1      46.757  35.027  41.900  0.00  0.00    +0.000 OA
BRANCH  22  24
ATOM     23  O   UNL     1      48.585  33.249  41.135  0.00  0.00    +0.000 OA
ATOM     24  P   UNL     1      48.411  34.667  41.650  0.00  0.00    +0.000 P 
BRANCH  24  25
ATOM     25  O   UNL     1      49.048  35.802  40.601  0.00  0.00    +0.000 OA
ATOM     26  H   UNL     1      49.784  36.353  40.990  0.00  0.00    +0.000 HD
ENDBRANCH  24  25
BRANCH  24  27
ATOM     27  O   UNL     1      49.155  34.777  43.177  0.00  0.00    +0.000 OA
BRANCH  27  30
ATOM     28  O   UNL     1      50.978  33.363  40.826  0.00  0.00    +0.000 OA
ATOM     29  C   UNL     1      50.519  33.313  42.008  0.00  0.00    +0.000 C 
ATOM     30  C   UNL     1      50.403  34.199  43.214  0.00  0.00    +0.000 C 
ATOM     31  C   UNL     1      50.528  33.216  44.361  0.00  0.00    +0.000 C 
ATOM     32  H   UNL     1      51.600  33.031  44.553  0.00  0.00    +0.000 HD
ATOM     33  C   UNL     1      49.869  31.933  43.847  0.00  0.00    +0.000 C 
ATOM     34  H   UNL     1      48.821  31.881  44.181  0.00  0.00    +0.000 HD
ATOM     35  N   UNL     1      49.912  32.088  42.406  0.00  0.00    +0.000 N 
ATOM     36  H   UNL     1      49.498  31.295  41.855  0.00  0.00    +0.000 HD
ENDBRANCH  27  30
ENDBRANCH  24  27
ENDBRANCH  22  24
ENDBRANCH   3  22
TORSDOF 7
