
 OpenBabel03252507103D

 36 38  0  0  1  0  0  0  0  0999 V2000
   34.5560   28.3530   36.3170 C   0  0  0  0  0  0  0  0  0  0  0  0
   35.2580   28.3200   37.5350 C   0  0  0  0  0  0  0  0  0  0  0  0
   34.5790   28.7320   38.6680 C   0  0  0  0  0  0  0  0  0  0  0  0
   33.2990   29.1390   38.5640 N   0  0  0  0  0  0  0  0  0  0  0  0
   32.6430   29.1650   37.3980 C   0  0  0  0  0  0  0  0  0  0  0  0
   33.2800   28.7670   36.2650 N   0  0  0  0  0  0  0  0  0  0  0  0
   35.0950   28.0290   35.4370 H   0  0  0  0  0  0  0  0  0  0  0  0
   36.2900   27.9790   37.5370 H   0  0  0  0  0  0  0  0  0  0  0  0
   30.7030   30.4480   38.3400 C   0  0  1  0  0  0  0  0  0  0  0  0
   31.2490   29.6100   37.2210 C   0  0  1  0  0  0  0  0  0  0  0  0
   31.1850   30.6610   36.0900 C   0  0  0  0  0  0  0  0  0  0  0  0
   30.1430   31.4860   36.3710 O   0  0  0  0  0  0  0  0  0  0  0  0
   29.5640   31.1250   37.5840 C   0  0  0  0  0  0  0  0  0  0  0  0
   31.4370   31.2330   38.6200 H   0  0  0  0  0  0  0  0  0  0  0  0
   30.5970   28.7650   36.9760 H   0  0  0  0  0  0  0  0  0  0  0  0
   30.9500   30.0800   35.1740 H   0  0  0  0  0  0  0  0  0  0  0  0
   32.1670   31.1400   35.9520 H   0  0  0  0  0  0  0  0  0  0  0  0
   29.2550   32.0550   38.1030 H   0  0  0  0  0  0  0  0  0  0  0  0
   28.7010   30.4540   37.4640 H   0  0  0  0  0  0  0  0  0  0  0  0
   30.3190   29.7490   39.4450 O   0  0  0  0  0  0  0  0  0  0  0  0
   30.2580   30.3300   40.2250 H   0  0  0  0  0  0  0  0  0  0  0  0
   35.2820   28.6950   39.8650 O   0  0  0  0  0  0  0  0  0  0  0  0
   36.8330   30.6960   39.0430 O   0  0  0  0  0  0  0  0  0  0  0  0
   36.3350   29.9760   40.2840 P   0  0  1  0  0  0  0  0  0  0  0  0
   35.5310   31.0030   41.3290 O   0  0  0  0  0  0  0  0  0  0  0  0
   35.9510   31.0820   42.2310 H   0  0  0  0  0  0  0  0  0  0  0  0
   37.6700   29.2570   41.0570 O   0  0  0  0  0  0  0  0  0  0  0  0
   39.9320   30.9100   42.7920 O   0  0  0  0  0  0  0  0  0  0  0  0
   39.1830   29.8890   42.6960 C   0  0  0  0  0  0  0  0  0  0  0  0
   37.7490   29.5630   42.3970 C   0  0  2  0  0  3  0  0  0  0  0  0
   37.4980   28.3450   43.2610 C   0  0  0  0  0  3  0  0  0  0  0  0
   37.2490   28.6810   44.2830 H   0  0  0  0  0  0  0  0  0  0  0  0
   38.8360   27.5970   43.2790 C   0  0  0  0  0  3  0  0  0  0  0  0
   38.8410   26.8050   42.5150 H   0  0  0  0  0  0  0  0  0  0  0  0
   39.7960   28.6230   42.9210 N   0  0  0  0  0  0  0  0  0  0  0  0
   40.7970   28.3080   42.8770 H   0  0  0  0  0  0  0  0  0  0  0  0
  1  2  1  0  0  0  0
  2  8  1  0  0  0  0
  2  3  2  0  0  0  0
  3 22  1  0  0  0  0
  4  3  1  0  0  0  0
  5  4  2  0  0  0  0
  6  1  2  0  0  0  0
  6  5  1  0  0  0  0
  7  1  1  0  0  0  0
  9 14  1  1  0  0  0
  9 20  1  0  0  0  0
 10 15  1  6  0  0  0
 10  5  1  0  0  0  0
 10  9  1  0  0  0  0
 11 12  1  0  0  0  0
 11 10  1  0  0  0  0
 12 13  1  0  0  0  0
 13 18  1  0  0  0  0
 13  9  1  0  0  0  0
 16 11  1  0  0  0  0
 17 11  1  0  0  0  0
 19 13  1  0  0  0  0
 20 21  1  0  0  0  0
 22 24  1  0  0  0  0
 24 23  2  6  0  0  0
 24 27  1  0  0  0  0
 24 25  1  0  0  0  0
 25 26  1  0  0  0  0
 29 28  2  0  0  0  0
 29 35  1  0  0  0  0
 30 27  1  6  0  0  0
 30 29  1  0  0  0  0
 30 31  1  0  0  0  0
 31 33  1  0  0  0  0
 31 32  1  0  0  0  0
 34 33  1  0  0  0  0
 35 33  1  0  0  0  0
 36 35  1  0  0  0  0
M  END
>  <minimizedAffinity>
-5.5744319

$$$$

 OpenBabel03252507103D

 36 38  0  0  1  0  0  0  0  0999 V2000
   38.0740   27.7070   43.6600 C   0  0  0  0  0  0  0  0  0  0  0  0
   37.5440   28.9460   43.2550 C   0  0  0  0  0  0  0  0  0  0  0  0
   37.0100   29.0190   41.9800 C   0  0  0  0  0  0  0  0  0  0  0  0
   37.0170   27.9250   41.1940 N   0  0  0  0  0  0  0  0  0  0  0  0
   37.5240   26.7530   41.5930 C   0  0  0  0  0  0  0  0  0  0  0  0
   38.0570   26.6460   42.8380 N   0  0  0  0  0  0  0  0  0  0  0  0
   38.4900   27.6600   44.6570 H   0  0  0  0  0  0  0  0  0  0  0  0
   37.5780   29.7830   43.9480 H   0  0  0  0  0  0  0  0  0  0  0  0
   37.0850   24.2860   41.4620 C   0  0  1  0  0  0  0  0  0  0  0  0
   37.5690   25.5280   40.7740 C   0  0  1  0  0  0  0  0  0  0  0  0
   36.4980   25.6120   39.6640 C   0  0  0  0  0  0  0  0  0  0  0  0
   36.1130   24.3390   39.3840 O   0  0  0  0  0  0  0  0  0  0  0  0
   36.7690   23.4480   40.2270 C   0  0  0  0  0  0  0  0  0  0  0  0
   36.1280   24.4900   41.9870 H   0  0  0  0  0  0  0  0  0  0  0  0
   38.5580   25.3970   40.3220 H   0  0  0  0  0  0  0  0  0  0  0  0
   37.0300   26.0310   38.7850 H   0  0  0  0  0  0  0  0  0  0  0  0
   35.6990   26.3140   39.9500 H   0  0  0  0  0  0  0  0  0  0  0  0
   36.0580   22.6360   40.4820 H   0  0  0  0  0  0  0  0  0  0  0  0
   37.6800   23.0260   39.7790 H   0  0  0  0  0  0  0  0  0  0  0  0
   37.9800   23.7210   42.3220 O   0  0  0  0  0  0  0  0  0  0  0  0
   37.5350   23.1190   42.9460 H   0  0  0  0  0  0  0  0  0  0  0  0
   36.4900   30.2460   41.5920 O   0  0  0  0  0  0  0  0  0  0  0  0
   36.8300   30.5370   38.9670 O   0  0  0  0  0  0  0  0  0  0  0  0
   37.2160   31.1220   40.3140 P   0  0  1  0  0  0  0  0  0  0  0  0
   36.7740   32.7280   40.4540 O   0  0  0  0  0  0  0  0  0  0  0  0
   37.5380   33.3540   40.5970 H   0  0  0  0  0  0  0  0  0  0  0  0
   38.8970   30.9440   40.5140 O   0  0  0  0  0  0  0  0  0  0  0  0
   40.1750   33.9700   40.2660 O   0  0  0  0  0  0  0  0  0  0  0  0
   40.2730   32.7950   40.7370 C   0  0  0  0  0  0  0  0  0  0  0  0
   39.4230   31.7920   41.4610 C   0  0  2  0  0  3  0  0  0  0  0  0
   40.4270   31.0840   42.3470 C   0  0  0  0  0  3  0  0  0  0  0  0
   40.5720   31.6810   43.2640 H   0  0  0  0  0  0  0  0  0  0  0  0
   41.7250   31.0720   41.5320 C   0  0  0  0  0  3  0  0  0  0  0  0
   41.8290   30.1170   40.9930 H   0  0  0  0  0  0  0  0  0  0  0  0
   41.5320   32.1480   40.5800 N   0  0  0  0  0  0  0  0  0  0  0  0
   42.3280   32.3080   39.9130 H   0  0  0  0  0  0  0  0  0  0  0  0
  1  7  1  0  0  0  0
  2  1  1  0  0  0  0
  2  8  1  0  0  0  0
  3  2  2  0  0  0  0
  4  5  2  0  0  0  0
  4  3  1  0  0  0  0
  5  6  1  0  0  0  0
  6  1  2  0  0  0  0
  9 14  1  1  0  0  0
  9 20  1  0  0  0  0
 10 15  1  6  0  0  0
 10  9  1  0  0  0  0
 10  5  1  0  0  0  0
 11 17  1  0  0  0  0
 11 10  1  0  0  0  0
 12 11  1  0  0  0  0
 12 13  1  0  0  0  0
 13 18  1  0  0  0  0
 13  9  1  0  0  0  0
 16 11  1  0  0  0  0
 19 13  1  0  0  0  0
 20 21  1  0  0  0  0
 22  3  1  0  0  0  0
 24 23  2  6  0  0  0
 24 25  1  0  0  0  0
 24 27  1  0  0  0  0
 24 22  1  0  0  0  0
 25 26  1  0  0  0  0
 28 29  2  0  0  0  0
 29 30  1  0  0  0  0
 30 27  1  6  0  0  0
 30 31  1  0  0  0  0
 31 32  1  0  0  0  0
 33 31  1  0  0  0  0
 34 33  1  0  0  0  0
 35 29  1  0  0  0  0
 35 33  1  0  0  0  0
 36 35  1  0  0  0  0
M  END
>  <minimizedAffinity>
-5.53005219

$$$$

 OpenBabel03252507103D

 36 38  0  0  1  0  0  0  0  0999 V2000
   36.7660   31.7910   39.7000 C   0  0  0  0  0  0  0  0  0  0  0  0
   36.6560   31.0540   40.8930 C   0  0  0  0  0  0  0  0  0  0  0  0
   37.6740   30.1630   41.1820 C   0  0  0  0  0  0  0  0  0  0  0  0
   38.7090   30.0370   40.3280 N   0  0  0  0  0  0  0  0  0  0  0  0
   38.8010   30.7450   39.1970 C   0  0  0  0  0  0  0  0  0  0  0  0
   37.8180   31.6300   38.8820 N   0  0  0  0  0  0  0  0  0  0  0  0
   35.9650   32.4850   39.4820 H   0  0  0  0  0  0  0  0  0  0  0  0
   35.7880   31.2120   41.5290 H   0  0  0  0  0  0  0  0  0  0  0  0
   40.3150   31.9400   37.5920 C   0  0  1  0  0  0  0  0  0  0  0  0
   39.9010   30.6430   38.2210 C   0  0  1  0  0  0  0  0  0  0  0  0
   41.2160   30.3120   38.9620 C   0  0  0  0  0  0  0  0  0  0  0  0
   42.2300   30.8490   38.2340 O   0  0  0  0  0  0  0  0  0  0  0  0
   41.7150   31.5390   37.1400 C   0  0  0  0  0  0  0  0  0  0  0  0
   40.4220   32.7230   38.3730 H   0  0  0  0  0  0  0  0  0  0  0  0
   39.6920   29.8660   37.4780 H   0  0  0  0  0  0  0  0  0  0  0  0
   41.2920   29.2050   38.9280 H   0  0  0  0  0  0  0  0  0  0  0  0
   41.1520   30.6220   40.0180 H   0  0  0  0  0  0  0  0  0  0  0  0
   42.3430   32.4390   36.9810 H   0  0  0  0  0  0  0  0  0  0  0  0
   41.6880   30.9300   36.2250 H   0  0  0  0  0  0  0  0  0  0  0  0
   39.4970   32.3800   36.5950 O   0  0  0  0  0  0  0  0  0  0  0  0
   39.6260   33.3320   36.4290 H   0  0  0  0  0  0  0  0  0  0  0  0
   37.5550   29.4410   42.3620 O   0  0  0  0  0  0  0  0  0  0  0  0
   36.2110   27.3840   43.3850 O   0  0  0  0  0  0  0  0  0  0  0  0
   37.2190   27.7640   42.3150 P   0  0  1  0  0  0  0  0  0  0  0  0
   36.6880   27.3720   40.7790 O   0  0  0  0  0  0  0  0  0  0  0  0
   37.2700   26.7200   40.2980 H   0  0  0  0  0  0  0  0  0  0  0  0
   38.6890   26.9780   42.6610 O   0  0  0  0  0  0  0  0  0  0  0  0
   37.4460   23.9800   42.0900 O   0  0  0  0  0  0  0  0  0  0  0  0
   38.4750   24.7090   42.2380 C   0  0  0  0  0  0  0  0  0  0  0  0
   39.0180   26.0150   41.7350 C   0  0  2  0  0  3  0  0  0  0  0  0
   40.5110   25.7620   41.7020 C   0  0  0  0  0  3  0  0  0  0  0  0
   40.7620   25.2490   40.7570 H   0  0  0  0  0  0  0  0  0  0  0  0
   40.7740   24.8210   42.8820 C   0  0  0  0  0  3  0  0  0  0  0  0
   41.0940   25.3950   43.7650 H   0  0  0  0  0  0  0  0  0  0  0  0
   39.4740   24.2290   43.1320 N   0  0  0  0  0  0  0  0  0  0  0  0
   39.4390   23.5370   43.9220 H   0  0  0  0  0  0  0  0  0  0  0  0
  1  2  1  0  0  0  0
  2  3  2  0  0  0  0
  2  8  1  0  0  0  0
  3 22  1  0  0  0  0
  4  3  1  0  0  0  0
  5  4  2  0  0  0  0
  6  5  1  0  0  0  0
  6  1  2  0  0  0  0
  7  1  1  0  0  0  0
  9 10  1  0  0  0  0
  9 14  1  1  0  0  0
 10 15  1  6  0  0  0
 10 11  1  0  0  0  0
 10  5  1  0  0  0  0
 11 17  1  0  0  0  0
 12 11  1  0  0  0  0
 13  9  1  0  0  0  0
 13 12  1  0  0  0  0
 16 11  1  0  0  0  0
 18 13  1  0  0  0  0
 19 13  1  0  0  0  0
 20  9  1  0  0  0  0
 21 20  1  0  0  0  0
 24 22  1  0  0  0  0
 24 27  1  0  0  0  0
 24 23  2  1  0  0  0
 25 24  1  0  0  0  0
 26 25  1  0  0  0  0
 28 29  2  0  0  0  0
 29 35  1  0  0  0  0
 30 29  1  0  0  0  0
 30 27  1  1  0  0  0
 31 30  1  0  0  0  0
 31 33  1  0  0  0  0
 32 31  1  0  0  0  0
 33 35  1  0  0  0  0
 33 34  1  0  0  0  0
 35 36  1  0  0  0  0
M  END
>  <minimizedAffinity>
-5.49825859

$$$$

 OpenBabel03252507103D

 36 38  0  0  1  0  0  0  0  0999 V2000
   36.3240   28.0630   36.7790 C   0  0  0  0  0  0  0  0  0  0  0  0
   36.3030   26.9820   37.6790 C   0  0  0  0  0  0  0  0  0  0  0  0
   36.3480   27.2820   39.0290 C   0  0  0  0  0  0  0  0  0  0  0  0
   36.4090   28.5690   39.4220 N   0  0  0  0  0  0  0  0  0  0  0  0
   36.4290   29.5870   38.5540 C   0  0  0  0  0  0  0  0  0  0  0  0
   36.3860   29.3290   37.2200 N   0  0  0  0  0  0  0  0  0  0  0  0
   36.2890   27.8180   35.7260 H   0  0  0  0  0  0  0  0  0  0  0  0
   36.2540   25.9700   37.2830 H   0  0  0  0  0  0  0  0  0  0  0  0
   36.8450   31.2780   40.3610 C   0  0  1  0  0  0  0  0  0  0  0  0
   36.5060   31.0120   38.9240 C   0  0  1  0  0  0  0  0  0  0  0  0
   37.7530   31.6460   38.2690 C   0  0  0  0  0  0  0  0  0  0  0  0
   38.1610   32.6560   39.0810 O   0  0  0  0  0  0  0  0  0  0  0  0
   37.3560   32.7080   40.2150 C   0  0  0  0  0  0  0  0  0  0  0  0
   37.7010   30.6430   40.6730 H   0  0  0  0  0  0  0  0  0  0  0  0
   35.6070   31.5480   38.6010 H   0  0  0  0  0  0  0  0  0  0  0  0
   37.3860   32.0760   37.3130 H   0  0  0  0  0  0  0  0  0  0  0  0
   38.5020   30.8720   38.0340 H   0  0  0  0  0  0  0  0  0  0  0  0
   38.0000   32.9780   41.0770 H   0  0  0  0  0  0  0  0  0  0  0  0
   36.5300   33.4260   40.1210 H   0  0  0  0  0  0  0  0  0  0  0  0
   35.8080   31.1280   41.2320 O   0  0  0  0  0  0  0  0  0  0  0  0
   36.1290   31.0180   42.1460 H   0  0  0  0  0  0  0  0  0  0  0  0
   36.3260   26.2070   39.9080 O   0  0  0  0  0  0  0  0  0  0  0  0
   37.4340   24.8170   41.8900 O   0  0  0  0  0  0  0  0  0  0  0  0
   37.7550   25.7290   40.7190 P   0  0  1  0  0  0  0  0  0  0  0  0
   38.7740   25.0000   39.6120 O   0  0  0  0  0  0  0  0  0  0  0  0
   39.6470   25.4680   39.4870 H   0  0  0  0  0  0  0  0  0  0  0  0
   38.4530   27.1570   41.3270 O   0  0  0  0  0  0  0  0  0  0  0  0
   36.0510   27.3130   43.5770 O   0  0  0  0  0  0  0  0  0  0  0  0
   37.1740   27.7430   43.1690 C   0  0  0  0  0  0  0  0  0  0  0  0
   38.4920   27.1970   42.7020 C   0  0  2  0  0  3  0  0  0  0  0  0
   39.4760   28.2350   43.2010 C   0  0  0  0  0  3  0  0  0  0  0  0
   39.7160   28.0170   44.2570 H   0  0  0  0  0  0  0  0  0  0  0  0
   38.7190   29.5650   43.1120 C   0  0  0  0  0  3  0  0  0  0  0  0
   38.9620   30.0790   42.1700 H   0  0  0  0  0  0  0  0  0  0  0  0
   37.3280   29.1570   43.0970 N   0  0  0  0  0  0  0  0  0  0  0  0
   36.6300   29.9390   43.0380 H   0  0  0  0  0  0  0  0  0  0  0  0
  1  6  2  0  0  0  0
  1  2  1  0  0  0  0
  2  3  2  0  0  0  0
  3  4  1  0  0  0  0
  3 22  1  0  0  0  0
  5 10  1  0  0  0  0
  5  4  2  0  0  0  0
  6  5  1  0  0  0  0
  7  1  1  0  0  0  0
  8  2  1  0  0  0  0
  9 14  1  1  0  0  0
  9 20  1  0  0  0  0
 10 15  1  6  0  0  0
 10  9  1  0  0  0  0
 11 10  1  0  0  0  0
 11 12  1  0  0  0  0
 12 13  1  0  0  0  0
 13  9  1  0  0  0  0
 13 18  1  0  0  0  0
 16 11  1  0  0  0  0
 17 11  1  0  0  0  0
 19 13  1  0  0  0  0
 20 21  1  0  0  0  0
 22 24  1  0  0  0  0
 24 27  1  0  0  0  0
 24 23  2  1  0  0  0
 25 24  1  0  0  0  0
 26 25  1  0  0  0  0
 29 28  2  0  0  0  0
 30 27  1  6  0  0  0
 30 29  1  0  0  0  0
 30 31  1  0  0  0  0
 31 32  1  0  0  0  0
 33 31  1  0  0  0  0
 34 33  1  0  0  0  0
 35 33  1  0  0  0  0
 35 29  1  0  0  0  0
 36 35  1  0  0  0  0
M  END
>  <minimizedAffinity>
-5.47385359

$$$$

 OpenBabel03252507103D

 36 38  0  0  1  0  0  0  0  0999 V2000
   37.2600   27.8530   43.5700 C   0  0  0  0  0  0  0  0  0  0  0  0
   38.5250   27.2460   43.6790 C   0  0  0  0  0  0  0  0  0  0  0  0
   39.4430   27.5150   42.6800 C   0  0  0  0  0  0  0  0  0  0  0  0
   39.1000   28.3300   41.6640 N   0  0  0  0  0  0  0  0  0  0  0  0
   37.8940   28.9010   41.5730 C   0  0  0  0  0  0  0  0  0  0  0  0
   36.9660   28.6580   42.5370 N   0  0  0  0  0  0  0  0  0  0  0  0
   36.5490   27.6370   44.3560 H   0  0  0  0  0  0  0  0  0  0  0  0
   38.7250   26.6000   44.5300 H   0  0  0  0  0  0  0  0  0  0  0  0
   36.8600   31.0930   40.9230 C   0  0  1  0  0  0  0  0  0  0  0  0
   37.4580   29.7890   40.4810 C   0  0  1  0  0  0  0  0  0  0  0  0
   38.6970   30.3400   39.7410 C   0  0  0  0  0  0  0  0  0  0  0  0
   38.3580   31.5600   39.2480 O   0  0  0  0  0  0  0  0  0  0  0  0
   37.0620   31.8850   39.6350 C   0  0  0  0  0  0  0  0  0  0  0  0
   37.4950   31.5550   41.7080 H   0  0  0  0  0  0  0  0  0  0  0  0
   36.8160   29.2530   39.7740 H   0  0  0  0  0  0  0  0  0  0  0  0
   38.8590   29.6400   38.8950 H   0  0  0  0  0  0  0  0  0  0  0  0
   39.5840   30.3040   40.3940 H   0  0  0  0  0  0  0  0  0  0  0  0
   37.0330   32.9740   39.8430 H   0  0  0  0  0  0  0  0  0  0  0  0
   36.3100   31.6250   38.8760 H   0  0  0  0  0  0  0  0  0  0  0  0
   35.5680   31.0150   41.3490 O   0  0  0  0  0  0  0  0  0  0  0  0
   35.3290   31.7910   41.8880 H   0  0  0  0  0  0  0  0  0  0  0  0
   40.6880   26.9110   42.7990 O   0  0  0  0  0  0  0  0  0  0  0  0
   41.5140   25.8960   40.4800 O   0  0  0  0  0  0  0  0  0  0  0  0
   41.0590   25.5170   41.8790 P   0  0  1  0  0  0  0  0  0  0  0  0
   42.2150   24.6320   42.7000 O   0  0  0  0  0  0  0  0  0  0  0  0
   41.9180   23.7160   42.9660 H   0  0  0  0  0  0  0  0  0  0  0  0
   39.6080   24.6360   41.7490 O   0  0  0  0  0  0  0  0  0  0  0  0
   36.7870   25.8570   40.5640 O   0  0  0  0  0  0  0  0  0  0  0  0
   37.6050   24.8870   40.6100 C   0  0  0  0  0  0  0  0  0  0  0  0
   39.0810   24.6450   40.4780 C   0  0  2  0  0  3  0  0  0  0  0  0
   39.1360   23.2710   39.8420 C   0  0  0  0  0  3  0  0  0  0  0  0
   39.0170   23.3820   38.7500 H   0  0  0  0  0  0  0  0  0  0  0  0
   37.9260   22.5270   40.4180 C   0  0  0  0  0  3  0  0  0  0  0  0
   38.2290   21.9180   41.2830 H   0  0  0  0  0  0  0  0  0  0  0  0
   37.0540   23.5980   40.8580 N   0  0  0  0  0  0  0  0  0  0  0  0
   36.1480   23.2910   41.2930 H   0  0  0  0  0  0  0  0  0  0  0  0
  1  2  1  0  0  0  0
  1  7  1  0  0  0  0
  2  8  1  0  0  0  0
  3 22  1  0  0  0  0
  3  2  2  0  0  0  0
  4  3  1  0  0  0  0
  5  4  2  0  0  0  0
  5  6  1  0  0  0  0
  6  1  2  0  0  0  0
  9 20  1  0  0  0  0
  9 14  1  1  0  0  0
 10 15  1  6  0  0  0
 10  9  1  0  0  0  0
 10  5  1  0  0  0  0
 11 17  1  0  0  0  0
 11 10  1  0  0  0  0
 12 13  1  0  0  0  0
 12 11  1  0  0  0  0
 13 18  1  0  0  0  0
 13  9  1  0  0  0  0
 16 11  1  0  0  0  0
 19 13  1  0  0  0  0
 20 21  1  0  0  0  0
 24 23  2  6  0  0  0
 24 25  1  0  0  0  0
 24 22  1  0  0  0  0
 25 26  1  0  0  0  0
 27 24  1  0  0  0  0
 28 29  2  0  0  0  0
 29 35  1  0  0  0  0
 30 29  1  0  0  0  0
 30 27  1  1  0  0  0
 31 33  1  0  0  0  0
 31 30  1  0  0  0  0
 32 31  1  0  0  0  0
 33 35  1  0  0  0  0
 33 34  1  0  0  0  0
 35 36  1  0  0  0  0
M  END
>  <minimizedAffinity>
-5.43144417

$$$$

 OpenBabel03252507103D

 36 38  0  0  1  0  0  0  0  0999 V2000
   38.9620   27.5710   43.4020 C   0  0  0  0  0  0  0  0  0  0  0  0
   38.3860   28.8230   43.1180 C   0  0  0  0  0  0  0  0  0  0  0  0
   37.2910   28.8380   42.2720 C   0  0  0  0  0  0  0  0  0  0  0  0
   36.8300   27.6790   41.7620 N   0  0  0  0  0  0  0  0  0  0  0  0
   37.3880   26.4960   42.0400 C   0  0  0  0  0  0  0  0  0  0  0  0
   38.4650   26.4440   42.8680 N   0  0  0  0  0  0  0  0  0  0  0  0
   39.8180   27.5690   44.0640 H   0  0  0  0  0  0  0  0  0  0  0  0
   38.8180   29.7130   43.5680 H   0  0  0  0  0  0  0  0  0  0  0  0
   37.1050   25.0300   40.0230 C   0  0  1  0  0  0  0  0  0  0  0  0
   36.9350   25.2000   41.5050 C   0  0  1  0  0  0  0  0  0  0  0  0
   37.8930   24.0840   41.9780 C   0  0  0  0  0  0  0  0  0  0  0  0
   37.8810   23.1160   41.0250 O   0  0  0  0  0  0  0  0  0  0  0  0
   37.0720   23.5070   39.9620 C   0  0  0  0  0  0  0  0  0  0  0  0
   38.1210   25.3600   39.7180 H   0  0  0  0  0  0  0  0  0  0  0  0
   35.9160   24.9750   41.8370 H   0  0  0  0  0  0  0  0  0  0  0  0
   37.4300   23.6850   42.9050 H   0  0  0  0  0  0  0  0  0  0  0  0
   38.8770   24.5050   42.2380 H   0  0  0  0  0  0  0  0  0  0  0  0
   37.5450   23.1470   39.0250 H   0  0  0  0  0  0  0  0  0  0  0  0
   36.0460   23.1190   40.0410 H   0  0  0  0  0  0  0  0  0  0  0  0
   36.1610   25.6530   39.2630 O   0  0  0  0  0  0  0  0  0  0  0  0
   36.4670   25.7660   38.3450 H   0  0  0  0  0  0  0  0  0  0  0  0
   36.7310   30.0780   42.0000 O   0  0  0  0  0  0  0  0  0  0  0  0
   35.8460   30.1250   39.4890 O   0  0  0  0  0  0  0  0  0  0  0  0
   36.8560   30.7550   40.4330 P   0  0  1  0  0  0  0  0  0  0  0  0
   36.6600   32.4110   40.5540 O   0  0  0  0  0  0  0  0  0  0  0  0
   37.4530   32.9400   40.2570 H   0  0  0  0  0  0  0  0  0  0  0  0
   38.4190   30.3740   39.8770 O   0  0  0  0  0  0  0  0  0  0  0  0
   37.8040   31.7940   36.9680 O   0  0  0  0  0  0  0  0  0  0  0  0
   38.6620   31.3160   37.7740 C   0  0  0  0  0  0  0  0  0  0  0  0
   39.0310   31.4190   39.2250 C   0  0  2  0  0  3  0  0  0  0  0  0
   40.5360   31.2540   39.1970 C   0  0  0  0  0  3  0  0  0  0  0  0
   40.9960   32.2320   38.9710 H   0  0  0  0  0  0  0  0  0  0  0  0
   40.8000   30.2830   38.0410 C   0  0  0  0  0  3  0  0  0  0  0  0
   40.8950   29.2540   38.4210 H   0  0  0  0  0  0  0  0  0  0  0  0
   39.6020   30.3930   37.2320 N   0  0  0  0  0  0  0  0  0  0  0  0
   39.5820   29.7930   36.3700 H   0  0  0  0  0  0  0  0  0  0  0  0
  1  7  1  0  0  0  0
  2  1  1  0  0  0  0
  2  8  1  0  0  0  0
  3  2  2  0  0  0  0
  4  5  2  0  0  0  0
  4  3  1  0  0  0  0
  5  6  1  0  0  0  0
  6  1  2  0  0  0  0
  9 14  1  6  0  0  0
  9 10  1  0  0  0  0
 10 15  1  1  0  0  0
 10 11  1  0  0  0  0
 10  5  1  0  0  0  0
 11 17  1  0  0  0  0
 11 16  1  0  0  0  0
 12 11  1  0  0  0  0
 13  9  1  0  0  0  0
 13 19  1  0  0  0  0
 13 12  1  0  0  0  0
 18 13  1  0  0  0  0
 20  9  1  0  0  0  0
 21 20  1  0  0  0  0
 22  3  1  0  0  0  0
 24 23  2  6  0  0  0
 24 25  1  0  0  0  0
 24 22  1  0  0  0  0
 26 25  1  0  0  0  0
 27 24  1  0  0  0  0
 28 29  2  0  0  0  0
 29 30  1  0  0  0  0
 30 27  1  1  0  0  0
 31 30  1  0  0  0  0
 32 31  1  0  0  0  0
 33 34  1  0  0  0  0
 33 31  1  0  0  0  0
 35 29  1  0  0  0  0
 35 33  1  0  0  0  0
 36 35  1  0  0  0  0
M  END
>  <minimizedAffinity>
-5.42792177

$$$$

 OpenBabel03252507103D

 36 38  0  0  1  0  0  0  0  0999 V2000
   35.5350   29.0220   40.7170 C   0  0  0  0  0  0  0  0  0  0  0  0
   35.9800   30.3230   40.4200 C   0  0  0  0  0  0  0  0  0  0  0  0
   37.1700   30.7310   40.9950 C   0  0  0  0  0  0  0  0  0  0  0  0
   37.8430   29.8860   41.8000 N   0  0  0  0  0  0  0  0  0  0  0  0
   37.4080   28.6510   42.0750 C   0  0  0  0  0  0  0  0  0  0  0  0
   36.2420   28.2170   41.5260 N   0  0  0  0  0  0  0  0  0  0  0  0
   34.6030   28.7120   40.2630 H   0  0  0  0  0  0  0  0  0  0  0  0
   35.3790   30.9450   39.7610 H   0  0  0  0  0  0  0  0  0  0  0  0
   38.3020   26.3250   42.3650 C   0  0  1  0  0  0  0  0  0  0  0  0
   38.0940   27.6890   42.9550 C   0  0  1  0  0  0  0  0  0  0  0  0
   39.5740   28.1020   43.1150 C   0  0  0  0  0  0  0  0  0  0  0  0
   40.2860   26.9650   43.3280 O   0  0  0  0  0  0  0  0  0  0  0  0
   39.4430   25.8590   43.2640 C   0  0  0  0  0  0  0  0  0  0  0  0
   38.7000   26.4150   41.3320 H   0  0  0  0  0  0  0  0  0  0  0  0
   37.6140   27.6500   43.9390 H   0  0  0  0  0  0  0  0  0  0  0  0
   39.5990   28.7220   44.0350 H   0  0  0  0  0  0  0  0  0  0  0  0
   39.8930   28.7300   42.2670 H   0  0  0  0  0  0  0  0  0  0  0  0
   40.0040   25.0330   42.7800 H   0  0  0  0  0  0  0  0  0  0  0  0
   39.0790   25.5410   44.2510 H   0  0  0  0  0  0  0  0  0  0  0  0
   37.2020   25.5220   42.3760 O   0  0  0  0  0  0  0  0  0  0  0  0
   37.2940   24.7900   41.7390 H   0  0  0  0  0  0  0  0  0  0  0  0
   37.5990   32.0170   40.6940 O   0  0  0  0  0  0  0  0  0  0  0  0
   39.4370   33.9430   40.7220 O   0  0  0  0  0  0  0  0  0  0  0  0
   39.2410   32.4490   40.9110 P   0  0  1  0  0  0  0  0  0  0  0  0
   39.7280   31.9360   42.4250 O   0  0  0  0  0  0  0  0  0  0  0  0
   40.4680   31.2650   42.4130 H   0  0  0  0  0  0  0  0  0  0  0  0
   40.1090   31.6360   39.6930 O   0  0  0  0  0  0  0  0  0  0  0  0
   38.2140   30.0700   37.5000 O   0  0  0  0  0  0  0  0  0  0  0  0
   39.2810   30.7180   37.7330 C   0  0  0  0  0  0  0  0  0  0  0  0
   39.7090   31.9800   38.4220 C   0  0  2  0  0  3  0  0  0  0  0  0
   40.8790   32.4400   37.5760 C   0  0  0  0  0  3  0  0  0  0  0  0
   40.4890   33.0000   36.7080 H   0  0  0  0  0  0  0  0  0  0  0  0
   41.5440   31.1450   37.0950 C   0  0  0  0  0  3  0  0  0  0  0  0
   42.3840   30.8800   37.7550 H   0  0  0  0  0  0  0  0  0  0  0  0
   40.4900   30.1590   37.2300 N   0  0  0  0  0  0  0  0  0  0  0  0
   40.7490   29.1810   36.9450 H   0  0  0  0  0  0  0  0  0  0  0  0
  1  6  1  0  0  0  0
  2  1  2  0  0  0  0
  2  3  1  0  0  0  0
  3  4  2  0  0  0  0
  4  5  1  0  0  0  0
  5 10  1  0  0  0  0
  6  5  2  0  0  0  0
  7  1  1  0  0  0  0
  8  2  1  0  0  0  0
  9 14  1  6  0  0  0
  9 20  1  0  0  0  0
  9 10  1  0  0  0  0
  9 13  1  0  0  0  0
 10 11  1  0  0  0  0
 10 15  1  1  0  0  0
 11 12  1  0  0  0  0
 11 16  1  0  0  0  0
 13 12  1  0  0  0  0
 13 19  1  0  0  0  0
 17 11  1  0  0  0  0
 18 13  1  0  0  0  0
 21 20  1  0  0  0  0
 22 24  1  0  0  0  0
 22  3  1  0  0  0  0
 24 23  2  6  0  0  0
 24 25  1  0  0  0  0
 26 25  1  0  0  0  0
 27 24  1  0  0  0  0
 28 29  2  0  0  0  0
 29 30  1  0  0  0  0
 30 27  1  1  0  0  0
 31 30  1  0  0  0  0
 32 31  1  0  0  0  0
 33 35  1  0  0  0  0
 33 31  1  0  0  0  0
 33 34  1  0  0  0  0
 35 29  1  0  0  0  0
 36 35  1  0  0  0  0
M  END
>  <minimizedAffinity>
-5.39399624

$$$$

 OpenBabel03252507103D

 36 38  0  0  1  0  0  0  0  0999 V2000
   36.1230   28.3130   37.8640 C   0  0  0  0  0  0  0  0  0  0  0  0
   36.4210   29.6540   37.5580 C   0  0  0  0  0  0  0  0  0  0  0  0
   37.1170   30.3800   38.5080 C   0  0  0  0  0  0  0  0  0  0  0  0
   37.4750   29.7890   39.6640 N   0  0  0  0  0  0  0  0  0  0  0  0
   37.1860   28.5130   39.9420 C   0  0  0  0  0  0  0  0  0  0  0  0
   36.5030   27.7700   39.0320 N   0  0  0  0  0  0  0  0  0  0  0  0
   35.5780   27.7540   37.1160 H   0  0  0  0  0  0  0  0  0  0  0  0
   36.0950   30.0580   36.6020 H   0  0  0  0  0  0  0  0  0  0  0  0
   36.7230   28.2050   42.3890 C   0  0  1  0  0  0  0  0  0  0  0  0
   37.5410   27.8180   41.1920 C   0  0  1  0  0  0  0  0  0  0  0  0
   37.1220   26.3350   41.0930 C   0  0  0  0  0  0  0  0  0  0  0  0
   36.8430   25.9130   42.3540 O   0  0  0  0  0  0  0  0  0  0  0  0
   36.9770   26.9710   43.2480 C   0  0  0  0  0  0  0  0  0  0  0  0
   35.6440   28.2170   42.1240 H   0  0  0  0  0  0  0  0  0  0  0  0
   38.6180   27.8850   41.3830 H   0  0  0  0  0  0  0  0  0  0  0  0
   38.0280   25.8070   40.7270 H   0  0  0  0  0  0  0  0  0  0  0  0
   36.3230   26.2080   40.3450 H   0  0  0  0  0  0  0  0  0  0  0  0
   36.1850   26.8660   44.0180 H   0  0  0  0  0  0  0  0  0  0  0  0
   37.9660   27.0050   43.7260 H   0  0  0  0  0  0  0  0  0  0  0  0
   37.0760   29.3870   42.9680 O   0  0  0  0  0  0  0  0  0  0  0  0
   36.3580   29.7320   43.5290 H   0  0  0  0  0  0  0  0  0  0  0  0
   37.4050   31.7010   38.1940 O   0  0  0  0  0  0  0  0  0  0  0  0
   36.7560   34.1610   38.9800 O   0  0  0  0  0  0  0  0  0  0  0  0
   37.4540   32.8880   39.4260 P   0  0  1  0  0  0  0  0  0  0  0  0
   36.7700   32.2440   40.8090 O   0  0  0  0  0  0  0  0  0  0  0  0
   37.3930   32.1870   41.5870 H   0  0  0  0  0  0  0  0  0  0  0  0
   39.1000   33.2400   39.6790 O   0  0  0  0  0  0  0  0  0  0  0  0
   39.4330   31.0920   42.1550 O   0  0  0  0  0  0  0  0  0  0  0  0
   39.9930   31.8210   41.2790 C   0  0  0  0  0  0  0  0  0  0  0  0
   39.8800   32.1140   39.8120 C   0  0  2  0  0  3  0  0  0  0  0  0
   41.3170   32.3830   39.4150 C   0  0  0  0  0  3  0  0  0  0  0  0
   41.8180   31.4170   39.2230 H   0  0  0  0  0  0  0  0  0  0  0  0
   41.9420   33.0490   40.6450 C   0  0  0  0  0  3  0  0  0  0  0  0
   41.9190   34.1450   40.5390 H   0  0  0  0  0  0  0  0  0  0  0  0
   41.0630   32.6470   41.7260 N   0  0  0  0  0  0  0  0  0  0  0  0
   41.3240   33.0090   42.6770 H   0  0  0  0  0  0  0  0  0  0  0  0
  1  6  1  0  0  0  0
  2  1  2  0  0  0  0
  2  3  1  0  0  0  0
  3  4  2  0  0  0  0
  4  5  1  0  0  0  0
  5 10  1  0  0  0  0
  6  5  2  0  0  0  0
  7  1  1  0  0  0  0
  8  2  1  0  0  0  0
  9 14  1  6  0  0  0
  9 20  1  0  0  0  0
  9 13  1  0  0  0  0
 10 15  1  1  0  0  0
 10  9  1  0  0  0  0
 11 10  1  0  0  0  0
 11 12  1  0  0  0  0
 12 13  1  0  0  0  0
 13 19  1  0  0  0  0
 13 18  1  0  0  0  0
 16 11  1  0  0  0  0
 17 11  1  0  0  0  0
 20 21  1  0  0  0  0
 22  3  1  0  0  0  0
 22 24  1  0  0  0  0
 24 23  2  6  0  0  0
 24 27  1  0  0  0  0
 24 25  1  0  0  0  0
 25 26  1  0  0  0  0
 29 35  1  0  0  0  0
 29 28  2  0  0  0  0
 30 27  1  1  0  0  0
 30 29  1  0  0  0  0
 31 30  1  0  0  0  0
 31 33  1  0  0  0  0
 32 31  1  0  0  0  0
 33 35  1  0  0  0  0
 34 33  1  0  0  0  0
 35 36  1  0  0  0  0
M  END
>  <minimizedAffinity>
-5.33759642

$$$$

 OpenBabel03252507103D

 36 38  0  0  1  0  0  0  0  0999 V2000
   36.3990   25.1740   39.1360 C   0  0  0  0  0  0  0  0  0  0  0  0
   36.1630   26.3510   38.4010 C   0  0  0  0  0  0  0  0  0  0  0  0
   36.5150   27.5490   38.9970 C   0  0  0  0  0  0  0  0  0  0  0  0
   37.0580   27.5440   40.2300 N   0  0  0  0  0  0  0  0  0  0  0  0
   37.2760   26.4180   40.9170 C   0  0  0  0  0  0  0  0  0  0  0  0
   36.9420   25.2220   40.3620 N   0  0  0  0  0  0  0  0  0  0  0  0
   36.1200   24.2430   38.6630 H   0  0  0  0  0  0  0  0  0  0  0  0
   35.7200   26.2710   37.4120 H   0  0  0  0  0  0  0  0  0  0  0  0
   39.0110   25.4070   42.4220 C   0  0  1  0  0  0  0  0  0  0  0  0
   37.8550   26.3510   42.2710 C   0  0  1  0  0  0  0  0  0  0  0  0
   38.5910   27.6730   42.5810 C   0  0  0  0  0  0  0  0  0  0  0  0
   39.5980   27.3770   43.4440 O   0  0  0  0  0  0  0  0  0  0  0  0
   39.6330   26.0060   43.6790 C   0  0  0  0  0  0  0  0  0  0  0  0
   39.7300   25.5510   41.5870 H   0  0  0  0  0  0  0  0  0  0  0  0
   37.0750   26.1790   43.0210 H   0  0  0  0  0  0  0  0  0  0  0  0
   37.8400   28.3020   43.1030 H   0  0  0  0  0  0  0  0  0  0  0  0
   38.8790   28.1830   41.6480 H   0  0  0  0  0  0  0  0  0  0  0  0
   40.6960   25.7030   43.7670 H   0  0  0  0  0  0  0  0  0  0  0  0
   39.0810   25.7130   44.5840 H   0  0  0  0  0  0  0  0  0  0  0  0
   38.6680   24.0920   42.5250 O   0  0  0  0  0  0  0  0  0  0  0  0
   39.4270   23.5140   42.3240 H   0  0  0  0  0  0  0  0  0  0  0  0
   36.2790   28.7030   38.2620 O   0  0  0  0  0  0  0  0  0  0  0  0
   38.9050   28.8680   37.8510 O   0  0  0  0  0  0  0  0  0  0  0  0
   37.5810   29.5370   37.5280 P   0  0  1  0  0  0  0  0  0  0  0  0
   37.2990   29.6170   35.8820 O   0  0  0  0  0  0  0  0  0  0  0  0
   37.2110   30.5450   35.5250 H   0  0  0  0  0  0  0  0  0  0  0  0
   37.5880   31.0960   38.2110 O   0  0  0  0  0  0  0  0  0  0  0  0
   36.1190   30.8650   41.1510 O   0  0  0  0  0  0  0  0  0  0  0  0
   36.9620   31.4620   40.4120 C   0  0  0  0  0  0  0  0  0  0  0  0
   38.0960   31.1250   39.4900 C   0  0  2  0  0  3  0  0  0  0  0  0
   39.0430   32.2900   39.6870 C   0  0  0  0  0  3  0  0  0  0  0  0
   39.6610   32.0970   40.5820 H   0  0  0  0  0  0  0  0  0  0  0  0
   38.1300   33.4940   39.9460 C   0  0  0  0  0  3  0  0  0  0  0  0
   37.9590   34.0510   39.0120 H   0  0  0  0  0  0  0  0  0  0  0  0
   36.8890   32.8840   40.3820 N   0  0  0  0  0  0  0  0  0  0  0  0
   36.1140   33.5550   40.6140 H   0  0  0  0  0  0  0  0  0  0  0  0
  1  6  1  0  0  0  0
  2  3  1  0  0  0  0
  2  1  2  0  0  0  0
  3  4  2  0  0  0  0
  4  5  1  0  0  0  0
  5 10  1  0  0  0  0
  6  5  2  0  0  0  0
  7  1  1  0  0  0  0
  8  2  1  0  0  0  0
  9 14  1  6  0  0  0
  9 20  1  0  0  0  0
  9 13  1  0  0  0  0
 10  9  1  0  0  0  0
 10 11  1  0  0  0  0
 10 15  1  1  0  0  0
 11 16  1  0  0  0  0
 11 12  1  0  0  0  0
 12 13  1  0  0  0  0
 13 18  1  0  0  0  0
 13 19  1  0  0  0  0
 17 11  1  0  0  0  0
 21 20  1  0  0  0  0
 22  3  1  0  0  0  0
 24 23  2  1  0  0  0
 24 27  1  0  0  0  0
 24 22  1  0  0  0  0
 25 24  1  0  0  0  0
 26 25  1  0  0  0  0
 29 28  2  0  0  0  0
 30 27  1  6  0  0  0
 30 31  1  0  0  0  0
 30 29  1  0  0  0  0
 31 33  1  0  0  0  0
 31 32  1  0  0  0  0
 33 35  1  0  0  0  0
 34 33  1  0  0  0  0
 35 29  1  0  0  0  0
 35 36  1  0  0  0  0
M  END
>  <minimizedAffinity>
-5.29102564

$$$$
