
     RDKit          3D

 29 30  0  0  0  0  0  0  0  0999 V2000
   44.9344   34.9267   45.0443 C   0  0  0  0  0  0  0  0  0  0  0  0
   45.4467   35.1830   43.7597 C   0  0  0  0  0  0  0  0  0  0  0  0
   46.5130   34.3907   43.3572 C   0  0  0  0  0  0  0  0  0  0  0  0
   47.0055   33.4321   44.1872 N   0  0  0  0  0  0  0  0  0  0  0  0
   46.4933   33.2149   45.4037 C   0  0  0  0  0  0  0  0  0  0  0  0
   45.4535   33.9644   45.8355 N   0  0  0  0  0  0  0  0  0  0  0  0
   47.0252   34.6728   42.0053 C   0  0  0  0  0  0  0  0  0  0  0  0
   47.9740   33.7159   41.6666 F   0  0  0  0  0  0  0  0  0  0  0  0
   47.6935   35.8685   42.0769 F   0  0  0  0  0  0  0  0  0  0  0  0
   46.0549   34.6135   41.0596 F   0  0  0  0  0  0  0  0  0  0  0  0
   44.8671   36.2312   42.9190 C   0  0  0  0  0  0  0  0  0  0  0  0
   44.9810   37.5253   43.5960 N   0  0  0  0  0  0  0  0  0  0  0  0
   44.0947   35.5233   45.4084 H   0  0  0  0  0  0  0  0  0  0  0  0
   46.9914   32.4193   45.9440 H   0  0  0  0  0  0  0  0  0  0  0  0
   45.4165   36.4942   42.0258 H   0  0  0  0  0  0  0  0  0  0  0  0
   43.8012   36.0646   42.6645 H   0  0  0  0  0  0  0  0  0  0  0  0
   44.4210   37.4329   44.4668 H   0  0  0  0  0  0  0  0  0  0  0  0
   42.5359   37.2883   41.6497 O   0  0  0  0  0  0  0  0  0  0  0  0
   43.2990   38.2570   41.9536 C   0  0  0  0  0  0  0  0  0  0  0  0
   44.4399   38.6064   42.8564 C   0  0  2  0  0  0  0  0  0  0  0  0
   45.3485   39.2929   41.8968 C   0  0  1  0  0  0  0  0  0  0  0  0
   46.1014   39.8919   42.4414 H   0  0  0  0  0  0  0  0  0  0  0  0
   44.3589   40.2350   41.1969 C   0  0  2  0  0  0  0  0  0  0  0  0
   44.6376   40.4325   40.1556 H   0  0  0  0  0  0  0  0  0  0  0  0
   43.0848   39.5016   41.2497 N   0  0  0  0  0  0  0  0  0  0  0  0
   44.0725   39.3562   43.5799 H   0  0  0  0  0  0  0  0  0  0  0  0
   45.7920   38.6869   41.1139 H   0  0  0  0  0  0  0  0  0  0  0  0
   44.3046   41.1339   41.8389 H   0  0  0  0  0  0  0  0  0  0  0  0
   42.2607   39.9804   40.7872 H   0  0  0  0  0  0  0  0  0  0  0  0
  1  6  2  0
  2  1  1  0
  3  2  2  0
  3  4  1  0
  4  5  2  0
  5  6  1  0
  7  9  1  0
  7  3  1  0
  8  7  1  0
 10  7  1  0
 11 12  1  0
 11  2  1  0
  1 13  1  0
  5 14  1  0
 11 15  1  0
 11 16  1  0
 12 17  1  0
 18 19  2  0
 19 20  1  0
 20 21  1  0
 21 22  1  1
 21 23  1  0
 23 24  1  6
 23 25  1  0
 25 19  1  0
 20 26  1  1
 21 27  1  0
 23 28  1  0
 25 29  1  0
 12 20  1  0
M  ISO  7  13  14  14  14  15   8  16   8  17   5  22   8  24   8
M  END
>  <DihAtoms>  (1) 
10,11,19,18

>  <DihDeg>  (1) 
59.935776552381384

$$$$
