
 OpenBabel03242520263D

 38 40  0  0  1  0  0  0  0  0999 V2000
   45.1690   35.7750   43.3270 C   0  0  0  0  0  0  0  0  0  0  0  0
   45.9540   34.5960   43.3650 C   0  0  0  0  0  0  0  0  0  0  0  0
   45.9910   33.8780   44.5490 C   0  0  0  0  0  0  0  0  0  0  0  0
   45.2790   34.3290   45.6160 N   0  0  0  0  0  0  0  0  0  0  0  0
   44.5370   35.4520   45.5620 C   0  0  0  0  0  0  0  0  0  0  0  0
   44.4860   36.1630   44.4280 N   0  0  0  0  0  0  0  0  0  0  0  0
   45.1310   36.3520   42.3990 H   0  0  0  0  0  0  0  0  0  0  0  0
   43.9790   35.7900   46.4270 H   0  0  0  0  0  0  0  0  0  0  0  0
   46.6380   34.2610   42.1650 N   0  0  0  0  0  0  0  0  0  0  0  0
   47.8620   34.9000   41.7390 C   0  0  0  0  0  0  0  0  0  0  0  0
   48.3760   34.2360   40.4950 C   0  0  0  0  0  0  0  0  0  0  0  0
   47.3920   34.1310   39.4630 N   0  0  0  0  0  0  0  0  0  0  0  0
   46.1430   33.5690   39.8750 C   0  0  0  0  0  0  0  0  0  0  0  0
   46.0560   33.2070   41.3260 C   0  0  0  0  0  0  0  0  0  0  0  0
   48.6310   34.7630   42.5270 H   0  0  0  0  0  0  0  0  0  0  0  0
   47.6420   35.9500   41.5220 H   0  0  0  0  0  0  0  0  0  0  0  0
   49.2280   34.8230   40.0880 H   0  0  0  0  0  0  0  0  0  0  0  0
   48.7300   33.2220   40.8190 H   0  0  0  0  0  0  0  0  0  0  0  0
   47.2050   35.0880   39.0880 H   0  0  0  0  0  0  0  0  0  0  0  0
   45.9570   32.6570   39.2720 H   0  0  0  0  0  0  0  0  0  0  0  0
   45.2710   34.2410   39.6220 H   0  0  0  0  0  0  0  0  0  0  0  0
   44.9870   33.0630   41.5670 H   0  0  0  0  0  0  0  0  0  0  0  0
   46.5800   32.2550   41.5670 H   0  0  0  0  0  0  0  0  0  0  0  0
   46.7720   32.7230   44.5540 O   0  0  0  0  0  0  0  0  0  0  0  0
   45.4240   31.2560   46.3030 O   0  0  0  0  0  0  0  0  0  0  0  0
   46.8230   31.7710   45.9820 P   0  0  0  0  0  4  0  0  0  0  0  0
   47.9060   30.5180   45.7370 O   0  0  0  0  0  0  0  0  0  0  0  0
   48.7890   30.7770   46.1030 H   0  0  0  0  0  0  0  0  0  0  0  0
   47.3260   32.7860   47.2520 O   0  0  0  0  0  0  0  0  0  0  0  0
   48.4510   30.3800   48.7120 O   0  0  0  0  0  0  0  0  0  0  0  0
   47.2780   30.8670   48.6980 C   0  0  0  0  0  0  0  0  0  0  0  0
   46.7920   32.2340   48.4140 C   0  0  2  0  0  3  0  0  0  0  0  0
   45.2890   31.9960   48.2510 C   0  0  0  0  0  2  0  0  0  0  0  0
   45.1250   31.5050   47.2850 H   0  0  0  0  0  0  0  0  0  0  0  0
   45.0720   30.9430   49.3450 C   0  0  0  0  0  3  0  0  0  0  0  0
   44.0740   30.4960   49.2950 H   0  0  0  0  0  0  0  0  0  0  0  0
   46.1510   30.0180   49.0010 N   0  0  0  0  0  0  0  0  0  0  0  0
   46.0070   28.9650   49.0080 H   0  0  0  0  0  0  0  0  0  0  0  0
  1  2  2  0  0  0  0
  1  6  1  0  0  0  0
  2  3  1  0  0  0  0
  3 24  1  0  0  0  0
  3  4  2  0  0  0  0
  5  4  1  0  0  0  0
  5  8  1  0  0  0  0
  6  5  2  0  0  0  0
  7  1  1  0  0  0  0
  9  2  1  0  0  0  0
 10  9  1  0  0  0  0
 10 15  1  0  0  0  0
 11 18  1  0  0  0  0
 11 10  1  0  0  0  0
 12 13  1  0  0  0  0
 12 11  1  0  0  0  0
 13 14  1  0  0  0  0
 14 23  1  0  0  0  0
 14 22  1  0  0  0  0
 14  9  1  0  0  0  0
 16 10  1  0  0  0  0
 17 11  1  0  0  0  0
 19 12  1  0  0  0  0
 20 13  1  0  0  0  0
 21 13  1  0  0  0  0
 24 26  1  0  0  0  0
 25 34  1  0  0  0  0
 26 25  1  0  0  0  0
 26 29  1  0  0  0  0
 27 26  1  0  0  0  0
 27 28  1  0  0  0  0
 31 30  2  0  0  0  0
 31 37  1  0  0  0  0
 32 29  1  6  0  0  0
 32 31  1  0  0  0  0
 33 32  1  0  0  0  0
 33 35  1  0  0  0  0
 36 35  1  0  0  0  0
 37 38  1  0  0  0  0
 37 35  1  0  0  0  0
M  END
>  <minimizedAffinity>
-5.71435499

>  <minimizedRMSD>
0.692730069

$$$$
