REMARK  Name = 
REMARK  6 active torsions:
REMARK  status: ('A' for Active; 'I' for Inactive)
REMARK    1  A    between atoms: C_2  and  N_7
REMARK    2  A    between atoms: C_3  and  O_13
REMARK    3  A    between atoms: O_13  and  P_15
REMARK    4  A    between atoms: P_15  and  O_16
REMARK    5  A    between atoms: P_15  and  O_17
REMARK    6  A    between atoms: O_17  and  C_32
REMARK                            x       y       z     vdW  Elec       q    Type
REMARK                         _______ _______ _______ _____ _____    ______ ____
ROOT
ATOM      1  C   UNL     1      45.201  35.821  43.381  0.00  0.00    +0.000 A 
ATOM      2  C   UNL     1      45.911  34.595  43.406  0.00  0.00    +0.000 A 
ATOM      3  C   UNL     1      45.890  33.856  44.577  0.00  0.00    +0.000 A 
ATOM      4  N   UNL     1      45.197  34.333  45.645  0.00  0.00    +0.000 NA
ATOM      5  C   UNL     1      44.527  35.501  45.604  0.00  0.00    +0.000 A 
ATOM      6  N   UNL     1      44.532  36.233  44.482  0.00  0.00    +0.000 NA
ATOM      7  H   UNL     1      45.209  36.415  42.463  0.00  0.00    +0.000 HD
ATOM      8  H   UNL     1      43.982  35.858  46.469  0.00  0.00    +0.000 HD
ENDROOT
BRANCH   2   9
ATOM      9  N   UNL     1      46.585  34.238  42.207  0.00  0.00    +0.000 N 
ATOM     10  C   UNL     1      47.835  34.830  41.788  0.00  0.00    +0.000 C 
ATOM     11  C   UNL     1      48.327  34.151  40.542  0.00  0.00    +0.000 C 
ATOM     12  N   UNL     1      47.343  34.090  39.507  0.00  0.00    +0.000 NA
ATOM     13  C   UNL     1      46.071  33.577  39.912  0.00  0.00    +0.000 C 
ATOM     14  C   UNL     1      45.965  33.212  41.361  0.00  0.00    +0.000 C 
ATOM     15  H   UNL     1      48.595  34.659  42.578  0.00  0.00    +0.000 HD
ATOM     16  H   UNL     1      47.658  35.889  41.575  0.00  0.00    +0.000 HD
ATOM     17  H   UNL     1      49.203  34.706  40.141  0.00  0.00    +0.000 HD
ATOM     18  H   UNL     1      48.639  33.123  40.863  0.00  0.00    +0.000 HD
ATOM     19  H   UNL     1      47.196  35.055  39.135  0.00  0.00    +0.000 HD
ATOM     20  H   UNL     1      45.851  32.675  39.304  0.00  0.00    +0.000 HD
ATOM     21  H   UNL     1      45.228  34.284  39.659  0.00  0.00    +0.000 HD
ATOM     22  H   UNL     1      44.890  33.110  41.598  0.00  0.00    +0.000 HD
ATOM     23  H   UNL     1      46.449  32.239  41.599  0.00  0.00    +0.000 HD
ENDBRANCH   2   9
BRANCH   3  24
ATOM     24  O   UNL     1      46.598  32.655  44.569  0.00  0.00    +0.000 OA
BRANCH  24  26
ATOM     25  O   UNL     1      45.550  31.212  46.531  0.00  0.00    +0.000 OA
ATOM     26  P   UNL     1      46.856  31.843  46.060  0.00  0.00    +0.000 P 
BRANCH  26  27
ATOM     27  O   UNL     1      48.053  30.695  45.831  0.00  0.00    +0.000 OA
ATOM     28  H   UNL     1      48.925  31.078  46.103  0.00  0.00    +0.000 HD
ENDBRANCH  26  27
BRANCH  26  29
ATOM     29  O   UNL     1      47.329  33.013  47.201  0.00  0.00    +0.000 OA
BRANCH  29  32
ATOM     30  O   UNL     1      44.554  32.003  47.884  0.00  0.00    +0.000 OA
ATOM     31  C   UNL     1      45.477  32.456  48.629  0.00  0.00    +0.000 C 
ATOM     32  C   UNL     1      46.942  32.513  48.442  0.00  0.00    +0.000 C 
ATOM     33  C   UNL     1      47.355  33.476  49.558  0.00  0.00    +0.000 C 
ATOM     34  H   UNL     1      47.062  34.488  49.260  0.00  0.00    +0.000 HD
ATOM     35  C   UNL     1      46.391  33.022  50.662  0.00  0.00    +0.000 C 
ATOM     36  H   UNL     1      46.397  33.703  51.519  0.00  0.00    +0.000 HD
ATOM     37  N   UNL     1      45.140  33.040  49.905  0.00  0.00    +0.000 N 
ATOM     38  H   UNL     1      44.242  33.428  50.320  0.00  0.00    +0.000 HD
ENDBRANCH  29  32
ENDBRANCH  26  29
ENDBRANCH  24  26
ENDBRANCH   3  24
TORSDOF 6
