
 OpenBabel03252501203D

 26 27  0  0  1  0  0  0  0  0999 V2000
   45.7740   35.4990   43.3160 C   0  0  0  0  0  0  0  0  0  0  0  0
   46.6540   34.9010   43.5020 H   0  0  0  0  0  0  0  0  0  0  0  0
   46.0480   36.3820   42.7040 H   0  0  0  0  0  0  0  0  0  0  0  0
   43.3500   35.4490   42.7290 C   0  0  0  0  0  0  0  0  0  0  0  0
   44.5870   34.7890   42.8360 C   0  0  0  0  0  0  0  0  0  0  0  0
   44.6030   33.4530   42.4630 C   0  0  0  0  0  0  0  0  0  0  0  0
   43.4650   32.8510   42.0240 N   0  0  0  0  0  0  0  0  0  0  0  0
   42.3030   33.5090   41.9340 C   0  0  0  0  0  0  0  0  0  0  0  0
   42.2430   34.8140   42.2870 N   0  0  0  0  0  0  0  0  0  0  0  0
   43.2850   36.5020   43.0100 H   0  0  0  0  0  0  0  0  0  0  0  0
   41.4890   32.8960   41.5680 H   0  0  0  0  0  0  0  0  0  0  0  0
   45.9130   32.7880   42.5760 C   0  0  0  0  0  3  0  0  0  0  0  0
   45.8370   31.5280   41.9940 F   0  0  0  0  0  0  0  0  0  0  0  0
   46.1370   32.5800   43.9130 F   0  0  0  0  0  0  0  0  0  0  0  0
   46.8940   33.4610   41.9280 F   0  0  0  0  0  0  0  0  0  0  0  0
   45.5570   35.9450   44.6950 N   0  0  0  0  0  0  0  0  0  0  0  0
   46.1520   36.7900   44.8100 H   0  0  0  0  0  0  0  0  0  0  0  0
   45.4250   32.8380   44.3140 O   0  0  0  0  0  0  0  0  0  0  0  0
   45.7720   33.5670   45.2940 C   0  0  2  0  0  3  0  0  0  0  0  0
   45.9640   35.0020   45.6710 C   0  0  2  0  0  3  0  0  0  0  0  0
   45.2610   35.0380   46.9830 C   0  0  0  0  0  3  0  0  0  0  0  0
   45.5610   35.9330   47.5570 H   0  0  0  0  0  0  0  0  0  0  0  0
   45.8470   33.7860   47.6510 C   0  0  0  0  0  3  0  0  0  0  0  0
   45.1400   33.3140   48.3420 H   0  0  0  0  0  0  0  0  0  0  0  0
   46.1260   32.8880   46.5200 N   0  0  0  0  0  0  0  0  0  0  0  0
   46.5200   31.9380   46.7750 H   0  0  0  0  0  0  0  0  0  0  0  0
  1  2  1  0  0  0  0
  1 16  1  0  0  0  0
  3  1  1  0  0  0  0
  4  5  1  0  0  0  0
  4 10  1  0  0  0  0
  5  1  1  0  0  0  0
  6 12  1  0  0  0  0
  6  5  2  0  0  0  0
  7  6  1  0  0  0  0
  8  7  2  0  0  0  0
  8  9  1  0  0  0  0
  9  4  2  0  0  0  0
 11  8  1  0  0  0  0
 13 12  1  0  0  0  0
 14 18  1  0  0  0  0
 15 12  1  0  0  0  0
 16 17  1  0  0  0  0
 19 18  1  6  0  0  0
 19 20  1  0  0  0  0
 19 25  1  0  0  0  0
 20 16  1  6  0  0  0
 20 21  1  0  0  0  0
 21 22  1  0  0  0  0
 21 23  1  0  0  0  0
 23 24  1  0  0  0  0
 25 26  1  0  0  0  0
 25 23  1  0  0  0  0
M  END
>  <minimizedAffinity>
2.60442734

>  <minimizedRMSD>
4.9076004

$$$$
