
 OpenBabel03242520263D

 38 40  0  0  1  0  0  0  0  0999 V2000
   45.0040   35.5140   43.0410 C   0  0  0  0  0  0  0  0  0  0  0  0
   45.9820   34.4890   43.0600 C   0  0  0  0  0  0  0  0  0  0  0  0
   46.2670   33.8860   44.2740 C   0  0  0  0  0  0  0  0  0  0  0  0
   45.6040   34.2990   45.3870 N   0  0  0  0  0  0  0  0  0  0  0  0
   44.6770   35.2760   45.3510 C   0  0  0  0  0  0  0  0  0  0  0  0
   44.3830   35.8730   44.1880 N   0  0  0  0  0  0  0  0  0  0  0  0
   44.7690   36.0000   42.0900 H   0  0  0  0  0  0  0  0  0  0  0  0
   44.1630   35.5850   46.2520 H   0  0  0  0  0  0  0  0  0  0  0  0
   46.5830   34.1750   41.8120 N   0  0  0  0  0  0  0  0  0  0  0  0
   47.7180   34.8880   41.2710 C   0  0  0  0  0  0  0  0  0  0  0  0
   48.1710   34.2320   39.9980 C   0  0  0  0  0  0  0  0  0  0  0  0
   47.1130   34.0370   39.0570 N   0  0  0  0  0  0  0  0  0  0  0  0
   45.9460   33.4000   39.5840 C   0  0  0  0  0  0  0  0  0  0  0  0
   46.0090   33.0650   41.0430 C   0  0  0  0  0  0  0  0  0  0  0  0
   48.5590   34.8220   41.9920 H   0  0  0  0  0  0  0  0  0  0  0  0
   47.4070   35.9150   41.0570 H   0  0  0  0  0  0  0  0  0  0  0  0
   48.9420   34.8680   39.5100 H   0  0  0  0  0  0  0  0  0  0  0  0
   48.6220   33.2530   40.3070 H   0  0  0  0  0  0  0  0  0  0  0  0
   46.8280   34.9690   38.6830 H   0  0  0  0  0  0  0  0  0  0  0  0
   45.7740   32.4630   39.0150 H   0  0  0  0  0  0  0  0  0  0  0  0
   45.0110   34.0040   39.3960 H   0  0  0  0  0  0  0  0  0  0  0  0
   44.9760   32.8530   41.3780 H   0  0  0  0  0  0  0  0  0  0  0  0
   46.6160   32.1570   41.2530 H   0  0  0  0  0  0  0  0  0  0  0  0
   47.2330   32.8810   44.2590 O   0  0  0  0  0  0  0  0  0  0  0  0
   45.5830   31.0570   45.2480 O   0  0  0  0  0  0  0  0  0  0  0  0
   47.0310   31.5310   45.3010 P   0  0  1  0  0  0  0  0  0  0  0  0
   48.0950   30.3320   44.8170 O   0  0  0  0  0  0  0  0  0  0  0  0
   48.9200   30.3920   45.3610 H   0  0  0  0  0  0  0  0  0  0  0  0
   47.3670   32.0560   46.8840 O   0  0  0  0  0  0  0  0  0  0  0  0
   45.9600   31.1890   49.4250 O   0  0  0  0  0  0  0  0  0  0  0  0
   47.1200   30.9150   48.9860 C   0  0  0  0  0  0  0  0  0  0  0  0
   47.6650   30.9060   47.6110 C   0  0  2  0  0  3  0  0  0  0  0  0
   49.1690   30.8200   47.8810 C   0  0  0  0  0  3  0  0  0  0  0  0
   49.5070   31.7980   48.2390 H   0  0  0  0  0  0  0  0  0  0  0  0
   49.1640   29.8660   49.0820 C   0  0  0  0  0  3  0  0  0  0  0  0
   50.1480   29.7940   49.5550 H   0  0  0  0  0  0  0  0  0  0  0  0
   48.1600   30.5330   49.9100 N   0  0  0  0  0  0  0  0  0  0  0  0
   48.2890   30.6490   50.9580 H   0  0  0  0  0  0  0  0  0  0  0  0
  1  2  2  0  0  0  0
  1  6  1  0  0  0  0
  2  3  1  0  0  0  0
  3  4  2  0  0  0  0
  5  4  1  0  0  0  0
  5  8  1  0  0  0  0
  6  5  2  0  0  0  0
  7  1  1  0  0  0  0
  9  2  1  0  0  0  0
 10  9  1  0  0  0  0
 10 15  1  0  0  0  0
 11 18  1  0  0  0  0
 11 10  1  0  0  0  0
 12 13  1  0  0  0  0
 12 11  1  0  0  0  0
 13 14  1  0  0  0  0
 14 23  1  0  0  0  0
 14 22  1  0  0  0  0
 14  9  1  0  0  0  0
 16 10  1  0  0  0  0
 17 11  1  0  0  0  0
 19 12  1  0  0  0  0
 20 13  1  0  0  0  0
 21 13  1  0  0  0  0
 24  3  1  0  0  0  0
 24 26  1  0  0  0  0
 26 25  2  6  0  0  0
 26 29  1  0  0  0  0
 27 26  1  0  0  0  0
 27 28  1  0  0  0  0
 31 30  2  0  0  0  0
 31 37  1  0  0  0  0
 32 29  1  1  0  0  0
 32 33  1  0  0  0  0
 32 31  1  0  0  0  0
 33 34  1  0  0  0  0
 33 35  1  0  0  0  0
 35 36  1  0  0  0  0
 35 37  1  0  0  0  0
 37 38  1  0  0  0  0
M  END
>  <minimizedAffinity>
-5.07810259

>  <minimizedRMSD>
1.42218184

$$$$
