
 OpenBabel03242514213D

 49 51  0  0  1  0  0  0  0  0999 V2000
   38.9900   25.6540   42.2860 C   0  0  0  0  0  0  0  0  0  0  0  0
   39.0650   26.6100   43.2690 C   0  0  0  0  0  0  0  0  0  0  0  0
   40.2830   26.7890   43.8670 C   0  0  0  0  0  0  0  0  0  0  0  0
   41.3400   26.0420   43.4790 N   0  0  0  0  0  0  0  0  0  0  0  0
   41.2650   25.1200   42.5300 C   0  0  0  0  0  0  0  0  0  0  0  0
   40.0900   24.9450   41.9530 N   0  0  0  0  0  0  0  0  0  0  0  0
   40.5530   27.4800   44.6530 H   0  0  0  0  0  0  0  0  0  0  0  0
   42.0850   24.5030   42.1910 H   0  0  0  0  0  0  0  0  0  0  0  0
   37.7020   25.5090   41.5940 C   0  0  0  0  0  0  0  0  0  0  0  0
   37.2250   24.0850   41.6150 C   0  0  0  0  0  0  0  0  0  0  0  0
   37.1510   23.4960   40.2780 C   0  0  0  0  0  0  0  0  0  0  0  0
   36.2930   24.3210   39.3440 C   0  0  0  0  0  0  0  0  0  0  0  0
   36.5300   25.7780   39.4460 C   0  0  0  0  0  0  0  0  0  0  0  0
   37.7920   26.0800   40.2250 C   0  0  0  0  0  0  0  0  0  0  0  0
   36.9310   26.0310   42.1900 H   0  0  0  0  0  0  0  0  0  0  0  0
   36.2390   23.9760   42.1040 H   0  0  0  0  0  0  0  0  0  0  0  0
   37.9290   23.5060   42.2480 H   0  0  0  0  0  0  0  0  0  0  0  0
   36.7400   22.4650   40.3030 H   0  0  0  0  0  0  0  0  0  0  0  0
   38.1600   23.3960   39.8110 H   0  0  0  0  0  0  0  0  0  0  0  0
   35.2300   24.0220   39.4850 H   0  0  0  0  0  0  0  0  0  0  0  0
   36.6060   24.0200   38.3010 H   0  0  0  0  0  0  0  0  0  0  0  0
   35.6870   26.2100   40.0420 H   0  0  0  0  0  0  0  0  0  0  0  0
   36.5420   26.3200   38.4920 H   0  0  0  0  0  0  0  0  0  0  0  0
   37.9680   27.1660   40.2760 H   0  0  0  0  0  0  0  0  0  0  0  0
   38.6430   25.5490   39.7060 H   0  0  0  0  0  0  0  0  0  0  0  0
   38.1520   27.4350   43.7820 O   0  0  0  0  0  0  0  0  0  0  0  0
   37.9560   28.7860   43.7380 C   0  0  0  0  0  0  0  0  0  0  0  0
   37.0860   29.0350   44.3970 H   0  0  0  0  0  0  0  0  0  0  0  0
   38.7640   29.4500   44.0540 H   0  0  0  0  0  0  0  0  0  0  0  0
   37.5600   29.2950   42.3590 C   0  0  0  0  0  0  0  0  0  0  0  0
   38.3460   29.1480   41.6260 H   0  0  0  0  0  0  0  0  0  0  0  0
   37.4750   30.4120   42.4980 H   0  0  0  0  0  0  0  0  0  0  0  0
   36.2430   28.8510   41.9750 N   0  0  0  0  0  0  0  0  0  0  0  0
   35.5290   29.1060   42.6840 H   0  0  0  0  0  0  0  0  0  0  0  0
   35.7860   29.7430   40.5450 S   0  0  0  0  0  0  0  0  0  0  0  0
   35.8870   31.2200   40.7900 O   0  0  0  0  0  0  0  0  0  0  0  0
   36.6950   31.7050   41.0930 H   0  0  0  0  0  0  0  0  0  0  0  0
   34.3780   29.3580   40.2200 O   0  0  0  0  0  0  0  0  0  0  0  0
   33.5540   29.8510   40.5000 H   0  0  0  0  0  0  0  0  0  0  0  0
   36.7510   29.3240   39.2540 O   0  0  0  0  0  0  0  0  0  0  0  0
   38.6400   31.3480   38.1300 O   0  0  0  0  0  0  0  0  0  0  0  0
   37.6110   30.8400   37.6270 C   0  0  0  0  0  0  0  0  0  0  0  0
   36.4490   30.0280   38.1000 C   0  0  1  0  0  3  0  0  0  0  0  0
   36.3510   29.0140   36.9790 C   0  0  0  0  0  3  0  0  0  0  0  0
   35.3880   28.4690   36.9640 H   0  0  0  0  0  0  0  0  0  0  0  0
   36.5860   29.8390   35.7550 C   0  0  0  0  0  3  0  0  0  0  0  0
   35.5820   30.1460   35.3570 H   0  0  0  0  0  0  0  0  0  0  0  0
   37.3390   30.9960   36.2190 N   0  0  0  0  0  0  0  0  0  0  0  0
   37.5860   31.7640   35.5260 H   0  0  0  0  0  0  0  0  0  0  0  0
  1  2  1  0  0  0  0
  2 26  1  0  0  0  0
  2  3  2  0  0  0  0
  3  7  1  0  0  0  0
  4  3  1  0  0  0  0
  5  4  2  0  0  0  0
  6  1  2  0  0  0  0
  6  5  1  0  0  0  0
  8  5  1  0  0  0  0
  9 10  1  0  0  0  0
  9 15  1  0  0  0  0
  9  1  1  0  0  0  0
 10 16  1  0  0  0  0
 10 17  1  0  0  0  0
 11 18  1  0  0  0  0
 11 10  1  0  0  0  0
 12 13  1  0  0  0  0
 12 20  1  0  0  0  0
 12 11  1  0  0  0  0
 13 22  1  0  0  0  0
 13 14  1  0  0  0  0
 14 24  1  0  0  0  0
 14  9  1  0  0  0  0
 19 11  1  0  0  0  0
 21 12  1  0  0  0  0
 23 13  1  0  0  0  0
 25 14  1  0  0  0  0
 27 26  1  0  0  0  0
 27 29  1  0  0  0  0
 27 28  1  0  0  0  0
 30 32  1  0  0  0  0
 30 27  1  0  0  0  0
 31 30  1  0  0  0  0
 33 30  1  0  0  0  0
 33 34  1  0  0  0  0
 35 36  1  0  0  0  0
 35 33  1  0  0  0  0
 36 37  1  0  0  0  0
 38 39  1  0  0  0  0
 38 35  1  0  0  0  0
 40 35  1  0  0  0  0
 42 43  1  0  0  0  0
 42 41  2  0  0  0  0
 43 40  1  1  0  0  0
 44 43  1  0  0  0  0
 45 44  1  0  0  0  0
 46 48  1  0  0  0  0
 46 44  1  0  0  0  0
 47 46  1  0  0  0  0
 48 42  1  0  0  0  0
 49 48  1  0  0  0  0
M  END
>  <minimizedAffinity>
-5.84583282

$$$$

 OpenBabel03242514213D

 49 51  0  0  1  0  0  0  0  0999 V2000
   38.2300   25.6660   42.2520 C   0  0  0  0  0  0  0  0  0  0  0  0
   38.2910   26.7800   43.0530 C   0  0  0  0  0  0  0  0  0  0  0  0
   39.3900   26.9050   43.8590 C   0  0  0  0  0  0  0  0  0  0  0  0
   40.3520   25.9560   43.8380 N   0  0  0  0  0  0  0  0  0  0  0  0
   40.2920   24.8820   43.0640 C   0  0  0  0  0  0  0  0  0  0  0  0
   39.2310   24.7590   42.2870 N   0  0  0  0  0  0  0  0  0  0  0  0
   39.6280   27.6950   44.5570 H   0  0  0  0  0  0  0  0  0  0  0  0
   41.0380   24.1020   43.0170 H   0  0  0  0  0  0  0  0  0  0  0  0
   37.0880   25.5650   41.3360 C   0  0  0  0  0  0  0  0  0  0  0  0
   36.5270   24.1720   41.3080 C   0  0  0  0  0  0  0  0  0  0  0  0
   36.6670   23.5350   39.9990 C   0  0  0  0  0  0  0  0  0  0  0  0
   36.0500   24.3680   38.8960 C   0  0  0  0  0  0  0  0  0  0  0  0
   36.3530   25.8120   38.9990 C   0  0  0  0  0  0  0  0  0  0  0  0
   37.4650   26.0750   39.9920 C   0  0  0  0  0  0  0  0  0  0  0  0
   36.2530   26.1530   41.7610 H   0  0  0  0  0  0  0  0  0  0  0  0
   35.4630   24.1380   41.6060 H   0  0  0  0  0  0  0  0  0  0  0  0
   37.0640   23.5810   42.0780 H   0  0  0  0  0  0  0  0  0  0  0  0
   36.1950   22.5300   39.9750 H   0  0  0  0  0  0  0  0  0  0  0  0
   37.7360   23.3610   39.7320 H   0  0  0  0  0  0  0  0  0  0  0  0
   34.9620   24.1350   38.8440 H   0  0  0  0  0  0  0  0  0  0  0  0
   36.5310   24.0090   37.9390 H   0  0  0  0  0  0  0  0  0  0  0  0
   35.4430   26.3150   39.4130 H   0  0  0  0  0  0  0  0  0  0  0  0
   36.5760   26.3150   38.0480 H   0  0  0  0  0  0  0  0  0  0  0  0
   37.6960   27.1510   40.0430 H   0  0  0  0  0  0  0  0  0  0  0  0
   38.3630   25.4780   39.6570 H   0  0  0  0  0  0  0  0  0  0  0  0
   37.4590   27.8100   43.2130 O   0  0  0  0  0  0  0  0  0  0  0  0
   37.4560   29.1080   42.7870 C   0  0  0  0  0  0  0  0  0  0  0  0
   36.9220   29.7260   43.5530 H   0  0  0  0  0  0  0  0  0  0  0  0
   38.4100   29.6120   42.6140 H   0  0  0  0  0  0  0  0  0  0  0  0
   36.6720   29.3200   41.4990 C   0  0  0  0  0  0  0  0  0  0  0  0
   36.0060   28.4900   41.2830 H   0  0  0  0  0  0  0  0  0  0  0  0
   37.4620   29.2960   40.6940 H   0  0  0  0  0  0  0  0  0  0  0  0
   36.0880   30.6360   41.4300 N   0  0  0  0  0  0  0  0  0  0  0  0
   36.2790   31.1880   42.2880 H   0  0  0  0  0  0  0  0  0  0  0  0
   36.9040   31.5040   40.1540 S   0  0  0  0  0  0  0  0  0  0  0  0
   36.7640   32.9850   40.3490 O   0  0  0  0  0  0  0  0  0  0  0  0
   37.0330   33.4920   41.1560 H   0  0  0  0  0  0  0  0  0  0  0  0
   36.2740   31.0810   38.8650 O   0  0  0  0  0  0  0  0  0  0  0  0
   35.5330   31.5560   38.3880 H   0  0  0  0  0  0  0  0  0  0  0  0
   38.5180   31.0980   40.1010 O   0  0  0  0  0  0  0  0  0  0  0  0
   41.0630   32.4120   40.9530 O   0  0  0  0  0  0  0  0  0  0  0  0
   40.5670   32.2830   39.8100 C   0  0  0  0  0  0  0  0  0  0  0  0
   39.2480   31.8880   39.2280 C   0  0  1  0  0  3  0  0  0  0  0  0
   39.7060   30.9890   38.0980 C   0  0  0  0  0  3  0  0  0  0  0  0
   38.9180   30.7930   37.3480 H   0  0  0  0  0  0  0  0  0  0  0  0
   40.8870   31.7180   37.5440 C   0  0  0  0  0  3  0  0  0  0  0  0
   40.5230   32.3480   36.6890 H   0  0  0  0  0  0  0  0  0  0  0  0
   41.3650   32.5510   38.6390 N   0  0  0  0  0  0  0  0  0  0  0  0
   42.1820   33.2110   38.4680 H   0  0  0  0  0  0  0  0  0  0  0  0
  1  6  2  0  0  0  0
  1  2  1  0  0  0  0
  2 26  1  0  0  0  0
  2  3  2  0  0  0  0
  3  7  1  0  0  0  0
  4  3  1  0  0  0  0
  5  4  2  0  0  0  0
  6  5  1  0  0  0  0
  8  5  1  0  0  0  0
  9 15  1  0  0  0  0
  9  1  1  0  0  0  0
 10  9  1  0  0  0  0
 10 16  1  0  0  0  0
 10 17  1  0  0  0  0
 11 10  1  0  0  0  0
 12 13  1  0  0  0  0
 12 11  1  0  0  0  0
 13 22  1  0  0  0  0
 13 14  1  0  0  0  0
 14 24  1  0  0  0  0
 14  9  1  0  0  0  0
 18 11  1  0  0  0  0
 19 11  1  0  0  0  0
 20 12  1  0  0  0  0
 21 12  1  0  0  0  0
 23 13  1  0  0  0  0
 25 14  1  0  0  0  0
 27 26  1  0  0  0  0
 27 28  1  0  0  0  0
 29 27  1  0  0  0  0
 30 27  1  0  0  0  0
 31 30  1  0  0  0  0
 32 30  1  0  0  0  0
 33 30  1  0  0  0  0
 33 34  1  0  0  0  0
 35 36  1  0  0  0  0
 35 33  1  0  0  0  0
 36 37  1  0  0  0  0
 38 35  1  0  0  0  0
 39 38  1  0  0  0  0
 40 35  1  0  0  0  0
 42 41  2  0  0  0  0
 43 42  1  0  0  0  0
 43 40  1  1  0  0  0
 44 43  1  0  0  0  0
 45 44  1  0  0  0  0
 46 44  1  0  0  0  0
 46 48  1  0  0  0  0
 47 46  1  0  0  0  0
 48 42  1  0  0  0  0
 49 48  1  0  0  0  0
M  END
>  <minimizedAffinity>
-5.71947479

$$$$

 OpenBabel03242514213D

 49 51  0  0  1  0  0  0  0  0999 V2000
   38.3130   26.7350   42.1980 C   0  0  0  0  0  0  0  0  0  0  0  0
   39.1220   27.7450   42.6600 C   0  0  0  0  0  0  0  0  0  0  0  0
   40.1760   27.3800   43.4540 C   0  0  0  0  0  0  0  0  0  0  0  0
   40.3800   26.0760   43.7450 N   0  0  0  0  0  0  0  0  0  0  0  0
   39.5990   25.1040   43.2980 C   0  0  0  0  0  0  0  0  0  0  0  0
   38.5810   25.4540   42.5330 N   0  0  0  0  0  0  0  0  0  0  0  0
   40.9220   28.0110   43.9160 H   0  0  0  0  0  0  0  0  0  0  0  0
   39.7280   24.0510   43.5060 H   0  0  0  0  0  0  0  0  0  0  0  0
   37.2240   27.1170   41.2900 C   0  0  0  0  0  0  0  0  0  0  0  0
   37.7090   27.2470   39.8740 C   0  0  0  0  0  0  0  0  0  0  0  0
   37.5970   28.6140   39.3650 C   0  0  0  0  0  0  0  0  0  0  0  0
   36.1870   29.1480   39.4860 C   0  0  0  0  0  0  0  0  0  0  0  0
   35.5390   28.8370   40.7790 C   0  0  0  0  0  0  0  0  0  0  0  0
   36.5430   28.3370   41.7950 C   0  0  0  0  0  0  0  0  0  0  0  0
   36.5170   26.2680   41.2260 H   0  0  0  0  0  0  0  0  0  0  0  0
   37.1800   26.5670   39.1820 H   0  0  0  0  0  0  0  0  0  0  0  0
   38.7680   26.9190   39.8530 H   0  0  0  0  0  0  0  0  0  0  0  0
   37.9020   28.6840   38.3000 H   0  0  0  0  0  0  0  0  0  0  0  0
   38.2720   29.3180   39.9080 H   0  0  0  0  0  0  0  0  0  0  0  0
   35.6060   28.8170   38.5960 H   0  0  0  0  0  0  0  0  0  0  0  0
   36.2840   30.2730   39.4410 H   0  0  0  0  0  0  0  0  0  0  0  0
   34.8310   27.9880   40.6000 H   0  0  0  0  0  0  0  0  0  0  0  0
   34.9420   29.6490   41.2140 H   0  0  0  0  0  0  0  0  0  0  0  0
   36.0530   28.1300   42.7590 H   0  0  0  0  0  0  0  0  0  0  0  0
   37.3380   29.1320   41.9020 H   0  0  0  0  0  0  0  0  0  0  0  0
   39.0870   29.0660   42.4860 O   0  0  0  0  0  0  0  0  0  0  0  0
   39.9740   29.9890   42.0090 C   0  0  0  0  0  0  0  0  0  0  0  0
   40.8440   30.0350   42.7120 H   0  0  0  0  0  0  0  0  0  0  0  0
   40.4050   29.8450   41.0150 H   0  0  0  0  0  0  0  0  0  0  0  0
   39.4170   31.4060   41.9830 C   0  0  0  0  0  0  0  0  0  0  0  0
   40.1920   32.1530   42.1200 H   0  0  0  0  0  0  0  0  0  0  0  0
   38.7720   31.4590   42.9080 H   0  0  0  0  0  0  0  0  0  0  0  0
   38.5210   31.6160   40.8740 N   0  0  0  0  0  0  0  0  0  0  0  0
   37.5380   31.4020   41.1270 H   0  0  0  0  0  0  0  0  0  0  0  0
   38.5250   33.3240   40.5140 S   0  0  0  0  0  0  0  0  0  0  0  0
   38.8260   34.1230   41.7480 O   0  0  0  0  0  0  0  0  0  0  0  0
   39.6260   34.0250   42.3230 H   0  0  0  0  0  0  0  0  0  0  0  0
   37.1690   33.6640   39.9840 O   0  0  0  0  0  0  0  0  0  0  0  0
   36.4010   34.0220   40.5180 H   0  0  0  0  0  0  0  0  0  0  0  0
   39.6470   33.6770   39.3340 O   0  0  0  0  0  0  0  0  0  0  0  0
   38.2110   31.7540   37.5540 O   0  0  0  0  0  0  0  0  0  0  0  0
   39.4300   31.8450   37.8240 C   0  0  0  0  0  0  0  0  0  0  0  0
   40.2780   32.5510   38.8310 C   0  0  1  0  0  3  0  0  0  0  0  0
   41.4060   33.0390   37.9440 C   0  0  0  0  0  3  0  0  0  0  0  0
   42.3020   33.3560   38.5100 H   0  0  0  0  0  0  0  0  0  0  0  0
   41.6550   31.8740   37.0420 C   0  0  0  0  0  3  0  0  0  0  0  0
   42.4810   31.2660   37.4970 H   0  0  0  0  0  0  0  0  0  0  0  0
   40.4030   31.1290   37.0350 N   0  0  0  0  0  0  0  0  0  0  0  0
   40.3490   30.2160   36.4920 H   0  0  0  0  0  0  0  0  0  0  0  0
  1  6  2  0  0  0  0
  1  2  1  0  0  0  0
  2  3  2  0  0  0  0
  3  4  1  0  0  0  0
  3  7  1  0  0  0  0
  5  8  1  0  0  0  0
  5  4  2  0  0  0  0
  6  5  1  0  0  0  0
  9 14  1  0  0  0  0
  9  1  1  0  0  0  0
 10  9  1  0  0  0  0
 11 12  1  0  0  0  0
 11 10  1  0  0  0  0
 11 19  1  0  0  0  0
 12 13  1  0  0  0  0
 13 23  1  0  0  0  0
 13 14  1  0  0  0  0
 14 25  1  0  0  0  0
 14 24  1  0  0  0  0
 15  9  1  0  0  0  0
 16 10  1  0  0  0  0
 17 10  1  0  0  0  0
 18 11  1  0  0  0  0
 20 12  1  0  0  0  0
 21 12  1  0  0  0  0
 22 13  1  0  0  0  0
 26  2  1  0  0  0  0
 27 26  1  0  0  0  0
 27 28  1  0  0  0  0
 29 27  1  0  0  0  0
 30 27  1  0  0  0  0
 30 31  1  0  0  0  0
 30 32  1  0  0  0  0
 33 34  1  0  0  0  0
 33 30  1  0  0  0  0
 35 33  1  0  0  0  0
 35 36  1  0  0  0  0
 36 37  1  0  0  0  0
 38 35  1  0  0  0  0
 38 39  1  0  0  0  0
 40 35  1  0  0  0  0
 41 42  2  0  0  0  0
 42 43  1  0  0  0  0
 43 40  1  6  0  0  0
 44 45  1  0  0  0  0
 44 43  1  0  0  0  0
 46 47  1  0  0  0  0
 46 44  1  0  0  0  0
 48 46  1  0  0  0  0
 48 42  1  0  0  0  0
 49 48  1  0  0  0  0
M  END
>  <minimizedAffinity>
-5.68660021

$$$$

 OpenBabel03242514213D

 49 51  0  0  1  0  0  0  0  0999 V2000
   37.6000   27.3680   41.9060 C   0  0  0  0  0  0  0  0  0  0  0  0
   37.0060   28.5940   41.7320 C   0  0  0  0  0  0  0  0  0  0  0  0
   37.6600   29.6780   42.2510 C   0  0  0  0  0  0  0  0  0  0  0  0
   38.8350   29.5100   42.8970 N   0  0  0  0  0  0  0  0  0  0  0  0
   39.4070   28.3260   43.0630 C   0  0  0  0  0  0  0  0  0  0  0  0
   38.7760   27.2790   42.5650 N   0  0  0  0  0  0  0  0  0  0  0  0
   37.3670   30.7180   42.2250 H   0  0  0  0  0  0  0  0  0  0  0  0
   40.3440   28.1500   43.5710 H   0  0  0  0  0  0  0  0  0  0  0  0
   36.9360   26.2120   41.2900 C   0  0  0  0  0  0  0  0  0  0  0  0
   36.9410   25.0220   42.2060 C   0  0  0  0  0  0  0  0  0  0  0  0
   37.7190   23.9040   41.6730 C   0  0  0  0  0  0  0  0  0  0  0  0
   37.2510   23.4980   40.2920 C   0  0  0  0  0  0  0  0  0  0  0  0
   36.9780   24.6420   39.3940 C   0  0  0  0  0  0  0  0  0  0  0  0
   37.5330   25.9320   39.9580 C   0  0  0  0  0  0  0  0  0  0  0  0
   35.8580   26.4430   41.1990 H   0  0  0  0  0  0  0  0  0  0  0  0
   35.9220   24.6640   42.4400 H   0  0  0  0  0  0  0  0  0  0  0  0
   37.3640   25.3510   43.1780 H   0  0  0  0  0  0  0  0  0  0  0  0
   37.6650   23.0110   42.3310 H   0  0  0  0  0  0  0  0  0  0  0  0
   38.8060   24.1480   41.6020 H   0  0  0  0  0  0  0  0  0  0  0  0
   36.3960   22.7930   40.4020 H   0  0  0  0  0  0  0  0  0  0  0  0
   38.1150   22.9320   39.8340 H   0  0  0  0  0  0  0  0  0  0  0  0
   35.8670   24.7730   39.3530 H   0  0  0  0  0  0  0  0  0  0  0  0
   37.3120   24.5140   38.3560 H   0  0  0  0  0  0  0  0  0  0  0  0
   37.3420   26.7720   39.2710 H   0  0  0  0  0  0  0  0  0  0  0  0
   38.6390   25.7800   40.1220 H   0  0  0  0  0  0  0  0  0  0  0  0
   35.8710   28.9580   41.1350 O   0  0  0  0  0  0  0  0  0  0  0  0
   35.5710   29.5770   39.9550 C   0  0  0  0  0  0  0  0  0  0  0  0
   35.6160   28.8140   39.1380 H   0  0  0  0  0  0  0  0  0  0  0  0
   34.6010   30.0690   39.8460 H   0  0  0  0  0  0  0  0  0  0  0  0
   36.5850   30.6400   39.5540 C   0  0  0  0  0  0  0  0  0  0  0  0
   37.3920   30.7290   40.2730 H   0  0  0  0  0  0  0  0  0  0  0  0
   36.0060   31.6060   39.6200 H   0  0  0  0  0  0  0  0  0  0  0  0
   36.9780   30.5190   38.1710 N   0  0  0  0  0  0  0  0  0  0  0  0
   36.1950   30.7390   37.5280 H   0  0  0  0  0  0  0  0  0  0  0  0
   38.1710   31.7540   37.8570 S   0  0  0  0  0  0  0  0  0  0  0  0
   37.9240   32.9580   38.7180 O   0  0  0  0  0  0  0  0  0  0  0  0
   37.8690   32.9630   39.7070 H   0  0  0  0  0  0  0  0  0  0  0  0
   38.0610   32.1110   36.4090 O   0  0  0  0  0  0  0  0  0  0  0  0
   37.5260   32.8670   36.0290 H   0  0  0  0  0  0  0  0  0  0  0  0
   39.7090   31.1760   38.1340 O   0  0  0  0  0  0  0  0  0  0  0  0
   41.0360   33.8150   38.5870 O   0  0  0  0  0  0  0  0  0  0  0  0
   41.3050   32.9080   37.7660 C   0  0  0  0  0  0  0  0  0  0  0  0
   40.6450   31.6740   37.2420 C   0  0  1  0  0  3  0  0  0  0  0  0
   41.8150   30.7130   37.2510 C   0  0  0  0  0  3  0  0  0  0  0  0
   41.6410   29.8050   36.6440 H   0  0  0  0  0  0  0  0  0  0  0  0
   42.9460   31.5530   36.7510 C   0  0  0  0  0  3  0  0  0  0  0  0
   43.0210   31.3920   35.6430 H   0  0  0  0  0  0  0  0  0  0  0  0
   42.5600   32.9240   37.0540 N   0  0  0  0  0  0  0  0  0  0  0  0
   43.1930   33.7200   36.7430 H   0  0  0  0  0  0  0  0  0  0  0  0
  1  6  1  0  0  0  0
  2  1  2  0  0  0  0
  2  3  1  0  0  0  0
  3  4  2  0  0  0  0
  4  5  1  0  0  0  0
  5  8  1  0  0  0  0
  6  5  2  0  0  0  0
  7  3  1  0  0  0  0
  9  1  1  0  0  0  0
  9 10  1  0  0  0  0
 10 16  1  0  0  0  0
 10 17  1  0  0  0  0
 11 10  1  0  0  0  0
 11 18  1  0  0  0  0
 12 20  1  0  0  0  0
 12 11  1  0  0  0  0
 13 14  1  0  0  0  0
 13 12  1  0  0  0  0
 14 25  1  0  0  0  0
 14  9  1  0  0  0  0
 15  9  1  0  0  0  0
 19 11  1  0  0  0  0
 21 12  1  0  0  0  0
 22 13  1  0  0  0  0
 23 13  1  0  0  0  0
 24 14  1  0  0  0  0
 26  2  1  0  0  0  0
 27 26  1  0  0  0  0
 28 27  1  0  0  0  0
 29 27  1  0  0  0  0
 30 32  1  0  0  0  0
 30 27  1  0  0  0  0
 30 31  1  0  0  0  0
 33 30  1  0  0  0  0
 34 33  1  0  0  0  0
 35 40  1  0  0  0  0
 35 33  1  0  0  0  0
 35 36  1  0  0  0  0
 36 37  1  0  0  0  0
 38 35  1  0  0  0  0
 39 38  1  0  0  0  0
 42 41  2  0  0  0  0
 43 44  1  0  0  0  0
 43 42  1  0  0  0  0
 43 40  1  1  0  0  0
 45 44  1  0  0  0  0
 46 48  1  0  0  0  0
 46 44  1  0  0  0  0
 47 46  1  0  0  0  0
 48 42  1  0  0  0  0
 49 48  1  0  0  0  0
M  END
>  <minimizedAffinity>
-5.60003948

$$$$

 OpenBabel03242514213D

 49 51  0  0  1  0  0  0  0  0999 V2000
   37.1690   28.9510   39.8130 C   0  0  0  0  0  0  0  0  0  0  0  0
   37.6860   30.0020   39.0960 C   0  0  0  0  0  0  0  0  0  0  0  0
   37.0140   30.3690   37.9620 C   0  0  0  0  0  0  0  0  0  0  0  0
   35.8950   29.7040   37.5970 N   0  0  0  0  0  0  0  0  0  0  0  0
   35.3980   28.6890   38.2900 C   0  0  0  0  0  0  0  0  0  0  0  0
   36.0460   28.3330   39.3840 N   0  0  0  0  0  0  0  0  0  0  0  0
   37.2500   31.1590   37.2640 H   0  0  0  0  0  0  0  0  0  0  0  0
   34.5080   28.1330   38.0340 H   0  0  0  0  0  0  0  0  0  0  0  0
   37.8470   28.6010   41.0670 C   0  0  0  0  0  0  0  0  0  0  0  0
   37.7690   27.1260   41.3420 C   0  0  0  0  0  0  0  0  0  0  0  0
   37.0050   26.8190   42.5500 C   0  0  0  0  0  0  0  0  0  0  0  0
   37.5450   27.5470   43.7620 C   0  0  0  0  0  0  0  0  0  0  0  0
   37.8890   28.9630   43.5020 C   0  0  0  0  0  0  0  0  0  0  0  0
   37.3240   29.4360   42.1800 C   0  0  0  0  0  0  0  0  0  0  0  0
   38.9330   28.7630   40.9280 H   0  0  0  0  0  0  0  0  0  0  0  0
   38.7670   26.6580   41.4250 H   0  0  0  0  0  0  0  0  0  0  0  0
   37.2950   26.6470   40.4600 H   0  0  0  0  0  0  0  0  0  0  0  0
   37.0050   25.7310   42.7740 H   0  0  0  0  0  0  0  0  0  0  0  0
   35.9280   27.0930   42.4440 H   0  0  0  0  0  0  0  0  0  0  0  0
   38.3790   26.9480   44.1910 H   0  0  0  0  0  0  0  0  0  0  0  0
   36.6990   27.5580   44.5110 H   0  0  0  0  0  0  0  0  0  0  0  0
   39.0020   29.0210   43.4030 H   0  0  0  0  0  0  0  0  0  0  0  0
   37.6140   29.6670   44.2980 H   0  0  0  0  0  0  0  0  0  0  0  0
   37.5690   30.4960   42.0080 H   0  0  0  0  0  0  0  0  0  0  0  0
   36.2080   29.2720   42.2130 H   0  0  0  0  0  0  0  0  0  0  0  0
   38.7560   30.7720   39.2900 O   0  0  0  0  0  0  0  0  0  0  0  0
   39.0050   31.8900   40.0340 C   0  0  0  0  0  0  0  0  0  0  0  0
   38.0650   32.1690   40.5720 H   0  0  0  0  0  0  0  0  0  0  0  0
   39.7840   31.8550   40.8000 H   0  0  0  0  0  0  0  0  0  0  0  0
   39.3510   33.1120   39.1930 C   0  0  0  0  0  0  0  0  0  0  0  0
   38.7730   33.9840   39.4790 H   0  0  0  0  0  0  0  0  0  0  0  0
   38.9970   32.8360   38.1570 H   0  0  0  0  0  0  0  0  0  0  0  0
   40.7750   33.3050   39.0760 N   0  0  0  0  0  0  0  0  0  0  0  0
   41.2960   32.7780   39.8020 H   0  0  0  0  0  0  0  0  0  0  0  0
   41.2780   32.5910   37.5640 S   0  0  0  0  0  0  0  0  0  0  0  0
   42.1920   33.5190   36.8210 O   0  0  0  0  0  0  0  0  0  0  0  0
   43.0380   33.9010   37.1660 H   0  0  0  0  0  0  0  0  0  0  0  0
   40.0380   32.3270   36.7710 O   0  0  0  0  0  0  0  0  0  0  0  0
   39.6420   32.9320   36.0790 H   0  0  0  0  0  0  0  0  0  0  0  0
   42.0480   31.1370   37.8230 O   0  0  0  0  0  0  0  0  0  0  0  0
   44.4760   31.3110   36.0900 O   0  0  0  0  0  0  0  0  0  0  0  0
   43.5330   30.4860   36.0750 C   0  0  0  0  0  0  0  0  0  0  0  0
   42.1690   30.3740   36.6740 C   0  0  1  0  0  3  0  0  0  0  0  0
   42.1790   28.9230   37.1080 C   0  0  0  0  0  3  0  0  0  0  0  0
   41.1720   28.5260   37.3320 H   0  0  0  0  0  0  0  0  0  0  0  0
   42.8490   28.2330   35.9640 C   0  0  0  0  0  3  0  0  0  0  0  0
   42.0440   27.8610   35.2770 H   0  0  0  0  0  0  0  0  0  0  0  0
   43.6510   29.2630   35.3190 N   0  0  0  0  0  0  0  0  0  0  0  0
   44.1910   29.0210   34.4350 H   0  0  0  0  0  0  0  0  0  0  0  0
  1  9  1  0  0  0  0
  2 26  1  0  0  0  0
  2  1  2  0  0  0  0
  3  2  1  0  0  0  0
  4  3  2  0  0  0  0
  4  5  1  0  0  0  0
  5  6  2  0  0  0  0
  6  1  1  0  0  0  0
  7  3  1  0  0  0  0
  8  5  1  0  0  0  0
  9 10  1  0  0  0  0
  9 14  1  0  0  0  0
 10 16  1  0  0  0  0
 10 11  1  0  0  0  0
 11 18  1  0  0  0  0
 11 12  1  0  0  0  0
 12 20  1  0  0  0  0
 12 21  1  0  0  0  0
 13 12  1  0  0  0  0
 13 23  1  0  0  0  0
 14 25  1  0  0  0  0
 14 13  1  0  0  0  0
 15  9  1  0  0  0  0
 17 10  1  0  0  0  0
 19 11  1  0  0  0  0
 22 13  1  0  0  0  0
 24 14  1  0  0  0  0
 26 27  1  0  0  0  0
 27 28  1  0  0  0  0
 27 29  1  0  0  0  0
 30 31  1  0  0  0  0
 30 27  1  0  0  0  0
 32 30  1  0  0  0  0
 33 30  1  0  0  0  0
 33 34  1  0  0  0  0
 35 40  1  0  0  0  0
 35 33  1  0  0  0  0
 36 37  1  0  0  0  0
 36 35  1  0  0  0  0
 38 35  1  0  0  0  0
 39 38  1  0  0  0  0
 42 41  2  0  0  0  0
 42 43  1  0  0  0  0
 43 44  1  0  0  0  0
 43 40  1  1  0  0  0
 44 45  1  0  0  0  0
 46 44  1  0  0  0  0
 47 46  1  0  0  0  0
 48 46  1  0  0  0  0
 48 42  1  0  0  0  0
 49 48  1  0  0  0  0
M  END
>  <minimizedAffinity>
-5.5818162

$$$$

 OpenBabel03242514213D

 49 51  0  0  1  0  0  0  0  0999 V2000
   38.3560   25.2690   40.3380 C   0  0  0  0  0  0  0  0  0  0  0  0
   38.6670   25.9000   41.5170 C   0  0  0  0  0  0  0  0  0  0  0  0
   39.9900   25.9500   41.8630 C   0  0  0  0  0  0  0  0  0  0  0  0
   40.9190   25.3950   41.0530 N   0  0  0  0  0  0  0  0  0  0  0  0
   40.6170   24.7860   39.9150 C   0  0  0  0  0  0  0  0  0  0  0  0
   39.3400   24.7350   39.5810 N   0  0  0  0  0  0  0  0  0  0  0  0
   40.4430   26.3930   42.7380 H   0  0  0  0  0  0  0  0  0  0  0  0
   41.3270   24.3310   39.2400 H   0  0  0  0  0  0  0  0  0  0  0  0
   36.9450   25.2750   39.9300 C   0  0  0  0  0  0  0  0  0  0  0  0
   36.2460   24.0130   40.3490 C   0  0  0  0  0  0  0  0  0  0  0  0
   35.7880   23.2190   39.2100 C   0  0  0  0  0  0  0  0  0  0  0  0
   34.9040   24.0200   38.2800 C   0  0  0  0  0  0  0  0  0  0  0  0
   35.4040   25.3880   38.0140 C   0  0  0  0  0  0  0  0  0  0  0  0
   36.8360   25.5530   38.4750 C   0  0  0  0  0  0  0  0  0  0  0  0
   36.4200   26.0500   40.5200 H   0  0  0  0  0  0  0  0  0  0  0  0
   35.3840   24.2080   41.0140 H   0  0  0  0  0  0  0  0  0  0  0  0
   36.9590   23.4250   40.9620 H   0  0  0  0  0  0  0  0  0  0  0  0
   35.2220   22.3200   39.5340 H   0  0  0  0  0  0  0  0  0  0  0  0
   36.6410   22.8230   38.6080 H   0  0  0  0  0  0  0  0  0  0  0  0
   33.8610   23.9850   38.6660 H   0  0  0  0  0  0  0  0  0  0  0  0
   34.9310   23.4740   37.2910 H   0  0  0  0  0  0  0  0  0  0  0  0
   34.7950   26.0910   38.6360 H   0  0  0  0  0  0  0  0  0  0  0  0
   35.3050   25.7310   36.9750 H   0  0  0  0  0  0  0  0  0  0  0  0
   37.2030   26.5670   38.2510 H   0  0  0  0  0  0  0  0  0  0  0  0
   37.4520   24.7680   37.9460 H   0  0  0  0  0  0  0  0  0  0  0  0
   37.9090   26.4990   42.4350 O   0  0  0  0  0  0  0  0  0  0  0  0
   38.1440   27.4310   43.4060 C   0  0  0  0  0  0  0  0  0  0  0  0
   37.2210   27.5250   44.0320 H   0  0  0  0  0  0  0  0  0  0  0  0
   38.9620   27.2670   44.1110 H   0  0  0  0  0  0  0  0  0  0  0  0
   38.3870   28.8300   42.8560 C   0  0  0  0  0  0  0  0  0  0  0  0
   38.9170   28.8120   41.9090 H   0  0  0  0  0  0  0  0  0  0  0  0
   39.1020   29.2910   43.5980 H   0  0  0  0  0  0  0  0  0  0  0  0
   37.1990   29.6460   42.9030 N   0  0  0  0  0  0  0  0  0  0  0  0
   37.3880   30.5760   43.3210 H   0  0  0  0  0  0  0  0  0  0  0  0
   36.7320   29.9850   41.2560 S   0  0  0  0  0  0  0  0  0  0  0  0
   35.4620   30.7820   41.2210 O   0  0  0  0  0  0  0  0  0  0  0  0
   35.3100   31.6530   41.6690 H   0  0  0  0  0  0  0  0  0  0  0  0
   36.5460   28.6680   40.5730 O   0  0  0  0  0  0  0  0  0  0  0  0
   35.6800   28.1790   40.4650 H   0  0  0  0  0  0  0  0  0  0  0  0
   37.9360   30.8180   40.4590 O   0  0  0  0  0  0  0  0  0  0  0  0
   40.6060   31.8070   41.3650 O   0  0  0  0  0  0  0  0  0  0  0  0
   39.5460   32.4370   41.1450 C   0  0  0  0  0  0  0  0  0  0  0  0
   38.1040   32.1100   40.9290 C   0  0  1  0  0  3  0  0  0  0  0  0
   37.7830   33.0410   39.7780 C   0  0  0  0  0  3  0  0  0  0  0  0
   36.6980   33.1820   39.6190 H   0  0  0  0  0  0  0  0  0  0  0  0
   38.4970   34.3000   40.1520 C   0  0  0  0  0  3  0  0  0  0  0  0
   37.7620   34.9580   40.6870 H   0  0  0  0  0  0  0  0  0  0  0  0
   39.5650   33.8760   41.0470 N   0  0  0  0  0  0  0  0  0  0  0  0
   40.1900   34.6130   41.4920 H   0  0  0  0  0  0  0  0  0  0  0  0
  1  2  1  0  0  0  0
  2  3  2  0  0  0  0
  2 26  1  0  0  0  0
  3  7  1  0  0  0  0
  4  3  1  0  0  0  0
  5  4  2  0  0  0  0
  6  5  1  0  0  0  0
  6  1  2  0  0  0  0
  8  5  1  0  0  0  0
  9  1  1  0  0  0  0
  9 10  1  0  0  0  0
  9 15  1  0  0  0  0
 10 17  1  0  0  0  0
 10 16  1  0  0  0  0
 11 18  1  0  0  0  0
 11 10  1  0  0  0  0
 12 20  1  0  0  0  0
 12 11  1  0  0  0  0
 13 12  1  0  0  0  0
 13 14  1  0  0  0  0
 13 22  1  0  0  0  0
 14  9  1  0  0  0  0
 19 11  1  0  0  0  0
 21 12  1  0  0  0  0
 23 13  1  0  0  0  0
 24 14  1  0  0  0  0
 25 14  1  0  0  0  0
 26 27  1  0  0  0  0
 27 28  1  0  0  0  0
 27 29  1  0  0  0  0
 30 33  1  0  0  0  0
 30 27  1  0  0  0  0
 30 32  1  0  0  0  0
 31 30  1  0  0  0  0
 33 34  1  0  0  0  0
 35 33  1  0  0  0  0
 36 35  1  0  0  0  0
 36 37  1  0  0  0  0
 38 35  1  0  0  0  0
 39 38  1  0  0  0  0
 40 35  1  0  0  0  0
 42 41  2  0  0  0  0
 43 40  1  6  0  0  0
 43 42  1  0  0  0  0
 44 46  1  0  0  0  0
 44 43  1  0  0  0  0
 45 44  1  0  0  0  0
 46 47  1  0  0  0  0
 46 48  1  0  0  0  0
 48 42  1  0  0  0  0
 48 49  1  0  0  0  0
M  END
>  <minimizedAffinity>
-5.47507381

$$$$

 OpenBabel03242514213D

 49 51  0  0  1  0  0  0  0  0999 V2000
   38.2090   26.8800   42.0920 C   0  0  0  0  0  0  0  0  0  0  0  0
   38.0360   28.2390   42.1800 C   0  0  0  0  0  0  0  0  0  0  0  0
   39.0720   28.9630   42.7060 C   0  0  0  0  0  0  0  0  0  0  0  0
   40.1990   28.3330   43.1060 N   0  0  0  0  0  0  0  0  0  0  0  0
   40.3640   27.0200   43.0190 C   0  0  0  0  0  0  0  0  0  0  0  0
   39.3640   26.3210   42.5140 N   0  0  0  0  0  0  0  0  0  0  0  0
   39.1380   30.0300   42.8620 H   0  0  0  0  0  0  0  0  0  0  0  0
   41.2470   26.4790   43.3270 H   0  0  0  0  0  0  0  0  0  0  0  0
   37.1280   26.1090   41.4640 C   0  0  0  0  0  0  0  0  0  0  0  0
   36.9830   24.7520   42.0910 C   0  0  0  0  0  0  0  0  0  0  0  0
   37.2780   23.6660   41.1570 C   0  0  0  0  0  0  0  0  0  0  0  0
   36.4340   23.7540   39.9040 C   0  0  0  0  0  0  0  0  0  0  0  0
   36.3190   25.1240   39.3580 C   0  0  0  0  0  0  0  0  0  0  0  0
   37.3250   26.0600   39.9920 C   0  0  0  0  0  0  0  0  0  0  0  0
   36.1670   26.5960   41.7170 H   0  0  0  0  0  0  0  0  0  0  0  0
   35.9770   24.5890   42.5190 H   0  0  0  0  0  0  0  0  0  0  0  0
   37.6770   24.7090   42.9560 H   0  0  0  0  0  0  0  0  0  0  0  0
   37.1090   22.6690   41.6160 H   0  0  0  0  0  0  0  0  0  0  0  0
   38.3490   23.6650   40.8430 H   0  0  0  0  0  0  0  0  0  0  0  0
   35.4560   23.2600   40.1010 H   0  0  0  0  0  0  0  0  0  0  0  0
   36.9830   23.1460   39.1260 H   0  0  0  0  0  0  0  0  0  0  0  0
   35.3090   25.5130   39.6460 H   0  0  0  0  0  0  0  0  0  0  0  0
   36.3760   25.2010   38.2640 H   0  0  0  0  0  0  0  0  0  0  0  0
   37.2440   27.0700   39.5620 H   0  0  0  0  0  0  0  0  0  0  0  0
   38.3500   25.6200   39.8160 H   0  0  0  0  0  0  0  0  0  0  0  0
   37.0190   29.0320   41.8440 O   0  0  0  0  0  0  0  0  0  0  0  0
   36.6290   29.6450   40.6870 C   0  0  0  0  0  0  0  0  0  0  0  0
   37.3800   29.4030   39.8930 H   0  0  0  0  0  0  0  0  0  0  0  0
   35.6550   29.3950   40.2570 H   0  0  0  0  0  0  0  0  0  0  0  0
   36.6290   31.1650   40.7770 C   0  0  0  0  0  0  0  0  0  0  0  0
   35.9950   31.5290   41.5780 H   0  0  0  0  0  0  0  0  0  0  0  0
   36.1310   31.4920   39.8180 H   0  0  0  0  0  0  0  0  0  0  0  0
   37.9630   31.7100   40.7260 N   0  0  0  0  0  0  0  0  0  0  0  0
   38.6460   31.0240   40.3540 H   0  0  0  0  0  0  0  0  0  0  0  0
   37.9540   33.0060   39.5570 S   0  0  0  0  0  0  0  0  0  0  0  0
   36.7560   33.8870   39.7540 O   0  0  0  0  0  0  0  0  0  0  0  0
   36.5110   34.3560   40.5910 H   0  0  0  0  0  0  0  0  0  0  0  0
   37.9250   32.3730   38.2020 O   0  0  0  0  0  0  0  0  0  0  0  0
   37.1060   32.1940   37.6540 H   0  0  0  0  0  0  0  0  0  0  0  0
   39.3430   33.9180   39.6740 O   0  0  0  0  0  0  0  0  0  0  0  0
   40.9170   32.6730   37.4590 O   0  0  0  0  0  0  0  0  0  0  0  0
   41.1950   32.7980   38.6740 C   0  0  0  0  0  0  0  0  0  0  0  0
   40.4720   33.1580   39.9310 C   0  0  1  0  0  3  0  0  0  0  0  0
   41.4860   34.0800   40.5750 C   0  0  0  0  0  3  0  0  0  0  0  0
   41.2950   34.2590   41.6500 H   0  0  0  0  0  0  0  0  0  0  0  0
   42.7860   33.3920   40.3100 C   0  0  0  0  0  3  0  0  0  0  0  0
   43.0210   32.7590   41.2070 H   0  0  0  0  0  0  0  0  0  0  0  0
   42.5410   32.5640   39.1370 N   0  0  0  0  0  0  0  0  0  0  0  0
   43.3180   31.9310   38.7810 H   0  0  0  0  0  0  0  0  0  0  0  0
  1  2  2  0  0  0  0
  1  6  1  0  0  0  0
  2  3  1  0  0  0  0
  3  7  1  0  0  0  0
  3  4  2  0  0  0  0
  5  4  1  0  0  0  0
  5  8  1  0  0  0  0
  6  5  2  0  0  0  0
  9 15  1  0  0  0  0
  9 10  1  0  0  0  0
  9  1  1  0  0  0  0
 10 16  1  0  0  0  0
 10 17  1  0  0  0  0
 11 18  1  0  0  0  0
 11 10  1  0  0  0  0
 12 20  1  0  0  0  0
 12 11  1  0  0  0  0
 13 22  1  0  0  0  0
 13 12  1  0  0  0  0
 13 14  1  0  0  0  0
 14  9  1  0  0  0  0
 19 11  1  0  0  0  0
 21 12  1  0  0  0  0
 23 13  1  0  0  0  0
 24 14  1  0  0  0  0
 25 14  1  0  0  0  0
 26  2  1  0  0  0  0
 27 30  1  0  0  0  0
 27 26  1  0  0  0  0
 28 27  1  0  0  0  0
 29 27  1  0  0  0  0
 30 31  1  0  0  0  0
 32 30  1  0  0  0  0
 33 30  1  0  0  0  0
 34 33  1  0  0  0  0
 35 40  1  0  0  0  0
 35 36  1  0  0  0  0
 35 33  1  0  0  0  0
 36 37  1  0  0  0  0
 38 35  1  0  0  0  0
 39 38  1  0  0  0  0
 41 42  2  0  0  0  0
 42 48  1  0  0  0  0
 42 43  1  0  0  0  0
 43 40  1  6  0  0  0
 43 44  1  0  0  0  0
 44 45  1  0  0  0  0
 46 44  1  0  0  0  0
 46 47  1  0  0  0  0
 48 46  1  0  0  0  0
 49 48  1  0  0  0  0
M  END
>  <minimizedAffinity>
-5.47171545

$$$$

 OpenBabel03242514213D

 49 51  0  0  1  0  0  0  0  0999 V2000
   38.1850   25.2700   40.7720 C   0  0  0  0  0  0  0  0  0  0  0  0
   37.6680   26.0530   39.7700 C   0  0  0  0  0  0  0  0  0  0  0  0
   37.5510   25.4800   38.5330 C   0  0  0  0  0  0  0  0  0  0  0  0
   37.9350   24.1970   38.3460 N   0  0  0  0  0  0  0  0  0  0  0  0
   38.4330   23.4420   39.3150 C   0  0  0  0  0  0  0  0  0  0  0  0
   38.5480   23.9950   40.5090 N   0  0  0  0  0  0  0  0  0  0  0  0
   37.1750   25.9180   37.6200 H   0  0  0  0  0  0  0  0  0  0  0  0
   38.7500   22.4150   39.2080 H   0  0  0  0  0  0  0  0  0  0  0  0
   38.2460   25.8590   42.1160 C   0  0  0  0  0  0  0  0  0  0  0  0
   36.8750   26.0320   42.7040 C   0  0  0  0  0  0  0  0  0  0  0  0
   36.5310   27.4360   42.9250 C   0  0  0  0  0  0  0  0  0  0  0  0
   37.5590   28.1420   43.7820 C   0  0  0  0  0  0  0  0  0  0  0  0
   38.9570   27.8210   43.4220 C   0  0  0  0  0  0  0  0  0  0  0  0
   39.0370   27.1170   42.0840 C   0  0  0  0  0  0  0  0  0  0  0  0
   38.7090   25.1190   42.7950 H   0  0  0  0  0  0  0  0  0  0  0  0
   36.7500   25.4830   43.6550 H   0  0  0  0  0  0  0  0  0  0  0  0
   36.1510   25.5690   42.0020 H   0  0  0  0  0  0  0  0  0  0  0  0
   35.5400   27.5470   43.4150 H   0  0  0  0  0  0  0  0  0  0  0  0
   36.4460   28.0020   41.9660 H   0  0  0  0  0  0  0  0  0  0  0  0
   37.3120   27.9590   44.8520 H   0  0  0  0  0  0  0  0  0  0  0  0
   37.4210   29.2440   43.5750 H   0  0  0  0  0  0  0  0  0  0  0  0
   39.3370   27.0900   44.1800 H   0  0  0  0  0  0  0  0  0  0  0  0
   39.6540   28.6700   43.4380 H   0  0  0  0  0  0  0  0  0  0  0  0
   40.0840   26.9040   41.8180 H   0  0  0  0  0  0  0  0  0  0  0  0
   38.5480   27.7900   41.3210 H   0  0  0  0  0  0  0  0  0  0  0  0
   37.2400   27.3150   39.7560 O   0  0  0  0  0  0  0  0  0  0  0  0
   37.4600   28.3880   38.9400 C   0  0  0  0  0  0  0  0  0  0  0  0
   38.3810   28.9160   39.2960 H   0  0  0  0  0  0  0  0  0  0  0  0
   37.6120   28.2190   37.8710 H   0  0  0  0  0  0  0  0  0  0  0  0
   36.3590   29.4370   39.0090 C   0  0  0  0  0  0  0  0  0  0  0  0
   35.6810   29.2670   39.8390 H   0  0  0  0  0  0  0  0  0  0  0  0
   35.7520   29.2530   38.0750 H   0  0  0  0  0  0  0  0  0  0  0  0
   36.8760   30.7770   38.8760 N   0  0  0  0  0  0  0  0  0  0  0  0
   36.2420   31.3800   38.3190 H   0  0  0  0  0  0  0  0  0  0  0  0
   36.8860   31.4930   40.4680 S   0  0  0  0  0  0  0  0  0  0  0  0
   35.7580   30.9540   41.2970 O   0  0  0  0  0  0  0  0  0  0  0  0
   35.5890   29.9990   41.4960 H   0  0  0  0  0  0  0  0  0  0  0  0
   36.7450   32.9710   40.2840 O   0  0  0  0  0  0  0  0  0  0  0  0
   35.8890   33.4880   40.3170 H   0  0  0  0  0  0  0  0  0  0  0  0
   38.3340   31.2020   41.2380 O   0  0  0  0  0  0  0  0  0  0  0  0
   39.7510   33.7120   40.4460 O   0  0  0  0  0  0  0  0  0  0  0  0
   40.0730   32.5140   40.2690 C   0  0  0  0  0  0  0  0  0  0  0  0
   39.4150   31.1770   40.3710 C   0  0  1  0  0  3  0  0  0  0  0  0
   40.5100   30.3850   41.0560 C   0  0  0  0  0  3  0  0  0  0  0  0
   40.3640   29.2910   40.9930 H   0  0  0  0  0  0  0  0  0  0  0  0
   41.7500   30.8600   40.3700 C   0  0  0  0  0  3  0  0  0  0  0  0
   41.9680   30.1430   39.5350 H   0  0  0  0  0  0  0  0  0  0  0  0
   41.4130   32.1790   39.8530 N   0  0  0  0  0  0  0  0  0  0  0  0
   42.1330   32.7060   39.2730 H   0  0  0  0  0  0  0  0  0  0  0  0
  1  9  1  0  0  0  0
  2  1  2  0  0  0  0
  3  2  1  0  0  0  0
  4  3  2  0  0  0  0
  4  5  1  0  0  0  0
  5  6  2  0  0  0  0
  6  1  1  0  0  0  0
  7  3  1  0  0  0  0
  8  5  1  0  0  0  0
  9 10  1  0  0  0  0
  9 15  1  0  0  0  0
 10 11  1  0  0  0  0
 10 16  1  0  0  0  0
 11 18  1  0  0  0  0
 11 12  1  0  0  0  0
 12 20  1  0  0  0  0
 13 23  1  0  0  0  0
 13 12  1  0  0  0  0
 13 22  1  0  0  0  0
 14  9  1  0  0  0  0
 14 13  1  0  0  0  0
 17 10  1  0  0  0  0
 19 11  1  0  0  0  0
 21 12  1  0  0  0  0
 24 14  1  0  0  0  0
 25 14  1  0  0  0  0
 26  2  1  0  0  0  0
 27 30  1  0  0  0  0
 27 28  1  0  0  0  0
 27 26  1  0  0  0  0
 29 27  1  0  0  0  0
 30 31  1  0  0  0  0
 32 30  1  0  0  0  0
 33 30  1  0  0  0  0
 33 35  1  0  0  0  0
 34 33  1  0  0  0  0
 35 40  1  0  0  0  0
 35 36  1  0  0  0  0
 36 37  1  0  0  0  0
 38 39  1  0  0  0  0
 38 35  1  0  0  0  0
 42 43  1  0  0  0  0
 42 41  2  0  0  0  0
 43 44  1  0  0  0  0
 43 40  1  1  0  0  0
 45 44  1  0  0  0  0
 46 44  1  0  0  0  0
 47 46  1  0  0  0  0
 48 42  1  0  0  0  0
 48 46  1  0  0  0  0
 49 48  1  0  0  0  0
M  END
>  <minimizedAffinity>
-5.45434189

$$$$

 OpenBabel03242514213D

 49 51  0  0  1  0  0  0  0  0999 V2000
   37.8870   26.7070   41.9890 C   0  0  0  0  0  0  0  0  0  0  0  0
   38.8270   27.7040   41.8930 C   0  0  0  0  0  0  0  0  0  0  0  0
   38.7020   28.7590   42.7560 C   0  0  0  0  0  0  0  0  0  0  0  0
   37.6890   28.7810   43.6500 N   0  0  0  0  0  0  0  0  0  0  0  0
   36.7830   27.8170   43.7420 C   0  0  0  0  0  0  0  0  0  0  0  0
   36.9010   26.8000   42.9080 N   0  0  0  0  0  0  0  0  0  0  0  0
   39.3270   29.6350   42.8450 H   0  0  0  0  0  0  0  0  0  0  0  0
   35.9590   27.7970   44.4410 H   0  0  0  0  0  0  0  0  0  0  0  0
   38.0580   25.5420   41.1120 C   0  0  0  0  0  0  0  0  0  0  0  0
   37.3740   25.7430   39.7900 C   0  0  0  0  0  0  0  0  0  0  0  0
   36.2800   24.7970   39.5740 C   0  0  0  0  0  0  0  0  0  0  0  0
   36.7380   23.3610   39.7110 C   0  0  0  0  0  0  0  0  0  0  0  0
   37.6360   23.1290   40.8640 C   0  0  0  0  0  0  0  0  0  0  0  0
   37.6290   24.3060   41.8160 C   0  0  0  0  0  0  0  0  0  0  0  0
   39.1250   25.4820   40.8250 H   0  0  0  0  0  0  0  0  0  0  0  0
   38.0730   25.6770   38.9370 H   0  0  0  0  0  0  0  0  0  0  0  0
   36.9870   26.7830   39.7700 H   0  0  0  0  0  0  0  0  0  0  0  0
   35.8220   24.9170   38.5690 H   0  0  0  0  0  0  0  0  0  0  0  0
   35.4430   24.9540   40.2960 H   0  0  0  0  0  0  0  0  0  0  0  0
   37.1590   23.0300   38.7350 H   0  0  0  0  0  0  0  0  0  0  0  0
   35.8020   22.7620   39.9100 H   0  0  0  0  0  0  0  0  0  0  0  0
   38.6790   23.0600   40.4650 H   0  0  0  0  0  0  0  0  0  0  0  0
   37.4560   22.1990   41.4200 H   0  0  0  0  0  0  0  0  0  0  0  0
   38.2830   24.1120   42.6800 H   0  0  0  0  0  0  0  0  0  0  0  0
   36.5590   24.4710   42.1390 H   0  0  0  0  0  0  0  0  0  0  0  0
   39.8820   27.8610   41.0930 O   0  0  0  0  0  0  0  0  0  0  0  0
   40.8770   28.7920   41.0000 C   0  0  0  0  0  0  0  0  0  0  0  0
   40.7510   29.5250   41.8360 H   0  0  0  0  0  0  0  0  0  0  0  0
   41.9180   28.4620   41.0510 H   0  0  0  0  0  0  0  0  0  0  0  0
   40.8040   29.6300   39.7300 C   0  0  0  0  0  0  0  0  0  0  0  0
   40.6930   29.0180   38.8410 H   0  0  0  0  0  0  0  0  0  0  0  0
   41.8280   30.0970   39.6560 H   0  0  0  0  0  0  0  0  0  0  0  0
   39.8840   30.7330   39.8610 N   0  0  0  0  0  0  0  0  0  0  0  0
   40.3770   31.6220   40.0670 H   0  0  0  0  0  0  0  0  0  0  0  0
   39.1450   30.9860   38.3000 S   0  0  0  0  0  0  0  0  0  0  0  0
   39.9950   30.3990   37.2120 O   0  0  0  0  0  0  0  0  0  0  0  0
   40.2960   29.4570   37.1540 H   0  0  0  0  0  0  0  0  0  0  0  0
   39.0030   32.4630   38.1170 O   0  0  0  0  0  0  0  0  0  0  0  0
   39.6480   33.0620   37.6430 H   0  0  0  0  0  0  0  0  0  0  0  0
   37.6250   30.3070   38.2490 O   0  0  0  0  0  0  0  0  0  0  0  0
   36.9180   32.1830   40.4650 O   0  0  0  0  0  0  0  0  0  0  0  0
   36.7260   30.9500   40.3610 C   0  0  0  0  0  0  0  0  0  0  0  0
   37.1970   29.8390   39.4800 C   0  0  1  0  0  3  0  0  0  0  0  0
   35.8930   29.1060   39.2430 C   0  0  0  0  0  3  0  0  0  0  0  0
   36.0310   28.0850   38.8410 H   0  0  0  0  0  0  0  0  0  0  0  0
   35.2410   29.1320   40.5880 C   0  0  0  0  0  3  0  0  0  0  0  0
   35.5060   28.1740   41.1090 H   0  0  0  0  0  0  0  0  0  0  0  0
   35.8290   30.2770   41.2690 N   0  0  0  0  0  0  0  0  0  0  0  0
   35.5540   30.4750   42.2770 H   0  0  0  0  0  0  0  0  0  0  0  0
  1  6  1  0  0  0  0
  2  1  2  0  0  0  0
  2  3  1  0  0  0  0
  3  7  1  0  0  0  0
  3  4  2  0  0  0  0
  4  5  1  0  0  0  0
  5  8  1  0  0  0  0
  6  5  2  0  0  0  0
  9 14  1  0  0  0  0
  9  1  1  0  0  0  0
 10  9  1  0  0  0  0
 11 12  1  0  0  0  0
 11 10  1  0  0  0  0
 11 19  1  0  0  0  0
 12 21  1  0  0  0  0
 12 13  1  0  0  0  0
 13 23  1  0  0  0  0
 13 14  1  0  0  0  0
 14 25  1  0  0  0  0
 14 24  1  0  0  0  0
 15  9  1  0  0  0  0
 16 10  1  0  0  0  0
 17 10  1  0  0  0  0
 18 11  1  0  0  0  0
 20 12  1  0  0  0  0
 22 13  1  0  0  0  0
 26  2  1  0  0  0  0
 27 29  1  0  0  0  0
 27 26  1  0  0  0  0
 27 28  1  0  0  0  0
 30 33  1  0  0  0  0
 30 27  1  0  0  0  0
 31 30  1  0  0  0  0
 32 30  1  0  0  0  0
 33 34  1  0  0  0  0
 35 33  1  0  0  0  0
 36 35  1  0  0  0  0
 37 36  1  0  0  0  0
 38 35  1  0  0  0  0
 39 38  1  0  0  0  0
 40 35  1  0  0  0  0
 42 41  2  0  0  0  0
 42 48  1  0  0  0  0
 43 40  1  6  0  0  0
 43 42  1  0  0  0  0
 44 43  1  0  0  0  0
 44 46  1  0  0  0  0
 45 44  1  0  0  0  0
 46 47  1  0  0  0  0
 46 48  1  0  0  0  0
 48 49  1  0  0  0  0
M  END
>  <minimizedAffinity>
-5.41411114

$$$$
