REMARK  Name = 
REMARK  4 active torsions:
REMARK  status: ('A' for Active; 'I' for Inactive)
REMARK    1  A    between atoms: C_2  and  S_10
REMARK    2  A    between atoms: S_10  and  C_11
REMARK    3  A    between atoms: C_15  and  O_17
REMARK    4  A    between atoms: O_17  and  C_27
REMARK                            x       y       z     vdW  Elec       q    Type
REMARK                         _______ _______ _______ _____ _____    ______ ____
ROOT
ATOM      1  C   UNL     1      45.254  34.361  43.215  0.00  0.00    +0.000 A 
ATOM      2  C   UNL     1      45.835  33.140  43.512  0.00  0.00    +0.000 A 
ATOM      3  C   UNL     1      45.927  32.801  44.877  0.00  0.00    +0.000 A 
ATOM      4  N   UNL     1      45.462  33.651  45.803  0.00  0.00    +0.000 NA
ATOM      5  C   UNL     1      44.900  34.838  45.465  0.00  0.00    +0.000 A 
ATOM      6  N   UNL     1      44.812  35.161  44.170  0.00  0.00    +0.000 NA
ATOM      7  H   UNL     1      46.218  32.435  42.801  0.00  0.00    +0.000 HD
ATOM      8  H   UNL     1      46.371  31.860  45.186  0.00  0.00    +0.000 HD
ENDROOT
BRANCH   1   9
ATOM      9  S   UNL     1      45.170  34.729  41.442  0.00  0.00    +0.000 S 
BRANCH   9  11
ATOM     10  C   UNL     1      42.595  35.325  41.911  0.00  0.00    +0.000 A 
ATOM     11  C   UNL     1      43.452  34.870  40.931  0.00  0.00    +0.000 A 
ATOM     12  C   UNL     1      43.001  34.558  39.676  0.00  0.00    +0.000 A 
ATOM     13  C   UNL     1      41.672  34.684  39.333  0.00  0.00    +0.000 A 
ATOM     14  C   UNL     1      40.795  35.146  40.326  0.00  0.00    +0.000 A 
ATOM     15  C   UNL     1      41.237  35.463  41.592  0.00  0.00    +0.000 A 
ATOM     16  O   UNL     1      39.499  35.190  39.737  0.00  0.00    +0.000 OA
ATOM     17  C   UNL     1      39.579  34.403  38.569  0.00  0.00    +0.000 C 
ATOM     18  O   UNL     1      40.938  34.449  38.164  0.00  0.00    +0.000 OA
ATOM     19  H   UNL     1      42.818  35.605  42.935  0.00  0.00    +0.000 HD
ATOM     20  H   UNL     1      43.718  34.206  38.948  0.00  0.00    +0.000 HD
ATOM     21  H   UNL     1      40.504  35.818  42.321  0.00  0.00    +0.000 HD
ATOM     22  H   UNL     1      38.990  34.878  37.755  0.00  0.00    +0.000 HD
ATOM     23  H   UNL     1      39.191  33.377  38.710  0.00  0.00    +0.000 HD
ENDBRANCH   9  11
ENDBRANCH   1   9
BRANCH   5  24
ATOM     24  O   UNL     1      44.396  35.773  46.340  0.00  0.00    +0.000 OA
BRANCH  24  27
ATOM     25  O   UNL     1      43.632  36.317  43.785  0.00  0.00    +0.000 OA
ATOM     26  C   UNL     1      43.869  37.293  44.551  0.00  0.00    +0.000 C 
ATOM     27  C   UNL     1      43.819  36.989  46.010  0.00  0.00    +0.000 C 
ATOM     28  C   UNL     1      44.540  38.185  46.586  0.00  0.00    +0.000 C 
ATOM     29  H   UNL     1      44.257  38.405  47.626  0.00  0.00    +0.000 HD
ATOM     30  C   UNL     1      43.961  39.297  45.702  0.00  0.00    +0.000 C 
ATOM     31  H   UNL     1      44.491  40.238  45.842  0.00  0.00    +0.000 HD
ATOM     32  N   UNL     1      44.189  38.689  44.383  0.00  0.00    +0.000 N 
ATOM     33  H   UNL     1      44.495  38.939  43.416  0.00  0.00    +0.000 HD
ENDBRANCH  24  27
ENDBRANCH   5  24
TORSDOF 4
