
 OpenBabel03242512083D

 33 35  0  0  1  0  0  0  0  0999 V2000
   48.2920   34.6130   41.2530 C   0  0  1  0  0  0  0  0  0  0  0  0
   48.9250   35.9280   41.8590 C   0  0  0  0  0  0  0  0  0  0  0  0
   49.1840   34.5930   42.4060 C   0  0  2  0  0  0  0  0  0  0  0  0
   48.7050   34.3670   40.2600 H   0  0  0  0  0  0  0  0  0  0  0  0
   49.6760   36.4140   41.2150 H   0  0  0  0  0  0  0  0  0  0  0  0
   48.2110   36.6390   42.3200 H   0  0  0  0  0  0  0  0  0  0  0  0
   48.7120   34.2060   43.3210 H   0  0  0  0  0  0  0  0  0  0  0  0
   46.8150   34.5780   41.4350 C   0  0  0  0  0  0  0  0  0  0  0  0
   46.1330   34.3240   40.4470 O   0  0  0  0  0  0  0  0  0  0  0  0
   45.4430   35.9420   42.9330 C   0  0  0  0  0  0  0  0  0  0  0  0
   46.1490   34.8150   42.6730 C   0  0  0  0  0  0  0  0  0  0  0  0
   46.2080   33.8320   43.6950 C   0  0  0  0  0  0  0  0  0  0  0  0
   45.5790   34.0300   44.8770 N   0  0  0  0  0  0  0  0  0  0  0  0
   44.8790   35.1830   45.0920 C   0  0  0  0  0  0  0  0  0  0  0  0
   44.8210   36.1030   44.1410 N   0  0  0  0  0  0  0  0  0  0  0  0
   45.4190   36.6720   42.1300 H   0  0  0  0  0  0  0  0  0  0  0  0
   46.7200   32.9160   43.6160 H   0  0  0  0  0  0  0  0  0  0  0  0
   44.3820   35.3370   46.0290 H   0  0  0  0  0  0  0  0  0  0  0  0
   50.5030   34.1750   42.2780 O   0  0  0  0  0  0  0  0  0  0  0  0
   49.1190   32.0370   42.6690 O   0  0  0  0  0  0  0  0  0  0  0  0
   50.4650   32.4810   42.1330 P   0  0  2  0  0  0  0  0  0  0  0  0
   51.7270   31.7220   42.9090 O   0  0  0  0  0  0  0  0  0  0  0  0
   52.5680   31.9530   42.4780 H   0  0  0  0  0  0  0  0  0  0  0  0
   50.4300   32.0980   40.4560 O   0  0  0  0  0  0  0  0  0  0  0  0
   48.6260   32.8770   38.1590 O   0  0  0  0  0  0  0  0  0  0  0  0
   48.7370   31.8300   38.8860 C   0  0  0  0  0  0  0  0  0  0  0  0
   49.3490   31.3180   40.1430 C   0  0  1  0  0  3  0  0  0  0  0  0
   49.8000   29.9240   39.6900 C   0  0  0  0  0  3  0  0  0  0  0  0
   50.0130   29.2620   40.5450 H   0  0  0  0  0  0  0  0  0  0  0  0
   48.6000   29.4550   38.8880 C   0  0  0  0  0  3  0  0  0  0  0  0
   47.8630   28.9080   39.5160 H   0  0  0  0  0  0  0  0  0  0  0  0
   48.0410   30.6770   38.3700 N   0  0  0  0  0  0  0  0  0  0  0  0
   47.2340   30.5830   37.7120 H   0  0  0  0  0  0  0  0  0  0  0  0
  1  4  1  6  0  0  0
  1  8  1  0  0  0  0
  1  2  1  0  0  0  0
  1  3  1  0  0  0  0
  2  6  1  0  0  0  0
  2  3  1  0  0  0  0
  3  7  1  1  0  0  0
  5  2  1  0  0  0  0
  8 11  1  0  0  0  0
  9  8  2  0  0  0  0
 10 15  1  0  0  0  0
 11 10  2  0  0  0  0
 11 12  1  0  0  0  0
 12 13  2  0  0  0  0
 13 14  1  0  0  0  0
 14 18  1  0  0  0  0
 15 14  2  0  0  0  0
 16 10  1  0  0  0  0
 17 12  1  0  0  0  0
 19  3  1  0  0  0  0
 21 19  1  0  0  0  0
 21 20  2  1  0  0  0
 21 22  1  0  0  0  0
 23 22  1  0  0  0  0
 24 21  1  0  0  0  0
 25 26  2  0  0  0  0
 26 27  1  0  0  0  0
 27 24  1  6  0  0  0
 28 27  1  0  0  0  0
 28 29  1  0  0  0  0
 30 31  1  0  0  0  0
 30 28  1  0  0  0  0
 32 26  1  0  0  0  0
 32 30  1  0  0  0  0
 33 32  1  0  0  0  0
M  END
>  <minimizedAffinity>
-4.78240252

>  <minimizedRMSD>
1.40519953

$$$$
