
 OpenBabel03252507373D

 38 42  0  0  1  0  0  0  0  0999 V2000
   45.7830   34.8120   43.5250 C   0  0  0  0  0  0  0  0  0  0  0  0
   46.4840   33.7500   44.1330 C   0  0  0  0  0  0  0  0  0  0  0  0
   46.1890   33.4810   45.4620 C   0  0  0  0  0  0  0  0  0  0  0  0
   45.2630   34.2280   46.1030 N   0  0  0  0  0  0  0  0  0  0  0  0
   44.6040   35.2420   45.4950 C   0  0  0  0  0  0  0  0  0  0  0  0
   44.8680   35.5230   44.2220 N   0  0  0  0  0  0  0  0  0  0  0  0
   47.2110   33.1610   43.6370 H   0  0  0  0  0  0  0  0  0  0  0  0
   43.8690   35.8280   46.0230 H   0  0  0  0  0  0  0  0  0  0  0  0
   47.0560   32.6460   47.5850 C   0  0  0  0  0  0  0  0  0  0  0  0
   46.8230   32.4180   46.2340 C   0  0  0  0  0  0  0  0  0  0  0  0
   47.2010   31.2090   45.7000 C   0  0  0  0  0  0  0  0  0  0  0  0
   47.7980   30.2130   46.4470 C   0  0  0  0  0  0  0  0  0  0  0  0
   48.2420   28.9820   46.1510 N   0  0  0  0  0  0  0  0  0  0  0  0
   48.7530   28.4360   47.3180 C   0  0  0  0  0  0  0  0  0  0  0  0
   48.6110   29.3400   48.2930 N   0  0  0  0  0  0  0  0  0  0  0  0
   48.0290   30.4370   47.7870 C   0  0  0  0  0  0  0  0  0  0  0  0
   47.6570   31.6490   48.3480 C   0  0  0  0  0  0  0  0  0  0  0  0
   46.8060   33.5470   48.1140 H   0  0  0  0  0  0  0  0  0  0  0  0
   47.0050   31.0580   44.6320 H   0  0  0  0  0  0  0  0  0  0  0  0
   48.1760   28.5790   45.1820 H   0  0  0  0  0  0  0  0  0  0  0  0
   49.1540   27.4310   47.2400 H   0  0  0  0  0  0  0  0  0  0  0  0
   47.8580   31.7850   49.4110 H   0  0  0  0  0  0  0  0  0  0  0  0
   46.0500   35.1120   42.2040 O   0  0  0  0  0  0  0  0  0  0  0  0
   45.3300   34.5310   41.1650 C   0  0  0  0  0  0  0  0  0  0  0  0
   46.2440   33.7250   40.5580 C   0  0  0  0  0  0  0  0  0  0  0  0
   45.1910   32.9810   39.1710 S   0  0  0  0  0  0  0  0  0  0  0  0
   43.6810   33.9850   39.7620 C   0  0  0  0  0  0  0  0  0  0  0  0
   44.1360   34.5150   40.6210 N   0  0  0  0  0  0  0  0  0  0  0  0
   47.2380   33.3140   40.4820 H   0  0  0  0  0  0  0  0  0  0  0  0
   41.2110   33.4360   41.3200 O   0  0  0  0  0  0  0  0  0  0  0  0
   41.3130   33.9220   40.1630 C   0  0  0  0  0  0  0  0  0  0  0  0
   42.3500   33.9500   39.1360 C   0  0  1  0  0  3  0  0  0  0  0  0
   42.0690   35.2700   38.4460 C   0  0  0  0  0  3  0  0  0  0  0  0
   42.5890   35.3670   37.4780 H   0  0  0  0  0  0  0  0  0  0  0  0
   40.5560   35.1560   38.2840 C   0  0  0  0  0  3  0  0  0  0  0  0
   40.0690   36.1010   38.0450 H   0  0  0  0  0  0  0  0  0  0  0  0
   40.1990   34.6510   39.6100 N   0  0  0  0  0  0  0  0  0  0  0  0
   39.2540   34.8290   40.0380 H   0  0  0  0  0  0  0  0  0  0  0  0
  1  2  2  0  0  0  0
  1  6  1  0  0  0  0
  2  3  1  0  0  0  0
  3  4  2  0  0  0  0
  3 10  1  0  0  0  0
  5  8  1  0  0  0  0
  5  4  1  0  0  0  0
  6  5  2  0  0  0  0
  7  2  1  0  0  0  0
  9 18  1  0  0  0  0
  9 17  1  0  0  0  0
 10  9  2  0  0  0  0
 11 10  1  0  0  0  0
 11 12  2  0  0  0  0
 12 16  1  0  0  0  0
 13 12  1  0  0  0  0
 13 14  1  0  0  0  0
 14 15  2  0  0  0  0
 16 15  1  0  0  0  0
 16 17  2  0  0  0  0
 17 22  1  0  0  0  0
 19 11  1  0  0  0  0
 20 13  1  0  0  0  0
 21 14  1  0  0  0  0
 23  1  1  0  0  0  0
 24 23  1  0  0  0  0
 25 24  2  0  0  0  0
 26 27  1  0  0  0  0
 26 25  1  0  0  0  0
 27 28  2  0  0  0  0
 28 24  1  0  0  0  0
 29 25  1  0  0  0  0
 31 30  2  0  0  0  0
 32 27  1  1  0  0  0
 32 31  1  0  0  0  0
 33 32  1  0  0  0  0
 34 33  1  0  0  0  0
 35 33  1  0  0  0  0
 35 37  1  0  0  0  0
 36 35  1  0  0  0  0
 37 38  1  0  0  0  0
 37 31  1  0  0  0  0
M  END
>  <minimizedAffinity>
-6.43132067

>  <minimizedRMSD>
1.27439404

$$$$
