
 OpenBabel03252507373D

 38 42  0  0  1  0  0  0  0  0999 V2000
   45.5360   34.8290   43.3990 C   0  0  0  0  0  0  0  0  0  0  0  0
   46.2440   33.7630   43.9930 C   0  0  0  0  0  0  0  0  0  0  0  0
   46.0420   33.5540   45.3500 C   0  0  0  0  0  0  0  0  0  0  0  0
   45.1960   34.3590   46.0290 N   0  0  0  0  0  0  0  0  0  0  0  0
   44.5280   35.3740   45.4330 C   0  0  0  0  0  0  0  0  0  0  0  0
   44.7040   35.5990   44.1340 N   0  0  0  0  0  0  0  0  0  0  0  0
   46.9080   33.1290   43.4670 H   0  0  0  0  0  0  0  0  0  0  0  0
   43.8570   36.0080   45.9920 H   0  0  0  0  0  0  0  0  0  0  0  0
   46.8930   32.7020   47.4720 C   0  0  0  0  0  0  0  0  0  0  0  0
   46.6950   32.4960   46.1130 C   0  0  0  0  0  0  0  0  0  0  0  0
   47.1230   31.3120   45.5620 C   0  0  0  0  0  0  0  0  0  0  0  0
   47.7390   30.3200   46.3010 C   0  0  0  0  0  0  0  0  0  0  0  0
   48.2290   29.1110   45.9880 N   0  0  0  0  0  0  0  0  0  0  0  0
   48.7340   28.5570   47.1540 C   0  0  0  0  0  0  0  0  0  0  0  0
   48.5420   29.4350   48.1440 N   0  0  0  0  0  0  0  0  0  0  0  0
   47.9350   30.5230   47.6500 C   0  0  0  0  0  0  0  0  0  0  0  0
   47.5120   31.7100   48.2270 C   0  0  0  0  0  0  0  0  0  0  0  0
   46.6020   33.5840   48.0150 H   0  0  0  0  0  0  0  0  0  0  0  0
   46.9550   31.1770   44.4870 H   0  0  0  0  0  0  0  0  0  0  0  0
   48.1960   28.7270   45.0100 H   0  0  0  0  0  0  0  0  0  0  0  0
   49.1700   27.5680   47.0640 H   0  0  0  0  0  0  0  0  0  0  0  0
   47.6860   31.8290   49.2970 H   0  0  0  0  0  0  0  0  0  0  0  0
   45.7110   35.0700   42.0510 O   0  0  0  0  0  0  0  0  0  0  0  0
   44.7430   34.7190   41.1150 C   0  0  0  0  0  0  0  0  0  0  0  0
   45.3220   33.7010   40.4230 C   0  0  0  0  0  0  0  0  0  0  0  0
   43.9500   33.2900   39.1850 S   0  0  0  0  0  0  0  0  0  0  0  0
   42.8530   34.6610   39.9270 C   0  0  0  0  0  0  0  0  0  0  0  0
   43.5330   35.0370   40.7160 N   0  0  0  0  0  0  0  0  0  0  0  0
   46.1510   33.0350   40.2400 H   0  0  0  0  0  0  0  0  0  0  0  0
   42.3690   36.2030   37.4340 O   0  0  0  0  0  0  0  0  0  0  0  0
   41.5480   35.5210   38.1020 C   0  0  0  0  0  0  0  0  0  0  0  0
   41.4980   34.9990   39.4630 C   0  0  1  0  0  3  0  0  0  0  0  0
   40.6820   33.7340   39.2830 C   0  0  0  0  0  3  0  0  0  0  0  0
   40.3190   33.3180   40.2360 H   0  0  0  0  0  0  0  0  0  0  0  0
   39.5500   34.2810   38.4180 C   0  0  0  0  0  3  0  0  0  0  0  0
   38.9600   33.5090   37.9290 H   0  0  0  0  0  0  0  0  0  0  0  0
   40.3240   35.0890   37.4740 N   0  0  0  0  0  0  0  0  0  0  0  0
   39.9810   35.2880   36.4990 H   0  0  0  0  0  0  0  0  0  0  0  0
  1  2  2  0  0  0  0
  1  6  1  0  0  0  0
  2  3  1  0  0  0  0
  3  4  2  0  0  0  0
  3 10  1  0  0  0  0
  5  8  1  0  0  0  0
  5  4  1  0  0  0  0
  6  5  2  0  0  0  0
  7  2  1  0  0  0  0
  9 18  1  0  0  0  0
  9 17  1  0  0  0  0
 10  9  2  0  0  0  0
 11 10  1  0  0  0  0
 11 12  2  0  0  0  0
 12 16  1  0  0  0  0
 13 12  1  0  0  0  0
 13 14  1  0  0  0  0
 14 15  2  0  0  0  0
 16 15  1  0  0  0  0
 16 17  2  0  0  0  0
 17 22  1  0  0  0  0
 19 11  1  0  0  0  0
 20 13  1  0  0  0  0
 21 14  1  0  0  0  0
 23  1  1  0  0  0  0
 24 23  1  0  0  0  0
 25 24  2  0  0  0  0
 26 27  1  0  0  0  0
 26 25  1  0  0  0  0
 27 28  2  0  0  0  0
 28 24  1  0  0  0  0
 29 25  1  0  0  0  0
 30 31  2  0  0  0  0
 31 32  1  0  0  0  0
 32 27  1  6  0  0  0
 33 32  1  0  0  0  0
 33 34  1  0  0  0  0
 35 33  1  0  0  0  0
 36 35  1  0  0  0  0
 37 31  1  0  0  0  0
 37 35  1  0  0  0  0
 38 37  1  0  0  0  0
M  END
>  <minimizedAffinity>
-6.63029957

>  <minimizedRMSD>
0.591339231

$$$$
