
 OpenBabel03252506183D

 18 18  0  0  0  0  0  0  0  0999 V2000
   44.8260   35.7100   43.8580 C   0  0  0  0  0  0  0  0  0  0  0  0
   44.2290   35.4640   42.5850 C   0  0  0  0  0  0  0  0  0  0  0  0
   44.2060   34.1340   42.1380 C   0  0  0  0  0  0  0  0  0  0  0  0
   44.7450   33.1670   42.9290 N   0  0  0  0  0  0  0  0  0  0  0  0
   45.2990   33.4520   44.1270 C   0  0  0  0  0  0  0  0  0  0  0  0
   45.3370   34.7030   44.5790 N   0  0  0  0  0  0  0  0  0  0  0  0
   43.8290   36.3070   42.0360 H   0  0  0  0  0  0  0  0  0  0  0  0
   43.7540   33.9390   41.1740 H   0  0  0  0  0  0  0  0  0  0  0  0
   44.8530   37.1030   44.3310 C   0  0  0  0  0  3  0  0  0  0  0  0
   45.3760   38.0160   43.5230 C   0  0  0  0  0  3  0  0  0  0  0  0
   45.4190   39.4440   43.9740 C   0  0  0  0  0  0  0  0  0  0  0  0
   46.0740   39.4550   44.8840 H   0  0  0  0  0  0  0  0  0  0  0  0
   44.4470   39.8360   44.2750 H   0  0  0  0  0  0  0  0  0  0  0  0
   45.9100   40.0700   43.2260 H   0  0  0  0  0  0  0  0  0  0  0  0
   45.8640   32.3840   44.9400 C   0  0  0  0  0  3  0  0  0  0  0  0
   46.9760   31.7490   44.6060 C   0  0  0  0  0  3  0  0  0  0  0  0
   47.5870   30.6590   45.4000 C   0  0  0  0  0  2  0  0  0  0  0  0
   46.8830   30.4330   46.2440 H   0  0  0  0  0  0  0  0  0  0  0  0
  1  9  1  0  0  0  0
  1  6  1  0  0  0  0
  2  1  2  0  0  0  0
  3  2  1  0  0  0  0
  3  4  2  0  0  0  0
  4  5  1  0  0  0  0
  5  6  2  0  0  0  0
  5 15  1  0  0  0  0
  7  2  1  0  0  0  0
  8  3  1  0  0  0  0
 10 11  1  0  0  0  0
 10  9  2  0  0  0  0
 11 13  1  0  0  0  0
 11 12  1  0  0  0  0
 14 11  1  0  0  0  0
 16 15  2  0  0  0  0
 16 17  1  0  0  0  0
 17 18  1  0  0  0  0
M  END
>  <minimizedAffinity>
-2.81460643

>  <minimizedRMSD>
0.757159173

$$$$
