
 OpenBabel03242511423D

 29 30  0  0  0  0  0  0  0  0999 V2000
   46.8110   32.9330   46.1940 C   0  0  0  0  0  0  0  0  0  0  0  0
   46.8000   33.9660   46.5580 H   0  0  0  0  0  0  0  0  0  0  0  0
   47.8910   32.6200   46.0750 H   0  0  0  0  0  0  0  0  0  0  0  0
   46.2560   32.0600   47.2230 C   0  0  0  0  0  0  0  0  0  0  0  0
   45.2290   32.2950   48.1240 C   0  0  0  0  0  0  0  0  0  0  0  0
   44.7470   31.3810   49.0240 C   0  0  0  0  0  0  0  0  0  0  0  0
   45.3270   30.1430   49.0290 C   0  0  0  0  0  0  0  0  0  0  0  0
   46.3590   29.8810   48.1380 C   0  0  0  0  0  0  0  0  0  0  0  0
   46.8280   30.8370   47.2370 C   0  0  0  0  0  0  0  0  0  0  0  0
   44.8430   33.3090   48.0290 H   0  0  0  0  0  0  0  0  0  0  0  0
   43.9470   31.7770   49.6310 H   0  0  0  0  0  0  0  0  0  0  0  0
   44.8510   29.5060   49.7890 H   0  0  0  0  0  0  0  0  0  0  0  0
   46.6250   28.8430   48.3580 H   0  0  0  0  0  0  0  0  0  0  0  0
   47.9780   30.1780   46.6380 C   0  0  0  0  0  3  0  0  0  0  0  0
   48.2040   29.6380   45.4600 C   0  0  0  0  0  3  0  0  0  0  0  0
   49.3610   28.9860   44.8840 C   0  0  0  0  0  2  0  0  0  0  0  0
   50.1830   28.9870   45.6540 H   0  0  0  0  0  0  0  0  0  0  0  0
   46.1830   32.7380   44.8560 C   0  0  0  0  0  0  0  0  0  0  0  0
   45.2070   32.2320   44.9770 H   0  0  0  0  0  0  0  0  0  0  0  0
   46.8670   32.3280   44.0940 H   0  0  0  0  0  0  0  0  0  0  0  0
   44.5620   36.0540   44.6020 C   0  0  0  0  0  0  0  0  0  0  0  0
   44.9890   36.4940   43.3250 C   0  0  0  0  0  0  0  0  0  0  0  0
   45.8190   35.6440   42.6200 C   0  0  0  0  0  0  0  0  0  0  0  0
   46.1730   34.4750   43.1580 N   0  0  0  0  0  0  0  0  0  0  0  0
   45.7330   34.1010   44.3890 C   0  0  0  0  0  0  0  0  0  0  0  0
   44.9440   34.8680   45.1040 N   0  0  0  0  0  0  0  0  0  0  0  0
   43.9030   36.7600   45.1300 H   0  0  0  0  0  0  0  0  0  0  0  0
   44.6750   37.4570   42.9250 H   0  0  0  0  0  0  0  0  0  0  0  0
   46.1850   35.9170   41.6360 H   0  0  0  0  0  0  0  0  0  0  0  0
  1  2  1  0  0  0  0
  1  4  1  0  0  0  0
  3  1  1  0  0  0  0
  4  9  2  0  0  0  0
  4  5  1  0  0  0  0
  5  6  2  0  0  0  0
  6  7  1  0  0  0  0
  6 11  1  0  0  0  0
  7 12  1  0  0  0  0
  8 13  1  0  0  0  0
  8  7  2  0  0  0  0
  9  8  1  0  0  0  0
 10  5  1  0  0  0  0
 14  9  1  0  0  0  0
 15 14  2  0  0  0  0
 16 15  1  0  0  0  0
 16 17  1  0  0  0  0
 18 19  1  0  0  0  0
 18  1  1  0  0  0  0
 20 18  1  0  0  0  0
 21 26  1  0  0  0  0
 21 27  1  0  0  0  0
 22 21  2  0  0  0  0
 23 24  2  0  0  0  0
 23 22  1  0  0  0  0
 24 25  1  0  0  0  0
 25 18  1  0  0  0  0
 25 26  2  0  0  0  0
 28 22  1  0  0  0  0
 29 23  1  0  0  0  0
M  END
>  <minimizedAffinity>
-4.56501961

>  <minimizedRMSD>
1.09936082

$$$$
