
 OpenBabel03252505063D

 38 40  0  0  1  0  0  0  0  0999 V2000
   44.5780   35.5890   44.6120 C   0  0  0  0  0  0  0  0  0  0  0  0
   45.2350   35.5990   43.3580 C   0  0  0  0  0  0  0  0  0  0  0  0
   46.3180   34.6860   43.1810 C   0  0  0  0  0  0  0  0  0  0  0  0
   46.6630   33.8640   44.2020 N   0  0  0  0  0  0  0  0  0  0  0  0
   46.0070   33.8940   45.3730 C   0  0  0  0  0  0  0  0  0  0  0  0
   44.9630   34.7500   45.5930 N   0  0  0  0  0  0  0  0  0  0  0  0
   43.7570   36.2670   44.7780 H   0  0  0  0  0  0  0  0  0  0  0  0
   44.9240   36.2750   42.5710 H   0  0  0  0  0  0  0  0  0  0  0  0
   46.4340   32.9700   46.4590 C   0  0  2  0  0  0  0  0  0  0  0  0
   46.9630   31.7470   45.7620 C   0  0  0  0  0  0  0  0  0  0  0  0
   46.1000   30.5550   45.7740 C   0  0  0  0  0  0  0  0  0  0  0  0
   45.8060   30.2900   47.2530 C   0  0  0  0  0  0  0  0  0  0  0  0
   45.0130   31.3520   47.8650 C   0  0  0  0  0  0  0  0  0  0  0  0
   45.3780   32.7310   47.4160 C   0  0  0  0  0  0  0  0  0  0  0  0
   47.2750   33.4970   46.9670 H   0  0  0  0  0  0  0  0  0  0  0  0
   47.9250   31.4690   46.2600 H   0  0  0  0  0  0  0  0  0  0  0  0
   47.2620   31.9540   44.7070 H   0  0  0  0  0  0  0  0  0  0  0  0
   46.6760   29.6920   45.4340 H   0  0  0  0  0  0  0  0  0  0  0  0
   45.1820   30.6210   45.1700 H   0  0  0  0  0  0  0  0  0  0  0  0
   46.7490   30.0410   47.7390 H   0  0  0  0  0  0  0  0  0  0  0  0
   45.1430   29.3940   47.2360 H   0  0  0  0  0  0  0  0  0  0  0  0
   44.2210   31.3440   48.5690 H   0  0  0  0  0  0  0  0  0  0  0  0
   44.6820   33.8750   47.9290 N   0  0  0  0  0  0  0  0  0  0  0  0
   43.6670   33.9940   47.7070 H   0  0  0  0  0  0  0  0  0  0  0  0
   45.2410   34.5190   48.4970 H   0  0  0  0  0  0  0  0  0  0  0  0
   47.0110   34.6720   41.9010 C   0  0  0  0  0  0  0  0  0  0  0  0
   48.1550   35.3940   41.7740 C   0  0  0  0  0  0  0  0  0  0  0  0
   48.7850   35.3480   40.5190 C   0  0  0  0  0  0  0  0  0  0  0  0
   48.1800   34.5810   39.5490 C   0  0  0  0  0  0  0  0  0  0  0  0
   47.0320   33.8570   39.6760 C   0  0  0  0  0  0  0  0  0  0  0  0
   46.4610   33.9350   40.9150 N   0  0  0  0  0  0  0  0  0  0  0  0
   48.6120   35.9910   42.5540 H   0  0  0  0  0  0  0  0  0  0  0  0
   49.6970   35.8970   40.3450 H   0  0  0  0  0  0  0  0  0  0  0  0
   48.6890   34.5650   38.5890 H   0  0  0  0  0  0  0  0  0  0  0  0
   46.4130   33.0610   38.6570 C   0  0  0  0  0  3  0  0  0  0  0  0
   46.0930   31.7980   38.8760 C   0  0  0  0  0  3  0  0  0  0  0  0
   45.4590   30.9010   37.9050 C   0  0  0  0  0  2  0  0  0  0  0  0
   45.7400   31.1400   36.8390 H   0  0  0  0  0  0  0  0  0  0  0  0
  1  7  1  0  0  0  0
  1  6  1  0  0  0  0
  2  1  2  0  0  0  0
  3  2  1  0  0  0  0
  3  4  2  0  0  0  0
  4  5  1  0  0  0  0
  5  6  2  0  0  0  0
  5  9  1  0  0  0  0
  8  2  1  0  0  0  0
  9 15  1  1  0  0  0
  9 14  1  0  0  0  0
 10 11  1  0  0  0  0
 10 16  1  0  0  0  0
 10  9  1  0  0  0  0
 11 12  1  0  0  0  0
 12 20  1  0  0  0  0
 12 13  1  0  0  0  0
 13 22  1  0  0  0  0
 14 13  2  0  0  0  0
 14 23  1  0  0  0  0
 17 10  1  0  0  0  0
 18 11  1  0  0  0  0
 19 11  1  0  0  0  0
 21 12  1  0  0  0  0
 23 25  1  0  0  0  0
 24 23  1  0  0  0  0
 26  3  1  0  0  0  0
 27 26  1  0  0  0  0
 27 32  1  0  0  0  0
 28 27  2  0  0  0  0
 29 30  2  0  0  0  0
 29 28  1  0  0  0  0
 30 31  1  0  0  0  0
 31 26  2  0  0  0  0
 33 28  1  0  0  0  0
 34 29  1  0  0  0  0
 35 36  2  0  0  0  0
 35 30  1  0  0  0  0
 37 36  1  0  0  0  0
 38 37  1  0  0  0  0
M  END
>  <minimizedAffinity>
-6.81447935

>  <minimizedRMSD>
0.0691540018

$$$$
