
 OpenBabel03242519183D

 37 39  0  0  1  0  0  0  0  0999 V2000
   37.0380   29.0600   41.9390 C   0  0  0  0  0  0  0  0  0  0  0  0
   38.2960   29.3790   42.3840 C   0  0  0  0  0  0  0  0  0  0  0  0
   39.1850   28.4180   42.8870 C   0  0  0  0  0  0  0  0  0  0  0  0
   38.7120   27.1450   42.9040 N   0  0  0  0  0  0  0  0  0  0  0  0
   37.4810   26.8450   42.4660 C   0  0  0  0  0  0  0  0  0  0  0  0
   36.6710   27.7870   41.9970 N   0  0  0  0  0  0  0  0  0  0  0  0
   38.6160   30.4300   42.3430 H   0  0  0  0  0  0  0  0  0  0  0  0
   40.1710   28.6860   43.2350 H   0  0  0  0  0  0  0  0  0  0  0  0
   36.9660   25.4410   42.4660 C   0  0  2  0  0  0  0  0  0  0  0  0
   37.9200   24.3210   42.1840 C   0  0  0  0  0  0  0  0  0  0  0  0
   36.8610   24.7590   41.1600 C   0  0  2  0  0  0  0  0  0  0  0  0
   36.0840   25.3210   43.1450 H   0  0  0  0  0  0  0  0  0  0  0  0
   38.9680   24.6040   42.0430 H   0  0  0  0  0  0  0  0  0  0  0  0
   37.7020   23.3290   42.6270 H   0  0  0  0  0  0  0  0  0  0  0  0
   35.9970   24.0430   41.0330 H   0  0  0  0  0  0  0  0  0  0  0  0
   37.4270   25.2470   39.8970 C   0  0  0  0  0  3  0  0  0  0  0  0
   37.1140   25.8390   38.7510 C   0  0  0  0  0  3  0  0  0  0  0  0
   35.8230   26.3220   38.2230 C   0  0  0  0  0  2  0  0  0  0  0  0
   35.3290   26.9870   38.9910 H   0  0  0  0  0  0  0  0  0  0  0  0
   36.1300   30.0660   41.4170 C   0  0  0  0  0  0  0  0  0  0  0  0
   35.3650   29.6300   40.7430 H   0  0  0  0  0  0  0  0  0  0  0  0
   35.5220   30.5090   42.2610 H   0  0  0  0  0  0  0  0  0  0  0  0
   36.8690   31.1470   40.7370 C   0  0  0  0  0  0  0  0  0  0  0  0
   37.9230   31.2840   41.0870 H   0  0  0  0  0  0  0  0  0  0  0  0
   36.3940   32.1390   40.9220 H   0  0  0  0  0  0  0  0  0  0  0  0
   38.8390   32.8770   39.3380 Cl  0  0  0  0  0  0  0  0  0  0  0  0
   37.8730   31.7010   38.5060 C   0  0  0  0  0  0  0  0  0  0  0  0
   36.9900   30.9540   39.2560 C   0  0  0  0  0  0  0  0  0  0  0  0
   36.2180   30.0170   38.6060 C   0  0  0  0  0  0  0  0  0  0  0  0
   36.3220   29.8280   37.2390 C   0  0  0  0  0  0  0  0  0  0  0  0
   37.2250   30.5940   36.4880 C   0  0  0  0  0  0  0  0  0  0  0  0
   37.9950   31.5330   37.1550 C   0  0  0  0  0  0  0  0  0  0  0  0
   35.5060   29.3980   39.1440 H   0  0  0  0  0  0  0  0  0  0  0  0
   35.7190   29.0930   36.7150 H   0  0  0  0  0  0  0  0  0  0  0  0
   37.3220   30.4610   35.4180 H   0  0  0  0  0  0  0  0  0  0  0  0
   38.9220   32.3460   36.4890 O   0  0  0  0  0  0  0  0  0  0  0  0
   39.3190   31.9230   35.6530 H   0  0  0  0  0  0  0  0  0  0  0  0
  1  6  2  0  0  0  0
  1  2  1  0  0  0  0
  2  3  2  0  0  0  0
  3  4  1  0  0  0  0
  3  8  1  0  0  0  0
  5  4  2  0  0  0  0
  6  5  1  0  0  0  0
  7  2  1  0  0  0  0
  9  5  1  0  0  0  0
  9 12  1  1  0  0  0
 10  9  1  0  0  0  0
 10 14  1  0  0  0  0
 11 15  1  6  0  0  0
 11 10  1  0  0  0  0
 11  9  1  0  0  0  0
 13 10  1  0  0  0  0
 16 11  1  0  0  0  0
 17 16  2  0  0  0  0
 18 17  1  0  0  0  0
 18 19  1  0  0  0  0
 20  1  1  0  0  0  0
 20 22  1  0  0  0  0
 21 20  1  0  0  0  0
 23 25  1  0  0  0  0
 23 24  1  0  0  0  0
 23 20  1  0  0  0  0
 27 28  1  0  0  0  0
 27 26  1  0  0  0  0
 28 23  1  0  0  0  0
 29 33  1  0  0  0  0
 29 28  2  0  0  0  0
 30 29  1  0  0  0  0
 31 32  1  0  0  0  0
 31 30  2  0  0  0  0
 32 27  2  0  0  0  0
 34 30  1  0  0  0  0
 35 31  1  0  0  0  0
 36 32  1  0  0  0  0
 37 36  1  0  0  0  0
M  END
>  <minimizedAffinity>
-5.85212421

$$$$

 OpenBabel03242519183D

 37 39  0  0  1  0  0  0  0  0999 V2000
   36.7000   26.5700   39.6370 C   0  0  0  0  0  0  0  0  0  0  0  0
   36.6320   25.2010   39.6890 C   0  0  0  0  0  0  0  0  0  0  0  0
   36.7240   24.4850   40.8920 C   0  0  0  0  0  0  0  0  0  0  0  0
   36.8850   25.2450   42.0060 N   0  0  0  0  0  0  0  0  0  0  0  0
   36.9490   26.5820   41.9430 C   0  0  0  0  0  0  0  0  0  0  0  0
   36.8580   27.2210   40.7820 N   0  0  0  0  0  0  0  0  0  0  0  0
   36.5020   24.6460   38.7490 H   0  0  0  0  0  0  0  0  0  0  0  0
   36.6710   23.4080   40.9150 H   0  0  0  0  0  0  0  0  0  0  0  0
   37.1070   27.4220   43.1710 C   0  0  2  0  0  0  0  0  0  0  0  0
   37.7060   28.7900   43.0390 C   0  0  0  0  0  0  0  0  0  0  0  0
   38.4800   27.6250   43.6790 C   0  0  2  0  0  0  0  0  0  0  0  0
   36.3370   27.1770   43.9460 H   0  0  0  0  0  0  0  0  0  0  0  0
   37.9480   29.1140   42.0220 H   0  0  0  0  0  0  0  0  0  0  0  0
   37.4060   29.5600   43.7760 H   0  0  0  0  0  0  0  0  0  0  0  0
   38.5970   27.6920   44.8000 H   0  0  0  0  0  0  0  0  0  0  0  0
   39.7130   27.2730   42.9660 C   0  0  0  0  0  3  0  0  0  0  0  0
   40.4970   26.2530   42.6400 C   0  0  0  0  0  3  0  0  0  0  0  0
   40.3940   24.8100   42.9340 C   0  0  0  0  0  2  0  0  0  0  0  0
   39.3680   24.4400   42.6400 H   0  0  0  0  0  0  0  0  0  0  0  0
   36.5990   27.2970   38.3840 C   0  0  0  0  0  0  0  0  0  0  0  0
   37.5860   27.6580   38.0300 H   0  0  0  0  0  0  0  0  0  0  0  0
   36.2580   26.5990   37.5630 H   0  0  0  0  0  0  0  0  0  0  0  0
   35.6430   28.4150   38.4930 C   0  0  0  0  0  0  0  0  0  0  0  0
   34.9600   28.3610   39.3790 H   0  0  0  0  0  0  0  0  0  0  0  0
   34.9480   28.4390   37.6210 H   0  0  0  0  0  0  0  0  0  0  0  0
   36.8470   29.5120   36.0080 Cl  0  0  0  0  0  0  0  0  0  0  0  0
   36.8880   30.3630   37.5200 C   0  0  0  0  0  0  0  0  0  0  0  0
   36.2980   29.7580   38.6090 C   0  0  0  0  0  0  0  0  0  0  0  0
   36.3240   30.4240   39.8140 C   0  0  0  0  0  0  0  0  0  0  0  0
   36.9240   31.6660   39.9320 C   0  0  0  0  0  0  0  0  0  0  0  0
   37.5200   32.2690   38.8170 C   0  0  0  0  0  0  0  0  0  0  0  0
   37.4870   31.5880   37.6100 C   0  0  0  0  0  0  0  0  0  0  0  0
   35.8750   29.9990   40.7060 H   0  0  0  0  0  0  0  0  0  0  0  0
   36.9520   32.2010   40.8760 H   0  0  0  0  0  0  0  0  0  0  0  0
   37.9950   33.2400   38.8880 H   0  0  0  0  0  0  0  0  0  0  0  0
   38.0570   32.1110   36.4430 O   0  0  0  0  0  0  0  0  0  0  0  0
   38.0690   33.1280   36.4060 H   0  0  0  0  0  0  0  0  0  0  0  0
  1  2  2  0  0  0  0
  1  6  1  0  0  0  0
  2  3  1  0  0  0  0
  3  8  1  0  0  0  0
  3  4  2  0  0  0  0
  5  4  1  0  0  0  0
  5  9  1  0  0  0  0
  6  5  2  0  0  0  0
  7  2  1  0  0  0  0
  9 11  1  0  0  0  0
  9 12  1  1  0  0  0
 10  9  1  0  0  0  0
 10 11  1  0  0  0  0
 10 14  1  0  0  0  0
 11 15  1  1  0  0  0
 13 10  1  0  0  0  0
 16 11  1  0  0  0  0
 17 18  1  0  0  0  0
 17 16  2  0  0  0  0
 19 18  1  0  0  0  0
 20 23  1  0  0  0  0
 20  1  1  0  0  0  0
 21 20  1  0  0  0  0
 22 20  1  0  0  0  0
 23 28  1  0  0  0  0
 23 24  1  0  0  0  0
 25 23  1  0  0  0  0
 26 27  1  0  0  0  0
 27 32  2  0  0  0  0
 27 28  1  0  0  0  0
 28 29  2  0  0  0  0
 29 30  1  0  0  0  0
 29 33  1  0  0  0  0
 30 34  1  0  0  0  0
 31 35  1  0  0  0  0
 31 30  2  0  0  0  0
 32 31  1  0  0  0  0
 36 32  1  0  0  0  0
 37 36  1  0  0  0  0
M  END
>  <minimizedAffinity>
-5.81439018

$$$$

 OpenBabel03242519183D

 37 39  0  0  1  0  0  0  0  0999 V2000
   38.2090   28.3730   40.2760 C   0  0  0  0  0  0  0  0  0  0  0  0
   36.8480   28.4220   40.4420 C   0  0  0  0  0  0  0  0  0  0  0  0
   36.2240   28.1100   41.6580 C   0  0  0  0  0  0  0  0  0  0  0  0
   37.0640   27.7540   42.6640 N   0  0  0  0  0  0  0  0  0  0  0  0
   38.3920   27.7100   42.4910 C   0  0  0  0  0  0  0  0  0  0  0  0
   38.9420   28.0140   41.3210 N   0  0  0  0  0  0  0  0  0  0  0  0
   36.2260   28.7180   39.5850 H   0  0  0  0  0  0  0  0  0  0  0  0
   35.1520   28.1520   41.7710 H   0  0  0  0  0  0  0  0  0  0  0  0
   39.3200   27.3370   43.6030 C   0  0  2  0  0  0  0  0  0  0  0  0
   40.7520   27.0360   43.2800 C   0  0  0  0  0  0  0  0  0  0  0  0
   39.7600   25.9290   43.6740 C   0  0  2  0  0  0  0  0  0  0  0  0
   39.0090   27.7950   44.5770 H   0  0  0  0  0  0  0  0  0  0  0  0
   41.0460   27.1600   42.2330 H   0  0  0  0  0  0  0  0  0  0  0  0
   41.5120   27.2270   44.0620 H   0  0  0  0  0  0  0  0  0  0  0  0
   39.9130   25.4990   44.7070 H   0  0  0  0  0  0  0  0  0  0  0  0
   39.5560   24.9200   42.6280 C   0  0  0  0  0  3  0  0  0  0  0  0
   38.6200   24.2610   41.9560 C   0  0  0  0  0  3  0  0  0  0  0  0
   37.1460   24.3140   42.0290 C   0  0  0  0  0  2  0  0  0  0  0  0
   36.8050   25.3880   41.9440 H   0  0  0  0  0  0  0  0  0  0  0  0
   38.8410   28.7030   39.0100 C   0  0  0  0  0  0  0  0  0  0  0  0
   39.4230   27.8520   38.5990 H   0  0  0  0  0  0  0  0  0  0  0  0
   38.0500   28.8910   38.2250 H   0  0  0  0  0  0  0  0  0  0  0  0
   39.6900   29.9030   39.1370 C   0  0  0  0  0  0  0  0  0  0  0  0
   40.3410   30.1100   38.2500 H   0  0  0  0  0  0  0  0  0  0  0  0
   40.4100   29.8010   39.9810 H   0  0  0  0  0  0  0  0  0  0  0  0
   40.4780   31.5890   41.4530 Cl  0  0  0  0  0  0  0  0  0  0  0  0
   39.1940   32.0280   40.3730 C   0  0  0  0  0  0  0  0  0  0  0  0
   38.9130   31.1700   39.3320 C   0  0  0  0  0  0  0  0  0  0  0  0
   37.8960   31.5090   38.4670 C   0  0  0  0  0  0  0  0  0  0  0  0
   37.1730   32.6770   38.6360 C   0  0  0  0  0  0  0  0  0  0  0  0
   37.4690   33.5420   39.6990 C   0  0  0  0  0  0  0  0  0  0  0  0
   38.4950   33.1880   40.5620 C   0  0  0  0  0  0  0  0  0  0  0  0
   37.6300   30.8730   37.6280 H   0  0  0  0  0  0  0  0  0  0  0  0
   36.3690   32.9560   37.9620 H   0  0  0  0  0  0  0  0  0  0  0  0
   36.9160   34.4610   39.8490 H   0  0  0  0  0  0  0  0  0  0  0  0
   38.8610   33.9880   41.6520 O   0  0  0  0  0  0  0  0  0  0  0  0
   38.6850   34.9810   41.5160 H   0  0  0  0  0  0  0  0  0  0  0  0
  1  2  2  0  0  0  0
  1  6  1  0  0  0  0
  2  3  1  0  0  0  0
  3  8  1  0  0  0  0
  3  4  2  0  0  0  0
  5  4  1  0  0  0  0
  5  9  1  0  0  0  0
  6  5  2  0  0  0  0
  7  2  1  0  0  0  0
  9 11  1  0  0  0  0
  9 12  1  1  0  0  0
 10  9  1  0  0  0  0
 10 11  1  0  0  0  0
 10 14  1  0  0  0  0
 11 15  1  1  0  0  0
 13 10  1  0  0  0  0
 16 11  1  0  0  0  0
 17 18  1  0  0  0  0
 17 16  2  0  0  0  0
 19 18  1  0  0  0  0
 20 23  1  0  0  0  0
 20  1  1  0  0  0  0
 21 20  1  0  0  0  0
 22 20  1  0  0  0  0
 23 28  1  0  0  0  0
 23 25  1  0  0  0  0
 24 23  1  0  0  0  0
 27 32  1  0  0  0  0
 27 26  1  0  0  0  0
 28 27  2  0  0  0  0
 29 30  2  0  0  0  0
 29 28  1  0  0  0  0
 30 31  1  0  0  0  0
 31 35  1  0  0  0  0
 31 32  2  0  0  0  0
 32 36  1  0  0  0  0
 33 29  1  0  0  0  0
 34 30  1  0  0  0  0
 37 36  1  0  0  0  0
M  END
>  <minimizedAffinity>
-5.62860155

$$$$

 OpenBabel03242519183D

 37 39  0  0  1  0  0  0  0  0999 V2000
   36.7700   27.1340   37.5360 C   0  0  0  0  0  0  0  0  0  0  0  0
   35.6100   26.4800   37.2050 C   0  0  0  0  0  0  0  0  0  0  0  0
   35.1860   25.3150   37.8590 C   0  0  0  0  0  0  0  0  0  0  0  0
   36.0070   24.8760   38.8480 N   0  0  0  0  0  0  0  0  0  0  0  0
   37.1380   25.5220   39.1630 C   0  0  0  0  0  0  0  0  0  0  0  0
   37.5030   26.6240   38.5170 N   0  0  0  0  0  0  0  0  0  0  0  0
   34.9910   26.8900   36.3930 H   0  0  0  0  0  0  0  0  0  0  0  0
   34.2720   24.8120   37.5850 H   0  0  0  0  0  0  0  0  0  0  0  0
   38.0340   25.0510   40.2640 C   0  0  2  0  0  0  0  0  0  0  0  0
   37.4320   24.3100   41.4200 C   0  0  0  0  0  0  0  0  0  0  0  0
   37.9410   25.7540   41.5600 C   0  0  2  0  0  0  0  0  0  0  0  0
   39.0730   24.8480   39.8990 H   0  0  0  0  0  0  0  0  0  0  0  0
   36.3570   24.1120   41.3580 H   0  0  0  0  0  0  0  0  0  0  0  0
   38.0680   23.5780   41.9550 H   0  0  0  0  0  0  0  0  0  0  0  0
   38.9010   25.8640   42.1440 H   0  0  0  0  0  0  0  0  0  0  0  0
   36.8970   26.7140   41.9350 C   0  0  0  0  0  3  0  0  0  0  0  0
   36.6500   27.7700   42.7000 C   0  0  0  0  0  3  0  0  0  0  0  0
   37.5080   28.5140   43.6430 C   0  0  0  0  0  2  0  0  0  0  0  0
   38.4720   28.8000   43.1260 H   0  0  0  0  0  0  0  0  0  0  0  0
   37.1930   28.3430   36.8520 C   0  0  0  0  0  0  0  0  0  0  0  0
   38.2160   28.6550   37.1480 H   0  0  0  0  0  0  0  0  0  0  0  0
   37.2850   28.1430   35.7430 H   0  0  0  0  0  0  0  0  0  0  0  0
   36.2300   29.4390   37.0640 C   0  0  0  0  0  0  0  0  0  0  0  0
   35.1920   29.1060   37.3190 H   0  0  0  0  0  0  0  0  0  0  0  0
   36.0970   30.0450   36.1380 H   0  0  0  0  0  0  0  0  0  0  0  0
   34.7770   29.0740   39.6310 Cl  0  0  0  0  0  0  0  0  0  0  0  0
   36.0000   30.2850   39.4150 C   0  0  0  0  0  0  0  0  0  0  0  0
   36.6090   30.3650   38.1810 C   0  0  0  0  0  0  0  0  0  0  0  0
   37.5830   31.3220   37.9980 C   0  0  0  0  0  0  0  0  0  0  0  0
   37.9430   32.1800   39.0220 C   0  0  0  0  0  0  0  0  0  0  0  0
   37.3160   32.0880   40.2720 C   0  0  0  0  0  0  0  0  0  0  0  0
   36.3380   31.1210   40.4420 C   0  0  0  0  0  0  0  0  0  0  0  0
   38.0980   31.4310   37.0480 H   0  0  0  0  0  0  0  0  0  0  0  0
   38.7080   32.9390   38.8900 H   0  0  0  0  0  0  0  0  0  0  0  0
   37.5840   32.7500   41.0860 H   0  0  0  0  0  0  0  0  0  0  0  0
   35.6570   30.9550   41.6550 O   0  0  0  0  0  0  0  0  0  0  0  0
   36.1970   31.2240   42.4750 H   0  0  0  0  0  0  0  0  0  0  0  0
  1  6  1  0  0  0  0
  2  1  2  0  0  0  0
  2  3  1  0  0  0  0
  3  4  2  0  0  0  0
  4  5  1  0  0  0  0
  5  9  1  0  0  0  0
  6  5  2  0  0  0  0
  7  2  1  0  0  0  0
  8  3  1  0  0  0  0
  9 12  1  6  0  0  0
  9 10  1  0  0  0  0
  9 11  1  0  0  0  0
 10 11  1  0  0  0  0
 10 14  1  0  0  0  0
 11 16  1  0  0  0  0
 11 15  1  1  0  0  0
 13 10  1  0  0  0  0
 16 17  2  0  0  0  0
 17 18  1  0  0  0  0
 19 18  1  0  0  0  0
 20 23  1  0  0  0  0
 20 21  1  0  0  0  0
 20  1  1  0  0  0  0
 22 20  1  0  0  0  0
 23 24  1  0  0  0  0
 23 28  1  0  0  0  0
 25 23  1  0  0  0  0
 27 26  1  0  0  0  0
 27 32  1  0  0  0  0
 28 27  2  0  0  0  0
 29 28  1  0  0  0  0
 29 30  2  0  0  0  0
 30 31  1  0  0  0  0
 31 32  2  0  0  0  0
 31 35  1  0  0  0  0
 32 36  1  0  0  0  0
 33 29  1  0  0  0  0
 34 30  1  0  0  0  0
 36 37  1  0  0  0  0
M  END
>  <minimizedAffinity>
-5.57937574

$$$$

 OpenBabel03242519183D

 37 39  0  0  1  0  0  0  0  0999 V2000
   37.0100   27.2130   39.3070 C   0  0  0  0  0  0  0  0  0  0  0  0
   38.2240   26.8840   38.7590 C   0  0  0  0  0  0  0  0  0  0  0  0
   39.3120   26.4590   39.5350 C   0  0  0  0  0  0  0  0  0  0  0  0
   39.0800   26.3950   40.8710 N   0  0  0  0  0  0  0  0  0  0  0  0
   37.8890   26.7180   41.3950 C   0  0  0  0  0  0  0  0  0  0  0  0
   36.8840   27.1170   40.6240 N   0  0  0  0  0  0  0  0  0  0  0  0
   38.3450   26.9590   37.6690 H   0  0  0  0  0  0  0  0  0  0  0  0
   40.2610   26.2060   39.0890 H   0  0  0  0  0  0  0  0  0  0  0  0
   37.6250   26.6310   42.8650 C   0  0  2  0  0  0  0  0  0  0  0  0
   36.4690   27.3940   43.4380 C   0  0  0  0  0  0  0  0  0  0  0  0
   37.9250   27.8260   43.6790 C   0  0  2  0  0  0  0  0  0  0  0  0
   37.9710   25.6560   43.2930 H   0  0  0  0  0  0  0  0  0  0  0  0
   35.8480   27.9390   42.7210 H   0  0  0  0  0  0  0  0  0  0  0  0
   35.9860   26.9950   44.3510 H   0  0  0  0  0  0  0  0  0  0  0  0
   38.3090   27.6410   44.7250 H   0  0  0  0  0  0  0  0  0  0  0  0
   38.2400   29.1590   43.1510 C   0  0  0  0  0  3  0  0  0  0  0  0
   39.1930   29.8690   42.5610 C   0  0  0  0  0  3  0  0  0  0  0  0
   40.5590   29.5070   42.1350 C   0  0  0  0  0  2  0  0  0  0  0  0
   40.5180   28.5710   41.5030 H   0  0  0  0  0  0  0  0  0  0  0  0
   35.8910   27.6480   38.4890 C   0  0  0  0  0  0  0  0  0  0  0  0
   36.1580   27.7100   37.4140 H   0  0  0  0  0  0  0  0  0  0  0  0
   35.0710   26.8710   38.5170 H   0  0  0  0  0  0  0  0  0  0  0  0
   35.3520   28.9350   38.9680 C   0  0  0  0  0  0  0  0  0  0  0  0
   35.1400   28.9730   40.0660 H   0  0  0  0  0  0  0  0  0  0  0  0
   34.3670   29.1600   38.4970 H   0  0  0  0  0  0  0  0  0  0  0  0
   35.8770   30.7090   41.2940 Cl  0  0  0  0  0  0  0  0  0  0  0  0
   36.5800   30.9850   39.7320 C   0  0  0  0  0  0  0  0  0  0  0  0
   36.2660   30.0980   38.7250 C   0  0  0  0  0  0  0  0  0  0  0  0
   36.8190   30.3070   37.4800 C   0  0  0  0  0  0  0  0  0  0  0  0
   37.6650   31.3760   37.2440 C   0  0  0  0  0  0  0  0  0  0  0  0
   37.9760   32.2700   38.2780 C   0  0  0  0  0  0  0  0  0  0  0  0
   37.4130   32.0480   39.5240 C   0  0  0  0  0  0  0  0  0  0  0  0
   36.6090   29.6410   36.6480 H   0  0  0  0  0  0  0  0  0  0  0  0
   38.1070   31.5510   36.2680 H   0  0  0  0  0  0  0  0  0  0  0  0
   38.6370   33.1120   38.1130 H   0  0  0  0  0  0  0  0  0  0  0  0
   37.6650   32.8890   40.6160 O   0  0  0  0  0  0  0  0  0  0  0  0
   38.5740   33.3460   40.5880 H   0  0  0  0  0  0  0  0  0  0  0  0
  1  6  1  0  0  0  0
  2  1  2  0  0  0  0
  2  3  1  0  0  0  0
  3  4  2  0  0  0  0
  4  5  1  0  0  0  0
  5  9  1  0  0  0  0
  6  5  2  0  0  0  0
  7  2  1  0  0  0  0
  8  3  1  0  0  0  0
  9 12  1  1  0  0  0
  9 10  1  0  0  0  0
  9 11  1  0  0  0  0
 10 11  1  0  0  0  0
 10 14  1  0  0  0  0
 11 15  1  1  0  0  0
 13 10  1  0  0  0  0
 16 11  1  0  0  0  0
 17 16  2  0  0  0  0
 18 17  1  0  0  0  0
 19 18  1  0  0  0  0
 20 22  1  0  0  0  0
 20 23  1  0  0  0  0
 20  1  1  0  0  0  0
 21 20  1  0  0  0  0
 23 24  1  0  0  0  0
 25 23  1  0  0  0  0
 27 26  1  0  0  0  0
 28 23  1  0  0  0  0
 28 27  2  0  0  0  0
 29 28  1  0  0  0  0
 30 29  2  0  0  0  0
 30 31  1  0  0  0  0
 31 32  2  0  0  0  0
 32 27  1  0  0  0  0
 32 36  1  0  0  0  0
 33 29  1  0  0  0  0
 34 30  1  0  0  0  0
 35 31  1  0  0  0  0
 37 36  1  0  0  0  0
M  END
>  <minimizedAffinity>
-5.56931543

$$$$

 OpenBabel03242519183D

 37 39  0  0  1  0  0  0  0  0999 V2000
   37.3570   29.2020   39.0790 C   0  0  0  0  0  0  0  0  0  0  0  0
   36.0480   29.5760   38.9050 C   0  0  0  0  0  0  0  0  0  0  0  0
   35.0300   29.1970   39.7920 C   0  0  0  0  0  0  0  0  0  0  0  0
   35.4310   28.4310   40.8390 N   0  0  0  0  0  0  0  0  0  0  0  0
   36.7130   28.0730   41.0000 C   0  0  0  0  0  0  0  0  0  0  0  0
   37.6460   28.4540   40.1360 N   0  0  0  0  0  0  0  0  0  0  0  0
   35.7920   30.1960   38.0340 H   0  0  0  0  0  0  0  0  0  0  0  0
   34.0050   29.4980   39.6390 H   0  0  0  0  0  0  0  0  0  0  0  0
   37.1590   27.2460   42.1630 C   0  0  2  0  0  0  0  0  0  0  0  0
   36.6200   27.5630   43.5260 C   0  0  0  0  0  0  0  0  0  0  0  0
   38.0730   27.8820   43.1350 C   0  0  2  0  0  0  0  0  0  0  0  0
   37.4320   26.2040   41.8550 H   0  0  0  0  0  0  0  0  0  0  0  0
   35.8780   28.3660   43.5750 H   0  0  0  0  0  0  0  0  0  0  0  0
   36.5470   26.7370   44.2600 H   0  0  0  0  0  0  0  0  0  0  0  0
   38.8500   27.2130   43.6090 H   0  0  0  0  0  0  0  0  0  0  0  0
   38.3980   29.3120   43.1870 C   0  0  0  0  0  3  0  0  0  0  0  0
   39.2720   30.2180   42.7670 C   0  0  0  0  0  3  0  0  0  0  0  0
   40.4770   30.0950   41.9240 C   0  0  0  0  0  2  0  0  0  0  0  0
   40.2150   29.5420   40.9740 H   0  0  0  0  0  0  0  0  0  0  0  0
   38.4010   29.6060   38.1540 C   0  0  0  0  0  0  0  0  0  0  0  0
   39.4120   29.3260   38.5150 H   0  0  0  0  0  0  0  0  0  0  0  0
   38.2950   29.0350   37.1840 H   0  0  0  0  0  0  0  0  0  0  0  0
   38.3300   31.0520   37.8700 C   0  0  0  0  0  0  0  0  0  0  0  0
   37.3140   31.5050   38.0020 H   0  0  0  0  0  0  0  0  0  0  0  0
   38.5830   31.2680   36.8070 H   0  0  0  0  0  0  0  0  0  0  0  0
   36.9930   32.6350   40.0010 Cl  0  0  0  0  0  0  0  0  0  0  0  0
   38.7120   32.6530   39.7630 C   0  0  0  0  0  0  0  0  0  0  0  0
   39.2230   31.8800   38.7430 C   0  0  0  0  0  0  0  0  0  0  0  0
   40.5870   31.8860   38.5460 C   0  0  0  0  0  0  0  0  0  0  0  0
   41.4220   32.6460   39.3470 C   0  0  0  0  0  0  0  0  0  0  0  0
   40.8880   33.4270   40.3810 C   0  0  0  0  0  0  0  0  0  0  0  0
   39.5150   33.4120   40.5680 C   0  0  0  0  0  0  0  0  0  0  0  0
   41.0480   31.2970   37.7590 H   0  0  0  0  0  0  0  0  0  0  0  0
   42.4980   32.6590   39.2010 H   0  0  0  0  0  0  0  0  0  0  0  0
   41.5250   34.0270   41.0180 H   0  0  0  0  0  0  0  0  0  0  0  0
   38.8920   34.1600   41.5740 O   0  0  0  0  0  0  0  0  0  0  0  0
   39.4740   34.3220   42.3930 H   0  0  0  0  0  0  0  0  0  0  0  0
  1  6  1  0  0  0  0
  2  1  2  0  0  0  0
  2  3  1  0  0  0  0
  3  4  2  0  0  0  0
  4  5  1  0  0  0  0
  5  9  1  0  0  0  0
  6  5  2  0  0  0  0
  7  2  1  0  0  0  0
  8  3  1  0  0  0  0
  9 12  1  6  0  0  0
  9 11  1  0  0  0  0
  9 10  1  0  0  0  0
 10 13  1  0  0  0  0
 10 14  1  0  0  0  0
 11 16  1  0  0  0  0
 11 10  1  0  0  0  0
 11 15  1  1  0  0  0
 17 16  2  0  0  0  0
 18 17  1  0  0  0  0
 19 18  1  0  0  0  0
 20 21  1  0  0  0  0
 20  1  1  0  0  0  0
 22 20  1  0  0  0  0
 23 24  1  0  0  0  0
 23 20  1  0  0  0  0
 23 28  1  0  0  0  0
 25 23  1  0  0  0  0
 27 26  1  0  0  0  0
 27 32  1  0  0  0  0
 28 27  2  0  0  0  0
 29 28  1  0  0  0  0
 29 30  2  0  0  0  0
 30 31  1  0  0  0  0
 31 32  2  0  0  0  0
 31 35  1  0  0  0  0
 32 36  1  0  0  0  0
 33 29  1  0  0  0  0
 34 30  1  0  0  0  0
 36 37  1  0  0  0  0
M  END
>  <minimizedAffinity>
-5.54716873

$$$$

 OpenBabel03242519183D

 37 39  0  0  1  0  0  0  0  0999 V2000
   34.4410   28.8750   37.5750 C   0  0  0  0  0  0  0  0  0  0  0  0
   35.4820   29.2890   36.7830 C   0  0  0  0  0  0  0  0  0  0  0  0
   36.6830   29.7840   37.3120 C   0  0  0  0  0  0  0  0  0  0  0  0
   36.7430   29.8250   38.6690 N   0  0  0  0  0  0  0  0  0  0  0  0
   35.7200   29.4170   39.4320 C   0  0  0  0  0  0  0  0  0  0  0  0
   34.5990   28.9550   38.8900 N   0  0  0  0  0  0  0  0  0  0  0  0
   35.3660   29.2290   35.6920 H   0  0  0  0  0  0  0  0  0  0  0  0
   37.4910   30.1060   36.6760 H   0  0  0  0  0  0  0  0  0  0  0  0
   35.7920   29.4440   40.9260 C   0  0  2  0  0  0  0  0  0  0  0  0
   37.1370   29.5230   41.5840 C   0  0  0  0  0  0  0  0  0  0  0  0
   36.3010   28.2330   41.6010 C   0  0  2  0  0  0  0  0  0  0  0  0
   34.8760   29.9010   41.3800 H   0  0  0  0  0  0  0  0  0  0  0  0
   37.9970   29.6090   40.9130 H   0  0  0  0  0  0  0  0  0  0  0  0
   37.2000   30.0040   42.5790 H   0  0  0  0  0  0  0  0  0  0  0  0
   35.8380   27.9800   42.5990 H   0  0  0  0  0  0  0  0  0  0  0  0
   36.9520   27.0980   40.9360 C   0  0  0  0  0  3  0  0  0  0  0  0
   37.2260   25.8060   41.0650 C   0  0  0  0  0  3  0  0  0  0  0  0
   36.9110   24.8440   42.1400 C   0  0  0  0  0  2  0  0  0  0  0  0
   35.8050   24.8900   42.3710 H   0  0  0  0  0  0  0  0  0  0  0  0
   33.2050   28.3610   37.0120 C   0  0  0  0  0  0  0  0  0  0  0  0
   33.3370   27.3560   36.5600 H   0  0  0  0  0  0  0  0  0  0  0  0
   32.4510   28.1870   37.8360 H   0  0  0  0  0  0  0  0  0  0  0  0
   32.6350   29.3040   36.0310 C   0  0  0  0  0  0  0  0  0  0  0  0
   32.2090   28.8240   35.1140 H   0  0  0  0  0  0  0  0  0  0  0  0
   33.4160   29.9940   35.6340 H   0  0  0  0  0  0  0  0  0  0  0  0
   31.5620   31.4160   34.2360 Cl  0  0  0  0  0  0  0  0  0  0  0  0
   30.9360   31.1380   35.8290 C   0  0  0  0  0  0  0  0  0  0  0  0
   31.5100   30.1320   36.5750 C   0  0  0  0  0  0  0  0  0  0  0  0
   31.0200   29.9020   37.8420 C   0  0  0  0  0  0  0  0  0  0  0  0
   29.9800   30.6580   38.3550 C   0  0  0  0  0  0  0  0  0  0  0  0
   29.4050   31.6780   37.5850 C   0  0  0  0  0  0  0  0  0  0  0  0
   29.9070   31.8990   36.3130 C   0  0  0  0  0  0  0  0  0  0  0  0
   31.4320   29.1220   38.4760 H   0  0  0  0  0  0  0  0  0  0  0  0
   29.5850   30.4870   39.3510 H   0  0  0  0  0  0  0  0  0  0  0  0
   28.5900   32.2800   37.9680 H   0  0  0  0  0  0  0  0  0  0  0  0
   29.3970   32.8960   35.4720 O   0  0  0  0  0  0  0  0  0  0  0  0
   28.4150   33.1110   35.6310 H   0  0  0  0  0  0  0  0  0  0  0  0
  1  6  1  0  0  0  0
  2  3  1  0  0  0  0
  2  1  2  0  0  0  0
  3  4  2  0  0  0  0
  4  5  1  0  0  0  0
  5  9  1  0  0  0  0
  6  5  2  0  0  0  0
  7  2  1  0  0  0  0
  8  3  1  0  0  0  0
  9 12  1  1  0  0  0
  9 10  1  0  0  0  0
  9 11  1  0  0  0  0
 10 11  1  0  0  0  0
 10 14  1  0  0  0  0
 11 15  1  1  0  0  0
 13 10  1  0  0  0  0
 16 17  2  0  0  0  0
 16 11  1  0  0  0  0
 17 18  1  0  0  0  0
 18 19  1  0  0  0  0
 20  1  1  0  0  0  0
 20 22  1  0  0  0  0
 21 20  1  0  0  0  0
 23 28  1  0  0  0  0
 23 20  1  0  0  0  0
 24 23  1  0  0  0  0
 25 23  1  0  0  0  0
 26 27  1  0  0  0  0
 27 32  2  0  0  0  0
 27 28  1  0  0  0  0
 28 29  2  0  0  0  0
 29 30  1  0  0  0  0
 29 33  1  0  0  0  0
 30 34  1  0  0  0  0
 31 35  1  0  0  0  0
 31 30  2  0  0  0  0
 32 31  1  0  0  0  0
 36 37  1  0  0  0  0
 36 32  1  0  0  0  0
M  END
>  <minimizedAffinity>
-5.49637127

$$$$

 OpenBabel03242519183D

 37 39  0  0  1  0  0  0  0  0999 V2000
   36.7530   28.6130   39.5950 C   0  0  0  0  0  0  0  0  0  0  0  0
   36.7140   28.6500   38.2240 C   0  0  0  0  0  0  0  0  0  0  0  0
   36.8250   29.8440   37.4980 C   0  0  0  0  0  0  0  0  0  0  0  0
   36.9720   30.9660   38.2480 N   0  0  0  0  0  0  0  0  0  0  0  0
   37.0090   30.9180   39.5870 C   0  0  0  0  0  0  0  0  0  0  0  0
   36.9010   29.7650   40.2370 N   0  0  0  0  0  0  0  0  0  0  0  0
   36.5920   27.7040   37.6780 H   0  0  0  0  0  0  0  0  0  0  0  0
   36.7910   29.8560   36.4190 H   0  0  0  0  0  0  0  0  0  0  0  0
   37.1910   32.1500   40.4150 C   0  0  2  0  0  0  0  0  0  0  0  0
   37.5130   33.4430   39.7270 C   0  0  0  0  0  0  0  0  0  0  0  0
   38.5640   32.6790   40.5500 C   0  0  2  0  0  0  0  0  0  0  0  0
   36.5950   32.1080   41.3630 H   0  0  0  0  0  0  0  0  0  0  0  0
   37.5450   33.4120   38.6340 H   0  0  0  0  0  0  0  0  0  0  0  0
   37.1910   34.3840   40.2140 H   0  0  0  0  0  0  0  0  0  0  0  0
   38.8280   33.1520   41.5410 H   0  0  0  0  0  0  0  0  0  0  0  0
   39.7240   32.2430   39.7650 C   0  0  0  0  0  3  0  0  0  0  0  0
   40.5090   31.2020   39.5180 C   0  0  0  0  0  3  0  0  0  0  0  0
   40.5000   29.8250   40.0510 C   0  0  0  0  0  2  0  0  0  0  0  0
   39.4630   29.3880   39.9400 H   0  0  0  0  0  0  0  0  0  0  0  0
   36.6410   27.3670   40.3330 C   0  0  0  0  0  0  0  0  0  0  0  0
   35.7120   26.8150   40.0840 H   0  0  0  0  0  0  0  0  0  0  0  0
   37.4650   26.6600   40.0190 H   0  0  0  0  0  0  0  0  0  0  0  0
   36.7360   27.6000   41.7870 C   0  0  0  0  0  0  0  0  0  0  0  0
   35.9310   27.1110   42.3920 H   0  0  0  0  0  0  0  0  0  0  0  0
   36.6330   28.6830   42.0300 H   0  0  0  0  0  0  0  0  0  0  0  0
   36.9860   24.6560   42.1020 Cl  0  0  0  0  0  0  0  0  0  0  0  0
   38.2370   25.7560   42.5860 C   0  0  0  0  0  0  0  0  0  0  0  0
   38.0130   27.1020   42.3940 C   0  0  0  0  0  0  0  0  0  0  0  0
   39.0000   27.9860   42.7740 C   0  0  0  0  0  0  0  0  0  0  0  0
   40.1840   27.5370   43.3330 C   0  0  0  0  0  0  0  0  0  0  0  0
   40.3990   26.1660   43.5230 C   0  0  0  0  0  0  0  0  0  0  0  0
   39.3980   25.2880   43.1360 C   0  0  0  0  0  0  0  0  0  0  0  0
   38.8810   29.0570   42.6460 H   0  0  0  0  0  0  0  0  0  0  0  0
   40.9690   28.2230   43.6360 H   0  0  0  0  0  0  0  0  0  0  0  0
   41.3180   25.7950   43.9580 H   0  0  0  0  0  0  0  0  0  0  0  0
   39.5220   23.9020   43.2880 O   0  0  0  0  0  0  0  0  0  0  0  0
   40.4820   23.5640   43.2480 H   0  0  0  0  0  0  0  0  0  0  0  0
  1  6  1  0  0  0  0
  1 20  1  0  0  0  0
  2  1  2  0  0  0  0
  3  2  1  0  0  0  0
  3  4  2  0  0  0  0
  4  5  1  0  0  0  0
  5  6  2  0  0  0  0
  5  9  1  0  0  0  0
  7  2  1  0  0  0  0
  8  3  1  0  0  0  0
  9 11  1  0  0  0  0
  9 12  1  1  0  0  0
 10 14  1  0  0  0  0
 10  9  1  0  0  0  0
 10 11  1  0  0  0  0
 11 15  1  1  0  0  0
 13 10  1  0  0  0  0
 16 11  1  0  0  0  0
 17 16  2  0  0  0  0
 17 18  1  0  0  0  0
 19 18  1  0  0  0  0
 20 23  1  0  0  0  0
 21 20  1  0  0  0  0
 22 20  1  0  0  0  0
 23 25  1  0  0  0  0
 23 24  1  0  0  0  0
 23 28  1  0  0  0  0
 26 27  1  0  0  0  0
 27 32  1  0  0  0  0
 28 27  2  0  0  0  0
 28 29  1  0  0  0  0
 29 30  2  0  0  0  0
 30 31  1  0  0  0  0
 30 34  1  0  0  0  0
 31 35  1  0  0  0  0
 32 36  1  0  0  0  0
 32 31  2  0  0  0  0
 33 29  1  0  0  0  0
 37 36  1  0  0  0  0
M  END
>  <minimizedAffinity>
-5.48258781

$$$$

 OpenBabel03242519183D

 37 39  0  0  1  0  0  0  0  0999 V2000
   36.3950   28.5600   39.6290 C   0  0  0  0  0  0  0  0  0  0  0  0
   36.5110   27.4030   38.9010 C   0  0  0  0  0  0  0  0  0  0  0  0
   36.7960   26.1640   39.4940 C   0  0  0  0  0  0  0  0  0  0  0  0
   36.9490   26.1900   40.8430 N   0  0  0  0  0  0  0  0  0  0  0  0
   36.8330   27.3270   41.5430 C   0  0  0  0  0  0  0  0  0  0  0  0
   36.5620   28.4800   40.9420 N   0  0  0  0  0  0  0  0  0  0  0  0
   36.3750   27.4530   37.8110 H   0  0  0  0  0  0  0  0  0  0  0  0
   36.8850   25.2630   38.9070 H   0  0  0  0  0  0  0  0  0  0  0  0
   36.9830   27.3540   43.0310 C   0  0  2  0  0  0  0  0  0  0  0  0
   37.5320   28.5890   43.6800 C   0  0  0  0  0  0  0  0  0  0  0  0
   38.3560   27.2960   43.5740 C   0  0  2  0  0  0  0  0  0  0  0  0
   36.2350   26.6930   43.5380 H   0  0  0  0  0  0  0  0  0  0  0  0
   37.7450   29.4300   43.0130 H   0  0  0  0  0  0  0  0  0  0  0  0
   37.2190   28.8130   44.7180 H   0  0  0  0  0  0  0  0  0  0  0  0
   38.4910   26.7370   44.5460 H   0  0  0  0  0  0  0  0  0  0  0  0
   39.5880   27.4430   42.7910 C   0  0  0  0  0  3  0  0  0  0  0  0
   40.4270   26.7890   41.9980 C   0  0  0  0  0  3  0  0  0  0  0  0
   40.4280   25.3930   41.5170 C   0  0  0  0  0  2  0  0  0  0  0  0
   39.4200   25.1520   41.0670 H   0  0  0  0  0  0  0  0  0  0  0  0
   36.0950   29.8350   39.0010 C   0  0  0  0  0  0  0  0  0  0  0  0
   35.3020   29.7460   38.2300 H   0  0  0  0  0  0  0  0  0  0  0  0
   35.6510   30.5420   39.7620 H   0  0  0  0  0  0  0  0  0  0  0  0
   37.3120   30.4450   38.4300 C   0  0  0  0  0  0  0  0  0  0  0  0
   37.1970   30.8240   37.3830 H   0  0  0  0  0  0  0  0  0  0  0  0
   38.1400   29.7030   38.3580 H   0  0  0  0  0  0  0  0  0  0  0  0
   39.6680   29.9830   40.1810 Cl  0  0  0  0  0  0  0  0  0  0  0  0
   38.8960   31.5300   40.0450 C   0  0  0  0  0  0  0  0  0  0  0  0
   37.8090   31.6290   39.2030 C   0  0  0  0  0  0  0  0  0  0  0  0
   37.1880   32.8540   39.0860 C   0  0  0  0  0  0  0  0  0  0  0  0
   37.6400   33.9550   39.7930 C   0  0  0  0  0  0  0  0  0  0  0  0
   38.7460   33.8400   40.6450 C   0  0  0  0  0  0  0  0  0  0  0  0
   39.3620   32.6030   40.7530 C   0  0  0  0  0  0  0  0  0  0  0  0
   36.3280   32.9930   38.4380 H   0  0  0  0  0  0  0  0  0  0  0  0
   37.1590   34.9240   39.7090 H   0  0  0  0  0  0  0  0  0  0  0  0
   39.1160   34.6890   41.2060 H   0  0  0  0  0  0  0  0  0  0  0  0
   40.4720   32.3920   41.5800 O   0  0  0  0  0  0  0  0  0  0  0  0
   41.0530   33.2170   41.7140 H   0  0  0  0  0  0  0  0  0  0  0  0
  1  6  1  0  0  0  0
  2  3  1  0  0  0  0
  2  1  2  0  0  0  0
  3  4  2  0  0  0  0
  4  5  1  0  0  0  0
  5  9  1  0  0  0  0
  6  5  2  0  0  0  0
  7  2  1  0  0  0  0
  8  3  1  0  0  0  0
  9 12  1  1  0  0  0
  9 11  1  0  0  0  0
  9 10  1  0  0  0  0
 10 14  1  0  0  0  0
 11 10  1  0  0  0  0
 11 15  1  1  0  0  0
 13 10  1  0  0  0  0
 16 11  1  0  0  0  0
 17 16  2  0  0  0  0
 18 17  1  0  0  0  0
 19 18  1  0  0  0  0
 20  1  1  0  0  0  0
 20 22  1  0  0  0  0
 21 20  1  0  0  0  0
 23 20  1  0  0  0  0
 23 28  1  0  0  0  0
 24 23  1  0  0  0  0
 25 23  1  0  0  0  0
 27 26  1  0  0  0  0
 27 32  1  0  0  0  0
 28 27  2  0  0  0  0
 29 28  1  0  0  0  0
 29 30  2  0  0  0  0
 30 31  1  0  0  0  0
 31 32  2  0  0  0  0
 31 35  1  0  0  0  0
 32 36  1  0  0  0  0
 33 29  1  0  0  0  0
 34 30  1  0  0  0  0
 36 37  1  0  0  0  0
M  END
>  <minimizedAffinity>
-5.47174978

$$$$
