
 OpenBabel03242513513D

 29 30  0  0  1  0  0  0  0  0999 V2000
   38.0890   26.8910   42.2280 C   0  0  2  0  0  0  0  0  0  0  0  0
   36.9020   27.1320   43.1420 C   0  0  0  0  0  0  0  0  0  0  0  0
   37.3030   28.4940   43.6800 C   0  0  0  0  0  0  0  0  0  0  0  0
   37.8930   29.1910   42.5320 C   0  0  0  0  0  0  0  0  0  0  0  0
   38.0730   28.1070   41.3590 C   0  0  2  0  0  0  0  0  0  0  0  0
   39.0010   26.8970   42.8270 H   0  0  0  0  0  0  0  0  0  0  0  0
   36.7960   26.3890   43.9320 H   0  0  0  0  0  0  0  0  0  0  0  0
   35.9630   27.2950   42.5590 H   0  0  0  0  0  0  0  0  0  0  0  0
   36.4550   29.0080   44.1690 H   0  0  0  0  0  0  0  0  0  0  0  0
   38.1220   28.2730   44.4220 H   0  0  0  0  0  0  0  0  0  0  0  0
   37.1780   29.9030   42.0920 H   0  0  0  0  0  0  0  0  0  0  0  0
   38.8720   29.6670   42.7310 H   0  0  0  0  0  0  0  0  0  0  0  0
   38.9110   28.5940   40.9500 H   0  0  0  0  0  0  0  0  0  0  0  0
   37.0090   23.6070   40.7420 C   0  0  0  0  0  0  0  0  0  0  0  0
   36.9740   24.7420   41.5720 C   0  0  0  0  0  0  0  0  0  0  0  0
   37.9870   25.6460   41.4330 C   0  0  0  0  0  0  0  0  0  0  0  0
   38.9700   25.3860   40.4910 N   0  0  0  0  0  0  0  0  0  0  0  0
   38.9770   24.2990   39.7160 C   0  0  0  0  0  0  0  0  0  0  0  0
   38.0030   23.4130   39.8380 N   0  0  0  0  0  0  0  0  0  0  0  0
   36.2150   22.8910   40.8460 H   0  0  0  0  0  0  0  0  0  0  0  0
   36.1980   24.9030   42.2830 H   0  0  0  0  0  0  0  0  0  0  0  0
   39.8130   24.2430   39.0310 H   0  0  0  0  0  0  0  0  0  0  0  0
   36.9090   28.2040   40.5910 O   0  0  0  0  0  0  0  0  0  0  0  0
   36.3060   29.3430   40.1480 C   0  0  0  0  0  0  0  0  0  0  0  0
   35.0570   29.2450   40.4350 O   0  0  0  0  0  0  0  0  0  0  0  0
   36.4040   30.6520   39.4840 C   0  0  0  0  0  3  0  0  0  0  0  0
   37.0280   31.7650   39.8310 C   0  0  0  0  0  3  0  0  0  0  0  0
   37.3640   33.1660   39.5110 C   0  0  0  0  0  2  0  0  0  0  0  0
   36.9370   33.8540   40.2700 H   0  0  0  0  0  0  0  0  0  0  0  0
  1  6  1  1  0  0  0
  1  2  1  0  0  0  0
  2  3  1  0  0  0  0
  2  7  1  0  0  0  0
  3  9  1  0  0  0  0
  3 10  1  0  0  0  0
  4 12  1  0  0  0  0
  4  3  1  0  0  0  0
  5 13  1  6  0  0  0
  5  1  1  0  0  0  0
  5  4  1  0  0  0  0
  8  2  1  0  0  0  0
 11  4  1  0  0  0  0
 14 20  1  0  0  0  0
 14 15  1  0  0  0  0
 15 21  1  0  0  0  0
 16 15  2  0  0  0  0
 16  1  1  0  0  0  0
 17 16  1  0  0  0  0
 18 19  1  0  0  0  0
 18 17  2  0  0  0  0
 19 14  2  0  0  0  0
 22 18  1  0  0  0  0
 23  5  1  0  0  0  0
 24 25  2  0  0  0  0
 24 23  1  0  0  0  0
 26 27  2  0  0  0  0
 26 24  1  0  0  0  0
 28 27  1  0  0  0  0
 28 29  1  0  0  0  0
M  END
>  <minimizedAffinity>
-4.57822895

$$$$

 OpenBabel03242513513D

 29 30  0  0  1  0  0  0  0  0999 V2000
   37.1890   30.2610   39.7550 C   0  0  2  0  0  0  0  0  0  0  0  0
   35.9340   30.3710   40.6020 C   0  0  0  0  0  0  0  0  0  0  0  0
   35.4510   28.9370   40.4780 C   0  0  0  0  0  0  0  0  0  0  0  0
   36.6710   28.1250   40.5240 C   0  0  0  0  0  0  0  0  0  0  0  0
   37.9170   29.1340   40.4120 C   0  0  2  0  0  0  0  0  0  0  0  0
   36.9060   29.9580   38.7450 H   0  0  0  0  0  0  0  0  0  0  0  0
   35.2070   31.0880   40.2210 H   0  0  0  0  0  0  0  0  0  0  0  0
   36.1800   30.5210   41.6800 H   0  0  0  0  0  0  0  0  0  0  0  0
   34.6840   28.6950   41.2380 H   0  0  0  0  0  0  0  0  0  0  0  0
   35.0200   28.8750   39.4380 H   0  0  0  0  0  0  0  0  0  0  0  0
   36.8120   27.6800   41.5220 H   0  0  0  0  0  0  0  0  0  0  0  0
   36.7540   27.3660   39.7240 H   0  0  0  0  0  0  0  0  0  0  0  0
   38.5310   28.4250   39.9370 H   0  0  0  0  0  0  0  0  0  0  0  0
   38.4670   33.7770   40.1560 C   0  0  0  0  0  0  0  0  0  0  0  0
   37.5820   32.6880   40.2520 C   0  0  0  0  0  0  0  0  0  0  0  0
   38.0000   31.4990   39.7280 C   0  0  0  0  0  0  0  0  0  0  0  0
   39.2570   31.4470   39.1450 N   0  0  0  0  0  0  0  0  0  0  0  0
   40.0760   32.4990   39.0690 C   0  0  0  0  0  0  0  0  0  0  0  0
   39.6860   33.6590   39.5710 N   0  0  0  0  0  0  0  0  0  0  0  0
   38.1450   34.7170   40.5650 H   0  0  0  0  0  0  0  0  0  0  0  0
   36.6250   32.7710   40.7090 H   0  0  0  0  0  0  0  0  0  0  0  0
   41.0220   32.2950   38.5840 H   0  0  0  0  0  0  0  0  0  0  0  0
   38.2730   29.4220   41.7340 O   0  0  0  0  0  0  0  0  0  0  0  0
   38.3910   28.5390   42.7660 C   0  0  0  0  0  0  0  0  0  0  0  0
   37.5680   28.9150   43.6790 O   0  0  0  0  0  0  0  0  0  0  0  0
   39.0240   27.3450   43.3450 C   0  0  0  0  0  3  0  0  0  0  0  0
   39.1810   26.1200   42.8710 C   0  0  0  0  0  3  0  0  0  0  0  0
   39.6940   24.7520   43.0760 C   0  0  0  0  0  2  0  0  0  0  0  0
   38.8610   24.0180   43.0870 H   0  0  0  0  0  0  0  0  0  0  0  0
  1  6  1  6  0  0  0
  1  5  1  0  0  0  0
  1  2  1  0  0  0  0
  2  8  1  0  0  0  0
  3  4  1  0  0  0  0
  3  2  1  0  0  0  0
  3  9  1  0  0  0  0
  4 11  1  0  0  0  0
  5 13  1  6  0  0  0
  5  4  1  0  0  0  0
  5 23  1  0  0  0  0
  7  2  1  0  0  0  0
 10  3  1  0  0  0  0
 12  4  1  0  0  0  0
 14 15  1  0  0  0  0
 14 20  1  0  0  0  0
 15 21  1  0  0  0  0
 16  1  1  0  0  0  0
 16 15  2  0  0  0  0
 17 16  1  0  0  0  0
 18 17  2  0  0  0  0
 18 19  1  0  0  0  0
 19 14  2  0  0  0  0
 22 18  1  0  0  0  0
 23 24  1  0  0  0  0
 24 26  1  0  0  0  0
 24 25  2  0  0  0  0
 27 28  1  0  0  0  0
 27 26  2  0  0  0  0
 28 29  1  0  0  0  0
M  END
>  <minimizedAffinity>
-4.5494566

$$$$

 OpenBabel03242513513D

 29 30  0  0  1  0  0  0  0  0999 V2000
   37.3600   29.4040   42.2400 C   0  0  2  0  0  0  0  0  0  0  0  0
   38.5820   28.6020   42.6510 C   0  0  0  0  0  0  0  0  0  0  0  0
   37.9250   27.7000   43.6800 C   0  0  0  0  0  0  0  0  0  0  0  0
   36.6110   27.3800   43.1130 C   0  0  0  0  0  0  0  0  0  0  0  0
   36.3990   28.3340   41.8370 C   0  0  2  0  0  0  0  0  0  0  0  0
   36.9680   29.9200   43.1180 H   0  0  0  0  0  0  0  0  0  0  0  0
   39.3820   29.2060   43.0790 H   0  0  0  0  0  0  0  0  0  0  0  0
   38.9270   27.9310   41.8270 H   0  0  0  0  0  0  0  0  0  0  0  0
   38.5630   26.8320   43.9320 H   0  0  0  0  0  0  0  0  0  0  0  0
   37.7740   28.3620   44.5790 H   0  0  0  0  0  0  0  0  0  0  0  0
   36.6080   26.3750   42.6630 H   0  0  0  0  0  0  0  0  0  0  0  0
   35.7600   27.5190   43.8060 H   0  0  0  0  0  0  0  0  0  0  0  0
   35.3540   28.3590   41.9480 H   0  0  0  0  0  0  0  0  0  0  0  0
   37.0580   32.0370   39.5680 C   0  0  0  0  0  0  0  0  0  0  0  0
   36.6620   31.1790   40.6100 C   0  0  0  0  0  0  0  0  0  0  0  0
   37.6170   30.3580   41.1370 C   0  0  0  0  0  0  0  0  0  0  0  0
   38.8990   30.4280   40.6150 N   0  0  0  0  0  0  0  0  0  0  0  0
   39.2460   31.2540   39.6250 C   0  0  0  0  0  0  0  0  0  0  0  0
   38.3330   32.0550   39.1030 N   0  0  0  0  0  0  0  0  0  0  0  0
   36.3110   32.6850   39.1480 H   0  0  0  0  0  0  0  0  0  0  0  0
   35.6650   31.1580   40.9830 H   0  0  0  0  0  0  0  0  0  0  0  0
   40.2850   31.1880   39.3310 H   0  0  0  0  0  0  0  0  0  0  0  0
   36.8520   27.5880   40.7440 O   0  0  0  0  0  0  0  0  0  0  0  0
   36.3220   27.5590   39.4890 C   0  0  0  0  0  0  0  0  0  0  0  0
   36.5890   26.4030   38.9930 O   0  0  0  0  0  0  0  0  0  0  0  0
   35.5800   28.2320   38.4120 C   0  0  0  0  0  3  0  0  0  0  0  0
   34.2890   28.4750   38.2570 C   0  0  0  0  0  3  0  0  0  0  0  0
   33.2130   29.0540   37.4300 C   0  0  0  0  0  2  0  0  0  0  0  0
   32.5130   28.2630   37.0880 H   0  0  0  0  0  0  0  0  0  0  0  0
  1  2  1  0  0  0  0
  1  6  1  1  0  0  0
  2  7  1  0  0  0  0
  2  3  1  0  0  0  0
  3  9  1  0  0  0  0
  3 10  1  0  0  0  0
  4  3  1  0  0  0  0
  4 12  1  0  0  0  0
  5 13  1  6  0  0  0
  5  1  1  0  0  0  0
  5  4  1  0  0  0  0
  8  2  1  0  0  0  0
 11  4  1  0  0  0  0
 14 15  1  0  0  0  0
 15 21  1  0  0  0  0
 15 16  2  0  0  0  0
 16  1  1  0  0  0  0
 17 16  1  0  0  0  0
 18 17  2  0  0  0  0
 19 14  2  0  0  0  0
 19 18  1  0  0  0  0
 20 14  1  0  0  0  0
 22 18  1  0  0  0  0
 23  5  1  0  0  0  0
 24 23  1  0  0  0  0
 25 24  2  0  0  0  0
 26 24  1  0  0  0  0
 27 26  2  0  0  0  0
 28 27  1  0  0  0  0
 29 28  1  0  0  0  0
M  END
>  <minimizedAffinity>
-4.52982044

$$$$

 OpenBabel03242513513D

 29 30  0  0  1  0  0  0  0  0999 V2000
   37.2400   29.5710   42.2720 C   0  0  2  0  0  0  0  0  0  0  0  0
   38.4690   28.8820   42.8350 C   0  0  0  0  0  0  0  0  0  0  0  0
   37.7730   27.8200   43.6660 C   0  0  0  0  0  0  0  0  0  0  0  0
   36.6250   27.4030   42.8560 C   0  0  0  0  0  0  0  0  0  0  0  0
   36.5060   28.4380   41.6320 C   0  0  2  0  0  0  0  0  0  0  0  0
   36.6430   29.9560   43.1010 H   0  0  0  0  0  0  0  0  0  0  0  0
   39.1020   29.5320   43.4390 H   0  0  0  0  0  0  0  0  0  0  0  0
   39.0310   28.3330   42.0410 H   0  0  0  0  0  0  0  0  0  0  0  0
   38.4680   27.0120   43.9660 H   0  0  0  0  0  0  0  0  0  0  0  0
   37.3900   28.3750   44.5690 H   0  0  0  0  0  0  0  0  0  0  0  0
   36.8270   26.4490   42.3440 H   0  0  0  0  0  0  0  0  0  0  0  0
   35.6590   27.3780   43.3960 H   0  0  0  0  0  0  0  0  0  0  0  0
   35.4630   28.3310   41.5580 H   0  0  0  0  0  0  0  0  0  0  0  0
   37.0720   32.2040   39.5880 C   0  0  0  0  0  0  0  0  0  0  0  0
   36.6280   31.1850   40.4510 C   0  0  0  0  0  0  0  0  0  0  0  0
   37.5500   30.6450   41.3010 C   0  0  0  0  0  0  0  0  0  0  0  0
   38.8460   31.1350   41.2570 N   0  0  0  0  0  0  0  0  0  0  0  0
   39.2380   32.1040   40.4260 C   0  0  0  0  0  0  0  0  0  0  0  0
   38.3580   32.6380   39.5960 N   0  0  0  0  0  0  0  0  0  0  0  0
   36.3520   32.6330   38.9160 H   0  0  0  0  0  0  0  0  0  0  0  0
   35.6220   30.8380   40.4530 H   0  0  0  0  0  0  0  0  0  0  0  0
   40.2820   32.3740   40.5150 H   0  0  0  0  0  0  0  0  0  0  0  0
   37.2280   27.8520   40.5870 O   0  0  0  0  0  0  0  0  0  0  0  0
   36.9010   26.7270   39.8890 C   0  0  0  0  0  0  0  0  0  0  0  0
   35.9920   27.0590   39.0440 O   0  0  0  0  0  0  0  0  0  0  0  0
   37.0940   25.2910   39.6410 C   0  0  0  0  0  3  0  0  0  0  0  0
   37.4360   24.3000   40.4480 C   0  0  0  0  0  3  0  0  0  0  0  0
   37.7190   22.8620   40.6190 C   0  0  0  0  0  2  0  0  0  0  0  0
   38.7750   22.7040   40.9230 H   0  0  0  0  0  0  0  0  0  0  0  0
  1  2  1  0  0  0  0
  1  6  1  1  0  0  0
  2  7  1  0  0  0  0
  2  3  1  0  0  0  0
  3  9  1  0  0  0  0
  3 10  1  0  0  0  0
  4 12  1  0  0  0  0
  4  3  1  0  0  0  0
  5 13  1  6  0  0  0
  5  1  1  0  0  0  0
  5  4  1  0  0  0  0
  8  2  1  0  0  0  0
 11  4  1  0  0  0  0
 14 19  2  0  0  0  0
 14 15  1  0  0  0  0
 15 21  1  0  0  0  0
 15 16  2  0  0  0  0
 16  1  1  0  0  0  0
 17 16  1  0  0  0  0
 18 22  1  0  0  0  0
 18 17  2  0  0  0  0
 19 18  1  0  0  0  0
 20 14  1  0  0  0  0
 23  5  1  0  0  0  0
 24 23  1  0  0  0  0
 25 24  2  0  0  0  0
 26 24  1  0  0  0  0
 26 27  2  0  0  0  0
 27 28  1  0  0  0  0
 28 29  1  0  0  0  0
M  END
>  <minimizedAffinity>
-4.46392202

$$$$

 OpenBabel03242513513D

 29 30  0  0  1  0  0  0  0  0999 V2000
   39.0020   28.9060   42.8900 C   0  0  2  0  0  0  0  0  0  0  0  0
   39.2150   27.4650   42.4650 C   0  0  0  0  0  0  0  0  0  0  0  0
   38.3450   26.7900   43.5100 C   0  0  0  0  0  0  0  0  0  0  0  0
   37.1830   27.6720   43.6570 C   0  0  0  0  0  0  0  0  0  0  0  0
   37.5140   29.0300   42.8620 C   0  0  2  0  0  0  0  0  0  0  0  0
   39.3480   29.0240   43.9190 H   0  0  0  0  0  0  0  0  0  0  0  0
   40.2540   27.1390   42.5170 H   0  0  0  0  0  0  0  0  0  0  0  0
   38.7340   27.2540   41.4800 H   0  0  0  0  0  0  0  0  0  0  0  0
   38.1200   25.7410   43.2410 H   0  0  0  0  0  0  0  0  0  0  0  0
   38.9530   26.8410   44.4580 H   0  0  0  0  0  0  0  0  0  0  0  0
   36.3150   27.2780   43.1060 H   0  0  0  0  0  0  0  0  0  0  0  0
   36.9220   27.9260   44.7010 H   0  0  0  0  0  0  0  0  0  0  0  0
   36.9230   29.6230   43.4980 H   0  0  0  0  0  0  0  0  0  0  0  0
   40.5340   32.0060   41.4030 C   0  0  0  0  0  0  0  0  0  0  0  0
   39.9010   31.1870   42.3570 C   0  0  0  0  0  0  0  0  0  0  0  0
   39.6540   29.8930   41.9990 C   0  0  0  0  0  0  0  0  0  0  0  0
   40.0420   29.4790   40.7340 N   0  0  0  0  0  0  0  0  0  0  0  0
   40.6410   30.2800   39.8500 C   0  0  0  0  0  0  0  0  0  0  0  0
   40.8880   31.5360   40.1800 N   0  0  0  0  0  0  0  0  0  0  0  0
   40.7300   33.0260   41.6770 H   0  0  0  0  0  0  0  0  0  0  0  0
   39.6210   31.5460   43.3180 H   0  0  0  0  0  0  0  0  0  0  0  0
   40.8800   29.8050   38.9070 H   0  0  0  0  0  0  0  0  0  0  0  0
   36.9830   28.8410   41.5810 O   0  0  0  0  0  0  0  0  0  0  0  0
   36.2940   29.7480   40.8330 C   0  0  0  0  0  0  0  0  0  0  0  0
   35.1850   29.1930   40.4950 O   0  0  0  0  0  0  0  0  0  0  0  0
   36.2140   31.0800   40.2150 C   0  0  0  0  0  3  0  0  0  0  0  0
   37.1090   32.0470   40.0990 C   0  0  0  0  0  3  0  0  0  0  0  0
   37.4360   33.4010   39.6130 C   0  0  0  0  0  2  0  0  0  0  0  0
   37.6690   34.0760   40.4620 H   0  0  0  0  0  0  0  0  0  0  0  0
  1  6  1  1  0  0  0
  2  7  1  0  0  0  0
  2  1  1  0  0  0  0
  2  3  1  0  0  0  0
  3  4  1  0  0  0  0
  3 10  1  0  0  0  0
  4 12  1  0  0  0  0
  5  1  1  0  0  0  0
  5 13  1  1  0  0  0
  5  4  1  0  0  0  0
  8  2  1  0  0  0  0
  9  3  1  0  0  0  0
 11  4  1  0  0  0  0
 14 20  1  0  0  0  0
 14 15  1  0  0  0  0
 15 21  1  0  0  0  0
 16 15  2  0  0  0  0
 16  1  1  0  0  0  0
 17 16  1  0  0  0  0
 18 19  1  0  0  0  0
 18 17  2  0  0  0  0
 19 14  2  0  0  0  0
 22 18  1  0  0  0  0
 23  5  1  0  0  0  0
 24 23  1  0  0  0  0
 25 24  2  0  0  0  0
 26 24  1  0  0  0  0
 27 26  2  0  0  0  0
 28 27  1  0  0  0  0
 28 29  1  0  0  0  0
M  END
>  <minimizedAffinity>
-4.45582294

$$$$

 OpenBabel03242513513D

 29 30  0  0  1  0  0  0  0  0999 V2000
   36.7870   28.4870   41.8590 C   0  0  2  0  0  0  0  0  0  0  0  0
   36.0860   28.0640   40.5810 C   0  0  0  0  0  0  0  0  0  0  0  0
   35.1880   29.2750   40.4040 C   0  0  0  0  0  0  0  0  0  0  0  0
   36.0140   30.4170   40.8100 C   0  0  0  0  0  0  0  0  0  0  0  0
   37.3450   29.8230   41.4880 C   0  0  2  0  0  0  0  0  0  0  0  0
   36.0390   28.6210   42.6420 H   0  0  0  0  0  0  0  0  0  0  0  0
   35.5200   27.1380   40.6740 H   0  0  0  0  0  0  0  0  0  0  0  0
   36.7850   28.0690   39.7100 H   0  0  0  0  0  0  0  0  0  0  0  0
   34.7660   29.3280   39.3820 H   0  0  0  0  0  0  0  0  0  0  0  0
   34.3720   29.1340   41.1690 H   0  0  0  0  0  0  0  0  0  0  0  0
   36.4100   30.9510   39.9330 H   0  0  0  0  0  0  0  0  0  0  0  0
   35.5290   31.1090   41.5250 H   0  0  0  0  0  0  0  0  0  0  0  0
   37.4660   30.6490   42.1270 H   0  0  0  0  0  0  0  0  0  0  0  0
   39.6030   26.7770   43.6790 C   0  0  0  0  0  0  0  0  0  0  0  0
   38.6420   27.7620   43.3850 C   0  0  0  0  0  0  0  0  0  0  0  0
   37.8470   27.5500   42.2950 C   0  0  0  0  0  0  0  0  0  0  0  0
   38.0390   26.3880   41.5630 N   0  0  0  0  0  0  0  0  0  0  0  0
   38.9600   25.4710   41.8670 C   0  0  0  0  0  0  0  0  0  0  0  0
   39.7380   25.6610   42.9180 N   0  0  0  0  0  0  0  0  0  0  0  0
   40.2330   26.9380   44.5340 H   0  0  0  0  0  0  0  0  0  0  0  0
   38.5270   28.6400   43.9750 H   0  0  0  0  0  0  0  0  0  0  0  0
   38.9830   24.6220   41.1960 H   0  0  0  0  0  0  0  0  0  0  0  0
   38.2790   29.7460   40.4500 O   0  0  0  0  0  0  0  0  0  0  0  0
   38.3380   30.5270   39.3340 C   0  0  0  0  0  0  0  0  0  0  0  0
   39.0970   31.5260   39.6130 O   0  0  0  0  0  0  0  0  0  0  0  0
   37.9360   30.7780   37.9420 C   0  0  0  0  0  3  0  0  0  0  0  0
   37.2030   30.0680   37.1010 C   0  0  0  0  0  3  0  0  0  0  0  0
   36.6050   29.9410   35.7570 C   0  0  0  0  0  2  0  0  0  0  0  0
   37.0260   29.0640   35.2230 H   0  0  0  0  0  0  0  0  0  0  0  0
  1 16  1  0  0  0  0
  1  6  1  1  0  0  0
  2  7  1  0  0  0  0
  2  1  1  0  0  0  0
  3  2  1  0  0  0  0
  3  4  1  0  0  0  0
  3 10  1  0  0  0  0
  4  5  1  0  0  0  0
  4 12  1  0  0  0  0
  5  1  1  0  0  0  0
  5 13  1  1  0  0  0
  8  2  1  0  0  0  0
  9  3  1  0  0  0  0
 11  4  1  0  0  0  0
 14 20  1  0  0  0  0
 15 14  1  0  0  0  0
 15 21  1  0  0  0  0
 16 15  2  0  0  0  0
 17 18  2  0  0  0  0
 17 16  1  0  0  0  0
 18 19  1  0  0  0  0
 19 14  2  0  0  0  0
 22 18  1  0  0  0  0
 23  5  1  0  0  0  0
 24 25  2  0  0  0  0
 24 23  1  0  0  0  0
 26 24  1  0  0  0  0
 27 26  2  0  0  0  0
 28 27  1  0  0  0  0
 29 28  1  0  0  0  0
M  END
>  <minimizedAffinity>
-4.292593

$$$$

 OpenBabel03242513513D

 29 30  0  0  1  0  0  0  0  0999 V2000
   36.5470   27.0290   40.1350 C   0  0  2  0  0  0  0  0  0  0  0  0
   37.3420   26.6430   38.9010 C   0  0  0  0  0  0  0  0  0  0  0  0
   36.1960   26.5620   37.9090 C   0  0  0  0  0  0  0  0  0  0  0  0
   35.3090   27.6720   38.2710 C   0  0  0  0  0  0  0  0  0  0  0  0
   35.8260   28.2550   39.6770 C   0  0  2  0  0  0  0  0  0  0  0  0
   35.8170   26.2450   40.3420 H   0  0  0  0  0  0  0  0  0  0  0  0
   37.8740   25.6970   38.9980 H   0  0  0  0  0  0  0  0  0  0  0  0
   37.9930   27.4810   38.5540 H   0  0  0  0  0  0  0  0  0  0  0  0
   36.5580   26.5580   36.8630 H   0  0  0  0  0  0  0  0  0  0  0  0
   35.6760   25.5940   38.1580 H   0  0  0  0  0  0  0  0  0  0  0  0
   35.4470   28.5270   37.5910 H   0  0  0  0  0  0  0  0  0  0  0  0
   34.2410   27.3990   38.3700 H   0  0  0  0  0  0  0  0  0  0  0  0
   34.8670   28.5640   39.9750 H   0  0  0  0  0  0  0  0  0  0  0  0
   37.8060   27.8990   43.5730 C   0  0  0  0  0  0  0  0  0  0  0  0
   36.8830   27.6880   42.5320 C   0  0  0  0  0  0  0  0  0  0  0  0
   37.3860   27.2970   41.3250 C   0  0  0  0  0  0  0  0  0  0  0  0
   38.7580   27.1330   41.2110 N   0  0  0  0  0  0  0  0  0  0  0  0
   39.6100   27.3410   42.2180 C   0  0  0  0  0  0  0  0  0  0  0  0
   39.1390   27.7210   43.3940 N   0  0  0  0  0  0  0  0  0  0  0  0
   37.4170   28.2090   44.5260 H   0  0  0  0  0  0  0  0  0  0  0  0
   35.8360   27.8250   42.6630 H   0  0  0  0  0  0  0  0  0  0  0  0
   40.6490   27.1700   41.9670 H   0  0  0  0  0  0  0  0  0  0  0  0
   36.6970   29.2970   39.3410 O   0  0  0  0  0  0  0  0  0  0  0  0
   36.6230   30.5960   39.7480 C   0  0  0  0  0  0  0  0  0  0  0  0
   35.9240   30.6130   40.8260 O   0  0  0  0  0  0  0  0  0  0  0  0
   36.9650   32.0100   39.5370 C   0  0  0  0  0  3  0  0  0  0  0  0
   37.8560   32.7930   40.1230 C   0  0  0  0  0  3  0  0  0  0  0  0
   38.4780   34.1270   40.2260 C   0  0  0  0  0  2  0  0  0  0  0  0
   38.2860   34.5740   41.2240 H   0  0  0  0  0  0  0  0  0  0  0  0
  1  6  1  1  0  0  0
  1 16  1  0  0  0  0
  2  7  1  0  0  0  0
  2  1  1  0  0  0  0
  3 10  1  0  0  0  0
  3  4  1  0  0  0  0
  3  2  1  0  0  0  0
  4 12  1  0  0  0  0
  4  5  1  0  0  0  0
  5 13  1  1  0  0  0
  5  1  1  0  0  0  0
  8  2  1  0  0  0  0
  9  3  1  0  0  0  0
 11  4  1  0  0  0  0
 14 20  1  0  0  0  0
 15 21  1  0  0  0  0
 15 14  2  0  0  0  0
 16 15  1  0  0  0  0
 17 16  2  0  0  0  0
 17 18  1  0  0  0  0
 18 19  2  0  0  0  0
 19 14  1  0  0  0  0
 22 18  1  0  0  0  0
 23  5  1  0  0  0  0
 23 24  1  0  0  0  0
 24 25  2  0  0  0  0
 26 24  1  0  0  0  0
 26 27  2  0  0  0  0
 27 28  1  0  0  0  0
 28 29  1  0  0  0  0
M  END
>  <minimizedAffinity>
-4.20560503

$$$$

 OpenBabel03242513513D

 29 30  0  0  1  0  0  0  0  0999 V2000
   38.6830   28.6790   42.9260 C   0  0  2  0  0  0  0  0  0  0  0  0
   40.1790   28.4490   42.8190 C   0  0  0  0  0  0  0  0  0  0  0  0
   40.2780   27.2010   43.6780 C   0  0  0  0  0  0  0  0  0  0  0  0
   39.0780   26.4250   43.3500 C   0  0  0  0  0  0  0  0  0  0  0  0
   38.1270   27.3710   42.4660 C   0  0  2  0  0  0  0  0  0  0  0  0
   38.4240   28.8250   43.9760 H   0  0  0  0  0  0  0  0  0  0  0  0
   40.7810   29.2690   43.2100 H   0  0  0  0  0  0  0  0  0  0  0  0
   40.4730   28.1370   41.7880 H   0  0  0  0  0  0  0  0  0  0  0  0
   41.2420   26.6790   43.5340 H   0  0  0  0  0  0  0  0  0  0  0  0
   40.1800   27.5790   44.7350 H   0  0  0  0  0  0  0  0  0  0  0  0
   39.3160   25.6060   42.6530 H   0  0  0  0  0  0  0  0  0  0  0  0
   38.5060   26.0620   44.2250 H   0  0  0  0  0  0  0  0  0  0  0  0
   37.2440   26.9130   42.8080 H   0  0  0  0  0  0  0  0  0  0  0  0
   38.3910   31.7970   40.8380 C   0  0  0  0  0  0  0  0  0  0  0  0
   39.0010   30.7940   41.6130 C   0  0  0  0  0  0  0  0  0  0  0  0
   38.1940   29.8070   42.1010 C   0  0  0  0  0  0  0  0  0  0  0  0
   36.8410   29.8600   41.7980 N   0  0  0  0  0  0  0  0  0  0  0  0
   36.2910   30.8260   41.0590 C   0  0  0  0  0  0  0  0  0  0  0  0
   37.0590   31.7900   40.5800 N   0  0  0  0  0  0  0  0  0  0  0  0
   39.0210   32.5770   40.4520 H   0  0  0  0  0  0  0  0  0  0  0  0
   40.0450   30.7900   41.8210 H   0  0  0  0  0  0  0  0  0  0  0  0
   35.2230   30.7250   40.9150 H   0  0  0  0  0  0  0  0  0  0  0  0
   38.4580   27.0830   41.1380 O   0  0  0  0  0  0  0  0  0  0  0  0
   37.6030   26.7540   40.1280 C   0  0  0  0  0  0  0  0  0  0  0  0
   37.6780   27.6910   39.2510 O   0  0  0  0  0  0  0  0  0  0  0  0
   36.6170   25.8250   39.5560 C   0  0  0  0  0  3  0  0  0  0  0  0
   35.9500   25.8500   38.4140 C   0  0  0  0  0  3  0  0  0  0  0  0
   34.9680   25.2040   37.5210 C   0  0  0  0  0  2  0  0  0  0  0  0
   34.0760   25.8510   37.3880 H   0  0  0  0  0  0  0  0  0  0  0  0
  1  6  1  1  0  0  0
  2  1  1  0  0  0  0
  2  7  1  0  0  0  0
  2  3  1  0  0  0  0
  3 10  1  0  0  0  0
  4  3  1  0  0  0  0
  4 12  1  0  0  0  0
  5 13  1  1  0  0  0
  5  1  1  0  0  0  0
  5  4  1  0  0  0  0
  8  2  1  0  0  0  0
  9  3  1  0  0  0  0
 11  4  1  0  0  0  0
 14 15  1  0  0  0  0
 15 21  1  0  0  0  0
 15 16  2  0  0  0  0
 16  1  1  0  0  0  0
 17 16  1  0  0  0  0
 18 17  2  0  0  0  0
 19 14  2  0  0  0  0
 19 18  1  0  0  0  0
 20 14  1  0  0  0  0
 22 18  1  0  0  0  0
 23  5  1  0  0  0  0
 24 23  1  0  0  0  0
 25 24  2  0  0  0  0
 26 24  1  0  0  0  0
 27 26  2  0  0  0  0
 28 27  1  0  0  0  0
 29 28  1  0  0  0  0
M  END
>  <minimizedAffinity>
-4.18942261

$$$$

 OpenBabel03242513513D

 29 30  0  0  1  0  0  0  0  0999 V2000
   37.1270   31.4550   40.6730 C   0  0  2  0  0  0  0  0  0  0  0  0
   37.0450   31.6940   39.1760 C   0  0  0  0  0  0  0  0  0  0  0  0
   37.2810   33.1940   39.1740 C   0  0  0  0  0  0  0  0  0  0  0  0
   38.2940   33.4160   40.2100 C   0  0  0  0  0  0  0  0  0  0  0  0
   38.4610   32.0340   41.0150 C   0  0  2  0  0  0  0  0  0  0  0  0
   36.3490   32.0420   41.1650 H   0  0  0  0  0  0  0  0  0  0  0  0
   36.0840   31.4250   38.7380 H   0  0  0  0  0  0  0  0  0  0  0  0
   37.9160   31.2440   38.6420 H   0  0  0  0  0  0  0  0  0  0  0  0
   37.5380   33.5670   38.1640 H   0  0  0  0  0  0  0  0  0  0  0  0
   36.3060   33.6330   39.5280 H   0  0  0  0  0  0  0  0  0  0  0  0
   39.2920   33.5550   39.7650 H   0  0  0  0  0  0  0  0  0  0  0  0
   38.0530   34.2200   40.9300 H   0  0  0  0  0  0  0  0  0  0  0  0
   38.7220   32.5140   41.9130 H   0  0  0  0  0  0  0  0  0  0  0  0
   36.5680   27.7340   40.7150 C   0  0  0  0  0  0  0  0  0  0  0  0
   36.5980   29.0470   40.2100 C   0  0  0  0  0  0  0  0  0  0  0  0
   37.0320   30.0280   41.0540 C   0  0  0  0  0  0  0  0  0  0  0  0
   37.4110   29.6650   42.3370 N   0  0  0  0  0  0  0  0  0  0  0  0
   37.3730   28.4090   42.7880 C   0  0  0  0  0  0  0  0  0  0  0  0
   36.9540   27.4460   41.9840 N   0  0  0  0  0  0  0  0  0  0  0  0
   36.2270   26.9570   40.0560 H   0  0  0  0  0  0  0  0  0  0  0  0
   36.2980   29.2820   39.2160 H   0  0  0  0  0  0  0  0  0  0  0  0
   37.7020   28.2910   43.8120 H   0  0  0  0  0  0  0  0  0  0  0  0
   39.5150   31.3680   40.3810 O   0  0  0  0  0  0  0  0  0  0  0  0
   40.7710   31.8440   40.1510 C   0  0  0  0  0  0  0  0  0  0  0  0
   41.3550   31.9320   41.2930 O   0  0  0  0  0  0  0  0  0  0  0  0
   41.7930   32.3160   39.2050 C   0  0  0  0  0  3  0  0  0  0  0  0
   41.8320   33.3740   38.4130 C   0  0  0  0  0  3  0  0  0  0  0  0
   42.5690   34.1610   37.4060 C   0  0  0  0  0  2  0  0  0  0  0  0
   42.0160   34.1830   36.4440 H   0  0  0  0  0  0  0  0  0  0  0  0
  1  5  1  0  0  0  0
  1 16  1  0  0  0  0
  1  6  1  1  0  0  0
  2  1  1  0  0  0  0
  3  2  1  0  0  0  0
  3 10  1  0  0  0  0
  3  4  1  0  0  0  0
  4 12  1  0  0  0  0
  4  5  1  0  0  0  0
  5 13  1  1  0  0  0
  7  2  1  0  0  0  0
  8  2  1  0  0  0  0
  9  3  1  0  0  0  0
 11  4  1  0  0  0  0
 14 19  1  0  0  0  0
 15 14  2  0  0  0  0
 15 16  1  0  0  0  0
 16 17  2  0  0  0  0
 17 18  1  0  0  0  0
 18 22  1  0  0  0  0
 19 18  2  0  0  0  0
 20 14  1  0  0  0  0
 21 15  1  0  0  0  0
 23  5  1  0  0  0  0
 24 23  1  0  0  0  0
 24 25  2  0  0  0  0
 26 24  1  0  0  0  0
 27 26  2  0  0  0  0
 28 27  1  0  0  0  0
 29 28  1  0  0  0  0
M  END
>  <minimizedAffinity>
-4.17744589

$$$$
