
 OpenBabel03252504003D

 29 31  0  0  0  0  0  0  0  0999 V2000
   46.0370   31.5160   45.1290 C   0  0  0  0  0  0  0  0  0  0  0  0
   45.8820   32.8500   45.4800 C   0  0  0  0  0  0  0  0  0  0  0  0
   45.6100   33.2100   46.7960 C   0  0  0  0  0  0  0  0  0  0  0  0
   45.5010   32.2000   47.7310 C   0  0  0  0  0  0  0  0  0  0  0  0
   45.2510   32.2180   49.0520 N   0  0  0  0  0  0  0  0  0  0  0  0
   45.2380   30.9750   49.5580 C   0  0  0  0  0  0  0  0  0  0  0  0
   45.4900   30.0880   48.5290 C   0  0  0  0  0  0  0  0  0  0  0  0
   45.6540   30.8500   47.3910 C   0  0  0  0  0  0  0  0  0  0  0  0
   45.9210   30.5300   46.0850 C   0  0  0  0  0  0  0  0  0  0  0  0
   46.2490   31.1970   44.1120 H   0  0  0  0  0  0  0  0  0  0  0  0
   45.4920   34.2510   47.0620 H   0  0  0  0  0  0  0  0  0  0  0  0
   45.0820   33.0450   49.6570 H   0  0  0  0  0  0  0  0  0  0  0  0
   45.0790   30.5670   50.5440 H   0  0  0  0  0  0  0  0  0  0  0  0
   45.5630   29.0180   48.5150 H   0  0  0  0  0  0  0  0  0  0  0  0
   46.0400   29.4890   45.8190 H   0  0  0  0  0  0  0  0  0  0  0  0
   47.3390   34.8400   42.7800 C   0  0  0  0  0  0  0  0  0  0  0  0
   46.3120   35.7180   42.4200 C   0  0  0  0  0  0  0  0  0  0  0  0
   45.1130   35.6170   43.1140 C   0  0  0  0  0  0  0  0  0  0  0  0
   44.9960   34.6860   44.0980 N   0  0  0  0  0  0  0  0  0  0  0  0
   46.0160   33.8530   44.4170 C   0  0  0  0  0  0  0  0  0  0  0  0
   47.1890   33.9270   43.7610 N   0  0  0  0  0  0  0  0  0  0  0  0
   46.4520   36.4450   41.6280 H   0  0  0  0  0  0  0  0  0  0  0  0
   44.3060   36.2880   42.8500 H   0  0  0  0  0  0  0  0  0  0  0  0
   48.5690   34.9750   42.0350 C   0  0  0  0  0  0  0  0  0  0  0  0
   49.7320   34.9260   42.5420 O   0  0  0  0  0  0  0  0  0  0  0  0
   48.5300   35.1850   40.5890 C   0  0  0  0  0  3  0  0  0  0  0  0
   48.2050   34.1870   39.7900 C   0  0  0  0  0  3  0  0  0  0  0  0
   48.1390   34.3050   38.3150 C   0  0  0  0  0  2  0  0  0  0  0  0
   48.5710   35.2820   38.0260 H   0  0  0  0  0  0  0  0  0  0  0  0
  1  2  2  0  0  0  0
  1  9  1  0  0  0  0
  2  3  1  0  0  0  0
  3 11  1  0  0  0  0
  3  4  2  0  0  0  0
  4  5  1  0  0  0  0
  5  6  1  0  0  0  0
  5 12  1  0  0  0  0
  6 13  1  0  0  0  0
  7  6  2  0  0  0  0
  8  4  1  0  0  0  0
  8  7  1  0  0  0  0
  9  8  2  0  0  0  0
 10  1  1  0  0  0  0
 14  7  1  0  0  0  0
 15  9  1  0  0  0  0
 16 21  1  0  0  0  0
 17 16  2  0  0  0  0
 17 18  1  0  0  0  0
 18 19  2  0  0  0  0
 19 20  1  0  0  0  0
 20  2  1  0  0  0  0
 21 20  2  0  0  0  0
 22 17  1  0  0  0  0
 23 18  1  0  0  0  0
 24 25  2  0  0  0  0
 24 16  1  0  0  0  0
 26 24  1  0  0  0  0
 27 26  2  0  0  0  0
 28 27  1  0  0  0  0
 29 28  1  0  0  0  0
M  END
>  <minimizedAffinity>
-6.00327301

>  <minimizedRMSD>
1.05201781

$$$$
