
 OpenBabel03242511423D

 29 30  0  0  0  0  0  0  0  0999 V2000
   46.9440   32.8980   46.2600 C   0  0  0  0  0  0  0  0  0  0  0  0
   46.9080   33.9270   46.6340 H   0  0  0  0  0  0  0  0  0  0  0  0
   48.0290   32.5820   46.2230 H   0  0  0  0  0  0  0  0  0  0  0  0
   46.3070   32.0150   47.2330 C   0  0  0  0  0  0  0  0  0  0  0  0
   45.2600   32.2680   48.1040 C   0  0  0  0  0  0  0  0  0  0  0  0
   44.6990   31.3460   48.9490 C   0  0  0  0  0  0  0  0  0  0  0  0
   45.2160   30.0810   48.9240 C   0  0  0  0  0  0  0  0  0  0  0  0
   46.2680   29.8010   48.0610 C   0  0  0  0  0  0  0  0  0  0  0  0
   46.8170   30.7650   47.2180 C   0  0  0  0  0  0  0  0  0  0  0  0
   44.9290   33.3040   48.0370 H   0  0  0  0  0  0  0  0  0  0  0  0
   43.8970   31.7580   49.5420 H   0  0  0  0  0  0  0  0  0  0  0  0
   44.6800   29.4400   49.6410 H   0  0  0  0  0  0  0  0  0  0  0  0
   46.4730   28.7430   48.2490 H   0  0  0  0  0  0  0  0  0  0  0  0
   47.9560   30.0720   46.6340 C   0  0  0  0  0  3  0  0  0  0  0  0
   48.1520   29.4500   45.4930 C   0  0  0  0  0  3  0  0  0  0  0  0
   49.2980   28.7650   44.9320 C   0  0  0  0  0  2  0  0  0  0  0  0
   50.1420   28.8280   45.6760 H   0  0  0  0  0  0  0  0  0  0  0  0
   46.4220   32.7210   44.8750 C   0  0  0  0  0  0  0  0  0  0  0  0
   45.5030   32.1070   44.9030 H   0  0  0  0  0  0  0  0  0  0  0  0
   47.1920   32.4350   44.1380 H   0  0  0  0  0  0  0  0  0  0  0  0
   44.5260   35.8950   44.7440 C   0  0  0  0  0  0  0  0  0  0  0  0
   44.8950   36.4060   43.4750 C   0  0  0  0  0  0  0  0  0  0  0  0
   45.7800   35.6500   42.7330 C   0  0  0  0  0  0  0  0  0  0  0  0
   46.2390   34.4990   43.2300 N   0  0  0  0  0  0  0  0  0  0  0  0
   45.8530   34.0540   44.4560 C   0  0  0  0  0  0  0  0  0  0  0  0
   45.0140   34.7320   45.2050 N   0  0  0  0  0  0  0  0  0  0  0  0
   43.8190   36.5280   45.3020 H   0  0  0  0  0  0  0  0  0  0  0  0
   44.4940   37.3510   43.1090 H   0  0  0  0  0  0  0  0  0  0  0  0
   46.1060   35.9800   41.7520 H   0  0  0  0  0  0  0  0  0  0  0  0
  1  2  1  0  0  0  0
  1  4  1  0  0  0  0
  3  1  1  0  0  0  0
  4  5  1  0  0  0  0
  5  6  2  0  0  0  0
  6 11  1  0  0  0  0
  7  6  1  0  0  0  0
  7 12  1  0  0  0  0
  8 13  1  0  0  0  0
  8  7  2  0  0  0  0
  9  4  2  0  0  0  0
  9  8  1  0  0  0  0
 10  5  1  0  0  0  0
 14  9  1  0  0  0  0
 15 14  2  0  0  0  0
 16 15  1  0  0  0  0
 16 17  1  0  0  0  0
 18 19  1  0  0  0  0
 18  1  1  0  0  0  0
 20 18  1  0  0  0  0
 21 26  1  0  0  0  0
 21 27  1  0  0  0  0
 22 21  2  0  0  0  0
 23 24  2  0  0  0  0
 23 22  1  0  0  0  0
 24 25  1  0  0  0  0
 25 18  1  0  0  0  0
 25 26  2  0  0  0  0
 28 22  1  0  0  0  0
 29 23  1  0  0  0  0
M  END
>  <minimizedAffinity>
-4.57401085

>  <minimizedRMSD>
1.27030063

$$$$
