
 OpenBabel03252505063D

 38 40  0  0  1  0  0  0  0  0999 V2000
   44.5800   35.5910   44.6160 C   0  0  0  0  0  0  0  0  0  0  0  0
   45.2370   35.6000   43.3630 C   0  0  0  0  0  0  0  0  0  0  0  0
   46.3200   34.6860   43.1850 C   0  0  0  0  0  0  0  0  0  0  0  0
   46.6640   33.8650   44.2060 N   0  0  0  0  0  0  0  0  0  0  0  0
   46.0090   33.8950   45.3770 C   0  0  0  0  0  0  0  0  0  0  0  0
   44.9650   34.7510   45.5970 N   0  0  0  0  0  0  0  0  0  0  0  0
   43.7590   36.2690   44.7830 H   0  0  0  0  0  0  0  0  0  0  0  0
   44.9260   36.2770   42.5760 H   0  0  0  0  0  0  0  0  0  0  0  0
   46.4350   32.9700   46.4620 C   0  0  2  0  0  0  0  0  0  0  0  0
   46.9660   31.7480   45.7650 C   0  0  0  0  0  0  0  0  0  0  0  0
   46.1040   30.5550   45.7760 C   0  0  0  0  0  0  0  0  0  0  0  0
   45.8090   30.2900   47.2540 C   0  0  0  0  0  0  0  0  0  0  0  0
   45.0140   31.3500   47.8670 C   0  0  0  0  0  0  0  0  0  0  0  0
   45.3790   32.7300   47.4190 C   0  0  0  0  0  0  0  0  0  0  0  0
   47.2760   33.4980   46.9710 H   0  0  0  0  0  0  0  0  0  0  0  0
   47.9270   31.4700   46.2640 H   0  0  0  0  0  0  0  0  0  0  0  0
   47.2660   31.9560   44.7100 H   0  0  0  0  0  0  0  0  0  0  0  0
   46.6800   29.6930   45.4360 H   0  0  0  0  0  0  0  0  0  0  0  0
   45.1870   30.6210   45.1710 H   0  0  0  0  0  0  0  0  0  0  0  0
   46.7520   30.0400   47.7410 H   0  0  0  0  0  0  0  0  0  0  0  0
   45.1460   29.3930   47.2370 H   0  0  0  0  0  0  0  0  0  0  0  0
   44.2220   31.3410   48.5700 H   0  0  0  0  0  0  0  0  0  0  0  0
   44.6810   33.8730   47.9320 N   0  0  0  0  0  0  0  0  0  0  0  0
   43.6670   33.9920   47.7090 H   0  0  0  0  0  0  0  0  0  0  0  0
   45.2400   34.5170   48.5010 H   0  0  0  0  0  0  0  0  0  0  0  0
   47.0120   34.6730   41.9040 C   0  0  0  0  0  0  0  0  0  0  0  0
   48.1530   35.3990   41.7760 C   0  0  0  0  0  0  0  0  0  0  0  0
   48.7820   35.3530   40.5200 C   0  0  0  0  0  0  0  0  0  0  0  0
   48.1810   34.5800   39.5530 C   0  0  0  0  0  0  0  0  0  0  0  0
   47.0360   33.8520   39.6810 C   0  0  0  0  0  0  0  0  0  0  0  0
   46.4650   33.9310   40.9210 N   0  0  0  0  0  0  0  0  0  0  0  0
   48.6070   36.0000   42.5530 H   0  0  0  0  0  0  0  0  0  0  0  0
   49.6930   35.9050   40.3450 H   0  0  0  0  0  0  0  0  0  0  0  0
   48.6890   34.5640   38.5920 H   0  0  0  0  0  0  0  0  0  0  0  0
   46.4200   33.0500   38.6650 C   0  0  0  0  0  3  0  0  0  0  0  0
   47.0830   32.0760   38.0670 C   0  0  0  0  0  3  0  0  0  0  0  0
   46.5460   31.2010   37.0200 C   0  0  0  0  0  2  0  0  0  0  0  0
   45.7720   31.7110   36.3780 H   0  0  0  0  0  0  0  0  0  0  0  0
  1  7  1  0  0  0  0
  1  6  1  0  0  0  0
  2  1  2  0  0  0  0
  3  2  1  0  0  0  0
  3  4  2  0  0  0  0
  4  5  1  0  0  0  0
  5  6  2  0  0  0  0
  5  9  1  0  0  0  0
  8  2  1  0  0  0  0
  9 15  1  1  0  0  0
  9 14  1  0  0  0  0
 10 11  1  0  0  0  0
 10 16  1  0  0  0  0
 10  9  1  0  0  0  0
 11 12  1  0  0  0  0
 12 20  1  0  0  0  0
 12 13  1  0  0  0  0
 13 22  1  0  0  0  0
 14 13  2  0  0  0  0
 14 23  1  0  0  0  0
 17 10  1  0  0  0  0
 18 11  1  0  0  0  0
 19 11  1  0  0  0  0
 21 12  1  0  0  0  0
 23 25  1  0  0  0  0
 24 23  1  0  0  0  0
 26  3  1  0  0  0  0
 27 26  1  0  0  0  0
 27 32  1  0  0  0  0
 28 27  2  0  0  0  0
 29 30  2  0  0  0  0
 29 28  1  0  0  0  0
 30 31  1  0  0  0  0
 31 26  2  0  0  0  0
 33 28  1  0  0  0  0
 34 29  1  0  0  0  0
 35 30  1  0  0  0  0
 36 35  2  0  0  0  0
 37 36  1  0  0  0  0
 38 37  1  0  0  0  0
M  END
>  <minimizedAffinity>
-6.87057686

>  <minimizedRMSD>
0.210061312

$$$$
