
 OpenBabel03242517533D

 33 34  0  0  0  0  0  0  0  0999 V2000
   45.3010   34.2720   43.7540 C   0  0  0  0  0  0  0  0  0  0  0  0
   46.4690   34.7730   43.1340 C   0  0  0  0  0  0  0  0  0  0  0  0
   47.6610   34.0850   43.2640 C   0  0  0  0  0  0  0  0  0  0  0  0
   47.5910   32.9680   43.9940 N   0  0  0  0  0  0  0  0  0  0  0  0
   46.5130   32.4900   44.5770 C   0  0  0  0  0  0  0  0  0  0  0  0
   45.3540   33.1500   44.4560 N   0  0  0  0  0  0  0  0  0  0  0  0
   44.3880   34.8540   43.6190 H   0  0  0  0  0  0  0  0  0  0  0  0
   46.4830   35.6910   42.5440 H   0  0  0  0  0  0  0  0  0  0  0  0
   48.9400   34.5060   42.6670 C   0  0  0  0  0  0  0  0  0  0  0  0
   49.6940   34.7460   43.4420 H   0  0  0  0  0  0  0  0  0  0  0  0
   49.3450   33.7050   42.0570 H   0  0  0  0  0  0  0  0  0  0  0  0
   48.7490   35.6900   41.7200 C   0  0  0  0  0  0  0  0  0  0  0  0
   49.6010   36.3910   41.8350 H   0  0  0  0  0  0  0  0  0  0  0  0
   47.8220   36.1940   42.0420 H   0  0  0  0  0  0  0  0  0  0  0  0
   48.6080   35.2170   40.3180 C   0  0  0  0  0  3  0  0  0  0  0  0
   48.0750   34.3390   39.4800 C   0  0  0  0  0  3  0  0  0  0  0  0
   48.2180   34.2270   38.0030 C   0  0  0  0  0  2  0  0  0  0  0  0
   47.2350   34.3580   37.5210 H   0  0  0  0  0  0  0  0  0  0  0  0
   46.5020   31.3230   45.3230 O   0  0  0  0  0  0  0  0  0  0  0  0
   45.4000   30.2010   47.2480 C   0  0  0  0  0  0  0  0  0  0  0  0
   46.0750   31.2130   46.6340 C   0  0  0  0  0  0  0  0  0  0  0  0
   46.4020   32.3170   47.4120 C   0  0  0  0  0  0  0  0  0  0  0  0
   46.0700   32.4160   48.7530 C   0  0  0  0  0  0  0  0  0  0  0  0
   45.3820   31.3670   49.3460 C   0  0  0  0  0  0  0  0  0  0  0  0
   45.0510   30.2600   48.5780 C   0  0  0  0  0  0  0  0  0  0  0  0
   46.9320   33.1780   47.0450 H   0  0  0  0  0  0  0  0  0  0  0  0
   46.3210   33.2730   49.3640 H   0  0  0  0  0  0  0  0  0  0  0  0
   45.0860   31.3660   50.3860 H   0  0  0  0  0  0  0  0  0  0  0  0
   44.5210   29.3940   48.9350 H   0  0  0  0  0  0  0  0  0  0  0  0
   45.0250   28.8480   46.2080 S   0  0  0  0  0  0  0  0  0  0  0  0
   43.5380   28.7540   45.9420 O   0  0  0  0  0  0  0  0  0  0  0  0
   45.3780   27.5790   46.9680 O   0  0  0  0  0  0  0  0  0  0  0  0
   45.7490   28.8700   45.0680 H   0  0  0  0  0  0  0  0  0  0  0  0
  1  6  1  0  0  0  0
  2  3  1  0  0  0  0
  2  1  2  0  0  0  0
  3  4  2  0  0  0  0
  4  5  1  0  0  0  0
  5 19  1  0  0  0  0
  6  5  2  0  0  0  0
  7  1  1  0  0  0  0
  8  2  1  0  0  0  0
  9  3  1  0  0  0  0
  9 10  1  0  0  0  0
 11  9  1  0  0  0  0
 12 13  1  0  0  0  0
 12 14  1  0  0  0  0
 12  9  1  0  0  0  0
 15 12  1  0  0  0  0
 16 15  2  0  0  0  0
 17 16  1  0  0  0  0
 18 17  1  0  0  0  0
 19 21  1  0  0  0  0
 20 25  1  0  0  0  0
 21 20  2  0  0  0  0
 21 22  1  0  0  0  0
 22 23  2  0  0  0  0
 23 24  1  0  0  0  0
 23 27  1  0  0  0  0
 24 28  1  0  0  0  0
 25 29  1  0  0  0  0
 25 24  2  0  0  0  0
 26 22  1  0  0  0  0
 30 32  2  0  0  0  0
 30 20  1  0  0  0  0
 31 30  2  0  0  0  0
 33 30  1  0  0  0  0
M  END
>  <minimizedAffinity>
-5.5631938

>  <minimizedRMSD>
1.25324643

$$$$
