
 OpenBabel03252508213D

 29 30  0  0  0  0  0  0  0  0999 V2000
   45.0150   33.2610   40.9870 C   0  0  0  0  0  0  0  0  0  0  0  0
   44.5510   33.6610   41.9360 H   0  0  0  0  0  0  0  0  0  0  0  0
   45.0720   32.1780   41.1170 H   0  0  0  0  0  0  0  0  0  0  0  0
   46.2980   33.9630   40.8650 C   0  0  0  0  0  0  0  0  0  0  0  0
   47.1040   33.9240   39.7580 C   0  0  0  0  0  0  0  0  0  0  0  0
   48.3220   34.5730   39.6000 C   0  0  0  0  0  0  0  0  0  0  0  0
   48.7170   35.3270   40.7110 C   0  0  0  0  0  0  0  0  0  0  0  0
   47.9280   35.3880   41.8430 C   0  0  0  0  0  0  0  0  0  0  0  0
   46.7370   34.7270   41.9400 C   0  0  0  0  0  0  0  0  0  0  0  0
   46.7840   33.3350   38.9060 H   0  0  0  0  0  0  0  0  0  0  0  0
   48.9210   34.5200   38.7280 H   0  0  0  0  0  0  0  0  0  0  0  0
   49.6690   35.8520   40.6270 H   0  0  0  0  0  0  0  0  0  0  0  0
   48.3490   36.0060   42.6300 H   0  0  0  0  0  0  0  0  0  0  0  0
   45.9450   34.8280   43.1600 C   0  0  0  0  0  3  0  0  0  0  0  0
   45.2370   35.8840   43.5200 C   0  0  0  0  0  3  0  0  0  0  0  0
   44.4450   35.9330   44.7760 C   0  0  0  0  0  2  0  0  0  0  0  0
   44.9510   36.6050   45.5080 H   0  0  0  0  0  0  0  0  0  0  0  0
   44.0440   33.6770   39.8850 C   0  0  0  0  0  0  0  0  0  0  0  0
   44.4510   34.6340   39.4940 H   0  0  0  0  0  0  0  0  0  0  0  0
   43.9700   32.9030   39.1190 H   0  0  0  0  0  0  0  0  0  0  0  0
   41.2590   35.5470   41.6050 C   0  0  0  0  0  0  0  0  0  0  0  0
   42.5160   35.2800   41.0050 C   0  0  0  0  0  0  0  0  0  0  0  0
   42.7480   33.9860   40.5140 C   0  0  0  0  0  0  0  0  0  0  0  0
   41.7330   33.0630   40.6510 N   0  0  0  0  0  0  0  0  0  0  0  0
   40.5740   33.3710   41.2220 C   0  0  0  0  0  0  0  0  0  0  0  0
   40.3160   34.6060   41.7060 N   0  0  0  0  0  0  0  0  0  0  0  0
   41.1440   36.5660   41.9640 H   0  0  0  0  0  0  0  0  0  0  0  0
   43.2610   36.0740   40.9410 H   0  0  0  0  0  0  0  0  0  0  0  0
   39.8530   32.5630   41.2720 H   0  0  0  0  0  0  0  0  0  0  0  0
  1  3  1  0  0  0  0
  1  2  1  0  0  0  0
  4  1  1  0  0  0  0
  4  9  1  0  0  0  0
  5  4  2  0  0  0  0
  6  5  1  0  0  0  0
  6  7  2  0  0  0  0
  7  8  1  0  0  0  0
  8  9  2  0  0  0  0
  8 13  1  0  0  0  0
  9 14  1  0  0  0  0
 10  5  1  0  0  0  0
 11  6  1  0  0  0  0
 12  7  1  0  0  0  0
 14 15  2  0  0  0  0
 15 16  1  0  0  0  0
 16 17  1  0  0  0  0
 18 23  1  0  0  0  0
 18  1  1  0  0  0  0
 19 18  1  0  0  0  0
 20 18  1  0  0  0  0
 21 26  1  0  0  0  0
 21 27  1  0  0  0  0
 22 21  2  0  0  0  0
 23 24  2  0  0  0  0
 23 22  1  0  0  0  0
 24 25  1  0  0  0  0
 25 29  1  0  0  0  0
 25 26  2  0  0  0  0
 28 22  1  0  0  0  0
M  END
>  <minimizedAffinity>
-5.14320564

>  <minimizedRMSD>
0.823031187

$$$$
