
 OpenBabel03252503093D

 22 23  0  0  0  0  0  0  0  0999 V2000
   45.2110   36.1460   43.3670 C   0  0  0  0  0  0  0  0  0  0  0  0
   45.8770   34.9550   43.0190 C   0  0  0  0  0  0  0  0  0  0  0  0
   45.8750   33.9740   44.0030 C   0  0  0  0  0  0  0  0  0  0  0  0
   45.2780   34.1480   45.2020 N   0  0  0  0  0  0  0  0  0  0  0  0
   44.6460   35.3240   45.4880 C   0  0  0  0  0  0  0  0  0  0  0  0
   44.6170   36.3150   44.5660 N   0  0  0  0  0  0  0  0  0  0  0  0
   45.1540   36.9710   42.6760 H   0  0  0  0  0  0  0  0  0  0  0  0
   44.1850   35.4290   46.4440 H   0  0  0  0  0  0  0  0  0  0  0  0
   46.5100   32.7610   43.7420 C   0  0  0  0  0  0  0  0  0  0  0  0
   47.8150   32.3210   43.8030 C   0  0  0  0  0  0  0  0  0  0  0  0
   48.1840   31.0890   43.4890 C   0  0  0  0  0  0  0  0  0  0  0  0
   47.1800   30.2320   43.0860 C   0  0  0  0  0  0  0  0  0  0  0  0
   45.6620   31.2910   43.1810 S   0  0  0  0  0  0  0  0  0  0  0  0
   48.6920   32.8580   44.1290 H   0  0  0  0  0  0  0  0  0  0  0  0
   49.0650   30.5050   43.4420 H   0  0  0  0  0  0  0  0  0  0  0  0
   46.9820   29.2340   42.7600 H   0  0  0  0  0  0  0  0  0  0  0  0
   46.4750   34.8160   41.7450 C   0  0  0  0  0  0  0  0  0  0  0  0
   47.7220   35.0940   41.7000 O   0  0  0  0  0  0  0  0  0  0  0  0
   45.3120   34.3780   40.9240 C   0  0  0  0  0  3  0  0  0  0  0  0
   44.9080   33.4610   40.0710 C   0  0  0  0  0  3  0  0  0  0  0  0
   43.5170   33.6050   39.5860 C   0  0  0  0  0  2  0  0  0  0  0  0
   42.8890   32.7240   39.8580 H   0  0  0  0  0  0  0  0  0  0  0  0
  1  6  1  0  0  0  0
  2  1  2  0  0  0  0
  2  3  1  0  0  0  0
  3  4  2  0  0  0  0
  4  5  1  0  0  0  0
  5  8  1  0  0  0  0
  6  5  2  0  0  0  0
  7  1  1  0  0  0  0
  9 10  2  0  0  0  0
  9  3  1  0  0  0  0
 10 14  1  0  0  0  0
 11 10  1  0  0  0  0
 12 13  1  0  0  0  0
 12 11  2  0  0  0  0
 13  9  1  0  0  0  0
 15 11  1  0  0  0  0
 16 12  1  0  0  0  0
 17  2  1  0  0  0  0
 18 17  2  0  0  0  0
 19 17  1  0  0  0  0
 20 19  2  0  0  0  0
 21 22  1  0  0  0  0
 21 20  1  0  0  0  0
M  END
>  <minimizedAffinity>
-3.95334268

>  <minimizedRMSD>
1.13347101

$$$$
