REMARK  Name = 
REMARK  4 active torsions:
REMARK  status: ('A' for Active; 'I' for Inactive)
REMARK    1  A    between atoms: C_2  and  C_14
REMARK    2  A    between atoms: C_10  and  C_16
REMARK    3  A    between atoms: C_16  and  C_26
REMARK    4  A    between atoms: C_27  and  C_28
REMARK                            x       y       z     vdW  Elec       q    Type
REMARK                         _______ _______ _______ _____ _____    ______ ____
ROOT
ATOM      1  C   UNL     1      46.030  31.686  45.131  0.00  0.00    +0.000 A 
ATOM      2  C   UNL     1      45.795  32.995  45.528  0.00  0.00    +0.000 A 
ATOM      3  C   UNL     1      45.526  33.295  46.859  0.00  0.00    +0.000 A 
ATOM      4  C   UNL     1      45.502  32.251  47.763  0.00  0.00    +0.000 A 
ATOM      5  N   UNL     1      45.277  32.212  49.088  0.00  0.00    +0.000 N 
ATOM      6  C   UNL     1      45.355  30.955  49.554  0.00  0.00    +0.000 A 
ATOM      7  C   UNL     1      45.645  30.119  48.492  0.00  0.00    +0.000 A 
ATOM      8  C   UNL     1      45.736  30.926  47.377  0.00  0.00    +0.000 A 
ATOM      9  C   UNL     1      45.998  30.665  46.057  0.00  0.00    +0.000 A 
ATOM     10  H   UNL     1      46.242  31.414  44.101  0.00  0.00    +0.000 HD
ATOM     11  H   UNL     1      45.345  34.317  47.161  0.00  0.00    +0.000 HD
ATOM     12  H   UNL     1      45.066  33.006  49.722  0.00  0.00    +0.000 HD
ATOM     13  H   UNL     1      45.243  30.507  50.528  0.00  0.00    +0.000 HD
ATOM     14  H   UNL     1      45.788  29.058  48.442  0.00  0.00    +0.000 HD
ATOM     15  H   UNL     1      46.180  29.643  45.755  0.00  0.00    +0.000 HD
ENDROOT
BRANCH   2  20
ATOM     16  C   UNL     1      46.899  34.930  42.628  0.00  0.00    +0.000 A 
ATOM     17  C   UNL     1      45.969  35.970  42.546  0.00  0.00    +0.000 A 
ATOM     18  C   UNL     1      44.957  35.999  43.498  0.00  0.00    +0.000 A 
ATOM     19  N   UNL     1      44.920  35.030  44.451  0.00  0.00    +0.000 NA
ATOM     20  C   UNL     1      45.842  34.038  44.496  0.00  0.00    +0.000 A 
ATOM     21  N   UNL     1      46.833  33.984  43.587  0.00  0.00    +0.000 NA
ATOM     22  H   UNL     1      46.039  36.721  41.767  0.00  0.00    +0.000 HD
ATOM     23  H   UNL     1      44.227  36.797  43.451  0.00  0.00    +0.000 HD
BRANCH  16  24
ATOM     24  C   UNL     1      47.935  34.934  41.621  0.00  0.00    +0.000 C 
ATOM     25  O   UNL     1      48.825  35.831  41.501  0.00  0.00    +0.000 OA
BRANCH  24  26
ATOM     26  C   UNL     1      48.010  33.849  40.644  0.00  0.00    +0.000 C 
ATOM     27  C   UNL     1      48.492  34.083  39.440  0.00  0.00    +0.000 C 
BRANCH  27  28
ATOM     28  C   UNL     1      48.606  33.048  38.385  0.00  0.00    +0.000 C 
ATOM     29  H   UNL     1      48.068  32.145  38.728  0.00  0.00    +0.000 HD
ENDBRANCH  27  28
ENDBRANCH  24  26
ENDBRANCH  16  24
ENDBRANCH   2  20
TORSDOF 4
