
 OpenBabel03252506283D

 42 45  0  0  0  0  0  0  0  0999 V2000
   46.4800   30.8560   48.8830 C   0  0  0  0  0  0  0  0  0  0  0  0
   46.6500   31.5710   49.7070 H   0  0  0  0  0  0  0  0  0  0  0  0
   47.2070   30.0480   49.0030 H   0  0  0  0  0  0  0  0  0  0  0  0
   46.3210   32.8820   45.9480 C   0  0  0  0  0  0  0  0  0  0  0  0
   47.3140   31.9360   45.5870 C   0  0  0  0  0  0  0  0  0  0  0  0
   47.4860   31.0850   46.6210 C   0  0  0  0  0  0  0  0  0  0  0  0
   46.6360   31.4850   47.5840 N   0  0  0  0  0  0  0  0  0  0  0  0
   45.9320   32.5600   47.1930 N   0  0  0  0  0  0  0  0  0  0  0  0
   47.8110   31.9500   44.6300 H   0  0  0  0  0  0  0  0  0  0  0  0
   48.1570   30.2430   46.7040 H   0  0  0  0  0  0  0  0  0  0  0  0
   44.5140   35.8210   44.7470 C   0  0  0  0  0  0  0  0  0  0  0  0
   45.0100   35.9910   43.4480 C   0  0  0  0  0  0  0  0  0  0  0  0
   45.9690   35.0820   43.0030 C   0  0  0  0  0  0  0  0  0  0  0  0
   46.3320   34.1180   43.8630 N   0  0  0  0  0  0  0  0  0  0  0  0
   45.8640   33.9580   45.0880 C   0  0  0  0  0  0  0  0  0  0  0  0
   44.9440   34.8250   45.5250 N   0  0  0  0  0  0  0  0  0  0  0  0
   43.7710   36.5440   45.0620 H   0  0  0  0  0  0  0  0  0  0  0  0
   44.7090   36.7740   42.7600 H   0  0  0  0  0  0  0  0  0  0  0  0
   46.5870   35.1100   41.6900 C   0  0  0  0  0  0  0  0  0  0  0  0
   47.8900   35.0240   41.5310 C   0  0  0  0  0  0  0  0  0  0  0  0
   48.5480   35.0490   40.2210 C   0  0  0  0  0  0  0  0  0  0  0  0
   49.5700   34.5760   40.2910 H   0  0  0  0  0  0  0  0  0  0  0  0
   45.1160   30.2900   49.0230 C   0  0  0  0  0  0  0  0  0  0  0  0
   44.9940   29.9980   50.1000 H   0  0  0  0  0  0  0  0  0  0  0  0
   44.3670   31.0920   48.8550 H   0  0  0  0  0  0  0  0  0  0  0  0
   44.8910   27.7720   48.5850 C   0  0  0  0  0  0  0  0  0  0  0  0
   44.8060   29.1010   48.2320 C   0  0  0  0  0  0  0  0  0  0  0  0
   44.3660   29.3720   46.9450 C   0  0  0  0  0  0  0  0  0  0  0  0
   44.0310   28.3660   46.0670 C   0  0  0  0  0  0  0  0  0  0  0  0
   43.5880   28.3240   44.7960 N   0  0  0  0  0  0  0  0  0  0  0  0
   43.4070   27.0650   44.3810 C   0  0  0  0  0  0  0  0  0  0  0  0
   43.7430   26.2040   45.4210 C   0  0  0  0  0  0  0  0  0  0  0  0
   44.1180   27.0470   46.4260 C   0  0  0  0  0  0  0  0  0  0  0  0
   44.5530   26.7690   47.7030 C   0  0  0  0  0  0  0  0  0  0  0  0
   45.2410   27.6100   49.6070 H   0  0  0  0  0  0  0  0  0  0  0  0
   44.2550   30.3690   46.5400 H   0  0  0  0  0  0  0  0  0  0  0  0
   43.4110   29.1900   44.2150 H   0  0  0  0  0  0  0  0  0  0  0  0
   43.0530   26.8210   43.3870 H   0  0  0  0  0  0  0  0  0  0  0  0
   43.6860   25.1300   45.3480 H   0  0  0  0  0  0  0  0  0  0  0  0
   44.6670   25.3830   48.1470 C   0  0  0  0  0  0  0  0  0  0  0  0
   45.2160   25.0960   49.2470 O   0  0  0  0  0  0  0  0  0  0  0  0
   44.2760   24.5790   47.5270 H   0  0  0  0  0  0  0  0  0  0  0  0
  1  3  1  0  0  0  0
  1 23  1  0  0  0  0
  1  2  1  0  0  0  0
  4  8  2  0  0  0  0
  5  4  1  0  0  0  0
  5  6  2  0  0  0  0
  6 10  1  0  0  0  0
  6  7  1  0  0  0  0
  7  1  1  0  0  0  0
  8  7  1  0  0  0  0
  9  5  1  0  0  0  0
 11 17  1  0  0  0  0
 11 16  1  0  0  0  0
 12 11  2  0  0  0  0
 13 12  1  0  0  0  0
 13 14  2  0  0  0  0
 14 15  1  0  0  0  0
 15 16  2  0  0  0  0
 15  4  1  0  0  0  0
 18 12  1  0  0  0  0
 19 13  1  0  0  0  0
 20 19  2  0  0  0  0
 21 22  1  0  0  0  0
 21 20  1  0  0  0  0
 23 24  1  0  0  0  0
 25 23  1  0  0  0  0
 26 35  1  0  0  0  0
 27 26  1  0  0  0  0
 27 23  1  0  0  0  0
 28 27  2  0  0  0  0
 29 33  2  0  0  0  0
 29 28  1  0  0  0  0
 30 29  1  0  0  0  0
 31 30  1  0  0  0  0
 31 32  2  0  0  0  0
 32 33  1  0  0  0  0
 33 34  1  0  0  0  0
 34 40  1  0  0  0  0
 34 26  2  0  0  0  0
 36 28  1  0  0  0  0
 37 30  1  0  0  0  0
 38 31  1  0  0  0  0
 39 32  1  0  0  0  0
 40 41  2  0  0  0  0
 42 40  1  0  0  0  0
M  END
>  <minimizedAffinity>
-5.79522657

>  <minimizedRMSD>
0.861041188

$$$$
