REMARK  Name = 
REMARK  7 active torsions:
REMARK  status: ('A' for Active; 'I' for Inactive)
REMARK    1  A    between atoms: C_1  and  C_14
REMARK    2  A    between atoms: C_3  and  C_8
REMARK    3  A    between atoms: C_7  and  O_12
REMARK    4  A    between atoms: C_11  and  O_13
REMARK    5  A    between atoms: C_14  and  N_17
REMARK    6  A    between atoms: C_15  and  C_30
REMARK    7  A    between atoms: C_31  and  C_32
REMARK                            x       y       z     vdW  Elec       q    Type
REMARK                         _______ _______ _______ _____ _____    ______ ____
ROOT
ATOM      1  C   UNL     1      45.284  35.615  44.211  0.00  0.00    +0.000 A 
ATOM      2  C   UNL     1      46.244  34.862  43.524  0.00  0.00    +0.000 A 
ATOM      3  C   UNL     1      46.710  33.667  44.084  0.00  0.00    +0.000 A 
ATOM      4  N   UNL     1      46.203  33.306  45.261  0.00  0.00    +0.000 NA
ATOM      5  C   UNL     1      45.276  34.041  45.915  0.00  0.00    +0.000 A 
ATOM      6  N   UNL     1      44.813  35.195  45.395  0.00  0.00    +0.000 NA
ATOM      7  H   UNL     1      46.582  35.247  42.583  0.00  0.00    +0.000 HD
ATOM      8  H   UNL     1      44.897  33.704  46.867  0.00  0.00    +0.000 HD
ENDROOT
BRANCH   3  10
ATOM      9  C   UNL     1      48.689  33.773  42.584  0.00  0.00    +0.000 C 
ATOM     10  C   UNL     1      47.712  32.926  43.320  0.00  0.00    +0.000 C 
ATOM     11  O   UNL     1      47.163  32.160  42.249  0.00  0.00    +0.000 OA
ATOM     12  C   UNL     1      48.299  31.672  41.634  0.00  0.00    +0.000 C 
ATOM     13  C   UNL     1      49.428  32.646  41.831  0.00  0.00    +0.000 C 
ATOM     14  H   UNL     1      48.233  34.370  41.765  0.00  0.00    +0.000 HD
ATOM     15  H   UNL     1      48.250  32.165  43.918  0.00  0.00    +0.000 HD
ATOM     16  H   UNL     1      48.575  30.733  42.157  0.00  0.00    +0.000 HD
ATOM     17  H   UNL     1      48.125  31.398  40.568  0.00  0.00    +0.000 HD
ATOM     18  H   UNL     1      50.222  32.261  42.482  0.00  0.00    +0.000 HD
BRANCH   9  19
ATOM     19  O   UNL     1      49.495  34.540  43.369  0.00  0.00    +0.000 OA
ATOM     20  H   UNL     1      49.806  35.331  42.849  0.00  0.00    +0.000 HD
ENDBRANCH   9  19
BRANCH  13  21
ATOM     21  O   UNL     1      49.941  33.151  40.646  0.00  0.00    +0.000 OA
ATOM     22  H   UNL     1      49.768  32.563  39.869  0.00  0.00    +0.000 HD
ENDBRANCH  13  21
ENDBRANCH   3  10
BRANCH   1  23
ATOM     23  C   UNL     1      44.804  36.901  43.592  0.00  0.00    +0.000 C 
ATOM     24  H   UNL     1      43.794  36.805  43.193  0.00  0.00    +0.000 HD
ATOM     25  H   UNL     1      45.511  37.191  42.785  0.00  0.00    +0.000 HD
BRANCH  23  28
ATOM     26  C   UNL     1      45.328  39.265  44.478  0.00  0.00    +0.000 C 
ATOM     27  O   UNL     1      45.634  39.618  43.306  0.00  0.00    +0.000 OA
ATOM     28  N   UNL     1      44.907  37.919  44.613  0.00  0.00    +0.000 N 
ATOM     29  H   UNL     1      44.629  37.615  45.593  0.00  0.00    +0.000 HD
BRANCH  26  30
ATOM     30  C   UNL     1      45.404  40.172  45.591  0.00  0.00    +0.000 C 
ATOM     31  C   UNL     1      46.530  40.528  46.138  0.00  0.00    +0.000 C 
BRANCH  31  32
ATOM     32  C   UNL     1      47.812  40.009  45.635  0.00  0.00    +0.000 C 
ATOM     33  H   UNL     1      47.906  38.892  45.706  0.00  0.00    +0.000 HD
ENDBRANCH  31  32
ENDBRANCH  26  30
ENDBRANCH  23  28
ENDBRANCH   1  23
TORSDOF 7
