
 OpenBabel03252508423D

 23 24  0  0  0  0  0  0  0  0999 V2000
   47.1700   33.8100   39.7820 C   0  0  0  0  0  0  0  0  0  0  0  0
   46.1070   34.0110   40.6210 C   0  0  0  0  0  0  0  0  0  0  0  0
   46.2410   34.7790   41.7560 C   0  0  0  0  0  0  0  0  0  0  0  0
   47.4650   35.3390   42.0280 C   0  0  0  0  0  0  0  0  0  0  0  0
   48.5700   35.1710   41.2200 C   0  0  0  0  0  0  0  0  0  0  0  0
   48.3530   34.3840   40.0940 C   0  0  0  0  0  0  0  0  0  0  0  0
   45.4740   34.9860   42.4600 H   0  0  0  0  0  0  0  0  0  0  0  0
   47.6240   35.9550   42.9140 H   0  0  0  0  0  0  0  0  0  0  0  0
   49.5390   35.6180   41.4410 H   0  0  0  0  0  0  0  0  0  0  0  0
   49.1870   34.2190   39.4230 H   0  0  0  0  0  0  0  0  0  0  0  0
   46.3460   32.6340   36.2820 C   0  0  0  0  0  0  0  0  0  0  0  0
   46.5450   33.5150   37.3700 C   0  0  0  0  0  0  0  0  0  0  0  0
   46.9410   32.9880   38.6080 C   0  0  0  0  0  0  0  0  0  0  0  0
   47.1090   31.6560   38.6790 N   0  0  0  0  0  0  0  0  0  0  0  0
   46.9170   30.8220   37.6360 C   0  0  0  0  0  0  0  0  0  0  0  0
   46.5360   31.3100   36.4380 N   0  0  0  0  0  0  0  0  0  0  0  0
   46.0440   33.1360   35.3810 H   0  0  0  0  0  0  0  0  0  0  0  0
   46.4120   34.5860   37.3180 H   0  0  0  0  0  0  0  0  0  0  0  0
   47.0710   29.7480   37.7620 H   0  0  0  0  0  0  0  0  0  0  0  0
   44.8060   33.4150   40.3320 C   0  0  0  0  0  3  0  0  0  0  0  0
   43.6830   34.0790   40.1060 C   0  0  0  0  0  3  0  0  0  0  0  0
   42.3850   33.4330   39.8160 C   0  0  0  0  0  2  0  0  0  0  0  0
   41.7240   33.4070   40.7050 H   0  0  0  0  0  0  0  0  0  0  0  0
  1  6  2  0  0  0  0
  1  2  1  0  0  0  0
  2  3  2  0  0  0  0
  3  4  1  0  0  0  0
  3  7  1  0  0  0  0
  4  8  1  0  0  0  0
  5  9  1  0  0  0  0
  5  4  2  0  0  0  0
  6  5  1  0  0  0  0
 10  6  1  0  0  0  0
 11 16  2  0  0  0  0
 11 12  1  0  0  0  0
 12 13  2  0  0  0  0
 13 14  1  0  0  0  0
 13  1  1  0  0  0  0
 15 19  1  0  0  0  0
 15 14  2  0  0  0  0
 16 15  1  0  0  0  0
 17 11  1  0  0  0  0
 18 12  1  0  0  0  0
 20  2  1  0  0  0  0
 21 20  2  0  0  0  0
 22 21  1  0  0  0  0
 22 23  1  0  0  0  0
M  END
>  <minimizedAffinity>
-3.74290967

>  <minimizedRMSD>
6.23787308

$$$$
