
 OpenBabel03252504103D

 20 20  0  0  0  0  0  0  0  0999 V2000
   47.1040   34.2100   42.9780 C   0  0  0  0  0  0  0  0  0  0  0  0
   45.7410   34.3460   43.2500 C   0  0  0  0  0  0  0  0  0  0  0  0
   45.1220   33.3260   43.9880 C   0  0  0  0  0  0  0  0  0  0  0  0
   45.8630   32.2680   44.4000 N   0  0  0  0  0  0  0  0  0  0  0  0
   47.1820   32.1850   44.1090 C   0  0  0  0  0  0  0  0  0  0  0  0
   47.8050   33.1530   43.4000 N   0  0  0  0  0  0  0  0  0  0  0  0
   44.0620   33.4070   44.2130 H   0  0  0  0  0  0  0  0  0  0  0  0
   45.0060   35.5310   42.7650 C   0  0  0  0  0  0  0  0  0  0  0  0
   45.7450   36.6830   43.0300 F   0  0  0  0  0  0  0  0  0  0  0  0
   44.9060   35.4420   41.3900 F   0  0  0  0  0  0  0  0  0  0  0  0
   43.7810   35.7050   43.3000 F   0  0  0  0  0  0  0  0  0  0  0  0
   47.9580   31.0370   44.5620 C   0  0  0  0  0  0  0  0  0  0  0  0
   47.6480   30.4020   45.6810 C   0  0  0  0  0  0  0  0  0  0  0  0
   48.4410   29.2310   46.1400 C   0  0  0  0  0  0  0  0  0  0  0  0
   49.3830   29.2210   45.5730 H   0  0  0  0  0  0  0  0  0  0  0  0
   47.6910   35.2050   42.2620 O   0  0  0  0  0  0  0  0  0  0  0  0
   48.9750   35.1940   41.6930 C   0  0  0  0  0  0  0  0  0  0  0  0
   49.8810   35.3460   42.7410 F   0  0  0  0  0  0  0  0  0  0  0  0
   49.1640   34.0300   40.9920 F   0  0  0  0  0  0  0  0  0  0  0  0
   49.1470   36.3230   40.9090 F   0  0  0  0  0  0  0  0  0  0  0  0
  1  2  2  0  0  0  0
  1  6  1  0  0  0  0
  2  3  1  0  0  0  0
  3  7  1  0  0  0  0
  3  4  2  0  0  0  0
  5  4  1  0  0  0  0
  5 12  1  0  0  0  0
  6  5  2  0  0  0  0
  8  9  1  0  0  0  0
  8  2  1  0  0  0  0
  8 11  1  0  0  0  0
 10  8  1  0  0  0  0
 12 13  2  0  0  0  0
 13 14  1  0  0  0  0
 15 14  1  0  0  0  0
 16  1  1  0  0  0  0
 17 16  1  0  0  0  0
 17 18  1  0  0  0  0
 19 17  1  0  0  0  0
 20 17  1  0  0  0  0
M  END
>  <minimizedAffinity>
-4.70115185

>  <minimizedRMSD>
0.745098174

$$$$
