REMARK  Name = 
REMARK  7 active torsions:
REMARK  status: ('A' for Active; 'I' for Inactive)
REMARK    1  A    between atoms: C_1  and  C_4
REMARK    2  A    between atoms: C_1  and  C_10
REMARK    3  A    between atoms: C_8  and  O_9
REMARK    4  A    between atoms: C_10  and  C_11
REMARK    5  A    between atoms: C_15  and  C_17
REMARK    6  A    between atoms: C_19  and  C_34
REMARK    7  A    between atoms: C_35  and  C_36
REMARK                            x       y       z     vdW  Elec       q    Type
REMARK                         _______ _______ _______ _____ _____    ______ ____
ROOT
ATOM      1  C   UNL     1      48.332  34.210  40.914  0.00  0.00    +0.000 A 
ATOM      2  C   UNL     1      47.839  34.326  39.639  0.00  0.00    +0.000 A 
ATOM      3  C   UNL     1      48.209  33.455  38.604  0.00  0.00    +0.000 A 
ATOM      4  N   UNL     1      49.093  32.485  38.953  0.00  0.00    +0.000 NA
ATOM      5  C   UNL     1      49.568  32.381  40.202  0.00  0.00    +0.000 A 
ATOM      6  N   UNL     1      49.191  33.228  41.153  0.00  0.00    +0.000 NA
ATOM      7  H   UNL     1      47.126  35.135  39.424  0.00  0.00    +0.000 HD
ATOM      8  H   UNL     1      47.813  33.561  37.606  0.00  0.00    +0.000 HD
ENDROOT
BRANCH   5   9
ATOM      9  C   UNL     1      50.527  31.302  40.593  0.00  0.00    +0.000 C 
ATOM     10  C   UNL     1      51.141  31.341  41.960  0.00  0.00    +0.000 C 
ATOM     11  C   UNL     1      51.954  31.670  40.697  0.00  0.00    +0.000 C 
ATOM     12  H   UNL     1      50.314  30.341  40.059  0.00  0.00    +0.000 HD
ATOM     13  H   UNL     1      50.802  32.147  42.618  0.00  0.00    +0.000 HD
ATOM     14  H   UNL     1      51.440  30.380  42.422  0.00  0.00    +0.000 HD
ATOM     15  H   UNL     1      52.702  30.880  40.394  0.00  0.00    +0.000 HD
BRANCH  11  16
ATOM     16  C   UNL     1      52.484  33.038  40.676  0.00  0.00    +0.000 C 
ATOM     17  C   UNL     1      52.263  34.270  41.117  0.00  0.00    +0.000 C 
BRANCH  17  18
ATOM     18  C   UNL     1      51.186  34.825  41.962  0.00  0.00    +0.000 C 
ATOM     19  H   UNL     1      51.086  34.201  42.900  0.00  0.00    +0.000 HD
ENDBRANCH  17  18
ENDBRANCH  11  16
ENDBRANCH   5   9
BRANCH   1  20
ATOM     20  C   UNL     1      47.936  35.118  41.976  0.00  0.00    +0.000 C 
ATOM     21  H   UNL     1      48.564  35.000  42.883  0.00  0.00    +0.000 HD
ATOM     22  H   UNL     1      48.124  36.186  41.657  0.00  0.00    +0.000 HD
BRANCH  20  23
ATOM     23  C   UNL     1      46.507  34.959  42.306  0.00  0.00    +0.000 C 
ATOM     24  H   UNL     1      45.940  34.285  41.615  0.00  0.00    +0.000 HD
ATOM     25  H   UNL     1      45.966  35.931  42.236  0.00  0.00    +0.000 HD
BRANCH  23  28
ATOM     26 CL   UNL     1      44.569  36.414  44.026  0.00  0.00    +0.000 Cl
ATOM     27  C   UNL     1      45.386  34.976  44.550  0.00  0.00    +0.000 A 
ATOM     28  C   UNL     1      46.265  34.384  43.669  0.00  0.00    +0.000 A 
ATOM     29  C   UNL     1      46.919  33.241  44.074  0.00  0.00    +0.000 A 
ATOM     30  C   UNL     1      46.702  32.700  45.329  0.00  0.00    +0.000 A 
ATOM     31  C   UNL     1      45.805  33.312  46.215  0.00  0.00    +0.000 A 
ATOM     32  C   UNL     1      45.154  34.461  45.795  0.00  0.00    +0.000 A 
ATOM     33  H   UNL     1      47.622  32.730  43.423  0.00  0.00    +0.000 HD
ATOM     34  H   UNL     1      47.211  31.800  45.660  0.00  0.00    +0.000 HD
ATOM     35  H   UNL     1      45.621  32.904  47.201  0.00  0.00    +0.000 HD
BRANCH  32  36
ATOM     36  O   UNL     1      44.242  35.142  46.611  0.00  0.00    +0.000 OA
ATOM     37  H   UNL     1      43.756  34.546  47.278  0.00  0.00    +0.000 HD
ENDBRANCH  32  36
ENDBRANCH  23  28
ENDBRANCH  20  23
ENDBRANCH   1  20
TORSDOF 7
