
 OpenBabel03242513513D

 29 30  0  0  1  0  0  0  0  0999 V2000
   46.7030   34.3940   43.6440 C   0  0  2  0  0  0  0  0  0  0  0  0
   46.4110   33.1520   44.4670 C   0  0  0  0  0  0  0  0  0  0  0  0
   45.7320   33.8190   45.6490 C   0  0  0  0  0  0  0  0  0  0  0  0
   44.9250   34.8930   45.0610 C   0  0  0  0  0  0  0  0  0  0  0  0
   45.3500   35.0160   43.5160 C   0  0  2  0  0  0  0  0  0  0  0  0
   47.3450   35.0580   44.2260 H   0  0  0  0  0  0  0  0  0  0  0  0
   47.3010   32.5970   44.7590 H   0  0  0  0  0  0  0  0  0  0  0  0
   45.6320   32.5150   43.9830 H   0  0  0  0  0  0  0  0  0  0  0  0
   45.1790   33.0890   46.2710 H   0  0  0  0  0  0  0  0  0  0  0  0
   46.5760   34.2850   46.2320 H   0  0  0  0  0  0  0  0  0  0  0  0
   43.8650   34.6010   44.9950 H   0  0  0  0  0  0  0  0  0  0  0  0
   45.0450   35.8820   45.5440 H   0  0  0  0  0  0  0  0  0  0  0  0
   45.1370   36.0440   43.4720 H   0  0  0  0  0  0  0  0  0  0  0  0
   48.2940   34.6410   40.2430 C   0  0  0  0  0  0  0  0  0  0  0  0
   47.7400   35.0710   41.4630 C   0  0  0  0  0  0  0  0  0  0  0  0
   47.3030   34.1040   42.3220 C   0  0  0  0  0  0  0  0  0  0  0  0
   47.4360   32.7790   41.9370 N   0  0  0  0  0  0  0  0  0  0  0  0
   47.9660   32.4020   40.7720 C   0  0  0  0  0  0  0  0  0  0  0  0
   48.3940   33.3250   39.9270 N   0  0  0  0  0  0  0  0  0  0  0  0
   48.6390   35.3970   39.5610 H   0  0  0  0  0  0  0  0  0  0  0  0
   47.6580   36.1000   41.7190 H   0  0  0  0  0  0  0  0  0  0  0  0
   47.9990   31.3300   40.6210 H   0  0  0  0  0  0  0  0  0  0  0  0
   44.4480   34.2020   42.8240 O   0  0  0  0  0  0  0  0  0  0  0  0
   43.5560   34.5890   41.8670 C   0  0  0  0  0  0  0  0  0  0  0  0
   44.2370   35.0830   40.8960 O   0  0  0  0  0  0  0  0  0  0  0  0
   42.1640   34.7160   41.4110 C   0  0  0  0  0  0  0  0  0  0  0  0
   41.4500   35.7720   41.0590 C   0  0  0  0  0  0  0  0  0  0  0  0
   40.1620   36.3140   40.5870 C   0  0  0  0  0  0  0  0  0  0  0  0
   39.7190   36.9910   41.3470 H   0  0  0  0  0  0  0  0  0  0  0  0
  1  6  1  1  0  0  0
  1  2  1  0  0  0  0
  2  7  1  0  0  0  0
  2  3  1  0  0  0  0
  3 10  1  0  0  0  0
  3  9  1  0  0  0  0
  4 12  1  0  0  0  0
  4  3  1  0  0  0  0
  5 13  1  6  0  0  0
  5  1  1  0  0  0  0
  5  4  1  0  0  0  0
  8  2  1  0  0  0  0
 11  4  1  0  0  0  0
 14 15  1  0  0  0  0
 15 21  1  0  0  0  0
 15 16  2  0  0  0  0
 16  1  1  0  0  0  0
 17 16  1  0  0  0  0
 18 17  2  0  0  0  0
 19 14  2  0  0  0  0
 19 18  1  0  0  0  0
 20 14  1  0  0  0  0
 22 18  1  0  0  0  0
 23  5  1  0  0  0  0
 24 23  1  0  0  0  0
 25 24  2  0  0  0  0
 26 24  1  0  0  0  0
 27 26  2  0  0  0  0
 28 27  1  0  0  0  0
 28 29  1  0  0  0  0
M  END
>  <minimizedAffinity>
-4.63763809

>  <minimizedRMSD>
6.56978273

$$$$
