
 OpenBabel03242510293D

 29 30  0  0  1  0  0  0  0  0999 V2000
   47.0160   34.1200   41.7670 C   0  0  1  0  0  0  0  0  0  0  0  0
   46.1630   33.7430   40.5920 C   0  0  0  0  0  0  0  0  0  0  0  0
   47.1460   33.1300   39.5920 C   0  0  0  0  0  0  0  0  0  0  0  0
   47.9430   34.3060   39.0400 C   0  0  0  0  0  0  0  0  0  0  0  0
   48.6680   35.0480   40.1040 C   0  0  0  0  0  0  0  0  0  0  0  0
   47.9680   35.2390   41.3920 C   0  0  2  0  0  0  0  0  0  0  0  0
   47.6380   33.2470   42.0310 H   0  0  0  0  0  0  0  0  0  0  0  0
   45.3480   33.0730   40.8670 H   0  0  0  0  0  0  0  0  0  0  0  0
   45.7610   34.6570   40.0670 H   0  0  0  0  0  0  0  0  0  0  0  0
   46.6570   32.5910   38.7850 H   0  0  0  0  0  0  0  0  0  0  0  0
   47.8870   32.5100   40.1660 H   0  0  0  0  0  0  0  0  0  0  0  0
   47.1880   34.9960   38.5740 H   0  0  0  0  0  0  0  0  0  0  0  0
   48.6620   33.9210   38.3080 H   0  0  0  0  0  0  0  0  0  0  0  0
   49.6550   34.5620   40.2550 H   0  0  0  0  0  0  0  0  0  0  0  0
   48.8980   36.0590   39.6910 H   0  0  0  0  0  0  0  0  0  0  0  0
   47.3920   36.1820   41.4630 H   0  0  0  0  0  0  0  0  0  0  0  0
   44.7460   35.9950   44.1540 C   0  0  0  0  0  0  0  0  0  0  0  0
   45.4420   35.7130   42.9700 C   0  0  0  0  0  0  0  0  0  0  0  0
   46.2250   34.5420   42.9380 C   0  0  0  0  0  0  0  0  0  0  0  0
   46.2350   33.7850   44.0660 N   0  0  0  0  0  0  0  0  0  0  0  0
   45.5620   34.0780   45.1810 C   0  0  0  0  0  0  0  0  0  0  0  0
   44.8140   35.1830   45.2320 N   0  0  0  0  0  0  0  0  0  0  0  0
   44.1540   36.8910   44.1610 H   0  0  0  0  0  0  0  0  0  0  0  0
   45.4240   36.3150   42.0950 H   0  0  0  0  0  0  0  0  0  0  0  0
   45.6870   33.3590   45.9880 H   0  0  0  0  0  0  0  0  0  0  0  0
   49.0030   35.2800   42.4650 C   0  0  0  0  0  3  0  0  0  0  0  0
   49.9140   34.3470   42.7070 C   0  0  0  0  0  3  0  0  0  0  0  0
   49.9210   33.1520   41.8490 C   0  0  0  0  0  2  0  0  0  0  0  0
   50.6190   32.4150   42.3290 H   0  0  0  0  0  0  0  0  0  0  0  0
  1  7  1  1  0  0  0
  1 19  1  0  0  0  0
  2  8  1  0  0  0  0
  2  1  1  0  0  0  0
  3 11  1  0  0  0  0
  3  2  1  0  0  0  0
  4  3  1  0  0  0  0
  4  5  1  0  0  0  0
  5 14  1  0  0  0  0
  5  6  1  0  0  0  0
  6 16  1  6  0  0  0
  6  1  1  0  0  0  0
  6 26  1  0  0  0  0
  9  2  1  0  0  0  0
 10  3  1  0  0  0  0
 12  4  1  0  0  0  0
 13  4  1  0  0  0  0
 15  5  1  0  0  0  0
 17 23  1  0  0  0  0
 17 22  1  0  0  0  0
 18 17  2  0  0  0  0
 19 18  1  0  0  0  0
 19 20  2  0  0  0  0
 20 21  1  0  0  0  0
 21 22  2  0  0  0  0
 21 25  1  0  0  0  0
 24 18  1  0  0  0  0
 26 27  2  0  0  0  0
 28 29  1  0  0  0  0
 28 27  1  0  0  0  0
M  END
>  <minimizedAffinity>
-5.18776035

>  <minimizedRMSD>
0.730734348

$$$$
