
 OpenBabel03242523463D

 14 14  0  0  0  0  0  0  0  0999 V2000
   45.1040   35.7230   43.5620 C   0  0  0  0  0  0  0  0  0  0  0  0
   46.2530   35.1840   42.9600 C   0  0  0  0  0  0  0  0  0  0  0  0
   46.9140   34.1440   43.6360 C   0  0  0  0  0  0  0  0  0  0  0  0
   46.4180   33.7190   44.8180 N   0  0  0  0  0  0  0  0  0  0  0  0
   45.3080   34.2610   45.3700 C   0  0  0  0  0  0  0  0  0  0  0  0
   44.6630   35.2500   44.7460 N   0  0  0  0  0  0  0  0  0  0  0  0
   46.6300   35.5480   42.0050 H   0  0  0  0  0  0  0  0  0  0  0  0
   44.9490   33.8820   46.3250 H   0  0  0  0  0  0  0  0  0  0  0  0
   44.4560   36.7300   42.9160 O   0  0  0  0  0  0  0  0  0  0  0  0
   44.8590   37.6650   42.9610 H   0  0  0  0  0  0  0  0  0  0  0  0
   48.1150   33.5350   43.0710 C   0  0  0  0  0  0  0  0  0  0  0  0
   49.1750   34.2840   42.8540 C   0  0  0  0  0  0  0  0  0  0  0  0
   50.4090   33.6860   42.2810 C   0  0  0  0  0  0  0  0  0  0  0  0
   50.8690   33.0360   43.0520 H   0  0  0  0  0  0  0  0  0  0  0  0
  1  6  1  0  0  0  0
  2  1  2  0  0  0  0
  2  3  1  0  0  0  0
  3  4  2  0  0  0  0
  4  5  1  0  0  0  0
  5  8  1  0  0  0  0
  6  5  2  0  0  0  0
  7  2  1  0  0  0  0
  9 10  1  0  0  0  0
  9  1  1  0  0  0  0
 11  3  1  0  0  0  0
 12 11  2  0  0  0  0
 13 12  1  0  0  0  0
 13 14  1  0  0  0  0
M  END
>  <minimizedAffinity>
-3.91810751

>  <minimizedRMSD>
0.637443483

$$$$
