
 OpenBabel03252503093D

 22 23  0  0  0  0  0  0  0  0999 V2000
   44.9890   36.1090   43.5910 C   0  0  0  0  0  0  0  0  0  0  0  0
   45.6590   34.9540   43.1400 C   0  0  0  0  0  0  0  0  0  0  0  0
   45.7820   33.9420   44.0840 C   0  0  0  0  0  0  0  0  0  0  0  0
   45.2940   34.0560   45.3380 N   0  0  0  0  0  0  0  0  0  0  0  0
   44.6530   35.1970   45.7240 C   0  0  0  0  0  0  0  0  0  0  0  0
   44.5050   36.2160   44.8450 N   0  0  0  0  0  0  0  0  0  0  0  0
   44.8400   36.9530   42.9380 H   0  0  0  0  0  0  0  0  0  0  0  0
   44.2800   35.2540   46.7210 H   0  0  0  0  0  0  0  0  0  0  0  0
   46.4300   32.7630   43.7220 C   0  0  0  0  0  0  0  0  0  0  0  0
   47.7370   32.3280   43.7600 C   0  0  0  0  0  0  0  0  0  0  0  0
   48.1190   31.1320   43.3400 C   0  0  0  0  0  0  0  0  0  0  0  0
   47.1280   30.3080   42.8480 C   0  0  0  0  0  0  0  0  0  0  0  0
   45.6000   31.3440   43.0180 S   0  0  0  0  0  0  0  0  0  0  0  0
   48.6060   32.8380   44.1460 H   0  0  0  0  0  0  0  0  0  0  0  0
   49.0060   30.5600   43.2530 H   0  0  0  0  0  0  0  0  0  0  0  0
   46.9430   29.3440   42.4290 H   0  0  0  0  0  0  0  0  0  0  0  0
   46.1390   34.8800   41.8120 C   0  0  0  0  0  0  0  0  0  0  0  0
   47.4070   34.9800   41.6890 O   0  0  0  0  0  0  0  0  0  0  0  0
   44.8690   34.7080   41.0520 C   0  0  0  0  0  3  0  0  0  0  0  0
   43.9130   33.8480   40.7760 C   0  0  0  0  0  3  0  0  0  0  0  0
   42.8440   34.3420   39.8790 C   0  0  0  0  0  2  0  0  0  0  0  0
   41.8470   34.3280   40.3770 H   0  0  0  0  0  0  0  0  0  0  0  0
  1  6  1  0  0  0  0
  2  1  2  0  0  0  0
  2  3  1  0  0  0  0
  3  4  2  0  0  0  0
  4  5  1  0  0  0  0
  5  8  1  0  0  0  0
  6  5  2  0  0  0  0
  7  1  1  0  0  0  0
  9 10  2  0  0  0  0
  9  3  1  0  0  0  0
 10 14  1  0  0  0  0
 11 10  1  0  0  0  0
 12 13  1  0  0  0  0
 12 11  2  0  0  0  0
 13  9  1  0  0  0  0
 15 11  1  0  0  0  0
 16 12  1  0  0  0  0
 17  2  1  0  0  0  0
 18 17  2  0  0  0  0
 19 17  1  0  0  0  0
 20 19  2  0  0  0  0
 21 22  1  0  0  0  0
 21 20  1  0  0  0  0
M  END
>  <minimizedAffinity>
-3.97060966

>  <minimizedRMSD>
1.38792729

$$$$
