
 OpenBabel03252506483D

 24 25  0  0  0  0  0  0  0  0999 V2000
   47.3730   34.9290   41.9340 S   0  0  0  0  0  0  0  0  0  0  0  0
   49.5310   32.7260   41.0850 Cl  0  0  0  0  0  0  0  0  0  0  0  0
   47.9380   32.6720   40.3520 C   0  0  0  0  0  0  0  0  0  0  0  0
   47.0710   33.6440   40.7630 C   0  0  0  0  0  0  0  0  0  0  0  0
   45.7950   33.6390   40.2070 C   0  0  0  0  0  0  0  0  0  0  0  0
   45.4510   32.6700   39.2730 C   0  0  0  0  0  0  0  0  0  0  0  0
   46.3250   31.6910   38.8610 C   0  0  0  0  0  0  0  0  0  0  0  0
   47.6050   31.7010   39.4220 C   0  0  0  0  0  0  0  0  0  0  0  0
   48.8000   30.5080   38.9760 Cl  0  0  0  0  0  0  0  0  0  0  0  0
   45.0370   34.3650   40.4660 H   0  0  0  0  0  0  0  0  0  0  0  0
   44.4490   32.6620   38.8340 H   0  0  0  0  0  0  0  0  0  0  0  0
   46.0480   30.9350   38.1290 H   0  0  0  0  0  0  0  0  0  0  0  0
   46.3970   34.7710   43.4290 C   0  0  0  0  0  0  0  0  0  0  0  0
   45.3530   35.6980   43.5440 C   0  0  0  0  0  0  0  0  0  0  0  0
   44.5440   35.6350   44.6930 C   0  0  0  0  0  0  0  0  0  0  0  0
   44.8170   34.6810   45.6290 N   0  0  0  0  0  0  0  0  0  0  0  0
   45.8330   33.8160   45.4670 C   0  0  0  0  0  0  0  0  0  0  0  0
   46.6400   33.8410   44.3720 N   0  0  0  0  0  0  0  0  0  0  0  0
   45.1480   36.4500   42.7950 H   0  0  0  0  0  0  0  0  0  0  0  0
   43.7220   36.3100   44.8600 H   0  0  0  0  0  0  0  0  0  0  0  0
   46.0830   32.8140   46.4980 C   0  0  0  0  0  3  0  0  0  0  0  0
   45.3340   32.8050   47.5900 C   0  0  0  0  0  3  0  0  0  0  0  0
   45.4450   31.8700   48.7270 C   0  0  0  0  0  2  0  0  0  0  0  0
   44.4900   31.2830   48.8450 H   0  0  0  0  0  0  0  0  0  0  0  0
  1 13  1  0  0  0  0
  3  4  1  0  0  0  0
  3  2  1  0  0  0  0
  4  1  1  0  0  0  0
  5 10  1  0  0  0  0
  5  4  2  0  0  0  0
  6  5  1  0  0  0  0
  7  6  2  0  0  0  0
  7  8  1  0  0  0  0
  8  3  2  0  0  0  0
  9  8  1  0  0  0  0
 11  6  1  0  0  0  0
 12  7  1  0  0  0  0
 13 14  2  0  0  0  0
 13 18  1  0  0  0  0
 14 15  1  0  0  0  0
 15 20  1  0  0  0  0
 15 16  2  0  0  0  0
 17 16  1  0  0  0  0
 17 21  1  0  0  0  0
 18 17  2  0  0  0  0
 19 14  1  0  0  0  0
 21 22  2  0  0  0  0
 22 23  1  0  0  0  0
 23 24  1  0  0  0  0
M  END
>  <minimizedAffinity>
-4.58183098

>  <minimizedRMSD>
5.67508745

$$$$
