
 OpenBabel03242518263D

 40 43  0  0  1  0  0  0  0  0999 V2000
   40.4490   31.3450   40.9520 C   0  0  0  0  0  0  0  0  0  0  0  0
   39.5740   32.3900   40.6890 C   0  0  0  0  0  0  0  0  0  0  0  0
   38.2220   32.0920   40.6750 C   0  0  0  0  0  0  0  0  0  0  0  0
   37.7940   30.8270   40.9120 N   0  0  0  0  0  0  0  0  0  0  0  0
   38.6830   29.8330   41.1650 C   0  0  0  0  0  0  0  0  0  0  0  0
   39.9930   30.0990   41.1830 N   0  0  0  0  0  0  0  0  0  0  0  0
   41.5200   31.5040   40.9790 H   0  0  0  0  0  0  0  0  0  0  0  0
   37.5560   32.9220   40.4680 H   0  0  0  0  0  0  0  0  0  0  0  0
   40.1480   33.6600   40.4600 N   0  0  0  0  0  0  0  0  0  0  0  0
   39.3110   34.8100   40.6540 C   0  0  0  0  0  0  0  0  0  0  0  0
   39.9730   36.0920   40.2940 C   0  0  0  0  0  0  0  0  0  0  0  0
   41.2870   36.2230   40.8510 N   0  0  0  0  0  0  0  0  0  0  0  0
   42.0890   35.0590   40.8820 C   0  0  0  0  0  0  0  0  0  0  0  0
   41.4990   33.9410   40.0460 C   0  0  0  0  0  0  0  0  0  0  0  0
   39.0100   34.8450   41.7070 H   0  0  0  0  0  0  0  0  0  0  0  0
   38.3720   34.7400   40.0470 H   0  0  0  0  0  0  0  0  0  0  0  0
   39.3440   36.9300   40.6310 H   0  0  0  0  0  0  0  0  0  0  0  0
   40.0850   36.1330   39.1820 H   0  0  0  0  0  0  0  0  0  0  0  0
   41.1950   36.6730   41.7930 H   0  0  0  0  0  0  0  0  0  0  0  0
   43.1250   35.2520   40.5650 H   0  0  0  0  0  0  0  0  0  0  0  0
   42.1700   34.7210   41.9570 H   0  0  0  0  0  0  0  0  0  0  0  0
   42.1400   33.0520   40.2520 H   0  0  0  0  0  0  0  0  0  0  0  0
   41.5640   34.2660   38.9970 H   0  0  0  0  0  0  0  0  0  0  0  0
   37.4610   28.1850   42.5300 C   0  0  0  0  0  0  0  0  0  0  0  0
   38.1550   28.4820   41.4140 C   0  0  0  0  0  0  0  0  0  0  0  0
   38.3730   27.4790   40.4730 C   0  0  0  0  0  0  0  0  0  0  0  0
   37.8790   26.2130   40.7040 C   0  0  0  0  0  0  0  0  0  0  0  0
   37.1700   25.9260   41.8550 C   0  0  0  0  0  0  0  0  0  0  0  0
   36.9470   26.9260   42.8050 C   0  0  0  0  0  0  0  0  0  0  0  0
   36.7980   24.5770   41.8180 O   0  0  0  0  0  0  0  0  0  0  0  0
   37.5810   23.9540   40.8040 C   0  0  2  0  0  0  0  0  0  0  0  0
   37.9370   25.0210   39.9570 O   0  0  0  0  0  0  0  0  0  0  0  0
   37.3120   28.9950   43.2410 H   0  0  0  0  0  0  0  0  0  0  0  0
   38.9240   27.6680   39.5600 H   0  0  0  0  0  0  0  0  0  0  0  0
   36.3960   26.7440   43.7190 H   0  0  0  0  0  0  0  0  0  0  0  0
   38.5130   23.5110   41.1960 H   0  0  0  0  0  0  0  0  0  0  0  0
   36.7210   22.9410   40.1700 C   0  0  0  0  0  3  0  0  0  0  0  0
   37.1100   21.8550   39.5400 C   0  0  0  0  0  3  0  0  0  0  0  0
   38.5550   21.5590   39.4220 C   0  0  0  0  0  2  0  0  0  0  0  0
   38.6810   20.5410   38.9880 H   0  0  0  0  0  0  0  0  0  0  0  0
  1  7  1  0  0  0  0
  1  6  1  0  0  0  0
  2  1  2  0  0  0  0
  3  2  1  0  0  0  0
  3  4  2  0  0  0  0
  4  5  1  0  0  0  0
  5  6  2  0  0  0  0
  5 25  1  0  0  0  0
  8  3  1  0  0  0  0
  9 10  1  0  0  0  0
  9  2  1  0  0  0  0
 10 15  1  0  0  0  0
 11 17  1  0  0  0  0
 11 10  1  0  0  0  0
 11 12  1  0  0  0  0
 12 13  1  0  0  0  0
 12 19  1  0  0  0  0
 13 21  1  0  0  0  0
 14 22  1  0  0  0  0
 14  9  1  0  0  0  0
 14 13  1  0  0  0  0
 16 10  1  0  0  0  0
 18 11  1  0  0  0  0
 20 13  1  0  0  0  0
 23 14  1  0  0  0  0
 24 29  1  0  0  0  0
 24 33  1  0  0  0  0
 25 24  2  0  0  0  0
 26 27  2  0  0  0  0
 26 25  1  0  0  0  0
 27 28  1  0  0  0  0
 28 29  2  0  0  0  0
 29 35  1  0  0  0  0
 30 28  1  0  0  0  0
 31 36  1  1  0  0  0
 31 30  1  0  0  0  0
 32 27  1  0  0  0  0
 32 31  1  0  0  0  0
 34 26  1  0  0  0  0
 37 31  1  0  0  0  0
 38 37  2  0  0  0  0
 39 38  1  0  0  0  0
 40 39  1  0  0  0  0
M  END
>  <minimizedAffinity>
-5.68790913

$$$$

 OpenBabel03242518263D

 40 43  0  0  1  0  0  0  0  0999 V2000
   37.4700   27.8970   38.8530 C   0  0  0  0  0  0  0  0  0  0  0  0
   36.9520   27.2940   39.9890 C   0  0  0  0  0  0  0  0  0  0  0  0
   36.7740   28.0960   41.1050 C   0  0  0  0  0  0  0  0  0  0  0  0
   37.1000   29.4120   41.0630 N   0  0  0  0  0  0  0  0  0  0  0  0
   37.6050   29.9640   39.9310 C   0  0  0  0  0  0  0  0  0  0  0  0
   37.7850   29.2070   38.8440 N   0  0  0  0  0  0  0  0  0  0  0  0
   37.6360   27.3320   37.9440 H   0  0  0  0  0  0  0  0  0  0  0  0
   36.3670   27.6050   41.9810 H   0  0  0  0  0  0  0  0  0  0  0  0
   36.6540   25.9160   39.9010 N   0  0  0  0  0  0  0  0  0  0  0  0
   36.0300   25.4480   38.6960 C   0  0  0  0  0  0  0  0  0  0  0  0
   35.6680   24.0070   38.7370 C   0  0  0  0  0  0  0  0  0  0  0  0
   36.7330   23.1710   39.2080 N   0  0  0  0  0  0  0  0  0  0  0  0
   37.5260   23.6780   40.2640 C   0  0  0  0  0  0  0  0  0  0  0  0
   36.9070   24.9070   40.8980 C   0  0  0  0  0  0  0  0  0  0  0  0
   36.7190   25.6210   37.8610 H   0  0  0  0  0  0  0  0  0  0  0  0
   35.0930   26.0190   38.4720 H   0  0  0  0  0  0  0  0  0  0  0  0
   35.3620   23.6820   37.7310 H   0  0  0  0  0  0  0  0  0  0  0  0
   34.8140   23.8770   39.4460 H   0  0  0  0  0  0  0  0  0  0  0  0
   37.3060   22.8810   38.3790 H   0  0  0  0  0  0  0  0  0  0  0  0
   37.7270   22.9220   41.0390 H   0  0  0  0  0  0  0  0  0  0  0  0
   38.5390   23.9420   39.8430 H   0  0  0  0  0  0  0  0  0  0  0  0
   37.6740   25.2830   41.6170 H   0  0  0  0  0  0  0  0  0  0  0  0
   35.9910   24.5710   41.4060 H   0  0  0  0  0  0  0  0  0  0  0  0
   37.0660   32.3350   39.5340 C   0  0  0  0  0  0  0  0  0  0  0  0
   37.9380   31.3970   39.9510 C   0  0  0  0  0  0  0  0  0  0  0  0
   39.1870   31.8010   40.4140 C   0  0  0  0  0  0  0  0  0  0  0  0
   39.5010   33.1440   40.4350 C   0  0  0  0  0  0  0  0  0  0  0  0
   38.5940   34.0930   40.0020 C   0  0  0  0  0  0  0  0  0  0  0  0
   37.3380   33.6950   39.5360 C   0  0  0  0  0  0  0  0  0  0  0  0
   39.1800   35.3560   40.1360 O   0  0  0  0  0  0  0  0  0  0  0  0
   40.5780   35.1520   40.3240 C   0  0  2  0  0  0  0  0  0  0  0  0
   40.6550   33.8420   40.8370 O   0  0  0  0  0  0  0  0  0  0  0  0
   36.1000   31.9800   39.1800 H   0  0  0  0  0  0  0  0  0  0  0  0
   39.9230   31.0860   40.7610 H   0  0  0  0  0  0  0  0  0  0  0  0
   36.5980   34.4060   39.1890 H   0  0  0  0  0  0  0  0  0  0  0  0
   41.1440   35.1750   39.3770 H   0  0  0  0  0  0  0  0  0  0  0  0
   41.0350   36.1940   41.2580 C   0  0  0  0  0  3  0  0  0  0  0  0
   42.1720   36.2230   41.9160 C   0  0  0  0  0  3  0  0  0  0  0  0
   43.1430   35.1200   41.7430 C   0  0  0  0  0  2  0  0  0  0  0  0
   44.0910   35.3900   42.2620 H   0  0  0  0  0  0  0  0  0  0  0  0
  1  2  1  0  0  0  0
  2  3  2  0  0  0  0
  3  8  1  0  0  0  0
  4  3  1  0  0  0  0
  5 25  1  0  0  0  0
  5  4  2  0  0  0  0
  6  1  2  0  0  0  0
  6  5  1  0  0  0  0
  7  1  1  0  0  0  0
  9  2  1  0  0  0  0
  9 14  1  0  0  0  0
 10 11  1  0  0  0  0
 10  9  1  0  0  0  0
 11 12  1  0  0  0  0
 11 18  1  0  0  0  0
 12 13  1  0  0  0  0
 13 14  1  0  0  0  0
 13 20  1  0  0  0  0
 14 23  1  0  0  0  0
 14 22  1  0  0  0  0
 15 10  1  0  0  0  0
 16 10  1  0  0  0  0
 17 11  1  0  0  0  0
 19 12  1  0  0  0  0
 21 13  1  0  0  0  0
 24 29  2  0  0  0  0
 24 25  1  0  0  0  0
 25 26  2  0  0  0  0
 26 27  1  0  0  0  0
 26 34  1  0  0  0  0
 27 32  1  0  0  0  0
 28 30  1  0  0  0  0
 28 27  2  0  0  0  0
 29 28  1  0  0  0  0
 30 31  1  0  0  0  0
 31 36  1  6  0  0  0
 31 32  1  0  0  0  0
 31 37  1  0  0  0  0
 33 24  1  0  0  0  0
 35 29  1  0  0  0  0
 37 38  2  0  0  0  0
 39 38  1  0  0  0  0
 39 40  1  0  0  0  0
M  END
>  <minimizedAffinity>
-5.66975784

$$$$

 OpenBabel03242518263D

 40 43  0  0  1  0  0  0  0  0999 V2000
   39.7200   31.4650   41.8360 C   0  0  0  0  0  0  0  0  0  0  0  0
   39.1850   32.2540   40.8280 C   0  0  0  0  0  0  0  0  0  0  0  0
   38.2430   31.6670   39.9990 C   0  0  0  0  0  0  0  0  0  0  0  0
   37.8750   30.3760   40.1840 N   0  0  0  0  0  0  0  0  0  0  0  0
   38.4220   29.6370   41.1820 C   0  0  0  0  0  0  0  0  0  0  0  0
   39.3330   30.1840   41.9940 N   0  0  0  0  0  0  0  0  0  0  0  0
   40.4610   31.8560   42.5220 H   0  0  0  0  0  0  0  0  0  0  0  0
   37.8380   32.3020   39.2190 H   0  0  0  0  0  0  0  0  0  0  0  0
   39.6540   33.5840   40.7430 N   0  0  0  0  0  0  0  0  0  0  0  0
   41.0100   33.7830   40.3150 C   0  0  0  0  0  0  0  0  0  0  0  0
   41.4400   35.2060   40.3510 C   0  0  0  0  0  0  0  0  0  0  0  0
   40.4960   36.0960   39.7410 N   0  0  0  0  0  0  0  0  0  0  0  0
   39.1250   35.8200   39.9540 C   0  0  0  0  0  0  0  0  0  0  0  0
   38.9170   34.7850   41.0420 C   0  0  0  0  0  0  0  0  0  0  0  0
   41.1070   33.4050   39.2900 H   0  0  0  0  0  0  0  0  0  0  0  0
   41.7280   33.2030   40.9490 H   0  0  0  0  0  0  0  0  0  0  0  0
   42.4140   35.3020   39.8490 H   0  0  0  0  0  0  0  0  0  0  0  0
   41.5380   35.5190   41.4200 H   0  0  0  0  0  0  0  0  0  0  0  0
   40.7360   36.1730   38.7240 H   0  0  0  0  0  0  0  0  0  0  0  0
   38.5450   36.7260   40.1890 H   0  0  0  0  0  0  0  0  0  0  0  0
   38.6910   35.4380   38.9850 H   0  0  0  0  0  0  0  0  0  0  0  0
   37.8240   34.5610   41.0270 H   0  0  0  0  0  0  0  0  0  0  0  0
   39.2320   35.2540   41.9860 H   0  0  0  0  0  0  0  0  0  0  0  0
   37.3460   27.8100   42.4380 C   0  0  0  0  0  0  0  0  0  0  0  0
   37.9790   28.2410   41.3300 C   0  0  0  0  0  0  0  0  0  0  0  0
   38.2170   27.3360   40.2990 C   0  0  0  0  0  0  0  0  0  0  0  0
   37.8020   26.0290   40.4350 C   0  0  0  0  0  0  0  0  0  0  0  0
   37.1550   25.6040   41.5800 C   0  0  0  0  0  0  0  0  0  0  0  0
   36.9120   26.5060   42.6200 C   0  0  0  0  0  0  0  0  0  0  0  0
   36.8560   24.2440   41.4380 O   0  0  0  0  0  0  0  0  0  0  0  0
   37.6340   23.7550   40.3490 C   0  0  2  0  0  0  0  0  0  0  0  0
   37.8980   24.9100   39.5870 O   0  0  0  0  0  0  0  0  0  0  0  0
   37.1780   28.5470   43.2220 H   0  0  0  0  0  0  0  0  0  0  0  0
   38.7210   27.6340   39.3880 H   0  0  0  0  0  0  0  0  0  0  0  0
   36.4080   26.2140   43.5330 H   0  0  0  0  0  0  0  0  0  0  0  0
   38.6030   23.3360   40.6700 H   0  0  0  0  0  0  0  0  0  0  0  0
   36.8080   22.7510   39.6580 C   0  0  0  0  0  3  0  0  0  0  0  0
   37.0930   21.4810   39.4770 C   0  0  0  0  0  3  0  0  0  0  0  0
   38.3670   20.9380   40.0000 C   0  0  0  0  0  2  0  0  0  0  0  0
   38.3640   19.8310   39.8760 H   0  0  0  0  0  0  0  0  0  0  0  0
  1  6  1  0  0  0  0
  1  7  1  0  0  0  0
  2  1  2  0  0  0  0
  3  4  2  0  0  0  0
  3  2  1  0  0  0  0
  4  5  1  0  0  0  0
  5 25  1  0  0  0  0
  5  6  2  0  0  0  0
  8  3  1  0  0  0  0
  9  2  1  0  0  0  0
  9 14  1  0  0  0  0
 10 11  1  0  0  0  0
 10  9  1  0  0  0  0
 10 16  1  0  0  0  0
 11 18  1  0  0  0  0
 12 13  1  0  0  0  0
 12 11  1  0  0  0  0
 13 20  1  0  0  0  0
 13 14  1  0  0  0  0
 14 23  1  0  0  0  0
 15 10  1  0  0  0  0
 17 11  1  0  0  0  0
 19 12  1  0  0  0  0
 21 13  1  0  0  0  0
 22 14  1  0  0  0  0
 24 29  1  0  0  0  0
 24 33  1  0  0  0  0
 25 24  2  0  0  0  0
 26 27  2  0  0  0  0
 26 25  1  0  0  0  0
 27 28  1  0  0  0  0
 28 29  2  0  0  0  0
 29 35  1  0  0  0  0
 30 28  1  0  0  0  0
 31 36  1  1  0  0  0
 31 30  1  0  0  0  0
 32 31  1  0  0  0  0
 32 27  1  0  0  0  0
 34 26  1  0  0  0  0
 37 31  1  0  0  0  0
 38 37  2  0  0  0  0
 38 39  1  0  0  0  0
 40 39  1  0  0  0  0
M  END
>  <minimizedAffinity>
-5.61323881

$$$$

 OpenBabel03242518263D

 40 43  0  0  1  0  0  0  0  0999 V2000
   37.4510   30.7730   37.2350 C   0  0  0  0  0  0  0  0  0  0  0  0
   36.5250   30.0820   38.0030 C   0  0  0  0  0  0  0  0  0  0  0  0
   36.3910   30.4670   39.3270 C   0  0  0  0  0  0  0  0  0  0  0  0
   37.1430   31.4790   39.8280 N   0  0  0  0  0  0  0  0  0  0  0  0
   38.0380   32.1290   39.0420 C   0  0  0  0  0  0  0  0  0  0  0  0
   38.1830   31.7740   37.7620 N   0  0  0  0  0  0  0  0  0  0  0  0
   37.6090   30.5270   36.1920 H   0  0  0  0  0  0  0  0  0  0  0  0
   35.6620   29.9150   39.9100 H   0  0  0  0  0  0  0  0  0  0  0  0
   35.8060   29.0490   37.3610 N   0  0  0  0  0  0  0  0  0  0  0  0
   34.5680   28.6340   37.9570 C   0  0  0  0  0  0  0  0  0  0  0  0
   33.9370   27.4780   37.2670 C   0  0  0  0  0  0  0  0  0  0  0  0
   33.8770   27.6370   35.8430 N   0  0  0  0  0  0  0  0  0  0  0  0
   34.9920   28.2430   35.2190 C   0  0  0  0  0  0  0  0  0  0  0  0
   36.1780   28.3520   36.1570 C   0  0  0  0  0  0  0  0  0  0  0  0
   33.8760   29.4830   37.9430 H   0  0  0  0  0  0  0  0  0  0  0  0
   34.7080   28.3420   39.0300 H   0  0  0  0  0  0  0  0  0  0  0  0
   32.9210   27.3310   37.6640 H   0  0  0  0  0  0  0  0  0  0  0  0
   34.5510   26.5670   37.4670 H   0  0  0  0  0  0  0  0  0  0  0  0
   32.9760   28.1170   35.6100 H   0  0  0  0  0  0  0  0  0  0  0  0
   35.2940   27.7220   34.2980 H   0  0  0  0  0  0  0  0  0  0  0  0
   34.6840   29.2760   34.8830 H   0  0  0  0  0  0  0  0  0  0  0  0
   36.9360   28.9530   35.6010 H   0  0  0  0  0  0  0  0  0  0  0  0
   36.5210   27.3240   36.3480 H   0  0  0  0  0  0  0  0  0  0  0  0
   38.3150   34.4560   39.8040 C   0  0  0  0  0  0  0  0  0  0  0  0
   38.8230   33.2180   39.6460 C   0  0  0  0  0  0  0  0  0  0  0  0
   40.1250   32.9680   40.0690 C   0  0  0  0  0  0  0  0  0  0  0  0
   40.8620   33.9860   40.6360 C   0  0  0  0  0  0  0  0  0  0  0  0
   40.3250   35.2510   40.7900 C   0  0  0  0  0  0  0  0  0  0  0  0
   39.0180   35.5100   40.3670 C   0  0  0  0  0  0  0  0  0  0  0  0
   41.2910   36.0700   41.3860 O   0  0  0  0  0  0  0  0  0  0  0  0
   42.5400   35.3920   41.2770 C   0  0  2  0  0  0  0  0  0  0  0  0
   42.1720   34.0390   41.1460 O   0  0  0  0  0  0  0  0  0  0  0  0
   37.2940   34.6120   39.4620 H   0  0  0  0  0  0  0  0  0  0  0  0
   40.5770   31.9900   39.9650 H   0  0  0  0  0  0  0  0  0  0  0  0
   38.5600   36.4860   40.4700 H   0  0  0  0  0  0  0  0  0  0  0  0
   43.1020   35.6760   40.3710 H   0  0  0  0  0  0  0  0  0  0  0  0
   43.2930   35.6970   42.5040 C   0  0  0  0  0  3  0  0  0  0  0  0
   44.5980   35.6590   42.6620 C   0  0  0  0  0  3  0  0  0  0  0  0
   45.4590   35.2750   41.5210 C   0  0  0  0  0  2  0  0  0  0  0  0
   46.5240   35.4370   41.8040 H   0  0  0  0  0  0  0  0  0  0  0  0
  1  6  2  0  0  0  0
  1  2  1  0  0  0  0
  2  3  2  0  0  0  0
  3  4  1  0  0  0  0
  3  8  1  0  0  0  0
  5 25  1  0  0  0  0
  5  4  2  0  0  0  0
  6  5  1  0  0  0  0
  7  1  1  0  0  0  0
  9 10  1  0  0  0  0
  9  2  1  0  0  0  0
 10 16  1  0  0  0  0
 11 18  1  0  0  0  0
 11 17  1  0  0  0  0
 11 10  1  0  0  0  0
 12 11  1  0  0  0  0
 13 12  1  0  0  0  0
 13 14  1  0  0  0  0
 14 23  1  0  0  0  0
 14  9  1  0  0  0  0
 15 10  1  0  0  0  0
 19 12  1  0  0  0  0
 20 13  1  0  0  0  0
 21 13  1  0  0  0  0
 22 14  1  0  0  0  0
 24 29  1  0  0  0  0
 25 24  2  0  0  0  0
 25 26  1  0  0  0  0
 26 27  2  0  0  0  0
 27 28  1  0  0  0  0
 27 32  1  0  0  0  0
 28 30  1  0  0  0  0
 29 35  1  0  0  0  0
 29 28  2  0  0  0  0
 31 36  1  6  0  0  0
 31 30  1  0  0  0  0
 31 37  1  0  0  0  0
 32 31  1  0  0  0  0
 33 24  1  0  0  0  0
 34 26  1  0  0  0  0
 37 38  2  0  0  0  0
 39 40  1  0  0  0  0
 39 38  1  0  0  0  0
M  END
>  <minimizedAffinity>
-5.56360149

$$$$

 OpenBabel03242518263D

 40 43  0  0  1  0  0  0  0  0999 V2000
   39.6440   31.3900   41.8030 C   0  0  0  0  0  0  0  0  0  0  0  0
   39.1390   32.1910   40.7890 C   0  0  0  0  0  0  0  0  0  0  0  0
   38.2150   31.6160   39.9320 C   0  0  0  0  0  0  0  0  0  0  0  0
   37.8350   30.3250   40.0970 N   0  0  0  0  0  0  0  0  0  0  0  0
   38.3540   29.5740   41.1020 C   0  0  0  0  0  0  0  0  0  0  0  0
   39.2470   30.1090   41.9400 N   0  0  0  0  0  0  0  0  0  0  0  0
   40.3700   31.7720   42.5100 H   0  0  0  0  0  0  0  0  0  0  0  0
   37.8320   32.2590   39.1480 H   0  0  0  0  0  0  0  0  0  0  0  0
   39.6160   33.5190   40.7270 N   0  0  0  0  0  0  0  0  0  0  0  0
   40.9680   33.7170   40.2860 C   0  0  0  0  0  0  0  0  0  0  0  0
   41.4090   35.1360   40.3490 C   0  0  0  0  0  0  0  0  0  0  0  0
   40.4640   36.0460   39.7690 N   0  0  0  0  0  0  0  0  0  0  0  0
   39.0940   35.7750   39.9940 C   0  0  0  0  0  0  0  0  0  0  0  0
   38.8920   34.7180   41.0610 C   0  0  0  0  0  0  0  0  0  0  0  0
   41.0510   33.3610   39.2530 H   0  0  0  0  0  0  0  0  0  0  0  0
   41.6900   33.1190   40.8990 H   0  0  0  0  0  0  0  0  0  0  0  0
   42.3780   35.2360   39.8370 H   0  0  0  0  0  0  0  0  0  0  0  0
   41.5230   35.4250   41.4220 H   0  0  0  0  0  0  0  0  0  0  0  0
   40.6930   36.1430   38.7510 H   0  0  0  0  0  0  0  0  0  0  0  0
   38.5240   36.6800   40.2540 H   0  0  0  0  0  0  0  0  0  0  0  0
   38.6460   35.4170   39.0210 H   0  0  0  0  0  0  0  0  0  0  0  0
   37.7980   34.5020   41.0550 H   0  0  0  0  0  0  0  0  0  0  0  0
   39.2220   35.1650   42.0110 H   0  0  0  0  0  0  0  0  0  0  0  0
   38.0600   27.4810   42.3670 C   0  0  0  0  0  0  0  0  0  0  0  0
   37.9010   28.1800   41.2260 C   0  0  0  0  0  0  0  0  0  0  0  0
   37.2880   27.5610   40.1400 C   0  0  0  0  0  0  0  0  0  0  0  0
   36.8620   26.2550   40.2550 C   0  0  0  0  0  0  0  0  0  0  0  0
   37.0340   25.5520   41.4330 C   0  0  0  0  0  0  0  0  0  0  0  0
   37.6480   26.1660   42.5280 C   0  0  0  0  0  0  0  0  0  0  0  0
   36.5120   24.2650   41.2590 O   0  0  0  0  0  0  0  0  0  0  0  0
   36.3340   24.0720   39.8580 C   0  0  2  0  0  0  0  0  0  0  0  0
   36.2260   25.3820   39.3530 O   0  0  0  0  0  0  0  0  0  0  0  0
   38.5430   27.9990   43.1930 H   0  0  0  0  0  0  0  0  0  0  0  0
   37.1370   28.0810   39.2030 H   0  0  0  0  0  0  0  0  0  0  0  0
   37.8020   25.6520   43.4690 H   0  0  0  0  0  0  0  0  0  0  0  0
   37.2090   23.5990   39.3790 H   0  0  0  0  0  0  0  0  0  0  0  0
   35.1180   23.2590   39.6960 C   0  0  0  0  0  3  0  0  0  0  0  0
   34.8340   22.4500   38.7000 C   0  0  0  0  0  3  0  0  0  0  0  0
   35.8000   22.2930   37.5900 C   0  0  0  0  0  2  0  0  0  0  0  0
   35.4530   21.4710   36.9230 H   0  0  0  0  0  0  0  0  0  0  0  0
  1  6  1  0  0  0  0
  1  7  1  0  0  0  0
  2  1  2  0  0  0  0
  3  4  2  0  0  0  0
  3  2  1  0  0  0  0
  4  5  1  0  0  0  0
  5 25  1  0  0  0  0
  5  6  2  0  0  0  0
  8  3  1  0  0  0  0
  9  2  1  0  0  0  0
  9 14  1  0  0  0  0
 10 11  1  0  0  0  0
 10  9  1  0  0  0  0
 10 16  1  0  0  0  0
 11 18  1  0  0  0  0
 12 13  1  0  0  0  0
 12 11  1  0  0  0  0
 13 20  1  0  0  0  0
 13 14  1  0  0  0  0
 14 23  1  0  0  0  0
 15 10  1  0  0  0  0
 17 11  1  0  0  0  0
 19 12  1  0  0  0  0
 21 13  1  0  0  0  0
 22 14  1  0  0  0  0
 24 29  1  0  0  0  0
 24 33  1  0  0  0  0
 25 24  2  0  0  0  0
 26 27  2  0  0  0  0
 26 25  1  0  0  0  0
 27 28  1  0  0  0  0
 28 29  2  0  0  0  0
 29 35  1  0  0  0  0
 30 28  1  0  0  0  0
 31 36  1  6  0  0  0
 31 30  1  0  0  0  0
 32 31  1  0  0  0  0
 32 27  1  0  0  0  0
 34 26  1  0  0  0  0
 37 31  1  0  0  0  0
 38 37  2  0  0  0  0
 39 38  1  0  0  0  0
 40 39  1  0  0  0  0
M  END
>  <minimizedAffinity>
-5.51677513

$$$$

 OpenBabel03242518263D

 40 43  0  0  1  0  0  0  0  0999 V2000
   37.7320   32.6850   40.0020 C   0  0  0  0  0  0  0  0  0  0  0  0
   39.1090   32.6700   39.8360 C   0  0  0  0  0  0  0  0  0  0  0  0
   39.6660   31.5280   39.2850 C   0  0  0  0  0  0  0  0  0  0  0  0
   38.8790   30.4820   38.9300 N   0  0  0  0  0  0  0  0  0  0  0  0
   37.5350   30.5360   39.1100 C   0  0  0  0  0  0  0  0  0  0  0  0
   36.9770   31.6290   39.6400 N   0  0  0  0  0  0  0  0  0  0  0  0
   37.2280   33.5440   40.4260 H   0  0  0  0  0  0  0  0  0  0  0  0
   40.7430   31.5370   39.1630 H   0  0  0  0  0  0  0  0  0  0  0  0
   39.8140   33.8230   40.2450 N   0  0  0  0  0  0  0  0  0  0  0  0
   41.2440   33.7320   40.3280 C   0  0  0  0  0  0  0  0  0  0  0  0
   41.8860   34.9630   40.8610 C   0  0  0  0  0  0  0  0  0  0  0  0
   41.4110   36.1620   40.2360 N   0  0  0  0  0  0  0  0  0  0  0  0
   40.0310   36.2230   39.9320 C   0  0  0  0  0  0  0  0  0  0  0  0
   39.2550   35.1040   40.5970 C   0  0  0  0  0  0  0  0  0  0  0  0
   41.6360   33.5290   39.3250 H   0  0  0  0  0  0  0  0  0  0  0  0
   41.5630   32.8820   40.9840 H   0  0  0  0  0  0  0  0  0  0  0  0
   42.9770   34.8870   40.7310 H   0  0  0  0  0  0  0  0  0  0  0  0
   41.6460   35.0450   41.9500 H   0  0  0  0  0  0  0  0  0  0  0  0
   42.0150   36.3520   39.4010 H   0  0  0  0  0  0  0  0  0  0  0  0
   39.5840   37.1930   40.1980 H   0  0  0  0  0  0  0  0  0  0  0  0
   39.9170   36.1450   38.8120 H   0  0  0  0  0  0  0  0  0  0  0  0
   38.2210   35.1800   40.1840 H   0  0  0  0  0  0  0  0  0  0  0  0
   39.2850   35.3000   41.6790 H   0  0  0  0  0  0  0  0  0  0  0  0
   35.5360   29.5000   38.1080 C   0  0  0  0  0  0  0  0  0  0  0  0
   36.7370   29.3680   38.7050 C   0  0  0  0  0  0  0  0  0  0  0  0
   37.2320   28.0880   38.9400 C   0  0  0  0  0  0  0  0  0  0  0  0
   36.4860   26.9920   38.5600 C   0  0  0  0  0  0  0  0  0  0  0  0
   35.2560   27.1470   37.9500 C   0  0  0  0  0  0  0  0  0  0  0  0
   34.7520   28.4280   37.7110 C   0  0  0  0  0  0  0  0  0  0  0  0
   34.7340   25.8760   37.6810 O   0  0  0  0  0  0  0  0  0  0  0  0
   35.4930   24.9420   38.4440 C   0  0  2  0  0  0  0  0  0  0  0  0
   36.7150   25.6070   38.6630 O   0  0  0  0  0  0  0  0  0  0  0  0
   35.1840   30.5160   37.9420 H   0  0  0  0  0  0  0  0  0  0  0  0
   38.1910   27.9290   39.4150 H   0  0  0  0  0  0  0  0  0  0  0  0
   33.7930   28.5930   37.2350 H   0  0  0  0  0  0  0  0  0  0  0  0
   35.0440   24.7320   39.4310 H   0  0  0  0  0  0  0  0  0  0  0  0
   35.6070   23.7230   37.6270 C   0  0  0  0  0  3  0  0  0  0  0  0
   35.0530   22.5550   37.8660 C   0  0  0  0  0  3  0  0  0  0  0  0
   34.2110   22.3810   39.0710 C   0  0  0  0  0  2  0  0  0  0  0  0
   33.7210   21.3810   39.0270 H   0  0  0  0  0  0  0  0  0  0  0  0
  1  7  1  0  0  0  0
  2  1  1  0  0  0  0
  2  9  1  0  0  0  0
  3  2  2  0  0  0  0
  4  5  2  0  0  0  0
  4  3  1  0  0  0  0
  5  6  1  0  0  0  0
  6  1  2  0  0  0  0
  8  3  1  0  0  0  0
  9 10  1  0  0  0  0
  9 14  1  0  0  0  0
 10 11  1  0  0  0  0
 10 16  1  0  0  0  0
 11 18  1  0  0  0  0
 12 11  1  0  0  0  0
 13 20  1  0  0  0  0
 13 12  1  0  0  0  0
 13 14  1  0  0  0  0
 14 23  1  0  0  0  0
 15 10  1  0  0  0  0
 17 11  1  0  0  0  0
 19 12  1  0  0  0  0
 21 13  1  0  0  0  0
 22 14  1  0  0  0  0
 24 25  1  0  0  0  0
 25 26  2  0  0  0  0
 25  5  1  0  0  0  0
 26 34  1  0  0  0  0
 27 32  1  0  0  0  0
 27 26  1  0  0  0  0
 28 27  2  0  0  0  0
 29 28  1  0  0  0  0
 29 24  2  0  0  0  0
 30 28  1  0  0  0  0
 30 31  1  0  0  0  0
 31 32  1  0  0  0  0
 31 36  1  1  0  0  0
 33 24  1  0  0  0  0
 35 29  1  0  0  0  0
 37 38  2  0  0  0  0
 37 31  1  0  0  0  0
 38 39  1  0  0  0  0
 40 39  1  0  0  0  0
M  END
>  <minimizedAffinity>
-5.22197056

$$$$

 OpenBabel03242518263D

 40 43  0  0  1  0  0  0  0  0999 V2000
   39.5820   32.1060   38.7550 C   0  0  0  0  0  0  0  0  0  0  0  0
   39.1430   33.1540   39.5520 C   0  0  0  0  0  0  0  0  0  0  0  0
   37.7940   33.1850   39.8660 C   0  0  0  0  0  0  0  0  0  0  0  0
   36.9580   32.2220   39.4050 N   0  0  0  0  0  0  0  0  0  0  0  0
   37.4280   31.2130   38.6270 C   0  0  0  0  0  0  0  0  0  0  0  0
   38.7260   31.1650   38.3110 N   0  0  0  0  0  0  0  0  0  0  0  0
   40.6220   32.0180   38.4690 H   0  0  0  0  0  0  0  0  0  0  0  0
   37.4720   34.0110   40.4900 H   0  0  0  0  0  0  0  0  0  0  0  0
   40.1140   34.0910   39.9670 N   0  0  0  0  0  0  0  0  0  0  0  0
   39.6560   35.2510   40.6770 C   0  0  0  0  0  0  0  0  0  0  0  0
   40.7380   36.2230   40.9840 C   0  0  0  0  0  0  0  0  0  0  0  0
   41.9020   35.6100   41.5530 N   0  0  0  0  0  0  0  0  0  0  0  0
   42.2810   34.3510   41.0340 C   0  0  0  0  0  0  0  0  0  0  0  0
   41.5370   34.0160   39.7560 C   0  0  0  0  0  0  0  0  0  0  0  0
   39.1930   34.9220   41.6140 H   0  0  0  0  0  0  0  0  0  0  0  0
   38.8710   35.8010   40.0980 H   0  0  0  0  0  0  0  0  0  0  0  0
   40.3510   36.9890   41.6730 H   0  0  0  0  0  0  0  0  0  0  0  0
   41.0600   36.7090   40.0300 H   0  0  0  0  0  0  0  0  0  0  0  0
   41.7820   35.5960   42.5940 H   0  0  0  0  0  0  0  0  0  0  0  0
   43.3660   34.2760   40.8620 H   0  0  0  0  0  0  0  0  0  0  0  0
   42.0540   33.5680   41.8160 H   0  0  0  0  0  0  0  0  0  0  0  0
   41.8210   32.9640   39.5200 H   0  0  0  0  0  0  0  0  0  0  0  0
   41.8930   34.7240   38.9920 H   0  0  0  0  0  0  0  0  0  0  0  0
   35.5980   29.6050   38.9950 C   0  0  0  0  0  0  0  0  0  0  0  0
   36.4690   30.2000   38.1580 C   0  0  0  0  0  0  0  0  0  0  0  0
   36.4570   29.8430   36.8120 C   0  0  0  0  0  0  0  0  0  0  0  0
   35.5590   28.8940   36.3710 C   0  0  0  0  0  0  0  0  0  0  0  0
   34.6730   28.2930   37.2440 C   0  0  0  0  0  0  0  0  0  0  0  0
   34.6790   28.6460   38.5970 C   0  0  0  0  0  0  0  0  0  0  0  0
   33.8930   27.3820   36.5230 O   0  0  0  0  0  0  0  0  0  0  0  0
   34.5410   27.1740   35.2720 C   0  0  2  0  0  0  0  0  0  0  0  0
   35.3130   28.3390   35.1010 O   0  0  0  0  0  0  0  0  0  0  0  0
   35.6390   29.9110   40.0390 H   0  0  0  0  0  0  0  0  0  0  0  0
   37.1360   30.2930   36.1000 H   0  0  0  0  0  0  0  0  0  0  0  0
   34.0010   28.2000   39.3140 H   0  0  0  0  0  0  0  0  0  0  0  0
   35.2320   26.3130   35.2870 H   0  0  0  0  0  0  0  0  0  0  0  0
   33.4780   27.0010   34.2690 C   0  0  0  0  0  3  0  0  0  0  0  0
   33.3210   25.9870   33.4480 C   0  0  0  0  0  3  0  0  0  0  0  0
   34.2840   24.8650   33.4840 C   0  0  0  0  0  2  0  0  0  0  0  0
   33.9110   24.0480   32.8250 H   0  0  0  0  0  0  0  0  0  0  0  0
  1  2  1  0  0  0  0
  2  3  2  0  0  0  0
  2  9  1  0  0  0  0
  3  8  1  0  0  0  0
  4  3  1  0  0  0  0
  5  4  2  0  0  0  0
  6  5  1  0  0  0  0
  6  1  2  0  0  0  0
  7  1  1  0  0  0  0
  9 10  1  0  0  0  0
 10 11  1  0  0  0  0
 10 15  1  0  0  0  0
 11 12  1  0  0  0  0
 11 17  1  0  0  0  0
 12 19  1  0  0  0  0
 13 12  1  0  0  0  0
 13 21  1  0  0  0  0
 14  9  1  0  0  0  0
 14 13  1  0  0  0  0
 16 10  1  0  0  0  0
 18 11  1  0  0  0  0
 20 13  1  0  0  0  0
 22 14  1  0  0  0  0
 23 14  1  0  0  0  0
 24 33  1  0  0  0  0
 25  5  1  0  0  0  0
 25 24  2  0  0  0  0
 26 25  1  0  0  0  0
 27 26  2  0  0  0  0
 27 28  1  0  0  0  0
 28 29  2  0  0  0  0
 29 24  1  0  0  0  0
 29 35  1  0  0  0  0
 30 28  1  0  0  0  0
 31 36  1  1  0  0  0
 31 30  1  0  0  0  0
 32 31  1  0  0  0  0
 32 27  1  0  0  0  0
 34 26  1  0  0  0  0
 37 31  1  0  0  0  0
 38 39  1  0  0  0  0
 38 37  2  0  0  0  0
 40 39  1  0  0  0  0
M  END
>  <minimizedAffinity>
-5.20654058

$$$$

 OpenBabel03242518263D

 40 43  0  0  1  0  0  0  0  0999 V2000
   35.3190   27.4620   37.9950 C   0  0  0  0  0  0  0  0  0  0  0  0
   34.3190   28.4190   38.0850 C   0  0  0  0  0  0  0  0  0  0  0  0
   34.2380   29.1380   39.2670 C   0  0  0  0  0  0  0  0  0  0  0  0
   35.1110   28.8990   40.2770 N   0  0  0  0  0  0  0  0  0  0  0  0
   36.0750   27.9530   40.1490 C   0  0  0  0  0  0  0  0  0  0  0  0
   36.1700   27.2480   39.0170 N   0  0  0  0  0  0  0  0  0  0  0  0
   35.4420   26.8630   37.1010 H   0  0  0  0  0  0  0  0  0  0  0  0
   33.4510   29.8810   39.3160 H   0  0  0  0  0  0  0  0  0  0  0  0
   33.4760   28.5700   36.9620 N   0  0  0  0  0  0  0  0  0  0  0  0
   33.7400   27.7430   35.8190 C   0  0  0  0  0  0  0  0  0  0  0  0
   32.8650   28.0430   34.6550 C   0  0  0  0  0  0  0  0  0  0  0  0
   31.4770   28.1360   35.0030 N   0  0  0  0  0  0  0  0  0  0  0  0
   31.1660   28.7580   36.2340 C   0  0  0  0  0  0  0  0  0  0  0  0
   32.3630   29.4740   36.8270 C   0  0  0  0  0  0  0  0  0  0  0  0
   33.6020   26.6960   36.1110 H   0  0  0  0  0  0  0  0  0  0  0  0
   34.8000   27.8500   35.4730 H   0  0  0  0  0  0  0  0  0  0  0  0
   33.0020   27.2640   33.8900 H   0  0  0  0  0  0  0  0  0  0  0  0
   33.1620   29.0350   34.2350 H   0  0  0  0  0  0  0  0  0  0  0  0
   31.0590   27.1780   34.9190 H   0  0  0  0  0  0  0  0  0  0  0  0
   30.3190   29.4560   36.1510 H   0  0  0  0  0  0  0  0  0  0  0  0
   30.8150   27.9580   36.9500 H   0  0  0  0  0  0  0  0  0  0  0  0
   32.0320   29.8070   37.8390 H   0  0  0  0  0  0  0  0  0  0  0  0
   32.5810   30.3230   36.1610 H   0  0  0  0  0  0  0  0  0  0  0  0
   36.5540   27.7410   42.5560 C   0  0  0  0  0  0  0  0  0  0  0  0
   36.9900   27.7420   41.2810 C   0  0  0  0  0  0  0  0  0  0  0  0
   38.3450   27.5350   41.0360 C   0  0  0  0  0  0  0  0  0  0  0  0
   39.2040   27.3360   42.0960 C   0  0  0  0  0  0  0  0  0  0  0  0
   38.7390   27.3390   43.3970 C   0  0  0  0  0  0  0  0  0  0  0  0
   37.3810   27.5460   43.6530 C   0  0  0  0  0  0  0  0  0  0  0  0
   39.8240   27.1160   44.2530 O   0  0  0  0  0  0  0  0  0  0  0  0
   41.0090   27.3240   43.4900 C   0  0  2  0  0  0  0  0  0  0  0  0
   40.5910   27.1080   42.1630 O   0  0  0  0  0  0  0  0  0  0  0  0
   35.4890   27.9050   42.7070 H   0  0  0  0  0  0  0  0  0  0  0  0
   38.7440   27.5260   40.0290 H   0  0  0  0  0  0  0  0  0  0  0  0
   36.9760   27.5550   44.6570 H   0  0  0  0  0  0  0  0  0  0  0  0
   41.3850   28.3600   43.5590 H   0  0  0  0  0  0  0  0  0  0  0  0
   42.0010   26.3510   43.9770 C   0  0  0  0  0  3  0  0  0  0  0  0
   43.0310   26.5940   44.7560 C   0  0  0  0  0  3  0  0  0  0  0  0
   43.2770   27.9730   45.2310 C   0  0  0  0  0  2  0  0  0  0  0  0
   44.0980   27.9550   45.9830 H   0  0  0  0  0  0  0  0  0  0  0  0
  1  2  2  0  0  0  0
  1  6  1  0  0  0  0
  2  3  1  0  0  0  0
  3  8  1  0  0  0  0
  3  4  2  0  0  0  0
  5  4  1  0  0  0  0
  5 25  1  0  0  0  0
  6  5  2  0  0  0  0
  7  1  1  0  0  0  0
  9  2  1  0  0  0  0
 10 15  1  0  0  0  0
 10  9  1  0  0  0  0
 11 12  1  0  0  0  0
 11 10  1  0  0  0  0
 12 13  1  0  0  0  0
 13 14  1  0  0  0  0
 13 21  1  0  0  0  0
 14  9  1  0  0  0  0
 14 22  1  0  0  0  0
 16 10  1  0  0  0  0
 17 11  1  0  0  0  0
 18 11  1  0  0  0  0
 19 12  1  0  0  0  0
 20 13  1  0  0  0  0
 23 14  1  0  0  0  0
 24 33  1  0  0  0  0
 24 29  1  0  0  0  0
 25 24  2  0  0  0  0
 26 25  1  0  0  0  0
 26 27  2  0  0  0  0
 27 32  1  0  0  0  0
 27 28  1  0  0  0  0
 28 29  2  0  0  0  0
 28 30  1  0  0  0  0
 29 35  1  0  0  0  0
 31 36  1  1  0  0  0
 31 37  1  0  0  0  0
 31 30  1  0  0  0  0
 32 31  1  0  0  0  0
 34 26  1  0  0  0  0
 37 38  2  0  0  0  0
 38 39  1  0  0  0  0
 39 40  1  0  0  0  0
M  END
>  <minimizedAffinity>
-5.14634085

$$$$

 OpenBabel03242518263D

 40 43  0  0  1  0  0  0  0  0999 V2000
   37.5310   26.3270   39.9000 C   0  0  0  0  0  0  0  0  0  0  0  0
   37.4210   26.9340   41.1430 C   0  0  0  0  0  0  0  0  0  0  0  0
   36.5140   27.9750   41.2580 C   0  0  0  0  0  0  0  0  0  0  0  0
   35.7770   28.3650   40.1890 N   0  0  0  0  0  0  0  0  0  0  0  0
   35.9150   27.7460   38.9900 C   0  0  0  0  0  0  0  0  0  0  0  0
   36.7850   26.7390   38.8570 N   0  0  0  0  0  0  0  0  0  0  0  0
   38.2200   25.5070   39.7360 H   0  0  0  0  0  0  0  0  0  0  0  0
   36.4420   28.4340   42.2370 H   0  0  0  0  0  0  0  0  0  0  0  0
   38.2450   26.4320   42.1740 N   0  0  0  0  0  0  0  0  0  0  0  0
   38.8290   25.1340   41.9830 C   0  0  0  0  0  0  0  0  0  0  0  0
   39.5970   24.6520   43.1610 C   0  0  0  0  0  0  0  0  0  0  0  0
   40.5050   25.6320   43.6820 N   0  0  0  0  0  0  0  0  0  0  0  0
   40.0590   26.9740   43.6960 C   0  0  0  0  0  0  0  0  0  0  0  0
   38.5730   27.0810   43.4170 C   0  0  0  0  0  0  0  0  0  0  0  0
   39.4950   25.1790   41.1140 H   0  0  0  0  0  0  0  0  0  0  0  0
   38.0480   24.3630   41.7580 H   0  0  0  0  0  0  0  0  0  0  0  0
   40.1550   23.7450   42.8820 H   0  0  0  0  0  0  0  0  0  0  0  0
   38.8760   24.4080   43.9790 H   0  0  0  0  0  0  0  0  0  0  0  0
   41.4210   25.5180   43.1870 H   0  0  0  0  0  0  0  0  0  0  0  0
   40.2970   27.4870   44.6400 H   0  0  0  0  0  0  0  0  0  0  0  0
   40.6310   27.5390   42.9040 H   0  0  0  0  0  0  0  0  0  0  0  0
   38.3710   28.1750   43.3270 H   0  0  0  0  0  0  0  0  0  0  0  0
   38.0590   26.6330   44.2810 H   0  0  0  0  0  0  0  0  0  0  0  0
   35.5130   28.1500   36.5930 C   0  0  0  0  0  0  0  0  0  0  0  0
   35.0870   28.2180   37.8690 C   0  0  0  0  0  0  0  0  0  0  0  0
   33.8260   28.7490   38.1280 C   0  0  0  0  0  0  0  0  0  0  0  0
   33.0480   29.1900   37.0790 C   0  0  0  0  0  0  0  0  0  0  0  0
   33.5010   29.1140   35.7760 C   0  0  0  0  0  0  0  0  0  0  0  0
   34.7650   28.5820   35.5070 C   0  0  0  0  0  0  0  0  0  0  0  0
   32.5100   29.6300   34.9330 O   0  0  0  0  0  0  0  0  0  0  0  0
   31.5920   30.3440   35.7560 C   0  0  2  0  0  0  0  0  0  0  0  0
   31.7620   29.7620   37.0270 O   0  0  0  0  0  0  0  0  0  0  0  0
   36.5030   27.7290   36.4310 H   0  0  0  0  0  0  0  0  0  0  0  0
   33.4380   28.8240   39.1360 H   0  0  0  0  0  0  0  0  0  0  0  0
   35.1580   28.5040   34.5010 H   0  0  0  0  0  0  0  0  0  0  0  0
   31.8400   31.4160   35.8420 H   0  0  0  0  0  0  0  0  0  0  0  0
   30.2550   30.1400   35.1730 C   0  0  0  0  0  3  0  0  0  0  0  0
   29.6230   30.9390   34.3430 C   0  0  0  0  0  3  0  0  0  0  0  0
   30.2690   32.1980   33.9090 C   0  0  0  0  0  2  0  0  0  0  0  0
   29.6500   32.6640   33.1090 H   0  0  0  0  0  0  0  0  0  0  0  0
  1  2  1  0  0  0  0
  2  3  2  0  0  0  0
  2  9  1  0  0  0  0
  3  8  1  0  0  0  0
  4  3  1  0  0  0  0
  5  4  2  0  0  0  0
  6  5  1  0  0  0  0
  6  1  2  0  0  0  0
  7  1  1  0  0  0  0
  9 14  1  0  0  0  0
 10  9  1  0  0  0  0
 10 11  1  0  0  0  0
 11 12  1  0  0  0  0
 11 18  1  0  0  0  0
 12 13  1  0  0  0  0
 13 20  1  0  0  0  0
 14 13  1  0  0  0  0
 14 23  1  0  0  0  0
 15 10  1  0  0  0  0
 16 10  1  0  0  0  0
 17 11  1  0  0  0  0
 19 12  1  0  0  0  0
 21 13  1  0  0  0  0
 22 14  1  0  0  0  0
 24 25  1  0  0  0  0
 25 26  2  0  0  0  0
 25  5  1  0  0  0  0
 26 34  1  0  0  0  0
 27 26  1  0  0  0  0
 28 27  2  0  0  0  0
 29 28  1  0  0  0  0
 29 24  2  0  0  0  0
 30 31  1  0  0  0  0
 30 28  1  0  0  0  0
 31 36  1  1  0  0  0
 31 32  1  0  0  0  0
 32 27  1  0  0  0  0
 33 24  1  0  0  0  0
 35 29  1  0  0  0  0
 37 31  1  0  0  0  0
 38 37  2  0  0  0  0
 39 38  1  0  0  0  0
 40 39  1  0  0  0  0
M  END
>  <minimizedAffinity>
-5.0785799

$$$$
