
 OpenBabel03252504003D

 29 31  0  0  0  0  0  0  0  0999 V2000
   46.0440   31.5780   45.1320 C   0  0  0  0  0  0  0  0  0  0  0  0
   45.8620   32.9050   45.4950 C   0  0  0  0  0  0  0  0  0  0  0  0
   45.5870   33.2480   46.8140 C   0  0  0  0  0  0  0  0  0  0  0  0
   45.5020   32.2280   47.7410 C   0  0  0  0  0  0  0  0  0  0  0  0
   45.2560   32.2300   49.0630 N   0  0  0  0  0  0  0  0  0  0  0  0
   45.2700   30.9820   49.5590 C   0  0  0  0  0  0  0  0  0  0  0  0
   45.5380   30.1100   48.5210 C   0  0  0  0  0  0  0  0  0  0  0  0
   45.6820   30.8850   47.3890 C   0  0  0  0  0  0  0  0  0  0  0  0
   45.9520   30.5820   46.0800 C   0  0  0  0  0  0  0  0  0  0  0  0
   46.2590   31.2730   44.1120 H   0  0  0  0  0  0  0  0  0  0  0  0
   45.4480   34.2840   47.0900 H   0  0  0  0  0  0  0  0  0  0  0  0
   45.0710   33.0480   49.6750 H   0  0  0  0  0  0  0  0  0  0  0  0
   45.1230   30.5630   50.5410 H   0  0  0  0  0  0  0  0  0  0  0  0
   45.6340   29.0420   48.4980 H   0  0  0  0  0  0  0  0  0  0  0  0
   46.0920   29.5460   45.8040 H   0  0  0  0  0  0  0  0  0  0  0  0
   47.2000   34.8370   42.6930 C   0  0  0  0  0  0  0  0  0  0  0  0
   46.2190   35.8030   42.4530 C   0  0  0  0  0  0  0  0  0  0  0  0
   45.0910   35.7830   43.2650 C   0  0  0  0  0  0  0  0  0  0  0  0
   44.9970   34.8400   44.2400 N   0  0  0  0  0  0  0  0  0  0  0  0
   45.9720   33.9210   44.4400 C   0  0  0  0  0  0  0  0  0  0  0  0
   47.0750   33.9150   43.6690 N   0  0  0  0  0  0  0  0  0  0  0  0
   46.3380   36.5360   41.6630 H   0  0  0  0  0  0  0  0  0  0  0  0
   44.3200   36.5240   43.0950 H   0  0  0  0  0  0  0  0  0  0  0  0
   48.3570   34.8900   41.8280 C   0  0  0  0  0  0  0  0  0  0  0  0
   49.3730   35.6250   42.0230 O   0  0  0  0  0  0  0  0  0  0  0  0
   48.4130   34.0560   40.6290 C   0  0  0  0  0  3  0  0  0  0  0  0
   48.1250   34.5780   39.4540 C   0  0  0  0  0  3  0  0  0  0  0  0
   48.1550   33.8120   38.1850 C   0  0  0  0  0  2  0  0  0  0  0  0
   48.2750   32.7400   38.4310 H   0  0  0  0  0  0  0  0  0  0  0  0
  1  2  2  0  0  0  0
  1  9  1  0  0  0  0
  2  3  1  0  0  0  0
  3 11  1  0  0  0  0
  3  4  2  0  0  0  0
  4  5  1  0  0  0  0
  5  6  1  0  0  0  0
  5 12  1  0  0  0  0
  6 13  1  0  0  0  0
  7  6  2  0  0  0  0
  8  4  1  0  0  0  0
  8  7  1  0  0  0  0
  9  8  2  0  0  0  0
 10  1  1  0  0  0  0
 14  7  1  0  0  0  0
 15  9  1  0  0  0  0
 16 21  1  0  0  0  0
 17 16  2  0  0  0  0
 17 18  1  0  0  0  0
 18 19  2  0  0  0  0
 19 20  1  0  0  0  0
 20  2  1  0  0  0  0
 21 20  2  0  0  0  0
 22 17  1  0  0  0  0
 23 18  1  0  0  0  0
 24 25  2  0  0  0  0
 24 16  1  0  0  0  0
 26 24  1  0  0  0  0
 27 26  2  0  0  0  0
 28 29  1  0  0  0  0
 28 27  1  0  0  0  0
M  END
>  <minimizedAffinity>
-5.736588

>  <minimizedRMSD>
0.454016149

$$$$
