
 OpenBabel03252506283D

 42 45  0  0  0  0  0  0  0  0999 V2000
   46.4780   30.8620   48.8850 C   0  0  0  0  0  0  0  0  0  0  0  0
   46.6450   31.5780   49.7090 H   0  0  0  0  0  0  0  0  0  0  0  0
   47.2070   30.0560   49.0080 H   0  0  0  0  0  0  0  0  0  0  0  0
   46.3190   32.8850   45.9480 C   0  0  0  0  0  0  0  0  0  0  0  0
   47.3120   31.9390   45.5890 C   0  0  0  0  0  0  0  0  0  0  0  0
   47.4850   31.0880   46.6240 C   0  0  0  0  0  0  0  0  0  0  0  0
   46.6350   31.4890   47.5860 N   0  0  0  0  0  0  0  0  0  0  0  0
   45.9310   32.5650   47.1940 N   0  0  0  0  0  0  0  0  0  0  0  0
   47.8090   31.9510   44.6320 H   0  0  0  0  0  0  0  0  0  0  0  0
   48.1550   30.2460   46.7070 H   0  0  0  0  0  0  0  0  0  0  0  0
   44.5130   35.8230   44.7450 C   0  0  0  0  0  0  0  0  0  0  0  0
   45.0090   35.9920   43.4460 C   0  0  0  0  0  0  0  0  0  0  0  0
   45.9680   35.0830   43.0010 C   0  0  0  0  0  0  0  0  0  0  0  0
   46.3310   34.1200   43.8630 N   0  0  0  0  0  0  0  0  0  0  0  0
   45.8630   33.9600   45.0870 C   0  0  0  0  0  0  0  0  0  0  0  0
   44.9430   34.8280   45.5240 N   0  0  0  0  0  0  0  0  0  0  0  0
   43.7700   36.5460   45.0590 H   0  0  0  0  0  0  0  0  0  0  0  0
   44.7090   36.7750   42.7570 H   0  0  0  0  0  0  0  0  0  0  0  0
   46.5860   35.1100   41.6890 C   0  0  0  0  0  3  0  0  0  0  0  0
   47.8900   35.0220   41.5300 C   0  0  0  0  0  3  0  0  0  0  0  0
   48.5480   35.0470   40.2210 C   0  0  0  0  0  2  0  0  0  0  0  0
   49.5690   34.5730   40.2910 H   0  0  0  0  0  0  0  0  0  0  0  0
   45.1160   30.2930   49.0250 C   0  0  0  0  0  0  0  0  0  0  0  0
   44.9930   30.0000   50.1010 H   0  0  0  0  0  0  0  0  0  0  0  0
   44.3650   31.0930   48.8560 H   0  0  0  0  0  0  0  0  0  0  0  0
   44.9000   27.7740   48.5850 C   0  0  0  0  0  0  0  0  0  0  0  0
   44.8090   29.1030   48.2340 C   0  0  0  0  0  0  0  0  0  0  0  0
   44.3640   29.3730   46.9480 C   0  0  0  0  0  0  0  0  0  0  0  0
   44.0310   28.3660   46.0690 C   0  0  0  0  0  0  0  0  0  0  0  0
   43.5850   28.3230   44.7990 N   0  0  0  0  0  0  0  0  0  0  0  0
   43.4080   27.0640   44.3850 C   0  0  0  0  0  0  0  0  0  0  0  0
   43.7510   26.2040   45.4230 C   0  0  0  0  0  0  0  0  0  0  0  0
   44.1250   27.0480   46.4280 C   0  0  0  0  0  0  0  0  0  0  0  0
   44.5650   26.7700   47.7030 C   0  0  0  0  0  0  0  0  0  0  0  0
   45.2530   27.6130   49.6060 H   0  0  0  0  0  0  0  0  0  0  0  0
   44.2480   30.3700   46.5440 H   0  0  0  0  0  0  0  0  0  0  0  0
   43.4030   29.1880   44.2200 H   0  0  0  0  0  0  0  0  0  0  0  0
   43.0530   26.8190   43.3910 H   0  0  0  0  0  0  0  0  0  0  0  0
   43.6990   25.1290   45.3490 H   0  0  0  0  0  0  0  0  0  0  0  0
   44.6860   25.3840   48.1460 C   0  0  0  0  0  0  0  0  0  0  0  0
   45.2030   25.1010   49.2630 O   0  0  0  0  0  0  0  0  0  0  0  0
   44.3280   24.5770   47.5110 H   0  0  0  0  0  0  0  0  0  0  0  0
  1  3  1  0  0  0  0
  1 23  1  0  0  0  0
  1  2  1  0  0  0  0
  4  8  2  0  0  0  0
  5  4  1  0  0  0  0
  5  6  2  0  0  0  0
  6 10  1  0  0  0  0
  6  7  1  0  0  0  0
  7  1  1  0  0  0  0
  8  7  1  0  0  0  0
  9  5  1  0  0  0  0
 11 17  1  0  0  0  0
 11 16  1  0  0  0  0
 12 11  2  0  0  0  0
 13 12  1  0  0  0  0
 13 14  2  0  0  0  0
 14 15  1  0  0  0  0
 15 16  2  0  0  0  0
 15  4  1  0  0  0  0
 18 12  1  0  0  0  0
 19 13  1  0  0  0  0
 20 19  2  0  0  0  0
 21 22  1  0  0  0  0
 21 20  1  0  0  0  0
 23 24  1  0  0  0  0
 25 23  1  0  0  0  0
 26 35  1  0  0  0  0
 27 26  1  0  0  0  0
 27 23  1  0  0  0  0
 28 27  2  0  0  0  0
 29 33  2  0  0  0  0
 29 28  1  0  0  0  0
 30 29  1  0  0  0  0
 31 30  1  0  0  0  0
 31 32  2  0  0  0  0
 32 33  1  0  0  0  0
 33 34  1  0  0  0  0
 34 40  1  0  0  0  0
 34 26  2  0  0  0  0
 36 28  1  0  0  0  0
 37 30  1  0  0  0  0
 38 31  1  0  0  0  0
 39 32  1  0  0  0  0
 40 41  2  0  0  0  0
 42 40  1  0  0  0  0
M  END
>  <minimizedAffinity>
-5.79376554

>  <minimizedRMSD>
0.827663481

$$$$
