
 OpenBabel03252506493D

 24 25  0  0  0  0  0  0  0  0999 V2000
   43.4110   34.0230   40.2500 S   0  0  0  0  0  0  0  0  0  0  0  0
   41.6310   31.5730   41.2770 Cl  0  0  0  0  0  0  0  0  0  0  0  0
   40.8220   33.0140   40.6880 C   0  0  0  0  0  0  0  0  0  0  0  0
   41.6470   34.0170   40.2660 C   0  0  0  0  0  0  0  0  0  0  0  0
   41.0470   35.1800   39.7900 C   0  0  0  0  0  0  0  0  0  0  0  0
   39.6620   35.2820   39.7590 C   0  0  0  0  0  0  0  0  0  0  0  0
   38.8330   34.2700   40.1850 C   0  0  0  0  0  0  0  0  0  0  0  0
   39.4390   33.1050   40.6610 C   0  0  0  0  0  0  0  0  0  0  0  0
   38.4900   31.7540   41.2290 Cl  0  0  0  0  0  0  0  0  0  0  0  0
   41.6130   36.0300   39.4340 H   0  0  0  0  0  0  0  0  0  0  0  0
   39.1870   36.1940   39.3860 H   0  0  0  0  0  0  0  0  0  0  0  0
   37.7490   34.3570   40.1580 H   0  0  0  0  0  0  0  0  0  0  0  0
   44.1350   34.3350   41.8600 C   0  0  0  0  0  0  0  0  0  0  0  0
   44.6180   33.1930   42.5120 C   0  0  0  0  0  0  0  0  0  0  0  0
   45.2000   33.3600   43.7810 C   0  0  0  0  0  0  0  0  0  0  0  0
   45.2620   34.6160   44.3080 N   0  0  0  0  0  0  0  0  0  0  0  0
   44.7820   35.6790   43.6370 C   0  0  0  0  0  0  0  0  0  0  0  0
   44.2130   35.5620   42.4060 N   0  0  0  0  0  0  0  0  0  0  0  0
   44.5620   32.2020   42.0840 H   0  0  0  0  0  0  0  0  0  0  0  0
   45.5950   32.5350   44.3510 H   0  0  0  0  0  0  0  0  0  0  0  0
   44.8740   37.0020   44.2440 C   0  0  0  0  0  0  0  0  0  0  0  0
   45.3100   38.0210   43.5190 C   0  0  0  0  0  0  0  0  0  0  0  0
   45.4670   39.4190   43.9670 C   0  0  0  0  0  0  0  0  0  0  0  0
   44.8070   40.1010   43.3570 H   0  0  0  0  0  0  0  0  0  0  0  0
  1  4  1  0  0  0  0
  1 13  1  0  0  0  0
  3  2  1  0  0  0  0
  4  3  2  0  0  0  0
  5  4  1  0  0  0  0
  6  5  2  0  0  0  0
  6  7  1  0  0  0  0
  7  8  2  0  0  0  0
  8  3  1  0  0  0  0
  8  9  1  0  0  0  0
 10  5  1  0  0  0  0
 11  6  1  0  0  0  0
 12  7  1  0  0  0  0
 13 18  2  0  0  0  0
 13 14  1  0  0  0  0
 14 15  2  0  0  0  0
 15 16  1  0  0  0  0
 15 20  1  0  0  0  0
 17 21  1  0  0  0  0
 17 16  2  0  0  0  0
 18 17  1  0  0  0  0
 19 14  1  0  0  0  0
 22 23  1  0  0  0  0
 22 21  2  0  0  0  0
 24 23  1  0  0  0  0
M  END
>  <minimizedAffinity>
-4.72749949

>  <minimizedRMSD>
1.09462273

$$$$
