
 OpenBabel03252506253D

 40 43  0  0  0  0  0  0  0  0999 V2000
   45.7330   29.7350   47.9900 C   0  0  0  0  0  0  0  0  0  0  0  0
   45.2190   30.6760   48.2730 H   0  0  0  0  0  0  0  0  0  0  0  0
   45.8230   29.1770   48.9600 H   0  0  0  0  0  0  0  0  0  0  0  0
   44.4350   27.6410   47.2560 C   0  0  0  0  0  0  0  0  0  0  0  0
   44.9030   28.9180   47.1070 C   0  0  0  0  0  0  0  0  0  0  0  0
   44.5390   29.5650   45.9230 C   0  0  0  0  0  0  0  0  0  0  0  0
   43.7600   28.9490   44.9750 C   0  0  0  0  0  0  0  0  0  0  0  0
   43.2640   29.3160   43.7690 N   0  0  0  0  0  0  0  0  0  0  0  0
   42.5430   28.3310   43.2220 C   0  0  0  0  0  0  0  0  0  0  0  0
   42.5450   27.2590   44.0760 C   0  0  0  0  0  0  0  0  0  0  0  0
   43.3090   27.6770   45.1510 C   0  0  0  0  0  0  0  0  0  0  0  0
   43.6580   27.0180   46.3170 C   0  0  0  0  0  0  0  0  0  0  0  0
   44.7680   27.2280   48.1950 H   0  0  0  0  0  0  0  0  0  0  0  0
   44.8330   30.5690   45.6680 H   0  0  0  0  0  0  0  0  0  0  0  0
   43.4320   30.2510   43.3360 H   0  0  0  0  0  0  0  0  0  0  0  0
   42.0300   28.3430   42.2670 H   0  0  0  0  0  0  0  0  0  0  0  0
   42.0780   26.2910   43.9830 H   0  0  0  0  0  0  0  0  0  0  0  0
   43.1980   25.6560   46.5500 C   0  0  0  0  0  3  0  0  0  0  0  0
   41.9990   25.1730   46.7220 C   0  0  0  0  0  3  0  0  0  0  0  0
   40.6340   25.6980   46.7650 C   0  0  0  0  0  2  0  0  0  0  0  0
   40.5090   26.3710   47.6340 H   0  0  0  0  0  0  0  0  0  0  0  0
   47.0970   30.0480   47.5370 C   0  0  0  0  0  0  0  0  0  0  0  0
   47.5910   30.6390   48.3430 H   0  0  0  0  0  0  0  0  0  0  0  0
   47.7400   29.1840   47.3450 H   0  0  0  0  0  0  0  0  0  0  0  0
   46.5430   32.6430   45.1500 C   0  0  0  0  0  0  0  0  0  0  0  0
   47.4120   31.7970   44.4500 C   0  0  0  0  0  0  0  0  0  0  0  0
   47.7260   30.7300   45.2420 C   0  0  0  0  0  0  0  0  0  0  0  0
   47.0690   30.9270   46.3820 N   0  0  0  0  0  0  0  0  0  0  0  0
   46.3600   32.0640   46.3380 N   0  0  0  0  0  0  0  0  0  0  0  0
   47.7610   31.9920   43.4310 H   0  0  0  0  0  0  0  0  0  0  0  0
   48.3810   29.9280   44.9390 H   0  0  0  0  0  0  0  0  0  0  0  0
   44.5800   35.7060   44.8640 C   0  0  0  0  0  0  0  0  0  0  0  0
   44.9560   36.2190   43.6320 C   0  0  0  0  0  0  0  0  0  0  0  0
   45.9000   35.4980   42.8870 C   0  0  0  0  0  0  0  0  0  0  0  0
   46.3740   34.3490   43.4330 N   0  0  0  0  0  0  0  0  0  0  0  0
   45.9960   33.8830   44.6170 C   0  0  0  0  0  0  0  0  0  0  0  0
   45.0970   34.5670   45.3310 N   0  0  0  0  0  0  0  0  0  0  0  0
   43.8590   36.1830   45.5220 H   0  0  0  0  0  0  0  0  0  0  0  0
   44.5300   37.1290   43.2840 H   0  0  0  0  0  0  0  0  0  0  0  0
   46.2230   35.8610   41.9170 H   0  0  0  0  0  0  0  0  0  0  0  0
  1  2  1  0  0  0  0
  1  3  1  0  0  0  0
  4 13  1  0  0  0  0
  5  4  1  0  0  0  0
  5  1  1  0  0  0  0
  6  5  2  0  0  0  0
  7 11  2  0  0  0  0
  7  6  1  0  0  0  0
  8  7  1  0  0  0  0
  9  8  1  0  0  0  0
  9 10  2  0  0  0  0
 10 11  1  0  0  0  0
 11 12  1  0  0  0  0
 12 18  1  0  0  0  0
 12  4  2  0  0  0  0
 14  6  1  0  0  0  0
 15  8  1  0  0  0  0
 16  9  1  0  0  0  0
 17 10  1  0  0  0  0
 18 19  2  0  0  0  0
 19 20  1  0  0  0  0
 20 21  1  0  0  0  0
 22  1  1  0  0  0  0
 22 23  1  0  0  0  0
 24 22  1  0  0  0  0
 25 29  2  0  0  0  0
 26 25  1  0  0  0  0
 26 27  2  0  0  0  0
 27 28  1  0  0  0  0
 28 22  1  0  0  0  0
 29 28  1  0  0  0  0
 30 26  1  0  0  0  0
 31 27  1  0  0  0  0
 32 37  1  0  0  0  0
 32 38  1  0  0  0  0
 33 32  2  0  0  0  0
 34 35  2  0  0  0  0
 34 33  1  0  0  0  0
 35 36  1  0  0  0  0
 36 25  1  0  0  0  0
 36 37  2  0  0  0  0
 39 33  1  0  0  0  0
 40 34  1  0  0  0  0
M  END
>  <minimizedAffinity>
-5.12202692

>  <minimizedRMSD>
0.970600784

$$$$
