
 OpenBabel03242511413D

 29 30  0  0  0  0  0  0  0  0999 V2000
   46.9560   32.8890   46.2550 C   0  0  0  0  0  0  0  0  0  0  0  0
   46.9320   33.9210   46.6240 H   0  0  0  0  0  0  0  0  0  0  0  0
   48.0380   32.5620   46.2160 H   0  0  0  0  0  0  0  0  0  0  0  0
   46.3130   32.0180   47.2330 C   0  0  0  0  0  0  0  0  0  0  0  0
   45.2520   32.2780   48.0870 C   0  0  0  0  0  0  0  0  0  0  0  0
   44.6870   31.3640   48.9390 C   0  0  0  0  0  0  0  0  0  0  0  0
   45.2130   30.1030   48.9410 C   0  0  0  0  0  0  0  0  0  0  0  0
   46.2780   29.8170   48.0970 C   0  0  0  0  0  0  0  0  0  0  0  0
   46.8310   30.7710   47.2450 C   0  0  0  0  0  0  0  0  0  0  0  0
   44.9150   33.3090   47.9980 H   0  0  0  0  0  0  0  0  0  0  0  0
   43.8740   31.7810   49.5150 H   0  0  0  0  0  0  0  0  0  0  0  0
   44.6730   29.4700   49.6620 H   0  0  0  0  0  0  0  0  0  0  0  0
   46.4880   28.7640   48.3040 H   0  0  0  0  0  0  0  0  0  0  0  0
   47.9820   30.0770   46.6880 C   0  0  0  0  0  3  0  0  0  0  0  0
   48.1860   29.4030   45.5770 C   0  0  0  0  0  3  0  0  0  0  0  0
   49.3440   28.7180   45.0430 C   0  0  0  0  0  2  0  0  0  0  0  0
   50.1910   28.8390   45.7740 H   0  0  0  0  0  0  0  0  0  0  0  0
   46.4280   32.7120   44.8720 C   0  0  0  0  0  0  0  0  0  0  0  0
   45.5090   32.0980   44.9040 H   0  0  0  0  0  0  0  0  0  0  0  0
   47.1940   32.4250   44.1320 H   0  0  0  0  0  0  0  0  0  0  0  0
   44.5290   35.8840   44.7450 C   0  0  0  0  0  0  0  0  0  0  0  0
   44.8970   36.3970   43.4770 C   0  0  0  0  0  0  0  0  0  0  0  0
   45.7830   35.6430   42.7340 C   0  0  0  0  0  0  0  0  0  0  0  0
   46.2440   34.4920   43.2300 N   0  0  0  0  0  0  0  0  0  0  0  0
   45.8570   34.0450   44.4550 C   0  0  0  0  0  0  0  0  0  0  0  0
   45.0180   34.7210   45.2050 N   0  0  0  0  0  0  0  0  0  0  0  0
   43.8210   36.5160   45.3040 H   0  0  0  0  0  0  0  0  0  0  0  0
   44.4950   37.3420   43.1120 H   0  0  0  0  0  0  0  0  0  0  0  0
   46.1090   35.9750   41.7540 H   0  0  0  0  0  0  0  0  0  0  0  0
  1  2  1  0  0  0  0
  1  4  1  0  0  0  0
  3  1  1  0  0  0  0
  4  9  2  0  0  0  0
  4  5  1  0  0  0  0
  5  6  2  0  0  0  0
  6  7  1  0  0  0  0
  6 11  1  0  0  0  0
  7 12  1  0  0  0  0
  8 13  1  0  0  0  0
  8  7  2  0  0  0  0
  9  8  1  0  0  0  0
 10  5  1  0  0  0  0
 14  9  1  0  0  0  0
 15 14  2  0  0  0  0
 16 15  1  0  0  0  0
 16 17  1  0  0  0  0
 18 19  1  0  0  0  0
 18  1  1  0  0  0  0
 20 18  1  0  0  0  0
 21 26  1  0  0  0  0
 21 27  1  0  0  0  0
 22 21  2  0  0  0  0
 23 24  2  0  0  0  0
 23 22  1  0  0  0  0
 24 25  1  0  0  0  0
 25 18  1  0  0  0  0
 25 26  2  0  0  0  0
 28 22  1  0  0  0  0
 29 23  1  0  0  0  0
M  END
>  <minimizedAffinity>
-4.56165838

>  <minimizedRMSD>
1.27644157

$$$$
