
 OpenBabel03252504003D

 29 31  0  0  0  0  0  0  0  0999 V2000
   46.0460   31.7100   45.1590 C   0  0  0  0  0  0  0  0  0  0  0  0
   45.7680   33.0080   45.5660 C   0  0  0  0  0  0  0  0  0  0  0  0
   45.4760   33.2860   46.8970 C   0  0  0  0  0  0  0  0  0  0  0  0
   45.4710   32.2320   47.7900 C   0  0  0  0  0  0  0  0  0  0  0  0
   45.2320   32.1730   49.1120 N   0  0  0  0  0  0  0  0  0  0  0  0
   45.3410   30.9130   49.5660 C   0  0  0  0  0  0  0  0  0  0  0  0
   45.6670   30.0970   48.4990 C   0  0  0  0  0  0  0  0  0  0  0  0
   45.7480   30.9190   47.3930 C   0  0  0  0  0  0  0  0  0  0  0  0
   46.0320   30.6790   46.0740 C   0  0  0  0  0  0  0  0  0  0  0  0
   46.2770   31.4560   44.1290 H   0  0  0  0  0  0  0  0  0  0  0  0
   45.2620   34.2990   47.2070 H   0  0  0  0  0  0  0  0  0  0  0  0
   44.9910   32.9530   49.7510 H   0  0  0  0  0  0  0  0  0  0  0  0
   45.2310   30.4520   50.5340 H   0  0  0  0  0  0  0  0  0  0  0  0
   45.8410   29.0420   48.4390 H   0  0  0  0  0  0  0  0  0  0  0  0
   46.2470   29.6660   45.7630 H   0  0  0  0  0  0  0  0  0  0  0  0
   46.8210   34.9760   42.6700 C   0  0  0  0  0  0  0  0  0  0  0  0
   45.8900   36.0170   42.6160 C   0  0  0  0  0  0  0  0  0  0  0  0
   44.8950   36.0350   43.5860 C   0  0  0  0  0  0  0  0  0  0  0  0
   44.8750   35.0550   44.5280 N   0  0  0  0  0  0  0  0  0  0  0  0
   45.7970   34.0630   44.5460 C   0  0  0  0  0  0  0  0  0  0  0  0
   46.7720   34.0190   43.6190 N   0  0  0  0  0  0  0  0  0  0  0  0
   45.9460   36.7770   41.8450 H   0  0  0  0  0  0  0  0  0  0  0  0
   44.1640   36.8330   43.5610 H   0  0  0  0  0  0  0  0  0  0  0  0
   47.8390   34.9920   41.6450 C   0  0  0  0  0  0  0  0  0  0  0  0
   48.9880   35.5160   41.7740 O   0  0  0  0  0  0  0  0  0  0  0  0
   47.5800   34.3730   40.3460 C   0  0  0  0  0  3  0  0  0  0  0  0
   48.3280   34.6890   39.3080 C   0  0  0  0  0  3  0  0  0  0  0  0
   48.1410   34.1140   37.9540 C   0  0  0  0  0  2  0  0  0  0  0  0
   47.1910   33.5480   37.9490 H   0  0  0  0  0  0  0  0  0  0  0  0
  1  2  2  0  0  0  0
  1  9  1  0  0  0  0
  2  3  1  0  0  0  0
  3 11  1  0  0  0  0
  3  4  2  0  0  0  0
  4  5  1  0  0  0  0
  5  6  1  0  0  0  0
  5 12  1  0  0  0  0
  6 13  1  0  0  0  0
  7  6  2  0  0  0  0
  8  4  1  0  0  0  0
  8  7  1  0  0  0  0
  9  8  2  0  0  0  0
 10  1  1  0  0  0  0
 14  7  1  0  0  0  0
 15  9  1  0  0  0  0
 16 21  1  0  0  0  0
 17 16  2  0  0  0  0
 17 18  1  0  0  0  0
 18 19  2  0  0  0  0
 19 20  1  0  0  0  0
 20  2  1  0  0  0  0
 21 20  2  0  0  0  0
 22 17  1  0  0  0  0
 23 18  1  0  0  0  0
 24 25  2  0  0  0  0
 24 16  1  0  0  0  0
 26 24  1  0  0  0  0
 27 26  2  0  0  0  0
 28 27  1  0  0  0  0
 29 28  1  0  0  0  0
M  END
>  <minimizedAffinity>
-5.8873744

>  <minimizedRMSD>
0.568527818

$$$$
