
 OpenBabel03242521443D

 33 34  0  0  1  0  0  0  0  0999 V2000
   45.2170   36.0430   44.0080 C   0  0  0  0  0  0  0  0  0  0  0  0
   45.9630   35.2270   43.1490 C   0  0  0  0  0  0  0  0  0  0  0  0
   46.2370   33.9060   43.5200 C   0  0  0  0  0  0  0  0  0  0  0  0
   45.7620   33.4910   44.6920 N   0  0  0  0  0  0  0  0  0  0  0  0
   45.0420   34.2870   45.5140 C   0  0  0  0  0  0  0  0  0  0  0  0
   44.7670   35.5620   45.1770 N   0  0  0  0  0  0  0  0  0  0  0  0
   46.2950   35.6660   42.2290 H   0  0  0  0  0  0  0  0  0  0  0  0
   44.6800   33.9010   46.4540 H   0  0  0  0  0  0  0  0  0  0  0  0
   48.2900   33.7350   42.1300 C   0  0  2  0  0  0  0  0  0  0  0  0
   47.0200   33.1050   42.5810 C   0  0  2  0  0  0  0  0  0  0  0  0
   46.3690   32.8910   41.3300 O   0  0  0  0  0  0  0  0  0  0  0  0
   47.3450   32.2320   40.6080 C   0  0  0  0  0  0  0  0  0  0  0  0
   48.7010   32.6730   41.0880 C   0  0  1  0  0  0  0  0  0  0  0  0
   48.1410   34.6500   41.5160 H   0  0  0  0  0  0  0  0  0  0  0  0
   47.2180   32.0750   42.9370 H   0  0  0  0  0  0  0  0  0  0  0  0
   47.2460   31.1510   40.8380 H   0  0  0  0  0  0  0  0  0  0  0  0
   47.2050   32.3330   39.5070 H   0  0  0  0  0  0  0  0  0  0  0  0
   49.2550   31.8800   41.6050 H   0  0  0  0  0  0  0  0  0  0  0  0
   49.2140   33.9400   43.1100 O   0  0  0  0  0  0  0  0  0  0  0  0
   49.8160   34.6880   42.8440 H   0  0  0  0  0  0  0  0  0  0  0  0
   49.4710   33.2740   40.1040 O   0  0  0  0  0  0  0  0  0  0  0  0
   49.2000   33.0130   39.1890 H   0  0  0  0  0  0  0  0  0  0  0  0
   44.9420   37.4630   43.5900 C   0  0  0  0  0  0  0  0  0  0  0  0
   44.0290   37.5410   42.9990 H   0  0  0  0  0  0  0  0  0  0  0  0
   45.8120   37.8350   43.0070 H   0  0  0  0  0  0  0  0  0  0  0  0
   45.2780   39.6020   44.9910 C   0  0  0  0  0  0  0  0  0  0  0  0
   45.7010   40.1910   43.9590 O   0  0  0  0  0  0  0  0  0  0  0  0
   44.8930   38.2520   44.8010 N   0  0  0  0  0  0  0  0  0  0  0  0
   44.5170   37.7500   45.6600 H   0  0  0  0  0  0  0  0  0  0  0  0
   45.1950   40.2630   46.2650 C   0  0  0  0  0  3  0  0  0  0  0  0
   44.5810   41.3970   46.4370 C   0  0  0  0  0  3  0  0  0  0  0  0
   43.9240   42.0770   45.3080 C   0  0  0  0  0  2  0  0  0  0  0  0
   44.6270   42.3600   44.4800 H   0  0  0  0  0  0  0  0  0  0  0  0
  1  6  1  0  0  0  0
  2  3  1  0  0  0  0
  2  1  2  0  0  0  0
  3  4  2  0  0  0  0
  4  5  1  0  0  0  0
  5  8  1  0  0  0  0
  6  5  2  0  0  0  0
  7  2  1  0  0  0  0
  9 14  1  6  0  0  0
  9 10  1  0  0  0  0
  9 19  1  0  0  0  0
 10 15  1  1  0  0  0
 10  3  1  0  0  0  0
 11 10  1  0  0  0  0
 12 16  1  0  0  0  0
 12 13  1  0  0  0  0
 12 11  1  0  0  0  0
 13 18  1  1  0  0  0
 13  9  1  0  0  0  0
 17 12  1  0  0  0  0
 20 19  1  0  0  0  0
 21 13  1  0  0  0  0
 22 21  1  0  0  0  0
 23  1  1  0  0  0  0
 23 28  1  0  0  0  0
 24 23  1  0  0  0  0
 25 23  1  0  0  0  0
 26 30  1  0  0  0  0
 27 26  2  0  0  0  0
 28 26  1  0  0  0  0
 28 29  1  0  0  0  0
 30 31  2  0  0  0  0
 32 31  1  0  0  0  0
 33 32  1  0  0  0  0
M  END
>  <minimizedAffinity>
-4.89697647

>  <minimizedRMSD>
0.889681876

$$$$
