
 OpenBabel03242510553D

 26 27  0  0  0  0  0  0  0  0999 V2000
   41.1470   33.5470   40.2300 C   0  0  0  0  0  0  0  0  0  0  0  0
   40.1690   34.5360   40.0920 C   0  0  0  0  0  0  0  0  0  0  0  0
   38.8420   34.1950   40.4110 C   0  0  0  0  0  0  0  0  0  0  0  0
   38.5710   32.9250   40.8370 N   0  0  0  0  0  0  0  0  0  0  0  0
   39.5650   32.0040   40.9510 C   0  0  0  0  0  0  0  0  0  0  0  0
   40.8650   32.3080   40.6490 N   0  0  0  0  0  0  0  0  0  0  0  0
   37.8560   30.3350   41.3650 C   0  0  0  0  0  0  0  0  0  0  0  0
   36.9270   31.0870   40.9730 O   0  0  0  0  0  0  0  0  0  0  0  0
   39.2400   30.6960   41.3980 N   0  0  0  0  0  0  0  0  0  0  0  0
   42.1520   33.8530   39.9750 H   0  0  0  0  0  0  0  0  0  0  0  0
   40.3700   35.5490   39.7560 H   0  0  0  0  0  0  0  0  0  0  0  0
   38.0110   34.8950   40.3360 H   0  0  0  0  0  0  0  0  0  0  0  0
   39.9460   30.0250   41.7320 H   0  0  0  0  0  0  0  0  0  0  0  0
   37.5180   28.9950   41.8210 C   0  0  0  0  0  0  0  0  0  0  0  0
   37.3250   28.7520   43.1870 C   0  0  0  0  0  0  0  0  0  0  0  0
   37.0030   27.5110   43.7010 C   0  0  0  0  0  0  0  0  0  0  0  0
   36.8670   26.4710   42.8190 C   0  0  0  0  0  0  0  0  0  0  0  0
   37.0570   26.7080   41.4640 C   0  0  0  0  0  0  0  0  0  0  0  0
   37.3680   27.9340   41.0280 N   0  0  0  0  0  0  0  0  0  0  0  0
   37.4310   29.5670   43.8920 H   0  0  0  0  0  0  0  0  0  0  0  0
   36.8660   27.3800   44.7680 H   0  0  0  0  0  0  0  0  0  0  0  0
   36.6170   25.5160   43.2300 H   0  0  0  0  0  0  0  0  0  0  0  0
   36.9140   25.6060   40.5190 C   0  0  0  0  0  3  0  0  0  0  0  0
   36.8940   24.3580   40.9600 C   0  0  0  0  0  3  0  0  0  0  0  0
   36.7560   23.1240   40.1440 C   0  0  0  0  0  2  0  0  0  0  0  0
   37.7010   22.5190   40.1610 H   0  0  0  0  0  0  0  0  0  0  0  0
  1  6  1  0  0  0  0
  2  1  2  0  0  0  0
  2  3  1  0  0  0  0
  3  4  2  0  0  0  0
  4  5  1  0  0  0  0
  5  9  1  0  0  0  0
  6  5  2  0  0  0  0
  7  9  1  0  0  0  0
  7 14  1  0  0  0  0
  8  7  2  0  0  0  0
  9 13  1  0  0  0  0
 10  1  1  0  0  0  0
 11  2  1  0  0  0  0
 12  3  1  0  0  0  0
 14 15  1  0  0  0  0
 15 16  2  0  0  0  0
 15 20  1  0  0  0  0
 16 21  1  0  0  0  0
 17 22  1  0  0  0  0
 17 16  1  0  0  0  0
 18 17  2  0  0  0  0
 19 18  1  0  0  0  0
 19 14  2  0  0  0  0
 23 24  2  0  0  0  0
 23 18  1  0  0  0  0
 25 26  1  0  0  0  0
 25 24  1  0  0  0  0
M  END
>  <minimizedAffinity>
-5.33737087

$$$$

 OpenBabel03242510553D

 26 27  0  0  0  0  0  0  0  0999 V2000
   37.1520   32.2980   38.9710 C   0  0  0  0  0  0  0  0  0  0  0  0
   37.7390   33.3660   39.6540 C   0  0  0  0  0  0  0  0  0  0  0  0
   38.5590   33.0670   40.7570 C   0  0  0  0  0  0  0  0  0  0  0  0
   38.7440   31.7590   41.1070 N   0  0  0  0  0  0  0  0  0  0  0  0
   38.1460   30.7620   40.4040 C   0  0  0  0  0  0  0  0  0  0  0  0
   37.3440   31.0220   39.3260 N   0  0  0  0  0  0  0  0  0  0  0  0
   38.9110   29.2160   42.1090 C   0  0  0  0  0  0  0  0  0  0  0  0
   39.2030   30.1380   42.9120 O   0  0  0  0  0  0  0  0  0  0  0  0
   38.3650   29.4160   40.8010 N   0  0  0  0  0  0  0  0  0  0  0  0
   36.5300   32.5730   38.1290 H   0  0  0  0  0  0  0  0  0  0  0  0
   37.6010   34.4100   39.3870 H   0  0  0  0  0  0  0  0  0  0  0  0
   39.0600   33.8300   41.3530 H   0  0  0  0  0  0  0  0  0  0  0  0
   38.1510   28.6100   40.1970 H   0  0  0  0  0  0  0  0  0  0  0  0
   39.1360   27.8390   42.5200 C   0  0  0  0  0  0  0  0  0  0  0  0
   40.1670   27.5410   43.4210 C   0  0  0  0  0  0  0  0  0  0  0  0
   40.4470   26.2620   43.8620 C   0  0  0  0  0  0  0  0  0  0  0  0
   39.6680   25.2390   43.3850 C   0  0  0  0  0  0  0  0  0  0  0  0
   38.6450   25.5300   42.4930 C   0  0  0  0  0  0  0  0  0  0  0  0
   38.4250   26.7910   42.1040 N   0  0  0  0  0  0  0  0  0  0  0  0
   40.7880   28.3420   43.8030 H   0  0  0  0  0  0  0  0  0  0  0  0
   41.2570   26.0890   44.5590 H   0  0  0  0  0  0  0  0  0  0  0  0
   39.8950   24.2550   43.7350 H   0  0  0  0  0  0  0  0  0  0  0  0
   37.8130   24.4470   41.9820 C   0  0  0  0  0  3  0  0  0  0  0  0
   36.9570   24.6780   41.0000 C   0  0  0  0  0  3  0  0  0  0  0  0
   36.0400   23.6990   40.3630 C   0  0  0  0  0  2  0  0  0  0  0  0
   34.9680   23.9370   40.5950 H   0  0  0  0  0  0  0  0  0  0  0  0
  1  6  2  0  0  0  0
  1  2  1  0  0  0  0
  2  3  2  0  0  0  0
  3  4  1  0  0  0  0
  3 12  1  0  0  0  0
  5  9  1  0  0  0  0
  5  4  2  0  0  0  0
  6  5  1  0  0  0  0
  7 14  1  0  0  0  0
  7  8  2  0  0  0  0
  9  7  1  0  0  0  0
 10  1  1  0  0  0  0
 11  2  1  0  0  0  0
 13  9  1  0  0  0  0
 14 15  1  0  0  0  0
 15 20  1  0  0  0  0
 15 16  2  0  0  0  0
 16 21  1  0  0  0  0
 17 22  1  0  0  0  0
 17 16  1  0  0  0  0
 18 17  2  0  0  0  0
 19 18  1  0  0  0  0
 19 14  2  0  0  0  0
 23 18  1  0  0  0  0
 24 23  2  0  0  0  0
 25 26  1  0  0  0  0
 25 24  1  0  0  0  0
M  END
>  <minimizedAffinity>
-5.20899963

$$$$

 OpenBabel03242510553D

 26 27  0  0  0  0  0  0  0  0999 V2000
   41.3390   34.5360   39.6490 C   0  0  0  0  0  0  0  0  0  0  0  0
   42.5340   34.4240   40.3650 C   0  0  0  0  0  0  0  0  0  0  0  0
   42.6710   33.3360   41.2460 C   0  0  0  0  0  0  0  0  0  0  0  0
   41.6400   32.4470   41.3620 N   0  0  0  0  0  0  0  0  0  0  0  0
   40.5000   32.6070   40.6390 C   0  0  0  0  0  0  0  0  0  0  0  0
   40.3390   33.6550   39.7740 N   0  0  0  0  0  0  0  0  0  0  0  0
   39.5250   30.8040   41.9340 C   0  0  0  0  0  0  0  0  0  0  0  0
   40.4390   30.8370   42.7980 O   0  0  0  0  0  0  0  0  0  0  0  0
   39.4540   31.6600   40.7890 N   0  0  0  0  0  0  0  0  0  0  0  0
   41.2770   35.3860   38.9830 H   0  0  0  0  0  0  0  0  0  0  0  0
   43.3610   35.1230   40.2820 H   0  0  0  0  0  0  0  0  0  0  0  0
   43.5630   33.1640   41.8470 H   0  0  0  0  0  0  0  0  0  0  0  0
   38.6740   31.5740   40.1220 H   0  0  0  0  0  0  0  0  0  0  0  0
   38.4550   29.8310   42.0920 C   0  0  0  0  0  0  0  0  0  0  0  0
   38.4620   28.9600   43.1890 C   0  0  0  0  0  0  0  0  0  0  0  0
   37.4850   28.0090   43.4130 C   0  0  0  0  0  0  0  0  0  0  0  0
   36.4600   27.9240   42.5060 C   0  0  0  0  0  0  0  0  0  0  0  0
   36.4490   28.7860   41.4180 C   0  0  0  0  0  0  0  0  0  0  0  0
   37.4260   29.6860   41.2580 N   0  0  0  0  0  0  0  0  0  0  0  0
   39.2690   29.0190   43.9100 H   0  0  0  0  0  0  0  0  0  0  0  0
   37.5410   27.3600   44.2780 H   0  0  0  0  0  0  0  0  0  0  0  0
   35.7110   27.1840   42.6910 H   0  0  0  0  0  0  0  0  0  0  0  0
   35.3610   28.7000   40.4500 C   0  0  0  0  0  3  0  0  0  0  0  0
   35.5550   29.0970   39.2030 C   0  0  0  0  0  3  0  0  0  0  0  0
   34.5660   29.0790   38.0950 C   0  0  0  0  0  2  0  0  0  0  0  0
   34.2850   30.1210   37.7860 H   0  0  0  0  0  0  0  0  0  0  0  0
  1  6  2  0  0  0  0
  1  2  1  0  0  0  0
  2  3  2  0  0  0  0
  3  4  1  0  0  0  0
  3 12  1  0  0  0  0
  5  9  1  0  0  0  0
  5  4  2  0  0  0  0
  6  5  1  0  0  0  0
  7 14  1  0  0  0  0
  7  8  2  0  0  0  0
  9  7  1  0  0  0  0
 10  1  1  0  0  0  0
 11  2  1  0  0  0  0
 13  9  1  0  0  0  0
 14 15  1  0  0  0  0
 15 16  2  0  0  0  0
 15 20  1  0  0  0  0
 16 21  1  0  0  0  0
 17 22  1  0  0  0  0
 17 16  1  0  0  0  0
 18 17  2  0  0  0  0
 19 18  1  0  0  0  0
 19 14  2  0  0  0  0
 23 18  1  0  0  0  0
 24 23  2  0  0  0  0
 25 24  1  0  0  0  0
 26 25  1  0  0  0  0
M  END
>  <minimizedAffinity>
-5.05583334

$$$$

 OpenBabel03242510553D

 26 27  0  0  0  0  0  0  0  0999 V2000
   41.9570   33.6110   37.4940 C   0  0  0  0  0  0  0  0  0  0  0  0
   42.4620   34.3710   38.5530 C   0  0  0  0  0  0  0  0  0  0  0  0
   41.9430   34.1300   39.8380 C   0  0  0  0  0  0  0  0  0  0  0  0
   40.9780   33.1750   39.9920 N   0  0  0  0  0  0  0  0  0  0  0  0
   40.5250   32.4680   38.9230 C   0  0  0  0  0  0  0  0  0  0  0  0
   41.0120   32.6790   37.6620 N   0  0  0  0  0  0  0  0  0  0  0  0
   38.8120   31.5420   40.3690 C   0  0  0  0  0  0  0  0  0  0  0  0
   39.0170   32.3930   41.2720 O   0  0  0  0  0  0  0  0  0  0  0  0
   39.5210   31.4840   39.1270 N   0  0  0  0  0  0  0  0  0  0  0  0
   42.3850   33.8280   36.5240 H   0  0  0  0  0  0  0  0  0  0  0  0
   43.2290   35.1320   38.4450 H   0  0  0  0  0  0  0  0  0  0  0  0
   42.2720   34.6700   40.7250 H   0  0  0  0  0  0  0  0  0  0  0  0
   39.2980   30.7570   38.4340 H   0  0  0  0  0  0  0  0  0  0  0  0
   37.7830   30.5370   40.5820 C   0  0  0  0  0  0  0  0  0  0  0  0
   36.4870   30.7520   40.0940 C   0  0  0  0  0  0  0  0  0  0  0  0
   35.4540   29.8490   40.2540 C   0  0  0  0  0  0  0  0  0  0  0  0
   35.7220   28.6860   40.9280 C   0  0  0  0  0  0  0  0  0  0  0  0
   37.0050   28.4690   41.4140 C   0  0  0  0  0  0  0  0  0  0  0  0
   37.9630   29.3840   41.2260 N   0  0  0  0  0  0  0  0  0  0  0  0
   36.2650   31.6680   39.5610 H   0  0  0  0  0  0  0  0  0  0  0  0
   34.4710   30.0670   39.8560 H   0  0  0  0  0  0  0  0  0  0  0  0
   34.9140   27.9960   41.0450 H   0  0  0  0  0  0  0  0  0  0  0  0
   37.2970   27.2340   42.1320 C   0  0  0  0  0  3  0  0  0  0  0  0
   37.0380   26.0650   41.5670 C   0  0  0  0  0  3  0  0  0  0  0  0
   37.2710   24.7190   42.1500 C   0  0  0  0  0  2  0  0  0  0  0  0
   36.3020   24.1950   42.3610 H   0  0  0  0  0  0  0  0  0  0  0  0
  1  6  2  0  0  0  0
  1  2  1  0  0  0  0
  2  3  2  0  0  0  0
  3  4  1  0  0  0  0
  3 12  1  0  0  0  0
  5  9  1  0  0  0  0
  5  4  2  0  0  0  0
  6  5  1  0  0  0  0
  7 14  1  0  0  0  0
  7  8  2  0  0  0  0
  9  7  1  0  0  0  0
 10  1  1  0  0  0  0
 11  2  1  0  0  0  0
 13  9  1  0  0  0  0
 14 19  1  0  0  0  0
 15 16  1  0  0  0  0
 15 14  2  0  0  0  0
 16 17  2  0  0  0  0
 17 22  1  0  0  0  0
 17 18  1  0  0  0  0
 18 23  1  0  0  0  0
 19 18  2  0  0  0  0
 20 15  1  0  0  0  0
 21 16  1  0  0  0  0
 24 23  2  0  0  0  0
 24 25  1  0  0  0  0
 25 26  1  0  0  0  0
M  END
>  <minimizedAffinity>
-4.97239208

$$$$

 OpenBabel03242510553D

 26 27  0  0  0  0  0  0  0  0999 V2000
   41.0730   31.8920   37.2060 C   0  0  0  0  0  0  0  0  0  0  0  0
   41.3440   33.0980   37.8590 C   0  0  0  0  0  0  0  0  0  0  0  0
   40.9810   33.2050   39.2140 C   0  0  0  0  0  0  0  0  0  0  0  0
   40.3860   32.1370   39.8240 N   0  0  0  0  0  0  0  0  0  0  0  0
   40.1480   30.9890   39.1370 C   0  0  0  0  0  0  0  0  0  0  0  0
   40.4900   30.8550   37.8190 N   0  0  0  0  0  0  0  0  0  0  0  0
   38.8860   30.2030   41.0530 C   0  0  0  0  0  0  0  0  0  0  0  0
   38.8380   31.3460   41.5770 O   0  0  0  0  0  0  0  0  0  0  0  0
   39.5280   29.9030   39.8100 N   0  0  0  0  0  0  0  0  0  0  0  0
   41.3690   31.8530   36.1660 H   0  0  0  0  0  0  0  0  0  0  0  0
   41.8160   33.9540   37.3860 H   0  0  0  0  0  0  0  0  0  0  0  0
   41.1500   34.1030   39.8080 H   0  0  0  0  0  0  0  0  0  0  0  0
   39.5270   28.9410   39.4420 H   0  0  0  0  0  0  0  0  0  0  0  0
   38.2490   29.0940   41.7460 C   0  0  0  0  0  0  0  0  0  0  0  0
   37.8950   29.2260   43.0950 C   0  0  0  0  0  0  0  0  0  0  0  0
   37.2870   28.2230   43.8250 C   0  0  0  0  0  0  0  0  0  0  0  0
   37.0230   27.0400   43.1840 C   0  0  0  0  0  0  0  0  0  0  0  0
   37.3720   26.9050   41.8470 C   0  0  0  0  0  0  0  0  0  0  0  0
   37.9590   27.9160   41.1950 N   0  0  0  0  0  0  0  0  0  0  0  0
   38.1010   30.1570   43.6100 H   0  0  0  0  0  0  0  0  0  0  0  0
   37.0360   28.3800   44.8660 H   0  0  0  0  0  0  0  0  0  0  0  0
   36.5520   26.2720   43.7600 H   0  0  0  0  0  0  0  0  0  0  0  0
   37.0920   25.6500   41.1600 C   0  0  0  0  0  3  0  0  0  0  0  0
   37.8000   24.5680   41.4460 C   0  0  0  0  0  3  0  0  0  0  0  0
   37.6510   23.2170   40.8480 C   0  0  0  0  0  2  0  0  0  0  0  0
   38.5450   22.9490   40.2250 H   0  0  0  0  0  0  0  0  0  0  0  0
  1  6  2  0  0  0  0
  1  2  1  0  0  0  0
  2  3  2  0  0  0  0
  3 12  1  0  0  0  0
  3  4  1  0  0  0  0
  5  9  1  0  0  0  0
  5  4  2  0  0  0  0
  6  5  1  0  0  0  0
  7  8  2  0  0  0  0
  7 14  1  0  0  0  0
  9  7  1  0  0  0  0
 10  1  1  0  0  0  0
 11  2  1  0  0  0  0
 13  9  1  0  0  0  0
 14 15  1  0  0  0  0
 15 20  1  0  0  0  0
 15 16  2  0  0  0  0
 16 21  1  0  0  0  0
 17 22  1  0  0  0  0
 17 16  1  0  0  0  0
 18 17  2  0  0  0  0
 19 14  2  0  0  0  0
 19 18  1  0  0  0  0
 23 24  2  0  0  0  0
 23 18  1  0  0  0  0
 25 24  1  0  0  0  0
 26 25  1  0  0  0  0
M  END
>  <minimizedAffinity>
-4.90041971

$$$$

 OpenBabel03242510553D

 26 27  0  0  0  0  0  0  0  0999 V2000
   37.2450   26.4230   40.9910 C   0  0  0  0  0  0  0  0  0  0  0  0
   37.2170   26.1970   42.3700 C   0  0  0  0  0  0  0  0  0  0  0  0
   37.5910   27.2580   43.2150 C   0  0  0  0  0  0  0  0  0  0  0  0
   37.9610   28.4480   42.6560 N   0  0  0  0  0  0  0  0  0  0  0  0
   37.9700   28.6080   41.3060 C   0  0  0  0  0  0  0  0  0  0  0  0
   37.6110   27.5950   40.4590 N   0  0  0  0  0  0  0  0  0  0  0  0
   39.0470   30.7530   41.6520 C   0  0  0  0  0  0  0  0  0  0  0  0
   39.3190   30.5010   42.8540 O   0  0  0  0  0  0  0  0  0  0  0  0
   38.3610   29.8620   40.7670 N   0  0  0  0  0  0  0  0  0  0  0  0
   36.9500   25.5810   40.3790 H   0  0  0  0  0  0  0  0  0  0  0  0
   36.9240   25.2570   42.8270 H   0  0  0  0  0  0  0  0  0  0  0  0
   37.6010   27.1800   44.3020 H   0  0  0  0  0  0  0  0  0  0  0  0
   38.1730   30.1380   39.7930 H   0  0  0  0  0  0  0  0  0  0  0  0
   39.4500   32.0390   41.1040 C   0  0  0  0  0  0  0  0  0  0  0  0
   38.4770   32.9590   40.6960 C   0  0  0  0  0  0  0  0  0  0  0  0
   38.7750   34.2000   40.1660 C   0  0  0  0  0  0  0  0  0  0  0  0
   40.0980   34.5360   40.0380 C   0  0  0  0  0  0  0  0  0  0  0  0
   41.0670   33.6270   40.4420 C   0  0  0  0  0  0  0  0  0  0  0  0
   40.7120   32.4400   40.9480 N   0  0  0  0  0  0  0  0  0  0  0  0
   37.4280   32.7020   40.7930 H   0  0  0  0  0  0  0  0  0  0  0  0
   37.9810   34.8720   39.8660 H   0  0  0  0  0  0  0  0  0  0  0  0
   40.3150   35.4980   39.6270 H   0  0  0  0  0  0  0  0  0  0  0  0
   42.4760   33.9790   40.3080 C   0  0  0  0  0  3  0  0  0  0  0  0
   43.1260   33.6870   39.1930 C   0  0  0  0  0  3  0  0  0  0  0  0
   44.5520   33.9710   38.8890 C   0  0  0  0  0  2  0  0  0  0  0  0
   45.1470   33.0230   38.8160 H   0  0  0  0  0  0  0  0  0  0  0  0
  1  2  1  0  0  0  0
  2 11  1  0  0  0  0
  2  3  2  0  0  0  0
  3 12  1  0  0  0  0
  4  3  1  0  0  0  0
  5  4  2  0  0  0  0
  6  1  2  0  0  0  0
  6  5  1  0  0  0  0
  7  8  2  0  0  0  0
  9  5  1  0  0  0  0
  9  7  1  0  0  0  0
 10  1  1  0  0  0  0
 13  9  1  0  0  0  0
 14  7  1  0  0  0  0
 15 20  1  0  0  0  0
 15 14  2  0  0  0  0
 16 15  1  0  0  0  0
 17 16  2  0  0  0  0
 17 18  1  0  0  0  0
 18 19  2  0  0  0  0
 19 14  1  0  0  0  0
 21 16  1  0  0  0  0
 22 17  1  0  0  0  0
 23 18  1  0  0  0  0
 24 23  2  0  0  0  0
 25 24  1  0  0  0  0
 26 25  1  0  0  0  0
M  END
>  <minimizedAffinity>
-4.6841898

$$$$

 OpenBabel03242510553D

 26 27  0  0  0  0  0  0  0  0999 V2000
   42.1590   33.1370   37.2230 C   0  0  0  0  0  0  0  0  0  0  0  0
   42.2390   34.2180   38.1050 C   0  0  0  0  0  0  0  0  0  0  0  0
   41.2340   34.3430   39.0810 C   0  0  0  0  0  0  0  0  0  0  0  0
   40.2340   33.4120   39.1220 N   0  0  0  0  0  0  0  0  0  0  0  0
   40.2090   32.3820   38.2360 C   0  0  0  0  0  0  0  0  0  0  0  0
   41.1730   32.2340   37.2770 N   0  0  0  0  0  0  0  0  0  0  0  0
   38.0080   31.8180   39.0840 C   0  0  0  0  0  0  0  0  0  0  0  0
   37.8810   32.9160   39.6840 O   0  0  0  0  0  0  0  0  0  0  0  0
   39.1520   31.4360   38.3140 N   0  0  0  0  0  0  0  0  0  0  0  0
   42.9520   33.0790   36.4900 H   0  0  0  0  0  0  0  0  0  0  0  0
   43.0280   34.9640   38.0840 H   0  0  0  0  0  0  0  0  0  0  0  0
   41.2090   35.1500   39.8130 H   0  0  0  0  0  0  0  0  0  0  0  0
   39.1840   30.5180   37.8500 H   0  0  0  0  0  0  0  0  0  0  0  0
   36.9220   30.8540   39.1660 C   0  0  0  0  0  0  0  0  0  0  0  0
   36.4280   30.4660   40.4180 C   0  0  0  0  0  0  0  0  0  0  0  0
   35.4010   29.5560   40.5840 C   0  0  0  0  0  0  0  0  0  0  0  0
   34.8440   29.0120   39.4550 C   0  0  0  0  0  0  0  0  0  0  0  0
   35.3310   29.3940   38.2120 C   0  0  0  0  0  0  0  0  0  0  0  0
   36.3290   30.2800   38.1190 N   0  0  0  0  0  0  0  0  0  0  0  0
   36.8620   30.8900   41.3160 H   0  0  0  0  0  0  0  0  0  0  0  0
   35.0590   29.2920   41.5770 H   0  0  0  0  0  0  0  0  0  0  0  0
   34.0510   28.3100   39.5970 H   0  0  0  0  0  0  0  0  0  0  0  0
   34.7430   28.8190   37.0080 C   0  0  0  0  0  3  0  0  0  0  0  0
   33.4630   29.0190   36.7380 C   0  0  0  0  0  3  0  0  0  0  0  0
   32.7060   28.5120   35.5650 C   0  0  0  0  0  2  0  0  0  0  0  0
   31.9410   27.7510   35.8740 H   0  0  0  0  0  0  0  0  0  0  0  0
  1  6  2  0  0  0  0
  1  2  1  0  0  0  0
  2  3  2  0  0  0  0
  3  4  1  0  0  0  0
  3 12  1  0  0  0  0
  5  9  1  0  0  0  0
  5  4  2  0  0  0  0
  6  5  1  0  0  0  0
  7 14  1  0  0  0  0
  7  8  2  0  0  0  0
  9  7  1  0  0  0  0
 10  1  1  0  0  0  0
 11  2  1  0  0  0  0
 13  9  1  0  0  0  0
 14 15  1  0  0  0  0
 15 16  2  0  0  0  0
 15 20  1  0  0  0  0
 16 21  1  0  0  0  0
 17 22  1  0  0  0  0
 17 16  1  0  0  0  0
 18 17  2  0  0  0  0
 19 18  1  0  0  0  0
 19 14  2  0  0  0  0
 23 18  1  0  0  0  0
 24 23  2  0  0  0  0
 25 26  1  0  0  0  0
 25 24  1  0  0  0  0
M  END
>  <minimizedAffinity>
-4.63470554

$$$$

 OpenBabel03242510553D

 26 27  0  0  0  0  0  0  0  0999 V2000
   44.3440   30.2010   35.2930 C   0  0  0  0  0  0  0  0  0  0  0  0
   45.1470   31.2260   35.8000 C   0  0  0  0  0  0  0  0  0  0  0  0
   44.5860   32.0820   36.7650 C   0  0  0  0  0  0  0  0  0  0  0  0
   43.2940   31.8760   37.1580 N   0  0  0  0  0  0  0  0  0  0  0  0
   42.5600   30.8620   36.6280 C   0  0  0  0  0  0  0  0  0  0  0  0
   43.0790   30.0130   35.6890 N   0  0  0  0  0  0  0  0  0  0  0  0
   40.6260   31.7790   37.7680 C   0  0  0  0  0  0  0  0  0  0  0  0
   41.2020   32.8690   38.0170 O   0  0  0  0  0  0  0  0  0  0  0  0
   41.2210   30.6830   37.0660 N   0  0  0  0  0  0  0  0  0  0  0  0
   44.8150   29.5660   34.5540 H   0  0  0  0  0  0  0  0  0  0  0  0
   46.1750   31.4000   35.4970 H   0  0  0  0  0  0  0  0  0  0  0  0
   45.1320   32.9080   37.2190 H   0  0  0  0  0  0  0  0  0  0  0  0
   40.6860   29.8200   36.8980 H   0  0  0  0  0  0  0  0  0  0  0  0
   39.2540   31.6010   38.2170 C   0  0  0  0  0  0  0  0  0  0  0  0
   38.7680   32.3590   39.2900 C   0  0  0  0  0  0  0  0  0  0  0  0
   37.4800   32.2510   39.7780 C   0  0  0  0  0  0  0  0  0  0  0  0
   36.6430   31.3510   39.1720 C   0  0  0  0  0  0  0  0  0  0  0  0
   37.1200   30.5980   38.1070 C   0  0  0  0  0  0  0  0  0  0  0  0
   38.3790   30.7490   37.6810 N   0  0  0  0  0  0  0  0  0  0  0  0
   39.4230   33.0720   39.7770 H   0  0  0  0  0  0  0  0  0  0  0  0
   37.1580   32.8620   40.6120 H   0  0  0  0  0  0  0  0  0  0  0  0
   35.6490   31.2770   39.5580 H   0  0  0  0  0  0  0  0  0  0  0  0
   36.2340   29.6390   37.4570 C   0  0  0  0  0  3  0  0  0  0  0  0
   35.0990   29.2880   38.0410 C   0  0  0  0  0  3  0  0  0  0  0  0
   34.0860   28.3320   37.5240 C   0  0  0  0  0  2  0  0  0  0  0  0
   34.0420   27.4070   38.1570 H   0  0  0  0  0  0  0  0  0  0  0  0
  1  6  2  0  0  0  0
  1  2  1  0  0  0  0
  2  3  2  0  0  0  0
  3  4  1  0  0  0  0
  3 12  1  0  0  0  0
  5  9  1  0  0  0  0
  5  4  2  0  0  0  0
  6  5  1  0  0  0  0
  7  8  2  0  0  0  0
  7 14  1  0  0  0  0
  9  7  1  0  0  0  0
 10  1  1  0  0  0  0
 11  2  1  0  0  0  0
 13  9  1  0  0  0  0
 14 15  1  0  0  0  0
 15 20  1  0  0  0  0
 15 16  2  0  0  0  0
 16 21  1  0  0  0  0
 17 22  1  0  0  0  0
 17 16  1  0  0  0  0
 18 17  2  0  0  0  0
 19 18  1  0  0  0  0
 19 14  2  0  0  0  0
 23 24  2  0  0  0  0
 23 18  1  0  0  0  0
 25 24  1  0  0  0  0
 25 26  1  0  0  0  0
M  END
>  <minimizedAffinity>
-4.58880138

$$$$

 OpenBabel03242510553D

 26 27  0  0  0  0  0  0  0  0999 V2000
   43.7950   30.4090   35.7860 C   0  0  0  0  0  0  0  0  0  0  0  0
   44.3360   31.4760   36.5080 C   0  0  0  0  0  0  0  0  0  0  0  0
   43.5540   32.0350   37.5350 C   0  0  0  0  0  0  0  0  0  0  0  0
   42.3140   31.5160   37.7780 N   0  0  0  0  0  0  0  0  0  0  0  0
   41.8400   30.4770   37.0420 C   0  0  0  0  0  0  0  0  0  0  0  0
   42.5780   29.9120   36.0370 N   0  0  0  0  0  0  0  0  0  0  0  0
   39.6960   30.7940   38.1290 C   0  0  0  0  0  0  0  0  0  0  0  0
   40.0160   31.9210   38.5860 O   0  0  0  0  0  0  0  0  0  0  0  0
   40.5460   29.9670   37.3280 N   0  0  0  0  0  0  0  0  0  0  0  0
   44.4300   30.0090   35.0070 H   0  0  0  0  0  0  0  0  0  0  0  0
   45.3200   31.8980   36.3260 H   0  0  0  0  0  0  0  0  0  0  0  0
   43.8890   32.8680   38.1530 H   0  0  0  0  0  0  0  0  0  0  0  0
   40.2140   29.0530   36.9880 H   0  0  0  0  0  0  0  0  0  0  0  0
   38.3690   30.2770   38.4240 C   0  0  0  0  0  0  0  0  0  0  0  0
   37.4290   30.1400   37.3940 C   0  0  0  0  0  0  0  0  0  0  0  0
   36.1490   29.6570   37.5890 C   0  0  0  0  0  0  0  0  0  0  0  0
   35.7920   29.2970   38.8630 C   0  0  0  0  0  0  0  0  0  0  0  0
   36.7200   29.4310   39.8870 C   0  0  0  0  0  0  0  0  0  0  0  0
   37.9450   29.9050   39.6320 N   0  0  0  0  0  0  0  0  0  0  0  0
   37.7020   30.4230   36.3840 H   0  0  0  0  0  0  0  0  0  0  0  0
   35.4630   29.5740   36.7560 H   0  0  0  0  0  0  0  0  0  0  0  0
   34.7990   28.9250   39.0000 H   0  0  0  0  0  0  0  0  0  0  0  0
   36.3470   29.0490   41.2440 C   0  0  0  0  0  3  0  0  0  0  0  0
   36.8450   27.9460   41.7800 C   0  0  0  0  0  3  0  0  0  0  0  0
   36.5740   27.4110   43.1390 C   0  0  0  0  0  2  0  0  0  0  0  0
   35.9960   26.4510   43.0890 H   0  0  0  0  0  0  0  0  0  0  0  0
  1  6  2  0  0  0  0
  1  2  1  0  0  0  0
  2  3  2  0  0  0  0
  3  4  1  0  0  0  0
  3 12  1  0  0  0  0
  5  9  1  0  0  0  0
  5  4  2  0  0  0  0
  6  5  1  0  0  0  0
  7 14  1  0  0  0  0
  7  8  2  0  0  0  0
  9  7  1  0  0  0  0
 10  1  1  0  0  0  0
 11  2  1  0  0  0  0
 13  9  1  0  0  0  0
 14 19  1  0  0  0  0
 15 16  1  0  0  0  0
 15 14  2  0  0  0  0
 16 17  2  0  0  0  0
 17 22  1  0  0  0  0
 17 18  1  0  0  0  0
 18 23  1  0  0  0  0
 19 18  2  0  0  0  0
 20 15  1  0  0  0  0
 21 16  1  0  0  0  0
 23 24  2  0  0  0  0
 24 25  1  0  0  0  0
 26 25  1  0  0  0  0
M  END
>  <minimizedAffinity>
-4.55575466

$$$$
