
 OpenBabel03252503093D

 22 23  0  0  0  0  0  0  0  0999 V2000
   45.1740   36.1730   43.4480 C   0  0  0  0  0  0  0  0  0  0  0  0
   45.8290   34.9820   43.0790 C   0  0  0  0  0  0  0  0  0  0  0  0
   45.8310   33.9880   44.0500 C   0  0  0  0  0  0  0  0  0  0  0  0
   45.2490   34.1520   45.2580 N   0  0  0  0  0  0  0  0  0  0  0  0
   44.6270   35.3280   45.5650 C   0  0  0  0  0  0  0  0  0  0  0  0
   44.5950   36.3310   44.6560 N   0  0  0  0  0  0  0  0  0  0  0  0
   45.1150   37.0060   42.7670 H   0  0  0  0  0  0  0  0  0  0  0  0
   44.1780   35.4250   46.5270 H   0  0  0  0  0  0  0  0  0  0  0  0
   46.4550   32.7750   43.7680 C   0  0  0  0  0  0  0  0  0  0  0  0
   47.7570   32.3250   43.8120 C   0  0  0  0  0  0  0  0  0  0  0  0
   48.1140   31.0950   43.4780 C   0  0  0  0  0  0  0  0  0  0  0  0
   47.1010   30.2500   43.0730 C   0  0  0  0  0  0  0  0  0  0  0  0
   45.5920   31.3190   43.1940 S   0  0  0  0  0  0  0  0  0  0  0  0
   48.6410   32.8510   44.1380 H   0  0  0  0  0  0  0  0  0  0  0  0
   48.9910   30.5050   43.4160 H   0  0  0  0  0  0  0  0  0  0  0  0
   46.8940   29.2590   42.7350 H   0  0  0  0  0  0  0  0  0  0  0  0
   46.4110   34.8550   41.7960 C   0  0  0  0  0  0  0  0  0  0  0  0
   47.6460   35.1780   41.7290 O   0  0  0  0  0  0  0  0  0  0  0  0
   45.2530   34.3660   40.9970 C   0  0  0  0  0  3  0  0  0  0  0  0
   43.9970   34.6180   40.6970 C   0  0  0  0  0  3  0  0  0  0  0  0
   43.3570   33.6660   39.7600 C   0  0  0  0  0  2  0  0  0  0  0  0
   43.0230   34.1700   38.8230 H   0  0  0  0  0  0  0  0  0  0  0  0
  1  6  1  0  0  0  0
  2  1  2  0  0  0  0
  2  3  1  0  0  0  0
  3  4  2  0  0  0  0
  4  5  1  0  0  0  0
  5  8  1  0  0  0  0
  6  5  2  0  0  0  0
  7  1  1  0  0  0  0
  9 10  2  0  0  0  0
  9  3  1  0  0  0  0
 10 14  1  0  0  0  0
 11 10  1  0  0  0  0
 12 13  1  0  0  0  0
 12 11  2  0  0  0  0
 13  9  1  0  0  0  0
 15 11  1  0  0  0  0
 16 12  1  0  0  0  0
 17  2  1  0  0  0  0
 18 17  2  0  0  0  0
 19 17  1  0  0  0  0
 20 19  2  0  0  0  0
 21 20  1  0  0  0  0
 22 21  1  0  0  0  0
M  END
>  <minimizedAffinity>
-4.10180998

>  <minimizedRMSD>
1.13757181

$$$$
