
     RDKit          3D

 37 38  0  0  0  0  0  0  0  0999 V2000
   45.6471   30.4412   46.9053 C   0  0  0  0  0  0  0  0  0  0  0  0
   46.4475   31.5185   46.6682 C   0  0  0  0  0  0  0  0  0  0  0  0
   46.5879   32.4393   47.6990 C   0  0  0  0  0  0  0  0  0  0  0  0
   45.9572   32.2985   48.9238 C   0  0  0  0  0  0  0  0  0  0  0  0
   45.1489   31.1875   49.1296 C   0  0  0  0  0  0  0  0  0  0  0  0
   45.0025   30.2632   48.1070 C   0  0  0  0  0  0  0  0  0  0  0  0
   45.5192   29.3280   45.5636 S   0  0  0  0  0  0  0  0  0  0  0  0
   44.7252   29.9283   44.4239 O   0  0  0  0  0  0  0  0  0  0  0  0
   44.7011   28.1358   46.0391 O   0  0  0  0  0  0  0  0  0  0  0  0
   47.1640   31.8543   45.5344 O   0  0  0  0  0  0  0  0  0  0  0  0
   45.2237   34.2993   43.8428 C   0  0  0  0  0  0  0  0  0  0  0  0
   46.1783   34.8878   42.9798 C   0  0  0  0  0  0  0  0  0  0  0  0
   47.4830   34.4330   42.9917 C   0  0  0  0  0  0  0  0  0  0  0  0
   47.7274   33.4399   43.8532 N   0  0  0  0  0  0  0  0  0  0  0  0
   46.8507   32.8829   44.6615 C   0  0  0  0  0  0  0  0  0  0  0  0
   45.5853   33.3177   44.6558 N   0  0  0  0  0  0  0  0  0  0  0  0
   48.5628   34.9650   42.1430 C   0  0  0  0  0  0  0  0  0  0  0  0
   48.1994   34.8789   40.6612 C   0  0  0  0  0  0  0  0  0  0  0  0
   47.1901   33.3282   47.6355 H   0  0  0  0  0  0  0  0  0  0  0  0
   46.0622   33.0114   49.7304 H   0  0  0  0  0  0  0  0  0  0  0  0
   44.6219   31.0036   50.0558 H   0  0  0  0  0  0  0  0  0  0  0  0
   44.4028   29.3711   48.1602 H   0  0  0  0  0  0  0  0  0  0  0  0
   46.7277   28.8752   45.1646 H   0  0  0  0  0  0  0  0  0  0  0  0
   44.2087   34.6961   43.7927 H   0  0  0  0  0  0  0  0  0  0  0  0
   45.9374   35.6981   42.2902 H   0  0  0  0  0  0  0  0  0  0  0  0
   48.8249   36.0046   42.4193 H   0  0  0  0  0  0  0  0  0  0  0  0
   49.4584   34.3630   42.2614 H   0  0  0  0  0  0  0  0  0  0  0  0
   49.0052   35.3475   40.0588 H   0  0  0  0  0  0  0  0  0  0  0  0
   47.2721   35.4641   40.5387 H   0  0  0  0  0  0  0  0  0  0  0  0
   47.9644   33.4661   40.2652 C   0  0  0  0  0  0  0  0  0  0  0  0
   48.1006   32.1812   40.5638 C   0  0  0  0  0  0  0  0  0  0  0  0
   47.6731   30.9778   39.7989 C   0  0  0  0  0  0  0  0  0  0  0  0
   46.9365   30.4036   40.3868 H   0  0  0  0  0  0  0  0  0  0  0  0
   47.4479   33.5449   39.2910 H   0  0  0  0  0  0  0  0  0  0  0  0
   48.5650   31.8058   41.4474 H   0  0  0  0  0  0  0  0  0  0  0  0
   48.5495   30.3706   39.5240 H   0  0  0  0  0  0  0  0  0  0  0  0
   47.1588   31.2688   38.8575 H   0  0  0  0  0  0  0  0  0  0  0  0
  1  6  2  0
  2  1  1  0
  2  3  2  0
  3  4  1  0
  4  5  2  0
  6  5  1  0
  7  9  2  0
  7  1  1  0
  8  7  2  0
 10  2  1  0
 11 16  2  0
 12 13  2  0
 12 11  1  0
 13 14  1  0
 14 15  2  0
 15 10  1  0
 16 15  1  0
 17 13  1  0
 18 17  1  0
  3 19  1  0
  4 20  1  0
  5 21  1  0
  6 22  1  0
  7 23  1  0
 11 24  1  0
 12 25  1  0
 17 26  1  0
 17 27  1  0
 18 28  1  0
 18 29  1  0
 30 31  2  3
 31 32  1  0
 32 33  1  0
 30 34  1  0
 31 35  1  0
 32 36  1  0
 32 37  1  0
 18 30  1  0
M  ISO  8  19  14  20  14  21  14  22  14  23  11  24  14  25  14  26   8
M  ISO  4  27   8  28   8  29   8  33   8
M  END
>  <DihAtoms>  (1) 
16,17,29,30

>  <DihDeg>  (1) 
-0.20474470660155483

$$$$
