
 OpenBabel03242510533D

 26 27  0  0  0  0  0  0  0  0999 V2000
   44.7640   36.6110   43.8230 C   0  0  0  0  0  0  0  0  0  0  0  0
   45.6620   36.3250   42.7910 C   0  0  0  0  0  0  0  0  0  0  0  0
   46.3290   35.0880   42.8260 C   0  0  0  0  0  0  0  0  0  0  0  0
   46.0730   34.2290   43.8570 N   0  0  0  0  0  0  0  0  0  0  0  0
   45.1890   34.5610   44.8340 C   0  0  0  0  0  0  0  0  0  0  0  0
   44.5240   35.7580   44.8260 N   0  0  0  0  0  0  0  0  0  0  0  0
   45.9040   32.5820   46.0390 C   0  0  0  0  0  0  0  0  0  0  0  0
   46.9180   32.4210   45.3120 O   0  0  0  0  0  0  0  0  0  0  0  0
   44.9510   33.6390   45.8880 N   0  0  0  0  0  0  0  0  0  0  0  0
   44.2730   37.5720   43.7560 H   0  0  0  0  0  0  0  0  0  0  0  0
   45.8750   36.9980   41.9660 H   0  0  0  0  0  0  0  0  0  0  0  0
   47.0460   34.7740   42.0680 H   0  0  0  0  0  0  0  0  0  0  0  0
   44.1430   33.7070   46.5220 H   0  0  0  0  0  0  0  0  0  0  0  0
   45.6650   31.6350   47.1170 C   0  0  0  0  0  0  0  0  0  0  0  0
   45.5300   32.0970   48.4330 C   0  0  0  0  0  0  0  0  0  0  0  0
   45.3020   31.2650   49.5120 C   0  0  0  0  0  0  0  0  0  0  0  0
   45.2050   29.9190   49.2700 C   0  0  0  0  0  0  0  0  0  0  0  0
   45.3380   29.4570   47.9670 C   0  0  0  0  0  0  0  0  0  0  0  0
   45.5580   30.3150   46.9640 N   0  0  0  0  0  0  0  0  0  0  0  0
   45.6050   33.1580   48.6340 H   0  0  0  0  0  0  0  0  0  0  0  0
   45.2060   31.6770   50.5090 H   0  0  0  0  0  0  0  0  0  0  0  0
   45.0290   29.2870   50.1140 H   0  0  0  0  0  0  0  0  0  0  0  0
   45.2360   28.0270   47.7030 C   0  0  0  0  0  0  0  0  0  0  0  0
   44.5390   27.2530   48.5200 C   0  0  0  0  0  0  0  0  0  0  0  0
   44.3310   25.7870   48.4020 C   0  0  0  0  0  0  0  0  0  0  0  0
   44.8480   25.2360   49.2320 H   0  0  0  0  0  0  0  0  0  0  0  0
  1  6  1  0  0  0  0
  2  3  1  0  0  0  0
  2  1  2  0  0  0  0
  3  4  2  0  0  0  0
  4  5  1  0  0  0  0
  5  9  1  0  0  0  0
  6  5  2  0  0  0  0
  7 14  1  0  0  0  0
  8  7  2  0  0  0  0
  9  7  1  0  0  0  0
  9 13  1  0  0  0  0
 10  1  1  0  0  0  0
 11  2  1  0  0  0  0
 12  3  1  0  0  0  0
 14 15  1  0  0  0  0
 15 20  1  0  0  0  0
 15 16  2  0  0  0  0
 16 21  1  0  0  0  0
 17 16  1  0  0  0  0
 17 22  1  0  0  0  0
 18 17  2  0  0  0  0
 19 14  2  0  0  0  0
 19 18  1  0  0  0  0
 23 18  1  0  0  0  0
 23 24  2  0  0  0  0
 25 24  1  0  0  0  0
 25 26  1  0  0  0  0
M  END
>  <minimizedAffinity>
-5.1906147

>  <minimizedRMSD>
0.162047252

$$$$
