
 OpenBabel03252506493D

 24 25  0  0  0  0  0  0  0  0999 V2000
   43.4850   33.9930   40.2430 S   0  0  0  0  0  0  0  0  0  0  0  0
   41.6250   31.6230   41.3170 Cl  0  0  0  0  0  0  0  0  0  0  0  0
   40.8630   33.0580   40.6540 C   0  0  0  0  0  0  0  0  0  0  0  0
   41.7200   34.0260   40.2150 C   0  0  0  0  0  0  0  0  0  0  0  0
   41.1590   35.1830   39.6810 C   0  0  0  0  0  0  0  0  0  0  0  0
   39.7780   35.3130   39.6110 C   0  0  0  0  0  0  0  0  0  0  0  0
   38.9160   34.3360   40.0540 C   0  0  0  0  0  0  0  0  0  0  0  0
   39.4840   33.1780   40.5890 C   0  0  0  0  0  0  0  0  0  0  0  0
   38.4900   31.8700   41.1840 Cl  0  0  0  0  0  0  0  0  0  0  0  0
   41.7520   36.0060   39.3070 H   0  0  0  0  0  0  0  0  0  0  0  0
   39.3320   36.2200   39.1920 H   0  0  0  0  0  0  0  0  0  0  0  0
   37.8350   34.4460   39.9970 H   0  0  0  0  0  0  0  0  0  0  0  0
   44.1760   34.3180   41.8650 C   0  0  0  0  0  0  0  0  0  0  0  0
   44.6460   33.1810   42.5350 C   0  0  0  0  0  0  0  0  0  0  0  0
   45.2020   33.3580   43.8150 C   0  0  0  0  0  0  0  0  0  0  0  0
   45.2520   34.6190   44.3330 N   0  0  0  0  0  0  0  0  0  0  0  0
   44.7850   35.6750   43.6450 C   0  0  0  0  0  0  0  0  0  0  0  0
   44.2400   35.5490   42.4040 N   0  0  0  0  0  0  0  0  0  0  0  0
   44.6000   32.1860   42.1130 H   0  0  0  0  0  0  0  0  0  0  0  0
   45.5860   32.5380   44.3980 H   0  0  0  0  0  0  0  0  0  0  0  0
   44.8630   37.0030   44.2440 C   0  0  0  0  0  3  0  0  0  0  0  0
   45.3170   38.0160   43.5210 C   0  0  0  0  0  3  0  0  0  0  0  0
   45.4630   39.4170   43.9610 C   0  0  0  0  0  2  0  0  0  0  0  0
   44.8180   40.0950   43.3310 H   0  0  0  0  0  0  0  0  0  0  0  0
  1 13  1  0  0  0  0
  3  2  1  0  0  0  0
  4  1  1  0  0  0  0
  4  3  2  0  0  0  0
  5  4  1  0  0  0  0
  6  5  2  0  0  0  0
  6  7  1  0  0  0  0
  7  8  2  0  0  0  0
  8  3  1  0  0  0  0
  8  9  1  0  0  0  0
 10  5  1  0  0  0  0
 11  6  1  0  0  0  0
 12  7  1  0  0  0  0
 13 18  2  0  0  0  0
 13 14  1  0  0  0  0
 14 15  2  0  0  0  0
 15 16  1  0  0  0  0
 15 20  1  0  0  0  0
 17 21  1  0  0  0  0
 17 16  2  0  0  0  0
 18 17  1  0  0  0  0
 19 14  1  0  0  0  0
 22 23  1  0  0  0  0
 22 21  2  0  0  0  0
 24 23  1  0  0  0  0
M  END
>  <minimizedAffinity>
-4.71807718

>  <minimizedRMSD>
1.10588348

$$$$
