
 OpenBabel03252504003D

 29 31  0  0  0  0  0  0  0  0999 V2000
   46.0600   31.6860   45.1210 C   0  0  0  0  0  0  0  0  0  0  0  0
   45.8030   32.9920   45.5120 C   0  0  0  0  0  0  0  0  0  0  0  0
   45.5170   33.2920   46.8400 C   0  0  0  0  0  0  0  0  0  0  0  0
   45.4990   32.2500   47.7460 C   0  0  0  0  0  0  0  0  0  0  0  0
   45.2610   32.2110   49.0690 N   0  0  0  0  0  0  0  0  0  0  0  0
   45.3520   30.9560   49.5390 C   0  0  0  0  0  0  0  0  0  0  0  0
   45.6640   30.1220   48.4820 C   0  0  0  0  0  0  0  0  0  0  0  0
   45.7550   30.9270   47.3660 C   0  0  0  0  0  0  0  0  0  0  0  0
   46.0330   30.6670   46.0490 C   0  0  0  0  0  0  0  0  0  0  0  0
   46.2860   31.4140   44.0940 H   0  0  0  0  0  0  0  0  0  0  0  0
   45.3190   34.3120   47.1370 H   0  0  0  0  0  0  0  0  0  0  0  0
   45.0330   33.0030   49.6990 H   0  0  0  0  0  0  0  0  0  0  0  0
   45.2370   30.5090   50.5130 H   0  0  0  0  0  0  0  0  0  0  0  0
   45.8220   29.0630   48.4360 H   0  0  0  0  0  0  0  0  0  0  0  0
   46.2320   29.6470   45.7520 H   0  0  0  0  0  0  0  0  0  0  0  0
   46.9520   34.9840   42.6690 C   0  0  0  0  0  0  0  0  0  0  0  0
   45.9660   35.9640   42.5270 C   0  0  0  0  0  0  0  0  0  0  0  0
   44.9010   35.9330   43.4180 C   0  0  0  0  0  0  0  0  0  0  0  0
   44.8680   34.9660   44.3740 N   0  0  0  0  0  0  0  0  0  0  0  0
   45.8450   34.0330   44.4780 C   0  0  0  0  0  0  0  0  0  0  0  0
   46.8890   34.0380   43.6280 N   0  0  0  0  0  0  0  0  0  0  0  0
   46.0350   36.7160   41.7480 H   0  0  0  0  0  0  0  0  0  0  0  0
   44.1270   36.6840   43.3240 H   0  0  0  0  0  0  0  0  0  0  0  0
   48.0430   35.0490   41.7230 C   0  0  0  0  0  0  0  0  0  0  0  0
   48.9120   35.9740   41.6830 O   0  0  0  0  0  0  0  0  0  0  0  0
   48.2040   34.0000   40.7190 C   0  0  0  0  0  3  0  0  0  0  0  0
   49.1170   33.0640   40.8890 C   0  0  0  0  0  3  0  0  0  0  0  0
   49.3530   31.9610   39.9270 C   0  0  0  0  0  2  0  0  0  0  0  0
   48.7750   32.1760   39.0070 H   0  0  0  0  0  0  0  0  0  0  0  0
  1  2  2  0  0  0  0
  1  9  1  0  0  0  0
  2  3  1  0  0  0  0
  3 11  1  0  0  0  0
  3  4  2  0  0  0  0
  4  5  1  0  0  0  0
  5  6  1  0  0  0  0
  5 12  1  0  0  0  0
  6 13  1  0  0  0  0
  7  6  2  0  0  0  0
  8  4  1  0  0  0  0
  8  7  1  0  0  0  0
  9  8  2  0  0  0  0
 10  1  1  0  0  0  0
 14  7  1  0  0  0  0
 15  9  1  0  0  0  0
 16 21  1  0  0  0  0
 17 16  2  0  0  0  0
 17 18  1  0  0  0  0
 18 19  2  0  0  0  0
 19 20  1  0  0  0  0
 20  2  1  0  0  0  0
 21 20  2  0  0  0  0
 22 17  1  0  0  0  0
 23 18  1  0  0  0  0
 24 16  1  0  0  0  0
 25 24  2  0  0  0  0
 26 27  2  0  0  0  0
 26 24  1  0  0  0  0
 28 27  1  0  0  0  0
 29 28  1  0  0  0  0
M  END
>  <minimizedAffinity>
-5.54940939

>  <minimizedRMSD>
0.199488267

$$$$
