
 OpenBabel03242519163D

 37 39  0  0  1  0  0  0  0  0999 V2000
   48.0050   34.1370   40.5400 C   0  0  0  0  0  0  0  0  0  0  0  0
   48.1020   34.6440   39.2690 C   0  0  0  0  0  0  0  0  0  0  0  0
   48.3510   33.8360   38.1500 C   0  0  0  0  0  0  0  0  0  0  0  0
   48.4890   32.5110   38.4140 N   0  0  0  0  0  0  0  0  0  0  0  0
   48.3910   32.0260   39.6600 C   0  0  0  0  0  0  0  0  0  0  0  0
   48.1550   32.8280   40.6920 N   0  0  0  0  0  0  0  0  0  0  0  0
   47.9800   35.7270   39.1260 H   0  0  0  0  0  0  0  0  0  0  0  0
   48.4260   34.2510   37.1570 H   0  0  0  0  0  0  0  0  0  0  0  0
   48.5240   30.5650   39.9490 C   0  0  2  0  0  0  0  0  0  0  0  0
   48.9090   30.1340   41.3330 C   0  0  0  0  0  0  0  0  0  0  0  0
   49.8890   30.0360   40.1510 C   0  0  2  0  0  0  0  0  0  0  0  0
   47.8600   29.9470   39.2930 H   0  0  0  0  0  0  0  0  0  0  0  0
   49.0220   30.9330   42.0720 H   0  0  0  0  0  0  0  0  0  0  0  0
   48.5620   29.1430   41.6830 H   0  0  0  0  0  0  0  0  0  0  0  0
   50.0840   28.9870   39.7810 H   0  0  0  0  0  0  0  0  0  0  0  0
   51.1000   30.8480   40.3200 C   0  0  0  0  0  3  0  0  0  0  0  0
   51.6290   31.8300   41.0400 C   0  0  0  0  0  3  0  0  0  0  0  0
   51.0840   32.6200   42.1610 C   0  0  0  0  0  2  0  0  0  0  0  0
   50.6780   31.9200   42.9520 H   0  0  0  0  0  0  0  0  0  0  0  0
   47.7430   34.9870   41.6880 C   0  0  0  0  0  0  0  0  0  0  0  0
   48.4470   34.7910   42.5230 H   0  0  0  0  0  0  0  0  0  0  0  0
   47.9410   36.0670   41.4180 H   0  0  0  0  0  0  0  0  0  0  0  0
   46.3460   34.8520   42.1420 C   0  0  0  0  0  0  0  0  0  0  0  0
   45.7180   34.1610   41.5240 H   0  0  0  0  0  0  0  0  0  0  0  0
   45.8070   35.8270   42.0850 H   0  0  0  0  0  0  0  0  0  0  0  0
   44.4300   36.2730   43.9140 Cl  0  0  0  0  0  0  0  0  0  0  0  0
   45.3560   34.9060   44.4460 C   0  0  0  0  0  0  0  0  0  0  0  0
   46.2150   34.3250   43.5390 C   0  0  0  0  0  0  0  0  0  0  0  0
   46.9550   33.2380   43.9500 C   0  0  0  0  0  0  0  0  0  0  0  0
   46.8410   32.7410   45.2360 C   0  0  0  0  0  0  0  0  0  0  0  0
   45.9630   33.3410   46.1490 C   0  0  0  0  0  0  0  0  0  0  0  0
   45.2250   34.4340   45.7220 C   0  0  0  0  0  0  0  0  0  0  0  0
   47.6480   32.7380   43.2790 H   0  0  0  0  0  0  0  0  0  0  0  0
   47.4190   31.8850   45.5720 H   0  0  0  0  0  0  0  0  0  0  0  0
   45.8590   32.9670   47.1600 H   0  0  0  0  0  0  0  0  0  0  0  0
   44.3240   35.0990   46.5630 O   0  0  0  0  0  0  0  0  0  0  0  0
   43.9120   34.5070   47.2810 H   0  0  0  0  0  0  0  0  0  0  0  0
  1  6  1  0  0  0  0
  1 20  1  0  0  0  0
  2  1  2  0  0  0  0
  3  4  2  0  0  0  0
  3  2  1  0  0  0  0
  4  5  1  0  0  0  0
  5  9  1  0  0  0  0
  5  6  2  0  0  0  0
  7  2  1  0  0  0  0
  8  3  1  0  0  0  0
  9 12  1  6  0  0  0
  9 11  1  0  0  0  0
  9 10  1  0  0  0  0
 10 14  1  0  0  0  0
 10 13  1  0  0  0  0
 11 15  1  6  0  0  0
 11 16  1  0  0  0  0
 11 10  1  0  0  0  0
 16 17  2  0  0  0  0
 17 18  1  0  0  0  0
 18 19  1  0  0  0  0
 20 23  1  0  0  0  0
 20 21  1  0  0  0  0
 22 20  1  0  0  0  0
 23 28  1  0  0  0  0
 24 23  1  0  0  0  0
 25 23  1  0  0  0  0
 26 27  1  0  0  0  0
 27 32  1  0  0  0  0
 28 29  1  0  0  0  0
 28 27  2  0  0  0  0
 29 30  2  0  0  0  0
 30 34  1  0  0  0  0
 30 31  1  0  0  0  0
 31 35  1  0  0  0  0
 32 31  2  0  0  0  0
 32 36  1  0  0  0  0
 33 29  1  0  0  0  0
 36 37  1  0  0  0  0
M  END
>  <minimizedAffinity>
-5.35198498

>  <minimizedRMSD>
1.38627362

$$$$
