
 OpenBabel03252503403D

 16 16  0  0  0  0  0  0  0  0999 V2000
   44.6920   35.2880   45.0720 C   0  0  0  0  0  0  0  0  0  0  0  0
   45.3990   35.2080   43.8760 C   0  0  0  0  0  0  0  0  0  0  0  0
   46.3680   34.2220   43.7580 C   0  0  0  0  0  0  0  0  0  0  0  0
   46.5780   33.3940   44.7990 N   0  0  0  0  0  0  0  0  0  0  0  0
   45.8740   33.4960   45.9500 C   0  0  0  0  0  0  0  0  0  0  0  0
   44.9250   34.4390   46.1020 N   0  0  0  0  0  0  0  0  0  0  0  0
   43.9000   36.0060   45.3180 H   0  0  0  0  0  0  0  0  0  0  0  0
   46.8890   34.2000   42.8140 H   0  0  0  0  0  0  0  0  0  0  0  0
   45.0170   36.2090   42.8600 C   0  0  0  0  0  0  0  0  0  0  0  0
   43.9310   36.0770   42.5920 H   0  0  0  0  0  0  0  0  0  0  0  0
   45.0520   37.2200   43.3350 H   0  0  0  0  0  0  0  0  0  0  0  0
   45.6290   36.1580   41.9450 H   0  0  0  0  0  0  0  0  0  0  0  0
   46.1470   32.5670   47.0440 C   0  0  0  0  0  0  0  0  0  0  0  0
   45.3090   32.4640   48.0600 C   0  0  0  0  0  0  0  0  0  0  0  0
   45.4560   31.5750   49.2270 C   0  0  0  0  0  0  0  0  0  0  0  0
   44.5580   30.8960   49.2060 H   0  0  0  0  0  0  0  0  0  0  0  0
  1  7  1  0  0  0  0
  1  6  1  0  0  0  0
  2  1  2  0  0  0  0
  3  2  1  0  0  0  0
  3  4  2  0  0  0  0
  4  5  1  0  0  0  0
  5  6  2  0  0  0  0
  5 13  1  0  0  0  0
  8  3  1  0  0  0  0
  9 11  1  0  0  0  0
  9  2  1  0  0  0  0
 10  9  1  0  0  0  0
 12  9  1  0  0  0  0
 13 14  2  0  0  0  0
 14 15  1  0  0  0  0
 16 15  1  0  0  0  0
M  END
>  <minimizedAffinity>
-4.00235701

>  <minimizedRMSD>
0.960697889

$$$$
