
     RDKit          3D

 46 49  0  0  0  0  0  0  0  0999 V2000
   45.7981   30.0540   48.4396 C   0  0  0  0  0  0  0  0  0  0  0  0
   45.0118   27.6503   48.0104 C   0  0  0  0  0  0  0  0  0  0  0  0
   45.0592   29.0013   47.7469 C   0  0  0  0  0  0  0  0  0  0  0  0
   44.3035   29.4479   46.6732 C   0  0  0  0  0  0  0  0  0  0  0  0
   43.5464   28.5874   45.9112 C   0  0  0  0  0  0  0  0  0  0  0  0
   42.7374   28.7252   44.8433 N   0  0  0  0  0  0  0  0  0  0  0  0
   42.2207   27.5507   44.4642 C   0  0  0  0  0  0  0  0  0  0  0  0
   42.7012   26.5606   45.3162 C   0  0  0  0  0  0  0  0  0  0  0  0
   43.5045   27.2447   46.1797 C   0  0  0  0  0  0  0  0  0  0  0  0
   44.2521   26.7917   47.2445 C   0  0  0  0  0  0  0  0  0  0  0  0
   44.2513   25.3721   47.5841 C   0  0  0  0  0  0  0  0  0  0  0  0
   44.9158   24.9366   48.5651 O   0  0  0  0  0  0  0  0  0  0  0  0
   47.1486   30.3822   47.9226 C   0  0  0  0  0  0  0  0  0  0  0  0
   46.5048   32.7108   45.2946 C   0  0  0  0  0  0  0  0  0  0  0  0
   47.2524   31.7145   44.6158 C   0  0  0  0  0  0  0  0  0  0  0  0
   47.5744   30.7468   45.5006 C   0  0  0  0  0  0  0  0  0  0  0  0
   47.0493   31.1249   46.6797 N   0  0  0  0  0  0  0  0  0  0  0  0
   46.4055   32.3005   46.5699 N   0  0  0  0  0  0  0  0  0  0  0  0
   44.5663   35.7554   44.7325 C   0  0  0  0  0  0  0  0  0  0  0  0
   45.0013   36.1815   43.4719 C   0  0  0  0  0  0  0  0  0  0  0  0
   45.9647   35.4059   42.8290 C   0  0  0  0  0  0  0  0  0  0  0  0
   46.3923   34.3128   43.4800 N   0  0  0  0  0  0  0  0  0  0  0  0
   45.9822   33.9107   44.6692 C   0  0  0  0  0  0  0  0  0  0  0  0
   45.0572   34.6484   45.2948 N   0  0  0  0  0  0  0  0  0  0  0  0
   45.9301   29.7074   49.4986 H   0  0  0  0  0  0  0  0  0  0  0  0
   45.1984   30.9847   48.5138 H   0  0  0  0  0  0  0  0  0  0  0  0
   45.6219   27.3467   48.8635 H   0  0  0  0  0  0  0  0  0  0  0  0
   44.2506   30.4818   46.3576 H   0  0  0  0  0  0  0  0  0  0  0  0
   42.5472   29.6555   44.3769 H   0  0  0  0  0  0  0  0  0  0  0  0
   41.5452   27.4524   43.6237 H   0  0  0  0  0  0  0  0  0  0  0  0
   42.4369   25.5186   45.2281 H   0  0  0  0  0  0  0  0  0  0  0  0
   43.6712   24.6705   46.9871 H   0  0  0  0  0  0  0  0  0  0  0  0
   47.6926   30.9500   48.6981 H   0  0  0  0  0  0  0  0  0  0  0  0
   47.6966   29.4492   47.7636 H   0  0  0  0  0  0  0  0  0  0  0  0
   47.4900   31.7798   43.5659 H   0  0  0  0  0  0  0  0  0  0  0  0
   48.1355   29.8388   45.3410 H   0  0  0  0  0  0  0  0  0  0  0  0
   43.8174   36.3803   45.2045 H   0  0  0  0  0  0  0  0  0  0  0  0
   44.6486   37.0678   42.9541 H   0  0  0  0  0  0  0  0  0  0  0  0
   46.5252   35.7000   41.5234 C   0  0  0  0  0  0  0  0  0  0  0  0
   46.1821   35.0242   40.4477 C   0  0  0  0  0  0  0  0  0  0  0  0
   46.7276   35.2939   39.1144 C   0  0  0  0  0  0  0  0  0  0  0  0
   46.0314   34.8939   38.3217 H   0  0  0  0  0  0  0  0  0  0  0  0
   47.2358   36.5024   41.4921 H   0  0  0  0  0  0  0  0  0  0  0  0
   45.4569   34.2249   40.5536 H   0  0  0  0  0  0  0  0  0  0  0  0
   47.7005   34.7526   38.9774 H   0  0  0  0  0  0  0  0  0  0  0  0
   46.9557   36.3670   38.9152 H   0  0  0  0  0  0  0  0  0  0  0  0
  3  2  2  0
  3  1  1  0
  4  3  1  0
  5  9  1  0
  5  4  2  0
  6  5  1  0
  7  6  1  0
  7  8  2  0
  8  9  1  0
  9 10  2  0
 10 11  1  0
 10  2  1  0
 11 12  2  0
 13  1  1  0
 14 18  2  0
 15 14  1  0
 15 16  2  0
 16 17  1  0
 17 13  1  0
 18 17  1  0
 19 24  2  0
 20 19  1  0
 21 22  1  0
 21 20  2  0
 22 23  2  0
 23 14  1  0
 23 24  1  0
  1 25  1  0
  1 26  1  0
  2 27  1  0
  4 28  1  0
  6 29  1  0
  7 30  1  0
  8 31  1  0
 11 32  1  0
 13 33  1  0
 13 34  1  0
 15 35  1  0
 16 36  1  0
 19 37  1  0
 20 38  1  0
 39 40  2  3
 40 41  1  0
 41 42  1  0
 39 43  1  0
 40 44  1  0
 41 45  1  0
 41 46  1  0
 21 39  1  0
M  ISO  8  25   8  26   8  27  14  28  14  29   9  30  14  31  14  32   6
M  ISO  7  33   8  34   8  35  14  36  14  37  14  38  14  42   8
M  END
>  <DihAtoms>  (1) 
21,20,38,39

>  <DihDeg>  (1) 
-0.00011210989080760976

$$$$
