REMARK  Name = 
REMARK  4 active torsions:
REMARK  status: ('A' for Active; 'I' for Inactive)
REMARK    1  A    between atoms: C_3  and  S_9
REMARK    2  A    between atoms: S_9  and  C_10
REMARK    3  A    between atoms: C_14  and  C_21
REMARK    4  A    between atoms: C_22  and  C_23
REMARK                            x       y       z     vdW  Elec       q    Type
REMARK                         _______ _______ _______ _____ _____    ______ ____
ROOT
ATOM      1  S   UNL     1      43.830  34.533  41.026  0.00  0.00    +0.000 S 
ENDROOT
BRANCH   1   4
ATOM      2 CL   UNL     1      42.097  31.932  41.707  0.00  0.00    +0.000 Cl
ATOM      3  C   UNL     1      41.273  33.362  41.111  0.00  0.00    +0.000 A 
ATOM      4  C   UNL     1      42.078  34.432  40.842  0.00  0.00    +0.000 A 
ATOM      5  C   UNL     1      41.466  35.589  40.367  0.00  0.00    +0.000 A 
ATOM      6  C   UNL     1      40.089  35.618  40.185  0.00  0.00    +0.000 A 
ATOM      7  C   UNL     1      39.280  34.539  40.457  0.00  0.00    +0.000 A 
ATOM      8  C   UNL     1      39.899  33.381  40.933  0.00  0.00    +0.000 A 
ATOM      9 CL   UNL     1      38.975  31.948  41.313  0.00  0.00    +0.000 Cl
ATOM     10  H   UNL     1      42.015  36.488  40.125  0.00  0.00    +0.000 HD
ATOM     11  H   UNL     1      39.604  36.525  39.812  0.00  0.00    +0.000 HD
ATOM     12  H   UNL     1      38.202  34.570  40.312  0.00  0.00    +0.000 HD
ENDBRANCH   1   4
BRANCH   1  13
ATOM     13  C   UNL     1      44.360  34.629  42.736  0.00  0.00    +0.000 A 
ATOM     14  C   UNL     1      45.029  33.490  43.203  0.00  0.00    +0.000 A 
ATOM     15  C   UNL     1      45.474  33.493  44.537  0.00  0.00    +0.000 A 
ATOM     16  N   UNL     1      45.232  34.596  45.301  0.00  0.00    +0.000 NA
ATOM     17  C   UNL     1      44.584  35.663  44.801  0.00  0.00    +0.000 A 
ATOM     18  N   UNL     1      44.137  35.703  43.516  0.00  0.00    +0.000 NA
ATOM     19  H   UNL     1      45.214  32.621  42.587  0.00  0.00    +0.000 HD
ATOM     20  H   UNL     1      45.996  32.658  44.975  0.00  0.00    +0.000 HD
BRANCH  17  21
ATOM     21  C   UNL     1      44.351  36.819  45.660  0.00  0.00    +0.000 C 
ATOM     22  C   UNL     1      44.851  37.996  45.316  0.00  0.00    +0.000 C 
BRANCH  22  23
ATOM     23  C   UNL     1      44.715  39.263  46.060  0.00  0.00    +0.000 C 
ATOM     24  H   UNL     1      44.177  40.030  45.432  0.00  0.00    +0.000 HD
ENDBRANCH  22  23
ENDBRANCH  17  21
ENDBRANCH   1  13
TORSDOF 4
