
 OpenBabel03242521443D

 33 34  0  0  1  0  0  0  0  0999 V2000
   45.1600   34.6980   44.9770 C   0  0  0  0  0  0  0  0  0  0  0  0
   46.0820   34.1890   44.0550 C   0  0  0  0  0  0  0  0  0  0  0  0
   46.9730   33.1870   44.4550 C   0  0  0  0  0  0  0  0  0  0  0  0
   46.8910   32.7650   45.7150 N   0  0  0  0  0  0  0  0  0  0  0  0
   45.9960   33.2630   46.5970 C   0  0  0  0  0  0  0  0  0  0  0  0
   45.1280   34.2290   46.2340 N   0  0  0  0  0  0  0  0  0  0  0  0
   46.0590   34.6020   43.0660 H   0  0  0  0  0  0  0  0  0  0  0  0
   45.9700   32.8870   47.6080 H   0  0  0  0  0  0  0  0  0  0  0  0
   48.5960   33.7590   42.6610 C   0  0  2  0  0  0  0  0  0  0  0  0
   47.9120   32.6970   43.4470 C   0  0  2  0  0  0  0  0  0  0  0  0
   47.2900   31.9500   42.4030 O   0  0  0  0  0  0  0  0  0  0  0  0
   48.3500   31.7170   41.5480 C   0  0  0  0  0  0  0  0  0  0  0  0
   49.3380   32.8450   41.6630 C   0  0  1  0  0  0  0  0  0  0  0  0
   47.9100   34.3420   42.0100 H   0  0  0  0  0  0  0  0  0  0  0  0
   48.6600   31.9860   43.8490 H   0  0  0  0  0  0  0  0  0  0  0  0
   48.8560   30.7940   41.9000 H   0  0  0  0  0  0  0  0  0  0  0  0
   48.0210   31.5150   40.5030 H   0  0  0  0  0  0  0  0  0  0  0  0
   50.2890   32.5410   42.1180 H   0  0  0  0  0  0  0  0  0  0  0  0
   49.4120   34.5760   43.3820 O   0  0  0  0  0  0  0  0  0  0  0  0
   49.4980   35.4520   42.9150 H   0  0  0  0  0  0  0  0  0  0  0  0
   49.5380   33.5340   40.4770 O   0  0  0  0  0  0  0  0  0  0  0  0
   49.3110   32.9980   39.6760 H   0  0  0  0  0  0  0  0  0  0  0  0
   44.2160   35.7810   44.5250 C   0  0  0  0  0  0  0  0  0  0  0  0
   43.3250   35.8270   45.1510 H   0  0  0  0  0  0  0  0  0  0  0  0
   43.9360   35.5880   43.4680 H   0  0  0  0  0  0  0  0  0  0  0  0
   45.0880   37.9810   43.5000 C   0  0  0  0  0  0  0  0  0  0  0  0
   44.4370   37.7290   42.4490 O   0  0  0  0  0  0  0  0  0  0  0  0
   44.9670   37.0170   44.5310 N   0  0  0  0  0  0  0  0  0  0  0  0
   45.4960   37.2270   45.4290 H   0  0  0  0  0  0  0  0  0  0  0  0
   45.8920   39.1650   43.6320 C   0  0  0  0  0  3  0  0  0  0  0  0
   45.8640   39.9250   44.6880 C   0  0  0  0  0  3  0  0  0  0  0  0
   44.9900   39.6050   45.8270 C   0  0  0  0  0  2  0  0  0  0  0  0
   43.8970   39.5940   45.5670 H   0  0  0  0  0  0  0  0  0  0  0  0
  1  6  1  0  0  0  0
  2  3  1  0  0  0  0
  2  1  2  0  0  0  0
  3  4  2  0  0  0  0
  4  5  1  0  0  0  0
  5  8  1  0  0  0  0
  6  5  2  0  0  0  0
  7  2  1  0  0  0  0
  9 14  1  6  0  0  0
  9 19  1  0  0  0  0
  9 10  1  0  0  0  0
 10 15  1  1  0  0  0
 10  3  1  0  0  0  0
 11 10  1  0  0  0  0
 12 13  1  0  0  0  0
 12 16  1  0  0  0  0
 12 11  1  0  0  0  0
 13 18  1  1  0  0  0
 13  9  1  0  0  0  0
 17 12  1  0  0  0  0
 20 19  1  0  0  0  0
 21 13  1  0  0  0  0
 22 21  1  0  0  0  0
 23 28  1  0  0  0  0
 23  1  1  0  0  0  0
 23 24  1  0  0  0  0
 25 23  1  0  0  0  0
 26 30  1  0  0  0  0
 26 28  1  0  0  0  0
 27 26  2  0  0  0  0
 28 29  1  0  0  0  0
 30 31  2  0  0  0  0
 31 32  1  0  0  0  0
 33 32  1  0  0  0  0
M  END
>  <minimizedAffinity>
-3.53472137

>  <minimizedRMSD>
1.27620113

$$$$
