
 OpenBabel03242510303D

 29 30  0  0  1  0  0  0  0  0999 V2000
   38.0050   29.2700   41.4710 C   0  0  1  0  0  0  0  0  0  0  0  0
   38.3550   29.5530   42.9020 C   0  0  0  0  0  0  0  0  0  0  0  0
   38.4740   28.1690   43.5440 C   0  0  0  0  0  0  0  0  0  0  0  0
   37.0430   27.6570   43.6630 C   0  0  0  0  0  0  0  0  0  0  0  0
   36.3610   27.5700   42.3460 C   0  0  0  0  0  0  0  0  0  0  0  0
   36.6220   28.6560   41.3770 C   0  0  2  0  0  0  0  0  0  0  0  0
   38.7150   28.5160   41.0890 H   0  0  0  0  0  0  0  0  0  0  0  0
   39.2580   30.1560   42.9990 H   0  0  0  0  0  0  0  0  0  0  0  0
   37.4950   30.0410   43.4450 H   0  0  0  0  0  0  0  0  0  0  0  0
   38.9530   28.1870   44.5190 H   0  0  0  0  0  0  0  0  0  0  0  0
   38.9760   27.4840   42.8060 H   0  0  0  0  0  0  0  0  0  0  0  0
   36.5010   28.4080   44.2980 H   0  0  0  0  0  0  0  0  0  0  0  0
   37.0710   26.6640   44.1260 H   0  0  0  0  0  0  0  0  0  0  0  0
   36.5870   26.5770   41.9020 H   0  0  0  0  0  0  0  0  0  0  0  0
   35.2640   27.5570   42.5520 H   0  0  0  0  0  0  0  0  0  0  0  0
   35.8990   29.4930   41.4240 H   0  0  0  0  0  0  0  0  0  0  0  0
   37.2470   32.5860   39.8000 C   0  0  0  0  0  0  0  0  0  0  0  0
   37.0840   31.5010   40.6710 C   0  0  0  0  0  0  0  0  0  0  0  0
   38.0480   30.4740   40.6210 C   0  0  0  0  0  0  0  0  0  0  0  0
   39.0580   30.6310   39.7250 N   0  0  0  0  0  0  0  0  0  0  0  0
   39.1890   31.6770   38.9060 C   0  0  0  0  0  0  0  0  0  0  0  0
   38.2850   32.6590   38.9380 N   0  0  0  0  0  0  0  0  0  0  0  0
   36.5030   33.3590   39.8510 H   0  0  0  0  0  0  0  0  0  0  0  0
   36.2880   31.3920   41.3670 H   0  0  0  0  0  0  0  0  0  0  0  0
   40.0590   31.6350   38.2550 H   0  0  0  0  0  0  0  0  0  0  0  0
   36.5200   28.0710   40.0090 C   0  0  0  0  0  3  0  0  0  0  0  0
   35.5320   28.2710   39.1460 C   0  0  0  0  0  3  0  0  0  0  0  0
   34.4260   29.1470   39.5560 C   0  0  0  0  0  2  0  0  0  0  0  0
   33.6180   29.0310   38.7840 H   0  0  0  0  0  0  0  0  0  0  0  0
  1  7  1  6  0  0  0
  1  2  1  0  0  0  0
  2  8  1  0  0  0  0
  2  9  1  0  0  0  0
  2  3  1  0  0  0  0
  3  4  1  0  0  0  0
  3 10  1  0  0  0  0
  4 13  1  0  0  0  0
  4 12  1  0  0  0  0
  5 15  1  0  0  0  0
  5  4  1  0  0  0  0
  6 16  1  1  0  0  0
  6  1  1  0  0  0  0
  6  5  1  0  0  0  0
 11  3  1  0  0  0  0
 14  5  1  0  0  0  0
 17 23  1  0  0  0  0
 17 18  1  0  0  0  0
 18 24  1  0  0  0  0
 19 18  2  0  0  0  0
 19  1  1  0  0  0  0
 20 19  1  0  0  0  0
 21 22  1  0  0  0  0
 21 20  2  0  0  0  0
 22 17  2  0  0  0  0
 25 21  1  0  0  0  0
 26  6  1  0  0  0  0
 27 28  1  0  0  0  0
 27 26  2  0  0  0  0
 29 28  1  0  0  0  0
M  END
>  <minimizedAffinity>
-4.59991217

$$$$

 OpenBabel03242510303D

 29 30  0  0  1  0  0  0  0  0999 V2000
   36.5600   26.7050   40.5770 C   0  0  1  0  0  0  0  0  0  0  0  0
   36.8550   25.7420   39.4650 C   0  0  0  0  0  0  0  0  0  0  0  0
   36.2920   24.4080   39.9590 C   0  0  0  0  0  0  0  0  0  0  0  0
   37.2540   23.9420   41.0440 C   0  0  0  0  0  0  0  0  0  0  0  0
   37.3600   24.9150   42.1620 C   0  0  0  0  0  0  0  0  0  0  0  0
   37.3680   26.3510   41.8100 C   0  0  2  0  0  0  0  0  0  0  0  0
   35.4960   26.5930   40.8500 H   0  0  0  0  0  0  0  0  0  0  0  0
   36.4360   26.0650   38.5110 H   0  0  0  0  0  0  0  0  0  0  0  0
   37.9640   25.5580   39.3650 H   0  0  0  0  0  0  0  0  0  0  0  0
   36.2110   23.6590   39.1750 H   0  0  0  0  0  0  0  0  0  0  0  0
   35.3210   24.6140   40.4880 H   0  0  0  0  0  0  0  0  0  0  0  0
   38.2580   23.8570   40.5480 H   0  0  0  0  0  0  0  0  0  0  0  0
   36.8980   22.9800   41.4310 H   0  0  0  0  0  0  0  0  0  0  0  0
   36.5600   24.6890   42.8980 H   0  0  0  0  0  0  0  0  0  0  0  0
   38.3170   24.6930   42.6920 H   0  0  0  0  0  0  0  0  0  0  0  0
   38.3780   26.7790   41.6610 H   0  0  0  0  0  0  0  0  0  0  0  0
   36.2720   30.4140   39.8580 C   0  0  0  0  0  0  0  0  0  0  0  0
   35.8680   29.1270   40.2370 C   0  0  0  0  0  0  0  0  0  0  0  0
   36.8390   28.1060   40.2120 C   0  0  0  0  0  0  0  0  0  0  0  0
   38.0900   28.4640   39.8210 N   0  0  0  0  0  0  0  0  0  0  0  0
   38.4480   29.7000   39.4650 C   0  0  0  0  0  0  0  0  0  0  0  0
   37.5420   30.6810   39.4820 N   0  0  0  0  0  0  0  0  0  0  0  0
   35.5210   31.1810   39.8830 H   0  0  0  0  0  0  0  0  0  0  0  0
   34.8850   28.8620   40.5410 H   0  0  0  0  0  0  0  0  0  0  0  0
   39.4920   29.8050   39.1800 H   0  0  0  0  0  0  0  0  0  0  0  0
   36.7440   27.0950   42.9420 C   0  0  0  0  0  3  0  0  0  0  0  0
   37.3290   28.0290   43.6800 C   0  0  0  0  0  3  0  0  0  0  0  0
   38.7220   28.3780   43.3700 C   0  0  0  0  0  2  0  0  0  0  0  0
   39.0880   29.0280   44.2110 H   0  0  0  0  0  0  0  0  0  0  0  0
  1  7  1  1  0  0  0
  1  6  1  0  0  0  0
  2  3  1  0  0  0  0
  2  1  1  0  0  0  0
  3 11  1  0  0  0  0
  3  4  1  0  0  0  0
  4 13  1  0  0  0  0
  4  5  1  0  0  0  0
  5 15  1  0  0  0  0
  5 14  1  0  0  0  0
  6 16  1  6  0  0  0
  6  5  1  0  0  0  0
  6 26  1  0  0  0  0
  8  2  1  0  0  0  0
  9  2  1  0  0  0  0
 10  3  1  0  0  0  0
 12  4  1  0  0  0  0
 17 23  1  0  0  0  0
 17 18  1  0  0  0  0
 18 24  1  0  0  0  0
 19 18  2  0  0  0  0
 19  1  1  0  0  0  0
 20 19  1  0  0  0  0
 21 22  1  0  0  0  0
 21 20  2  0  0  0  0
 22 17  2  0  0  0  0
 25 21  1  0  0  0  0
 26 27  2  0  0  0  0
 28 27  1  0  0  0  0
 28 29  1  0  0  0  0
M  END
>  <minimizedAffinity>
-4.40414095

$$$$

 OpenBabel03242510303D

 29 30  0  0  1  0  0  0  0  0999 V2000
   36.1160   28.6600   41.1880 C   0  0  1  0  0  0  0  0  0  0  0  0
   36.5650   27.3540   41.7750 C   0  0  0  0  0  0  0  0  0  0  0  0
   36.8080   27.6670   43.2530 C   0  0  0  0  0  0  0  0  0  0  0  0
   38.0930   28.4860   43.2850 C   0  0  0  0  0  0  0  0  0  0  0  0
   37.9850   29.7390   42.4920 C   0  0  0  0  0  0  0  0  0  0  0  0
   37.2490   29.6670   41.2120 C   0  0  2  0  0  0  0  0  0  0  0  0
   35.3160   29.0660   41.8310 H   0  0  0  0  0  0  0  0  0  0  0  0
   35.8430   26.5540   41.6120 H   0  0  0  0  0  0  0  0  0  0  0  0
   37.5790   27.0550   41.3810 H   0  0  0  0  0  0  0  0  0  0  0  0
   36.9090   26.7780   43.8690 H   0  0  0  0  0  0  0  0  0  0  0  0
   35.9980   28.3670   43.6000 H   0  0  0  0  0  0  0  0  0  0  0  0
   38.8820   27.8360   42.8200 H   0  0  0  0  0  0  0  0  0  0  0  0
   38.3180   28.7330   44.3280 H   0  0  0  0  0  0  0  0  0  0  0  0
   37.5670   30.5310   43.1490 H   0  0  0  0  0  0  0  0  0  0  0  0
   39.0280   30.0660   42.2650 H   0  0  0  0  0  0  0  0  0  0  0  0
   37.8850   29.4500   40.3310 H   0  0  0  0  0  0  0  0  0  0  0  0
   35.7950   27.9070   37.4880 C   0  0  0  0  0  0  0  0  0  0  0  0
   36.3840   27.9620   38.7580 C   0  0  0  0  0  0  0  0  0  0  0  0
   35.6270   28.5290   39.8030 C   0  0  0  0  0  0  0  0  0  0  0  0
   34.3840   28.9740   39.4820 N   0  0  0  0  0  0  0  0  0  0  0  0
   33.8470   28.9090   38.2620 C   0  0  0  0  0  0  0  0  0  0  0  0
   34.5480   28.3760   37.2590 N   0  0  0  0  0  0  0  0  0  0  0  0
   36.3850   27.4720   36.7030 H   0  0  0  0  0  0  0  0  0  0  0  0
   37.3580   27.6090   38.9930 H   0  0  0  0  0  0  0  0  0  0  0  0
   32.8400   29.3140   38.1880 H   0  0  0  0  0  0  0  0  0  0  0  0
   36.6240   31.0010   40.9780 C   0  0  0  0  0  3  0  0  0  0  0  0
   36.9340   31.8490   40.0060 C   0  0  0  0  0  3  0  0  0  0  0  0
   37.9890   31.4570   39.0610 C   0  0  0  0  0  2  0  0  0  0  0  0
   38.2320   32.3700   38.4510 H   0  0  0  0  0  0  0  0  0  0  0  0
  1  6  1  0  0  0  0
  1  2  1  0  0  0  0
  1  7  1  1  0  0  0
  2  3  1  0  0  0  0
  3  4  1  0  0  0  0
  3 11  1  0  0  0  0
  3 10  1  0  0  0  0
  4 13  1  0  0  0  0
  5 14  1  0  0  0  0
  5  4  1  0  0  0  0
  6 16  1  6  0  0  0
  6  5  1  0  0  0  0
  8  2  1  0  0  0  0
  9  2  1  0  0  0  0
 12  4  1  0  0  0  0
 15  5  1  0  0  0  0
 17 18  1  0  0  0  0
 18 24  1  0  0  0  0
 18 19  2  0  0  0  0
 19  1  1  0  0  0  0
 20 19  1  0  0  0  0
 21 20  2  0  0  0  0
 22 17  2  0  0  0  0
 22 21  1  0  0  0  0
 23 17  1  0  0  0  0
 25 21  1  0  0  0  0
 26  6  1  0  0  0  0
 27 26  2  0  0  0  0
 28 27  1  0  0  0  0
 29 28  1  0  0  0  0
M  END
>  <minimizedAffinity>
-4.39177942

$$$$

 OpenBabel03242510303D

 29 30  0  0  1  0  0  0  0  0999 V2000
   37.9930   30.7060   41.4430 C   0  0  1  0  0  0  0  0  0  0  0  0
   39.2540   31.4670   41.1600 C   0  0  0  0  0  0  0  0  0  0  0  0
   38.7800   32.8970   40.8860 C   0  0  0  0  0  0  0  0  0  0  0  0
   38.1240   32.8480   39.5120 C   0  0  0  0  0  0  0  0  0  0  0  0
   36.9840   31.8960   39.4630 C   0  0  0  0  0  0  0  0  0  0  0  0
   37.1350   30.6210   40.1960 C   0  0  2  0  0  0  0  0  0  0  0  0
   37.4130   31.2750   42.1910 H   0  0  0  0  0  0  0  0  0  0  0  0
   39.9760   31.3960   41.9730 H   0  0  0  0  0  0  0  0  0  0  0  0
   39.7220   31.1370   40.1880 H   0  0  0  0  0  0  0  0  0  0  0  0
   39.5870   33.6260   40.8970 H   0  0  0  0  0  0  0  0  0  0  0  0
   37.9490   33.1330   41.6060 H   0  0  0  0  0  0  0  0  0  0  0  0
   38.9200   32.4880   38.8050 H   0  0  0  0  0  0  0  0  0  0  0  0
   37.7710   33.8540   39.2630 H   0  0  0  0  0  0  0  0  0  0  0  0
   36.0680   32.4350   39.7840 H   0  0  0  0  0  0  0  0  0  0  0  0
   36.8170   31.6490   38.3870 H   0  0  0  0  0  0  0  0  0  0  0  0
   37.5410   29.7900   39.5880 H   0  0  0  0  0  0  0  0  0  0  0  0
   38.2530   27.5930   43.5890 C   0  0  0  0  0  0  0  0  0  0  0  0
   37.9530   28.9200   43.2520 C   0  0  0  0  0  0  0  0  0  0  0  0
   38.2460   29.3400   41.9390 C   0  0  0  0  0  0  0  0  0  0  0  0
   38.7970   28.4140   41.1110 N   0  0  0  0  0  0  0  0  0  0  0  0
   39.0720   27.1550   41.4590 C   0  0  0  0  0  0  0  0  0  0  0  0
   38.8020   26.7380   42.6980 N   0  0  0  0  0  0  0  0  0  0  0  0
   38.0240   27.2890   44.5930 H   0  0  0  0  0  0  0  0  0  0  0  0
   37.5220   29.6340   43.9110 H   0  0  0  0  0  0  0  0  0  0  0  0
   39.5110   26.5530   40.6680 H   0  0  0  0  0  0  0  0  0  0  0  0
   35.7790   30.2030   40.6540 C   0  0  0  0  0  3  0  0  0  0  0  0
   35.0870   29.1670   40.1980 C   0  0  0  0  0  3  0  0  0  0  0  0
   35.6940   28.3420   39.1450 C   0  0  0  0  0  2  0  0  0  0  0  0
   34.8890   27.6540   38.7680 H   0  0  0  0  0  0  0  0  0  0  0  0
  1 19  1  0  0  0  0
  1  7  1  1  0  0  0
  2  1  1  0  0  0  0
  2  8  1  0  0  0  0
  3 10  1  0  0  0  0
  3  2  1  0  0  0  0
  3 11  1  0  0  0  0
  4  3  1  0  0  0  0
  5  4  1  0  0  0  0
  5 14  1  0  0  0  0
  5  6  1  0  0  0  0
  6 16  1  6  0  0  0
  6 26  1  0  0  0  0
  6  1  1  0  0  0  0
  9  2  1  0  0  0  0
 12  4  1  0  0  0  0
 13  4  1  0  0  0  0
 15  5  1  0  0  0  0
 17 23  1  0  0  0  0
 18 17  1  0  0  0  0
 18 24  1  0  0  0  0
 19 18  2  0  0  0  0
 20 21  2  0  0  0  0
 20 19  1  0  0  0  0
 21 22  1  0  0  0  0
 22 17  2  0  0  0  0
 25 21  1  0  0  0  0
 27 26  2  0  0  0  0
 28 27  1  0  0  0  0
 29 28  1  0  0  0  0
M  END
>  <minimizedAffinity>
-4.36869049

$$$$

 OpenBabel03242510303D

 29 30  0  0  1  0  0  0  0  0999 V2000
   36.7230   26.7490   40.3680 C   0  0  1  0  0  0  0  0  0  0  0  0
   36.9540   25.7450   39.2780 C   0  0  0  0  0  0  0  0  0  0  0  0
   36.0990   24.5420   39.6830 C   0  0  0  0  0  0  0  0  0  0  0  0
   36.8310   23.9060   40.8590 C   0  0  0  0  0  0  0  0  0  0  0  0
   36.9930   24.8450   41.9990 C   0  0  0  0  0  0  0  0  0  0  0  0
   37.3080   26.2530   41.6760 C   0  0  2  0  0  0  0  0  0  0  0  0
   35.6330   26.8400   40.5210 H   0  0  0  0  0  0  0  0  0  0  0  0
   36.7110   26.1380   38.2910 H   0  0  0  0  0  0  0  0  0  0  0  0
   38.0120   25.3560   39.2970 H   0  0  0  0  0  0  0  0  0  0  0  0
   35.9680   23.8190   38.8820 H   0  0  0  0  0  0  0  0  0  0  0  0
   35.1310   24.9280   40.1070 H   0  0  0  0  0  0  0  0  0  0  0  0
   37.8500   23.6320   40.4740 H   0  0  0  0  0  0  0  0  0  0  0  0
   36.2610   23.0300   41.1870 H   0  0  0  0  0  0  0  0  0  0  0  0
   36.0880   24.7760   42.6380 H   0  0  0  0  0  0  0  0  0  0  0  0
   37.8270   24.4480   42.6270 H   0  0  0  0  0  0  0  0  0  0  0  0
   38.3900   26.4840   41.6460 H   0  0  0  0  0  0  0  0  0  0  0  0
   39.0880   29.6290   39.6820 C   0  0  0  0  0  0  0  0  0  0  0  0
   38.6820   28.3200   39.9740 C   0  0  0  0  0  0  0  0  0  0  0  0
   37.2980   28.0720   40.0620 C   0  0  0  0  0  0  0  0  0  0  0  0
   36.4740   29.1320   39.8520 N   0  0  0  0  0  0  0  0  0  0  0  0
   36.8890   30.3700   39.5750 C   0  0  0  0  0  0  0  0  0  0  0  0
   38.1970   30.6250   39.4880 N   0  0  0  0  0  0  0  0  0  0  0  0
   40.1460   29.8010   39.6190 H   0  0  0  0  0  0  0  0  0  0  0  0
   39.3380   27.5000   40.1360 H   0  0  0  0  0  0  0  0  0  0  0  0
   36.0900   31.0950   39.4370 H   0  0  0  0  0  0  0  0  0  0  0  0
   36.7120   27.1040   42.7460 C   0  0  0  0  0  3  0  0  0  0  0  0
   37.3830   27.7770   43.6720 C   0  0  0  0  0  3  0  0  0  0  0  0
   38.8500   27.6900   43.6600 C   0  0  0  0  0  2  0  0  0  0  0  0
   39.2090   28.1570   44.6170 H   0  0  0  0  0  0  0  0  0  0  0  0
  1  7  1  1  0  0  0
  1  6  1  0  0  0  0
  2  9  1  0  0  0  0
  2  3  1  0  0  0  0
  2  1  1  0  0  0  0
  3 11  1  0  0  0  0
  3  4  1  0  0  0  0
  4 13  1  0  0  0  0
  4  5  1  0  0  0  0
  5 15  1  0  0  0  0
  5 14  1  0  0  0  0
  6 16  1  6  0  0  0
  6  5  1  0  0  0  0
  6 26  1  0  0  0  0
  8  2  1  0  0  0  0
 10  3  1  0  0  0  0
 12  4  1  0  0  0  0
 17 18  1  0  0  0  0
 18 19  2  0  0  0  0
 18 24  1  0  0  0  0
 19  1  1  0  0  0  0
 20 19  1  0  0  0  0
 21 20  2  0  0  0  0
 22 21  1  0  0  0  0
 22 17  2  0  0  0  0
 23 17  1  0  0  0  0
 25 21  1  0  0  0  0
 26 27  2  0  0  0  0
 28 27  1  0  0  0  0
 28 29  1  0  0  0  0
M  END
>  <minimizedAffinity>
-4.35910034

$$$$

 OpenBabel03242510303D

 29 30  0  0  1  0  0  0  0  0999 V2000
   36.9260   27.3580   39.7450 C   0  0  1  0  0  0  0  0  0  0  0  0
   36.0010   27.0440   38.6050 C   0  0  0  0  0  0  0  0  0  0  0  0
   35.6010   28.4150   38.0550 C   0  0  0  0  0  0  0  0  0  0  0  0
   34.6450   29.0000   39.0870 C   0  0  0  0  0  0  0  0  0  0  0  0
   35.2720   29.1340   40.4270 C   0  0  0  0  0  0  0  0  0  0  0  0
   36.1700   28.0450   40.8650 C   0  0  2  0  0  0  0  0  0  0  0  0
   37.6810   28.0770   39.3820 H   0  0  0  0  0  0  0  0  0  0  0  0
   36.4610   26.3940   37.8620 H   0  0  0  0  0  0  0  0  0  0  0  0
   35.0340   26.5970   38.9750 H   0  0  0  0  0  0  0  0  0  0  0  0
   35.1220   28.3630   37.0800 H   0  0  0  0  0  0  0  0  0  0  0  0
   36.5080   29.0790   38.0770 H   0  0  0  0  0  0  0  0  0  0  0  0
   33.7920   28.2720   39.1630 H   0  0  0  0  0  0  0  0  0  0  0  0
   34.3200   29.9860   38.7360 H   0  0  0  0  0  0  0  0  0  0  0  0
   35.7860   30.1170   40.4740 H   0  0  0  0  0  0  0  0  0  0  0  0
   34.4390   29.2020   41.1670 H   0  0  0  0  0  0  0  0  0  0  0  0
   35.6700   27.2460   41.4460 H   0  0  0  0  0  0  0  0  0  0  0  0
   39.4860   24.7590   40.7700 C   0  0  0  0  0  0  0  0  0  0  0  0
   38.9860   25.9460   40.2190 C   0  0  0  0  0  0  0  0  0  0  0  0
   37.5950   26.1600   40.2860 C   0  0  0  0  0  0  0  0  0  0  0  0
   36.8570   25.1890   40.8850 N   0  0  0  0  0  0  0  0  0  0  0  0
   37.3600   24.0660   41.4030 C   0  0  0  0  0  0  0  0  0  0  0  0
   38.6760   23.8450   41.3480 N   0  0  0  0  0  0  0  0  0  0  0  0
   40.5480   24.6110   40.7110 H   0  0  0  0  0  0  0  0  0  0  0  0
   39.5760   26.6970   39.7540 H   0  0  0  0  0  0  0  0  0  0  0  0
   36.6220   23.4000   41.8430 H   0  0  0  0  0  0  0  0  0  0  0  0
   37.2050   28.6450   41.7550 C   0  0  0  0  0  3  0  0  0  0  0  0
   37.3670   28.3900   43.0470 C   0  0  0  0  0  3  0  0  0  0  0  0
   36.4530   27.4290   43.6790 C   0  0  0  0  0  2  0  0  0  0  0  0
   36.6250   27.5000   44.7880 H   0  0  0  0  0  0  0  0  0  0  0  0
  1  7  1  6  0  0  0
  1 19  1  0  0  0  0
  1  6  1  0  0  0  0
  2  9  1  0  0  0  0
  2  1  1  0  0  0  0
  3 11  1  0  0  0  0
  3  2  1  0  0  0  0
  3  4  1  0  0  0  0
  4 12  1  0  0  0  0
  4  5  1  0  0  0  0
  5 14  1  0  0  0  0
  5  6  1  0  0  0  0
  5 15  1  0  0  0  0
  6 16  1  1  0  0  0
  6 26  1  0  0  0  0
  8  2  1  0  0  0  0
 10  3  1  0  0  0  0
 13  4  1  0  0  0  0
 17 22  1  0  0  0  0
 18 19  1  0  0  0  0
 18 17  2  0  0  0  0
 19 20  2  0  0  0  0
 20 21  1  0  0  0  0
 21 25  1  0  0  0  0
 22 21  2  0  0  0  0
 23 17  1  0  0  0  0
 24 18  1  0  0  0  0
 26 27  2  0  0  0  0
 27 28  1  0  0  0  0
 28 29  1  0  0  0  0
M  END
>  <minimizedAffinity>
-4.31934595

$$$$

 OpenBabel03242510303D

 29 30  0  0  1  0  0  0  0  0999 V2000
   40.3160   28.1000   42.9630 C   0  0  1  0  0  0  0  0  0  0  0  0
   41.5580   28.5970   42.2860 C   0  0  0  0  0  0  0  0  0  0  0  0
   41.8240   29.9590   42.9330 C   0  0  0  0  0  0  0  0  0  0  0  0
   40.7590   30.8890   42.3650 C   0  0  0  0  0  0  0  0  0  0  0  0
   39.3800   30.4220   42.6660 C   0  0  0  0  0  0  0  0  0  0  0  0
   39.1280   28.9670   42.5940 C   0  0  2  0  0  0  0  0  0  0  0  0
   40.4590   28.2020   44.0540 H   0  0  0  0  0  0  0  0  0  0  0  0
   42.3920   27.9020   42.3790 H   0  0  0  0  0  0  0  0  0  0  0  0
   41.3650   28.8360   41.2000 H   0  0  0  0  0  0  0  0  0  0  0  0
   42.8170   30.3470   42.7250 H   0  0  0  0  0  0  0  0  0  0  0  0
   41.5930   29.8740   44.0300 H   0  0  0  0  0  0  0  0  0  0  0  0
   40.9040   30.8780   41.2510 H   0  0  0  0  0  0  0  0  0  0  0  0
   40.9080   31.8860   42.7940 H   0  0  0  0  0  0  0  0  0  0  0  0
   39.0840   30.8290   43.6560 H   0  0  0  0  0  0  0  0  0  0  0  0
   38.7050   30.9180   41.9300 H   0  0  0  0  0  0  0  0  0  0  0  0
   38.7730   28.6130   41.6070 H   0  0  0  0  0  0  0  0  0  0  0  0
   39.6860   24.3660   43.1160 C   0  0  0  0  0  0  0  0  0  0  0  0
   39.9960   25.6530   43.5750 C   0  0  0  0  0  0  0  0  0  0  0  0
   40.0030   26.6980   42.6290 C   0  0  0  0  0  0  0  0  0  0  0  0
   39.7050   26.3610   41.3480 N   0  0  0  0  0  0  0  0  0  0  0  0
   39.4120   25.1250   40.9370 C   0  0  0  0  0  0  0  0  0  0  0  0
   39.4010   24.1210   41.8180 N   0  0  0  0  0  0  0  0  0  0  0  0
   39.6860   23.5810   43.8490 H   0  0  0  0  0  0  0  0  0  0  0  0
   40.2270   25.9020   44.5820 H   0  0  0  0  0  0  0  0  0  0  0  0
   39.1990   25.0390   39.8740 H   0  0  0  0  0  0  0  0  0  0  0  0
   38.0580   28.6460   43.5820 C   0  0  0  0  0  3  0  0  0  0  0  0
   36.8520   28.1700   43.2990 C   0  0  0  0  0  3  0  0  0  0  0  0
   36.5210   27.9290   41.8880 C   0  0  0  0  0  2  0  0  0  0  0  0
   35.4170   27.7200   41.8460 H   0  0  0  0  0  0  0  0  0  0  0  0
  1  7  1  1  0  0  0
  2  8  1  0  0  0  0
  2  3  1  0  0  0  0
  2  1  1  0  0  0  0
  3 11  1  0  0  0  0
  4  5  1  0  0  0  0
  4 13  1  0  0  0  0
  4  3  1  0  0  0  0
  5 14  1  0  0  0  0
  6 16  1  6  0  0  0
  6  5  1  0  0  0  0
  6  1  1  0  0  0  0
  6 26  1  0  0  0  0
  9  2  1  0  0  0  0
 10  3  1  0  0  0  0
 12  4  1  0  0  0  0
 15  5  1  0  0  0  0
 17 18  1  0  0  0  0
 17 23  1  0  0  0  0
 18 24  1  0  0  0  0
 19  1  1  0  0  0  0
 19 18  2  0  0  0  0
 20 19  1  0  0  0  0
 21 20  2  0  0  0  0
 21 22  1  0  0  0  0
 22 17  2  0  0  0  0
 25 21  1  0  0  0  0
 27 26  2  0  0  0  0
 28 27  1  0  0  0  0
 29 28  1  0  0  0  0
M  END
>  <minimizedAffinity>
-4.31643534

$$$$

 OpenBabel03242510303D

 29 30  0  0  1  0  0  0  0  0999 V2000
   36.7010   30.5200   39.6850 C   0  0  1  0  0  0  0  0  0  0  0  0
   36.3120   30.1190   38.2930 C   0  0  0  0  0  0  0  0  0  0  0  0
   35.1310   29.1650   38.4900 C   0  0  0  0  0  0  0  0  0  0  0  0
   35.7400   27.8770   39.0320 C   0  0  0  0  0  0  0  0  0  0  0  0
   36.4650   28.0890   40.3120 C   0  0  0  0  0  0  0  0  0  0  0  0
   37.2570   29.3300   40.4430 C   0  0  2  0  0  0  0  0  0  0  0  0
   35.7850   30.8360   40.2170 H   0  0  0  0  0  0  0  0  0  0  0  0
   36.0780   30.9760   37.6620 H   0  0  0  0  0  0  0  0  0  0  0  0
   37.1090   29.4820   37.8130 H   0  0  0  0  0  0  0  0  0  0  0  0
   34.5810   28.9680   37.5730 H   0  0  0  0  0  0  0  0  0  0  0  0
   34.4920   29.5680   39.3230 H   0  0  0  0  0  0  0  0  0  0  0  0
   36.4780   27.5360   38.2560 H   0  0  0  0  0  0  0  0  0  0  0  0
   34.9330   27.1530   39.1850 H   0  0  0  0  0  0  0  0  0  0  0  0
   35.7360   27.9920   41.1440 H   0  0  0  0  0  0  0  0  0  0  0  0
   37.1640   27.2280   40.4320 H   0  0  0  0  0  0  0  0  0  0  0  0
   38.3170   29.2290   40.1390 H   0  0  0  0  0  0  0  0  0  0  0  0
   38.4360   33.8690   40.0540 C   0  0  0  0  0  0  0  0  0  0  0  0
   37.3920   32.9340   40.0790 C   0  0  0  0  0  0  0  0  0  0  0  0
   37.6960   31.6080   39.7120 C   0  0  0  0  0  0  0  0  0  0  0  0
   38.9840   31.3520   39.3640 N   0  0  0  0  0  0  0  0  0  0  0  0
   39.9590   32.2630   39.3490 C   0  0  0  0  0  0  0  0  0  0  0  0
   39.6920   33.5250   39.6930 N   0  0  0  0  0  0  0  0  0  0  0  0
   38.1880   34.8750   40.3360 H   0  0  0  0  0  0  0  0  0  0  0  0
   36.3880   33.1500   40.3540 H   0  0  0  0  0  0  0  0  0  0  0  0
   40.9310   31.8800   39.0440 H   0  0  0  0  0  0  0  0  0  0  0  0
   37.2530   29.7170   41.8830 C   0  0  0  0  0  3  0  0  0  0  0  0
   38.2740   29.6080   42.7230 C   0  0  0  0  0  3  0  0  0  0  0  0
   39.5360   29.0590   42.2070 C   0  0  0  0  0  2  0  0  0  0  0  0
   40.1950   28.8700   43.0970 H   0  0  0  0  0  0  0  0  0  0  0  0
  1 19  1  0  0  0  0
  1  7  1  1  0  0  0
  1  6  1  0  0  0  0
  2  3  1  0  0  0  0
  2  1  1  0  0  0  0
  3  4  1  0  0  0  0
  3 11  1  0  0  0  0
  4 13  1  0  0  0  0
  4  5  1  0  0  0  0
  5 15  1  0  0  0  0
  5  6  1  0  0  0  0
  5 14  1  0  0  0  0
  6 16  1  6  0  0  0
  6 26  1  0  0  0  0
  8  2  1  0  0  0  0
  9  2  1  0  0  0  0
 10  3  1  0  0  0  0
 12  4  1  0  0  0  0
 17 18  1  0  0  0  0
 17 23  1  0  0  0  0
 18 24  1  0  0  0  0
 19 18  2  0  0  0  0
 20 19  1  0  0  0  0
 21 20  2  0  0  0  0
 21 22  1  0  0  0  0
 22 17  2  0  0  0  0
 25 21  1  0  0  0  0
 26 27  2  0  0  0  0
 28 27  1  0  0  0  0
 28 29  1  0  0  0  0
M  END
>  <minimizedAffinity>
-4.20509052

$$$$

 OpenBabel03242510303D

 29 30  0  0  1  0  0  0  0  0999 V2000
   37.6850   28.3090   41.8200 C   0  0  1  0  0  0  0  0  0  0  0  0
   39.1430   28.5830   42.0410 C   0  0  0  0  0  0  0  0  0  0  0  0
   39.1750   29.9830   42.6590 C   0  0  0  0  0  0  0  0  0  0  0  0
   38.8430   30.9360   41.5180 C   0  0  0  0  0  0  0  0  0  0  0  0
   37.5130   30.6560   40.9160 C   0  0  0  0  0  0  0  0  0  0  0  0
   37.1260   29.2380   40.7600 C   0  0  2  0  0  0  0  0  0  0  0  0
   37.1500   28.5370   42.7590 H   0  0  0  0  0  0  0  0  0  0  0  0
   39.6220   27.8240   42.6580 H   0  0  0  0  0  0  0  0  0  0  0  0
   39.6910   28.6980   41.0610 H   0  0  0  0  0  0  0  0  0  0  0  0
   40.1370   30.2360   43.0980 H   0  0  0  0  0  0  0  0  0  0  0  0
   38.3150   30.0660   43.3790 H   0  0  0  0  0  0  0  0  0  0  0  0
   39.6310   30.7650   40.7360 H   0  0  0  0  0  0  0  0  0  0  0  0
   38.8590   31.9600   41.9080 H   0  0  0  0  0  0  0  0  0  0  0  0
   36.7460   31.2180   41.4920 H   0  0  0  0  0  0  0  0  0  0  0  0
   37.5150   31.1190   39.9010 H   0  0  0  0  0  0  0  0  0  0  0  0
   37.3930   28.7970   39.7800 H   0  0  0  0  0  0  0  0  0  0  0  0
   37.1920   25.1110   39.8470 C   0  0  0  0  0  0  0  0  0  0  0  0
   37.4760   26.4620   40.0850 C   0  0  0  0  0  0  0  0  0  0  0  0
   37.4180   26.9150   41.4180 C   0  0  0  0  0  0  0  0  0  0  0  0
   37.0900   25.9930   42.3610 N   0  0  0  0  0  0  0  0  0  0  0  0
   36.8240   24.7100   42.1060 C   0  0  0  0  0  0  0  0  0  0  0  0
   36.8730   24.2620   40.8490 N   0  0  0  0  0  0  0  0  0  0  0  0
   37.2400   24.7820   38.8260 H   0  0  0  0  0  0  0  0  0  0  0  0
   37.7310   27.1720   39.3370 H   0  0  0  0  0  0  0  0  0  0  0  0
   36.5800   24.1150   42.9830 H   0  0  0  0  0  0  0  0  0  0  0  0
   35.6420   29.1610   40.8820 C   0  0  0  0  0  3  0  0  0  0  0  0
   34.7780   29.1100   39.8760 C   0  0  0  0  0  3  0  0  0  0  0  0
   35.3120   29.1310   38.5070 C   0  0  0  0  0  2  0  0  0  0  0  0
   34.4350   29.2770   37.8200 H   0  0  0  0  0  0  0  0  0  0  0  0
  1  2  1  0  0  0  0
  1  7  1  1  0  0  0
  2  8  1  0  0  0  0
  2  3  1  0  0  0  0
  3 10  1  0  0  0  0
  3 11  1  0  0  0  0
  4 13  1  0  0  0  0
  4  3  1  0  0  0  0
  5 14  1  0  0  0  0
  5  4  1  0  0  0  0
  6 16  1  6  0  0  0
  6 26  1  0  0  0  0
  6  5  1  0  0  0  0
  6  1  1  0  0  0  0
  9  2  1  0  0  0  0
 12  4  1  0  0  0  0
 15  5  1  0  0  0  0
 17 18  2  0  0  0  0
 17 22  1  0  0  0  0
 18 19  1  0  0  0  0
 19  1  1  0  0  0  0
 19 20  2  0  0  0  0
 21 20  1  0  0  0  0
 21 25  1  0  0  0  0
 22 21  2  0  0  0  0
 23 17  1  0  0  0  0
 24 18  1  0  0  0  0
 27 26  2  0  0  0  0
 28 27  1  0  0  0  0
 29 28  1  0  0  0  0
M  END
>  <minimizedAffinity>
-4.1526022

$$$$
