
 OpenBabel03252505563D

 31 32  0  0  0  0  0  0  0  0999 V2000
   45.8250   32.7300   47.6030 O   0  0  0  0  0  0  0  0  0  0  0  0
   45.0050   34.8930   44.9100 C   0  0  0  0  0  0  0  0  0  0  0  0
   45.9420   34.5650   43.9110 C   0  0  0  0  0  0  0  0  0  0  0  0
   46.8580   33.5620   44.2320 C   0  0  0  0  0  0  0  0  0  0  0  0
   46.7980   32.9820   45.4410 N   0  0  0  0  0  0  0  0  0  0  0  0
   45.8900   33.3270   46.3580 C   0  0  0  0  0  0  0  0  0  0  0  0
   44.9980   34.2750   46.0980 N   0  0  0  0  0  0  0  0  0  0  0  0
   44.2770   35.6820   44.6700 H   0  0  0  0  0  0  0  0  0  0  0  0
   45.9060   35.2830   42.6130 C   0  0  0  0  0  0  0  0  0  0  0  0
   45.0520   36.3610   42.8460 F   0  0  0  0  0  0  0  0  0  0  0  0
   45.2960   34.4290   41.7060 F   0  0  0  0  0  0  0  0  0  0  0  0
   47.1440   35.6790   42.2780 F   0  0  0  0  0  0  0  0  0  0  0  0
   47.8440   33.1060   43.2960 C   0  0  0  0  0  3  0  0  0  0  0  0
   47.6110   32.0430   42.5070 C   0  0  0  0  0  3  0  0  0  0  0  0
   46.3240   31.2790   42.5560 C   0  0  0  0  0  2  0  0  0  0  0  0
   46.1620   30.7800   43.5370 H   0  0  0  0  0  0  0  0  0  0  0  0
   45.3150   31.4210   47.7560 C   0  0  0  0  0  0  0  0  0  0  0  0
   44.8070   31.4010   48.7410 H   0  0  0  0  0  0  0  0  0  0  0  0
   44.5610   31.1490   47.0000 H   0  0  0  0  0  0  0  0  0  0  0  0
   46.4650   30.5000   47.8190 C   0  0  0  0  0  0  0  0  0  0  0  0
   46.6590   29.2490   47.2560 C   0  0  0  0  0  0  0  0  0  0  0  0
   47.8380   28.6240   47.4840 C   0  0  0  0  0  0  0  0  0  0  0  0
   48.8100   29.1510   48.2160 N   0  0  0  0  0  0  0  0  0  0  0  0
   48.6200   30.3640   48.7610 C   0  0  0  0  0  0  0  0  0  0  0  0
   47.4520   31.0630   48.5780 N   0  0  0  0  0  0  0  0  0  0  0  0
   45.8150   28.9380   46.6960 H   0  0  0  0  0  0  0  0  0  0  0  0
   47.9530   27.6510   47.0280 H   0  0  0  0  0  0  0  0  0  0  0  0
   49.7560   30.8890   49.5700 C   0  0  0  0  0  0  0  0  0  0  0  0
   49.7730   32.2550   49.5850 F   0  0  0  0  0  0  0  0  0  0  0  0
   50.9650   30.4160   49.0420 F   0  0  0  0  0  0  0  0  0  0  0  0
   49.6840   30.4560   50.8880 F   0  0  0  0  0  0  0  0  0  0  0  0
  1 17  1  0  0  0  0
  2  7  1  0  0  0  0
  3  4  1  0  0  0  0
  3  2  2  0  0  0  0
  4  5  2  0  0  0  0
  5  6  1  0  0  0  0
  6  1  1  0  0  0  0
  7  6  2  0  0  0  0
  8  2  1  0  0  0  0
  9 10  1  0  0  0  0
  9  3  1  0  0  0  0
 11  9  1  0  0  0  0
 12  9  1  0  0  0  0
 13  4  1  0  0  0  0
 14 15  1  0  0  0  0
 14 13  2  0  0  0  0
 15 16  1  0  0  0  0
 17 20  1  0  0  0  0
 17 18  1  0  0  0  0
 19 17  1  0  0  0  0
 20 25  1  0  0  0  0
 21 22  1  0  0  0  0
 21 20  2  0  0  0  0
 22 23  2  0  0  0  0
 23 24  1  0  0  0  0
 24 28  1  0  0  0  0
 25 24  2  0  0  0  0
 26 21  1  0  0  0  0
 27 22  1  0  0  0  0
 28 29  1  0  0  0  0
 28 31  1  0  0  0  0
 30 28  1  0  0  0  0
M  END
>  <minimizedAffinity>
-5.51166248

>  <minimizedRMSD>
0.433784395

$$$$
