
     RDKit          3D

 24 24  0  0  0  0  0  0  0  0999 V2000
   44.3005   35.7924   44.1865 C   0  0  0  0  0  0  0  0  0  0  0  0
   44.4794   34.9288   43.0867 C   0  0  0  0  0  0  0  0  0  0  0  0
   45.0880   33.7073   43.3095 C   0  0  0  0  0  0  0  0  0  0  0  0
   45.4905   33.3780   44.5623 N   0  0  0  0  0  0  0  0  0  0  0  0
   45.3003   34.2389   45.5997 C   0  0  0  0  0  0  0  0  0  0  0  0
   44.7176   35.4174   45.4072 N   0  0  0  0  0  0  0  0  0  0  0  0
   44.0315   35.3158   41.7453 C   0  0  0  0  0  0  0  0  0  0  0  0
   43.0184   34.7344   41.1068 C   0  0  0  0  0  0  0  0  0  0  0  0
   42.6318   35.2050   39.7250 C   0  0  0  0  0  0  0  0  0  0  0  0
   43.8194   36.7272   43.9391 H   0  0  0  0  0  0  0  0  0  0  0  0
   45.2468   33.0150   42.5044 H   0  0  0  0  0  0  0  0  0  0  0  0
   44.6014   36.1288   41.3052 H   0  0  0  0  0  0  0  0  0  0  0  0
   42.5590   33.9426   41.6860 H   0  0  0  0  0  0  0  0  0  0  0  0
   43.3174   34.8236   38.9676 H   0  0  0  0  0  0  0  0  0  0  0  0
   41.6387   34.7534   39.5238 H   0  0  0  0  0  0  0  0  0  0  0  0
   42.5070   36.2997   39.7075 H   0  0  0  0  0  0  0  0  0  0  0  0
   45.7162   33.9279   46.9628 C   0  0  0  0  0  0  0  0  0  0  0  0
   46.0460   32.7263   47.4029 C   0  0  0  0  0  0  0  0  0  0  0  0
   46.0277   31.5402   46.5383 C   0  0  0  0  0  0  0  0  0  0  0  0
   46.3308   30.6377   47.1074 H   0  0  0  0  0  0  0  0  0  0  0  0
   45.7458   34.7876   47.6513 H   0  0  0  0  0  0  0  0  0  0  0  0
   46.3366   32.6195   48.4301 H   0  0  0  0  0  0  0  0  0  0  0  0
   46.7528   31.6620   45.7122 H   0  0  0  0  0  0  0  0  0  0  0  0
   45.0099   31.3272   46.1459 H   0  0  0  0  0  0  0  0  0  0  0  0
  1  6  2  0
  2  3  2  0
  2  1  1  0
  3  4  1  0
  4  5  2  0
  6  5  1  0
  7  2  1  0
  8  7  2  0
  9  8  1  0
  1 10  1  0
  3 11  1  0
  7 12  1  0
  8 13  1  0
  9 14  1  0
  9 15  1  0
  9 16  1  0
 17 18  2  3
 18 19  1  0
 19 20  1  0
 17 21  1  0
 18 22  1  0
 19 23  1  0
 19 24  1  0
  5 17  1  0
M  ISO  6  10  14  11  14  14   8  15   8  16   8  20   8
M  END
>  <DihAtoms>  (1) 
3,4,16,17

>  <DihDeg>  (1) 
-179.9991336707244

$$$$
