
 OpenBabel03252508213D

 29 30  0  0  0  0  0  0  0  0999 V2000
   44.6410   34.1190   41.9690 C   0  0  0  0  0  0  0  0  0  0  0  0
   44.4550   33.7580   43.0240 H   0  0  0  0  0  0  0  0  0  0  0  0
   44.1920   33.3690   41.3150 H   0  0  0  0  0  0  0  0  0  0  0  0
   46.0970   34.2740   41.8700 C   0  0  0  0  0  0  0  0  0  0  0  0
   46.7790   34.4810   40.7000 C   0  0  0  0  0  0  0  0  0  0  0  0
   48.1530   34.6330   40.5620 C   0  0  0  0  0  0  0  0  0  0  0  0
   48.8610   34.5590   41.7670 C   0  0  0  0  0  0  0  0  0  0  0  0
   48.2040   34.3510   42.9630 C   0  0  0  0  0  0  0  0  0  0  0  0
   46.8490   34.2080   43.0370 C   0  0  0  0  0  0  0  0  0  0  0  0
   46.2160   34.5370   39.7760 H   0  0  0  0  0  0  0  0  0  0  0  0
   48.6480   34.7930   39.6390 H   0  0  0  0  0  0  0  0  0  0  0  0
   49.9440   34.6730   41.7000 H   0  0  0  0  0  0  0  0  0  0  0  0
   48.8710   34.3130   43.8200 H   0  0  0  0  0  0  0  0  0  0  0  0
   46.2080   33.9900   44.3290 C   0  0  0  0  0  3  0  0  0  0  0  0
   46.6200   33.1300   45.2450 C   0  0  0  0  0  3  0  0  0  0  0  0
   45.9290   32.9490   46.5480 C   0  0  0  0  0  2  0  0  0  0  0  0
   45.3890   31.9730   46.5490 H   0  0  0  0  0  0  0  0  0  0  0  0
   43.9300   35.4690   41.9020 C   0  0  0  0  0  0  0  0  0  0  0  0
   43.5730   35.6540   42.9380 H   0  0  0  0  0  0  0  0  0  0  0  0
   44.6070   36.2470   41.5430 H   0  0  0  0  0  0  0  0  0  0  0  0
   40.3330   35.3280   40.7850 C   0  0  0  0  0  0  0  0  0  0  0  0
   41.4650   35.4840   41.6250 C   0  0  0  0  0  0  0  0  0  0  0  0
   42.7360   35.3130   41.0550 C   0  0  0  0  0  0  0  0  0  0  0  0
   42.7930   35.0030   39.7130 N   0  0  0  0  0  0  0  0  0  0  0  0
   41.6970   34.8690   38.9730 C   0  0  0  0  0  0  0  0  0  0  0  0
   40.4590   35.0270   39.4880 N   0  0  0  0  0  0  0  0  0  0  0  0
   39.3810   35.4730   41.2870 H   0  0  0  0  0  0  0  0  0  0  0  0
   41.3220   35.7310   42.6780 H   0  0  0  0  0  0  0  0  0  0  0  0
   41.8690   34.6250   37.9310 H   0  0  0  0  0  0  0  0  0  0  0  0
  1  2  1  0  0  0  0
  3  1  1  0  0  0  0
  4  1  1  0  0  0  0
  4  9  1  0  0  0  0
  5  4  2  0  0  0  0
  6  5  1  0  0  0  0
  6  7  2  0  0  0  0
  7  8  1  0  0  0  0
  8  9  2  0  0  0  0
  8 13  1  0  0  0  0
  9 14  1  0  0  0  0
 10  5  1  0  0  0  0
 11  6  1  0  0  0  0
 12  7  1  0  0  0  0
 14 15  2  0  0  0  0
 15 16  1  0  0  0  0
 16 17  1  0  0  0  0
 18  1  1  0  0  0  0
 18 19  1  0  0  0  0
 20 18  1  0  0  0  0
 21 27  1  0  0  0  0
 21 22  1  0  0  0  0
 22 28  1  0  0  0  0
 23 22  2  0  0  0  0
 23 18  1  0  0  0  0
 24 23  1  0  0  0  0
 25 26  1  0  0  0  0
 25 24  2  0  0  0  0
 26 21  2  0  0  0  0
 29 25  1  0  0  0  0
M  END
>  <minimizedAffinity>
-4.98506975

>  <minimizedRMSD>
1.86452281

$$$$
