
 OpenBabel03242521443D

 33 34  0  0  1  0  0  0  0  0999 V2000
   45.1600   34.6980   44.9780 C   0  0  0  0  0  0  0  0  0  0  0  0
   46.0820   34.1900   44.0550 C   0  0  0  0  0  0  0  0  0  0  0  0
   46.9730   33.1870   44.4550 C   0  0  0  0  0  0  0  0  0  0  0  0
   46.8910   32.7650   45.7150 N   0  0  0  0  0  0  0  0  0  0  0  0
   45.9970   33.2640   46.5970 C   0  0  0  0  0  0  0  0  0  0  0  0
   45.1290   34.2290   46.2340 N   0  0  0  0  0  0  0  0  0  0  0  0
   46.0590   34.6020   43.0660 H   0  0  0  0  0  0  0  0  0  0  0  0
   45.9720   32.8870   47.6080 H   0  0  0  0  0  0  0  0  0  0  0  0
   48.5950   33.7590   42.6610 C   0  0  2  0  0  0  0  0  0  0  0  0
   47.9110   32.6970   43.4470 C   0  0  2  0  0  0  0  0  0  0  0  0
   47.2900   31.9510   42.4020 O   0  0  0  0  0  0  0  0  0  0  0  0
   48.3490   31.7180   41.5470 C   0  0  0  0  0  0  0  0  0  0  0  0
   49.3380   32.8450   41.6630 C   0  0  1  0  0  0  0  0  0  0  0  0
   47.9100   34.3430   42.0100 H   0  0  0  0  0  0  0  0  0  0  0  0
   48.6590   31.9860   43.8480 H   0  0  0  0  0  0  0  0  0  0  0  0
   48.8550   30.7950   41.8990 H   0  0  0  0  0  0  0  0  0  0  0  0
   48.0200   31.5160   40.5020 H   0  0  0  0  0  0  0  0  0  0  0  0
   50.2890   32.5410   42.1170 H   0  0  0  0  0  0  0  0  0  0  0  0
   49.4120   34.5760   43.3820 O   0  0  0  0  0  0  0  0  0  0  0  0
   49.4990   35.4520   42.9150 H   0  0  0  0  0  0  0  0  0  0  0  0
   49.5370   33.5340   40.4760 O   0  0  0  0  0  0  0  0  0  0  0  0
   49.3100   32.9990   39.6760 H   0  0  0  0  0  0  0  0  0  0  0  0
   44.2160   35.7820   44.5260 C   0  0  0  0  0  0  0  0  0  0  0  0
   43.3250   35.8280   45.1520 H   0  0  0  0  0  0  0  0  0  0  0  0
   43.9350   35.5880   43.4690 H   0  0  0  0  0  0  0  0  0  0  0  0
   45.0880   37.9800   43.5000 C   0  0  0  0  0  0  0  0  0  0  0  0
   44.4370   37.7280   42.4490 O   0  0  0  0  0  0  0  0  0  0  0  0
   44.9670   37.0170   44.5310 N   0  0  0  0  0  0  0  0  0  0  0  0
   45.4970   37.2280   45.4280 H   0  0  0  0  0  0  0  0  0  0  0  0
   45.8920   39.1650   43.6310 C   0  0  0  0  0  3  0  0  0  0  0  0
   45.8650   39.9260   44.6870 C   0  0  0  0  0  3  0  0  0  0  0  0
   44.9900   39.6060   45.8270 C   0  0  0  0  0  2  0  0  0  0  0  0
   43.8970   39.5940   45.5660 H   0  0  0  0  0  0  0  0  0  0  0  0
  1  6  1  0  0  0  0
  2  3  1  0  0  0  0
  2  1  2  0  0  0  0
  3  4  2  0  0  0  0
  4  5  1  0  0  0  0
  5  8  1  0  0  0  0
  6  5  2  0  0  0  0
  7  2  1  0  0  0  0
  9 14  1  6  0  0  0
  9 19  1  0  0  0  0
  9 10  1  0  0  0  0
 10 15  1  1  0  0  0
 10  3  1  0  0  0  0
 11 10  1  0  0  0  0
 12 13  1  0  0  0  0
 12 16  1  0  0  0  0
 12 11  1  0  0  0  0
 13 18  1  1  0  0  0
 13  9  1  0  0  0  0
 17 12  1  0  0  0  0
 20 19  1  0  0  0  0
 21 13  1  0  0  0  0
 22 21  1  0  0  0  0
 23 28  1  0  0  0  0
 23  1  1  0  0  0  0
 23 24  1  0  0  0  0
 25 23  1  0  0  0  0
 26 30  1  0  0  0  0
 26 28  1  0  0  0  0
 27 26  2  0  0  0  0
 28 29  1  0  0  0  0
 30 31  2  0  0  0  0
 31 32  1  0  0  0  0
 33 32  1  0  0  0  0
M  END
>  <minimizedAffinity>
-3.53323889

>  <minimizedRMSD>
1.27821875

$$$$
