
     RDKit          3D

 44 47  0  0  0  0  0  0  0  0999 V2000
   47.3265   30.2191   47.6506 C   0  0  0  0  0  0  0  0  0  0  0  0
   46.5586   32.6565   45.1598 C   0  0  0  0  0  0  0  0  0  0  0  0
   47.2736   31.7109   44.4169 C   0  0  0  0  0  0  0  0  0  0  0  0
   47.6485   30.6886   45.2418 C   0  0  0  0  0  0  0  0  0  0  0  0
   47.1737   31.0100   46.4432 N   0  0  0  0  0  0  0  0  0  0  0  0
   46.5223   32.1807   46.4063 N   0  0  0  0  0  0  0  0  0  0  0  0
   44.5670   35.6974   44.8283 C   0  0  0  0  0  0  0  0  0  0  0  0
   44.9408   36.1970   43.5900 C   0  0  0  0  0  0  0  0  0  0  0  0
   45.8941   35.4754   42.8566 C   0  0  0  0  0  0  0  0  0  0  0  0
   46.3781   34.3382   43.4205 N   0  0  0  0  0  0  0  0  0  0  0  0
   46.0007   33.8848   44.6087 C   0  0  0  0  0  0  0  0  0  0  0  0
   45.0930   34.5688   45.3109 N   0  0  0  0  0  0  0  0  0  0  0  0
   46.0176   29.9398   48.2627 C   0  0  0  0  0  0  0  0  0  0  0  0
   45.1113   27.5634   47.9013 C   0  0  0  0  0  0  0  0  0  0  0  0
   45.1942   28.9042   47.6436 C   0  0  0  0  0  0  0  0  0  0  0  0
   44.3641   29.3821   46.6261 C   0  0  0  0  0  0  0  0  0  0  0  0
   43.5210   28.5485   45.9341 C   0  0  0  0  0  0  0  0  0  0  0  0
   42.6294   28.7226   44.9292 N   0  0  0  0  0  0  0  0  0  0  0  0
   42.0424   27.5668   44.5973 C   0  0  0  0  0  0  0  0  0  0  0  0
   42.5451   26.5737   45.3959 C   0  0  0  0  0  0  0  0  0  0  0  0
   43.4589   27.2185   46.2119 C   0  0  0  0  0  0  0  0  0  0  0  0
   44.2730   26.7243   47.2161 C   0  0  0  0  0  0  0  0  0  0  0  0
   47.8948   30.8685   48.3565 H   0  0  0  0  0  0  0  0  0  0  0  0
   47.9533   29.3441   47.4589 H   0  0  0  0  0  0  0  0  0  0  0  0
   47.4807   31.8082   43.3457 H   0  0  0  0  0  0  0  0  0  0  0  0
   48.2125   29.8295   44.9166 H   0  0  0  0  0  0  0  0  0  0  0  0
   43.8393   36.1753   45.4765 H   0  0  0  0  0  0  0  0  0  0  0  0
   44.5067   37.0976   43.2293 H   0  0  0  0  0  0  0  0  0  0  0  0
   46.2167   35.8288   41.8827 H   0  0  0  0  0  0  0  0  0  0  0  0
   45.4577   30.8912   48.3725 H   0  0  0  0  0  0  0  0  0  0  0  0
   46.2068   29.6173   49.3207 H   0  0  0  0  0  0  0  0  0  0  0  0
   45.7857   27.2916   48.6971 H   0  0  0  0  0  0  0  0  0  0  0  0
   44.3220   30.4109   46.3144 H   0  0  0  0  0  0  0  0  0  0  0  0
   42.4356   29.6462   44.4809 H   0  0  0  0  0  0  0  0  0  0  0  0
   41.2918   27.4056   43.8313 H   0  0  0  0  0  0  0  0  0  0  0  0
   42.3192   25.5199   45.4262 H   0  0  0  0  0  0  0  0  0  0  0  0
   44.2410   25.3067   47.5491 C   0  0  0  0  0  0  0  0  0  0  0  0
   44.4972   24.2503   46.8286 C   0  0  0  0  0  0  0  0  0  0  0  0
   44.9080   23.9720   45.4513 C   0  0  0  0  0  0  0  0  0  0  0  0
   44.1184   24.2879   44.7445 H   0  0  0  0  0  0  0  0  0  0  0  0
   43.9497   25.0866   48.5911 H   0  0  0  0  0  0  0  0  0  0  0  0
   44.3837   23.2904   47.3702 H   0  0  0  0  0  0  0  0  0  0  0  0
   45.0322   22.8653   45.2595 H   0  0  0  0  0  0  0  0  0  0  0  0
   45.9252   24.3734   45.2095 H   0  0  0  0  0  0  0  0  0  0  0  0
  1 13  1  0
  2  6  2  0
  3  2  1  0
  3  4  2  0
  4  5  1  0
  5  1  1  0
  6  5  1  0
  7 12  2  0
  8  7  1  0
  9 10  1  0
  9  8  2  0
 10 11  2  0
 11  2  1  0
 11 12  1  0
 15 14  2  0
 15 13  1  0
 16 15  1  0
 17 21  1  0
 17 16  2  0
 18 17  1  0
 19 18  1  0
 19 20  2  0
 20 21  1  0
 21 22  2  0
 22 14  1  0
  1 23  1  0
  1 24  1  0
  3 25  1  0
  4 26  1  0
  7 27  1  0
  8 28  1  0
  9 29  1  0
 13 30  1  0
 13 31  1  0
 14 32  1  0
 16 33  1  0
 18 34  1  0
 19 35  1  0
 20 36  1  0
 37 38  2  3
 38 39  1  0
 39 40  1  0
 37 41  1  0
 38 42  1  0
 39 43  1  0
 39 44  1  0
 22 37  1  0
M  ISO  8  23   8  24   8  25  14  26  14  27  14  28  14  29  14  30   8
M  ISO  7  31   8  32  14  33  14  34   9  35  14  36  14  40   8
M  END
>  <DihAtoms>  (1) 
20,21,36,37

>  <DihDeg>  (1) 
-179.92028253030293

$$$$
