
     RDKit          3D

 42 44  0  0  0  0  0  0  0  0999 V2000
   46.4398   32.9638   46.4661 C   0  0  2  0  0  0  0  0  0  0  0  0
   46.9622   31.7346   45.7750 C   0  0  0  0  0  0  0  0  0  0  0  0
   46.0969   30.5444   45.8044 C   0  0  0  0  0  0  0  0  0  0  0  0
   45.8154   30.2916   47.2871 C   0  0  0  0  0  0  0  0  0  0  0  0
   45.0280   31.3597   47.8970 C   0  0  0  0  0  0  0  0  0  0  0  0
   45.3916   32.7349   47.4343 C   0  0  0  0  0  0  0  0  0  0  0  0
   44.5630   35.5596   44.6073 C   0  0  0  0  0  0  0  0  0  0  0  0
   45.2208   35.5702   43.3542 C   0  0  0  0  0  0  0  0  0  0  0  0
   46.3123   34.6646   43.1809 C   0  0  0  0  0  0  0  0  0  0  0  0
   46.6630   33.8506   44.2055 N   0  0  0  0  0  0  0  0  0  0  0  0
   46.0057   33.8796   45.3759 C   0  0  0  0  0  0  0  0  0  0  0  0
   44.9545   34.7278   45.5920 N   0  0  0  0  0  0  0  0  0  0  0  0
   47.0052   34.6521   41.9007 C   0  0  0  0  0  0  0  0  0  0  0  0
   48.1391   35.3887   41.7701 C   0  0  0  0  0  0  0  0  0  0  0  0
   48.7696   35.3426   40.5148 C   0  0  0  0  0  0  0  0  0  0  0  0
   48.1774   34.5602   39.5508 C   0  0  0  0  0  0  0  0  0  0  0  0
   47.0391   33.8208   39.6820 C   0  0  0  0  0  0  0  0  0  0  0  0
   46.4658   33.9003   40.9211 N   0  0  0  0  0  0  0  0  0  0  0  0
   44.7007   33.8839   47.9428 N   0  0  0  0  0  0  0  0  0  0  0  0
   47.2860   33.4938   46.9631 H   0  0  0  0  0  0  0  0  0  0  0  0
   47.9272   31.4589   46.2679 H   0  0  0  0  0  0  0  0  0  0  0  0
   47.2533   31.9333   44.7156 H   0  0  0  0  0  0  0  0  0  0  0  0
   46.6688   29.6776   45.4664 H   0  0  0  0  0  0  0  0  0  0  0  0
   45.1753   30.6072   45.2058 H   0  0  0  0  0  0  0  0  0  0  0  0
   46.7613   30.0453   47.7681 H   0  0  0  0  0  0  0  0  0  0  0  0
   45.1501   29.3974   47.2828 H   0  0  0  0  0  0  0  0  0  0  0  0
   44.2415   31.3589   48.6071 H   0  0  0  0  0  0  0  0  0  0  0  0
   43.7359   36.2310   44.7695 H   0  0  0  0  0  0  0  0  0  0  0  0
   44.9042   36.2400   42.5638 H   0  0  0  0  0  0  0  0  0  0  0  0
   48.5873   35.9983   42.5451 H   0  0  0  0  0  0  0  0  0  0  0  0
   49.6753   35.9031   40.3381 H   0  0  0  0  0  0  0  0  0  0  0  0
   48.6861   34.5435   38.5912 H   0  0  0  0  0  0  0  0  0  0  0  0
   43.6854   34.0031   47.7278 H   0  0  0  0  0  0  0  0  0  0  0  0
   45.2662   34.5319   48.5006 H   0  0  0  0  0  0  0  0  0  0  0  0
   46.4316   33.0092   38.6695 C   0  0  0  0  0  0  0  0  0  0  0  0
   45.5096   32.1129   38.9734 C   0  0  0  0  0  0  0  0  0  0  0  0
   44.8286   31.2354   38.0159 C   0  0  0  0  0  0  0  0  0  0  0  0
   45.4737   30.9691   37.1294 H   0  0  0  0  0  0  0  0  0  0  0  0
   46.7296   33.1284   37.6367 H   0  0  0  0  0  0  0  0  0  0  0  0
   45.2041   31.9877   40.0157 H   0  0  0  0  0  0  0  0  0  0  0  0
   43.8966   31.6894   37.6104 H   0  0  0  0  0  0  0  0  0  0  0  0
   44.5734   30.2461   38.4753 H   0  0  0  0  0  0  0  0  0  0  0  0
  1  6  1  0
  2  3  1  0
  2  1  1  0
  3  4  1  0
  4  5  1  0
  6  5  2  0
  6 19  1  0
  7 12  2  0
  8  7  1  0
  9  8  2  0
  9 10  1  0
 10 11  2  0
 11 12  1  0
 11  1  1  0
 13  9  1  0
 14 13  2  0
 15 14  1  0
 16 17  1  0
 16 15  2  0
 17 18  2  0
 18 13  1  0
  1 20  1  1
  2 21  1  0
  2 22  1  0
  3 23  1  0
  3 24  1  0
  4 25  1  0
  4 26  1  0
  5 27  1  0
  7 28  1  0
  8 29  1  0
 14 30  1  0
 15 31  1  0
 16 32  1  0
 19 33  1  0
 19 34  1  0
 35 36  2  3
 36 37  1  0
 37 38  1  0
 35 39  1  0
 36 40  1  0
 37 41  1  0
 37 42  1  0
 17 35  1  0
M  ISO  8  20  13  21  13  22  13  23  13  24  13  25  13  26  13  27  13
M  ISO  6  28  14  29  14  30  14  31  14  32  14  38   8
M  END
>  <DihAtoms>  (1) 
15,16,34,35

>  <DihDeg>  (1) 
-179.99867878229853

$$$$
