
 OpenBabel03252508213D

 29 30  0  0  0  0  0  0  0  0999 V2000
   44.9530   34.8250   41.9300 C   0  0  0  0  0  0  0  0  0  0  0  0
   44.7800   35.9400   41.8810 H   0  0  0  0  0  0  0  0  0  0  0  0
   44.3930   34.4740   42.8000 H   0  0  0  0  0  0  0  0  0  0  0  0
   46.4110   34.6690   41.9970 C   0  0  0  0  0  0  0  0  0  0  0  0
   47.2660   34.8970   40.9510 C   0  0  0  0  0  0  0  0  0  0  0  0
   48.6490   34.7630   40.9710 C   0  0  0  0  0  0  0  0  0  0  0  0
   49.1660   34.3510   42.2040 C   0  0  0  0  0  0  0  0  0  0  0  0
   48.3320   34.1130   43.2790 C   0  0  0  0  0  0  0  0  0  0  0  0
   46.9770   34.2620   43.1990 C   0  0  0  0  0  0  0  0  0  0  0  0
   46.8500   35.2160   40.0030 H   0  0  0  0  0  0  0  0  0  0  0  0
   49.2810   34.9490   40.1420 H   0  0  0  0  0  0  0  0  0  0  0  0
   50.2490   34.2340   42.2610 H   0  0  0  0  0  0  0  0  0  0  0  0
   48.8610   33.7990   44.1740 H   0  0  0  0  0  0  0  0  0  0  0  0
   46.1450   33.9950   44.3670 C   0  0  0  0  0  3  0  0  0  0  0  0
   46.5240   33.3020   45.4260 C   0  0  0  0  0  3  0  0  0  0  0  0
   45.6340   33.0600   46.5910 C   0  0  0  0  0  2  0  0  0  0  0  0
   45.3050   31.9960   46.5930 H   0  0  0  0  0  0  0  0  0  0  0  0
   44.3950   34.2970   40.6110 C   0  0  0  0  0  0  0  0  0  0  0  0
   45.0340   34.7580   39.8280 H   0  0  0  0  0  0  0  0  0  0  0  0
   44.4180   33.2050   40.5880 H   0  0  0  0  0  0  0  0  0  0  0  0
   41.0060   35.7610   41.3710 C   0  0  0  0  0  0  0  0  0  0  0  0
   42.3080   35.2360   41.5700 C   0  0  0  0  0  0  0  0  0  0  0  0
   43.0400   34.8450   40.4380 C   0  0  0  0  0  0  0  0  0  0  0  0
   42.4360   34.9980   39.2080 N   0  0  0  0  0  0  0  0  0  0  0  0
   41.2100   35.4970   39.0820 C   0  0  0  0  0  0  0  0  0  0  0  0
   40.4780   35.8840   40.1490 N   0  0  0  0  0  0  0  0  0  0  0  0
   40.4950   36.0450   42.2870 H   0  0  0  0  0  0  0  0  0  0  0  0
   42.7060   35.1520   42.5820 H   0  0  0  0  0  0  0  0  0  0  0  0
   40.8420   35.5700   38.0650 H   0  0  0  0  0  0  0  0  0  0  0  0
  1  4  1  0  0  0  0
  1  3  1  0  0  0  0
  2  1  1  0  0  0  0
  4  9  1  0  0  0  0
  5  6  1  0  0  0  0
  5  4  2  0  0  0  0
  6  7  2  0  0  0  0
  7 12  1  0  0  0  0
  7  8  1  0  0  0  0
  8 13  1  0  0  0  0
  9  8  2  0  0  0  0
  9 14  1  0  0  0  0
 10  5  1  0  0  0  0
 11  6  1  0  0  0  0
 14 15  2  0  0  0  0
 15 16  1  0  0  0  0
 16 17  1  0  0  0  0
 18  1  1  0  0  0  0
 19 18  1  0  0  0  0
 20 18  1  0  0  0  0
 21 22  1  0  0  0  0
 21 27  1  0  0  0  0
 22 28  1  0  0  0  0
 23 18  1  0  0  0  0
 23 22  2  0  0  0  0
 24 23  1  0  0  0  0
 25 24  2  0  0  0  0
 25 26  1  0  0  0  0
 26 21  2  0  0  0  0
 29 25  1  0  0  0  0
M  END
>  <minimizedAffinity>
-4.90921307

>  <minimizedRMSD>
1.9547919

$$$$
