
     RDKit          3D

 24 24  0  0  0  0  0  0  0  0999 V2000
   44.6818   35.5218   43.6080 C   0  0  0  0  0  0  0  0  0  0  0  0
   43.9198   35.4325   42.4043 C   0  0  0  0  0  0  0  0  0  0  0  0
   43.7785   34.1577   41.8326 C   0  0  0  0  0  0  0  0  0  0  0  0
   44.3659   33.0951   42.4472 N   0  0  0  0  0  0  0  0  0  0  0  0
   45.0773   33.2329   43.5859 C   0  0  0  0  0  0  0  0  0  0  0  0
   45.2302   34.4274   44.1534 N   0  0  0  0  0  0  0  0  0  0  0  0
   44.8328   36.8549   44.2108 C   0  0  0  0  0  0  0  0  0  0  0  0
   45.2647   37.8367   43.4310 C   0  0  0  0  0  0  0  0  0  0  0  0
   45.4299   39.2071   44.0128 C   0  0  0  0  0  0  0  0  0  0  0  0
   43.4951   36.3409   41.9988 H   0  0  0  0  0  0  0  0  0  0  0  0
   43.2021   34.0819   40.9198 H   0  0  0  0  0  0  0  0  0  0  0  0
   44.6080   37.0588   45.2484 H   0  0  0  0  0  0  0  0  0  0  0  0
   45.4991   37.6522   42.3739 H   0  0  0  0  0  0  0  0  0  0  0  0
   46.2126   39.1060   44.8089 H   0  0  0  0  0  0  0  0  0  0  0  0
   44.5290   39.5868   44.4971 H   0  0  0  0  0  0  0  0  0  0  0  0
   45.8284   39.8979   43.2665 H   0  0  0  0  0  0  0  0  0  0  0  0
   45.6883   32.0668   44.2084 C   0  0  0  0  0  0  0  0  0  0  0  0
   45.0420   30.9221   44.3620 C   0  0  0  0  0  0  0  0  0  0  0  0
   45.6216   29.7118   44.9881 C   0  0  0  0  0  0  0  0  0  0  0  0
   46.6345   29.9959   45.3748 H   0  0  0  0  0  0  0  0  0  0  0  0
   46.6895   32.0822   44.5706 H   0  0  0  0  0  0  0  0  0  0  0  0
   44.0132   30.7564   44.0410 H   0  0  0  0  0  0  0  0  0  0  0  0
   44.9808   29.3091   45.7795 H   0  0  0  0  0  0  0  0  0  0  0  0
   45.7241   28.9610   44.1751 H   0  0  0  0  0  0  0  0  0  0  0  0
  1  6  2  0
  1  7  1  0
  2  1  1  0
  3  2  2  0
  3  4  1  0
  4  5  2  0
  5  6  1  0
  8  9  1  0
  8  7  2  0
  2 10  1  0
  3 11  1  0
  7 12  1  0
  8 13  1  0
  9 14  1  0
  9 15  1  0
  9 16  1  0
 17 18  2  3
 18 19  1  0
 19 20  1  0
 17 21  1  0
 18 22  1  0
 19 23  1  0
 19 24  1  0
  5 17  1  0
M  ISO  6  10  14  11  14  14   8  15   8  16   8  20   8
M  END
>  <DihAtoms>  (1) 
3,4,16,17

>  <DihDeg>  (1) 
-0.0014932796415483513

$$$$
