
 OpenBabel03252501453D

 18 18  0  0  0  0  0  0  0  0999 V2000
   44.2650   35.7030   42.3430 C   0  0  0  0  0  0  0  0  0  0  0  0
   43.5680   34.8640   41.4490 C   0  0  0  0  0  0  0  0  0  0  0  0
   43.6370   33.4970   41.6490 C   0  0  0  0  0  0  0  0  0  0  0  0
   44.3630   33.0090   42.6860 N   0  0  0  0  0  0  0  0  0  0  0  0
   45.0230   33.8510   43.5280 C   0  0  0  0  0  0  0  0  0  0  0  0
   44.9700   35.1660   43.3520 N   0  0  0  0  0  0  0  0  0  0  0  0
   44.1660   36.7560   42.1250 H   0  0  0  0  0  0  0  0  0  0  0  0
   43.1240   32.8170   40.9960 H   0  0  0  0  0  0  0  0  0  0  0  0
   42.7920   35.4260   40.3390 C   0  0  0  0  0  3  0  0  0  0  0  0
   42.3220   34.7010   39.3250 C   0  0  0  0  0  3  0  0  0  0  0  0
   41.5310   35.3720   38.2270 C   0  0  0  0  0  0  0  0  0  0  0  0
   42.1830   35.9050   37.5350 H   0  0  0  0  0  0  0  0  0  0  0  0
   41.0550   34.5480   37.6580 H   0  0  0  0  0  0  0  0  0  0  0  0
   40.7240   35.9910   38.6510 H   0  0  0  0  0  0  0  0  0  0  0  0
   45.8160   33.3710   44.6550 C   0  0  0  0  0  3  0  0  0  0  0  0
   47.1030   33.0730   44.6090 C   0  0  0  0  0  3  0  0  0  0  0  0
   47.8940   33.1960   43.3790 C   0  0  0  0  0  2  0  0  0  0  0  0
   48.9450   32.8880   43.5580 H   0  0  0  0  0  0  0  0  0  0  0  0
  1  6  1  0  0  0  0
  2  3  1  0  0  0  0
  2  1  2  0  0  0  0
  3  4  2  0  0  0  0
  4  5  1  0  0  0  0
  5 15  1  0  0  0  0
  6  5  2  0  0  0  0
  7  1  1  0  0  0  0
  8  3  1  0  0  0  0
  9  2  1  0  0  0  0
 10  9  2  0  0  0  0
 11 14  1  0  0  0  0
 11 10  1  0  0  0  0
 12 11  1  0  0  0  0
 13 11  1  0  0  0  0
 16 15  2  0  0  0  0
 17 18  1  0  0  0  0
 17 16  1  0  0  0  0
M  END
>  <minimizedAffinity>
-3.47677374

>  <minimizedRMSD>
2.29172087

$$$$
