
 OpenBabel03252507533D

 33 35  0  0  1  0  0  0  0  0999 V2000
   37.3630   30.3810   40.2640 C   0  0  2  0  0  0  0  0  0  0  0  0
   35.9170   30.5140   40.6390 C   0  0  0  0  0  0  0  0  0  0  0  0
   35.5720   29.0130   40.7300 C   0  0  0  0  0  0  0  0  0  0  0  0
   36.8150   28.3590   41.2840 C   0  0  1  0  0  0  0  0  0  0  0  0
   37.8210   29.4600   41.4100 C   0  0  0  0  0  0  0  0  0  0  0  0
   37.4140   29.9190   39.2820 H   0  0  0  0  0  0  0  0  0  0  0  0
   35.3200   31.0150   39.8540 H   0  0  0  0  0  0  0  0  0  0  0  0
   35.8720   30.9950   41.6300 H   0  0  0  0  0  0  0  0  0  0  0  0
   34.7170   28.9490   41.4240 H   0  0  0  0  0  0  0  0  0  0  0  0
   35.3170   28.6670   39.7200 H   0  0  0  0  0  0  0  0  0  0  0  0
   37.1630   27.6350   40.5530 H   0  0  0  0  0  0  0  0  0  0  0  0
   37.6580   30.1750   42.2230 H   0  0  0  0  0  0  0  0  0  0  0  0
   38.8600   29.1370   41.2420 H   0  0  0  0  0  0  0  0  0  0  0  0
   38.3010   34.0280   40.0190 C   0  0  0  0  0  0  0  0  0  0  0  0
   37.4920   32.8720   39.9530 C   0  0  0  0  0  0  0  0  0  0  0  0
   38.1130   31.6570   40.3130 C   0  0  0  0  0  0  0  0  0  0  0  0
   39.4440   31.6390   40.7040 N   0  0  0  0  0  0  0  0  0  0  0  0
   40.1530   32.7940   40.7410 C   0  0  0  0  0  0  0  0  0  0  0  0
   39.5910   33.9690   40.4040 N   0  0  0  0  0  0  0  0  0  0  0  0
   37.7480   34.9230   39.7270 H   0  0  0  0  0  0  0  0  0  0  0  0
   36.4680   32.8600   39.6560 H   0  0  0  0  0  0  0  0  0  0  0  0
   41.1890   32.7920   41.0430 H   0  0  0  0  0  0  0  0  0  0  0  0
   36.6600   27.7890   42.6500 C   0  0  2  0  0  0  0  0  0  0  0  0
   37.8690   27.4380   43.4070 C   0  0  0  0  0  0  0  0  0  0  0  0
   36.7750   26.4230   43.0330 C   0  0  2  0  0  0  0  0  0  0  0  0
   35.9150   28.4270   43.2270 H   0  0  0  0  0  0  0  0  0  0  0  0
   38.8140   27.0350   43.1500 H   0  0  0  0  0  0  0  0  0  0  0  0
   37.8560   27.6920   44.5130 H   0  0  0  0  0  0  0  0  0  0  0  0
   36.1390   26.0950   43.9380 H   0  0  0  0  0  0  0  0  0  0  0  0
   37.0880   25.2480   42.2060 C   0  0  0  0  0  3  0  0  0  0  0  0
   36.9690   24.6740   40.9860 C   0  0  0  0  0  3  0  0  0  0  0  0
   36.3850   24.9640   39.6710 C   0  0  0  0  0  2  0  0  0  0  0  0
   37.1860   25.0330   38.9160 H   0  0  0  0  0  0  0  0  0  0  0  0
  1  6  1  6  0  0  0
  1 16  1  0  0  0  0
  1  2  1  0  0  0  0
  1  5  1  0  0  0  0
  2  3  1  0  0  0  0
  2  8  1  0  0  0  0
  3  4  1  0  0  0  0
  3  9  1  0  0  0  0
  4 11  1  6  0  0  0
  4  5  1  0  0  0  0
  4 23  1  0  0  0  0
  5 12  1  0  0  0  0
  7  2  1  0  0  0  0
 10  3  1  0  0  0  0
 13  5  1  0  0  0  0
 14 19  1  0  0  0  0
 15 14  2  0  0  0  0
 15 16  1  0  0  0  0
 16 17  2  0  0  0  0
 17 18  1  0  0  0  0
 18 22  1  0  0  0  0
 19 18  2  0  0  0  0
 20 14  1  0  0  0  0
 21 15  1  0  0  0  0
 23 25  1  0  0  0  0
 23 26  1  1  0  0  0
 23 24  1  0  0  0  0
 24 28  1  0  0  0  0
 25 24  1  0  0  0  0
 25 29  1  1  0  0  0
 27 24  1  0  0  0  0
 30 25  1  0  0  0  0
 31 30  2  0  0  0  0
 32 31  1  0  0  0  0
 33 32  1  0  0  0  0
M  END
>  <minimizedAffinity>
-5.21389723

$$$$

 OpenBabel03252507533D

 33 35  0  0  1  0  0  0  0  0999 V2000
   36.5320   28.6890   41.7210 C   0  0  2  0  0  0  0  0  0  0  0  0
   37.3690   28.9600   42.9360 C   0  0  0  0  0  0  0  0  0  0  0  0
   37.1830   27.6000   43.6410 C   0  0  0  0  0  0  0  0  0  0  0  0
   37.1280   26.5850   42.5250 C   0  0  1  0  0  0  0  0  0  0  0  0
   37.2000   27.3810   41.2590 C   0  0  0  0  0  0  0  0  0  0  0  0
   35.5010   28.5660   42.0440 H   0  0  0  0  0  0  0  0  0  0  0  0
   36.9690   29.7870   43.5510 H   0  0  0  0  0  0  0  0  0  0  0  0
   38.4100   29.0960   42.6010 H   0  0  0  0  0  0  0  0  0  0  0  0
   38.0730   27.4750   44.2800 H   0  0  0  0  0  0  0  0  0  0  0  0
   36.2550   27.6490   44.2240 H   0  0  0  0  0  0  0  0  0  0  0  0
   36.1660   26.0820   42.5800 H   0  0  0  0  0  0  0  0  0  0  0  0
   38.1760   27.8140   41.0150 H   0  0  0  0  0  0  0  0  0  0  0  0
   36.6330   26.9430   40.4230 H   0  0  0  0  0  0  0  0  0  0  0  0
   36.5980   30.4500   38.3840 C   0  0  0  0  0  0  0  0  0  0  0  0
   36.4330   29.3970   39.3110 C   0  0  0  0  0  0  0  0  0  0  0  0
   36.6600   29.7200   40.6660 C   0  0  0  0  0  0  0  0  0  0  0  0
   37.0230   31.0090   41.0280 N   0  0  0  0  0  0  0  0  0  0  0  0
   37.1600   31.9650   40.0760 C   0  0  0  0  0  0  0  0  0  0  0  0
   36.9510   31.6900   38.7750 N   0  0  0  0  0  0  0  0  0  0  0  0
   36.4040   30.1190   37.3620 H   0  0  0  0  0  0  0  0  0  0  0  0
   36.1550   28.3990   39.0590 H   0  0  0  0  0  0  0  0  0  0  0  0
   37.4420   32.9710   40.3450 H   0  0  0  0  0  0  0  0  0  0  0  0
   38.2810   25.6450   42.4820 C   0  0  2  0  0  0  0  0  0  0  0  0
   39.0730   25.5590   41.2480 C   0  0  0  0  0  0  0  0  0  0  0  0
   38.3270   24.3630   41.8650 C   0  0  2  0  0  0  0  0  0  0  0  0
   38.8990   25.7870   43.4260 H   0  0  0  0  0  0  0  0  0  0  0  0
   38.8450   25.6100   40.2150 H   0  0  0  0  0  0  0  0  0  0  0  0
   40.1970   25.4760   41.3820 H   0  0  0  0  0  0  0  0  0  0  0  0
   39.0360   23.5930   42.3490 H   0  0  0  0  0  0  0  0  0  0  0  0
   37.2820   23.6550   41.1100 C   0  0  0  0  0  3  0  0  0  0  0  0
   36.4080   23.7200   40.0790 C   0  0  0  0  0  3  0  0  0  0  0  0
   35.9880   24.6580   39.0310 C   0  0  0  0  0  2  0  0  0  0  0  0
   36.2280   24.2400   38.0400 H   0  0  0  0  0  0  0  0  0  0  0  0
  1  6  1  1  0  0  0
  1  2  1  0  0  0  0
  2  7  1  0  0  0  0
  2  3  1  0  0  0  0
  3 10  1  0  0  0  0
  3  9  1  0  0  0  0
  4 11  1  1  0  0  0
  4  3  1  0  0  0  0
  5  1  1  0  0  0  0
  5  4  1  0  0  0  0
  8  2  1  0  0  0  0
 12  5  1  0  0  0  0
 13  5  1  0  0  0  0
 14 19  2  0  0  0  0
 14 15  1  0  0  0  0
 15 16  2  0  0  0  0
 16 17  1  0  0  0  0
 16  1  1  0  0  0  0
 18 22  1  0  0  0  0
 18 17  2  0  0  0  0
 19 18  1  0  0  0  0
 20 14  1  0  0  0  0
 21 15  1  0  0  0  0
 23  4  1  0  0  0  0
 23 26  1  1  0  0  0
 24 28  1  0  0  0  0
 24 25  1  0  0  0  0
 24 23  1  0  0  0  0
 25 29  1  1  0  0  0
 25 23  1  0  0  0  0
 27 24  1  0  0  0  0
 30 25  1  0  0  0  0
 31 30  2  0  0  0  0
 32 31  1  0  0  0  0
 33 32  1  0  0  0  0
M  END
>  <minimizedAffinity>
-5.00017643

$$$$

 OpenBabel03252507533D

 33 35  0  0  1  0  0  0  0  0999 V2000
   38.8020   24.7240   41.4200 C   0  0  2  0  0  0  0  0  0  0  0  0
   39.1190   24.2250   42.7970 C   0  0  0  0  0  0  0  0  0  0  0  0
   39.8460   25.4800   43.3260 C   0  0  0  0  0  0  0  0  0  0  0  0
   39.1190   26.6450   42.6990 C   0  0  1  0  0  0  0  0  0  0  0  0
   38.0900   26.0360   41.8000 C   0  0  0  0  0  0  0  0  0  0  0  0
   39.7400   24.8710   40.8910 H   0  0  0  0  0  0  0  0  0  0  0  0
   39.7920   23.3480   42.7860 H   0  0  0  0  0  0  0  0  0  0  0  0
   38.1630   24.0660   43.3240 H   0  0  0  0  0  0  0  0  0  0  0  0
   39.7260   25.4500   44.4220 H   0  0  0  0  0  0  0  0  0  0  0  0
   40.8970   25.4110   43.0190 H   0  0  0  0  0  0  0  0  0  0  0  0
   39.8370   27.2000   42.1000 H   0  0  0  0  0  0  0  0  0  0  0  0
   37.2270   25.5750   42.2940 H   0  0  0  0  0  0  0  0  0  0  0  0
   37.8790   26.6260   40.8950 H   0  0  0  0  0  0  0  0  0  0  0  0
   35.7430   23.3360   39.6990 C   0  0  0  0  0  0  0  0  0  0  0  0
   36.5470   24.2530   40.4110 C   0  0  0  0  0  0  0  0  0  0  0  0
   37.8750   23.8480   40.6660 C   0  0  0  0  0  0  0  0  0  0  0  0
   38.3280   22.6130   40.2260 N   0  0  0  0  0  0  0  0  0  0  0  0
   37.4920   21.7890   39.5470 C   0  0  0  0  0  0  0  0  0  0  0  0
   36.2200   22.1450   39.2880 N   0  0  0  0  0  0  0  0  0  0  0  0
   34.7340   23.7230   39.5440 H   0  0  0  0  0  0  0  0  0  0  0  0
   36.2230   25.2060   40.7610 H   0  0  0  0  0  0  0  0  0  0  0  0
   37.8330   20.8260   39.1990 H   0  0  0  0  0  0  0  0  0  0  0  0
   38.3690   27.4990   43.6600 C   0  0  2  0  0  0  0  0  0  0  0  0
   36.9250   27.6810   43.4590 C   0  0  0  0  0  0  0  0  0  0  0  0
   37.9360   28.8410   43.4650 C   0  0  2  0  0  0  0  0  0  0  0  0
   38.6610   27.1980   44.7160 H   0  0  0  0  0  0  0  0  0  0  0  0
   36.3010   27.7750   42.6090 H   0  0  0  0  0  0  0  0  0  0  0  0
   36.2860   27.6670   44.3970 H   0  0  0  0  0  0  0  0  0  0  0  0
   37.8650   29.4930   44.4130 H   0  0  0  0  0  0  0  0  0  0  0  0
   38.0940   29.7090   42.2880 C   0  0  0  0  0  3  0  0  0  0  0  0
   37.4590   30.4040   41.3170 C   0  0  0  0  0  3  0  0  0  0  0  0
   36.0920   30.6960   40.8670 C   0  0  0  0  0  2  0  0  0  0  0  0
   35.8920   31.7760   40.9610 H   0  0  0  0  0  0  0  0  0  0  0  0
  1  6  1  6  0  0  0
  1  5  1  0  0  0  0
  1  2  1  0  0  0  0
  2  8  1  0  0  0  0
  2  3  1  0  0  0  0
  3  9  1  0  0  0  0
  4 11  1  6  0  0  0
  4  3  1  0  0  0  0
  4 23  1  0  0  0  0
  5 12  1  0  0  0  0
  5  4  1  0  0  0  0
  7  2  1  0  0  0  0
 10  3  1  0  0  0  0
 13  5  1  0  0  0  0
 14 15  1  0  0  0  0
 15 16  2  0  0  0  0
 15 21  1  0  0  0  0
 16  1  1  0  0  0  0
 17 16  1  0  0  0  0
 18 17  2  0  0  0  0
 19 18  1  0  0  0  0
 19 14  2  0  0  0  0
 20 14  1  0  0  0  0
 22 18  1  0  0  0  0
 23 26  1  1  0  0  0
 24 25  1  0  0  0  0
 24 23  1  0  0  0  0
 24 28  1  0  0  0  0
 25 23  1  0  0  0  0
 25 29  1  1  0  0  0
 27 24  1  0  0  0  0
 30 25  1  0  0  0  0
 31 30  2  0  0  0  0
 32 33  1  0  0  0  0
 32 31  1  0  0  0  0
M  END
>  <minimizedAffinity>
-4.92427349

$$$$

 OpenBabel03252507533D

 33 35  0  0  1  0  0  0  0  0999 V2000
   38.0480   31.0660   39.5590 C   0  0  2  0  0  0  0  0  0  0  0  0
   37.0350   31.8770   40.3100 C   0  0  0  0  0  0  0  0  0  0  0  0
   36.2010   30.7120   40.8860 C   0  0  0  0  0  0  0  0  0  0  0  0
   37.2040   29.6230   41.1820 C   0  0  1  0  0  0  0  0  0  0  0  0
   38.5200   30.1530   40.7060 C   0  0  0  0  0  0  0  0  0  0  0  0
   37.5310   30.5380   38.7620 H   0  0  0  0  0  0  0  0  0  0  0  0
   36.4250   32.5150   39.6450 H   0  0  0  0  0  0  0  0  0  0  0  0
   37.5670   32.4190   41.1090 H   0  0  0  0  0  0  0  0  0  0  0  0
   35.7300   31.1110   41.8000 H   0  0  0  0  0  0  0  0  0  0  0  0
   35.4620   30.4230   40.1280 H   0  0  0  0  0  0  0  0  0  0  0  0
   36.9320   28.7520   40.5920 H   0  0  0  0  0  0  0  0  0  0  0  0
   38.9750   30.9400   41.3180 H   0  0  0  0  0  0  0  0  0  0  0  0
   39.2000   29.3790   40.3170 H   0  0  0  0  0  0  0  0  0  0  0  0
   40.7610   33.6630   39.1880 C   0  0  0  0  0  0  0  0  0  0  0  0
   39.6830   32.9640   39.7740 C   0  0  0  0  0  0  0  0  0  0  0  0
   39.1880   31.8610   39.0460 C   0  0  0  0  0  0  0  0  0  0  0  0
   39.7530   31.5130   37.8280 N   0  0  0  0  0  0  0  0  0  0  0  0
   40.7880   32.2370   37.3330 C   0  0  0  0  0  0  0  0  0  0  0  0
   41.2830   33.2940   38.0020 N   0  0  0  0  0  0  0  0  0  0  0  0
   41.0840   34.4990   39.8110 H   0  0  0  0  0  0  0  0  0  0  0  0
   39.2300   33.2100   40.7080 H   0  0  0  0  0  0  0  0  0  0  0  0
   41.2360   31.9770   36.3870 H   0  0  0  0  0  0  0  0  0  0  0  0
   37.3830   29.3210   42.6280 C   0  0  2  0  0  0  0  0  0  0  0  0
   38.7140   28.9180   43.1020 C   0  0  0  0  0  0  0  0  0  0  0  0
   37.4600   28.0370   43.2390 C   0  0  2  0  0  0  0  0  0  0  0  0
   36.9030   30.1540   43.2350 H   0  0  0  0  0  0  0  0  0  0  0  0
   39.5000   28.3350   42.6980 H   0  0  0  0  0  0  0  0  0  0  0  0
   39.0410   29.3520   44.0980 H   0  0  0  0  0  0  0  0  0  0  0  0
   37.0750   27.9680   44.3240 H   0  0  0  0  0  0  0  0  0  0  0  0
   37.4020   26.7060   42.6160 C   0  0  0  0  0  3  0  0  0  0  0  0
   37.1500   26.0100   41.4830 C   0  0  0  0  0  3  0  0  0  0  0  0
   36.7470   26.2530   40.0930 C   0  0  0  0  0  2  0  0  0  0  0  0
   37.5560   25.9400   39.4110 H   0  0  0  0  0  0  0  0  0  0  0  0
  1  6  1  6  0  0  0
  1  2  1  0  0  0  0
  1  5  1  0  0  0  0
  2  3  1  0  0  0  0
  2  8  1  0  0  0  0
  3  4  1  0  0  0  0
  3  9  1  0  0  0  0
  4 11  1  6  0  0  0
  4 23  1  0  0  0  0
  5  4  1  0  0  0  0
  5 12  1  0  0  0  0
  7  2  1  0  0  0  0
 10  3  1  0  0  0  0
 13  5  1  0  0  0  0
 14 15  1  0  0  0  0
 14 20  1  0  0  0  0
 15 21  1  0  0  0  0
 16  1  1  0  0  0  0
 16 15  2  0  0  0  0
 17 16  1  0  0  0  0
 18 17  2  0  0  0  0
 18 19  1  0  0  0  0
 19 14  2  0  0  0  0
 22 18  1  0  0  0  0
 23 24  1  0  0  0  0
 23 26  1  1  0  0  0
 23 25  1  0  0  0  0
 24 25  1  0  0  0  0
 24 28  1  0  0  0  0
 25 29  1  1  0  0  0
 27 24  1  0  0  0  0
 30 25  1  0  0  0  0
 31 30  2  0  0  0  0
 32 31  1  0  0  0  0
 33 32  1  0  0  0  0
M  END
>  <minimizedAffinity>
-4.92052174

$$$$

 OpenBabel03252507533D

 33 35  0  0  1  0  0  0  0  0999 V2000
   39.6990   30.1550   41.7660 C   0  0  2  0  0  0  0  0  0  0  0  0
   39.6220   28.9830   40.8340 C   0  0  0  0  0  0  0  0  0  0  0  0
   39.8510   27.8610   41.8690 C   0  0  0  0  0  0  0  0  0  0  0  0
   39.1590   28.3390   43.1220 C   0  0  1  0  0  0  0  0  0  0  0  0
   38.6470   29.7070   42.7980 C   0  0  0  0  0  0  0  0  0  0  0  0
   40.7100   30.2030   42.1630 H   0  0  0  0  0  0  0  0  0  0  0  0
   40.4230   28.9940   40.0720 H   0  0  0  0  0  0  0  0  0  0  0  0
   38.5980   28.9470   40.4260 H   0  0  0  0  0  0  0  0  0  0  0  0
   39.3730   26.9640   41.4400 H   0  0  0  0  0  0  0  0  0  0  0  0
   40.9340   27.7370   41.9940 H   0  0  0  0  0  0  0  0  0  0  0  0
   39.9080   28.4120   43.9070 H   0  0  0  0  0  0  0  0  0  0  0  0
   37.7810   29.7540   42.1270 H   0  0  0  0  0  0  0  0  0  0  0  0
   38.6420   30.3980   43.6550 H   0  0  0  0  0  0  0  0  0  0  0  0
   37.6740   32.8860   40.1260 C   0  0  0  0  0  0  0  0  0  0  0  0
   37.9580   31.6330   40.7150 C   0  0  0  0  0  0  0  0  0  0  0  0
   39.2860   31.4370   41.1500 C   0  0  0  0  0  0  0  0  0  0  0  0
   40.2320   32.4400   40.9900 N   0  0  0  0  0  0  0  0  0  0  0  0
   39.8790   33.6160   40.4150 C   0  0  0  0  0  0  0  0  0  0  0  0
   38.6210   33.8350   39.9890 N   0  0  0  0  0  0  0  0  0  0  0  0
   36.6290   32.9570   39.8190 H   0  0  0  0  0  0  0  0  0  0  0  0
   37.2500   30.8470   40.8480 H   0  0  0  0  0  0  0  0  0  0  0  0
   40.6050   34.4030   40.2850 H   0  0  0  0  0  0  0  0  0  0  0  0
   37.9680   27.5400   43.5180 C   0  0  2  0  0  0  0  0  0  0  0  0
   37.6360   26.3400   42.7380 C   0  0  0  0  0  0  0  0  0  0  0  0
   36.6850   27.5390   42.9000 C   0  0  2  0  0  0  0  0  0  0  0  0
   38.0000   27.3740   44.6420 H   0  0  0  0  0  0  0  0  0  0  0  0
   37.6920   26.0830   41.7130 H   0  0  0  0  0  0  0  0  0  0  0  0
   37.2900   25.4390   43.3340 H   0  0  0  0  0  0  0  0  0  0  0  0
   35.7900   27.3130   43.5910 H   0  0  0  0  0  0  0  0  0  0  0  0
   36.2170   28.2940   41.7280 C   0  0  0  0  0  3  0  0  0  0  0  0
   36.0540   28.2870   40.3840 C   0  0  0  0  0  3  0  0  0  0  0  0
   36.2920   27.4020   39.2370 C   0  0  0  0  0  2  0  0  0  0  0  0
   35.3310   27.1310   38.7700 H   0  0  0  0  0  0  0  0  0  0  0  0
  1  6  1  1  0  0  0
  1  5  1  0  0  0  0
  2  1  1  0  0  0  0
  2  3  1  0  0  0  0
  3 10  1  0  0  0  0
  3  4  1  0  0  0  0
  4 23  1  0  0  0  0
  4 11  1  1  0  0  0
  5  4  1  0  0  0  0
  5 13  1  0  0  0  0
  7  2  1  0  0  0  0
  8  2  1  0  0  0  0
  9  3  1  0  0  0  0
 12  5  1  0  0  0  0
 14 15  1  0  0  0  0
 15 21  1  0  0  0  0
 15 16  2  0  0  0  0
 16  1  1  0  0  0  0
 17 16  1  0  0  0  0
 18 17  2  0  0  0  0
 19 14  2  0  0  0  0
 19 18  1  0  0  0  0
 20 14  1  0  0  0  0
 22 18  1  0  0  0  0
 23 26  1  1  0  0  0
 24 25  1  0  0  0  0
 24 28  1  0  0  0  0
 24 23  1  0  0  0  0
 25 23  1  0  0  0  0
 25 29  1  1  0  0  0
 27 24  1  0  0  0  0
 30 25  1  0  0  0  0
 31 30  2  0  0  0  0
 32 31  1  0  0  0  0
 33 32  1  0  0  0  0
M  END
>  <minimizedAffinity>
-4.89792967

$$$$

 OpenBabel03252507533D

 33 35  0  0  1  0  0  0  0  0999 V2000
   37.3060   28.8950   42.2400 C   0  0  2  0  0  0  0  0  0  0  0  0
   37.3160   28.4700   43.6770 C   0  0  0  0  0  0  0  0  0  0  0  0
   36.3740   27.2530   43.5550 C   0  0  0  0  0  0  0  0  0  0  0  0
   36.6910   26.6480   42.2090 C   0  0  1  0  0  0  0  0  0  0  0  0
   37.7080   27.5560   41.5930 C   0  0  0  0  0  0  0  0  0  0  0  0
   36.2980   29.2170   41.9910 H   0  0  0  0  0  0  0  0  0  0  0  0
   36.8910   29.2380   44.3500 H   0  0  0  0  0  0  0  0  0  0  0  0
   38.3430   28.1560   43.9270 H   0  0  0  0  0  0  0  0  0  0  0  0
   36.6460   26.5860   44.3910 H   0  0  0  0  0  0  0  0  0  0  0  0
   35.3430   27.6190   43.6320 H   0  0  0  0  0  0  0  0  0  0  0  0
   35.7820   26.6700   41.6130 H   0  0  0  0  0  0  0  0  0  0  0  0
   38.7190   27.5090   42.0160 H   0  0  0  0  0  0  0  0  0  0  0  0
   37.6380   27.6300   40.4970 H   0  0  0  0  0  0  0  0  0  0  0  0
   40.3760   31.0890   42.3010 C   0  0  0  0  0  0  0  0  0  0  0  0
   39.4920   30.0560   42.6820 C   0  0  0  0  0  0  0  0  0  0  0  0
   38.3120   29.9330   41.9170 C   0  0  0  0  0  0  0  0  0  0  0  0
   38.0700   30.7950   40.8570 N   0  0  0  0  0  0  0  0  0  0  0  0
   38.9710   31.7620   40.5540 C   0  0  0  0  0  0  0  0  0  0  0  0
   40.1050   31.9070   41.2640 N   0  0  0  0  0  0  0  0  0  0  0  0
   41.2610   31.1170   42.9400 H   0  0  0  0  0  0  0  0  0  0  0  0
   39.6540   29.3820   43.4920 H   0  0  0  0  0  0  0  0  0  0  0  0
   38.7950   32.4390   39.7330 H   0  0  0  0  0  0  0  0  0  0  0  0
   37.3250   25.3030   42.2650 C   0  0  2  0  0  0  0  0  0  0  0  0
   38.5630   25.0770   41.5090 C   0  0  0  0  0  0  0  0  0  0  0  0
   37.2680   24.2800   41.2760 C   0  0  2  0  0  0  0  0  0  0  0  0
   37.3710   24.9700   43.3510 H   0  0  0  0  0  0  0  0  0  0  0  0
   38.9330   25.4100   40.5750 H   0  0  0  0  0  0  0  0  0  0  0  0
   39.3580   24.4570   42.0290 H   0  0  0  0  0  0  0  0  0  0  0  0
   37.3320   23.1960   41.6650 H   0  0  0  0  0  0  0  0  0  0  0  0
   36.6020   24.2890   39.9650 C   0  0  0  0  0  3  0  0  0  0  0  0
   36.1460   25.0550   38.9470 C   0  0  0  0  0  3  0  0  0  0  0  0
   36.0650   26.4700   38.5670 C   0  0  0  0  0  2  0  0  0  0  0  0
   36.6640   26.6460   37.6580 H   0  0  0  0  0  0  0  0  0  0  0  0
  1  6  1  6  0  0  0
  1  2  1  0  0  0  0
  2  8  1  0  0  0  0
  2  7  1  0  0  0  0
  3 10  1  0  0  0  0
  3  2  1  0  0  0  0
  3  9  1  0  0  0  0
  4 11  1  6  0  0  0
  4 23  1  0  0  0  0
  4  3  1  0  0  0  0
  5 12  1  0  0  0  0
  5  4  1  0  0  0  0
  5  1  1  0  0  0  0
 13  5  1  0  0  0  0
 14 15  1  0  0  0  0
 14 20  1  0  0  0  0
 15 21  1  0  0  0  0
 16  1  1  0  0  0  0
 16 15  2  0  0  0  0
 17 16  1  0  0  0  0
 18 17  2  0  0  0  0
 18 19  1  0  0  0  0
 19 14  2  0  0  0  0
 22 18  1  0  0  0  0
 23 26  1  1  0  0  0
 24 28  1  0  0  0  0
 24 23  1  0  0  0  0
 25 24  1  0  0  0  0
 25 29  1  1  0  0  0
 25 23  1  0  0  0  0
 27 24  1  0  0  0  0
 30 25  1  0  0  0  0
 31 30  2  0  0  0  0
 32 31  1  0  0  0  0
 33 32  1  0  0  0  0
M  END
>  <minimizedAffinity>
-4.86135578

$$$$

 OpenBabel03252507533D

 33 35  0  0  1  0  0  0  0  0999 V2000
   38.3940   28.6030   42.5230 C   0  0  2  0  0  0  0  0  0  0  0  0
   38.0270   27.7070   43.6680 C   0  0  0  0  0  0  0  0  0  0  0  0
   36.7880   27.0370   43.0370 C   0  0  0  0  0  0  0  0  0  0  0  0
   37.1230   26.8990   41.5710 C   0  0  1  0  0  0  0  0  0  0  0  0
   38.4620   27.5460   41.4050 C   0  0  0  0  0  0  0  0  0  0  0  0
   37.5940   29.3280   42.3930 H   0  0  0  0  0  0  0  0  0  0  0  0
   37.7550   28.2720   44.5790 H   0  0  0  0  0  0  0  0  0  0  0  0
   38.8470   26.9830   43.8020 H   0  0  0  0  0  0  0  0  0  0  0  0
   36.6920   26.0610   43.5410 H   0  0  0  0  0  0  0  0  0  0  0  0
   35.9240   27.6890   43.2210 H   0  0  0  0  0  0  0  0  0  0  0  0
   36.3810   27.4570   41.0070 H   0  0  0  0  0  0  0  0  0  0  0  0
   39.3200   26.9930   41.8050 H   0  0  0  0  0  0  0  0  0  0  0  0
   38.6050   28.0360   40.4300 H   0  0  0  0  0  0  0  0  0  0  0  0
   41.1440   31.1810   42.7030 C   0  0  0  0  0  0  0  0  0  0  0  0
   39.8400   30.6600   42.5550 C   0  0  0  0  0  0  0  0  0  0  0  0
   39.7130   29.2590   42.6770 C   0  0  0  0  0  0  0  0  0  0  0  0
   40.8280   28.4730   42.9280 N   0  0  0  0  0  0  0  0  0  0  0  0
   42.0470   29.0520   43.0580 C   0  0  0  0  0  0  0  0  0  0  0  0
   42.2030   30.3840   42.9470 N   0  0  0  0  0  0  0  0  0  0  0  0
   41.1570   32.2680   42.5950 H   0  0  0  0  0  0  0  0  0  0  0  0
   38.9680   31.2420   42.3610 H   0  0  0  0  0  0  0  0  0  0  0  0
   42.9220   28.4510   43.2540 H   0  0  0  0  0  0  0  0  0  0  0  0
   37.2860   25.4960   41.1010 C   0  0  2  0  0  0  0  0  0  0  0  0
   36.6680   24.4170   41.8820 C   0  0  0  0  0  0  0  0  0  0  0  0
   38.1800   24.5130   41.6150 C   0  0  2  0  0  0  0  0  0  0  0  0
   37.0600   25.4580   39.9880 H   0  0  0  0  0  0  0  0  0  0  0  0
   36.5130   24.2430   42.9160 H   0  0  0  0  0  0  0  0  0  0  0  0
   36.1800   23.5850   41.2840 H   0  0  0  0  0  0  0  0  0  0  0  0
   38.5530   23.7250   40.8600 H   0  0  0  0  0  0  0  0  0  0  0  0
   39.1380   24.6150   42.7260 C   0  0  0  0  0  3  0  0  0  0  0  0
   40.4260   24.8360   43.0750 C   0  0  0  0  0  3  0  0  0  0  0  0
   41.7180   25.1300   42.4430 C   0  0  0  0  0  2  0  0  0  0  0  0
   42.0710   26.1240   42.7620 H   0  0  0  0  0  0  0  0  0  0  0  0
  1  6  1  6  0  0  0
  1 16  1  0  0  0  0
  1  2  1  0  0  0  0
  2  8  1  0  0  0  0
  2  7  1  0  0  0  0
  3 10  1  0  0  0  0
  3  9  1  0  0  0  0
  3  2  1  0  0  0  0
  4 11  1  6  0  0  0
  4  3  1  0  0  0  0
  5  4  1  0  0  0  0
  5 12  1  0  0  0  0
  5  1  1  0  0  0  0
 13  5  1  0  0  0  0
 14 19  1  0  0  0  0
 15 16  1  0  0  0  0
 15 14  2  0  0  0  0
 16 17  2  0  0  0  0
 17 18  1  0  0  0  0
 18 22  1  0  0  0  0
 19 18  2  0  0  0  0
 20 14  1  0  0  0  0
 21 15  1  0  0  0  0
 23 26  1  6  0  0  0
 23  4  1  0  0  0  0
 23 25  1  0  0  0  0
 23 24  1  0  0  0  0
 24 27  1  0  0  0  0
 25 29  1  6  0  0  0
 25 24  1  0  0  0  0
 25 30  1  0  0  0  0
 28 24  1  0  0  0  0
 30 31  2  0  0  0  0
 32 33  1  0  0  0  0
 32 31  1  0  0  0  0
M  END
>  <minimizedAffinity>
-4.82426739

$$$$

 OpenBabel03252507533D

 33 35  0  0  1  0  0  0  0  0999 V2000
   37.5250   25.7910   40.9130 C   0  0  2  0  0  0  0  0  0  0  0  0
   37.0830   25.9910   42.3330 C   0  0  0  0  0  0  0  0  0  0  0  0
   37.3730   27.5030   42.4450 C   0  0  0  0  0  0  0  0  0  0  0  0
   37.0450   28.0640   41.0820 C   0  0  1  0  0  0  0  0  0  0  0  0
   36.6710   26.8830   40.2430 C   0  0  0  0  0  0  0  0  0  0  0  0
   38.5940   25.9780   40.8650 H   0  0  0  0  0  0  0  0  0  0  0  0
   37.6930   25.4120   43.0520 H   0  0  0  0  0  0  0  0  0  0  0  0
   36.0010   25.7870   42.3780 H   0  0  0  0  0  0  0  0  0  0  0  0
   36.6920   27.8750   43.2280 H   0  0  0  0  0  0  0  0  0  0  0  0
   38.4290   27.6220   42.7170 H   0  0  0  0  0  0  0  0  0  0  0  0
   37.9490   28.5170   40.6840 H   0  0  0  0  0  0  0  0  0  0  0  0
   35.6950   26.4300   40.4530 H   0  0  0  0  0  0  0  0  0  0  0  0
   36.9490   26.9820   39.1830 H   0  0  0  0  0  0  0  0  0  0  0  0
   37.5960   22.1370   39.9710 C   0  0  0  0  0  0  0  0  0  0  0  0
   38.0180   23.3520   40.5560 C   0  0  0  0  0  0  0  0  0  0  0  0
   37.1710   24.4640   40.3590 C   0  0  0  0  0  0  0  0  0  0  0  0
   36.0000   24.3330   39.6270 N   0  0  0  0  0  0  0  0  0  0  0  0
   35.6650   23.1300   39.0980 C   0  0  0  0  0  0  0  0  0  0  0  0
   36.4500   22.0500   39.2670 N   0  0  0  0  0  0  0  0  0  0  0  0
   38.3030   21.3290   40.1690 H   0  0  0  0  0  0  0  0  0  0  0  0
   38.9130   23.4790   41.1220 H   0  0  0  0  0  0  0  0  0  0  0  0
   34.7570   23.0150   38.5270 H   0  0  0  0  0  0  0  0  0  0  0  0
   35.8680   28.9760   41.0530 C   0  0  2  0  0  0  0  0  0  0  0  0
   34.9900   28.9520   39.8760 C   0  0  0  0  0  0  0  0  0  0  0  0
   35.7470   30.2060   40.3470 C   0  0  2  0  0  0  0  0  0  0  0  0
   35.3220   28.8940   42.0470 H   0  0  0  0  0  0  0  0  0  0  0  0
   35.1470   28.8270   38.8360 H   0  0  0  0  0  0  0  0  0  0  0  0
   33.8770   29.0230   40.0830 H   0  0  0  0  0  0  0  0  0  0  0  0
   35.0550   30.9960   40.8220 H   0  0  0  0  0  0  0  0  0  0  0  0
   36.7190   30.8750   39.4680 C   0  0  0  0  0  3  0  0  0  0  0  0
   37.2890   32.0520   39.1220 C   0  0  0  0  0  3  0  0  0  0  0  0
   37.2270   33.4710   39.4900 C   0  0  0  0  0  2  0  0  0  0  0  0
   38.1980   33.7910   39.9040 H   0  0  0  0  0  0  0  0  0  0  0  0
  1  6  1  6  0  0  0
  1  2  1  0  0  0  0
  2  8  1  0  0  0  0
  2  3  1  0  0  0  0
  2  7  1  0  0  0  0
  3 10  1  0  0  0  0
  3  9  1  0  0  0  0
  4 11  1  6  0  0  0
  4  3  1  0  0  0  0
  5 12  1  0  0  0  0
  5  1  1  0  0  0  0
  5  4  1  0  0  0  0
 13  5  1  0  0  0  0
 14 20  1  0  0  0  0
 14 15  1  0  0  0  0
 15 21  1  0  0  0  0
 16 15  2  0  0  0  0
 16  1  1  0  0  0  0
 17 16  1  0  0  0  0
 18 19  1  0  0  0  0
 18 17  2  0  0  0  0
 19 14  2  0  0  0  0
 22 18  1  0  0  0  0
 23  4  1  0  0  0  0
 23 26  1  1  0  0  0
 24 28  1  0  0  0  0
 24 25  1  0  0  0  0
 24 23  1  0  0  0  0
 25 29  1  1  0  0  0
 25 23  1  0  0  0  0
 27 24  1  0  0  0  0
 30 25  1  0  0  0  0
 31 30  2  0  0  0  0
 31 32  1  0  0  0  0
 32 33  1  0  0  0  0
M  END
>  <minimizedAffinity>
-4.80208206

$$$$

 OpenBabel03252507533D

 33 35  0  0  1  0  0  0  0  0999 V2000
   37.2110   28.6470   41.3880 C   0  0  2  0  0  0  0  0  0  0  0  0
   37.4420   29.5530   42.5600 C   0  0  0  0  0  0  0  0  0  0  0  0
   37.3950   28.4880   43.6770 C   0  0  0  0  0  0  0  0  0  0  0  0
   38.0300   27.2600   43.0710 C   0  0  1  0  0  0  0  0  0  0  0  0
   38.3340   27.6260   41.6520 C   0  0  0  0  0  0  0  0  0  0  0  0
   36.2110   28.2310   41.4760 H   0  0  0  0  0  0  0  0  0  0  0  0
   36.6350   30.2990   42.6850 H   0  0  0  0  0  0  0  0  0  0  0  0
   38.4530   29.9810   42.4590 H   0  0  0  0  0  0  0  0  0  0  0  0
   37.9910   28.9050   44.5060 H   0  0  0  0  0  0  0  0  0  0  0  0
   36.3430   28.3380   43.9520 H   0  0  0  0  0  0  0  0  0  0  0  0
   37.2930   26.4620   43.0870 H   0  0  0  0  0  0  0  0  0  0  0  0
   39.1720   28.3150   41.4990 H   0  0  0  0  0  0  0  0  0  0  0  0
   38.2530   26.7860   40.9460 H   0  0  0  0  0  0  0  0  0  0  0  0
   37.0730   31.0710   38.4990 C   0  0  0  0  0  0  0  0  0  0  0  0
   36.8190   30.5420   39.7840 C   0  0  0  0  0  0  0  0  0  0  0  0
   37.4240   29.3010   40.0760 C   0  0  0  0  0  0  0  0  0  0  0  0
   38.2150   28.6660   39.1300 N   0  0  0  0  0  0  0  0  0  0  0  0
   38.4110   29.2410   37.9180 C   0  0  0  0  0  0  0  0  0  0  0  0
   37.8480   30.4230   37.6070 N   0  0  0  0  0  0  0  0  0  0  0  0
   36.5710   32.0290   38.3520 H   0  0  0  0  0  0  0  0  0  0  0  0
   36.2150   31.0090   40.5280 H   0  0  0  0  0  0  0  0  0  0  0  0
   39.0240   28.7570   37.1730 H   0  0  0  0  0  0  0  0  0  0  0  0
   39.3320   26.8700   43.6800 C   0  0  2  0  0  0  0  0  0  0  0  0
   40.5330   26.8770   42.8350 C   0  0  0  0  0  0  0  0  0  0  0  0
   40.0050   25.6220   43.5510 C   0  0  2  0  0  0  0  0  0  0  0  0
   39.4500   27.4220   44.6660 H   0  0  0  0  0  0  0  0  0  0  0  0
   40.7290   26.6360   41.8220 H   0  0  0  0  0  0  0  0  0  0  0  0
   41.4790   27.2770   43.3160 H   0  0  0  0  0  0  0  0  0  0  0  0
   40.6610   25.3060   44.4450 H   0  0  0  0  0  0  0  0  0  0  0  0
   39.6120   24.4270   42.7890 C   0  0  0  0  0  3  0  0  0  0  0  0
   38.6400   23.8370   42.0550 C   0  0  0  0  0  3  0  0  0  0  0  0
   37.2830   24.1180   41.5710 C   0  0  0  0  0  2  0  0  0  0  0  0
   37.2830   24.1570   40.4690 H   0  0  0  0  0  0  0  0  0  0  0  0
  1  6  1  1  0  0  0
  1  5  1  0  0  0  0
  1  2  1  0  0  0  0
  2  7  1  0  0  0  0
  2  3  1  0  0  0  0
  3 10  1  0  0  0  0
  3  9  1  0  0  0  0
  4 11  1  1  0  0  0
  4  3  1  0  0  0  0
  4 23  1  0  0  0  0
  5  4  1  0  0  0  0
  8  2  1  0  0  0  0
 12  5  1  0  0  0  0
 13  5  1  0  0  0  0
 14 15  1  0  0  0  0
 15 16  2  0  0  0  0
 15 21  1  0  0  0  0
 16  1  1  0  0  0  0
 17 16  1  0  0  0  0
 18 17  2  0  0  0  0
 19 18  1  0  0  0  0
 19 14  2  0  0  0  0
 20 14  1  0  0  0  0
 22 18  1  0  0  0  0
 23 26  1  1  0  0  0
 24 28  1  0  0  0  0
 24 25  1  0  0  0  0
 24 23  1  0  0  0  0
 25 23  1  0  0  0  0
 25 29  1  1  0  0  0
 27 24  1  0  0  0  0
 30 25  1  0  0  0  0
 31 30  2  0  0  0  0
 32 31  1  0  0  0  0
 33 32  1  0  0  0  0
M  END
>  <minimizedAffinity>
-4.79458904

$$$$
