
 OpenBabel03242511423D

 29 30  0  0  0  0  0  0  0  0999 V2000
   46.8290   32.7790   46.1470 C   0  0  0  0  0  0  0  0  0  0  0  0
   46.9600   33.8110   46.4920 H   0  0  0  0  0  0  0  0  0  0  0  0
   47.8550   32.3430   45.9620 H   0  0  0  0  0  0  0  0  0  0  0  0
   46.2500   31.9870   47.2280 C   0  0  0  0  0  0  0  0  0  0  0  0
   45.4310   32.3820   48.2740 C   0  0  0  0  0  0  0  0  0  0  0  0
   44.8960   31.5410   49.2150 C   0  0  0  0  0  0  0  0  0  0  0  0
   45.1970   30.2120   49.1090 C   0  0  0  0  0  0  0  0  0  0  0  0
   46.0180   29.7900   48.0710 C   0  0  0  0  0  0  0  0  0  0  0  0
   46.5480   30.6730   47.1320 C   0  0  0  0  0  0  0  0  0  0  0  0
   45.2580   33.4570   48.2580 H   0  0  0  0  0  0  0  0  0  0  0  0
   44.2890   32.0610   49.9410 H   0  0  0  0  0  0  0  0  0  0  0  0
   44.7080   29.6480   49.9170 H   0  0  0  0  0  0  0  0  0  0  0  0
   46.0880   28.7090   48.2280 H   0  0  0  0  0  0  0  0  0  0  0  0
   47.4400   29.8240   46.3570 C   0  0  0  0  0  0  0  0  0  0  0  0
   48.7100   29.5040   46.4650 C   0  0  0  0  0  0  0  0  0  0  0  0
   49.5780   28.6540   45.6780 C   0  0  0  0  0  0  0  0  0  0  0  0
   48.9720   28.2170   44.8350 H   0  0  0  0  0  0  0  0  0  0  0  0
   46.0910   32.6430   44.8590 C   0  0  0  0  0  0  0  0  0  0  0  0
   45.1070   32.1750   45.0450 H   0  0  0  0  0  0  0  0  0  0  0  0
   46.6970   32.2240   44.0370 H   0  0  0  0  0  0  0  0  0  0  0  0
   44.5490   36.0040   44.7760 C   0  0  0  0  0  0  0  0  0  0  0  0
   44.9590   36.4860   43.5070 C   0  0  0  0  0  0  0  0  0  0  0  0
   45.7510   35.6460   42.7500 C   0  0  0  0  0  0  0  0  0  0  0  0
   46.0880   34.4470   43.2320 N   0  0  0  0  0  0  0  0  0  0  0  0
   45.6660   34.0350   44.4570 C   0  0  0  0  0  0  0  0  0  0  0  0
   44.9120   34.7910   45.2210 N   0  0  0  0  0  0  0  0  0  0  0  0
   43.9190   36.7050   45.3460 H   0  0  0  0  0  0  0  0  0  0  0  0
   44.6600   37.4720   43.1540 H   0  0  0  0  0  0  0  0  0  0  0  0
   46.1030   35.9490   41.7690 H   0  0  0  0  0  0  0  0  0  0  0  0
  1  2  1  0  0  0  0
  1  4  1  0  0  0  0
  3  1  1  0  0  0  0
  4  5  1  0  0  0  0
  5  6  2  0  0  0  0
  6 11  1  0  0  0  0
  7  6  1  0  0  0  0
  7 12  1  0  0  0  0
  8 13  1  0  0  0  0
  8  7  2  0  0  0  0
  9  4  2  0  0  0  0
  9  8  1  0  0  0  0
 10  5  1  0  0  0  0
 14 15  2  0  0  0  0
 14  9  1  0  0  0  0
 16 15  1  0  0  0  0
 17 16  1  0  0  0  0
 18 19  1  0  0  0  0
 18  1  1  0  0  0  0
 20 18  1  0  0  0  0
 21 26  1  0  0  0  0
 21 27  1  0  0  0  0
 22 21  2  0  0  0  0
 23 24  2  0  0  0  0
 23 22  1  0  0  0  0
 24 25  1  0  0  0  0
 25 18  1  0  0  0  0
 25 26  2  0  0  0  0
 28 22  1  0  0  0  0
 29 23  1  0  0  0  0
M  END
>  <minimizedAffinity>
-4.69737339

>  <minimizedRMSD>
1.29161918

$$$$
