
 OpenBabel03242520113D

 24 25  0  0  0  0  0  0  0  0999 V2000
   39.7270   30.2370   41.9730 C   0  0  0  0  0  0  0  0  0  0  0  0
   40.9160   29.5940   42.1230 C   0  0  0  0  0  0  0  0  0  0  0  0
   40.9380   28.3930   42.8060 C   0  0  0  0  0  0  0  0  0  0  0  0
   39.7680   27.8590   43.3270 C   0  0  0  0  0  0  0  0  0  0  0  0
   38.5680   28.5560   43.1490 C   0  0  0  0  0  0  0  0  0  0  0  0
   38.5920   29.6910   42.4950 N   0  0  0  0  0  0  0  0  0  0  0  0
   41.8160   30.0100   41.7180 H   0  0  0  0  0  0  0  0  0  0  0  0
   41.8770   27.8670   42.9330 H   0  0  0  0  0  0  0  0  0  0  0  0
   39.7840   26.9250   43.8590 H   0  0  0  0  0  0  0  0  0  0  0  0
   38.2290   33.0970   40.2610 C   0  0  0  0  0  0  0  0  0  0  0  0
   39.3710   33.8790   39.9660 C   0  0  0  0  0  0  0  0  0  0  0  0
   40.6520   33.4210   40.3550 C   0  0  0  0  0  0  0  0  0  0  0  0
   40.6640   32.2400   40.9940 N   0  0  0  0  0  0  0  0  0  0  0  0
   39.5870   31.5120   41.2680 C   0  0  0  0  0  0  0  0  0  0  0  0
   38.3790   31.9450   40.8990 N   0  0  0  0  0  0  0  0  0  0  0  0
   36.9610   33.5880   39.8540 N   0  0  0  0  0  0  0  0  0  0  0  0
   39.2580   34.8130   39.4480 H   0  0  0  0  0  0  0  0  0  0  0  0
   41.5370   34.0050   40.1380 H   0  0  0  0  0  0  0  0  0  0  0  0
   36.1040   33.1000   40.2190 H   0  0  0  0  0  0  0  0  0  0  0  0
   36.8830   34.4030   39.2180 H   0  0  0  0  0  0  0  0  0  0  0  0
   37.3140   28.0330   43.6790 C   0  0  0  0  0  3  0  0  0  0  0  0
   36.5820   27.1260   43.0540 C   0  0  0  0  0  3  0  0  0  0  0  0
   36.9850   26.5590   41.7440 C   0  0  0  0  0  2  0  0  0  0  0  0
   37.0800   27.2980   40.9350 H   0  0  0  0  0  0  0  0  0  0  0  0
  1  2  2  0  0  0  0
  1  6  1  0  0  0  0
  2  3  1  0  0  0  0
  3  8  1  0  0  0  0
  3  4  2  0  0  0  0
  4  9  1  0  0  0  0
  5  4  1  0  0  0  0
  5 21  1  0  0  0  0
  6  5  2  0  0  0  0
  7  2  1  0  0  0  0
 10 15  1  0  0  0  0
 11 10  2  0  0  0  0
 11 12  1  0  0  0  0
 12 13  2  0  0  0  0
 13 14  1  0  0  0  0
 14  1  1  0  0  0  0
 15 14  2  0  0  0  0
 16 19  1  0  0  0  0
 16 10  1  0  0  0  0
 17 11  1  0  0  0  0
 18 12  1  0  0  0  0
 20 16  1  0  0  0  0
 22 21  2  0  0  0  0
 23 22  1  0  0  0  0
 24 23  1  0  0  0  0
M  END
>  <minimizedAffinity>
-5.27181387

$$$$

 OpenBabel03242520113D

 24 25  0  0  0  0  0  0  0  0999 V2000
   37.4310   28.9480   41.4400 C   0  0  0  0  0  0  0  0  0  0  0  0
   37.6850   29.2710   42.7360 C   0  0  0  0  0  0  0  0  0  0  0  0
   37.7010   28.2620   43.6800 C   0  0  0  0  0  0  0  0  0  0  0  0
   37.4640   26.9470   43.3060 C   0  0  0  0  0  0  0  0  0  0  0  0
   37.2070   26.6610   41.9610 C   0  0  0  0  0  0  0  0  0  0  0  0
   37.2000   27.6490   41.0990 N   0  0  0  0  0  0  0  0  0  0  0  0
   37.8680   30.2890   43.0180 H   0  0  0  0  0  0  0  0  0  0  0  0
   37.9030   28.5030   44.7160 H   0  0  0  0  0  0  0  0  0  0  0  0
   37.4770   26.1610   44.0390 H   0  0  0  0  0  0  0  0  0  0  0  0
   37.1560   32.1350   39.6730 C   0  0  0  0  0  0  0  0  0  0  0  0
   37.3250   31.7280   38.3280 C   0  0  0  0  0  0  0  0  0  0  0  0
   37.5320   30.3600   38.0320 C   0  0  0  0  0  0  0  0  0  0  0  0
   37.5490   29.5440   39.0990 N   0  0  0  0  0  0  0  0  0  0  0  0
   37.3900   29.9350   40.3590 C   0  0  0  0  0  0  0  0  0  0  0  0
   37.1950   31.2260   40.6360 N   0  0  0  0  0  0  0  0  0  0  0  0
   36.9500   33.5160   39.9300 N   0  0  0  0  0  0  0  0  0  0  0  0
   37.2940   32.4590   37.5410 H   0  0  0  0  0  0  0  0  0  0  0  0
   37.6620   30.0290   37.0100 H   0  0  0  0  0  0  0  0  0  0  0  0
   36.9950   33.8420   40.9280 H   0  0  0  0  0  0  0  0  0  0  0  0
   36.7600   34.1810   39.1580 H   0  0  0  0  0  0  0  0  0  0  0  0
   36.9510   25.2940   41.5220 C   0  0  0  0  0  3  0  0  0  0  0  0
   37.9110   24.4290   41.2400 C   0  0  0  0  0  3  0  0  0  0  0  0
   39.3470   24.7860   41.3500 C   0  0  0  0  0  2  0  0  0  0  0  0
   39.6620   25.6180   40.7040 H   0  0  0  0  0  0  0  0  0  0  0  0
  1  2  1  0  0  0  0
  2  7  1  0  0  0  0
  2  3  2  0  0  0  0
  3  8  1  0  0  0  0
  4  3  1  0  0  0  0
  4  9  1  0  0  0  0
  5  4  2  0  0  0  0
  6  1  2  0  0  0  0
  6  5  1  0  0  0  0
 10 16  1  0  0  0  0
 10 15  1  0  0  0  0
 11 10  2  0  0  0  0
 12 11  1  0  0  0  0
 12 13  2  0  0  0  0
 13 14  1  0  0  0  0
 14 15  2  0  0  0  0
 14  1  1  0  0  0  0
 16 19  1  0  0  0  0
 17 11  1  0  0  0  0
 18 12  1  0  0  0  0
 20 16  1  0  0  0  0
 21  5  1  0  0  0  0
 22 23  1  0  0  0  0
 22 21  2  0  0  0  0
 24 23  1  0  0  0  0
M  END
>  <minimizedAffinity>
-5.12988091

$$$$

 OpenBabel03242520113D

 24 25  0  0  0  0  0  0  0  0999 V2000
   37.7670   30.3300   40.5190 C   0  0  0  0  0  0  0  0  0  0  0  0
   36.6410   29.9440   39.8610 C   0  0  0  0  0  0  0  0  0  0  0  0
   35.8450   28.9670   40.4280 C   0  0  0  0  0  0  0  0  0  0  0  0
   36.1910   28.3950   41.6430 C   0  0  0  0  0  0  0  0  0  0  0  0
   37.3590   28.8230   42.2840 C   0  0  0  0  0  0  0  0  0  0  0  0
   38.0860   29.7510   41.7110 N   0  0  0  0  0  0  0  0  0  0  0  0
   36.3780   30.3890   38.9230 H   0  0  0  0  0  0  0  0  0  0  0  0
   34.9440   28.6500   39.9170 H   0  0  0  0  0  0  0  0  0  0  0  0
   35.5730   27.6350   42.0850 H   0  0  0  0  0  0  0  0  0  0  0  0
   39.8280   32.3070   38.2390 C   0  0  0  0  0  0  0  0  0  0  0  0
   40.3770   33.2700   39.1180 C   0  0  0  0  0  0  0  0  0  0  0  0
   40.0380   33.2370   40.4910 C   0  0  0  0  0  0  0  0  0  0  0  0
   39.1930   32.2550   40.8450 N   0  0  0  0  0  0  0  0  0  0  0  0
   38.6820   31.3540   40.0130 C   0  0  0  0  0  0  0  0  0  0  0  0
   39.0030   31.3870   38.7170 N   0  0  0  0  0  0  0  0  0  0  0  0
   40.1920   32.3710   36.8680 N   0  0  0  0  0  0  0  0  0  0  0  0
   41.0470   34.0190   38.7380 H   0  0  0  0  0  0  0  0  0  0  0  0
   40.4480   33.9650   41.1790 H   0  0  0  0  0  0  0  0  0  0  0  0
   39.6580   31.7720   36.1890 H   0  0  0  0  0  0  0  0  0  0  0  0
   40.9590   32.9900   36.5480 H   0  0  0  0  0  0  0  0  0  0  0  0
   37.7630   28.2500   43.5620 C   0  0  0  0  0  3  0  0  0  0  0  0
   38.6120   27.2420   43.6720 C   0  0  0  0  0  3  0  0  0  0  0  0
   39.2310   26.6040   42.4840 C   0  0  0  0  0  2  0  0  0  0  0  0
   38.5140   26.1570   41.7800 H   0  0  0  0  0  0  0  0  0  0  0  0
  1  6  1  0  0  0  0
  2  3  1  0  0  0  0
  2  1  2  0  0  0  0
  3  4  2  0  0  0  0
  4  9  1  0  0  0  0
  4  5  1  0  0  0  0
  5 21  1  0  0  0  0
  6  5  2  0  0  0  0
  7  2  1  0  0  0  0
  8  3  1  0  0  0  0
 10 15  2  0  0  0  0
 10 11  1  0  0  0  0
 11 12  2  0  0  0  0
 12 13  1  0  0  0  0
 12 18  1  0  0  0  0
 14  1  1  0  0  0  0
 14 13  2  0  0  0  0
 15 14  1  0  0  0  0
 16 10  1  0  0  0  0
 17 11  1  0  0  0  0
 19 16  1  0  0  0  0
 20 16  1  0  0  0  0
 21 22  2  0  0  0  0
 23 22  1  0  0  0  0
 24 23  1  0  0  0  0
M  END
>  <minimizedAffinity>
-5.04708815

$$$$

 OpenBabel03242520113D

 24 25  0  0  0  0  0  0  0  0999 V2000
   38.0530   29.3760   41.9530 C   0  0  0  0  0  0  0  0  0  0  0  0
   36.7850   28.8940   41.8730 C   0  0  0  0  0  0  0  0  0  0  0  0
   36.5150   27.6460   42.4000 C   0  0  0  0  0  0  0  0  0  0  0  0
   37.5220   26.9040   42.9990 C   0  0  0  0  0  0  0  0  0  0  0  0
   38.8130   27.4390   43.0600 C   0  0  0  0  0  0  0  0  0  0  0  0
   39.0250   28.6260   42.5460 N   0  0  0  0  0  0  0  0  0  0  0  0
   36.0100   29.4720   41.4090 H   0  0  0  0  0  0  0  0  0  0  0  0
   35.5090   27.2480   42.3450 H   0  0  0  0  0  0  0  0  0  0  0  0
   37.3140   25.9330   43.4110 H   0  0  0  0  0  0  0  0  0  0  0  0
   37.8810   32.6760   40.3930 C   0  0  0  0  0  0  0  0  0  0  0  0
   39.2300   33.0980   40.4750 C   0  0  0  0  0  0  0  0  0  0  0  0
   40.1940   32.2480   41.0660 C   0  0  0  0  0  0  0  0  0  0  0  0
   39.7190   31.0720   41.5100 N   0  0  0  0  0  0  0  0  0  0  0  0
   38.4510   30.6840   41.4290 C   0  0  0  0  0  0  0  0  0  0  0  0
   37.5430   31.4880   40.8710 N   0  0  0  0  0  0  0  0  0  0  0  0
   36.9430   33.5570   39.7930 N   0  0  0  0  0  0  0  0  0  0  0  0
   39.5120   34.0600   40.0890 H   0  0  0  0  0  0  0  0  0  0  0  0
   41.2290   32.5520   41.1380 H   0  0  0  0  0  0  0  0  0  0  0  0
   35.9220   33.3230   39.8840 H   0  0  0  0  0  0  0  0  0  0  0  0
   37.2550   34.4020   39.2830 H   0  0  0  0  0  0  0  0  0  0  0  0
   39.9030   26.6960   43.6800 C   0  0  0  0  0  3  0  0  0  0  0  0
   40.6520   25.8230   43.0270 C   0  0  0  0  0  3  0  0  0  0  0  0
   40.4390   25.5270   41.5890 C   0  0  0  0  0  2  0  0  0  0  0  0
   39.4460   25.1240   41.3470 H   0  0  0  0  0  0  0  0  0  0  0  0
  1  6  1  0  0  0  0
  2  1  2  0  0  0  0
  2  3  1  0  0  0  0
  3  4  2  0  0  0  0
  4  5  1  0  0  0  0
  4  9  1  0  0  0  0
  5 21  1  0  0  0  0
  6  5  2  0  0  0  0
  7  2  1  0  0  0  0
  8  3  1  0  0  0  0
 10 11  2  0  0  0  0
 10 15  1  0  0  0  0
 11 12  1  0  0  0  0
 12 18  1  0  0  0  0
 12 13  2  0  0  0  0
 14 13  1  0  0  0  0
 14  1  1  0  0  0  0
 15 14  2  0  0  0  0
 16 19  1  0  0  0  0
 16 10  1  0  0  0  0
 17 11  1  0  0  0  0
 20 16  1  0  0  0  0
 22 21  2  0  0  0  0
 23 22  1  0  0  0  0
 24 23  1  0  0  0  0
M  END
>  <minimizedAffinity>
-5.01665545

$$$$

 OpenBabel03242520113D

 24 25  0  0  0  0  0  0  0  0999 V2000
   37.8780   28.9970   41.9190 C   0  0  0  0  0  0  0  0  0  0  0  0
   37.2380   28.7540   43.0930 C   0  0  0  0  0  0  0  0  0  0  0  0
   36.8680   27.4570   43.3910 C   0  0  0  0  0  0  0  0  0  0  0  0
   37.1470   26.4260   42.5060 C   0  0  0  0  0  0  0  0  0  0  0  0
   37.8080   26.7220   41.3090 C   0  0  0  0  0  0  0  0  0  0  0  0
   38.1390   27.9660   41.0650 N   0  0  0  0  0  0  0  0  0  0  0  0
   37.0240   29.5540   43.7740 H   0  0  0  0  0  0  0  0  0  0  0  0
   36.3580   27.2470   44.3230 H   0  0  0  0  0  0  0  0  0  0  0  0
   36.8610   25.4160   42.7360 H   0  0  0  0  0  0  0  0  0  0  0  0
   37.8240   32.3860   40.5530 C   0  0  0  0  0  0  0  0  0  0  0  0
   39.1660   32.7900   40.7490 C   0  0  0  0  0  0  0  0  0  0  0  0
   40.0850   31.8970   41.3480 C   0  0  0  0  0  0  0  0  0  0  0  0
   39.5770   30.7020   41.6890 N   0  0  0  0  0  0  0  0  0  0  0  0
   38.3150   30.3300   41.5020 C   0  0  0  0  0  0  0  0  0  0  0  0
   37.4490   31.1750   40.9360 N   0  0  0  0  0  0  0  0  0  0  0  0
   36.9310   33.3100   39.9490 N   0  0  0  0  0  0  0  0  0  0  0  0
   39.4780   33.7710   40.4400 H   0  0  0  0  0  0  0  0  0  0  0  0
   41.1160   32.1880   41.5040 H   0  0  0  0  0  0  0  0  0  0  0  0
   35.9050   33.0800   39.9590 H   0  0  0  0  0  0  0  0  0  0  0  0
   37.2800   34.1820   39.5120 H   0  0  0  0  0  0  0  0  0  0  0  0
   38.1220   25.6710   40.3480 C   0  0  0  0  0  3  0  0  0  0  0  0
   37.4030   25.4390   39.2620 C   0  0  0  0  0  3  0  0  0  0  0  0
   36.2010   26.2430   38.9300 C   0  0  0  0  0  2  0  0  0  0  0  0
   35.4020   26.2040   39.6840 H   0  0  0  0  0  0  0  0  0  0  0  0
  1  2  1  0  0  0  0
  2  3  2  0  0  0  0
  2  7  1  0  0  0  0
  3  8  1  0  0  0  0
  4  9  1  0  0  0  0
  4  3  1  0  0  0  0
  5  4  2  0  0  0  0
  6  5  1  0  0  0  0
  6  1  2  0  0  0  0
 10 11  2  0  0  0  0
 10 15  1  0  0  0  0
 11 12  1  0  0  0  0
 12 18  1  0  0  0  0
 12 13  2  0  0  0  0
 14 13  1  0  0  0  0
 14  1  1  0  0  0  0
 15 14  2  0  0  0  0
 16 19  1  0  0  0  0
 16 10  1  0  0  0  0
 17 11  1  0  0  0  0
 20 16  1  0  0  0  0
 21  5  1  0  0  0  0
 22 21  2  0  0  0  0
 23 22  1  0  0  0  0
 23 24  1  0  0  0  0
M  END
>  <minimizedAffinity>
-4.83051538

$$$$

 OpenBabel03242520113D

 24 25  0  0  0  0  0  0  0  0999 V2000
   38.9120   31.4780   39.0320 C   0  0  0  0  0  0  0  0  0  0  0  0
   38.1050   32.5570   39.2150 C   0  0  0  0  0  0  0  0  0  0  0  0
   36.9590   32.4070   39.9720 C   0  0  0  0  0  0  0  0  0  0  0  0
   36.6430   31.1780   40.5330 C   0  0  0  0  0  0  0  0  0  0  0  0
   37.5030   30.0950   40.3180 C   0  0  0  0  0  0  0  0  0  0  0  0
   38.5780   30.2810   39.5920 N   0  0  0  0  0  0  0  0  0  0  0  0
   38.3540   33.5040   38.7800 H   0  0  0  0  0  0  0  0  0  0  0  0
   36.3070   33.2570   40.1280 H   0  0  0  0  0  0  0  0  0  0  0  0
   35.7520   31.0600   41.1220 H   0  0  0  0  0  0  0  0  0  0  0  0
   41.8090   32.7600   37.2110 C   0  0  0  0  0  0  0  0  0  0  0  0
   42.4410   31.5600   36.8050 C   0  0  0  0  0  0  0  0  0  0  0  0
   41.8690   30.3150   37.1570 C   0  0  0  0  0  0  0  0  0  0  0  0
   40.7350   30.3910   37.8720 N   0  0  0  0  0  0  0  0  0  0  0  0
   40.1490   31.5220   38.2500 C   0  0  0  0  0  0  0  0  0  0  0  0
   40.6900   32.6970   37.9160 N   0  0  0  0  0  0  0  0  0  0  0  0
   42.4120   33.9890   36.8380 N   0  0  0  0  0  0  0  0  0  0  0  0
   43.3490   31.6020   36.2320 H   0  0  0  0  0  0  0  0  0  0  0  0
   42.3370   29.3870   36.8550 H   0  0  0  0  0  0  0  0  0  0  0  0
   42.0450   34.8700   37.2790 H   0  0  0  0  0  0  0  0  0  0  0  0
   43.1900   34.0170   36.1530 H   0  0  0  0  0  0  0  0  0  0  0  0
   37.2110   28.7840   40.8870 C   0  0  0  0  0  3  0  0  0  0  0  0
   37.5730   28.4240   42.1060 C   0  0  0  0  0  3  0  0  0  0  0  0
   38.3170   29.3380   43.0070 C   0  0  0  0  0  2  0  0  0  0  0  0
   39.2930   29.6660   42.6220 H   0  0  0  0  0  0  0  0  0  0  0  0
  1  2  2  0  0  0  0
  1  6  1  0  0  0  0
  2  3  1  0  0  0  0
  3  8  1  0  0  0  0
  3  4  2  0  0  0  0
  4  9  1  0  0  0  0
  5  4  1  0  0  0  0
  5 21  1  0  0  0  0
  6  5  2  0  0  0  0
  7  2  1  0  0  0  0
 10 15  1  0  0  0  0
 11 12  1  0  0  0  0
 11 10  2  0  0  0  0
 12 13  2  0  0  0  0
 13 14  1  0  0  0  0
 14  1  1  0  0  0  0
 15 14  2  0  0  0  0
 16 10  1  0  0  0  0
 16 19  1  0  0  0  0
 17 11  1  0  0  0  0
 18 12  1  0  0  0  0
 20 16  1  0  0  0  0
 21 22  2  0  0  0  0
 22 23  1  0  0  0  0
 24 23  1  0  0  0  0
M  END
>  <minimizedAffinity>
-4.77084637

$$$$

 OpenBabel03242520113D

 24 25  0  0  0  0  0  0  0  0999 V2000
   37.6150   28.3610   41.7820 C   0  0  0  0  0  0  0  0  0  0  0  0
   38.1330   29.6040   41.9690 C   0  0  0  0  0  0  0  0  0  0  0  0
   37.4440   30.6920   41.4680 C   0  0  0  0  0  0  0  0  0  0  0  0
   36.2480   30.5140   40.7890 C   0  0  0  0  0  0  0  0  0  0  0  0
   35.7520   29.2170   40.6200 C   0  0  0  0  0  0  0  0  0  0  0  0
   36.4370   28.2140   41.1100 N   0  0  0  0  0  0  0  0  0  0  0  0
   39.0580   29.7360   42.4940 H   0  0  0  0  0  0  0  0  0  0  0  0
   37.8430   31.6890   41.6100 H   0  0  0  0  0  0  0  0  0  0  0  0
   35.7100   31.3600   40.3990 H   0  0  0  0  0  0  0  0  0  0  0  0
   38.4350   24.8300   42.2430 C   0  0  0  0  0  0  0  0  0  0  0  0
   39.4770   24.9050   43.1970 C   0  0  0  0  0  0  0  0  0  0  0  0
   39.8940   26.1670   43.6790 C   0  0  0  0  0  0  0  0  0  0  0  0
   39.2350   27.2190   43.1660 N   0  0  0  0  0  0  0  0  0  0  0  0
   38.2580   27.1400   42.2690 C   0  0  0  0  0  0  0  0  0  0  0  0
   37.8650   25.9470   41.8150 N   0  0  0  0  0  0  0  0  0  0  0  0
   38.0430   23.5450   41.7820 N   0  0  0  0  0  0  0  0  0  0  0  0
   39.9430   24.0030   43.5490 H   0  0  0  0  0  0  0  0  0  0  0  0
   40.6890   26.2440   44.4100 H   0  0  0  0  0  0  0  0  0  0  0  0
   37.3950   23.4960   40.9560 H   0  0  0  0  0  0  0  0  0  0  0  0
   38.3850   22.6850   42.2470 H   0  0  0  0  0  0  0  0  0  0  0  0
   34.4980   28.9820   39.9120 C   0  0  0  0  0  3  0  0  0  0  0  0
   34.4010   28.9580   38.5940 C   0  0  0  0  0  3  0  0  0  0  0  0
   35.5770   29.1720   37.7150 C   0  0  0  0  0  2  0  0  0  0  0  0
   36.0690   30.1470   37.8390 H   0  0  0  0  0  0  0  0  0  0  0  0
  1  2  1  0  0  0  0
  1 14  1  0  0  0  0
  2  7  1  0  0  0  0
  3  8  1  0  0  0  0
  3  2  2  0  0  0  0
  4  3  1  0  0  0  0
  5  4  2  0  0  0  0
  5  6  1  0  0  0  0
  6  1  2  0  0  0  0
  9  4  1  0  0  0  0
 10 11  1  0  0  0  0
 11 17  1  0  0  0  0
 11 12  2  0  0  0  0
 12 18  1  0  0  0  0
 13 12  1  0  0  0  0
 14 13  2  0  0  0  0
 15 10  2  0  0  0  0
 15 14  1  0  0  0  0
 16 10  1  0  0  0  0
 16 20  1  0  0  0  0
 19 16  1  0  0  0  0
 21  5  1  0  0  0  0
 22 21  2  0  0  0  0
 23 24  1  0  0  0  0
 23 22  1  0  0  0  0
M  END
>  <minimizedAffinity>
-4.76652241

$$$$

 OpenBabel03242520113D

 24 25  0  0  0  0  0  0  0  0999 V2000
   37.8630   28.9020   41.2610 C   0  0  0  0  0  0  0  0  0  0  0  0
   37.5090   29.4470   42.4550 C   0  0  0  0  0  0  0  0  0  0  0  0
   37.6830   28.6980   43.6040 C   0  0  0  0  0  0  0  0  0  0  0  0
   38.2090   27.4160   43.5340 C   0  0  0  0  0  0  0  0  0  0  0  0
   38.5590   26.8960   42.2830 C   0  0  0  0  0  0  0  0  0  0  0  0
   38.3770   27.6390   41.2200 N   0  0  0  0  0  0  0  0  0  0  0  0
   37.1040   30.4380   42.5040 H   0  0  0  0  0  0  0  0  0  0  0  0
   37.4070   29.1190   44.5630 H   0  0  0  0  0  0  0  0  0  0  0  0
   38.3450   26.8320   44.4260 H   0  0  0  0  0  0  0  0  0  0  0  0
   37.9880   29.6320   37.6820 C   0  0  0  0  0  0  0  0  0  0  0  0
   37.4470   30.9380   37.6420 C   0  0  0  0  0  0  0  0  0  0  0  0
   37.0410   31.5650   38.8440 C   0  0  0  0  0  0  0  0  0  0  0  0
   37.2150   30.8310   39.9550 N   0  0  0  0  0  0  0  0  0  0  0  0
   37.7240   29.6040   39.9840 C   0  0  0  0  0  0  0  0  0  0  0  0
   38.1070   29.0140   38.8490 N   0  0  0  0  0  0  0  0  0  0  0  0
   38.3850   29.0360   36.4570 N   0  0  0  0  0  0  0  0  0  0  0  0
   37.3480   31.4460   36.7000 H   0  0  0  0  0  0  0  0  0  0  0  0
   36.6250   32.5640   38.8330 H   0  0  0  0  0  0  0  0  0  0  0  0
   38.6240   28.0120   36.4620 H   0  0  0  0  0  0  0  0  0  0  0  0
   38.4360   29.5930   35.5840 H   0  0  0  0  0  0  0  0  0  0  0  0
   39.1150   25.5530   42.1610 C   0  0  0  0  0  3  0  0  0  0  0  0
   38.3730   24.4710   41.9980 C   0  0  0  0  0  3  0  0  0  0  0  0
   36.8920   24.5370   41.9250 C   0  0  0  0  0  2  0  0  0  0  0  0
   36.4090   24.9510   42.8210 H   0  0  0  0  0  0  0  0  0  0  0  0
  1  2  1  0  0  0  0
  2  7  1  0  0  0  0
  2  3  2  0  0  0  0
  3  8  1  0  0  0  0
  4  3  1  0  0  0  0
  4  9  1  0  0  0  0
  5  4  2  0  0  0  0
  6  1  2  0  0  0  0
  6  5  1  0  0  0  0
 10 15  1  0  0  0  0
 11 10  2  0  0  0  0
 11 12  1  0  0  0  0
 12 13  2  0  0  0  0
 13 14  1  0  0  0  0
 14  1  1  0  0  0  0
 15 14  2  0  0  0  0
 16 19  1  0  0  0  0
 16 10  1  0  0  0  0
 17 11  1  0  0  0  0
 18 12  1  0  0  0  0
 20 16  1  0  0  0  0
 21  5  1  0  0  0  0
 22 21  2  0  0  0  0
 23 22  1  0  0  0  0
 23 24  1  0  0  0  0
M  END
>  <minimizedAffinity>
-4.69936991

$$$$

 OpenBabel03242520113D

 24 25  0  0  0  0  0  0  0  0999 V2000
   39.3130   29.6000   40.6550 C   0  0  0  0  0  0  0  0  0  0  0  0
   40.3000   30.0480   41.4750 C   0  0  0  0  0  0  0  0  0  0  0  0
   40.6980   29.2500   42.5310 C   0  0  0  0  0  0  0  0  0  0  0  0
   40.0980   28.0170   42.7440 C   0  0  0  0  0  0  0  0  0  0  0  0
   39.0860   27.5960   41.8740 C   0  0  0  0  0  0  0  0  0  0  0  0
   38.7400   28.3850   40.8870 N   0  0  0  0  0  0  0  0  0  0  0  0
   40.7590   31.0010   41.3060 H   0  0  0  0  0  0  0  0  0  0  0  0
   41.4830   29.5920   43.1930 H   0  0  0  0  0  0  0  0  0  0  0  0
   40.4070   27.3950   43.5650 H   0  0  0  0  0  0  0  0  0  0  0  0
   39.2370   31.7020   37.6660 C   0  0  0  0  0  0  0  0  0  0  0  0
   37.8500   31.7540   37.3930 C   0  0  0  0  0  0  0  0  0  0  0  0
   36.9440   31.0680   38.2360 C   0  0  0  0  0  0  0  0  0  0  0  0
   37.5100   30.4050   39.2580 N   0  0  0  0  0  0  0  0  0  0  0  0
   38.8140   30.3600   39.5080 C   0  0  0  0  0  0  0  0  0  0  0  0
   39.6670   31.0090   38.7110 N   0  0  0  0  0  0  0  0  0  0  0  0
   40.1150   32.4040   36.7990 N   0  0  0  0  0  0  0  0  0  0  0  0
   37.4930   32.3140   36.5490 H   0  0  0  0  0  0  0  0  0  0  0  0
   35.8800   31.0960   38.0430 H   0  0  0  0  0  0  0  0  0  0  0  0
   41.1460   32.2280   36.8960 H   0  0  0  0  0  0  0  0  0  0  0  0
   39.7490   33.0670   36.0920 H   0  0  0  0  0  0  0  0  0  0  0  0
   38.4280   26.3090   42.0600 C   0  0  0  0  0  3  0  0  0  0  0  0
   37.2850   26.1630   42.7080 C   0  0  0  0  0  3  0  0  0  0  0  0
   36.5690   27.3160   43.3070 C   0  0  0  0  0  2  0  0  0  0  0  0
   37.1390   27.8600   44.0730 H   0  0  0  0  0  0  0  0  0  0  0  0
  1  6  2  0  0  0  0
  1  2  1  0  0  0  0
  2  3  2  0  0  0  0
  3  4  1  0  0  0  0
  3  8  1  0  0  0  0
  4  9  1  0  0  0  0
  5 21  1  0  0  0  0
  5  4  2  0  0  0  0
  6  5  1  0  0  0  0
  7  2  1  0  0  0  0
 10 15  1  0  0  0  0
 11 10  2  0  0  0  0
 11 12  1  0  0  0  0
 12 13  2  0  0  0  0
 13 14  1  0  0  0  0
 14  1  1  0  0  0  0
 15 14  2  0  0  0  0
 16 19  1  0  0  0  0
 16 10  1  0  0  0  0
 17 11  1  0  0  0  0
 18 12  1  0  0  0  0
 20 16  1  0  0  0  0
 21 22  2  0  0  0  0
 22 23  1  0  0  0  0
 23 24  1  0  0  0  0
M  END
>  <minimizedAffinity>
-4.66503525

$$$$
