
 OpenBabel03242523093D

 40 43  0  0  1  0  0  0  0  0999 V2000
   38.3310   29.6360   42.8870 C   0  0  0  0  0  0  0  0  0  0  0  0
   37.8780   29.8270   41.5910 C   0  0  0  0  0  0  0  0  0  0  0  0
   37.0010   28.9120   41.0640 C   0  0  0  0  0  0  0  0  0  0  0  0
   36.6150   27.8510   41.8380 N   0  0  0  0  0  0  0  0  0  0  0  0
   37.0720   27.6890   43.0960 C   0  0  0  0  0  0  0  0  0  0  0  0
   37.9120   28.5670   43.6060 N   0  0  0  0  0  0  0  0  0  0  0  0
   39.0290   30.3620   43.3180 H   0  0  0  0  0  0  0  0  0  0  0  0
   36.8100   26.8790   43.7620 H   0  0  0  0  0  0  0  0  0  0  0  0
   38.3590   30.9310   40.8840 N   0  0  0  0  0  0  0  0  0  0  0  0
   39.6710   30.9910   40.3560 C   0  0  0  0  0  0  0  0  0  0  0  0
   39.9500   32.1990   39.4950 C   0  0  0  0  0  0  0  0  0  0  0  0
   38.8990   32.6030   38.6400 N   0  0  0  0  0  0  0  0  0  0  0  0
   37.6050   32.5340   39.1680 C   0  0  0  0  0  0  0  0  0  0  0  0
   37.6020   32.1060   40.6210 C   0  0  0  0  0  0  0  0  0  0  0  0
   39.9790   30.0670   39.8240 H   0  0  0  0  0  0  0  0  0  0  0  0
   40.3670   31.0770   41.2240 H   0  0  0  0  0  0  0  0  0  0  0  0
   40.2890   33.0630   40.1110 H   0  0  0  0  0  0  0  0  0  0  0  0
   40.8360   31.9390   38.8550 H   0  0  0  0  0  0  0  0  0  0  0  0
   39.0140   32.2340   37.6900 H   0  0  0  0  0  0  0  0  0  0  0  0
   37.1950   33.5900   39.1840 H   0  0  0  0  0  0  0  0  0  0  0  0
   36.8620   31.9640   38.5790 H   0  0  0  0  0  0  0  0  0  0  0  0
   36.5190   32.0130   40.9180 H   0  0  0  0  0  0  0  0  0  0  0  0
   37.9660   32.9970   41.2120 H   0  0  0  0  0  0  0  0  0  0  0  0
   34.9810   29.1120   39.8730 C   0  0  0  0  0  0  0  0  0  0  0  0
   36.3620   28.8180   39.8140 C   0  0  0  0  0  0  0  0  0  0  0  0
   36.7290   28.4440   38.5320 C   0  0  0  0  0  0  0  0  0  0  0  0
   35.9000   28.3550   37.4550 C   0  0  0  0  0  0  0  0  0  0  0  0
   34.5620   28.6560   37.6080 C   0  0  0  0  0  0  0  0  0  0  0  0
   34.0900   29.0400   38.8250 C   0  0  0  0  0  0  0  0  0  0  0  0
   34.0150   28.4590   36.3510 O   0  0  0  0  0  0  0  0  0  0  0  0
   35.0300   28.2320   35.4070 C   0  0  2  0  0  0  0  0  0  0  0  0
   36.2240   27.9910   36.1560 O   0  0  0  0  0  0  0  0  0  0  0  0
   34.3640   29.4510   40.7330 H   0  0  0  0  0  0  0  0  0  0  0  0
   37.7440   28.2220   38.4850 H   0  0  0  0  0  0  0  0  0  0  0  0
   33.0550   29.2480   38.8290 H   0  0  0  0  0  0  0  0  0  0  0  0
   34.8200   27.3630   34.7510 H   0  0  0  0  0  0  0  0  0  0  0  0
   35.1430   29.4840   34.6090 C   0  0  0  0  0  3  0  0  0  0  0  0
   36.1750   29.9760   33.9310 C   0  0  0  0  0  3  0  0  0  0  0  0
   36.3530   31.2110   33.1180 C   0  0  0  0  0  2  0  0  0  0  0  0
   36.7020   30.9730   32.0870 H   0  0  0  0  0  0  0  0  0  0  0  0
  1  7  1  0  0  0  0
  1  6  1  0  0  0  0
  2  1  2  0  0  0  0
  3  2  1  0  0  0  0
  3  4  2  0  0  0  0
  4  5  1  0  0  0  0
  5  6  2  0  0  0  0
  5  8  1  0  0  0  0
  9  2  1  0  0  0  0
 10  9  1  0  0  0  0
 10 16  1  0  0  0  0
 11 17  1  0  0  0  0
 11 10  1  0  0  0  0
 12 13  1  0  0  0  0
 12 11  1  0  0  0  0
 13 20  1  0  0  0  0
 13 14  1  0  0  0  0
 14  9  1  0  0  0  0
 14 22  1  0  0  0  0
 14 23  1  0  0  0  0
 15 10  1  0  0  0  0
 18 11  1  0  0  0  0
 19 12  1  0  0  0  0
 21 13  1  0  0  0  0
 24 33  1  0  0  0  0
 25 24  1  0  0  0  0
 25  3  1  0  0  0  0
 26 25  2  0  0  0  0
 27 28  2  0  0  0  0
 27 26  1  0  0  0  0
 28 29  1  0  0  0  0
 29 35  1  0  0  0  0
 29 24  2  0  0  0  0
 30 28  1  0  0  0  0
 31 36  1  6  0  0  0
 31 32  1  0  0  0  0
 31 30  1  0  0  0  0
 32 27  1  0  0  0  0
 34 26  1  0  0  0  0
 37 31  1  0  0  0  0
 38 37  2  0  0  0  0
 39 38  1  0  0  0  0
 40 39  1  0  0  0  0
M  END
>  <minimizedAffinity>
-5.82544279

$$$$

 OpenBabel03242523093D

 40 43  0  0  1  0  0  0  0  0999 V2000
   42.6690   33.0820   40.6800 C   0  0  0  0  0  0  0  0  0  0  0  0
   41.7730   32.0240   40.6990 C   0  0  0  0  0  0  0  0  0  0  0  0
   41.6980   31.2520   41.8320 C   0  0  0  0  0  0  0  0  0  0  0  0
   42.5100   31.5570   42.8900 N   0  0  0  0  0  0  0  0  0  0  0  0
   43.3740   32.5920   42.8440 C   0  0  0  0  0  0  0  0  0  0  0  0
   43.4480   33.3370   41.7600 N   0  0  0  0  0  0  0  0  0  0  0  0
   42.7360   33.7050   39.7820 H   0  0  0  0  0  0  0  0  0  0  0  0
   44.0430   32.8890   43.6390 H   0  0  0  0  0  0  0  0  0  0  0  0
   41.0110   31.7890   39.5520 N   0  0  0  0  0  0  0  0  0  0  0  0
   39.6730   32.2310   39.4170 C   0  0  0  0  0  0  0  0  0  0  0  0
   39.0730   32.0150   38.0490 C   0  0  0  0  0  0  0  0  0  0  0  0
   39.9360   32.2450   36.9540 N   0  0  0  0  0  0  0  0  0  0  0  0
   41.2580   31.8090   37.0980 C   0  0  0  0  0  0  0  0  0  0  0  0
   41.4800   31.0840   38.4100 C   0  0  0  0  0  0  0  0  0  0  0  0
   39.5180   33.2840   39.7360 H   0  0  0  0  0  0  0  0  0  0  0  0
   39.0550   31.6180   40.1140 H   0  0  0  0  0  0  0  0  0  0  0  0
   38.6180   31.0020   37.9650 H   0  0  0  0  0  0  0  0  0  0  0  0
   38.2060   32.7250   37.9620 H   0  0  0  0  0  0  0  0  0  0  0  0
   39.8160   33.1840   36.5610 H   0  0  0  0  0  0  0  0  0  0  0  0
   41.4380   31.0210   36.3070 H   0  0  0  0  0  0  0  0  0  0  0  0
   42.0470   32.5630   36.9170 H   0  0  0  0  0  0  0  0  0  0  0  0
   42.5800   30.8460   38.4550 H   0  0  0  0  0  0  0  0  0  0  0  0
   40.9920   30.0710   38.2960 H   0  0  0  0  0  0  0  0  0  0  0  0
   39.6130   30.4880   42.6130 C   0  0  0  0  0  0  0  0  0  0  0  0
   40.9090   30.1380   42.1710 C   0  0  0  0  0  0  0  0  0  0  0  0
   41.0990   28.7680   42.2480 C   0  0  0  0  0  0  0  0  0  0  0  0
   40.1880   27.8550   42.6870 C   0  0  0  0  0  0  0  0  0  0  0  0
   38.9470   28.2900   43.1050 C   0  0  0  0  0  0  0  0  0  0  0  0
   38.6490   29.6170   43.0700 C   0  0  0  0  0  0  0  0  0  0  0  0
   38.2840   27.1370   43.4890 O   0  0  0  0  0  0  0  0  0  0  0  0
   39.0320   26.0030   43.1300 C   0  0  2  0  0  0  0  0  0  0  0  0
   40.3330   26.4790   42.7760 O   0  0  0  0  0  0  0  0  0  0  0  0
   39.1290   31.4870   42.6710 H   0  0  0  0  0  0  0  0  0  0  0  0
   42.0540   28.5050   41.9290 H   0  0  0  0  0  0  0  0  0  0  0  0
   37.6740   29.8400   43.4090 H   0  0  0  0  0  0  0  0  0  0  0  0
   39.1160   25.2650   43.9540 H   0  0  0  0  0  0  0  0  0  0  0  0
   38.3430   25.4060   41.9520 C   0  0  0  0  0  3  0  0  0  0  0  0
   37.2210   24.6980   41.8850 C   0  0  0  0  0  3  0  0  0  0  0  0
   36.4840   24.0780   40.7490 C   0  0  0  0  0  2  0  0  0  0  0  0
   35.4270   24.4270   40.7100 H   0  0  0  0  0  0  0  0  0  0  0  0
  1  2  2  0  0  0  0
  1  6  1  0  0  0  0
  2  3  1  0  0  0  0
  3 25  1  0  0  0  0
  3  4  2  0  0  0  0
  5  4  1  0  0  0  0
  5  8  1  0  0  0  0
  6  5  2  0  0  0  0
  7  1  1  0  0  0  0
  9  2  1  0  0  0  0
 10  9  1  0  0  0  0
 10 15  1  0  0  0  0
 10 16  1  0  0  0  0
 11 10  1  0  0  0  0
 12 13  1  0  0  0  0
 12 11  1  0  0  0  0
 13 14  1  0  0  0  0
 14 22  1  0  0  0  0
 14  9  1  0  0  0  0
 17 11  1  0  0  0  0
 18 11  1  0  0  0  0
 19 12  1  0  0  0  0
 20 13  1  0  0  0  0
 21 13  1  0  0  0  0
 23 14  1  0  0  0  0
 24 33  1  0  0  0  0
 24 29  1  0  0  0  0
 25 26  1  0  0  0  0
 25 24  2  0  0  0  0
 26 27  2  0  0  0  0
 27 32  1  0  0  0  0
 27 28  1  0  0  0  0
 28 30  1  0  0  0  0
 29 28  2  0  0  0  0
 29 35  1  0  0  0  0
 31 30  1  0  0  0  0
 31 36  1  1  0  0  0
 32 31  1  0  0  0  0
 34 26  1  0  0  0  0
 37 31  1  0  0  0  0
 38 37  2  0  0  0  0
 39 38  1  0  0  0  0
 40 39  1  0  0  0  0
M  END
>  <minimizedAffinity>
-5.80877209

$$$$

 OpenBabel03242523093D

 40 43  0  0  1  0  0  0  0  0999 V2000
   39.5780   31.6220   41.6320 C   0  0  0  0  0  0  0  0  0  0  0  0
   38.6670   30.7020   41.1380 C   0  0  0  0  0  0  0  0  0  0  0  0
   37.7840   31.1110   40.1690 C   0  0  0  0  0  0  0  0  0  0  0  0
   37.8410   32.4090   39.7350 N   0  0  0  0  0  0  0  0  0  0  0  0
   38.7370   33.2830   40.2340 C   0  0  0  0  0  0  0  0  0  0  0  0
   39.5870   32.8940   41.1630 N   0  0  0  0  0  0  0  0  0  0  0  0
   40.2870   31.3060   42.4040 H   0  0  0  0  0  0  0  0  0  0  0  0
   38.8380   34.3190   39.9390 H   0  0  0  0  0  0  0  0  0  0  0  0
   38.6820   29.4120   41.6720 N   0  0  0  0  0  0  0  0  0  0  0  0
   38.2590   29.1240   42.9920 C   0  0  0  0  0  0  0  0  0  0  0  0
   38.2050   27.6540   43.3310 C   0  0  0  0  0  0  0  0  0  0  0  0
   37.7300   26.8020   42.3070 N   0  0  0  0  0  0  0  0  0  0  0  0
   38.1480   27.0980   41.0050 C   0  0  0  0  0  0  0  0  0  0  0  0
   39.1230   28.2580   40.9680 C   0  0  0  0  0  0  0  0  0  0  0  0
   37.3000   29.6110   43.2680 H   0  0  0  0  0  0  0  0  0  0  0  0
   39.0210   29.5610   43.6810 H   0  0  0  0  0  0  0  0  0  0  0  0
   39.1920   27.2890   43.6980 H   0  0  0  0  0  0  0  0  0  0  0  0
   37.5170   27.5520   44.2130 H   0  0  0  0  0  0  0  0  0  0  0  0
   36.7340   26.5880   42.4190 H   0  0  0  0  0  0  0  0  0  0  0  0
   38.7510   26.2120   40.6400 H   0  0  0  0  0  0  0  0  0  0  0  0
   37.3520   27.2170   40.2470 H   0  0  0  0  0  0  0  0  0  0  0  0
   39.3330   28.4550   39.8790 H   0  0  0  0  0  0  0  0  0  0  0  0
   40.1030   27.8580   41.3610 H   0  0  0  0  0  0  0  0  0  0  0  0
   35.7370   29.9590   40.3110 C   0  0  0  0  0  0  0  0  0  0  0  0
   36.7640   30.4420   39.4690 C   0  0  0  0  0  0  0  0  0  0  0  0
   36.5340   30.0730   38.1540 C   0  0  0  0  0  0  0  0  0  0  0  0
   35.4790   29.3410   37.7000 C   0  0  0  0  0  0  0  0  0  0  0  0
   34.5260   28.9050   38.5970 C   0  0  0  0  0  0  0  0  0  0  0  0
   34.6480   29.2130   39.9170 C   0  0  0  0  0  0  0  0  0  0  0  0
   33.6190   28.1980   37.8260 O   0  0  0  0  0  0  0  0  0  0  0  0
   33.9060   28.3630   36.4610 C   0  0  2  0  0  0  0  0  0  0  0  0
   35.2070   28.9530   36.3960 O   0  0  0  0  0  0  0  0  0  0  0  0
   35.6020   30.0820   41.4070 H   0  0  0  0  0  0  0  0  0  0  0  0
   37.2900   30.4220   37.5310 H   0  0  0  0  0  0  0  0  0  0  0  0
   33.8640   28.8330   40.5130 H   0  0  0  0  0  0  0  0  0  0  0  0
   33.9030   27.4050   35.9020 H   0  0  0  0  0  0  0  0  0  0  0  0
   32.8710   29.2920   35.9270 C   0  0  0  0  0  3  0  0  0  0  0  0
   31.8430   29.8700   36.5380 C   0  0  0  0  0  3  0  0  0  0  0  0
   30.7820   30.8010   36.0660 C   0  0  0  0  0  2  0  0  0  0  0  0
   30.7530   31.7310   36.6800 H   0  0  0  0  0  0  0  0  0  0  0  0
  1  7  1  0  0  0  0
  2  1  2  0  0  0  0
  2  9  1  0  0  0  0
  3  2  1  0  0  0  0
  4  3  2  0  0  0  0
  4  5  1  0  0  0  0
  5  6  2  0  0  0  0
  6  1  1  0  0  0  0
  8  5  1  0  0  0  0
  9 10  1  0  0  0  0
 10 15  1  0  0  0  0
 10 11  1  0  0  0  0
 10 16  1  0  0  0  0
 11 17  1  0  0  0  0
 11 18  1  0  0  0  0
 12 19  1  0  0  0  0
 12 11  1  0  0  0  0
 13 12  1  0  0  0  0
 14 13  1  0  0  0  0
 14 23  1  0  0  0  0
 14  9  1  0  0  0  0
 20 13  1  0  0  0  0
 21 13  1  0  0  0  0
 22 14  1  0  0  0  0
 24 33  1  0  0  0  0
 25  3  1  0  0  0  0
 25 24  2  0  0  0  0
 26 25  1  0  0  0  0
 27 26  2  0  0  0  0
 27 28  1  0  0  0  0
 28 29  2  0  0  0  0
 29 24  1  0  0  0  0
 29 35  1  0  0  0  0
 30 28  1  0  0  0  0
 31 36  1  6  0  0  0
 31 30  1  0  0  0  0
 32 31  1  0  0  0  0
 32 27  1  0  0  0  0
 34 26  1  0  0  0  0
 37 31  1  0  0  0  0
 37 38  2  0  0  0  0
 39 38  1  0  0  0  0
 39 40  1  0  0  0  0
M  END
>  <minimizedAffinity>
-5.73202133

$$$$

 OpenBabel03242523093D

 40 43  0  0  1  0  0  0  0  0999 V2000
   41.3310   33.6180   40.4640 C   0  0  0  0  0  0  0  0  0  0  0  0
   40.5440   32.4880   40.6200 C   0  0  0  0  0  0  0  0  0  0  0  0
   40.9620   31.5160   41.4950 C   0  0  0  0  0  0  0  0  0  0  0  0
   42.1370   31.7030   42.1720 N   0  0  0  0  0  0  0  0  0  0  0  0
   42.8840   32.8120   42.0000 C   0  0  0  0  0  0  0  0  0  0  0  0
   42.4850   33.7480   41.1630 N   0  0  0  0  0  0  0  0  0  0  0  0
   41.0060   34.3990   39.7700 H   0  0  0  0  0  0  0  0  0  0  0  0
   43.8190   33.0250   42.4990 H   0  0  0  0  0  0  0  0  0  0  0  0
   39.3760   32.3900   39.8590 N   0  0  0  0  0  0  0  0  0  0  0  0
   39.3310   31.7300   38.6080 C   0  0  0  0  0  0  0  0  0  0  0  0
   37.9490   31.5990   38.0140 C   0  0  0  0  0  0  0  0  0  0  0  0
   36.9110   31.3100   38.9280 N   0  0  0  0  0  0  0  0  0  0  0  0
   36.9670   31.9620   40.1650 C   0  0  0  0  0  0  0  0  0  0  0  0
   38.1220   32.9400   40.2420 C   0  0  0  0  0  0  0  0  0  0  0  0
   39.8380   30.7420   38.6070 H   0  0  0  0  0  0  0  0  0  0  0  0
   39.9070   32.3580   37.8870 H   0  0  0  0  0  0  0  0  0  0  0  0
   37.6830   32.4980   37.4120 H   0  0  0  0  0  0  0  0  0  0  0  0
   37.9980   30.7600   37.2680 H   0  0  0  0  0  0  0  0  0  0  0  0
   36.6980   30.3070   38.9610 H   0  0  0  0  0  0  0  0  0  0  0  0
   36.0430   32.6120   40.2410 H   0  0  0  0  0  0  0  0  0  0  0  0
   36.9230   31.3190   41.0630 H   0  0  0  0  0  0  0  0  0  0  0  0
   38.1170   33.3480   41.2920 H   0  0  0  0  0  0  0  0  0  0  0  0
   37.8260   33.8270   39.6090 H   0  0  0  0  0  0  0  0  0  0  0  0
   39.2210   30.4190   42.6380 C   0  0  0  0  0  0  0  0  0  0  0  0
   40.4070   30.2820   41.8820 C   0  0  0  0  0  0  0  0  0  0  0  0
   40.7630   28.9490   41.7660 C   0  0  0  0  0  0  0  0  0  0  0  0
   40.0910   27.8900   42.2980 C   0  0  0  0  0  0  0  0  0  0  0  0
   38.9430   28.1200   43.0280 C   0  0  0  0  0  0  0  0  0  0  0  0
   38.4960   29.3930   43.2040 C   0  0  0  0  0  0  0  0  0  0  0  0
   38.5240   26.8610   43.4240 O   0  0  0  0  0  0  0  0  0  0  0  0
   39.2880   25.8700   42.7880 C   0  0  2  0  0  0  0  0  0  0  0  0
   40.4070   26.5440   42.2040 O   0  0  0  0  0  0  0  0  0  0  0  0
   38.6540   31.3360   42.9090 H   0  0  0  0  0  0  0  0  0  0  0  0
   41.6390   28.8430   41.2150 H   0  0  0  0  0  0  0  0  0  0  0  0
   37.6100   29.4550   43.7740 H   0  0  0  0  0  0  0  0  0  0  0  0
   39.6480   25.0880   43.4880 H   0  0  0  0  0  0  0  0  0  0  0  0
   38.4130   25.2800   41.7370 C   0  0  0  0  0  3  0  0  0  0  0  0
   37.2820   24.5920   41.8530 C   0  0  0  0  0  3  0  0  0  0  0  0
   36.3650   23.9800   40.8510 C   0  0  0  0  0  2  0  0  0  0  0  0
   35.3210   24.3490   40.9760 H   0  0  0  0  0  0  0  0  0  0  0  0
  1  2  2  0  0  0  0
  1  6  1  0  0  0  0
  2  3  1  0  0  0  0
  3 25  1  0  0  0  0
  3  4  2  0  0  0  0
  5  4  1  0  0  0  0
  5  8  1  0  0  0  0
  6  5  2  0  0  0  0
  7  1  1  0  0  0  0
  9 14  1  0  0  0  0
  9  2  1  0  0  0  0
 10  9  1  0  0  0  0
 11 10  1  0  0  0  0
 11 12  1  0  0  0  0
 12 19  1  0  0  0  0
 12 13  1  0  0  0  0
 13 20  1  0  0  0  0
 13 14  1  0  0  0  0
 13 21  1  0  0  0  0
 14 22  1  0  0  0  0
 15 10  1  0  0  0  0
 16 10  1  0  0  0  0
 17 11  1  0  0  0  0
 18 11  1  0  0  0  0
 23 14  1  0  0  0  0
 24 33  1  0  0  0  0
 24 29  1  0  0  0  0
 25 24  2  0  0  0  0
 26 25  1  0  0  0  0
 26 27  2  0  0  0  0
 27 28  1  0  0  0  0
 28 29  2  0  0  0  0
 28 30  1  0  0  0  0
 29 35  1  0  0  0  0
 31 30  1  0  0  0  0
 31 36  1  1  0  0  0
 32 27  1  0  0  0  0
 32 31  1  0  0  0  0
 34 26  1  0  0  0  0
 37 38  2  0  0  0  0
 37 31  1  0  0  0  0
 39 40  1  0  0  0  0
 39 38  1  0  0  0  0
M  END
>  <minimizedAffinity>
-5.69758987

$$$$

 OpenBabel03242523093D

 40 43  0  0  1  0  0  0  0  0999 V2000
   37.3250   32.6190   39.1670 C   0  0  0  0  0  0  0  0  0  0  0  0
   37.3830   31.2950   39.5770 C   0  0  0  0  0  0  0  0  0  0  0  0
   38.1970   30.9740   40.6350 C   0  0  0  0  0  0  0  0  0  0  0  0
   38.9160   31.9710   41.2370 N   0  0  0  0  0  0  0  0  0  0  0  0
   38.8410   33.2500   40.8180 C   0  0  0  0  0  0  0  0  0  0  0  0
   38.0590   33.5630   39.8040 N   0  0  0  0  0  0  0  0  0  0  0  0
   36.6780   32.8860   38.3260 H   0  0  0  0  0  0  0  0  0  0  0  0
   39.3790   34.0850   41.2450 H   0  0  0  0  0  0  0  0  0  0  0  0
   36.6260   30.3570   38.8720 N   0  0  0  0  0  0  0  0  0  0  0  0
   36.8620   30.0470   37.5120 C   0  0  0  0  0  0  0  0  0  0  0  0
   36.0420   28.9000   36.9740 C   0  0  0  0  0  0  0  0  0  0  0  0
   35.8540   27.8100   37.8550 N   0  0  0  0  0  0  0  0  0  0  0  0
   35.6270   28.1250   39.1990 C   0  0  0  0  0  0  0  0  0  0  0  0
   35.5440   29.6210   39.4280 C   0  0  0  0  0  0  0  0  0  0  0  0
   37.9350   29.8900   37.2710 H   0  0  0  0  0  0  0  0  0  0  0  0
   36.5530   30.9390   36.9160 H   0  0  0  0  0  0  0  0  0  0  0  0
   35.0550   29.2540   36.5960 H   0  0  0  0  0  0  0  0  0  0  0  0
   36.5770   28.5210   36.0620 H   0  0  0  0  0  0  0  0  0  0  0  0
   36.5270   27.0570   37.6800 H   0  0  0  0  0  0  0  0  0  0  0  0
   34.5950   27.7420   39.4610 H   0  0  0  0  0  0  0  0  0  0  0  0
   36.2940   27.6410   39.9370 H   0  0  0  0  0  0  0  0  0  0  0  0
   35.4360   29.7610   40.5410 H   0  0  0  0  0  0  0  0  0  0  0  0
   34.5430   29.9460   39.0190 H   0  0  0  0  0  0  0  0  0  0  0  0
   37.8590   29.6580   42.5560 C   0  0  0  0  0  0  0  0  0  0  0  0
   38.4720   29.7580   41.2870 C   0  0  0  0  0  0  0  0  0  0  0  0
   39.2530   28.6430   41.0310 C   0  0  0  0  0  0  0  0  0  0  0  0
   39.4330   27.5820   41.8640 C   0  0  0  0  0  0  0  0  0  0  0  0
   38.7980   27.5720   43.0890 C   0  0  0  0  0  0  0  0  0  0  0  0
   38.0010   28.6160   43.4460 C   0  0  0  0  0  0  0  0  0  0  0  0
   39.1930   26.3830   43.6770 O   0  0  0  0  0  0  0  0  0  0  0  0
   39.8970   25.5920   42.7540 C   0  0  2  0  0  0  0  0  0  0  0  0
   40.1990   26.4460   41.6470 O   0  0  0  0  0  0  0  0  0  0  0  0
   37.1660   30.3600   43.0670 H   0  0  0  0  0  0  0  0  0  0  0  0
   39.7110   28.7150   40.0990 H   0  0  0  0  0  0  0  0  0  0  0  0
   37.5640   28.5050   44.4000 H   0  0  0  0  0  0  0  0  0  0  0  0
   40.8370   25.1770   43.1720 H   0  0  0  0  0  0  0  0  0  0  0  0
   38.9690   24.5000   42.3480 C   0  0  0  0  0  3  0  0  0  0  0  0
   38.6880   24.0210   41.1420 C   0  0  0  0  0  3  0  0  0  0  0  0
   37.7790   22.9390   40.6710 C   0  0  0  0  0  2  0  0  0  0  0  0
   38.3260   22.1820   40.0640 H   0  0  0  0  0  0  0  0  0  0  0  0
  1  2  2  0  0  0  0
  1  6  1  0  0  0  0
  2  3  1  0  0  0  0
  3  4  2  0  0  0  0
  3 25  1  0  0  0  0
  5  4  1  0  0  0  0
  5  8  1  0  0  0  0
  6  5  2  0  0  0  0
  7  1  1  0  0  0  0
  9 14  1  0  0  0  0
  9  2  1  0  0  0  0
 10  9  1  0  0  0  0
 11 10  1  0  0  0  0
 11 12  1  0  0  0  0
 12 13  1  0  0  0  0
 13 14  1  0  0  0  0
 13 20  1  0  0  0  0
 13 21  1  0  0  0  0
 14 22  1  0  0  0  0
 15 10  1  0  0  0  0
 16 10  1  0  0  0  0
 17 11  1  0  0  0  0
 18 11  1  0  0  0  0
 19 12  1  0  0  0  0
 23 14  1  0  0  0  0
 24 33  1  0  0  0  0
 24 29  1  0  0  0  0
 25 24  2  0  0  0  0
 26 25  1  0  0  0  0
 26 27  2  0  0  0  0
 27 28  1  0  0  0  0
 28 29  2  0  0  0  0
 28 30  1  0  0  0  0
 29 35  1  0  0  0  0
 31 36  1  1  0  0  0
 31 30  1  0  0  0  0
 32 27  1  0  0  0  0
 32 31  1  0  0  0  0
 34 26  1  0  0  0  0
 37 31  1  0  0  0  0
 38 37  2  0  0  0  0
 39 38  1  0  0  0  0
 40 39  1  0  0  0  0
M  END
>  <minimizedAffinity>
-5.5730238

$$$$

 OpenBabel03242523093D

 40 43  0  0  1  0  0  0  0  0999 V2000
   38.3190   22.8500   40.6730 C   0  0  0  0  0  0  0  0  0  0  0  0
   38.3940   24.2080   40.9400 C   0  0  0  0  0  0  0  0  0  0  0  0
   37.3710   25.0160   40.5080 C   0  0  0  0  0  0  0  0  0  0  0  0
   36.3250   24.4470   39.8330 N   0  0  0  0  0  0  0  0  0  0  0  0
   36.2790   23.1220   39.5860 C   0  0  0  0  0  0  0  0  0  0  0  0
   37.2570   22.3430   40.0010 N   0  0  0  0  0  0  0  0  0  0  0  0
   39.1290   22.1960   41.0140 H   0  0  0  0  0  0  0  0  0  0  0  0
   35.4870   22.6070   39.0610 H   0  0  0  0  0  0  0  0  0  0  0  0
   39.5210   24.6830   41.6150 N   0  0  0  0  0  0  0  0  0  0  0  0
   40.6060   25.3040   40.9510 C   0  0  0  0  0  0  0  0  0  0  0  0
   41.6560   25.8860   41.8670 C   0  0  0  0  0  0  0  0  0  0  0  0
   41.1720   26.5200   43.0340 N   0  0  0  0  0  0  0  0  0  0  0  0
   40.0960   25.9040   43.6800 C   0  0  0  0  0  0  0  0  0  0  0  0
   39.7090   24.5950   43.0220 C   0  0  0  0  0  0  0  0  0  0  0  0
   40.2950   26.0620   40.2020 H   0  0  0  0  0  0  0  0  0  0  0  0
   41.1280   24.5090   40.3670 H   0  0  0  0  0  0  0  0  0  0  0  0
   42.4190   25.1220   42.1410 H   0  0  0  0  0  0  0  0  0  0  0  0
   42.2200   26.6490   41.2650 H   0  0  0  0  0  0  0  0  0  0  0  0
   41.1000   27.5360   42.9150 H   0  0  0  0  0  0  0  0  0  0  0  0
   40.4530   25.6050   44.7110 H   0  0  0  0  0  0  0  0  0  0  0  0
   39.2080   26.5350   43.8710 H   0  0  0  0  0  0  0  0  0  0  0  0
   38.7960   24.2260   43.5700 H   0  0  0  0  0  0  0  0  0  0  0  0
   40.5100   23.8510   43.3050 H   0  0  0  0  0  0  0  0  0  0  0  0
   36.9050   26.8180   41.9480 C   0  0  0  0  0  0  0  0  0  0  0  0
   37.1420   26.3990   40.6190 C   0  0  0  0  0  0  0  0  0  0  0  0
   37.0210   27.4640   39.7410 C   0  0  0  0  0  0  0  0  0  0  0  0
   36.7140   28.7480   40.0750 C   0  0  0  0  0  0  0  0  0  0  0  0
   36.4930   29.0640   41.4000 C   0  0  0  0  0  0  0  0  0  0  0  0
   36.5880   28.0970   42.3510 C   0  0  0  0  0  0  0  0  0  0  0  0
   36.2010   30.4180   41.3900 O   0  0  0  0  0  0  0  0  0  0  0  0
   36.4290   30.9570   40.1140 C   0  0  2  0  0  0  0  0  0  0  0  0
   36.5890   29.8420   39.2320 O   0  0  0  0  0  0  0  0  0  0  0  0
   36.9320   26.2330   42.8920 H   0  0  0  0  0  0  0  0  0  0  0  0
   37.1900   27.1590   38.7610 H   0  0  0  0  0  0  0  0  0  0  0  0
   36.4020   28.4480   43.3300 H   0  0  0  0  0  0  0  0  0  0  0  0
   35.5940   31.5950   39.7600 H   0  0  0  0  0  0  0  0  0  0  0  0
   37.6910   31.7430   40.2140 C   0  0  0  0  0  3  0  0  0  0  0  0
   37.8750   33.0520   40.3420 C   0  0  0  0  0  3  0  0  0  0  0  0
   39.0990   33.8940   40.4480 C   0  0  0  0  0  2  0  0  0  0  0  0
   39.0810   34.5260   41.3650 H   0  0  0  0  0  0  0  0  0  0  0  0
  1  2  1  0  0  0  0
  1  7  1  0  0  0  0
  2  9  1  0  0  0  0
  3 25  1  0  0  0  0
  3  2  2  0  0  0  0
  4  3  1  0  0  0  0
  5  4  2  0  0  0  0
  5  6  1  0  0  0  0
  6  1  2  0  0  0  0
  8  5  1  0  0  0  0
  9 14  1  0  0  0  0
 10  9  1  0  0  0  0
 10 11  1  0  0  0  0
 11 17  1  0  0  0  0
 11 12  1  0  0  0  0
 12 13  1  0  0  0  0
 13 21  1  0  0  0  0
 13 20  1  0  0  0  0
 14 23  1  0  0  0  0
 14 22  1  0  0  0  0
 14 13  1  0  0  0  0
 15 10  1  0  0  0  0
 16 10  1  0  0  0  0
 18 11  1  0  0  0  0
 19 12  1  0  0  0  0
 24 29  1  0  0  0  0
 24 33  1  0  0  0  0
 25 24  2  0  0  0  0
 26 27  2  0  0  0  0
 26 25  1  0  0  0  0
 27 28  1  0  0  0  0
 28 29  2  0  0  0  0
 29 35  1  0  0  0  0
 30 28  1  0  0  0  0
 31 36  1  6  0  0  0
 31 37  1  0  0  0  0
 31 30  1  0  0  0  0
 32 27  1  0  0  0  0
 32 31  1  0  0  0  0
 34 26  1  0  0  0  0
 37 38  2  0  0  0  0
 38 39  1  0  0  0  0
 39 40  1  0  0  0  0
M  END
>  <minimizedAffinity>
-5.54344463

$$$$

 OpenBabel03242523093D

 40 43  0  0  1  0  0  0  0  0999 V2000
   38.4600   29.9620   41.6770 C   0  0  0  0  0  0  0  0  0  0  0  0
   37.9860   28.9610   40.8430 C   0  0  0  0  0  0  0  0  0  0  0  0
   37.5790   27.7780   41.4070 C   0  0  0  0  0  0  0  0  0  0  0  0
   37.6610   27.6360   42.7670 N   0  0  0  0  0  0  0  0  0  0  0  0
   38.1270   28.6260   43.5550 C   0  0  0  0  0  0  0  0  0  0  0  0
   38.5170   29.7650   43.0160 N   0  0  0  0  0  0  0  0  0  0  0  0
   38.7860   30.9100   41.2370 H   0  0  0  0  0  0  0  0  0  0  0  0
   38.2190   28.5840   44.6310 H   0  0  0  0  0  0  0  0  0  0  0  0
   37.9710   29.2060   39.4670 N   0  0  0  0  0  0  0  0  0  0  0  0
   36.8870   29.8400   38.8140 C   0  0  0  0  0  0  0  0  0  0  0  0
   37.1250   30.1510   37.3560 C   0  0  0  0  0  0  0  0  0  0  0  0
   38.4230   30.6030   37.0260 N   0  0  0  0  0  0  0  0  0  0  0  0
   39.4880   29.9750   37.6810 C   0  0  0  0  0  0  0  0  0  0  0  0
   39.0210   28.8460   38.5780 C   0  0  0  0  0  0  0  0  0  0  0  0
   36.5190   30.7460   39.3390 H   0  0  0  0  0  0  0  0  0  0  0  0
   36.0320   29.1220   38.8300 H   0  0  0  0  0  0  0  0  0  0  0  0
   36.8500   29.2860   36.7100 H   0  0  0  0  0  0  0  0  0  0  0  0
   36.3950   30.9590   37.0770 H   0  0  0  0  0  0  0  0  0  0  0  0
   38.4710   31.6250   36.9740 H   0  0  0  0  0  0  0  0  0  0  0  0
   40.1120   29.4630   36.8880 H   0  0  0  0  0  0  0  0  0  0  0  0
   40.2020   30.6360   38.2060 H   0  0  0  0  0  0  0  0  0  0  0  0
   39.9400   28.4650   39.1070 H   0  0  0  0  0  0  0  0  0  0  0  0
   38.7350   27.9960   37.8920 H   0  0  0  0  0  0  0  0  0  0  0  0
   37.1420   25.4890   41.7340 C   0  0  0  0  0  0  0  0  0  0  0  0
   37.0540   26.5940   40.8580 C   0  0  0  0  0  0  0  0  0  0  0  0
   36.5240   26.2110   39.6370 C   0  0  0  0  0  0  0  0  0  0  0  0
   36.1350   24.9520   39.2920 C   0  0  0  0  0  0  0  0  0  0  0  0
   36.2630   23.9320   40.2120 C   0  0  0  0  0  0  0  0  0  0  0  0
   36.7690   24.1940   41.4470 C   0  0  0  0  0  0  0  0  0  0  0  0
   35.7970   22.8070   39.5520 O   0  0  0  0  0  0  0  0  0  0  0  0
   35.2160   23.1680   38.3250 C   0  0  2  0  0  0  0  0  0  0  0  0
   35.5970   24.5260   38.0870 O   0  0  0  0  0  0  0  0  0  0  0  0
   37.5030   25.4420   42.7840 H   0  0  0  0  0  0  0  0  0  0  0  0
   36.4630   27.0210   38.9870 H   0  0  0  0  0  0  0  0  0  0  0  0
   36.8200   23.3440   42.0710 H   0  0  0  0  0  0  0  0  0  0  0  0
   35.5580   22.5320   37.4830 H   0  0  0  0  0  0  0  0  0  0  0  0
   33.7420   23.0520   38.5120 C   0  0  0  0  0  3  0  0  0  0  0  0
   33.0410   22.6970   39.5830 C   0  0  0  0  0  3  0  0  0  0  0  0
   31.5800   22.5630   39.8340 C   0  0  0  0  0  2  0  0  0  0  0  0
   31.2590   23.1760   40.7070 H   0  0  0  0  0  0  0  0  0  0  0  0
  1  6  1  0  0  0  0
  2  3  1  0  0  0  0
  2  1  2  0  0  0  0
  3  4  2  0  0  0  0
  4  5  1  0  0  0  0
  5  8  1  0  0  0  0
  6  5  2  0  0  0  0
  7  1  1  0  0  0  0
  9  2  1  0  0  0  0
 10 16  1  0  0  0  0
 10 15  1  0  0  0  0
 10  9  1  0  0  0  0
 11 10  1  0  0  0  0
 12 11  1  0  0  0  0
 12 13  1  0  0  0  0
 13 21  1  0  0  0  0
 13 14  1  0  0  0  0
 14 22  1  0  0  0  0
 14  9  1  0  0  0  0
 17 11  1  0  0  0  0
 18 11  1  0  0  0  0
 19 12  1  0  0  0  0
 20 13  1  0  0  0  0
 23 14  1  0  0  0  0
 24 33  1  0  0  0  0
 25  3  1  0  0  0  0
 25 24  2  0  0  0  0
 26 25  1  0  0  0  0
 27 26  2  0  0  0  0
 27 28  1  0  0  0  0
 28 29  2  0  0  0  0
 29 24  1  0  0  0  0
 29 35  1  0  0  0  0
 30 28  1  0  0  0  0
 31 36  1  6  0  0  0
 31 37  1  0  0  0  0
 31 30  1  0  0  0  0
 32 31  1  0  0  0  0
 32 27  1  0  0  0  0
 34 26  1  0  0  0  0
 37 38  2  0  0  0  0
 38 39  1  0  0  0  0
 39 40  1  0  0  0  0
M  END
>  <minimizedAffinity>
-5.50956059

$$$$

 OpenBabel03242523093D

 40 43  0  0  1  0  0  0  0  0999 V2000
   35.7670   27.2910   38.7440 C   0  0  0  0  0  0  0  0  0  0  0  0
   36.5940   28.2390   39.3260 C   0  0  0  0  0  0  0  0  0  0  0  0
   36.8770   29.3820   38.6200 C   0  0  0  0  0  0  0  0  0  0  0  0
   36.3330   29.5350   37.3740 N   0  0  0  0  0  0  0  0  0  0  0  0
   35.5310   28.5970   36.8310 C   0  0  0  0  0  0  0  0  0  0  0  0
   35.2560   27.4990   37.5060 N   0  0  0  0  0  0  0  0  0  0  0  0
   35.5340   26.3770   39.2990 H   0  0  0  0  0  0  0  0  0  0  0  0
   35.0680   28.6520   35.8550 H   0  0  0  0  0  0  0  0  0  0  0  0
   37.1150   27.9650   40.5930 N   0  0  0  0  0  0  0  0  0  0  0  0
   38.2600   27.1580   40.7940 C   0  0  0  0  0  0  0  0  0  0  0  0
   38.7550   27.1070   42.2180 C   0  0  0  0  0  0  0  0  0  0  0  0
   38.6980   28.3250   42.9340 N   0  0  0  0  0  0  0  0  0  0  0  0
   37.5660   29.1200   42.7260 C   0  0  0  0  0  0  0  0  0  0  0  0
   36.5610   28.4520   41.8090 C   0  0  0  0  0  0  0  0  0  0  0  0
   39.1000   27.4000   40.1090 H   0  0  0  0  0  0  0  0  0  0  0  0
   37.9670   26.1100   40.5420 H   0  0  0  0  0  0  0  0  0  0  0  0
   38.2390   26.3060   42.7960 H   0  0  0  0  0  0  0  0  0  0  0  0
   39.8290   26.7800   42.1740 H   0  0  0  0  0  0  0  0  0  0  0  0
   39.5980   28.8170   42.9240 H   0  0  0  0  0  0  0  0  0  0  0  0
   37.0300   29.2020   43.7190 H   0  0  0  0  0  0  0  0  0  0  0  0
   37.7490   30.1690   42.4260 H   0  0  0  0  0  0  0  0  0  0  0  0
   35.7340   29.2020   41.6520 H   0  0  0  0  0  0  0  0  0  0  0  0
   36.0710   27.6370   42.4190 H   0  0  0  0  0  0  0  0  0  0  0  0
   36.9330   31.5230   39.5960 C   0  0  0  0  0  0  0  0  0  0  0  0
   37.6560   30.5150   38.9190 C   0  0  0  0  0  0  0  0  0  0  0  0
   38.9510   30.9310   38.6590 C   0  0  0  0  0  0  0  0  0  0  0  0
   39.4870   32.1380   38.9910 C   0  0  0  0  0  0  0  0  0  0  0  0
   38.7030   33.0650   39.6470 C   0  0  0  0  0  0  0  0  0  0  0  0
   37.4130   32.7620   39.9570 C   0  0  0  0  0  0  0  0  0  0  0  0
   39.5320   34.1610   39.8210 O   0  0  0  0  0  0  0  0  0  0  0  0
   40.8480   33.8400   39.4550 C   0  0  2  0  0  0  0  0  0  0  0  0
   40.7750   32.5940   38.7560 O   0  0  0  0  0  0  0  0  0  0  0  0
   35.8840   31.5190   39.9630 H   0  0  0  0  0  0  0  0  0  0  0  0
   39.4860   30.1930   38.1560 H   0  0  0  0  0  0  0  0  0  0  0  0
   36.9060   33.5400   40.4590 H   0  0  0  0  0  0  0  0  0  0  0  0
   41.3130   34.6070   38.8010 H   0  0  0  0  0  0  0  0  0  0  0  0
   41.6110   33.6940   40.7260 C   0  0  0  0  0  3  0  0  0  0  0  0
   42.8760   33.9910   41.0040 C   0  0  0  0  0  3  0  0  0  0  0  0
   43.6920   33.8720   42.2440 C   0  0  0  0  0  2  0  0  0  0  0  0
   44.1450   34.8500   42.5280 H   0  0  0  0  0  0  0  0  0  0  0  0
  1  7  1  0  0  0  0
  1  2  1  0  0  0  0
  2  9  1  0  0  0  0
  3 25  1  0  0  0  0
  3  2  2  0  0  0  0
  4  3  1  0  0  0  0
  5  4  2  0  0  0  0
  5  6  1  0  0  0  0
  6  1  2  0  0  0  0
  8  5  1  0  0  0  0
  9 10  1  0  0  0  0
  9 14  1  0  0  0  0
 10 11  1  0  0  0  0
 11 17  1  0  0  0  0
 11 12  1  0  0  0  0
 13 12  1  0  0  0  0
 13 20  1  0  0  0  0
 14 23  1  0  0  0  0
 14 13  1  0  0  0  0
 15 10  1  0  0  0  0
 16 10  1  0  0  0  0
 18 11  1  0  0  0  0
 19 12  1  0  0  0  0
 21 13  1  0  0  0  0
 22 14  1  0  0  0  0
 24 29  1  0  0  0  0
 24 33  1  0  0  0  0
 25 24  2  0  0  0  0
 26 25  1  0  0  0  0
 26 27  2  0  0  0  0
 27 28  1  0  0  0  0
 28 30  1  0  0  0  0
 28 29  2  0  0  0  0
 29 35  1  0  0  0  0
 31 36  1  6  0  0  0
 31 30  1  0  0  0  0
 31 37  1  0  0  0  0
 32 27  1  0  0  0  0
 32 31  1  0  0  0  0
 34 26  1  0  0  0  0
 37 38  2  0  0  0  0
 38 39  1  0  0  0  0
 39 40  1  0  0  0  0
M  END
>  <minimizedAffinity>
-5.32530308

$$$$

 OpenBabel03242523093D

 40 43  0  0  1  0  0  0  0  0999 V2000
   36.4740   25.0720   39.6560 C   0  0  0  0  0  0  0  0  0  0  0  0
   36.9430   26.2950   40.1120 C   0  0  0  0  0  0  0  0  0  0  0  0
   36.6230   27.4240   39.4000 C   0  0  0  0  0  0  0  0  0  0  0  0
   35.8570   27.2950   38.2730 N   0  0  0  0  0  0  0  0  0  0  0  0
   35.4140   26.0940   37.8520 C   0  0  0  0  0  0  0  0  0  0  0  0
   35.7180   25.0070   38.5330 N   0  0  0  0  0  0  0  0  0  0  0  0
   36.7220   24.1660   40.2170 H   0  0  0  0  0  0  0  0  0  0  0  0
   34.8080   25.9180   36.9740 H   0  0  0  0  0  0  0  0  0  0  0  0
   37.7380   26.3050   41.2600 N   0  0  0  0  0  0  0  0  0  0  0  0
   39.1500   26.2140   41.2150 C   0  0  0  0  0  0  0  0  0  0  0  0
   39.8370   26.3970   42.5470 C   0  0  0  0  0  0  0  0  0  0  0  0
   39.2870   27.3870   43.3930 N   0  0  0  0  0  0  0  0  0  0  0  0
   37.8910   27.4740   43.4270 C   0  0  0  0  0  0  0  0  0  0  0  0
   37.2310   26.4000   42.5850 C   0  0  0  0  0  0  0  0  0  0  0  0
   39.6150   26.8770   40.4560 H   0  0  0  0  0  0  0  0  0  0  0  0
   39.4000   25.1750   40.8920 H   0  0  0  0  0  0  0  0  0  0  0  0
   39.9130   25.4310   43.0960 H   0  0  0  0  0  0  0  0  0  0  0  0
   40.9000   26.6840   42.3240 H   0  0  0  0  0  0  0  0  0  0  0  0
   39.7880   28.2780   43.3170 H   0  0  0  0  0  0  0  0  0  0  0  0
   37.5680   27.2400   44.4860 H   0  0  0  0  0  0  0  0  0  0  0  0
   37.4540   28.4700   43.2230 H   0  0  0  0  0  0  0  0  0  0  0  0
   36.1250   26.6080   42.6240 H   0  0  0  0  0  0  0  0  0  0  0  0
   37.3430   25.4360   43.1620 H   0  0  0  0  0  0  0  0  0  0  0  0
   36.1860   29.3780   40.6380 C   0  0  0  0  0  0  0  0  0  0  0  0
   36.9260   28.7850   39.5910 C   0  0  0  0  0  0  0  0  0  0  0  0
   37.7270   29.7250   38.9640 C   0  0  0  0  0  0  0  0  0  0  0  0
   37.8120   31.0460   39.2830 C   0  0  0  0  0  0  0  0  0  0  0  0
   37.0460   31.5390   40.3190 C   0  0  0  0  0  0  0  0  0  0  0  0
   36.2230   30.7040   41.0090 C   0  0  0  0  0  0  0  0  0  0  0  0
   37.3570   32.8880   40.3710 O   0  0  0  0  0  0  0  0  0  0  0  0
   38.4320   33.1740   39.5150 C   0  0  2  0  0  0  0  0  0  0  0  0
   38.6020   32.0190   38.6880 O   0  0  0  0  0  0  0  0  0  0  0  0
   35.4640   28.9160   41.3460 H   0  0  0  0  0  0  0  0  0  0  0  0
   38.2700   29.2940   38.1880 H   0  0  0  0  0  0  0  0  0  0  0  0
   35.6870   31.1830   41.7820 H   0  0  0  0  0  0  0  0  0  0  0  0
   38.2510   34.0640   38.8780 H   0  0  0  0  0  0  0  0  0  0  0  0
   39.6190   33.3810   40.3910 C   0  0  0  0  0  3  0  0  0  0  0  0
   40.8530   33.7650   40.0830 C   0  0  0  0  0  3  0  0  0  0  0  0
   42.0750   33.9910   40.9040 C   0  0  0  0  0  2  0  0  0  0  0  0
   42.4810   35.0180   40.7550 H   0  0  0  0  0  0  0  0  0  0  0  0
  1  2  1  0  0  0  0
  1  7  1  0  0  0  0
  2  9  1  0  0  0  0
  3 25  1  0  0  0  0
  3  2  2  0  0  0  0
  4  3  1  0  0  0  0
  5  4  2  0  0  0  0
  5  6  1  0  0  0  0
  6  1  2  0  0  0  0
  8  5  1  0  0  0  0
  9 14  1  0  0  0  0
 10  9  1  0  0  0  0
 10 11  1  0  0  0  0
 11 17  1  0  0  0  0
 11 12  1  0  0  0  0
 12 13  1  0  0  0  0
 13 20  1  0  0  0  0
 14 22  1  0  0  0  0
 14 23  1  0  0  0  0
 14 13  1  0  0  0  0
 15 10  1  0  0  0  0
 16 10  1  0  0  0  0
 18 11  1  0  0  0  0
 19 12  1  0  0  0  0
 21 13  1  0  0  0  0
 24 29  1  0  0  0  0
 24 33  1  0  0  0  0
 25 24  2  0  0  0  0
 26 27  2  0  0  0  0
 26 25  1  0  0  0  0
 27 28  1  0  0  0  0
 28 30  1  0  0  0  0
 28 29  2  0  0  0  0
 29 35  1  0  0  0  0
 31 36  1  6  0  0  0
 31 30  1  0  0  0  0
 31 37  1  0  0  0  0
 32 27  1  0  0  0  0
 32 31  1  0  0  0  0
 34 26  1  0  0  0  0
 38 37  2  0  0  0  0
 38 39  1  0  0  0  0
 40 39  1  0  0  0  0
M  END
>  <minimizedAffinity>
-5.27078247

$$$$
