
 OpenBabel03252506283D

 42 45  0  0  0  0  0  0  0  0999 V2000
   46.5520   30.7890   48.8460 C   0  0  0  0  0  0  0  0  0  0  0  0
   46.7150   31.5060   49.6700 H   0  0  0  0  0  0  0  0  0  0  0  0
   47.2980   29.9970   48.9580 H   0  0  0  0  0  0  0  0  0  0  0  0
   46.3430   32.8350   45.9280 C   0  0  0  0  0  0  0  0  0  0  0  0
   47.3040   31.8710   45.5310 C   0  0  0  0  0  0  0  0  0  0  0  0
   47.4920   31.0100   46.5550 C   0  0  0  0  0  0  0  0  0  0  0  0
   46.6810   31.4220   47.5460 N   0  0  0  0  0  0  0  0  0  0  0  0
   45.9880   32.5140   47.1830 N   0  0  0  0  0  0  0  0  0  0  0  0
   47.7710   31.8800   44.5590 H   0  0  0  0  0  0  0  0  0  0  0  0
   48.1470   30.1540   46.6120 H   0  0  0  0  0  0  0  0  0  0  0  0
   44.5300   35.7940   44.7860 C   0  0  0  0  0  0  0  0  0  0  0  0
   45.0210   35.9860   43.4880 C   0  0  0  0  0  0  0  0  0  0  0  0
   45.9780   35.0850   43.0230 C   0  0  0  0  0  0  0  0  0  0  0  0
   46.3450   34.1070   43.8650 N   0  0  0  0  0  0  0  0  0  0  0  0
   45.8830   33.9260   45.0890 C   0  0  0  0  0  0  0  0  0  0  0  0
   44.9640   34.7850   45.5450 N   0  0  0  0  0  0  0  0  0  0  0  0
   43.7890   36.5110   45.1170 H   0  0  0  0  0  0  0  0  0  0  0  0
   44.7170   36.7810   42.8150 H   0  0  0  0  0  0  0  0  0  0  0  0
   46.5890   35.1360   41.7080 C   0  0  0  0  0  3  0  0  0  0  0  0
   47.8880   35.0090   41.5370 C   0  0  0  0  0  3  0  0  0  0  0  0
   48.5400   35.0560   40.2250 C   0  0  0  0  0  2  0  0  0  0  0  0
   49.5440   34.5450   40.2730 H   0  0  0  0  0  0  0  0  0  0  0  0
   45.2030   30.1930   49.0000 C   0  0  0  0  0  0  0  0  0  0  0  0
   45.1550   29.7600   50.0340 H   0  0  0  0  0  0  0  0  0  0  0  0
   44.4420   31.0010   48.9900 H   0  0  0  0  0  0  0  0  0  0  0  0
   45.0180   27.7560   48.2200 C   0  0  0  0  0  0  0  0  0  0  0  0
   44.8440   29.1150   48.0810 C   0  0  0  0  0  0  0  0  0  0  0  0
   44.2420   29.5450   46.9070 C   0  0  0  0  0  0  0  0  0  0  0  0
   43.8410   28.6590   45.9320 C   0  0  0  0  0  0  0  0  0  0  0  0
   43.2500   28.7770   44.7280 N   0  0  0  0  0  0  0  0  0  0  0  0
   43.0670   27.5830   44.1530 C   0  0  0  0  0  0  0  0  0  0  0  0
   43.5560   26.6010   45.0080 C   0  0  0  0  0  0  0  0  0  0  0  0
   44.0180   27.3090   46.0790 C   0  0  0  0  0  0  0  0  0  0  0  0
   44.6140   26.8740   47.2420 C   0  0  0  0  0  0  0  0  0  0  0  0
   45.4940   27.4670   49.1600 H   0  0  0  0  0  0  0  0  0  0  0  0
   44.0470   30.5830   46.6710 H   0  0  0  0  0  0  0  0  0  0  0  0
   42.9740   29.7060   44.3070 H   0  0  0  0  0  0  0  0  0  0  0  0
   42.6050   27.4660   43.1810 H   0  0  0  0  0  0  0  0  0  0  0  0
   43.5300   25.5460   44.7820 H   0  0  0  0  0  0  0  0  0  0  0  0
   44.8310   25.4460   47.4580 C   0  0  0  0  0  0  0  0  0  0  0  0
   44.9580   24.9770   48.6240 O   0  0  0  0  0  0  0  0  0  0  0  0
   44.8860   24.7690   46.6080 H   0  0  0  0  0  0  0  0  0  0  0  0
  1  3  1  0  0  0  0
  1 23  1  0  0  0  0
  1  2  1  0  0  0  0
  4  8  2  0  0  0  0
  5  4  1  0  0  0  0
  5  6  2  0  0  0  0
  6 10  1  0  0  0  0
  6  7  1  0  0  0  0
  7  1  1  0  0  0  0
  8  7  1  0  0  0  0
  9  5  1  0  0  0  0
 11 17  1  0  0  0  0
 11 16  1  0  0  0  0
 12 11  2  0  0  0  0
 13 12  1  0  0  0  0
 13 14  2  0  0  0  0
 14 15  1  0  0  0  0
 15 16  2  0  0  0  0
 15  4  1  0  0  0  0
 18 12  1  0  0  0  0
 19 13  1  0  0  0  0
 20 19  2  0  0  0  0
 21 22  1  0  0  0  0
 21 20  1  0  0  0  0
 23 24  1  0  0  0  0
 25 23  1  0  0  0  0
 26 35  1  0  0  0  0
 27 26  1  0  0  0  0
 27 23  1  0  0  0  0
 28 27  2  0  0  0  0
 29 33  2  0  0  0  0
 29 28  1  0  0  0  0
 30 29  1  0  0  0  0
 31 30  1  0  0  0  0
 31 32  2  0  0  0  0
 32 33  1  0  0  0  0
 33 34  1  0  0  0  0
 34 40  1  0  0  0  0
 34 26  2  0  0  0  0
 36 28  1  0  0  0  0
 37 30  1  0  0  0  0
 38 31  1  0  0  0  0
 39 32  1  0  0  0  0
 40 41  2  0  0  0  0
 42 40  1  0  0  0  0
M  END
>  <minimizedAffinity>
-5.76961708

>  <minimizedRMSD>
0.649388492

$$$$
