
 OpenBabel03242511423D

 29 30  0  0  0  0  0  0  0  0999 V2000
   46.8100   32.7220   46.1010 C   0  0  0  0  0  0  0  0  0  0  0  0
   46.9440   33.7470   46.4660 H   0  0  0  0  0  0  0  0  0  0  0  0
   47.8360   32.2850   45.9140 H   0  0  0  0  0  0  0  0  0  0  0  0
   46.2230   31.9120   47.1640 C   0  0  0  0  0  0  0  0  0  0  0  0
   45.3900   32.2890   48.2060 C   0  0  0  0  0  0  0  0  0  0  0  0
   44.8480   31.4320   49.1290 C   0  0  0  0  0  0  0  0  0  0  0  0
   45.1560   30.1060   49.0070 C   0  0  0  0  0  0  0  0  0  0  0  0
   45.9900   29.7020   47.9720 C   0  0  0  0  0  0  0  0  0  0  0  0
   46.5270   30.6010   47.0530 C   0  0  0  0  0  0  0  0  0  0  0  0
   45.2130   33.3630   48.2040 H   0  0  0  0  0  0  0  0  0  0  0  0
   44.2310   31.9390   49.8550 H   0  0  0  0  0  0  0  0  0  0  0  0
   44.6600   29.5280   49.8010 H   0  0  0  0  0  0  0  0  0  0  0  0
   46.0620   28.6200   48.1150 H   0  0  0  0  0  0  0  0  0  0  0  0
   47.4300   29.7670   46.2750 C   0  0  0  0  0  3  0  0  0  0  0  0
   48.7090   29.4790   46.3720 C   0  0  0  0  0  3  0  0  0  0  0  0
   49.5910   28.6430   45.5830 C   0  0  0  0  0  2  0  0  0  0  0  0
   48.9850   28.1830   44.7520 H   0  0  0  0  0  0  0  0  0  0  0  0
   46.0790   32.6130   44.8060 C   0  0  0  0  0  0  0  0  0  0  0  0
   45.0920   32.1450   44.9780 H   0  0  0  0  0  0  0  0  0  0  0  0
   46.6880   32.2070   43.9800 H   0  0  0  0  0  0  0  0  0  0  0  0
   44.5590   35.9860   44.7850 C   0  0  0  0  0  0  0  0  0  0  0  0
   44.9650   36.4840   43.5220 C   0  0  0  0  0  0  0  0  0  0  0  0
   45.7470   35.6500   42.7470 C   0  0  0  0  0  0  0  0  0  0  0  0
   46.0780   34.4420   43.2080 N   0  0  0  0  0  0  0  0  0  0  0  0
   45.6610   34.0130   44.4290 C   0  0  0  0  0  0  0  0  0  0  0  0
   44.9170   34.7630   45.2090 N   0  0  0  0  0  0  0  0  0  0  0  0
   43.9380   36.6810   45.3700 H   0  0  0  0  0  0  0  0  0  0  0  0
   44.6710   37.4770   43.1850 H   0  0  0  0  0  0  0  0  0  0  0  0
   46.0940   35.9660   41.7680 H   0  0  0  0  0  0  0  0  0  0  0  0
  1  2  1  0  0  0  0
  1  4  1  0  0  0  0
  3  1  1  0  0  0  0
  4  5  1  0  0  0  0
  5  6  2  0  0  0  0
  6 11  1  0  0  0  0
  7  6  1  0  0  0  0
  7 12  1  0  0  0  0
  8 13  1  0  0  0  0
  8  7  2  0  0  0  0
  9  4  2  0  0  0  0
  9  8  1  0  0  0  0
 10  5  1  0  0  0  0
 14 15  2  0  0  0  0
 14  9  1  0  0  0  0
 16 15  1  0  0  0  0
 17 16  1  0  0  0  0
 18 19  1  0  0  0  0
 18  1  1  0  0  0  0
 20 18  1  0  0  0  0
 21 26  1  0  0  0  0
 21 27  1  0  0  0  0
 22 21  2  0  0  0  0
 23 24  2  0  0  0  0
 23 22  1  0  0  0  0
 24 25  1  0  0  0  0
 25 18  1  0  0  0  0
 25 26  2  0  0  0  0
 28 22  1  0  0  0  0
 29 23  1  0  0  0  0
M  END
>  <minimizedAffinity>
-4.67119789

>  <minimizedRMSD>
1.03158987

$$$$
