
 OpenBabel03252503093D

 22 23  0  0  0  0  0  0  0  0999 V2000
   45.0380   36.1100   43.5210 C   0  0  0  0  0  0  0  0  0  0  0  0
   45.6830   34.9290   43.1030 C   0  0  0  0  0  0  0  0  0  0  0  0
   45.7680   33.9340   44.0690 C   0  0  0  0  0  0  0  0  0  0  0  0
   45.2700   34.0870   45.3150 N   0  0  0  0  0  0  0  0  0  0  0  0
   44.6560   35.2530   45.6690 C   0  0  0  0  0  0  0  0  0  0  0  0
   44.5450   36.2570   44.7680 N   0  0  0  0  0  0  0  0  0  0  0  0
   44.9190   36.9440   42.8490 H   0  0  0  0  0  0  0  0  0  0  0  0
   44.2740   35.3410   46.6610 H   0  0  0  0  0  0  0  0  0  0  0  0
   46.3880   32.7300   43.7390 C   0  0  0  0  0  0  0  0  0  0  0  0
   47.6920   32.2860   43.7310 C   0  0  0  0  0  0  0  0  0  0  0  0
   48.0440   31.0650   43.3580 C   0  0  0  0  0  0  0  0  0  0  0  0
   47.0220   30.2250   42.9650 C   0  0  0  0  0  0  0  0  0  0  0  0
   45.5120   31.2830   43.1590 S   0  0  0  0  0  0  0  0  0  0  0  0
   48.5840   32.8090   44.0410 H   0  0  0  0  0  0  0  0  0  0  0  0
   48.9200   30.4810   43.2550 H   0  0  0  0  0  0  0  0  0  0  0  0
   46.8080   29.2410   42.6110 H   0  0  0  0  0  0  0  0  0  0  0  0
   46.1740   34.8130   41.7820 C   0  0  0  0  0  0  0  0  0  0  0  0
   47.4140   35.0890   41.6410 O   0  0  0  0  0  0  0  0  0  0  0  0
   44.9470   34.3930   41.0490 C   0  0  0  0  0  3  0  0  0  0  0  0
   43.7820   34.8180   40.6130 C   0  0  0  0  0  3  0  0  0  0  0  0
   42.9590   33.8160   39.8960 C   0  0  0  0  0  2  0  0  0  0  0  0
   42.7560   34.1230   38.8440 H   0  0  0  0  0  0  0  0  0  0  0  0
  1  6  1  0  0  0  0
  2  1  2  0  0  0  0
  2  3  1  0  0  0  0
  3  4  2  0  0  0  0
  4  5  1  0  0  0  0
  5  8  1  0  0  0  0
  6  5  2  0  0  0  0
  7  1  1  0  0  0  0
  9  3  1  0  0  0  0
 10  9  2  0  0  0  0
 10 14  1  0  0  0  0
 11 10  1  0  0  0  0
 12 13  1  0  0  0  0
 12 11  2  0  0  0  0
 13  9  1  0  0  0  0
 15 11  1  0  0  0  0
 16 12  1  0  0  0  0
 17  2  1  0  0  0  0
 18 17  2  0  0  0  0
 19 17  1  0  0  0  0
 20 19  2  0  0  0  0
 21 20  1  0  0  0  0
 22 21  1  0  0  0  0
M  END
>  <minimizedAffinity>
-4.06377268

>  <minimizedRMSD>
1.24704266

$$$$
