REMARK  Name = 
REMARK  4 active torsions:
REMARK  status: ('A' for Active; 'I' for Inactive)
REMARK    1  A    between atoms: C_2  and  C_7
REMARK    2  A    between atoms: C_7  and  C_8
REMARK    3  A    between atoms: C_7  and  C_16
REMARK    4  A    between atoms: C_17  and  C_18
REMARK                            x       y       z     vdW  Elec       q    Type
REMARK                         _______ _______ _______ _____ _____    ______ ____
ROOT
ATOM      1  C   UNL     1      46.559  34.969  42.032  0.00  0.00    +0.000 C 
ATOM      2  H   UNL     1      46.043  35.917  41.793  0.00  0.00    +0.000 HD
ENDROOT
BRANCH   1   4
ATOM      3  C   UNL     1      45.188  35.229  44.050  0.00  0.00    +0.000 A 
ATOM      4  C   UNL     1      46.241  34.578  43.376  0.00  0.00    +0.000 A 
ATOM      5  C   UNL     1      46.911  33.565  44.056  0.00  0.00    +0.000 A 
ATOM      6  N   UNL     1      46.519  33.254  45.330  0.00  0.00    +0.000 NA
ATOM      7  C   UNL     1      45.506  33.899  45.940  0.00  0.00    +0.000 A 
ATOM      8  N   UNL     1      44.828  34.895  45.307  0.00  0.00    +0.000 NA
ATOM      9  H   UNL     1      44.604  36.028  43.615  0.00  0.00    +0.000 HD
ATOM     10  H   UNL     1      47.720  33.041  43.585  0.00  0.00    +0.000 HD
ATOM     11  H   UNL     1      45.194  33.651  46.952  0.00  0.00    +0.000 HD
ENDBRANCH   1   4
BRANCH   1  12
ATOM     12  C   UNL     1      48.044  35.198  41.914  0.00  0.00    +0.000 C 
ATOM     13  H   UNL     1      48.643  34.298  42.045  0.00  0.00    +0.000 HD
ATOM     14  H   UNL     1      48.221  35.519  40.846  0.00  0.00    +0.000 HD
ATOM     15  H   UNL     1      48.359  36.057  42.527  0.00  0.00    +0.000 HD
ENDBRANCH   1  12
BRANCH   1  16
ATOM     16  C   UNL     1      46.142  33.945  41.016  0.00  0.00    +0.000 C 
ATOM     17  C   UNL     1      46.891  32.945  40.556  0.00  0.00    +0.000 C 
BRANCH  17  18
ATOM     18  C   UNL     1      46.445  31.956  39.555  0.00  0.00    +0.000 C 
ATOM     19  H   UNL     1      47.266  31.782  38.841  0.00  0.00    +0.000 HD
ENDBRANCH  17  18
ENDBRANCH   1  16
TORSDOF 4
