
     RDKit          3D

 35 36  0  0  0  0  0  0  0  0999 V2000
   46.1630   32.5580   47.0122 C   0  0  0  0  0  0  0  0  0  0  0  0
   45.2390   32.5814   48.0006 C   0  0  0  0  0  0  0  0  0  0  0  0
   45.4363   31.7714   49.1011 C   0  0  0  0  0  0  0  0  0  0  0  0
   46.5506   30.9552   49.1930 C   0  0  0  0  0  0  0  0  0  0  0  0
   47.4824   30.9634   48.1443 C   0  0  0  0  0  0  0  0  0  0  0  0
   47.2639   31.7440   47.1154 N   0  0  0  0  0  0  0  0  0  0  0  0
   44.9640   34.9765   44.5640 C   0  0  0  0  0  0  0  0  0  0  0  0
   45.9338   34.8522   43.5416 C   0  0  0  0  0  0  0  0  0  0  0  0
   46.9953   33.9442   43.6859 C   0  0  0  0  0  0  0  0  0  0  0  0
   46.9762   33.2599   44.8302 N   0  0  0  0  0  0  0  0  0  0  0  0
   46.0740   33.3695   45.7915 C   0  0  0  0  0  0  0  0  0  0  0  0
   45.0734   34.2274   45.6521 N   0  0  0  0  0  0  0  0  0  0  0  0
   43.9017   35.9144   44.3632 N   0  0  0  0  0  0  0  0  0  0  0  0
   48.6737   30.1210   48.1933 C   0  0  0  0  0  0  0  0  0  0  0  0
   49.7793   30.4772   48.8460 C   0  0  0  0  0  0  0  0  0  0  0  0
   49.8964   31.7544   49.5765 C   0  0  0  0  0  0  0  0  0  0  0  0
   44.3808   33.2347   47.8897 H   0  0  0  0  0  0  0  0  0  0  0  0
   44.7015   31.7890   49.8887 H   0  0  0  0  0  0  0  0  0  0  0  0
   46.7289   30.3112   50.0442 H   0  0  0  0  0  0  0  0  0  0  0  0
   45.8450   35.4628   42.6544 H   0  0  0  0  0  0  0  0  0  0  0  0
   47.7420   33.8303   42.9283 H   0  0  0  0  0  0  0  0  0  0  0  0
   43.8605   36.5283   45.2159 H   0  0  0  0  0  0  0  0  0  0  0  0
   43.2815   35.9665   43.5077 H   0  0  0  0  0  0  0  0  0  0  0  0
   48.7004   29.1500   47.6864 H   0  0  0  0  0  0  0  0  0  0  0  0
   50.6398   29.7996   48.8446 H   0  0  0  0  0  0  0  0  0  0  0  0
   50.7853   32.3045   49.1630 H   0  0  0  0  0  0  0  0  0  0  0  0
   49.0231   32.3989   49.3954 H   0  0  0  0  0  0  0  0  0  0  0  0
   50.1717   31.5411   51.0244 C   0  0  0  0  0  0  0  0  0  0  0  0
   51.0757   30.6666   51.5066 C   0  0  0  0  0  0  0  0  0  0  0  0
   51.5113   30.2916   52.8775 C   0  0  0  0  0  0  0  0  0  0  0  0
   51.1979   31.0624   53.6196 H   0  0  0  0  0  0  0  0  0  0  0  0
   49.5664   32.1664   51.6743 H   0  0  0  0  0  0  0  0  0  0  0  0
   51.6068   30.1096   50.7319 H   0  0  0  0  0  0  0  0  0  0  0  0
   51.0315   29.3229   53.1854 H   0  0  0  0  0  0  0  0  0  0  0  0
   52.6103   30.2526   52.9116 H   0  0  0  0  0  0  0  0  0  0  0  0
  1  6  1  0
  1  2  2  0
  2  3  1  0
  3  4  2  0
  5 14  1  0
  5  4  1  0
  6  5  2  0
  7 12  2  0
  8  9  2  0
  8  7  1  0
  9 10  1  0
 10 11  2  0
 11  1  1  0
 12 11  1  0
 13  7  1  0
 14 15  2  0
 15 16  1  0
  2 17  1  0
  3 18  1  0
  4 19  1  0
  8 20  1  0
  9 21  1  0
 13 22  1  0
 13 23  1  0
 14 24  1  0
 15 25  1  0
 16 26  1  0
 16 27  1  0
 28 29  2  3
 29 30  1  0
 30 31  1  0
 28 32  1  0
 29 33  1  0
 30 34  1  0
 30 35  1  0
 16 28  1  0
M  ISO  8  17  14  18  14  19  14  20  14  21  14  26   8  27   8  31   8
M  END
>  <DihAtoms>  (1) 
14,15,27,28

>  <DihDeg>  (1) 
-120.00024090915745

$$$$
