
 OpenBabel03252509303D

 16 16  0  0  0  0  0  0  0  0999 V2000
   44.5630   35.9760   44.4750 C   0  0  0  0  0  0  0  0  0  0  0  0
   45.3480   35.9310   43.2900 C   0  0  0  0  0  0  0  0  0  0  0  0
   46.2700   34.9000   43.1710 C   0  0  0  0  0  0  0  0  0  0  0  0
   46.3800   33.9910   44.1780 N   0  0  0  0  0  0  0  0  0  0  0  0
   45.6040   34.0700   45.3010 C   0  0  0  0  0  0  0  0  0  0  0  0
   44.7080   35.0630   45.4300 N   0  0  0  0  0  0  0  0  0  0  0  0
   43.8350   36.7760   44.5860 H   0  0  0  0  0  0  0  0  0  0  0  0
   45.1800   36.7020   42.5540 H   0  0  0  0  0  0  0  0  0  0  0  0
   45.7960   33.2830   46.0200 H   0  0  0  0  0  0  0  0  0  0  0  0
   47.0700   34.8650   41.9530 C   0  0  0  0  0  0  0  0  0  0  0  0
   47.9710   34.2780   42.1540 H   0  0  0  0  0  0  0  0  0  0  0  0
   47.3260   35.8900   41.6250 H   0  0  0  0  0  0  0  0  0  0  0  0
   46.3640   34.2130   40.8060 C   0  0  0  0  0  3  0  0  0  0  0  0
   46.2070   32.9180   40.5460 C   0  0  0  0  0  3  0  0  0  0  0  0
   45.4870   32.3490   39.3740 C   0  0  0  0  0  2  0  0  0  0  0  0
   44.4700   31.9880   39.6440 H   0  0  0  0  0  0  0  0  0  0  0  0
  1  7  1  0  0  0  0
  1  6  1  0  0  0  0
  2  1  2  0  0  0  0
  3  2  1  0  0  0  0
  3  4  2  0  0  0  0
  4  5  1  0  0  0  0
  5  6  2  0  0  0  0
  5  9  1  0  0  0  0
  8  2  1  0  0  0  0
 10 11  1  0  0  0  0
 10  3  1  0  0  0  0
 12 10  1  0  0  0  0
 13 10  1  0  0  0  0
 14 13  2  0  0  0  0
 15 16  1  0  0  0  0
 15 14  1  0  0  0  0
M  END
>  <minimizedAffinity>
-3.31753802

>  <minimizedRMSD>
0.222250149

$$$$
