
 OpenBabel03242519323D

 43 45  0  0  0  0  0  0  0  0999 V2000
   47.9020   33.8500   42.8530 C   0  0  0  0  0  0  0  0  0  0  0  0
   48.5640   35.0960   42.6410 C   0  0  0  0  0  0  0  0  0  0  0  0
   49.9280   35.1140   42.3260 C   0  0  0  0  0  0  0  0  0  0  0  0
   50.5500   33.8940   42.2430 N   0  0  0  0  0  0  0  0  0  0  0  0
   49.8710   32.7190   42.4560 C   0  0  0  0  0  0  0  0  0  0  0  0
   48.5820   32.7180   42.7520 N   0  0  0  0  0  0  0  0  0  0  0  0
   48.1280   36.0840   42.6930 H   0  0  0  0  0  0  0  0  0  0  0  0
   50.4680   36.0140   42.1580 H   0  0  0  0  0  0  0  0  0  0  0  0
   46.4800   33.9750   43.1790 C   0  0  0  0  0  0  0  0  0  0  0  0
   45.7640   34.9800   42.4330 C   0  0  0  0  0  0  0  0  0  0  0  0
   45.2970   36.1320   43.2370 C   0  0  0  0  0  0  0  0  0  0  0  0
   44.4330   35.6640   44.4110 C   0  0  0  0  0  0  0  0  0  0  0  0
   44.9800   34.4770   45.1180 C   0  0  0  0  0  0  0  0  0  0  0  0
   46.4270   34.2080   44.7280 C   0  0  0  0  0  0  0  0  0  0  0  0
   46.0190   32.9510   43.0490 H   0  0  0  0  0  0  0  0  0  0  0  0
   46.4080   35.3980   41.6100 H   0  0  0  0  0  0  0  0  0  0  0  0
   44.8720   34.5660   41.9090 H   0  0  0  0  0  0  0  0  0  0  0  0
   46.0430   36.8000   43.6540 H   0  0  0  0  0  0  0  0  0  0  0  0
   44.6190   36.7750   42.6120 H   0  0  0  0  0  0  0  0  0  0  0  0
   43.4060   35.4850   44.0130 H   0  0  0  0  0  0  0  0  0  0  0  0
   44.3220   36.4840   45.1570 H   0  0  0  0  0  0  0  0  0  0  0  0
   44.4240   33.5370   44.8920 H   0  0  0  0  0  0  0  0  0  0  0  0
   44.9790   34.6010   46.2080 H   0  0  0  0  0  0  0  0  0  0  0  0
   46.7210   33.2420   45.1690 H   0  0  0  0  0  0  0  0  0  0  0  0
   47.0900   35.0520   44.9910 H   0  0  0  0  0  0  0  0  0  0  0  0
   50.7050   31.5300   42.3280 C   0  0  0  0  0  0  0  0  0  0  0  0
   51.3960   31.3320   41.1950 N   0  0  0  0  0  0  0  0  0  0  0  0
   52.0940   30.1720   41.3020 C   0  0  0  0  0  0  0  0  0  0  0  0
   51.8180   29.6630   42.5190 N   0  0  0  0  0  0  0  0  0  0  0  0
   50.9740   30.4810   43.1510 N   0  0  0  0  0  0  0  0  0  0  0  0
   52.7540   29.7320   40.5430 H   0  0  0  0  0  0  0  0  0  0  0  0
   52.3400   28.4490   43.1040 C   0  0  0  0  0  0  0  0  0  0  0  0
   52.3780   27.6080   42.4350 H   0  0  0  0  0  0  0  0  0  0  0  0
   51.6480   28.1400   43.9380 H   0  0  0  0  0  0  0  0  0  0  0  0
   53.6370   28.7180   43.7200 C   0  0  0  0  0  3  0  0  0  0  0  0
   54.1010   29.6190   44.5540 C   0  0  0  0  0  3  0  0  0  0  0  0
   55.4960   29.7250   45.1860 C   0  0  0  0  0  0  0  0  0  0  0  0
   55.6620   30.8200   45.2360 H   0  0  0  0  0  0  0  0  0  0  0  0
   55.4100   29.2530   46.1920 H   0  0  0  0  0  0  0  0  0  0  0  0
   56.4370   29.0650   44.2780 C   0  0  0  0  0  2  0  0  0  0  0  0
   57.3890   28.5280   43.5370 C   0  0  0  0  0  2  0  0  0  0  0  0
   57.4850   27.6340   42.3270 C   0  0  0  0  0  2  0  0  0  0  0  0
   56.4170   27.4540   41.9900 H   0  0  0  0  0  0  0  0  0  0  0  0
  1  9  1  0  0  0  0
  2  7  1  0  0  0  0
  2  1  2  0  0  0  0
  3  2  1  0  0  0  0
  4  3  2  0  0  0  0
  4  5  1  0  0  0  0
  5  6  2  0  0  0  0
  6  1  1  0  0  0  0
  8  3  1  0  0  0  0
  9 14  1  0  0  0  0
 10  9  1  0  0  0  0
 10 11  1  0  0  0  0
 11 18  1  0  0  0  0
 11 12  1  0  0  0  0
 12 13  1  0  0  0  0
 12 21  1  0  0  0  0
 13 23  1  0  0  0  0
 14 25  1  0  0  0  0
 14 13  1  0  0  0  0
 14 24  1  0  0  0  0
 15  9  1  0  0  0  0
 16 10  1  0  0  0  0
 17 10  1  0  0  0  0
 19 11  1  0  0  0  0
 20 12  1  0  0  0  0
 22 13  1  0  0  0  0
 26  5  1  0  0  0  0
 26 30  2  0  0  0  0
 27 28  2  0  0  0  0
 27 26  1  0  0  0  0
 28 29  1  0  0  0  0
 29 32  1  0  0  0  0
 29 30  1  0  0  0  0
 31 28  1  0  0  0  0
 32 35  1  0  0  0  0
 32 34  1  0  0  0  0
 33 32  1  0  0  0  0
 35 36  2  0  0  0  0
 36 37  1  0  0  0  0
 37 38  1  0  0  0  0
 37 39  1  0  0  0  0
 40 37  1  0  0  0  0
 41 40  1  0  0  0  0
 42 41  1  0  0  0  0
 43 42  1  0  0  0  0
M  END
>  <minimizedAffinity>
-3.8558228

>  <minimizedRMSD>
0.211776361

$$$$
