
 OpenBabel03242520133D

 29 30  0  0  0  0  0  0  0  0999 V2000
   46.1680   32.5830   46.8970 C   0  0  0  0  0  0  0  0  0  0  0  0
   45.3220   32.6670   47.9500 C   0  0  0  0  0  0  0  0  0  0  0  0
   45.5310   31.8300   49.0270 C   0  0  0  0  0  0  0  0  0  0  0  0
   46.5800   30.9260   49.0320 C   0  0  0  0  0  0  0  0  0  0  0  0
   47.4310   30.8720   47.9180 C   0  0  0  0  0  0  0  0  0  0  0  0
   47.2040   31.6820   46.9130 N   0  0  0  0  0  0  0  0  0  0  0  0
   44.5140   33.3890   47.9070 H   0  0  0  0  0  0  0  0  0  0  0  0
   44.8600   31.8960   49.8670 H   0  0  0  0  0  0  0  0  0  0  0  0
   46.7660   30.2580   49.8630 H   0  0  0  0  0  0  0  0  0  0  0  0
   44.9220   35.0370   44.5080 C   0  0  0  0  0  0  0  0  0  0  0  0
   45.8780   34.9350   43.4700 C   0  0  0  0  0  0  0  0  0  0  0  0
   46.9450   34.0300   43.5830 C   0  0  0  0  0  0  0  0  0  0  0  0
   46.9460   33.3260   44.7160 N   0  0  0  0  0  0  0  0  0  0  0  0
   46.0570   33.4150   45.6910 C   0  0  0  0  0  0  0  0  0  0  0  0
   45.0500   34.2690   45.5810 N   0  0  0  0  0  0  0  0  0  0  0  0
   43.8530   35.9720   44.3380 N   0  0  0  0  0  0  0  0  0  0  0  0
   45.7730   35.5600   42.5940 H   0  0  0  0  0  0  0  0  0  0  0  0
   47.6820   33.9320   42.8130 H   0  0  0  0  0  0  0  0  0  0  0  0
   43.8210   36.5710   45.2020 H   0  0  0  0  0  0  0  0  0  0  0  0
   43.2200   36.0370   43.4930 H   0  0  0  0  0  0  0  0  0  0  0  0
   48.5510   29.9370   47.8740 C   0  0  0  0  0  0  0  0  0  0  0  0
   49.6750   30.1290   48.5630 C   0  0  0  0  0  0  0  0  0  0  0  0
   49.8880   31.3040   49.4300 C   0  0  0  0  0  0  0  0  0  0  0  0
   50.7200   31.9130   48.9820 H   0  0  0  0  0  0  0  0  0  0  0  0
   49.0010   31.9560   49.4410 H   0  0  0  0  0  0  0  0  0  0  0  0
   50.3410   30.9130   50.7920 C   0  0  0  0  0  0  0  0  0  0  0  0
   50.4300   29.6410   51.2290 C   0  0  0  0  0  0  0  0  0  0  0  0
   50.8460   29.0250   52.5160 C   0  0  0  0  0  0  0  0  0  0  0  0
   51.4210   29.7510   53.1370 H   0  0  0  0  0  0  0  0  0  0  0  0
  1  6  2  0  0  0  0
  1  2  1  0  0  0  0
  2  3  2  0  0  0  0
  3  4  1  0  0  0  0
  3  8  1  0  0  0  0
  4  9  1  0  0  0  0
  5  4  2  0  0  0  0
  6  5  1  0  0  0  0
  7  2  1  0  0  0  0
 10 15  1  0  0  0  0
 11 12  1  0  0  0  0
 11 10  2  0  0  0  0
 12 13  2  0  0  0  0
 13 14  1  0  0  0  0
 14  1  1  0  0  0  0
 15 14  2  0  0  0  0
 16 10  1  0  0  0  0
 16 19  1  0  0  0  0
 17 11  1  0  0  0  0
 18 12  1  0  0  0  0
 20 16  1  0  0  0  0
 21  5  1  0  0  0  0
 21 22  2  0  0  0  0
 22 23  1  0  0  0  0
 23 25  1  0  0  0  0
 23 26  1  0  0  0  0
 24 23  1  0  0  0  0
 26 27  2  0  0  0  0
 27 28  1  0  0  0  0
 28 29  1  0  0  0  0
M  END
>  <minimizedAffinity>
-6.00533342

>  <minimizedRMSD>
0.442635596

$$$$
