
 OpenBabel03242519323D

 43 45  0  0  0  0  0  0  0  0999 V2000
   47.9010   33.8500   42.8540 C   0  0  0  0  0  0  0  0  0  0  0  0
   48.5630   35.0960   42.6400 C   0  0  0  0  0  0  0  0  0  0  0  0
   49.9270   35.1130   42.3260 C   0  0  0  0  0  0  0  0  0  0  0  0
   50.5490   33.8940   42.2430 N   0  0  0  0  0  0  0  0  0  0  0  0
   49.8710   32.7180   42.4570 C   0  0  0  0  0  0  0  0  0  0  0  0
   48.5820   32.7180   42.7530 N   0  0  0  0  0  0  0  0  0  0  0  0
   48.1280   36.0840   42.6930 H   0  0  0  0  0  0  0  0  0  0  0  0
   50.4680   36.0130   42.1570 H   0  0  0  0  0  0  0  0  0  0  0  0
   46.4800   33.9750   43.1790 C   0  0  0  0  0  0  0  0  0  0  0  0
   45.7640   34.9800   42.4340 C   0  0  0  0  0  0  0  0  0  0  0  0
   45.2970   36.1320   43.2370 C   0  0  0  0  0  0  0  0  0  0  0  0
   44.4330   35.6650   44.4110 C   0  0  0  0  0  0  0  0  0  0  0  0
   44.9800   34.4770   45.1180 C   0  0  0  0  0  0  0  0  0  0  0  0
   46.4270   34.2080   44.7280 C   0  0  0  0  0  0  0  0  0  0  0  0
   46.0180   32.9510   43.0490 H   0  0  0  0  0  0  0  0  0  0  0  0
   46.4080   35.3980   41.6100 H   0  0  0  0  0  0  0  0  0  0  0  0
   44.8720   34.5660   41.9100 H   0  0  0  0  0  0  0  0  0  0  0  0
   46.0430   36.8000   43.6540 H   0  0  0  0  0  0  0  0  0  0  0  0
   44.6190   36.7760   42.6120 H   0  0  0  0  0  0  0  0  0  0  0  0
   43.4060   35.4860   44.0140 H   0  0  0  0  0  0  0  0  0  0  0  0
   44.3220   36.4840   45.1570 H   0  0  0  0  0  0  0  0  0  0  0  0
   44.4240   33.5370   44.8930 H   0  0  0  0  0  0  0  0  0  0  0  0
   44.9790   34.6010   46.2080 H   0  0  0  0  0  0  0  0  0  0  0  0
   46.7210   33.2420   45.1700 H   0  0  0  0  0  0  0  0  0  0  0  0
   47.0900   35.0520   44.9910 H   0  0  0  0  0  0  0  0  0  0  0  0
   50.7040   31.5290   42.3290 C   0  0  0  0  0  0  0  0  0  0  0  0
   51.3950   31.3310   41.1960 N   0  0  0  0  0  0  0  0  0  0  0  0
   52.0930   30.1700   41.3030 C   0  0  0  0  0  0  0  0  0  0  0  0
   51.8170   29.6620   42.5200 N   0  0  0  0  0  0  0  0  0  0  0  0
   50.9740   30.4800   43.1520 N   0  0  0  0  0  0  0  0  0  0  0  0
   52.7530   29.7310   40.5440 H   0  0  0  0  0  0  0  0  0  0  0  0
   52.3390   28.4490   43.1050 C   0  0  0  0  0  0  0  0  0  0  0  0
   52.3760   27.6070   42.4370 H   0  0  0  0  0  0  0  0  0  0  0  0
   51.6470   28.1400   43.9400 H   0  0  0  0  0  0  0  0  0  0  0  0
   53.6360   28.7170   43.7220 C   0  0  0  0  0  3  0  0  0  0  0  0
   54.1010   29.6190   44.5540 C   0  0  0  0  0  3  0  0  0  0  0  0
   55.4960   29.7240   45.1850 C   0  0  0  0  0  0  0  0  0  0  0  0
   55.6630   30.8200   45.2350 H   0  0  0  0  0  0  0  0  0  0  0  0
   55.4100   29.2530   46.1920 H   0  0  0  0  0  0  0  0  0  0  0  0
   56.4360   29.0640   44.2780 C   0  0  0  0  0  2  0  0  0  0  0  0
   57.3880   28.5280   43.5360 C   0  0  0  0  0  2  0  0  0  0  0  0
   57.4840   27.6330   42.3270 C   0  0  0  0  0  2  0  0  0  0  0  0
   56.4150   27.4510   41.9920 H   0  0  0  0  0  0  0  0  0  0  0  0
  1  9  1  0  0  0  0
  2  7  1  0  0  0  0
  2  1  2  0  0  0  0
  3  2  1  0  0  0  0
  4  3  2  0  0  0  0
  4  5  1  0  0  0  0
  5  6  2  0  0  0  0
  6  1  1  0  0  0  0
  8  3  1  0  0  0  0
  9 14  1  0  0  0  0
 10  9  1  0  0  0  0
 10 11  1  0  0  0  0
 11 18  1  0  0  0  0
 11 12  1  0  0  0  0
 12 13  1  0  0  0  0
 12 21  1  0  0  0  0
 13 23  1  0  0  0  0
 14 25  1  0  0  0  0
 14 13  1  0  0  0  0
 14 24  1  0  0  0  0
 15  9  1  0  0  0  0
 16 10  1  0  0  0  0
 17 10  1  0  0  0  0
 19 11  1  0  0  0  0
 20 12  1  0  0  0  0
 22 13  1  0  0  0  0
 26  5  1  0  0  0  0
 26 30  2  0  0  0  0
 27 28  2  0  0  0  0
 27 26  1  0  0  0  0
 28 29  1  0  0  0  0
 29 32  1  0  0  0  0
 29 30  1  0  0  0  0
 31 28  1  0  0  0  0
 32 35  1  0  0  0  0
 32 34  1  0  0  0  0
 33 32  1  0  0  0  0
 35 36  2  0  0  0  0
 36 37  1  0  0  0  0
 37 38  1  0  0  0  0
 37 39  1  0  0  0  0
 40 37  1  0  0  0  0
 41 40  1  0  0  0  0
 42 41  1  0  0  0  0
 43 42  1  0  0  0  0
M  END
>  <minimizedAffinity>
-3.85591269

>  <minimizedRMSD>
0.361822367

$$$$
