
 OpenBabel03252508473D

 40 41  0  0  0  0  0  0  0  0999 V2000
   43.0810   32.5510   41.6270 C   0  0  0  0  0  0  0  0  0  0  0  0
   43.6920   32.0530   40.8320 H   0  0  0  0  0  0  0  0  0  0  0  0
   42.2080   32.9970   41.1410 H   0  0  0  0  0  0  0  0  0  0  0  0
   43.6700   34.9750   41.8840 C   0  0  0  0  0  0  0  0  0  0  0  0
   43.9300   33.6380   42.1810 C   0  0  0  0  0  0  0  0  0  0  0  0
   45.0060   33.3640   43.0050 C   0  0  0  0  0  0  0  0  0  0  0  0
   45.7720   34.3750   43.5010 C   0  0  0  0  0  0  0  0  0  0  0  0
   45.5330   35.6910   43.2230 C   0  0  0  0  0  0  0  0  0  0  0  0
   44.4530   35.9340   42.3970 C   0  0  0  0  0  0  0  0  0  0  0  0
   45.2350   32.3470   43.2540 H   0  0  0  0  0  0  0  0  0  0  0  0
   46.6110   34.1210   44.1480 H   0  0  0  0  0  0  0  0  0  0  0  0
   46.1320   36.5110   43.6080 H   0  0  0  0  0  0  0  0  0  0  0  0
   44.2330   36.9750   42.1530 H   0  0  0  0  0  0  0  0  0  0  0  0
   40.2300   35.8000   40.5200 C   0  0  0  0  0  0  0  0  0  0  0  0
   41.2670   35.5900   41.4530 C   0  0  0  0  0  0  0  0  0  0  0  0
   42.5240   35.2190   41.0080 C   0  0  0  0  0  0  0  0  0  0  0  0
   42.6970   35.0740   39.6680 N   0  0  0  0  0  0  0  0  0  0  0  0
   41.6880   35.2800   38.7810 C   0  0  0  0  0  0  0  0  0  0  0  0
   40.4630   35.6430   39.2240 N   0  0  0  0  0  0  0  0  0  0  0  0
   39.2790   36.0880   40.9550 H   0  0  0  0  0  0  0  0  0  0  0  0
   41.1520   35.6990   42.5270 H   0  0  0  0  0  0  0  0  0  0  0  0
   41.9500   35.1340   37.7470 H   0  0  0  0  0  0  0  0  0  0  0  0
   42.7180   31.5480   42.5900 N   0  0  0  0  0  0  0  0  0  0  0  0
   43.2930   30.6820   42.5120 H   0  0  0  0  0  0  0  0  0  0  0  0
   41.0510   31.1700   42.5260 S   0  0  0  0  0  0  0  0  0  0  0  0
   40.2200   32.4360   42.4920 O   0  0  0  0  0  0  0  0  0  0  0  0
   39.3700   32.5920   42.9750 H   0  0  0  0  0  0  0  0  0  0  0  0
   40.6560   30.3280   43.6990 O   0  0  0  0  0  0  0  0  0  0  0  0
   41.2900   29.7860   44.2550 H   0  0  0  0  0  0  0  0  0  0  0  0
   40.7650   30.3150   41.1150 O   0  0  0  0  0  0  0  0  0  0  0  0
   39.6000   29.5820   41.2930 C   0  0  0  0  0  0  0  0  0  0  0  0
   38.8550   29.9810   40.5520 H   0  0  0  0  0  0  0  0  0  0  0  0
   39.2040   29.5720   42.3060 H   0  0  0  0  0  0  0  0  0  0  0  0
   39.8410   28.1340   40.8180 C   0  0  0  0  0  0  0  0  0  0  0  0
   39.0830   27.8440   40.0730 H   0  0  0  0  0  0  0  0  0  0  0  0
   40.8750   28.0330   40.4340 H   0  0  0  0  0  0  0  0  0  0  0  0
   39.7330   27.3070   42.0530 C   0  0  0  0  0  3  0  0  0  0  0  0
   40.7420   26.8850   42.7680 C   0  0  0  0  0  3  0  0  0  0  0  0
   42.1210   27.2180   42.3750 C   0  0  0  0  0  2  0  0  0  0  0  0
   42.7810   27.1150   43.2850 H   0  0  0  0  0  0  0  0  0  0  0  0
  1  5  1  0  0  0  0
  1 23  1  0  0  0  0
  2  1  1  0  0  0  0
  3  1  1  0  0  0  0
  4  5  2  0  0  0  0
  4  9  1  0  0  0  0
  5  6  1  0  0  0  0
  6 10  1  0  0  0  0
  6  7  2  0  0  0  0
  7 11  1  0  0  0  0
  8  7  1  0  0  0  0
  8 12  1  0  0  0  0
  9  8  2  0  0  0  0
 13  9  1  0  0  0  0
 14 20  1  0  0  0  0
 14 15  1  0  0  0  0
 15 21  1  0  0  0  0
 16 15  2  0  0  0  0
 16  4  1  0  0  0  0
 17 16  1  0  0  0  0
 18 19  1  0  0  0  0
 18 17  2  0  0  0  0
 19 14  2  0  0  0  0
 22 18  1  0  0  0  0
 24 23  1  0  0  0  0
 25 23  1  0  0  0  0
 25 28  1  0  0  0  0
 26 25  1  0  0  0  0
 26 27  1  0  0  0  0
 28 29  1  0  0  0  0
 30 31  1  0  0  0  0
 30 25  1  0  0  0  0
 31 33  1  0  0  0  0
 32 31  1  0  0  0  0
 34 31  1  0  0  0  0
 34 37  1  0  0  0  0
 35 34  1  0  0  0  0
 36 34  1  0  0  0  0
 37 38  2  0  0  0  0
 39 38  1  0  0  0  0
 39 40  1  0  0  0  0
M  END
>  <minimizedAffinity>
-4.71191502

>  <minimizedRMSD>
0.565205812

$$$$
