REMARK  Name = 
REMARK  11 active torsions:
REMARK  status: ('A' for Active; 'I' for Inactive)
REMARK    1  A    between atoms: C_1  and  C_9
REMARK    2  A    between atoms: C_2  and  C_13
REMARK    3  A    between atoms: C_13  and  N_14
REMARK    4  A    between atoms: N_14  and  S_15
REMARK    5  A    between atoms: S_15  and  O_16
REMARK    6  A    between atoms: S_15  and  O_17
REMARK    7  A    between atoms: S_15  and  O_18
REMARK    8  A    between atoms: O_18  and  C_19
REMARK    9  A    between atoms: C_19  and  C_20
REMARK   10  A    between atoms: C_20  and  C_37
REMARK   11  A    between atoms: C_38  and  C_39
REMARK                            x       y       z     vdW  Elec       q    Type
REMARK                         _______ _______ _______ _____ _____    ______ ____
ROOT
ATOM      1  C   UNL     1      43.044  32.540  41.630  0.00  0.00    +0.000 C 
ATOM      2  H   UNL     1      43.638  32.058  40.812  0.00  0.00    +0.000 HD
ATOM      3  H   UNL     1      42.159  32.992  41.172  0.00  0.00    +0.000 HD
ENDROOT
BRANCH   1   5
ATOM      4  C   UNL     1      43.657  34.959  41.883  0.00  0.00    +0.000 A 
ATOM      5  C   UNL     1      43.904  33.620  42.182  0.00  0.00    +0.000 A 
ATOM      6  C   UNL     1      44.976  33.337  43.008  0.00  0.00    +0.000 A 
ATOM      7  C   UNL     1      45.752  34.341  43.503  0.00  0.00    +0.000 A 
ATOM      8  C   UNL     1      45.526  35.659  43.222  0.00  0.00    +0.000 A 
ATOM      9  C   UNL     1      44.449  35.911  42.395  0.00  0.00    +0.000 A 
ATOM     10  H   UNL     1      45.195  32.318  43.258  0.00  0.00    +0.000 HD
ATOM     11  H   UNL     1      46.588  34.080  44.151  0.00  0.00    +0.000 HD
ATOM     12  H   UNL     1      46.132  36.473  43.606  0.00  0.00    +0.000 HD
ATOM     13  H   UNL     1      44.239  36.954  42.149  0.00  0.00    +0.000 HD
BRANCH   4  16
ATOM     14  C   UNL     1      40.223  35.804  40.516  0.00  0.00    +0.000 A 
ATOM     15  C   UNL     1      41.257  35.584  41.450  0.00  0.00    +0.000 A 
ATOM     16  C   UNL     1      42.514  35.212  41.006  0.00  0.00    +0.000 A 
ATOM     17  N   UNL     1      42.690  35.076  39.665  0.00  0.00    +0.000 NA
ATOM     18  C   UNL     1      41.684  35.292  38.777  0.00  0.00    +0.000 A 
ATOM     19  N   UNL     1      40.459  35.655  39.219  0.00  0.00    +0.000 NA
ATOM     20  H   UNL     1      39.272  36.092  40.950  0.00  0.00    +0.000 HD
ATOM     21  H   UNL     1      41.140  35.686  42.524  0.00  0.00    +0.000 HD
ATOM     22  H   UNL     1      41.948  35.152  37.743  0.00  0.00    +0.000 HD
ENDBRANCH   4  16
ENDBRANCH   1   5
BRANCH   1  23
ATOM     23  N   UNL     1      42.706  31.520  42.583  0.00  0.00    +0.000 NA
ATOM     24  H   UNL     1      43.283  30.658  42.479  0.00  0.00    +0.000 HD
BRANCH  23  25
ATOM     25  S   UNL     1      41.040  31.135  42.548  0.00  0.00    +0.000 S 
BRANCH  25  26
ATOM     26  O   UNL     1      40.205  32.395  42.444  0.00  0.00    +0.000 OA
ATOM     27  H   UNL     1      39.357  32.577  42.920  0.00  0.00    +0.000 HD
ENDBRANCH  25  26
BRANCH  25  28
ATOM     28  O   UNL     1      40.651  30.361  43.769  0.00  0.00    +0.000 OA
ATOM     29  H   UNL     1      41.289  29.854  44.353  0.00  0.00    +0.000 HD
ENDBRANCH  25  28
BRANCH  25  30
ATOM     30  O   UNL     1      40.751  30.199  41.190  0.00  0.00    +0.000 OA
BRANCH  30  31
ATOM     31  C   UNL     1      40.078  29.056  41.599  0.00  0.00    +0.000 C 
ATOM     32  H   UNL     1      39.179  28.957  40.932  0.00  0.00    +0.000 HD
ATOM     33  H   UNL     1      39.811  29.023  42.653  0.00  0.00    +0.000 HD
BRANCH  31  34
ATOM     34  C   UNL     1      40.929  27.819  41.243  0.00  0.00    +0.000 C 
ATOM     35  H   UNL     1      41.099  27.772  40.155  0.00  0.00    +0.000 HD
ATOM     36  H   UNL     1      41.874  27.836  41.821  0.00  0.00    +0.000 HD
BRANCH  34  37
ATOM     37  C   UNL     1      40.127  26.657  41.718  0.00  0.00    +0.000 C 
ATOM     38  C   UNL     1      40.599  25.639  42.388  0.00  0.00    +0.000 C 
BRANCH  38  39
ATOM     39  C   UNL     1      42.030  25.575  42.731  0.00  0.00    +0.000 C 
ATOM     40  H   UNL     1      42.151  24.869  43.603  0.00  0.00    +0.000 HD
ENDBRANCH  38  39
ENDBRANCH  34  37
ENDBRANCH  31  34
ENDBRANCH  30  31
ENDBRANCH  25  30
ENDBRANCH  23  25
ENDBRANCH   1  23
TORSDOF 11
