REMARK  Name = 
REMARK  6 active torsions:
REMARK  status: ('A' for Active; 'I' for Inactive)
REMARK    1  A    between atoms: C_2  and  C_14
REMARK    2  A    between atoms: C_5  and  C_8
REMARK    3  A    between atoms: C_7  and  O_12
REMARK    4  A    between atoms: C_11  and  O_13
REMARK    5  A    between atoms: C_14  and  C_26
REMARK    6  A    between atoms: C_27  and  C_28
REMARK                            x       y       z     vdW  Elec       q    Type
REMARK                         _______ _______ _______ _____ _____    ______ ____
ROOT
ATOM      1  C   UNL     1      44.649  35.372  45.204  0.00  0.00    +0.000 A 
ATOM      2  C   UNL     1      45.389  35.232  44.016  0.00  0.00    +0.000 A 
ATOM      3  C   UNL     1      46.239  34.118  43.938  0.00  0.00    +0.000 A 
ATOM      4  N   UNL     1      46.298  33.270  44.969  0.00  0.00    +0.000 NA
ATOM      5  C   UNL     1      45.575  33.438  46.086  0.00  0.00    +0.000 A 
ATOM      6  N   UNL     1      44.745  34.491  46.213  0.00  0.00    +0.000 NA
ATOM      7  H   UNL     1      43.971  36.204  45.345  0.00  0.00    +0.000 HD
ATOM      8  H   UNL     1      46.782  34.045  43.030  0.00  0.00    +0.000 HD
ENDROOT
BRANCH   5  10
ATOM      9  C   UNL     1      47.196  32.138  47.483  0.00  0.00    +0.000 C 
ATOM     10  C   UNL     1      45.717  32.425  47.130  0.00  0.00    +0.000 C 
ATOM     11  O   UNL     1      45.228  32.779  48.357  0.00  0.00    +0.000 OA
ATOM     12  C   UNL     1      45.722  31.873  49.258  0.00  0.00    +0.000 C 
ATOM     13  C   UNL     1      46.925  31.186  48.661  0.00  0.00    +0.000 C 
ATOM     14  H   UNL     1      47.722  31.657  46.660  0.00  0.00    +0.000 HD
ATOM     15  H   UNL     1      45.292  31.482  46.735  0.00  0.00    +0.000 HD
ATOM     16  H   UNL     1      46.071  32.352  50.199  0.00  0.00    +0.000 HD
ATOM     17  H   UNL     1      44.927  31.166  49.550  0.00  0.00    +0.000 HD
ATOM     18  H   UNL     1      46.608  30.235  48.217  0.00  0.00    +0.000 HD
BRANCH   9  19
ATOM     19  O   UNL     1      47.734  33.265  48.009  0.00  0.00    +0.000 OA
ATOM     20  H   UNL     1      47.650  34.082  47.443  0.00  0.00    +0.000 HD
ENDBRANCH   9  19
BRANCH  13  21
ATOM     21  O   UNL     1      48.002  31.084  49.508  0.00  0.00    +0.000 OA
ATOM     22  H   UNL     1      47.663  31.313  50.419  0.00  0.00    +0.000 HD
ENDBRANCH  13  21
ENDBRANCH   5  10
BRANCH   2  23
ATOM     23  C   UNL     1      45.177  36.258  42.975  0.00  0.00    +0.000 C 
ATOM     24  H   UNL     1      44.953  37.217  43.493  0.00  0.00    +0.000 HD
ATOM     25  H   UNL     1      46.139  36.465  42.429  0.00  0.00    +0.000 HD
BRANCH  23  26
ATOM     26  C   UNL     1      44.093  35.873  42.042  0.00  0.00    +0.000 C 
ATOM     27  C   UNL     1      43.251  34.881  41.842  0.00  0.00    +0.000 C 
BRANCH  27  28
ATOM     28  C   UNL     1      42.956  33.585  42.493  0.00  0.00    +0.000 C 
ATOM     29  H   UNL     1      43.481  33.410  43.442  0.00  0.00    +0.000 HD
ENDBRANCH  27  28
ENDBRANCH  23  26
ENDBRANCH   2  23
TORSDOF 6
