REMARK  Name = 
REMARK  9 active torsions:
REMARK  status: ('A' for Active; 'I' for Inactive)
REMARK    1  A    between atoms: C_1  and  C_3
REMARK    2  A    between atoms: C_1  and  N_12
REMARK    3  A    between atoms: C_4  and  C_8
REMARK    4  A    between atoms: N_12  and  C_13
REMARK    5  A    between atoms: C_13  and  C_14
REMARK    6  A    between atoms: C_14  and  S_15
REMARK    7  A    between atoms: C_14  and  C_28
REMARK    8  A    between atoms: S_15  and  C_16
REMARK    9  A    between atoms: C_29  and  C_30
REMARK                            x       y       z     vdW  Elec       q    Type
REMARK                         _______ _______ _______ _____ _____    ______ ____
ROOT
ATOM      1  N   UNL     1      44.809  37.743  44.417  0.00  0.00    +0.000 NA
ATOM      2  H   UNL     1      43.886  38.222  44.518  0.00  0.00    +0.000 HD
ENDROOT
BRANCH   1   3
ATOM      3  C   UNL     1      44.763  36.600  43.530  0.00  0.00    +0.000 C 
ATOM      4  H   UNL     1      45.221  36.851  42.576  0.00  0.00    +0.000 HD
ATOM      5  H   UNL     1      43.667  36.444  43.296  0.00  0.00    +0.000 HD
BRANCH   3   7
ATOM      6  C   UNL     1      44.816  35.116  45.480  0.00  0.00    +0.000 A 
ATOM      7  C   UNL     1      45.222  35.388  44.185  0.00  0.00    +0.000 A 
ATOM      8  C   UNL     1      46.058  34.470  43.578  0.00  0.00    +0.000 A 
ATOM      9  N   UNL     1      46.438  33.352  44.276  0.00  0.00    +0.000 NA
ATOM     10  C   UNL     1      46.026  33.119  45.531  0.00  0.00    +0.000 A 
ATOM     11  N   UNL     1      45.200  34.025  46.132  0.00  0.00    +0.000 NA
ATOM     12  H   UNL     1      44.157  35.790  46.030  0.00  0.00    +0.000 HD
ATOM     13  H   UNL     1      46.303  32.260  46.101  0.00  0.00    +0.000 HD
BRANCH   8  14
ATOM     14  C   UNL     1      46.470  34.785  42.205  0.00  0.00    +0.000 C 
ATOM     15  F   UNL     1      47.193  33.715  41.694  0.00  0.00    +0.000 F 
ATOM     16  F   UNL     1      47.337  35.849  42.301  0.00  0.00    +0.000 F 
ATOM     17  F   UNL     1      45.415  34.950  41.390  0.00  0.00    +0.000 F 
ENDBRANCH   8  14
ENDBRANCH   3   7
ENDBRANCH   1   3
BRANCH   1  18
ATOM     18  C   UNL     1      45.712  38.724  43.826  0.00  0.00    +0.000 C 
ATOM     19  H   UNL     1      45.737  38.555  42.733  0.00  0.00    +0.000 HD
ATOM     20  H   UNL     1      46.726  38.639  44.209  0.00  0.00    +0.000 HD
BRANCH  18  21
ATOM     21  C   UNL     1      45.165  40.124  44.030  0.00  0.00    +0.000 C 
ATOM     22  H   UNL     1      44.180  40.230  43.515  0.00  0.00    +0.000 HD
BRANCH  21  23
ATOM     23  C   UNL     1      46.102  41.093  43.447  0.00  0.00    +0.000 C 
ATOM     24  C   UNL     1      45.912  42.412  43.361  0.00  0.00    +0.000 C 
BRANCH  24  25
ATOM     25  C   UNL     1      44.725  43.171  43.831  0.00  0.00    +0.000 C 
ATOM     26  H   UNL     1      45.051  44.160  44.219  0.00  0.00    +0.000 HD
ENDBRANCH  24  25
ENDBRANCH  21  23
BRANCH  21  27
ATOM     27  S   UNL     1      45.016  40.392  45.807  0.00  0.00    +0.000 S 
BRANCH  27  28
ATOM     28  C   UNL     1      44.215  42.017  46.056  0.00  0.00    +0.000 C 
ATOM     29  F   UNL     1      44.409  42.382  47.365  0.00  0.00    +0.000 F 
ATOM     30  F   UNL     1      42.878  41.982  45.714  0.00  0.00    +0.000 F 
ATOM     31  F   UNL     1      44.905  42.949  45.291  0.00  0.00    +0.000 F 
ENDBRANCH  27  28
ENDBRANCH  21  27
ENDBRANCH  18  21
ENDBRANCH   1  18
TORSDOF 9
