
 OpenBabel03242520133D

 29 30  0  0  0  0  0  0  0  0999 V2000
   46.1440   32.5730   46.9600 C   0  0  0  0  0  0  0  0  0  0  0  0
   45.2400   32.6120   47.9660 C   0  0  0  0  0  0  0  0  0  0  0  0
   45.4390   31.7910   49.0580 C   0  0  0  0  0  0  0  0  0  0  0  0
   46.5360   30.9490   49.1240 C   0  0  0  0  0  0  0  0  0  0  0  0
   47.4470   30.9410   48.0570 C   0  0  0  0  0  0  0  0  0  0  0  0
   47.2270   31.7330   47.0370 N   0  0  0  0  0  0  0  0  0  0  0  0
   44.3950   33.2870   47.8760 H   0  0  0  0  0  0  0  0  0  0  0  0
   44.7210   31.8220   49.8600 H   0  0  0  0  0  0  0  0  0  0  0  0
   46.7150   30.2960   49.9680 H   0  0  0  0  0  0  0  0  0  0  0  0
   44.9380   35.0130   44.5360 C   0  0  0  0  0  0  0  0  0  0  0  0
   45.9020   34.8930   43.5070 C   0  0  0  0  0  0  0  0  0  0  0  0
   46.9610   33.9810   43.6390 C   0  0  0  0  0  0  0  0  0  0  0  0
   46.9470   33.2890   44.7780 N   0  0  0  0  0  0  0  0  0  0  0  0
   46.0500   33.3940   45.7450 C   0  0  0  0  0  0  0  0  0  0  0  0
   45.0510   34.2550   45.6180 N   0  0  0  0  0  0  0  0  0  0  0  0
   43.8780   35.9550   44.3470 N   0  0  0  0  0  0  0  0  0  0  0  0
   45.8100   35.5100   42.6240 H   0  0  0  0  0  0  0  0  0  0  0  0
   47.7040   33.8700   42.8760 H   0  0  0  0  0  0  0  0  0  0  0  0
   43.8440   36.5630   45.2050 H   0  0  0  0  0  0  0  0  0  0  0  0
   43.2530   36.0160   43.4960 H   0  0  0  0  0  0  0  0  0  0  0  0
   48.6190   30.0720   48.0790 C   0  0  0  0  0  3  0  0  0  0  0  0
   49.7240   30.3720   48.7590 C   0  0  0  0  0  3  0  0  0  0  0  0
   49.8610   31.6100   49.5510 C   0  0  0  0  0  0  0  0  0  0  0  0
   50.5370   32.3050   48.9830 H   0  0  0  0  0  0  0  0  0  0  0  0
   48.8960   32.1300   49.6470 H   0  0  0  0  0  0  0  0  0  0  0  0
   50.5220   31.3600   50.8610 C   0  0  0  0  0  3  0  0  0  0  0  0
   50.7720   30.1370   51.3670 C   0  0  0  0  0  3  0  0  0  0  0  0
   51.4050   29.6550   52.6230 C   0  0  0  0  0  2  0  0  0  0  0  0
   51.9960   30.4670   53.1070 H   0  0  0  0  0  0  0  0  0  0  0  0
  1  6  2  0  0  0  0
  1  2  1  0  0  0  0
  2  3  2  0  0  0  0
  3  4  1  0  0  0  0
  3  8  1  0  0  0  0
  4  9  1  0  0  0  0
  5 21  1  0  0  0  0
  5  4  2  0  0  0  0
  6  5  1  0  0  0  0
  7  2  1  0  0  0  0
 10 15  1  0  0  0  0
 11 12  1  0  0  0  0
 11 10  2  0  0  0  0
 12 13  2  0  0  0  0
 13 14  1  0  0  0  0
 14  1  1  0  0  0  0
 15 14  2  0  0  0  0
 16 10  1  0  0  0  0
 16 19  1  0  0  0  0
 17 11  1  0  0  0  0
 18 12  1  0  0  0  0
 20 16  1  0  0  0  0
 21 22  2  0  0  0  0
 22 23  1  0  0  0  0
 23 25  1  0  0  0  0
 23 26  1  0  0  0  0
 24 23  1  0  0  0  0
 26 27  2  0  0  0  0
 27 28  1  0  0  0  0
 28 29  1  0  0  0  0
M  END
>  <minimizedAffinity>
-5.97224712

>  <minimizedRMSD>
0.432448864

$$$$
