
 OpenBabel03242523423D

 19 19  0  0  1  0  0  0  0  0999 V2000
   46.5690   35.1460   42.0760 C   0  0  1  0  0  0  0  0  0  0  0  0
   46.1900   36.1770   41.9510 H   0  0  0  0  0  0  0  0  0  0  0  0
   45.1900   35.2790   44.1010 C   0  0  0  0  0  0  0  0  0  0  0  0
   46.2530   34.6790   43.3960 C   0  0  0  0  0  0  0  0  0  0  0  0
   46.9340   33.6380   44.0220 C   0  0  0  0  0  0  0  0  0  0  0  0
   46.5430   33.2540   45.2760 N   0  0  0  0  0  0  0  0  0  0  0  0
   45.5210   33.8520   45.9170 C   0  0  0  0  0  0  0  0  0  0  0  0
   44.8320   34.8720   45.3370 N   0  0  0  0  0  0  0  0  0  0  0  0
   44.5970   36.0930   43.7090 H   0  0  0  0  0  0  0  0  0  0  0  0
   47.7510   33.1510   43.5260 H   0  0  0  0  0  0  0  0  0  0  0  0
   45.2090   33.5450   46.9130 H   0  0  0  0  0  0  0  0  0  0  0  0
   48.0650   35.1690   41.8970 C   0  0  0  0  0  0  0  0  0  0  0  0
   48.5290   34.1840   41.9150 H   0  0  0  0  0  0  0  0  0  0  0  0
   48.2430   35.5620   40.8530 H   0  0  0  0  0  0  0  0  0  0  0  0
   48.5300   35.9110   42.5650 H   0  0  0  0  0  0  0  0  0  0  0  0
   45.9630   34.2950   40.9990 C   0  0  0  0  0  3  0  0  0  0  0  0
   46.6170   33.7130   39.9960 C   0  0  0  0  0  3  0  0  0  0  0  0
   45.9850   32.8810   38.9530 C   0  0  0  0  0  2  0  0  0  0  0  0
   46.4290   33.1390   37.9790 H   0  0  0  0  0  0  0  0  0  0  0  0
  1  2  1  6  0  0  0
  1  4  1  0  0  0  0
  3  8  1  0  0  0  0
  4  5  1  0  0  0  0
  4  3  2  0  0  0  0
  5  6  2  0  0  0  0
  6  7  1  0  0  0  0
  7 11  1  0  0  0  0
  8  7  2  0  0  0  0
  9  3  1  0  0  0  0
 10  5  1  0  0  0  0
 12 13  1  0  0  0  0
 12  1  1  0  0  0  0
 12 15  1  0  0  0  0
 14 12  1  0  0  0  0
 16  1  1  0  0  0  0
 17 16  2  0  0  0  0
 18 17  1  0  0  0  0
 19 18  1  0  0  0  0
M  END
>  <minimizedAffinity>
-3.64762282

>  <minimizedRMSD>
0.488674611

$$$$
