
 OpenBabel03242517203D

 34 35  0  0  0  0  0  0  0  0999 V2000
   36.8500   29.7690   38.8220 C   0  0  0  0  0  0  0  0  0  0  0  0
   35.5070   29.3310   38.9910 C   0  0  0  0  0  0  0  0  0  0  0  0
   35.0840   29.0090   40.2640 C   0  0  0  0  0  0  0  0  0  0  0  0
   35.9850   29.1360   41.2620 N   0  0  0  0  0  0  0  0  0  0  0  0
   37.2470   29.5490   41.0990 C   0  0  0  0  0  0  0  0  0  0  0  0
   37.6570   29.8610   39.8670 N   0  0  0  0  0  0  0  0  0  0  0  0
   37.1330   30.0100   37.8050 H   0  0  0  0  0  0  0  0  0  0  0  0
   34.0690   28.6690   40.4430 H   0  0  0  0  0  0  0  0  0  0  0  0
   38.2340   29.6880   42.1890 C   0  0  0  0  0  0  0  0  0  0  0  0
   38.2190   30.7350   42.5890 H   0  0  0  0  0  0  0  0  0  0  0  0
   39.2590   29.4650   41.8380 H   0  0  0  0  0  0  0  0  0  0  0  0
   37.9120   28.7400   43.3090 C   0  0  0  0  0  0  0  0  0  0  0  0
   37.9100   29.3120   44.2710 H   0  0  0  0  0  0  0  0  0  0  0  0
   36.8600   28.4090   43.1750 H   0  0  0  0  0  0  0  0  0  0  0  0
   38.8100   27.5850   43.3900 C   0  0  0  0  0  3  0  0  0  0  0  0
   38.5890   26.3440   42.9690 C   0  0  0  0  0  3  0  0  0  0  0  0
   37.2990   26.0040   42.3270 C   0  0  0  0  0  2  0  0  0  0  0  0
   37.2840   24.9100   42.1230 H   0  0  0  0  0  0  0  0  0  0  0  0
   34.6110   29.2300   37.8300 C   0  0  0  0  0  3  0  0  0  0  0  0
   33.3280   28.9700   37.8960 C   0  0  0  0  0  3  0  0  0  0  0  0
   32.4560   28.8770   36.6910 C   0  0  0  0  0  0  0  0  0  0  0  0
   33.0540   28.6910   35.7720 H   0  0  0  0  0  0  0  0  0  0  0  0
   31.8340   27.9800   36.8350 H   0  0  0  0  0  0  0  0  0  0  0  0
   32.3860   30.3520   34.3150 F   0  0  0  0  0  0  0  0  0  0  0  0
   31.6040   30.7630   35.3470 C   0  0  0  0  0  0  0  0  0  0  0  0
   31.6110   30.0580   36.5410 C   0  0  0  0  0  0  0  0  0  0  0  0
   30.7830   30.5740   37.4970 C   0  0  0  0  0  0  0  0  0  0  0  0
   29.9690   31.6910   37.3880 C   0  0  0  0  0  0  0  0  0  0  0  0
   30.0260   32.3360   36.1550 C   0  0  0  0  0  0  0  0  0  0  0  0
   30.8230   31.9000   35.1300 C   0  0  0  0  0  0  0  0  0  0  0  0
   30.7520   30.0510   38.4640 H   0  0  0  0  0  0  0  0  0  0  0  0
   29.3620   32.0020   38.2060 H   0  0  0  0  0  0  0  0  0  0  0  0
   29.4020   33.2210   36.0230 H   0  0  0  0  0  0  0  0  0  0  0  0
   30.8490   32.4130   34.1930 H   0  0  0  0  0  0  0  0  0  0  0  0
  1  2  2  0  0  0  0
  1  6  1  0  0  0  0
  2  3  1  0  0  0  0
  3  8  1  0  0  0  0
  3  4  2  0  0  0  0
  5  4  1  0  0  0  0
  5  9  1  0  0  0  0
  6  5  2  0  0  0  0
  7  1  1  0  0  0  0
  9 10  1  0  0  0  0
  9 12  1  0  0  0  0
 11  9  1  0  0  0  0
 12 15  1  0  0  0  0
 12 13  1  0  0  0  0
 14 12  1  0  0  0  0
 16 15  2  0  0  0  0
 17 16  1  0  0  0  0
 18 17  1  0  0  0  0
 19 20  2  0  0  0  0
 19  2  1  0  0  0  0
 21 23  1  0  0  0  0
 21 20  1  0  0  0  0
 22 21  1  0  0  0  0
 24 25  1  0  0  0  0
 25 26  1  0  0  0  0
 26 21  1  0  0  0  0
 26 27  2  0  0  0  0
 27 31  1  0  0  0  0
 28 27  1  0  0  0  0
 28 32  1  0  0  0  0
 29 28  2  0  0  0  0
 30 25  2  0  0  0  0
 30 29  1  0  0  0  0
 33 29  1  0  0  0  0
 34 30  1  0  0  0  0
M  END
>  <minimizedAffinity>
-5.42513704

$$$$

 OpenBabel03242517203D

 34 35  0  0  0  0  0  0  0  0999 V2000
   36.2890   29.1920   38.2390 C   0  0  0  0  0  0  0  0  0  0  0  0
   35.0510   29.1340   38.9370 C   0  0  0  0  0  0  0  0  0  0  0  0
   35.0680   29.2920   40.3070 C   0  0  0  0  0  0  0  0  0  0  0  0
   36.2710   29.4920   40.8880 N   0  0  0  0  0  0  0  0  0  0  0  0
   37.4340   29.5460   40.2280 C   0  0  0  0  0  0  0  0  0  0  0  0
   37.4170   29.3940   38.9010 N   0  0  0  0  0  0  0  0  0  0  0  0
   36.2220   29.0630   37.1660 H   0  0  0  0  0  0  0  0  0  0  0  0
   34.1500   29.2550   40.8830 H   0  0  0  0  0  0  0  0  0  0  0  0
   38.7510   29.7650   40.8610 C   0  0  0  0  0  0  0  0  0  0  0  0
   39.1440   30.7790   40.5890 H   0  0  0  0  0  0  0  0  0  0  0  0
   39.4880   29.0070   40.5340 H   0  0  0  0  0  0  0  0  0  0  0  0
   38.6310   29.6800   42.3560 C   0  0  0  0  0  0  0  0  0  0  0  0
   39.1330   30.5750   42.8050 H   0  0  0  0  0  0  0  0  0  0  0  0
   37.5580   29.7980   42.6130 H   0  0  0  0  0  0  0  0  0  0  0  0
   39.1650   28.4410   42.9280 C   0  0  0  0  0  3  0  0  0  0  0  0
   38.4980   27.4610   43.5290 C   0  0  0  0  0  3  0  0  0  0  0  0
   37.0280   27.5570   43.6790 C   0  0  0  0  0  2  0  0  0  0  0  0
   36.6770   26.6840   44.2730 H   0  0  0  0  0  0  0  0  0  0  0  0
   33.7980   28.9100   38.2010 C   0  0  0  0  0  3  0  0  0  0  0  0
   33.6570   29.0510   36.9050 C   0  0  0  0  0  3  0  0  0  0  0  0
   32.3660   28.8130   36.1990 C   0  0  0  0  0  0  0  0  0  0  0  0
   32.5090   28.1770   35.2980 H   0  0  0  0  0  0  0  0  0  0  0  0
   31.7460   28.2240   36.8920 H   0  0  0  0  0  0  0  0  0  0  0  0
   30.7350   30.1580   38.0320 F   0  0  0  0  0  0  0  0  0  0  0  0
   30.8940   30.7020   36.7970 C   0  0  0  0  0  0  0  0  0  0  0  0
   31.6950   30.0650   35.8610 C   0  0  0  0  0  0  0  0  0  0  0  0
   31.7720   30.7130   34.6610 C   0  0  0  0  0  0  0  0  0  0  0  0
   31.1490   31.9010   34.3070 C   0  0  0  0  0  0  0  0  0  0  0  0
   30.3650   32.4680   35.3080 C   0  0  0  0  0  0  0  0  0  0  0  0
   30.2220   31.8990   36.5460 C   0  0  0  0  0  0  0  0  0  0  0  0
   32.3950   30.2480   33.8830 H   0  0  0  0  0  0  0  0  0  0  0  0
   31.2830   32.3140   33.3350 H   0  0  0  0  0  0  0  0  0  0  0  0
   29.8550   33.4040   35.0750 H   0  0  0  0  0  0  0  0  0  0  0  0
   29.6140   32.3560   37.2980 H   0  0  0  0  0  0  0  0  0  0  0  0
  1  6  2  0  0  0  0
  1  2  1  0  0  0  0
  2  3  2  0  0  0  0
  3  8  1  0  0  0  0
  3  4  1  0  0  0  0
  5  9  1  0  0  0  0
  5  4  2  0  0  0  0
  6  5  1  0  0  0  0
  7  1  1  0  0  0  0
  9 12  1  0  0  0  0
 10  9  1  0  0  0  0
 11  9  1  0  0  0  0
 12 14  1  0  0  0  0
 12 13  1  0  0  0  0
 12 15  1  0  0  0  0
 15 16  2  0  0  0  0
 16 17  1  0  0  0  0
 17 18  1  0  0  0  0
 19  2  1  0  0  0  0
 20 19  2  0  0  0  0
 21 23  1  0  0  0  0
 21 20  1  0  0  0  0
 22 21  1  0  0  0  0
 25 24  1  0  0  0  0
 26 21  1  0  0  0  0
 26 25  2  0  0  0  0
 27 26  1  0  0  0  0
 28 27  2  0  0  0  0
 28 29  1  0  0  0  0
 29 30  2  0  0  0  0
 30 25  1  0  0  0  0
 30 34  1  0  0  0  0
 31 27  1  0  0  0  0
 32 28  1  0  0  0  0
 33 29  1  0  0  0  0
M  END
>  <minimizedAffinity>
-5.41457224

$$$$

 OpenBabel03242517203D

 34 35  0  0  0  0  0  0  0  0999 V2000
   36.4910   27.8340   38.6550 C   0  0  0  0  0  0  0  0  0  0  0  0
   35.3010   28.6120   38.7270 C   0  0  0  0  0  0  0  0  0  0  0  0
   34.9090   29.0880   39.9610 C   0  0  0  0  0  0  0  0  0  0  0  0
   35.6920   28.7770   41.0170 N   0  0  0  0  0  0  0  0  0  0  0  0
   36.8100   28.0460   40.9450 C   0  0  0  0  0  0  0  0  0  0  0  0
   37.1900   27.5850   39.7500 N   0  0  0  0  0  0  0  0  0  0  0  0
   36.7550   27.4850   37.6650 H   0  0  0  0  0  0  0  0  0  0  0  0
   34.0090   29.6840   40.0670 H   0  0  0  0  0  0  0  0  0  0  0  0
   37.6680   27.7050   42.0980 C   0  0  0  0  0  0  0  0  0  0  0  0
   37.7430   28.5800   42.7940 H   0  0  0  0  0  0  0  0  0  0  0  0
   38.6900   27.4290   41.7760 H   0  0  0  0  0  0  0  0  0  0  0  0
   37.0910   26.5400   42.8510 C   0  0  0  0  0  0  0  0  0  0  0  0
   37.6560   26.4210   43.8100 H   0  0  0  0  0  0  0  0  0  0  0  0
   36.0610   26.8180   43.1610 H   0  0  0  0  0  0  0  0  0  0  0  0
   37.0790   25.2860   42.0930 C   0  0  0  0  0  3  0  0  0  0  0  0
   38.0160   24.3440   42.0520 C   0  0  0  0  0  3  0  0  0  0  0  0
   39.2570   24.5070   42.8420 C   0  0  0  0  0  2  0  0  0  0  0  0
   39.9380   23.6580   42.6090 H   0  0  0  0  0  0  0  0  0  0  0  0
   34.5240   28.8890   37.5100 C   0  0  0  0  0  3  0  0  0  0  0  0
   33.2350   28.6910   37.3850 C   0  0  0  0  0  3  0  0  0  0  0  0
   32.4870   28.9870   36.1300 C   0  0  0  0  0  0  0  0  0  0  0  0
   33.1780   29.1250   35.2690 H   0  0  0  0  0  0  0  0  0  0  0  0
   31.9010   28.0820   35.9060 H   0  0  0  0  0  0  0  0  0  0  0  0
   32.1590   30.8850   34.1010 F   0  0  0  0  0  0  0  0  0  0  0  0
   31.4650   31.0560   35.2560 C   0  0  0  0  0  0  0  0  0  0  0  0
   31.6010   30.1370   36.2850 C   0  0  0  0  0  0  0  0  0  0  0  0
   30.8510   30.4240   37.3910 C   0  0  0  0  0  0  0  0  0  0  0  0
   30.0010   31.5040   37.5710 C   0  0  0  0  0  0  0  0  0  0  0  0
   29.9280   32.3750   36.4870 C   0  0  0  0  0  0  0  0  0  0  0  0
   30.6380   32.1790   35.3320 C   0  0  0  0  0  0  0  0  0  0  0  0
   30.9240   29.7240   38.2360 H   0  0  0  0  0  0  0  0  0  0  0  0
   29.4650   31.6260   38.4820 H   0  0  0  0  0  0  0  0  0  0  0  0
   29.2710   33.2410   36.5830 H   0  0  0  0  0  0  0  0  0  0  0  0
   30.5630   32.8630   34.5140 H   0  0  0  0  0  0  0  0  0  0  0  0
  1  2  2  0  0  0  0
  1  6  1  0  0  0  0
  2  3  1  0  0  0  0
  3  8  1  0  0  0  0
  3  4  2  0  0  0  0
  5  4  1  0  0  0  0
  5  9  1  0  0  0  0
  6  5  2  0  0  0  0
  7  1  1  0  0  0  0
  9 10  1  0  0  0  0
  9 12  1  0  0  0  0
 11  9  1  0  0  0  0
 12 14  1  0  0  0  0
 12 13  1  0  0  0  0
 15 12  1  0  0  0  0
 16 15  2  0  0  0  0
 16 17  1  0  0  0  0
 18 17  1  0  0  0  0
 19  2  1  0  0  0  0
 20 19  2  0  0  0  0
 21 26  1  0  0  0  0
 21 20  1  0  0  0  0
 22 21  1  0  0  0  0
 23 21  1  0  0  0  0
 24 25  1  0  0  0  0
 25 30  2  0  0  0  0
 25 26  1  0  0  0  0
 26 27  2  0  0  0  0
 27 28  1  0  0  0  0
 27 31  1  0  0  0  0
 28 32  1  0  0  0  0
 29 33  1  0  0  0  0
 29 28  2  0  0  0  0
 30 29  1  0  0  0  0
 34 30  1  0  0  0  0
M  END
>  <minimizedAffinity>
-5.40008593

$$$$

 OpenBabel03242517203D

 34 35  0  0  0  0  0  0  0  0999 V2000
   36.0450   28.9830   37.3430 C   0  0  0  0  0  0  0  0  0  0  0  0
   35.4730   28.8700   38.6400 C   0  0  0  0  0  0  0  0  0  0  0  0
   34.0980   28.8510   38.7450 C   0  0  0  0  0  0  0  0  0  0  0  0
   33.3930   28.9420   37.5970 N   0  0  0  0  0  0  0  0  0  0  0  0
   33.9340   29.0480   36.3780 C   0  0  0  0  0  0  0  0  0  0  0  0
   35.2660   29.0660   36.2770 N   0  0  0  0  0  0  0  0  0  0  0  0
   37.1280   28.9920   37.3140 H   0  0  0  0  0  0  0  0  0  0  0  0
   33.6150   28.7670   39.7130 H   0  0  0  0  0  0  0  0  0  0  0  0
   33.1650   29.1480   35.1220 C   0  0  0  0  0  0  0  0  0  0  0  0
   32.8710   28.1260   34.7690 H   0  0  0  0  0  0  0  0  0  0  0  0
   33.7550   29.6340   34.3220 H   0  0  0  0  0  0  0  0  0  0  0  0
   31.9190   29.9600   35.3360 C   0  0  0  0  0  0  0  0  0  0  0  0
   31.0390   29.2690   35.3340 H   0  0  0  0  0  0  0  0  0  0  0  0
   31.9590   30.3670   36.3680 H   0  0  0  0  0  0  0  0  0  0  0  0
   31.7360   31.0400   34.3630 C   0  0  0  0  0  3  0  0  0  0  0  0
   31.0270   32.1560   34.5000 C   0  0  0  0  0  3  0  0  0  0  0  0
   30.3020   32.4150   35.7650 C   0  0  0  0  0  2  0  0  0  0  0  0
   29.7130   33.3520   35.6470 H   0  0  0  0  0  0  0  0  0  0  0  0
   36.3400   28.7770   39.8250 C   0  0  0  0  0  3  0  0  0  0  0  0
   35.9660   28.3080   40.9900 C   0  0  0  0  0  3  0  0  0  0  0  0
   36.8790   28.2310   42.1650 C   0  0  0  0  0  0  0  0  0  0  0  0
   37.6470   29.0360   42.1340 H   0  0  0  0  0  0  0  0  0  0  0  0
   36.2560   28.4410   43.0480 H   0  0  0  0  0  0  0  0  0  0  0  0
   39.3780   27.8790   43.3730 F   0  0  0  0  0  0  0  0  0  0  0  0
   38.7390   26.7800   42.8910 C   0  0  0  0  0  0  0  0  0  0  0  0
   37.4990   26.9150   42.2860 C   0  0  0  0  0  0  0  0  0  0  0  0
   36.9640   25.7380   41.8450 C   0  0  0  0  0  0  0  0  0  0  0  0
   37.5240   24.4730   41.9430 C   0  0  0  0  0  0  0  0  0  0  0  0
   38.7700   24.4340   42.5640 C   0  0  0  0  0  0  0  0  0  0  0  0
   39.3920   25.5560   43.0420 C   0  0  0  0  0  0  0  0  0  0  0  0
   35.9800   25.7890   41.3560 H   0  0  0  0  0  0  0  0  0  0  0  0
   37.0110   23.6220   41.5610 H   0  0  0  0  0  0  0  0  0  0  0  0
   39.2490   23.4590   42.6640 H   0  0  0  0  0  0  0  0  0  0  0  0
   40.3490   25.4990   43.5160 H   0  0  0  0  0  0  0  0  0  0  0  0
  1  2  1  0  0  0  0
  2  3  2  0  0  0  0
  2 19  1  0  0  0  0
  3  8  1  0  0  0  0
  4  3  1  0  0  0  0
  5  4  2  0  0  0  0
  6  5  1  0  0  0  0
  6  1  2  0  0  0  0
  7  1  1  0  0  0  0
  9 12  1  0  0  0  0
  9  5  1  0  0  0  0
 10  9  1  0  0  0  0
 11  9  1  0  0  0  0
 12 14  1  0  0  0  0
 13 12  1  0  0  0  0
 15 16  2  0  0  0  0
 15 12  1  0  0  0  0
 16 17  1  0  0  0  0
 18 17  1  0  0  0  0
 19 20  2  0  0  0  0
 20 21  1  0  0  0  0
 21 26  1  0  0  0  0
 21 23  1  0  0  0  0
 22 21  1  0  0  0  0
 25 30  1  0  0  0  0
 25 24  1  0  0  0  0
 26 25  2  0  0  0  0
 27 28  2  0  0  0  0
 27 26  1  0  0  0  0
 28 29  1  0  0  0  0
 29 33  1  0  0  0  0
 29 30  2  0  0  0  0
 30 34  1  0  0  0  0
 31 27  1  0  0  0  0
 32 28  1  0  0  0  0
M  END
>  <minimizedAffinity>
-5.1757884

$$$$

 OpenBabel03242517203D

 34 35  0  0  0  0  0  0  0  0999 V2000
   34.0680   28.9960   39.1510 C   0  0  0  0  0  0  0  0  0  0  0  0
   35.4410   29.2170   39.4490 C   0  0  0  0  0  0  0  0  0  0  0  0
   36.3160   29.3890   38.3970 C   0  0  0  0  0  0  0  0  0  0  0  0
   35.7970   29.3360   37.1510 N   0  0  0  0  0  0  0  0  0  0  0  0
   34.5050   29.1290   36.8740 C   0  0  0  0  0  0  0  0  0  0  0  0
   33.6580   28.9620   37.8930 N   0  0  0  0  0  0  0  0  0  0  0  0
   33.4220   28.8670   40.0110 H   0  0  0  0  0  0  0  0  0  0  0  0
   37.3730   29.5590   38.5740 H   0  0  0  0  0  0  0  0  0  0  0  0
   33.9350   29.0710   35.5130 C   0  0  0  0  0  0  0  0  0  0  0  0
   34.1200   28.0610   35.0620 H   0  0  0  0  0  0  0  0  0  0  0  0
   34.3870   29.8340   34.8510 H   0  0  0  0  0  0  0  0  0  0  0  0
   32.4530   29.3150   35.5560 C   0  0  0  0  0  0  0  0  0  0  0  0
   31.9270   28.3450   35.3620 H   0  0  0  0  0  0  0  0  0  0  0  0
   32.1880   29.5770   36.6020 H   0  0  0  0  0  0  0  0  0  0  0  0
   31.9920   30.3530   34.6310 C   0  0  0  0  0  3  0  0  0  0  0  0
   31.1930   31.3830   34.8880 C   0  0  0  0  0  3  0  0  0  0  0  0
   30.6590   31.5770   36.2560 C   0  0  0  0  0  2  0  0  0  0  0  0
   29.9560   32.4390   36.2410 H   0  0  0  0  0  0  0  0  0  0  0  0
   35.8960   29.2550   40.8470 C   0  0  0  0  0  3  0  0  0  0  0  0
   36.3850   28.2310   41.5030 C   0  0  0  0  0  3  0  0  0  0  0  0
   36.8350   28.3150   42.9210 C   0  0  0  0  0  0  0  0  0  0  0  0
   36.5480   29.2880   43.3790 H   0  0  0  0  0  0  0  0  0  0  0  0
   36.2680   27.5440   43.4660 H   0  0  0  0  0  0  0  0  0  0  0  0
   38.7270   30.2810   42.3030 F   0  0  0  0  0  0  0  0  0  0  0  0
   39.1760   29.0730   42.7340 C   0  0  0  0  0  0  0  0  0  0  0  0
   38.2690   28.0730   43.0500 C   0  0  0  0  0  0  0  0  0  0  0  0
   38.8480   26.9090   43.4690 C   0  0  0  0  0  0  0  0  0  0  0  0
   40.2030   26.6460   43.6030 C   0  0  0  0  0  0  0  0  0  0  0  0
   41.0380   27.7070   43.2630 C   0  0  0  0  0  0  0  0  0  0  0  0
   40.5600   28.9160   42.8310 C   0  0  0  0  0  0  0  0  0  0  0  0
   38.1710   26.0830   43.7330 H   0  0  0  0  0  0  0  0  0  0  0  0
   40.5400   25.6950   43.9410 H   0  0  0  0  0  0  0  0  0  0  0  0
   42.1140   27.5460   43.3520 H   0  0  0  0  0  0  0  0  0  0  0  0
   41.2230   29.7150   42.5770 H   0  0  0  0  0  0  0  0  0  0  0  0
  1  2  1  0  0  0  0
  1  7  1  0  0  0  0
  2 19  1  0  0  0  0
  3  8  1  0  0  0  0
  3  2  2  0  0  0  0
  4  3  1  0  0  0  0
  5  4  2  0  0  0  0
  5  6  1  0  0  0  0
  6  1  2  0  0  0  0
  9 12  1  0  0  0  0
  9  5  1  0  0  0  0
 10  9  1  0  0  0  0
 11  9  1  0  0  0  0
 12 14  1  0  0  0  0
 13 12  1  0  0  0  0
 15 16  2  0  0  0  0
 15 12  1  0  0  0  0
 16 17  1  0  0  0  0
 18 17  1  0  0  0  0
 19 20  2  0  0  0  0
 20 21  1  0  0  0  0
 21 26  1  0  0  0  0
 21 22  1  0  0  0  0
 21 23  1  0  0  0  0
 24 25  1  0  0  0  0
 25 30  2  0  0  0  0
 25 26  1  0  0  0  0
 26 27  2  0  0  0  0
 27 28  1  0  0  0  0
 27 31  1  0  0  0  0
 28 32  1  0  0  0  0
 29 33  1  0  0  0  0
 29 28  2  0  0  0  0
 30 29  1  0  0  0  0
 34 30  1  0  0  0  0
M  END
>  <minimizedAffinity>
-5.04698849

$$$$

 OpenBabel03242517203D

 34 35  0  0  0  0  0  0  0  0999 V2000
   34.8780   26.8770   37.5400 C   0  0  0  0  0  0  0  0  0  0  0  0
   34.6040   28.2100   37.9570 C   0  0  0  0  0  0  0  0  0  0  0  0
   35.2800   28.6990   39.0550 C   0  0  0  0  0  0  0  0  0  0  0  0
   36.1580   27.8680   39.6580 N   0  0  0  0  0  0  0  0  0  0  0  0
   36.4130   26.6160   39.2620 C   0  0  0  0  0  0  0  0  0  0  0  0
   35.7590   26.1420   38.1980 N   0  0  0  0  0  0  0  0  0  0  0  0
   34.3230   26.5410   36.6730 H   0  0  0  0  0  0  0  0  0  0  0  0
   35.1050   29.7090   39.4120 H   0  0  0  0  0  0  0  0  0  0  0  0
   37.3730   25.7060   39.9190 C   0  0  0  0  0  0  0  0  0  0  0  0
   38.4160   26.0950   39.7990 H   0  0  0  0  0  0  0  0  0  0  0  0
   37.3290   24.6890   39.4850 H   0  0  0  0  0  0  0  0  0  0  0  0
   37.0670   25.5950   41.3860 C   0  0  0  0  0  0  0  0  0  0  0  0
   36.0500   26.0260   41.5710 H   0  0  0  0  0  0  0  0  0  0  0  0
   36.9660   24.5160   41.6270 H   0  0  0  0  0  0  0  0  0  0  0  0
   38.0660   26.2250   42.2530 C   0  0  0  0  0  3  0  0  0  0  0  0
   37.8660   27.0990   43.2350 C   0  0  0  0  0  3  0  0  0  0  0  0
   36.4900   27.5420   43.5550 C   0  0  0  0  0  2  0  0  0  0  0  0
   36.5460   28.3250   44.3430 H   0  0  0  0  0  0  0  0  0  0  0  0
   33.6250   29.0270   37.2240 C   0  0  0  0  0  3  0  0  0  0  0  0
   32.6320   28.5470   36.5170 C   0  0  0  0  0  3  0  0  0  0  0  0
   31.6610   29.4140   35.7900 C   0  0  0  0  0  0  0  0  0  0  0  0
   32.1810   30.1030   35.0880 H   0  0  0  0  0  0  0  0  0  0  0  0
   31.0610   28.7370   35.1620 H   0  0  0  0  0  0  0  0  0  0  0  0
   31.2570   32.1710   35.5500 F   0  0  0  0  0  0  0  0  0  0  0  0
   30.6210   31.5160   36.5570 C   0  0  0  0  0  0  0  0  0  0  0  0
   30.7970   30.1490   36.7080 C   0  0  0  0  0  0  0  0  0  0  0  0
   30.1050   29.6120   37.7570 C   0  0  0  0  0  0  0  0  0  0  0  0
   29.2770   30.2790   38.6460 C   0  0  0  0  0  0  0  0  0  0  0  0
   29.1610   31.6490   38.4190 C   0  0  0  0  0  0  0  0  0  0  0  0
   29.8120   32.2850   37.3960 C   0  0  0  0  0  0  0  0  0  0  0  0
   30.2110   28.5290   37.9200 H   0  0  0  0  0  0  0  0  0  0  0  0
   28.7870   29.7530   39.4300 H   0  0  0  0  0  0  0  0  0  0  0  0
   28.5200   32.2160   39.0940 H   0  0  0  0  0  0  0  0  0  0  0  0
   29.7050   33.3380   37.2420 H   0  0  0  0  0  0  0  0  0  0  0  0
  1  2  2  0  0  0  0
  1  6  1  0  0  0  0
  2  3  1  0  0  0  0
  3  8  1  0  0  0  0
  3  4  2  0  0  0  0
  5  4  1  0  0  0  0
  5  9  1  0  0  0  0
  6  5  2  0  0  0  0
  7  1  1  0  0  0  0
  9 12  1  0  0  0  0
 10  9  1  0  0  0  0
 11  9  1  0  0  0  0
 12 13  1  0  0  0  0
 12 14  1  0  0  0  0
 12 15  1  0  0  0  0
 15 16  2  0  0  0  0
 16 17  1  0  0  0  0
 17 18  1  0  0  0  0
 19  2  1  0  0  0  0
 20 19  2  0  0  0  0
 21 20  1  0  0  0  0
 21 26  1  0  0  0  0
 22 21  1  0  0  0  0
 23 21  1  0  0  0  0
 24 25  1  0  0  0  0
 25 26  2  0  0  0  0
 25 30  1  0  0  0  0
 26 27  1  0  0  0  0
 27 31  1  0  0  0  0
 27 28  2  0  0  0  0
 28 32  1  0  0  0  0
 29 28  1  0  0  0  0
 29 33  1  0  0  0  0
 30 29  2  0  0  0  0
 34 30  1  0  0  0  0
M  END
>  <minimizedAffinity>
-4.99632645

$$$$

 OpenBabel03242517203D

 34 35  0  0  0  0  0  0  0  0999 V2000
   33.9620   29.0240   39.0720 C   0  0  0  0  0  0  0  0  0  0  0  0
   35.3480   29.2310   39.3190 C   0  0  0  0  0  0  0  0  0  0  0  0
   36.1860   29.3880   38.2350 C   0  0  0  0  0  0  0  0  0  0  0  0
   35.6220   29.3320   37.0090 N   0  0  0  0  0  0  0  0  0  0  0  0
   34.3180   29.1370   36.7800 C   0  0  0  0  0  0  0  0  0  0  0  0
   33.5070   28.9860   37.8310 N   0  0  0  0  0  0  0  0  0  0  0  0
   33.3470   28.9070   39.9560 H   0  0  0  0  0  0  0  0  0  0  0  0
   37.2500   29.5480   38.3730 H   0  0  0  0  0  0  0  0  0  0  0  0
   33.6990   29.0750   35.4410 C   0  0  0  0  0  0  0  0  0  0  0  0
   33.7680   28.0340   35.0330 H   0  0  0  0  0  0  0  0  0  0  0  0
   34.2000   29.7600   34.7310 H   0  0  0  0  0  0  0  0  0  0  0  0
   32.2510   29.4680   35.5170 C   0  0  0  0  0  0  0  0  0  0  0  0
   31.6250   28.5550   35.3510 H   0  0  0  0  0  0  0  0  0  0  0  0
   32.0400   29.7690   36.5650 H   0  0  0  0  0  0  0  0  0  0  0  0
   31.8720   30.5360   34.5880 C   0  0  0  0  0  3  0  0  0  0  0  0
   31.1310   31.6120   34.8330 C   0  0  0  0  0  3  0  0  0  0  0  0
   30.5810   31.8310   36.1900 C   0  0  0  0  0  2  0  0  0  0  0  0
   29.9310   32.7340   36.1650 H   0  0  0  0  0  0  0  0  0  0  0  0
   35.8540   29.2740   40.7000 C   0  0  0  0  0  3  0  0  0  0  0  0
   36.4190   28.2670   41.3200 C   0  0  0  0  0  3  0  0  0  0  0  0
   36.9180   28.3560   42.7220 C   0  0  0  0  0  0  0  0  0  0  0  0
   36.3710   29.1340   43.2980 H   0  0  0  0  0  0  0  0  0  0  0  0
   36.6660   27.3940   43.1950 H   0  0  0  0  0  0  0  0  0  0  0  0
   38.7070   26.3170   43.4090 F   0  0  0  0  0  0  0  0  0  0  0  0
   39.2150   27.5430   43.1150 C   0  0  0  0  0  0  0  0  0  0  0  0
   38.3600   28.5790   42.7700 C   0  0  0  0  0  0  0  0  0  0  0  0
   38.9950   29.7580   42.4990 C   0  0  0  0  0  0  0  0  0  0  0  0
   40.3600   30.0030   42.5340 C   0  0  0  0  0  0  0  0  0  0  0  0
   41.1400   28.9060   42.8910 C   0  0  0  0  0  0  0  0  0  0  0  0
   40.6030   27.6810   43.1820 C   0  0  0  0  0  0  0  0  0  0  0  0
   38.3620   30.6120   42.2200 H   0  0  0  0  0  0  0  0  0  0  0  0
   40.7430   30.9690   42.3030 H   0  0  0  0  0  0  0  0  0  0  0  0
   42.2200   29.0520   42.9330 H   0  0  0  0  0  0  0  0  0  0  0  0
   41.2240   26.8540   43.4530 H   0  0  0  0  0  0  0  0  0  0  0  0
  1  2  1  0  0  0  0
  1  7  1  0  0  0  0
  2 19  1  0  0  0  0
  3  8  1  0  0  0  0
  3  2  2  0  0  0  0
  4  3  1  0  0  0  0
  5  4  2  0  0  0  0
  5  6  1  0  0  0  0
  6  1  2  0  0  0  0
  9 12  1  0  0  0  0
  9  5  1  0  0  0  0
 10  9  1  0  0  0  0
 11  9  1  0  0  0  0
 12 14  1  0  0  0  0
 13 12  1  0  0  0  0
 15 16  2  0  0  0  0
 15 12  1  0  0  0  0
 16 17  1  0  0  0  0
 18 17  1  0  0  0  0
 19 20  2  0  0  0  0
 20 21  1  0  0  0  0
 21 26  1  0  0  0  0
 21 23  1  0  0  0  0
 21 22  1  0  0  0  0
 25 30  1  0  0  0  0
 25 24  1  0  0  0  0
 26 25  2  0  0  0  0
 27 28  2  0  0  0  0
 27 26  1  0  0  0  0
 28 29  1  0  0  0  0
 29 33  1  0  0  0  0
 29 30  2  0  0  0  0
 30 34  1  0  0  0  0
 31 27  1  0  0  0  0
 32 28  1  0  0  0  0
M  END
>  <minimizedAffinity>
-4.94298553

$$$$

 OpenBabel03242517203D

 34 35  0  0  0  0  0  0  0  0999 V2000
   34.9260   29.1490   35.7730 C   0  0  0  0  0  0  0  0  0  0  0  0
   34.8740   28.9770   37.1840 C   0  0  0  0  0  0  0  0  0  0  0  0
   33.6350   28.9280   37.7880 C   0  0  0  0  0  0  0  0  0  0  0  0
   32.5550   29.0470   36.9860 N   0  0  0  0  0  0  0  0  0  0  0  0
   32.6080   29.2070   35.6590 C   0  0  0  0  0  0  0  0  0  0  0  0
   33.8080   29.2550   35.0740 N   0  0  0  0  0  0  0  0  0  0  0  0
   35.9220   29.1810   35.3480 H   0  0  0  0  0  0  0  0  0  0  0  0
   33.5440   28.7990   38.8620 H   0  0  0  0  0  0  0  0  0  0  0  0
   31.4290   29.3380   34.7800 C   0  0  0  0  0  0  0  0  0  0  0  0
   30.7910   28.4190   34.8540 H   0  0  0  0  0  0  0  0  0  0  0  0
   31.7240   29.4710   33.7220 H   0  0  0  0  0  0  0  0  0  0  0  0
   30.6060   30.5290   35.1830 C   0  0  0  0  0  0  0  0  0  0  0  0
   29.5970   30.4430   34.7060 H   0  0  0  0  0  0  0  0  0  0  0  0
   30.4120   30.4470   36.2730 H   0  0  0  0  0  0  0  0  0  0  0  0
   31.2260   31.8170   34.8640 C   0  0  0  0  0  3  0  0  0  0  0  0
   30.9190   32.6520   33.8760 C   0  0  0  0  0  3  0  0  0  0  0  0
   29.8270   32.3110   32.9370 C   0  0  0  0  0  2  0  0  0  0  0  0
   29.7850   33.0920   32.1460 H   0  0  0  0  0  0  0  0  0  0  0  0
   36.1180   28.8590   37.9610 C   0  0  0  0  0  3  0  0  0  0  0  0
   36.3870   29.5380   39.0490 C   0  0  0  0  0  3  0  0  0  0  0  0
   37.6620   29.3850   39.8060 C   0  0  0  0  0  0  0  0  0  0  0  0
   38.4140   28.8120   39.2190 H   0  0  0  0  0  0  0  0  0  0  0  0
   38.0730   30.4000   39.9160 H   0  0  0  0  0  0  0  0  0  0  0  0
   38.5300   30.6200   42.1610 F   0  0  0  0  0  0  0  0  0  0  0  0
   37.8900   29.4260   42.2620 C   0  0  0  0  0  0  0  0  0  0  0  0
   37.4450   28.7820   41.1180 C   0  0  0  0  0  0  0  0  0  0  0  0
   36.8190   27.5920   41.3560 C   0  0  0  0  0  0  0  0  0  0  0  0
   36.5950   26.9920   42.5860 C   0  0  0  0  0  0  0  0  0  0  0  0
   37.0770   27.7090   43.6790 C   0  0  0  0  0  0  0  0  0  0  0  0
   37.7190   28.9120   43.5500 C   0  0  0  0  0  0  0  0  0  0  0  0
   36.4460   27.0410   40.4800 H   0  0  0  0  0  0  0  0  0  0  0  0
   36.0930   26.0560   42.6500 H   0  0  0  0  0  0  0  0  0  0  0  0
   36.9240   27.2760   44.6690 H   0  0  0  0  0  0  0  0  0  0  0  0
   38.0780   29.4430   44.4050 H   0  0  0  0  0  0  0  0  0  0  0  0
  1  2  1  0  0  0  0
  2  3  2  0  0  0  0
  2 19  1  0  0  0  0
  3  8  1  0  0  0  0
  4  3  1  0  0  0  0
  5  4  2  0  0  0  0
  6  5  1  0  0  0  0
  6  1  2  0  0  0  0
  7  1  1  0  0  0  0
  9 10  1  0  0  0  0
  9 12  1  0  0  0  0
  9  5  1  0  0  0  0
 11  9  1  0  0  0  0
 12 14  1  0  0  0  0
 13 12  1  0  0  0  0
 15 12  1  0  0  0  0
 16 15  2  0  0  0  0
 17 16  1  0  0  0  0
 18 17  1  0  0  0  0
 19 20  2  0  0  0  0
 20 21  1  0  0  0  0
 21 23  1  0  0  0  0
 21 26  1  0  0  0  0
 22 21  1  0  0  0  0
 24 25  1  0  0  0  0
 25 30  1  0  0  0  0
 26 27  1  0  0  0  0
 26 25  2  0  0  0  0
 27 28  2  0  0  0  0
 28 32  1  0  0  0  0
 28 29  1  0  0  0  0
 29 33  1  0  0  0  0
 30 29  2  0  0  0  0
 30 34  1  0  0  0  0
 31 27  1  0  0  0  0
M  END
>  <minimizedAffinity>
-4.88931322

$$$$

 OpenBabel03242517203D

 34 35  0  0  0  0  0  0  0  0999 V2000
   36.2170   29.9130   38.5510 C   0  0  0  0  0  0  0  0  0  0  0  0
   35.1950   29.2420   39.2780 C   0  0  0  0  0  0  0  0  0  0  0  0
   35.4590   28.8750   40.5810 C   0  0  0  0  0  0  0  0  0  0  0  0
   36.6780   29.1840   41.0730 N   0  0  0  0  0  0  0  0  0  0  0  0
   37.6360   29.8160   40.3850 C   0  0  0  0  0  0  0  0  0  0  0  0
   37.3810   30.1710   39.1230 N   0  0  0  0  0  0  0  0  0  0  0  0
   35.9600   30.1800   37.5330 H   0  0  0  0  0  0  0  0  0  0  0  0
   34.7110   28.3600   41.1760 H   0  0  0  0  0  0  0  0  0  0  0  0
   38.9710   30.1540   40.9200 C   0  0  0  0  0  0  0  0  0  0  0  0
   39.6150   29.2380   40.9550 H   0  0  0  0  0  0  0  0  0  0  0  0
   38.9040   30.5710   41.9430 H   0  0  0  0  0  0  0  0  0  0  0  0
   39.6380   31.1790   40.0470 C   0  0  0  0  0  0  0  0  0  0  0  0
   39.9010   30.6980   39.0710 H   0  0  0  0  0  0  0  0  0  0  0  0
   38.8770   31.9450   39.7890 H   0  0  0  0  0  0  0  0  0  0  0  0
   40.8150   31.8050   40.6540 C   0  0  0  0  0  3  0  0  0  0  0  0
   41.1780   33.0830   40.6110 C   0  0  0  0  0  3  0  0  0  0  0  0
   40.3420   34.0600   39.8780 C   0  0  0  0  0  2  0  0  0  0  0  0
   40.8560   35.0470   39.8940 H   0  0  0  0  0  0  0  0  0  0  0  0
   33.9010   28.9560   38.6410 C   0  0  0  0  0  3  0  0  0  0  0  0
   33.6410   29.1260   37.3680 C   0  0  0  0  0  3  0  0  0  0  0  0
   32.3120   28.8220   36.7640 C   0  0  0  0  0  0  0  0  0  0  0  0
   32.4190   28.2250   35.8310 H   0  0  0  0  0  0  0  0  0  0  0  0
   31.7940   28.1700   37.4840 H   0  0  0  0  0  0  0  0  0  0  0  0
   30.7030   29.9530   38.7530 F   0  0  0  0  0  0  0  0  0  0  0  0
   30.7480   30.5650   37.5410 C   0  0  0  0  0  0  0  0  0  0  0  0
   31.5330   30.0340   36.5290 C   0  0  0  0  0  0  0  0  0  0  0  0
   31.4900   30.7420   35.3620 C   0  0  0  0  0  0  0  0  0  0  0  0
   30.7640   31.8950   35.1050 C   0  0  0  0  0  0  0  0  0  0  0  0
   30.0030   32.3550   36.1780 C   0  0  0  0  0  0  0  0  0  0  0  0
   29.9770   31.7200   37.3910 C   0  0  0  0  0  0  0  0  0  0  0  0
   32.0970   30.3630   34.5260 H   0  0  0  0  0  0  0  0  0  0  0  0
   30.8080   32.3630   34.1510 H   0  0  0  0  0  0  0  0  0  0  0  0
   29.4140   33.2600   36.0230 H   0  0  0  0  0  0  0  0  0  0  0  0
   29.3850   32.0940   38.1990 H   0  0  0  0  0  0  0  0  0  0  0  0
  1  6  2  0  0  0  0
  1  2  1  0  0  0  0
  2  3  2  0  0  0  0
  3  4  1  0  0  0  0
  3  8  1  0  0  0  0
  5  9  1  0  0  0  0
  5  4  2  0  0  0  0
  6  5  1  0  0  0  0
  7  1  1  0  0  0  0
  9 10  1  0  0  0  0
  9 11  1  0  0  0  0
 12 15  1  0  0  0  0
 12  9  1  0  0  0  0
 13 12  1  0  0  0  0
 14 12  1  0  0  0  0
 16 15  2  0  0  0  0
 17 18  1  0  0  0  0
 17 16  1  0  0  0  0
 19  2  1  0  0  0  0
 20 19  2  0  0  0  0
 21 20  1  0  0  0  0
 21 23  1  0  0  0  0
 22 21  1  0  0  0  0
 25 24  1  0  0  0  0
 26 21  1  0  0  0  0
 26 25  2  0  0  0  0
 27 26  1  0  0  0  0
 28 27  2  0  0  0  0
 28 29  1  0  0  0  0
 29 30  2  0  0  0  0
 30 25  1  0  0  0  0
 30 34  1  0  0  0  0
 31 27  1  0  0  0  0
 32 28  1  0  0  0  0
 33 29  1  0  0  0  0
M  END
>  <minimizedAffinity>
-4.83742905

$$$$
