
 OpenBabel03252509303D

 16 16  0  0  0  0  0  0  0  0999 V2000
   44.5610   35.9940   44.4840 C   0  0  0  0  0  0  0  0  0  0  0  0
   45.3230   35.9290   43.2850 C   0  0  0  0  0  0  0  0  0  0  0  0
   46.2250   34.8830   43.1560 C   0  0  0  0  0  0  0  0  0  0  0  0
   46.3390   33.9780   44.1660 N   0  0  0  0  0  0  0  0  0  0  0  0
   45.5870   34.0760   45.3030 C   0  0  0  0  0  0  0  0  0  0  0  0
   44.7090   35.0840   45.4420 N   0  0  0  0  0  0  0  0  0  0  0  0
   43.8490   36.8060   44.6040 H   0  0  0  0  0  0  0  0  0  0  0  0
   45.1540   36.6980   42.5480 H   0  0  0  0  0  0  0  0  0  0  0  0
   45.7790   33.2900   46.0230 H   0  0  0  0  0  0  0  0  0  0  0  0
   47.0010   34.8270   41.9230 C   0  0  0  0  0  0  0  0  0  0  0  0
   48.0610   34.7860   42.1890 H   0  0  0  0  0  0  0  0  0  0  0  0
   46.7840   35.7040   41.2860 H   0  0  0  0  0  0  0  0  0  0  0  0
   46.7050   33.6150   41.0970 C   0  0  0  0  0  3  0  0  0  0  0  0
   46.2740   33.5430   39.8410 C   0  0  0  0  0  3  0  0  0  0  0  0
   46.0020   32.2880   39.0880 C   0  0  0  0  0  2  0  0  0  0  0  0
   46.8200   32.0400   38.3770 H   0  0  0  0  0  0  0  0  0  0  0  0
  1  7  1  0  0  0  0
  1  6  1  0  0  0  0
  2  1  2  0  0  0  0
  3  2  1  0  0  0  0
  3  4  2  0  0  0  0
  4  5  1  0  0  0  0
  5  6  2  0  0  0  0
  5  9  1  0  0  0  0
  8  2  1  0  0  0  0
 10 11  1  0  0  0  0
 10  3  1  0  0  0  0
 12 10  1  0  0  0  0
 13 10  1  0  0  0  0
 14 13  2  0  0  0  0
 15 14  1  0  0  0  0
 16 15  1  0  0  0  0
M  END
>  <minimizedAffinity>
-3.2889483

>  <minimizedRMSD>
0.596283078

$$$$
