
 OpenBabel03252508353D

 30 31  0  0  1  0  0  0  0  0999 V2000
   38.0340   29.6210   41.1520 N   0  0  0  0  0  0  0  0  0  0  0  0
   36.6450   29.9230   41.3660 C   0  0  1  0  0  0  0  0  0  0  0  0
   36.1720   31.1730   40.7360 C   0  0  0  0  0  0  0  0  0  0  0  0
   37.0820   32.2340   40.7010 N   0  0  0  0  0  0  0  0  0  0  0  0
   38.4430   31.9740   40.6560 C   0  0  0  0  0  0  0  0  0  0  0  0
   38.7180   30.5260   40.2890 C   0  0  0  0  0  0  0  0  0  0  0  0
   36.4180   29.9390   42.4710 H   0  0  0  0  0  0  0  0  0  0  0  0
   35.8260   30.9430   39.7050 H   0  0  0  0  0  0  0  0  0  0  0  0
   35.2480   31.4970   41.2950 H   0  0  0  0  0  0  0  0  0  0  0  0
   36.7420   33.1840   40.6930 H   0  0  0  0  0  0  0  0  0  0  0  0
   38.9340   32.5910   39.8720 H   0  0  0  0  0  0  0  0  0  0  0  0
   39.0180   32.2110   41.5940 H   0  0  0  0  0  0  0  0  0  0  0  0
   39.8160   30.3680   40.4290 H   0  0  0  0  0  0  0  0  0  0  0  0
   38.5270   30.3730   39.2050 H   0  0  0  0  0  0  0  0  0  0  0  0
   39.2950   27.6040   41.0060 C   0  0  0  0  0  0  0  0  0  0  0  0
   38.5700   28.4900   41.7950 C   0  0  0  0  0  0  0  0  0  0  0  0
   38.4230   28.2010   43.1680 C   0  0  0  0  0  0  0  0  0  0  0  0
   38.9900   27.0730   43.6780 N   0  0  0  0  0  0  0  0  0  0  0  0
   39.6850   26.2390   42.8820 C   0  0  0  0  0  0  0  0  0  0  0  0
   39.8420   26.4860   41.5720 N   0  0  0  0  0  0  0  0  0  0  0  0
   39.4660   27.7310   39.9470 H   0  0  0  0  0  0  0  0  0  0  0  0
   37.8530   28.9320   43.6990 H   0  0  0  0  0  0  0  0  0  0  0  0
   40.1090   25.3570   43.3590 H   0  0  0  0  0  0  0  0  0  0  0  0
   35.8260   28.7690   40.8230 C   0  0  0  0  0  0  0  0  0  0  0  0
   35.2370   28.2660   41.6220 H   0  0  0  0  0  0  0  0  0  0  0  0
   36.5300   28.0400   40.3960 H   0  0  0  0  0  0  0  0  0  0  0  0
   34.9210   29.2080   39.7260 C   0  0  0  0  0  3  0  0  0  0  0  0
   34.6360   28.4700   38.6650 C   0  0  0  0  0  3  0  0  0  0  0  0
   33.7440   28.8760   37.5630 C   0  0  0  0  0  2  0  0  0  0  0  0
   33.9540   28.2500   36.6700 H   0  0  0  0  0  0  0  0  0  0  0  0
  1  2  1  0  0  0  0
  1 16  1  0  0  0  0
  2  7  1  1  0  0  0
  3  9  1  0  0  0  0
  3  2  1  0  0  0  0
  4  3  1  0  0  0  0
  5  4  1  0  0  0  0
  5 12  1  0  0  0  0
  6 13  1  0  0  0  0
  6  5  1  0  0  0  0
  6  1  1  0  0  0  0
  8  3  1  0  0  0  0
 10  4  1  0  0  0  0
 11  5  1  0  0  0  0
 14  6  1  0  0  0  0
 15 20  2  0  0  0  0
 15 16  1  0  0  0  0
 16 17  2  0  0  0  0
 17 18  1  0  0  0  0
 17 22  1  0  0  0  0
 19 23  1  0  0  0  0
 19 18  2  0  0  0  0
 20 19  1  0  0  0  0
 21 15  1  0  0  0  0
 24  2  1  0  0  0  0
 24 25  1  0  0  0  0
 26 24  1  0  0  0  0
 27 24  1  0  0  0  0
 28 27  2  0  0  0  0
 29 28  1  0  0  0  0
 30 29  1  0  0  0  0
M  END
>  <minimizedAffinity>
-4.36933136

$$$$

 OpenBabel03252508353D

 30 31  0  0  1  0  0  0  0  0999 V2000
   38.3590   31.3830   40.6440 N   0  0  0  0  0  0  0  0  0  0  0  0
   37.3270   31.4240   39.6430 C   0  0  1  0  0  0  0  0  0  0  0  0
   37.3060   32.6480   38.8160 C   0  0  0  0  0  0  0  0  0  0  0  0
   37.6480   33.8400   39.4610 N   0  0  0  0  0  0  0  0  0  0  0  0
   38.5210   33.8150   40.5380 C   0  0  0  0  0  0  0  0  0  0  0  0
   39.2570   32.4900   40.6230 C   0  0  0  0  0  0  0  0  0  0  0  0
   36.3180   31.2640   40.1210 H   0  0  0  0  0  0  0  0  0  0  0  0
   37.9680   32.4950   37.9370 H   0  0  0  0  0  0  0  0  0  0  0  0
   36.2650   32.7430   38.3930 H   0  0  0  0  0  0  0  0  0  0  0  0
   37.2700   34.7150   39.1300 H   0  0  0  0  0  0  0  0  0  0  0  0
   39.3030   34.5980   40.4270 H   0  0  0  0  0  0  0  0  0  0  0  0
   38.0630   34.0240   41.5450 H   0  0  0  0  0  0  0  0  0  0  0  0
   39.8110   32.4980   41.5940 H   0  0  0  0  0  0  0  0  0  0  0  0
   40.0360   32.4440   39.8310 H   0  0  0  0  0  0  0  0  0  0  0  0
   39.6290   29.7380   41.8100 C   0  0  0  0  0  0  0  0  0  0  0  0
   38.3830   30.2850   41.5230 C   0  0  0  0  0  0  0  0  0  0  0  0
   37.2430   29.7110   42.1230 C   0  0  0  0  0  0  0  0  0  0  0  0
   37.3930   28.6470   42.9610 N   0  0  0  0  0  0  0  0  0  0  0  0
   38.6150   28.1460   43.2140 C   0  0  0  0  0  0  0  0  0  0  0  0
   39.7190   28.6690   42.6570 N   0  0  0  0  0  0  0  0  0  0  0  0
   40.5610   30.1010   41.4040 H   0  0  0  0  0  0  0  0  0  0  0  0
   36.3290   30.1910   41.8500 H   0  0  0  0  0  0  0  0  0  0  0  0
   38.6580   27.2940   43.8920 H   0  0  0  0  0  0  0  0  0  0  0  0
   37.5140   30.2280   38.7320 C   0  0  0  0  0  0  0  0  0  0  0  0
   37.9900   29.3730   39.2610 H   0  0  0  0  0  0  0  0  0  0  0  0
   38.1730   30.5420   37.9100 H   0  0  0  0  0  0  0  0  0  0  0  0
   36.2250   29.7950   38.1270 C   0  0  0  0  0  3  0  0  0  0  0  0
   35.2440   29.2240   38.8090 C   0  0  0  0  0  3  0  0  0  0  0  0
   33.9570   28.7850   38.2390 C   0  0  0  0  0  2  0  0  0  0  0  0
   33.4860   28.0470   38.9220 H   0  0  0  0  0  0  0  0  0  0  0  0
  1 16  1  0  0  0  0
  2  7  1  1  0  0  0
  2  1  1  0  0  0  0
  3  4  1  0  0  0  0
  3  2  1  0  0  0  0
  4  5  1  0  0  0  0
  5  6  1  0  0  0  0
  5 12  1  0  0  0  0
  6  1  1  0  0  0  0
  6 13  1  0  0  0  0
  8  3  1  0  0  0  0
  9  3  1  0  0  0  0
 10  4  1  0  0  0  0
 11  5  1  0  0  0  0
 14  6  1  0  0  0  0
 15 20  1  0  0  0  0
 16 15  2  0  0  0  0
 16 17  1  0  0  0  0
 17 18  2  0  0  0  0
 18 19  1  0  0  0  0
 19 23  1  0  0  0  0
 20 19  2  0  0  0  0
 21 15  1  0  0  0  0
 22 17  1  0  0  0  0
 24 25  1  0  0  0  0
 24  2  1  0  0  0  0
 26 24  1  0  0  0  0
 27 24  1  0  0  0  0
 27 28  2  0  0  0  0
 29 28  1  0  0  0  0
 29 30  1  0  0  0  0
M  END
>  <minimizedAffinity>
-4.34289551

$$$$

 OpenBabel03252508353D

 30 31  0  0  1  0  0  0  0  0999 V2000
   36.6870   28.2650   41.0500 N   0  0  0  0  0  0  0  0  0  0  0  0
   37.2780   29.5490   41.3130 C   0  0  1  0  0  0  0  0  0  0  0  0
   37.9810   29.6610   42.6080 C   0  0  0  0  0  0  0  0  0  0  0  0
   37.4250   28.9580   43.6800 N   0  0  0  0  0  0  0  0  0  0  0  0
   36.7080   27.7940   43.4440 C   0  0  0  0  0  0  0  0  0  0  0  0
   36.9490   27.2720   42.0390 C   0  0  0  0  0  0  0  0  0  0  0  0
   36.4970   30.3590   41.2270 H   0  0  0  0  0  0  0  0  0  0  0  0
   39.0390   29.3520   42.4660 H   0  0  0  0  0  0  0  0  0  0  0  0
   38.0230   30.7580   42.8670 H   0  0  0  0  0  0  0  0  0  0  0  0
   37.5610   29.2920   44.6220 H   0  0  0  0  0  0  0  0  0  0  0  0
   37.0340   26.9870   44.1360 H   0  0  0  0  0  0  0  0  0  0  0  0
   35.5970   27.8630   43.6040 H   0  0  0  0  0  0  0  0  0  0  0  0
   36.2230   26.4350   41.8830 H   0  0  0  0  0  0  0  0  0  0  0  0
   37.9590   26.8090   41.9810 H   0  0  0  0  0  0  0  0  0  0  0  0
   34.8600   28.9850   39.7010 C   0  0  0  0  0  0  0  0  0  0  0  0
   35.9300   28.1140   39.8740 C   0  0  0  0  0  0  0  0  0  0  0  0
   36.1810   27.1520   38.8740 C   0  0  0  0  0  0  0  0  0  0  0  0
   35.3770   27.1030   37.7760 N   0  0  0  0  0  0  0  0  0  0  0  0
   34.3510   27.9630   37.6440 C   0  0  0  0  0  0  0  0  0  0  0  0
   34.0850   28.8890   38.5790 N   0  0  0  0  0  0  0  0  0  0  0  0
   34.5810   29.7550   40.4050 H   0  0  0  0  0  0  0  0  0  0  0  0
   37.0200   26.5250   39.0850 H   0  0  0  0  0  0  0  0  0  0  0  0
   33.7500   27.8650   36.7400 H   0  0  0  0  0  0  0  0  0  0  0  0
   38.2630   29.8470   40.2010 C   0  0  0  0  0  0  0  0  0  0  0  0
   38.0490   29.2500   39.2860 H   0  0  0  0  0  0  0  0  0  0  0  0
   39.2630   29.5770   40.5680 H   0  0  0  0  0  0  0  0  0  0  0  0
   38.2880   31.2970   39.8660 C   0  0  0  0  0  3  0  0  0  0  0  0
   37.2100   32.0630   39.8230 C   0  0  0  0  0  3  0  0  0  0  0  0
   37.2030   33.5010   39.4950 C   0  0  0  0  0  2  0  0  0  0  0  0
   36.1790   33.8030   39.1890 H   0  0  0  0  0  0  0  0  0  0  0  0
  1  2  1  0  0  0  0
  1  6  1  0  0  0  0
  2  7  1  6  0  0  0
  2  3  1  0  0  0  0
  3  9  1  0  0  0  0
  3  4  1  0  0  0  0
  4 10  1  0  0  0  0
  5 12  1  0  0  0  0
  5  4  1  0  0  0  0
  5 11  1  0  0  0  0
  6  5  1  0  0  0  0
  8  3  1  0  0  0  0
 13  6  1  0  0  0  0
 14  6  1  0  0  0  0
 15 16  1  0  0  0  0
 15 21  1  0  0  0  0
 16  1  1  0  0  0  0
 17 22  1  0  0  0  0
 17 16  2  0  0  0  0
 18 17  1  0  0  0  0
 19 18  2  0  0  0  0
 19 20  1  0  0  0  0
 20 15  2  0  0  0  0
 23 19  1  0  0  0  0
 24 26  1  0  0  0  0
 24  2  1  0  0  0  0
 25 24  1  0  0  0  0
 27 24  1  0  0  0  0
 28 27  2  0  0  0  0
 29 28  1  0  0  0  0
 30 29  1  0  0  0  0
M  END
>  <minimizedAffinity>
-4.25786877

$$$$

 OpenBabel03252508353D

 30 31  0  0  1  0  0  0  0  0999 V2000
   38.6030   30.3380   41.1890 N   0  0  0  0  0  0  0  0  0  0  0  0
   37.7800   31.5170   41.1690 C   0  0  1  0  0  0  0  0  0  0  0  0
   38.4490   32.7390   40.6800 C   0  0  0  0  0  0  0  0  0  0  0  0
   39.8000   32.8820   41.0080 N   0  0  0  0  0  0  0  0  0  0  0  0
   40.5880   31.7560   41.1930 C   0  0  0  0  0  0  0  0  0  0  0  0
   39.9100   30.5110   40.6470 C   0  0  0  0  0  0  0  0  0  0  0  0
   37.3430   31.7010   42.1930 H   0  0  0  0  0  0  0  0  0  0  0  0
   38.3250   32.7960   39.5770 H   0  0  0  0  0  0  0  0  0  0  0  0
   37.8740   33.6180   41.0900 H   0  0  0  0  0  0  0  0  0  0  0  0
   40.2000   33.8050   41.0940 H   0  0  0  0  0  0  0  0  0  0  0  0
   41.5470   31.8540   40.6390 H   0  0  0  0  0  0  0  0  0  0  0  0
   40.9010   31.5450   42.2530 H   0  0  0  0  0  0  0  0  0  0  0  0
   40.5330   29.6420   40.9750 H   0  0  0  0  0  0  0  0  0  0  0  0
   39.9590   30.5160   39.5360 H   0  0  0  0  0  0  0  0  0  0  0  0
   37.7740   29.1570   43.0860 C   0  0  0  0  0  0  0  0  0  0  0  0
   38.0540   29.1580   41.7240 C   0  0  0  0  0  0  0  0  0  0  0  0
   37.7730   27.9930   40.9790 C   0  0  0  0  0  0  0  0  0  0  0  0
   37.2390   26.9100   41.6100 N   0  0  0  0  0  0  0  0  0  0  0  0
   36.9820   26.9470   42.9300 C   0  0  0  0  0  0  0  0  0  0  0  0
   37.2400   28.0400   43.6660 N   0  0  0  0  0  0  0  0  0  0  0  0
   37.9510   29.9940   43.7440 H   0  0  0  0  0  0  0  0  0  0  0  0
   38.0170   28.0790   39.9430 H   0  0  0  0  0  0  0  0  0  0  0  0
   36.5570   26.0440   43.3650 H   0  0  0  0  0  0  0  0  0  0  0  0
   36.5810   31.2350   40.2860 C   0  0  0  0  0  0  0  0  0  0  0  0
   35.7510   31.9520   40.4710 H   0  0  0  0  0  0  0  0  0  0  0  0
   36.2280   30.2220   40.5250 H   0  0  0  0  0  0  0  0  0  0  0  0
   36.9490   31.2480   38.8440 C   0  0  0  0  0  3  0  0  0  0  0  0
   36.7460   30.2310   38.0210 C   0  0  0  0  0  3  0  0  0  0  0  0
   37.0990   30.2140   36.5890 C   0  0  0  0  0  2  0  0  0  0  0  0
   37.1520   29.1620   36.2360 H   0  0  0  0  0  0  0  0  0  0  0  0
  1 16  1  0  0  0  0
  2  1  1  0  0  0  0
  2  7  1  1  0  0  0
  3  4  1  0  0  0  0
  3  9  1  0  0  0  0
  3  2  1  0  0  0  0
  4 10  1  0  0  0  0
  4  5  1  0  0  0  0
  5 12  1  0  0  0  0
  6 13  1  0  0  0  0
  6  1  1  0  0  0  0
  6  5  1  0  0  0  0
  8  3  1  0  0  0  0
 11  5  1  0  0  0  0
 14  6  1  0  0  0  0
 15 20  1  0  0  0  0
 15 21  1  0  0  0  0
 16 15  2  0  0  0  0
 17 18  2  0  0  0  0
 17 16  1  0  0  0  0
 18 19  1  0  0  0  0
 19 23  1  0  0  0  0
 19 20  2  0  0  0  0
 22 17  1  0  0  0  0
 24 25  1  0  0  0  0
 24 26  1  0  0  0  0
 24  2  1  0  0  0  0
 27 24  1  0  0  0  0
 28 27  2  0  0  0  0
 29 28  1  0  0  0  0
 30 29  1  0  0  0  0
M  END
>  <minimizedAffinity>
-4.2073946

$$$$

 OpenBabel03252508353D

 30 31  0  0  1  0  0  0  0  0999 V2000
   37.4780   28.2840   41.6660 N   0  0  0  0  0  0  0  0  0  0  0  0
   38.0040   27.0100   42.0740 C   0  0  1  0  0  0  0  0  0  0  0  0
   38.9930   27.0630   43.1710 C   0  0  0  0  0  0  0  0  0  0  0  0
   39.8520   28.1650   43.1800 N   0  0  0  0  0  0  0  0  0  0  0  0
   39.4290   29.3730   42.6460 C   0  0  0  0  0  0  0  0  0  0  0  0
   37.9240   29.3920   42.4440 C   0  0  0  0  0  0  0  0  0  0  0  0
   38.4430   26.4700   41.1860 H   0  0  0  0  0  0  0  0  0  0  0  0
   38.4530   27.0000   44.1400 H   0  0  0  0  0  0  0  0  0  0  0  0
   39.6060   26.1180   43.1100 H   0  0  0  0  0  0  0  0  0  0  0  0
   40.7690   28.0820   43.5910 H   0  0  0  0  0  0  0  0  0  0  0  0
   39.6600   30.2110   43.3400 H   0  0  0  0  0  0  0  0  0  0  0  0
   39.9140   29.6760   41.6770 H   0  0  0  0  0  0  0  0  0  0  0  0
   37.6940   30.3250   41.8720 H   0  0  0  0  0  0  0  0  0  0  0  0
   37.4170   29.5080   43.4270 H   0  0  0  0  0  0  0  0  0  0  0  0
   35.4390   29.0700   40.7160 C   0  0  0  0  0  0  0  0  0  0  0  0
   36.5970   28.3140   40.5700 C   0  0  0  0  0  0  0  0  0  0  0  0
   36.8080   27.6380   39.3500 C   0  0  0  0  0  0  0  0  0  0  0  0
   35.8810   27.7440   38.3580 N   0  0  0  0  0  0  0  0  0  0  0  0
   34.7730   28.4860   38.5370 C   0  0  0  0  0  0  0  0  0  0  0  0
   34.5430   29.1400   39.6860 N   0  0  0  0  0  0  0  0  0  0  0  0
   35.1820   29.6250   41.6060 H   0  0  0  0  0  0  0  0  0  0  0  0
   37.7200   27.0820   39.3230 H   0  0  0  0  0  0  0  0  0  0  0  0
   34.0760   28.5230   37.7010 H   0  0  0  0  0  0  0  0  0  0  0  0
   36.8420   26.1430   42.5140 C   0  0  0  0  0  0  0  0  0  0  0  0
   35.8780   26.4880   42.0760 H   0  0  0  0  0  0  0  0  0  0  0  0
   36.7740   26.2150   43.6090 H   0  0  0  0  0  0  0  0  0  0  0  0
   37.0680   24.7110   42.1760 C   0  0  0  0  0  3  0  0  0  0  0  0
   37.4590   24.2870   40.9850 C   0  0  0  0  0  3  0  0  0  0  0  0
   37.6920   22.8770   40.6200 C   0  0  0  0  0  2  0  0  0  0  0  0
   37.6620   22.7740   39.5150 H   0  0  0  0  0  0  0  0  0  0  0  0
  1  2  1  0  0  0  0
  1  6  1  0  0  0  0
  2  7  1  6  0  0  0
  2 24  1  0  0  0  0
  2  3  1  0  0  0  0
  3  4  1  0  0  0  0
  3  8  1  0  0  0  0
  4 10  1  0  0  0  0
  5  4  1  0  0  0  0
  5 11  1  0  0  0  0
  6  5  1  0  0  0  0
  6 14  1  0  0  0  0
  9  3  1  0  0  0  0
 12  5  1  0  0  0  0
 13  6  1  0  0  0  0
 15 21  1  0  0  0  0
 16 15  1  0  0  0  0
 16  1  1  0  0  0  0
 17 16  2  0  0  0  0
 18 19  2  0  0  0  0
 18 17  1  0  0  0  0
 19 20  1  0  0  0  0
 20 15  2  0  0  0  0
 22 17  1  0  0  0  0
 23 19  1  0  0  0  0
 24 26  1  0  0  0  0
 25 24  1  0  0  0  0
 27 24  1  0  0  0  0
 28 27  2  0  0  0  0
 29 28  1  0  0  0  0
 30 29  1  0  0  0  0
M  END
>  <minimizedAffinity>
-4.17715597

$$$$

 OpenBabel03252508353D

 30 31  0  0  1  0  0  0  0  0999 V2000
   38.1110   30.0530   40.5860 N   0  0  0  0  0  0  0  0  0  0  0  0
   37.4130   29.7520   41.8070 C   0  0  1  0  0  0  0  0  0  0  0  0
   36.5750   28.5360   41.7650 C   0  0  0  0  0  0  0  0  0  0  0  0
   35.9340   28.2650   40.5540 N   0  0  0  0  0  0  0  0  0  0  0  0
   36.5050   28.6850   39.3620 C   0  0  0  0  0  0  0  0  0  0  0  0
   37.9570   29.0820   39.5540 C   0  0  0  0  0  0  0  0  0  0  0  0
   36.7900   30.6380   42.1260 H   0  0  0  0  0  0  0  0  0  0  0  0
   37.1980   27.6650   42.0630 H   0  0  0  0  0  0  0  0  0  0  0  0
   35.8000   28.6400   42.5780 H   0  0  0  0  0  0  0  0  0  0  0  0
   35.0660   27.7490   40.5510 H   0  0  0  0  0  0  0  0  0  0  0  0
   36.5040   27.8600   38.6160 H   0  0  0  0  0  0  0  0  0  0  0  0
   35.9790   29.5310   38.8390 H   0  0  0  0  0  0  0  0  0  0  0  0
   38.2870   29.5500   38.5940 H   0  0  0  0  0  0  0  0  0  0  0  0
   38.5810   28.1690   39.6750 H   0  0  0  0  0  0  0  0  0  0  0  0
   38.1560   32.4340   40.6800 C   0  0  0  0  0  0  0  0  0  0  0  0
   38.8580   31.2430   40.5290 C   0  0  0  0  0  0  0  0  0  0  0  0
   40.2540   31.3070   40.3330 C   0  0  0  0  0  0  0  0  0  0  0  0
   40.8690   32.5210   40.2970 N   0  0  0  0  0  0  0  0  0  0  0  0
   40.1550   33.6520   40.4460 C   0  0  0  0  0  0  0  0  0  0  0  0
   38.8260   33.6250   40.6340 N   0  0  0  0  0  0  0  0  0  0  0  0
   37.0890   32.4960   40.8340 H   0  0  0  0  0  0  0  0  0  0  0  0
   40.7140   30.3490   40.2270 H   0  0  0  0  0  0  0  0  0  0  0  0
   40.7140   34.5860   40.4050 H   0  0  0  0  0  0  0  0  0  0  0  0
   38.4430   29.5920   42.9070 C   0  0  0  0  0  0  0  0  0  0  0  0
   38.1960   30.2070   43.8000 H   0  0  0  0  0  0  0  0  0  0  0  0
   39.4080   29.9330   42.5040 H   0  0  0  0  0  0  0  0  0  0  0  0
   38.6050   28.1660   43.3010 C   0  0  0  0  0  3  0  0  0  0  0  0
   39.7640   27.5260   43.2950 C   0  0  0  0  0  3  0  0  0  0  0  0
   39.9570   26.1150   43.6800 C   0  0  0  0  0  2  0  0  0  0  0  0
   40.9150   25.7470   43.2570 H   0  0  0  0  0  0  0  0  0  0  0  0
  1  2  1  0  0  0  0
  2  7  1  1  0  0  0
  2 24  1  0  0  0  0
  3  2  1  0  0  0  0
  3  8  1  0  0  0  0
  3  9  1  0  0  0  0
  4  3  1  0  0  0  0
  5  6  1  0  0  0  0
  5  4  1  0  0  0  0
  6 14  1  0  0  0  0
  6  1  1  0  0  0  0
 10  4  1  0  0  0  0
 11  5  1  0  0  0  0
 12  5  1  0  0  0  0
 13  6  1  0  0  0  0
 15 21  1  0  0  0  0
 16  1  1  0  0  0  0
 16 15  2  0  0  0  0
 17 16  1  0  0  0  0
 18 17  2  0  0  0  0
 18 19  1  0  0  0  0
 19 20  2  0  0  0  0
 20 15  1  0  0  0  0
 22 17  1  0  0  0  0
 23 19  1  0  0  0  0
 24 27  1  0  0  0  0
 24 25  1  0  0  0  0
 26 24  1  0  0  0  0
 28 27  2  0  0  0  0
 28 29  1  0  0  0  0
 30 29  1  0  0  0  0
M  END
>  <minimizedAffinity>
-4.15687513

$$$$

 OpenBabel03252508353D

 30 31  0  0  1  0  0  0  0  0999 V2000
   37.8410   27.0820   41.5970 N   0  0  0  0  0  0  0  0  0  0  0  0
   36.7640   27.8560   41.0440 C   0  0  1  0  0  0  0  0  0  0  0  0
   36.6490   29.2330   41.5690 C   0  0  0  0  0  0  0  0  0  0  0  0
   36.9670   29.4120   42.9170 N   0  0  0  0  0  0  0  0  0  0  0  0
   37.8900   28.5750   43.5260 C   0  0  0  0  0  0  0  0  0  0  0  0
   38.6880   27.7920   42.4980 C   0  0  0  0  0  0  0  0  0  0  0  0
   35.7850   27.3100   41.1800 H   0  0  0  0  0  0  0  0  0  0  0  0
   37.2750   29.9050   40.9430 H   0  0  0  0  0  0  0  0  0  0  0  0
   35.5860   29.5660   41.3930 H   0  0  0  0  0  0  0  0  0  0  0  0
   36.5360   30.1610   43.4380 H   0  0  0  0  0  0  0  0  0  0  0  0
   38.6300   29.1660   44.1090 H   0  0  0  0  0  0  0  0  0  0  0  0
   37.4710   27.8450   44.2720 H   0  0  0  0  0  0  0  0  0  0  0  0
   39.2860   27.0390   43.0690 H   0  0  0  0  0  0  0  0  0  0  0  0
   39.4300   28.4620   42.0120 H   0  0  0  0  0  0  0  0  0  0  0  0
   39.1610   25.3500   40.6290 C   0  0  0  0  0  0  0  0  0  0  0  0
   37.9560   25.7350   41.2060 C   0  0  0  0  0  0  0  0  0  0  0  0
   36.9430   24.7650   41.3580 C   0  0  0  0  0  0  0  0  0  0  0  0
   37.1720   23.4890   40.9410 N   0  0  0  0  0  0  0  0  0  0  0  0
   38.3510   23.1540   40.3870 C   0  0  0  0  0  0  0  0  0  0  0  0
   39.3340   24.0540   40.2270 N   0  0  0  0  0  0  0  0  0  0  0  0
   39.9980   26.0120   40.4670 H   0  0  0  0  0  0  0  0  0  0  0  0
   36.0530   25.1450   41.8090 H   0  0  0  0  0  0  0  0  0  0  0  0
   38.4610   22.1160   40.0760 H   0  0  0  0  0  0  0  0  0  0  0  0
   36.9600   27.9250   39.5440 C   0  0  0  0  0  0  0  0  0  0  0  0
   37.6810   27.1580   39.1830 H   0  0  0  0  0  0  0  0  0  0  0  0
   37.3630   28.9210   39.3110 H   0  0  0  0  0  0  0  0  0  0  0  0
   35.6690   27.7890   38.8160 C   0  0  0  0  0  3  0  0  0  0  0  0
   34.9520   28.8150   38.3850 C   0  0  0  0  0  3  0  0  0  0  0  0
   33.6710   28.7120   37.6620 C   0  0  0  0  0  2  0  0  0  0  0  0
   33.1300   29.6790   37.7340 H   0  0  0  0  0  0  0  0  0  0  0  0
  1  6  1  0  0  0  0
  2  7  1  1  0  0  0
  2  3  1  0  0  0  0
  2  1  1  0  0  0  0
  3  4  1  0  0  0  0
  4 10  1  0  0  0  0
  4  5  1  0  0  0  0
  5 11  1  0  0  0  0
  5 12  1  0  0  0  0
  6 13  1  0  0  0  0
  6  5  1  0  0  0  0
  8  3  1  0  0  0  0
  9  3  1  0  0  0  0
 14  6  1  0  0  0  0
 15 16  1  0  0  0  0
 16 17  2  0  0  0  0
 16  1  1  0  0  0  0
 17 22  1  0  0  0  0
 18 17  1  0  0  0  0
 19 18  2  0  0  0  0
 20 19  1  0  0  0  0
 20 15  2  0  0  0  0
 21 15  1  0  0  0  0
 23 19  1  0  0  0  0
 24  2  1  0  0  0  0
 25 24  1  0  0  0  0
 26 24  1  0  0  0  0
 27 24  1  0  0  0  0
 28 27  2  0  0  0  0
 29 30  1  0  0  0  0
 29 28  1  0  0  0  0
M  END
>  <minimizedAffinity>
-4.13736582

$$$$

 OpenBabel03252508353D

 30 31  0  0  1  0  0  0  0  0999 V2000
   38.3300   26.6720   42.3520 N   0  0  0  0  0  0  0  0  0  0  0  0
   38.6010   25.2780   42.1290 C   0  0  1  0  0  0  0  0  0  0  0  0
   39.5200   24.6550   43.1050 C   0  0  0  0  0  0  0  0  0  0  0  0
   40.5560   25.4610   43.5850 N   0  0  0  0  0  0  0  0  0  0  0  0
   40.3820   26.8350   43.6620 C   0  0  0  0  0  0  0  0  0  0  0  0
   38.9170   27.2150   43.5320 C   0  0  0  0  0  0  0  0  0  0  0  0
   38.9900   25.1220   41.0810 H   0  0  0  0  0  0  0  0  0  0  0  0
   38.9230   24.2660   43.9570 H   0  0  0  0  0  0  0  0  0  0  0  0
   39.9610   23.7440   42.6090 H   0  0  0  0  0  0  0  0  0  0  0  0
   41.4200   25.0380   43.8880 H   0  0  0  0  0  0  0  0  0  0  0  0
   40.7150   27.2170   44.6520 H   0  0  0  0  0  0  0  0  0  0  0  0
   40.9670   27.4450   42.9200 H   0  0  0  0  0  0  0  0  0  0  0  0
   38.8860   28.3300   43.4470 H   0  0  0  0  0  0  0  0  0  0  0  0
   38.3830   26.9690   44.4760 H   0  0  0  0  0  0  0  0  0  0  0  0
   36.4660   28.0900   41.9100 C   0  0  0  0  0  0  0  0  0  0  0  0
   37.5320   27.3490   41.4120 C   0  0  0  0  0  0  0  0  0  0  0  0
   37.7390   27.3240   40.0160 C   0  0  0  0  0  0  0  0  0  0  0  0
   36.8980   28.0220   39.2040 N   0  0  0  0  0  0  0  0  0  0  0  0
   35.8770   28.7280   39.7230 C   0  0  0  0  0  0  0  0  0  0  0  0
   35.6530   28.7700   41.0470 N   0  0  0  0  0  0  0  0  0  0  0  0
   36.2210   28.1740   42.9580 H   0  0  0  0  0  0  0  0  0  0  0  0
   38.5770   26.7320   39.7200 H   0  0  0  0  0  0  0  0  0  0  0  0
   35.2460   29.2590   39.0130 H   0  0  0  0  0  0  0  0  0  0  0  0
   37.2820   24.5340   42.1640 C   0  0  0  0  0  0  0  0  0  0  0  0
   36.4200   25.2230   42.3100 H   0  0  0  0  0  0  0  0  0  0  0  0
   37.3210   23.8380   43.0150 H   0  0  0  0  0  0  0  0  0  0  0  0
   37.0790   23.7210   40.9340 C   0  0  0  0  0  3  0  0  0  0  0  0
   36.0280   23.8370   40.1380 C   0  0  0  0  0  3  0  0  0  0  0  0
   35.7990   23.0470   38.9140 C   0  0  0  0  0  2  0  0  0  0  0  0
   34.7220   23.0870   38.6470 H   0  0  0  0  0  0  0  0  0  0  0  0
  1  6  1  0  0  0  0
  2  7  1  6  0  0  0
  2 24  1  0  0  0  0
  2  1  1  0  0  0  0
  2  3  1  0  0  0  0
  3  4  1  0  0  0  0
  3  8  1  0  0  0  0
  4  5  1  0  0  0  0
  4 10  1  0  0  0  0
  5 11  1  0  0  0  0
  6  5  1  0  0  0  0
  6 14  1  0  0  0  0
  9  3  1  0  0  0  0
 12  5  1  0  0  0  0
 13  6  1  0  0  0  0
 15 21  1  0  0  0  0
 16 15  1  0  0  0  0
 16  1  1  0  0  0  0
 17 16  2  0  0  0  0
 18 19  2  0  0  0  0
 18 17  1  0  0  0  0
 19 20  1  0  0  0  0
 20 15  2  0  0  0  0
 22 17  1  0  0  0  0
 23 19  1  0  0  0  0
 24 25  1  0  0  0  0
 24 26  1  0  0  0  0
 27 24  1  0  0  0  0
 28 27  2  0  0  0  0
 29 28  1  0  0  0  0
 30 29  1  0  0  0  0
M  END
>  <minimizedAffinity>
-4.12587309

$$$$

 OpenBabel03252508353D

 30 31  0  0  1  0  0  0  0  0999 V2000
   37.2680   30.6740   39.0850 N   0  0  0  0  0  0  0  0  0  0  0  0
   35.9890   30.3360   39.6490 C   0  0  1  0  0  0  0  0  0  0  0  0
   35.3010   29.1980   39.0040 C   0  0  0  0  0  0  0  0  0  0  0  0
   35.4670   29.0750   37.6220 N   0  0  0  0  0  0  0  0  0  0  0  0
   36.6280   29.5390   37.0220 C   0  0  0  0  0  0  0  0  0  0  0  0
   37.7150   29.8010   38.0500 C   0  0  0  0  0  0  0  0  0  0  0  0
   35.3160   31.2410   39.6510 H   0  0  0  0  0  0  0  0  0  0  0  0
   35.6210   28.2590   39.5050 H   0  0  0  0  0  0  0  0  0  0  0  0
   34.2030   29.3010   39.2360 H   0  0  0  0  0  0  0  0  0  0  0  0
   34.7480   28.6330   37.0690 H   0  0  0  0  0  0  0  0  0  0  0  0
   37.0390   28.7780   36.3230 H   0  0  0  0  0  0  0  0  0  0  0  0
   36.5170   30.4630   36.3900 H   0  0  0  0  0  0  0  0  0  0  0  0
   38.5470   30.3140   37.5070 H   0  0  0  0  0  0  0  0  0  0  0  0
   38.1360   28.8340   38.4030 H   0  0  0  0  0  0  0  0  0  0  0  0
   37.3020   33.0280   39.4500 C   0  0  0  0  0  0  0  0  0  0  0  0
   37.9380   31.8000   39.5950 C   0  0  0  0  0  0  0  0  0  0  0  0
   39.1940   31.7660   40.2360 C   0  0  0  0  0  0  0  0  0  0  0  0
   39.7440   32.9260   40.6910 N   0  0  0  0  0  0  0  0  0  0  0  0
   39.0980   34.0960   40.5320 C   0  0  0  0  0  0  0  0  0  0  0  0
   37.9020   34.1610   39.9250 N   0  0  0  0  0  0  0  0  0  0  0  0
   36.3410   33.1640   38.9760 H   0  0  0  0  0  0  0  0  0  0  0  0
   39.6110   30.7860   40.3060 H   0  0  0  0  0  0  0  0  0  0  0  0
   39.5990   34.9820   40.9190 H   0  0  0  0  0  0  0  0  0  0  0  0
   36.1960   30.0080   41.1130 C   0  0  0  0  0  0  0  0  0  0  0  0
   35.4160   30.4720   41.7570 H   0  0  0  0  0  0  0  0  0  0  0  0
   37.1760   30.4120   41.4040 H   0  0  0  0  0  0  0  0  0  0  0  0
   36.2350   28.5380   41.3450 C   0  0  0  0  0  3  0  0  0  0  0  0
   36.9250   27.9620   42.3180 C   0  0  0  0  0  3  0  0  0  0  0  0
   36.9840   26.5110   42.5720 C   0  0  0  0  0  2  0  0  0  0  0  0
   37.8770   26.2830   43.1910 H   0  0  0  0  0  0  0  0  0  0  0  0
  1 16  1  0  0  0  0
  1  2  1  0  0  0  0
  2  7  1  6  0  0  0
  2 24  1  0  0  0  0
  3  9  1  0  0  0  0
  3  8  1  0  0  0  0
  3  2  1  0  0  0  0
  4  3  1  0  0  0  0
  5  4  1  0  0  0  0
  5  6  1  0  0  0  0
  6 14  1  0  0  0  0
  6  1  1  0  0  0  0
 10  4  1  0  0  0  0
 11  5  1  0  0  0  0
 12  5  1  0  0  0  0
 13  6  1  0  0  0  0
 15 16  2  0  0  0  0
 15 20  1  0  0  0  0
 16 17  1  0  0  0  0
 17 22  1  0  0  0  0
 17 18  2  0  0  0  0
 19 18  1  0  0  0  0
 19 23  1  0  0  0  0
 20 19  2  0  0  0  0
 21 15  1  0  0  0  0
 24 27  1  0  0  0  0
 24 26  1  0  0  0  0
 24 25  1  0  0  0  0
 27 28  2  0  0  0  0
 28 29  1  0  0  0  0
 29 30  1  0  0  0  0
M  END
>  <minimizedAffinity>
-4.1138382

$$$$
