
 OpenBabel03242519323D

 43 45  0  0  0  0  0  0  0  0999 V2000
   47.9080   33.8580   42.8510 C   0  0  0  0  0  0  0  0  0  0  0  0
   48.5640   35.1070   42.6400 C   0  0  0  0  0  0  0  0  0  0  0  0
   49.9270   35.1320   42.3250 C   0  0  0  0  0  0  0  0  0  0  0  0
   50.5550   33.9160   42.2400 N   0  0  0  0  0  0  0  0  0  0  0  0
   49.8820   32.7370   42.4520 C   0  0  0  0  0  0  0  0  0  0  0  0
   48.5930   32.7290   42.7480 N   0  0  0  0  0  0  0  0  0  0  0  0
   48.1230   36.0940   42.6940 H   0  0  0  0  0  0  0  0  0  0  0  0
   50.4640   36.0350   42.1580 H   0  0  0  0  0  0  0  0  0  0  0  0
   46.4860   33.9760   43.1770 C   0  0  0  0  0  0  0  0  0  0  0  0
   45.7640   34.9780   42.4330 C   0  0  0  0  0  0  0  0  0  0  0  0
   45.2910   36.1270   43.2370 C   0  0  0  0  0  0  0  0  0  0  0  0
   44.4310   35.6540   44.4110 C   0  0  0  0  0  0  0  0  0  0  0  0
   44.9830   34.4690   45.1160 C   0  0  0  0  0  0  0  0  0  0  0  0
   46.4310   34.2070   44.7260 C   0  0  0  0  0  0  0  0  0  0  0  0
   46.0290   32.9500   43.0460 H   0  0  0  0  0  0  0  0  0  0  0  0
   46.4060   35.3990   41.6090 H   0  0  0  0  0  0  0  0  0  0  0  0
   44.8740   34.5600   41.9080 H   0  0  0  0  0  0  0  0  0  0  0  0
   46.0350   36.7980   43.6540 H   0  0  0  0  0  0  0  0  0  0  0  0
   44.6110   36.7670   42.6130 H   0  0  0  0  0  0  0  0  0  0  0  0
   43.4040   35.4700   44.0130 H   0  0  0  0  0  0  0  0  0  0  0  0
   44.3160   36.4730   45.1580 H   0  0  0  0  0  0  0  0  0  0  0  0
   44.4320   33.5260   44.8900 H   0  0  0  0  0  0  0  0  0  0  0  0
   44.9820   34.5920   46.2070 H   0  0  0  0  0  0  0  0  0  0  0  0
   46.7310   33.2430   45.1670 H   0  0  0  0  0  0  0  0  0  0  0  0
   47.0910   35.0540   44.9900 H   0  0  0  0  0  0  0  0  0  0  0  0
   50.7210   31.5520   42.3220 C   0  0  0  0  0  0  0  0  0  0  0  0
   51.4330   31.3720   41.1980 N   0  0  0  0  0  0  0  0  0  0  0  0
   52.1330   30.2120   41.3020 C   0  0  0  0  0  0  0  0  0  0  0  0
   51.8370   29.6850   42.5060 N   0  0  0  0  0  0  0  0  0  0  0  0
   50.9790   30.4920   43.1340 N   0  0  0  0  0  0  0  0  0  0  0  0
   52.8070   29.7850   40.5480 H   0  0  0  0  0  0  0  0  0  0  0  0
   52.3510   28.4650   43.0830 C   0  0  0  0  0  0  0  0  0  0  0  0
   52.4180   27.6380   42.3990 H   0  0  0  0  0  0  0  0  0  0  0  0
   51.6360   28.1330   43.8890 H   0  0  0  0  0  0  0  0  0  0  0  0
   53.6260   28.7330   43.7450 C   0  0  0  0  0  3  0  0  0  0  0  0
   54.0390   29.5790   44.6590 C   0  0  0  0  0  3  0  0  0  0  0  0
   55.4170   29.6860   45.3250 C   0  0  0  0  0  0  0  0  0  0  0  0
   55.2670   30.4890   46.0760 H   0  0  0  0  0  0  0  0  0  0  0  0
   55.6100   28.6900   45.7880 H   0  0  0  0  0  0  0  0  0  0  0  0
   56.3740   30.0750   44.2860 C   0  0  0  0  0  2  0  0  0  0  0  0
   57.1580   30.5430   43.3330 C   0  0  0  0  0  2  0  0  0  0  0  0
   58.4100   30.1120   42.6120 C   0  0  0  0  0  2  0  0  0  0  0  0
   58.6580   29.0810   43.0140 H   0  0  0  0  0  0  0  0  0  0  0  0
  1  9  1  0  0  0  0
  2  7  1  0  0  0  0
  2  1  2  0  0  0  0
  3  2  1  0  0  0  0
  4  3  2  0  0  0  0
  4  5  1  0  0  0  0
  5  6  2  0  0  0  0
  6  1  1  0  0  0  0
  8  3  1  0  0  0  0
  9 14  1  0  0  0  0
 10  9  1  0  0  0  0
 10 11  1  0  0  0  0
 11 18  1  0  0  0  0
 11 12  1  0  0  0  0
 12 13  1  0  0  0  0
 12 21  1  0  0  0  0
 13 23  1  0  0  0  0
 14 25  1  0  0  0  0
 14 13  1  0  0  0  0
 14 24  1  0  0  0  0
 15  9  1  0  0  0  0
 16 10  1  0  0  0  0
 17 10  1  0  0  0  0
 19 11  1  0  0  0  0
 20 12  1  0  0  0  0
 22 13  1  0  0  0  0
 26  5  1  0  0  0  0
 26 30  2  0  0  0  0
 27 28  2  0  0  0  0
 27 26  1  0  0  0  0
 28 29  1  0  0  0  0
 29 32  1  0  0  0  0
 29 30  1  0  0  0  0
 31 28  1  0  0  0  0
 32 35  1  0  0  0  0
 32 34  1  0  0  0  0
 33 32  1  0  0  0  0
 35 36  2  0  0  0  0
 36 37  1  0  0  0  0
 37 39  1  0  0  0  0
 37 38  1  0  0  0  0
 40 37  1  0  0  0  0
 41 40  1  0  0  0  0
 42 43  1  0  0  0  0
 42 41  1  0  0  0  0
M  END
>  <minimizedAffinity>
-4.09141827

>  <minimizedRMSD>
0.798149467

$$$$
