
 OpenBabel03252509303D

 16 16  0  0  0  0  0  0  0  0999 V2000
   44.5670   35.9830   44.4730 C   0  0  0  0  0  0  0  0  0  0  0  0
   45.3870   35.8710   43.3160 C   0  0  0  0  0  0  0  0  0  0  0  0
   46.2830   34.8140   43.2660 C   0  0  0  0  0  0  0  0  0  0  0  0
   46.3390   33.9420   44.3110 N   0  0  0  0  0  0  0  0  0  0  0  0
   45.5320   34.0850   45.4050 C   0  0  0  0  0  0  0  0  0  0  0  0
   44.6590   35.1050   45.4670 N   0  0  0  0  0  0  0  0  0  0  0  0
   43.8580   36.8050   44.5300 H   0  0  0  0  0  0  0  0  0  0  0  0
   45.2620   36.6170   42.5460 H   0  0  0  0  0  0  0  0  0  0  0  0
   45.6810   33.3230   46.1590 H   0  0  0  0  0  0  0  0  0  0  0  0
   47.1190   34.7100   42.0750 C   0  0  0  0  0  0  0  0  0  0  0  0
   47.8580   33.9220   42.2460 H   0  0  0  0  0  0  0  0  0  0  0  0
   47.6100   35.6770   41.8590 H   0  0  0  0  0  0  0  0  0  0  0  0
   46.3490   34.3370   40.8480 C   0  0  0  0  0  3  0  0  0  0  0  0
   45.6170   33.2510   40.6160 C   0  0  0  0  0  3  0  0  0  0  0  0
   44.8770   32.9550   39.3600 C   0  0  0  0  0  2  0  0  0  0  0  0
   43.7890   33.1560   39.4570 H   0  0  0  0  0  0  0  0  0  0  0  0
  1  7  1  0  0  0  0
  1  6  1  0  0  0  0
  2  1  2  0  0  0  0
  3  2  1  0  0  0  0
  3  4  2  0  0  0  0
  4  5  1  0  0  0  0
  5  6  2  0  0  0  0
  5  9  1  0  0  0  0
  8  2  1  0  0  0  0
 10 11  1  0  0  0  0
 10  3  1  0  0  0  0
 12 10  1  0  0  0  0
 13 10  1  0  0  0  0
 14 13  2  0  0  0  0
 15 16  1  0  0  0  0
 15 14  1  0  0  0  0
M  END
>  <minimizedAffinity>
-3.32615757

>  <minimizedRMSD>
0.439127594

$$$$
