
 OpenBabel03252501233D

 31 31  0  0  1  0  0  0  0  0999 V2000
   44.9340   37.8780   44.3510 N   0  0  0  0  0  0  0  0  0  0  0  0
   43.9550   38.0010   44.6940 H   0  0  0  0  0  0  0  0  0  0  0  0
   45.0660   36.8190   43.3740 C   0  0  0  0  0  0  0  0  0  0  0  0
   45.7350   37.1310   42.5750 H   0  0  0  0  0  0  0  0  0  0  0  0
   44.0490   36.7300   42.8860 H   0  0  0  0  0  0  0  0  0  0  0  0
   44.8720   35.2890   45.2790 C   0  0  0  0  0  0  0  0  0  0  0  0
   45.3370   35.5370   43.9990 C   0  0  0  0  0  0  0  0  0  0  0  0
   46.0470   34.5260   43.3780 C   0  0  0  0  0  0  0  0  0  0  0  0
   46.2520   33.3470   44.0480 N   0  0  0  0  0  0  0  0  0  0  0  0
   45.7870   33.1410   45.2890 C   0  0  0  0  0  0  0  0  0  0  0  0
   45.0860   34.1380   45.9040 N   0  0  0  0  0  0  0  0  0  0  0  0
   44.3050   36.0350   45.8390 H   0  0  0  0  0  0  0  0  0  0  0  0
   45.9300   32.2360   45.8370 H   0  0  0  0  0  0  0  0  0  0  0  0
   46.5250   34.8170   42.0210 C   0  0  0  0  0  0  0  0  0  0  0  0
   47.2110   33.7110   41.5370 F   0  0  0  0  0  0  0  0  0  0  0  0
   47.4410   35.8360   42.1490 F   0  0  0  0  0  0  0  0  0  0  0  0
   45.5110   35.0340   41.1670 F   0  0  0  0  0  0  0  0  0  0  0  0
   45.2940   39.1310   43.6950 C   0  0  0  0  0  0  0  0  0  0  0  0
   44.7280   39.1980   42.7470 H   0  0  0  0  0  0  0  0  0  0  0  0
   46.3550   39.1900   43.4660 H   0  0  0  0  0  0  0  0  0  0  0  0
   44.8500   40.3080   44.5420 C   0  0  2  0  0  0  0  0  0  0  0  0
   43.7350   40.3800   44.5460 H   0  0  0  0  0  0  0  0  0  0  0  0
   45.3940   41.5440   43.9660 C   0  0  0  0  0  3  0  0  0  0  0  0
   44.8890   42.7700   44.1230 C   0  0  0  0  0  3  0  0  0  0  0  0
   43.6810   43.1400   44.9040 C   0  0  0  0  0  2  0  0  0  0  0  0
   43.8410   44.1310   45.3800 H   0  0  0  0  0  0  0  0  0  0  0  0
   45.5020   40.0540   46.2040 S   0  0  0  0  0  0  0  0  0  0  0  0
   44.3480   40.8490   47.3790 C   0  0  0  0  0  0  0  0  0  0  0  0
   43.9390   39.8920   48.2740 F   0  0  0  0  0  0  0  0  0  0  0  0
   43.2870   41.4430   46.7250 F   0  0  0  0  0  0  0  0  0  0  0  0
   45.0700   41.7800   48.1150 F   0  0  0  0  0  0  0  0  0  0  0  0
  1  2  1  0  0  0  0
  3  7  1  0  0  0  0
  3  1  1  0  0  0  0
  4  3  1  0  0  0  0
  5  3  1  0  0  0  0
  6 12  1  0  0  0  0
  6 11  1  0  0  0  0
  7  6  2  0  0  0  0
  8  7  1  0  0  0  0
  8  9  2  0  0  0  0
  9 10  1  0  0  0  0
 10 13  1  0  0  0  0
 10 11  2  0  0  0  0
 14 16  1  0  0  0  0
 14  8  1  0  0  0  0
 15 14  1  0  0  0  0
 17 14  1  0  0  0  0
 18  1  1  0  0  0  0
 18 21  1  0  0  0  0
 19 18  1  0  0  0  0
 20 18  1  0  0  0  0
 21 22  1  1  0  0  0
 21 27  1  0  0  0  0
 23 24  2  0  0  0  0
 23 21  1  0  0  0  0
 24 25  1  0  0  0  0
 25 26  1  0  0  0  0
 27 28  1  0  0  0  0
 28 31  1  0  0  0  0
 28 29  1  0  0  0  0
 30 28  1  0  0  0  0
M  END
>  <minimizedAffinity>
-0.705330312

>  <minimizedRMSD>
1.1340214

$$$$
