
 OpenBabel03252503433D

 29 30  0  0  1  0  0  0  0  0999 V2000
   44.6580   35.3530   45.2260 C   0  0  0  0  0  0  0  0  0  0  0  0
   45.3990   35.2140   44.0390 C   0  0  0  0  0  0  0  0  0  0  0  0
   46.2510   34.1020   43.9620 C   0  0  0  0  0  0  0  0  0  0  0  0
   46.3120   33.2550   44.9940 N   0  0  0  0  0  0  0  0  0  0  0  0
   45.5880   33.4220   46.1110 C   0  0  0  0  0  0  0  0  0  0  0  0
   44.7550   34.4730   46.2360 N   0  0  0  0  0  0  0  0  0  0  0  0
   43.9780   36.1840   45.3660 H   0  0  0  0  0  0  0  0  0  0  0  0
   46.7950   34.0290   43.0550 H   0  0  0  0  0  0  0  0  0  0  0  0
   47.2110   32.1340   47.5160 C   0  0  2  0  0  0  0  0  0  0  0  0
   45.7320   32.4100   47.1560 C   0  0  1  0  0  0  0  0  0  0  0  0
   45.2340   32.7610   48.3800 O   0  0  0  0  0  0  0  0  0  0  0  0
   45.7300   31.8590   49.2840 C   0  0  0  0  0  0  0  0  0  0  0  0
   46.9410   31.1800   48.6930 C   0  0  2  0  0  0  0  0  0  0  0  0
   47.7440   31.6560   46.6960 H   0  0  0  0  0  0  0  0  0  0  0  0
   45.3150   31.4640   46.7590 H   0  0  0  0  0  0  0  0  0  0  0  0
   46.0700   32.3400   50.2270 H   0  0  0  0  0  0  0  0  0  0  0  0
   44.9380   31.1460   49.5720 H   0  0  0  0  0  0  0  0  0  0  0  0
   46.6330   30.2270   48.2480 H   0  0  0  0  0  0  0  0  0  0  0  0
   47.7380   33.2650   48.0450 O   0  0  0  0  0  0  0  0  0  0  0  0
   47.6510   34.0810   47.4780 H   0  0  0  0  0  0  0  0  0  0  0  0
   48.0140   31.0860   49.5460 O   0  0  0  0  0  0  0  0  0  0  0  0
   47.6690   31.3130   50.4550 H   0  0  0  0  0  0  0  0  0  0  0  0
   45.1850   36.2380   42.9970 C   0  0  0  0  0  0  0  0  0  0  0  0
   44.8880   37.1790   43.5110 H   0  0  0  0  0  0  0  0  0  0  0  0
   46.1600   36.4990   42.4990 H   0  0  0  0  0  0  0  0  0  0  0  0
   44.1670   35.8090   42.0100 C   0  0  0  0  0  3  0  0  0  0  0  0
   44.0170   34.9180   41.0520 C   0  0  0  0  0  3  0  0  0  0  0  0
   44.8410   33.8440   40.4550 C   0  0  0  0  0  2  0  0  0  0  0  0
   45.7870   33.6390   40.9750 H   0  0  0  0  0  0  0  0  0  0  0  0
  1  7  1  0  0  0  0
  1  6  1  0  0  0  0
  2  1  2  0  0  0  0
  3  2  1  0  0  0  0
  3  4  2  0  0  0  0
  4  5  1  0  0  0  0
  5  6  2  0  0  0  0
  5 10  1  0  0  0  0
  8  3  1  0  0  0  0
  9 14  1  6  0  0  0
  9 19  1  0  0  0  0
  9 13  1  0  0  0  0
 10 15  1  6  0  0  0
 10  9  1  0  0  0  0
 10 11  1  0  0  0  0
 11 12  1  0  0  0  0
 12 17  1  0  0  0  0
 12 16  1  0  0  0  0
 13 18  1  6  0  0  0
 13 12  1  0  0  0  0
 13 21  1  0  0  0  0
 20 19  1  0  0  0  0
 21 22  1  0  0  0  0
 23 24  1  0  0  0  0
 23  2  1  0  0  0  0
 25 23  1  0  0  0  0
 26 23  1  0  0  0  0
 27 26  2  0  0  0  0
 28 29  1  0  0  0  0
 28 27  1  0  0  0  0
M  END
>  <minimizedAffinity>
-5.74355364

>  <minimizedRMSD>
0.227418125

$$$$
