
     RDKit          3D

 23 23  0  0  0  0  0  0  0  0999 V2000
   45.1877   35.2292   44.0499 C   0  0  0  0  0  0  0  0  0  0  0  0
   46.2409   34.5778   43.3762 C   0  0  0  0  0  0  0  0  0  0  0  0
   46.9107   33.5651   44.0561 C   0  0  0  0  0  0  0  0  0  0  0  0
   46.5186   33.2535   45.3296 N   0  0  0  0  0  0  0  0  0  0  0  0
   45.5058   33.8989   45.9399 C   0  0  0  0  0  0  0  0  0  0  0  0
   44.8283   34.8948   45.3075 N   0  0  0  0  0  0  0  0  0  0  0  0
   46.5595   34.9686   42.0324 C   0  0  1  0  0  0  0  0  0  0  0  0
   48.0445   35.1980   41.9144 C   0  0  0  0  0  0  0  0  0  0  0  0
   44.6040   36.0281   43.6150 H   0  0  0  0  0  0  0  0  0  0  0  0
   47.7200   33.0408   43.5852 H   0  0  0  0  0  0  0  0  0  0  0  0
   45.1941   33.6508   46.9518 H   0  0  0  0  0  0  0  0  0  0  0  0
   46.0429   35.9173   41.7928 H   0  0  0  0  0  0  0  0  0  0  0  0
   48.6426   34.2980   42.0449 H   0  0  0  0  0  0  0  0  0  0  0  0
   48.2213   35.5186   40.8459 H   0  0  0  0  0  0  0  0  0  0  0  0
   48.3589   36.0574   42.5268 H   0  0  0  0  0  0  0  0  0  0  0  0
   46.1420   33.9449   41.0155 C   0  0  0  0  0  0  0  0  0  0  0  0
   45.5598   32.7759   41.2731 C   0  0  0  0  0  0  0  0  0  0  0  0
   45.1631   31.7935   40.2450 C   0  0  0  0  0  0  0  0  0  0  0  0
   45.4282   30.7844   40.6000 H   0  0  0  0  0  0  0  0  0  0  0  0
   46.3358   34.1865   39.9737 H   0  0  0  0  0  0  0  0  0  0  0  0
   45.3402   32.4794   42.3074 H   0  0  0  0  0  0  0  0  0  0  0  0
   45.6748   31.9617   39.2755 H   0  0  0  0  0  0  0  0  0  0  0  0
   44.0702   31.8322   40.0372 H   0  0  0  0  0  0  0  0  0  0  0  0
  1  6  2  0
  2  1  1  0
  2  3  2  0
  3  4  1  0
  4  5  2  0
  6  5  1  0
  7  2  1  0
  8  7  1  0
  1  9  1  0
  3 10  1  0
  5 11  1  0
  7 12  1  6
  8 13  1  0
  8 14  1  0
  8 15  1  0
 16 17  2  3
 17 18  1  0
 18 19  1  0
 16 20  1  0
 17 21  1  0
 18 22  1  0
 18 23  1  0
  7 16  1  0
M  ISO  8   9  14  10  14  11  14  12   8  13   8  14   8  15   8  19   8
M  END
>  <DihAtoms>  (1) 
1,6,15,16

>  <DihDeg>  (1) 
133.81040459341412

$$$$
