
 OpenBabel03242523423D

 19 19  0  0  1  0  0  0  0  0999 V2000
   45.9290   35.3060   42.4500 C   0  0  1  0  0  0  0  0  0  0  0  0
   45.8380   36.4070   42.4870 H   0  0  0  0  0  0  0  0  0  0  0  0
   44.8620   35.3360   44.6590 C   0  0  0  0  0  0  0  0  0  0  0  0
   45.8040   34.7710   43.7760 C   0  0  0  0  0  0  0  0  0  0  0  0
   46.5590   33.6980   44.2420 C   0  0  0  0  0  0  0  0  0  0  0  0
   46.3510   33.2490   45.5180 N   0  0  0  0  0  0  0  0  0  0  0  0
   45.4390   33.8150   46.3310 C   0  0  0  0  0  0  0  0  0  0  0  0
   44.6830   34.8660   45.9110 N   0  0  0  0  0  0  0  0  0  0  0  0
   44.2260   36.1700   44.3990 H   0  0  0  0  0  0  0  0  0  0  0  0
   47.2900   33.2350   43.6070 H   0  0  0  0  0  0  0  0  0  0  0  0
   45.2730   33.4580   47.3450 H   0  0  0  0  0  0  0  0  0  0  0  0
   47.2890   34.9640   41.8970 C   0  0  0  0  0  0  0  0  0  0  0  0
   47.4480   33.8990   41.7370 H   0  0  0  0  0  0  0  0  0  0  0  0
   47.3270   35.4280   40.8680 H   0  0  0  0  0  0  0  0  0  0  0  0
   48.0840   35.4700   42.4680 H   0  0  0  0  0  0  0  0  0  0  0  0
   44.8780   34.7850   41.5130 C   0  0  0  0  0  3  0  0  0  0  0  0
   43.7620   35.4170   41.1560 C   0  0  0  0  0  3  0  0  0  0  0  0
   42.7500   34.8720   40.2300 C   0  0  0  0  0  2  0  0  0  0  0  0
   41.7480   35.0940   40.6310 H   0  0  0  0  0  0  0  0  0  0  0  0
  1  2  1  1  0  0  0
  1  4  1  0  0  0  0
  3  8  1  0  0  0  0
  4  5  1  0  0  0  0
  4  3  2  0  0  0  0
  5  6  2  0  0  0  0
  6  7  1  0  0  0  0
  7 11  1  0  0  0  0
  8  7  2  0  0  0  0
  9  3  1  0  0  0  0
 10  5  1  0  0  0  0
 12  1  1  0  0  0  0
 12 15  1  0  0  0  0
 13 12  1  0  0  0  0
 14 12  1  0  0  0  0
 16  1  1  0  0  0  0
 17 16  2  0  0  0  0
 18 19  1  0  0  0  0
 18 17  1  0  0  0  0
M  END
>  <minimizedAffinity>
-3.82159472

>  <minimizedRMSD>
1.49084353

$$$$
