
 OpenBabel03252508473D

 40 41  0  0  0  0  0  0  0  0999 V2000
   42.9730   32.4080   41.7120 C   0  0  0  0  0  0  0  0  0  0  0  0
   43.5190   31.9380   40.8540 H   0  0  0  0  0  0  0  0  0  0  0  0
   42.0740   32.8840   41.3090 H   0  0  0  0  0  0  0  0  0  0  0  0
   43.6800   34.8050   41.9300 C   0  0  0  0  0  0  0  0  0  0  0  0
   43.8760   33.4610   42.2460 C   0  0  0  0  0  0  0  0  0  0  0  0
   44.9400   33.1480   43.0720 C   0  0  0  0  0  0  0  0  0  0  0  0
   45.7560   34.1280   43.5510 C   0  0  0  0  0  0  0  0  0  0  0  0
   45.5790   35.4500   43.2540 C   0  0  0  0  0  0  0  0  0  0  0  0
   44.5100   35.7320   42.4270 C   0  0  0  0  0  0  0  0  0  0  0  0
   45.1200   32.1250   43.3350 H   0  0  0  0  0  0  0  0  0  0  0  0
   46.5840   33.8440   44.2000 H   0  0  0  0  0  0  0  0  0  0  0  0
   46.2180   36.2450   43.6250 H   0  0  0  0  0  0  0  0  0  0  0  0
   44.3390   36.7790   42.1680 H   0  0  0  0  0  0  0  0  0  0  0  0
   40.2610   35.7160   40.5670 C   0  0  0  0  0  0  0  0  0  0  0  0
   41.2880   35.4630   41.5000 C   0  0  0  0  0  0  0  0  0  0  0  0
   42.5440   35.0900   41.0540 C   0  0  0  0  0  0  0  0  0  0  0  0
   42.7260   34.9850   39.7110 N   0  0  0  0  0  0  0  0  0  0  0  0
   41.7270   35.2320   38.8230 C   0  0  0  0  0  0  0  0  0  0  0  0
   40.5030   35.5960   39.2680 N   0  0  0  0  0  0  0  0  0  0  0  0
   39.3110   36.0020   41.0030 H   0  0  0  0  0  0  0  0  0  0  0  0
   41.1660   35.5400   42.5760 H   0  0  0  0  0  0  0  0  0  0  0  0
   41.9950   35.1150   37.7880 H   0  0  0  0  0  0  0  0  0  0  0  0
   42.6660   31.3700   42.6550 N   0  0  0  0  0  0  0  0  0  0  0  0
   43.2440   30.5130   42.5200 H   0  0  0  0  0  0  0  0  0  0  0  0
   41.0010   30.9780   42.6590 S   0  0  0  0  0  0  0  0  0  0  0  0
   40.1660   32.2000   42.3390 O   0  0  0  0  0  0  0  0  0  0  0  0
   39.3110   32.4540   42.7660 H   0  0  0  0  0  0  0  0  0  0  0  0
   40.5950   30.4120   43.9850 O   0  0  0  0  0  0  0  0  0  0  0  0
   41.2250   30.0100   44.6530 H   0  0  0  0  0  0  0  0  0  0  0  0
   40.7340   29.8310   41.4690 O   0  0  0  0  0  0  0  0  0  0  0  0
   40.2070   28.7020   42.0790 C   0  0  0  0  0  0  0  0  0  0  0  0
   39.5320   28.2140   41.3240 H   0  0  0  0  0  0  0  0  0  0  0  0
   39.7030   28.8750   43.0270 H   0  0  0  0  0  0  0  0  0  0  0  0
   41.3340   27.6660   42.2760 C   0  0  0  0  0  0  0  0  0  0  0  0
   41.4930   27.0930   41.3480 H   0  0  0  0  0  0  0  0  0  0  0  0
   42.2540   28.1760   42.6250 H   0  0  0  0  0  0  0  0  0  0  0  0
   40.8550   26.7890   43.3810 C   0  0  0  0  0  3  0  0  0  0  0  0
   41.3420   26.7690   44.5930 C   0  0  0  0  0  3  0  0  0  0  0  0
   42.4560   27.6620   44.9600 C   0  0  0  0  0  2  0  0  0  0  0  0
   42.4590   27.7760   46.0830 H   0  0  0  0  0  0  0  0  0  0  0  0
  1  5  1  0  0  0  0
  1 23  1  0  0  0  0
  2  1  1  0  0  0  0
  3  1  1  0  0  0  0
  4  5  2  0  0  0  0
  4  9  1  0  0  0  0
  5  6  1  0  0  0  0
  6 10  1  0  0  0  0
  6  7  2  0  0  0  0
  7 11  1  0  0  0  0
  8  7  1  0  0  0  0
  8 12  1  0  0  0  0
  9  8  2  0  0  0  0
 13  9  1  0  0  0  0
 14 20  1  0  0  0  0
 14 15  1  0  0  0  0
 15 21  1  0  0  0  0
 16 15  2  0  0  0  0
 16  4  1  0  0  0  0
 17 16  1  0  0  0  0
 18 19  1  0  0  0  0
 18 17  2  0  0  0  0
 19 14  2  0  0  0  0
 22 18  1  0  0  0  0
 23 25  1  0  0  0  0
 24 23  1  0  0  0  0
 25 28  1  0  0  0  0
 26 25  1  0  0  0  0
 26 27  1  0  0  0  0
 28 29  1  0  0  0  0
 30 31  1  0  0  0  0
 30 25  1  0  0  0  0
 31 34  1  0  0  0  0
 31 33  1  0  0  0  0
 32 31  1  0  0  0  0
 34 36  1  0  0  0  0
 34 37  1  0  0  0  0
 35 34  1  0  0  0  0
 37 38  2  0  0  0  0
 38 39  1  0  0  0  0
 39 40  1  0  0  0  0
M  END
>  <minimizedAffinity>
-4.75412798

>  <minimizedRMSD>
0.807551384

$$$$
