
 OpenBabel03252503443D

 29 30  0  0  1  0  0  0  0  0999 V2000
   44.8590   35.1600   45.1000 C   0  0  0  0  0  0  0  0  0  0  0  0
   45.6520   34.9630   43.9560 C   0  0  0  0  0  0  0  0  0  0  0  0
   46.4770   33.8280   43.9560 C   0  0  0  0  0  0  0  0  0  0  0  0
   46.4650   33.0140   45.0160 N   0  0  0  0  0  0  0  0  0  0  0  0
   45.6930   33.2360   46.0900 C   0  0  0  0  0  0  0  0  0  0  0  0
   44.8840   34.3110   46.1410 N   0  0  0  0  0  0  0  0  0  0  0  0
   44.1950   36.0110   45.1800 H   0  0  0  0  0  0  0  0  0  0  0  0
   47.0620   33.7120   43.0790 H   0  0  0  0  0  0  0  0  0  0  0  0
   47.2130   31.9100   47.5730 C   0  0  2  0  0  0  0  0  0  0  0  0
   45.7600   32.2560   47.1720 C   0  0  1  0  0  0  0  0  0  0  0  0
   45.2590   32.6780   48.3730 O   0  0  0  0  0  0  0  0  0  0  0  0
   45.6860   31.7820   49.3170 C   0  0  0  0  0  0  0  0  0  0  0  0
   46.8670   31.0160   48.7760 C   0  0  2  0  0  0  0  0  0  0  0  0
   47.7350   31.3740   46.7810 H   0  0  0  0  0  0  0  0  0  0  0  0
   45.2980   31.3210   46.7990 H   0  0  0  0  0  0  0  0  0  0  0  0
   46.0350   32.2770   50.2500 H   0  0  0  0  0  0  0  0  0  0  0  0
   44.8500   31.1260   49.6130 H   0  0  0  0  0  0  0  0  0  0  0  0
   46.5140   30.0660   48.3580 H   0  0  0  0  0  0  0  0  0  0  0  0
   47.7940   33.0280   48.0730 O   0  0  0  0  0  0  0  0  0  0  0  0
   47.7640   33.8270   47.4760 H   0  0  0  0  0  0  0  0  0  0  0  0
   47.9170   30.8920   49.6540 O   0  0  0  0  0  0  0  0  0  0  0  0
   47.5680   31.1700   50.5470 H   0  0  0  0  0  0  0  0  0  0  0  0
   45.5160   35.9580   42.8720 C   0  0  0  0  0  0  0  0  0  0  0  0
   45.6280   36.9660   43.3300 H   0  0  0  0  0  0  0  0  0  0  0  0
   46.3870   35.8850   42.1640 H   0  0  0  0  0  0  0  0  0  0  0  0
   44.2230   35.8190   42.1630 C   0  0  0  0  0  3  0  0  0  0  0  0
   43.6800   35.0970   41.2050 C   0  0  0  0  0  3  0  0  0  0  0  0
   44.1240   34.0030   40.3130 C   0  0  0  0  0  2  0  0  0  0  0  0
   45.1190   33.5930   40.5370 H   0  0  0  0  0  0  0  0  0  0  0  0
  1  7  1  0  0  0  0
  1  6  1  0  0  0  0
  2  3  1  0  0  0  0
  2  1  2  0  0  0  0
  3  4  2  0  0  0  0
  4  5  1  0  0  0  0
  5  6  2  0  0  0  0
  5 10  1  0  0  0  0
  8  3  1  0  0  0  0
  9 14  1  6  0  0  0
  9 19  1  0  0  0  0
  9 13  1  0  0  0  0
 10 15  1  6  0  0  0
 10  9  1  0  0  0  0
 10 11  1  0  0  0  0
 11 12  1  0  0  0  0
 12 17  1  0  0  0  0
 12 16  1  0  0  0  0
 13 18  1  6  0  0  0
 13 12  1  0  0  0  0
 13 21  1  0  0  0  0
 20 19  1  0  0  0  0
 21 22  1  0  0  0  0
 23 24  1  0  0  0  0
 23  2  1  0  0  0  0
 25 23  1  0  0  0  0
 26 23  1  0  0  0  0
 27 26  2  0  0  0  0
 28 29  1  0  0  0  0
 28 27  1  0  0  0  0
M  END
>  <minimizedAffinity>
-5.70068741

>  <minimizedRMSD>
0.565450609

$$$$
