
 OpenBabel03242523433D

 19 19  0  0  1  0  0  0  0  0999 V2000
   46.5700   35.1450   42.0760 C   0  0  1  0  0  0  0  0  0  0  0  0
   46.1920   36.1760   41.9500 H   0  0  0  0  0  0  0  0  0  0  0  0
   45.1910   35.2780   44.1000 C   0  0  0  0  0  0  0  0  0  0  0  0
   46.2540   34.6780   43.3950 C   0  0  0  0  0  0  0  0  0  0  0  0
   46.9350   33.6380   44.0220 C   0  0  0  0  0  0  0  0  0  0  0  0
   46.5440   33.2540   45.2760 N   0  0  0  0  0  0  0  0  0  0  0  0
   45.5210   33.8520   45.9170 C   0  0  0  0  0  0  0  0  0  0  0  0
   44.8320   34.8720   45.3360 N   0  0  0  0  0  0  0  0  0  0  0  0
   44.5980   36.0920   43.7070 H   0  0  0  0  0  0  0  0  0  0  0  0
   47.7520   33.1510   43.5260 H   0  0  0  0  0  0  0  0  0  0  0  0
   45.2090   33.5460   46.9130 H   0  0  0  0  0  0  0  0  0  0  0  0
   48.0670   35.1670   41.8970 C   0  0  0  0  0  0  0  0  0  0  0  0
   48.5300   34.1820   41.9140 H   0  0  0  0  0  0  0  0  0  0  0  0
   48.2450   35.5600   40.8530 H   0  0  0  0  0  0  0  0  0  0  0  0
   48.5310   35.9090   42.5650 H   0  0  0  0  0  0  0  0  0  0  0  0
   45.9630   34.2940   40.9980 C   0  0  0  0  0  3  0  0  0  0  0  0
   46.6190   33.7130   39.9950 C   0  0  0  0  0  3  0  0  0  0  0  0
   45.9860   32.8820   38.9520 C   0  0  0  0  0  2  0  0  0  0  0  0
   46.4290   33.1410   37.9760 H   0  0  0  0  0  0  0  0  0  0  0  0
  1  2  1  6  0  0  0
  1  4  1  0  0  0  0
  3  8  1  0  0  0  0
  4  5  1  0  0  0  0
  4  3  2  0  0  0  0
  5  6  2  0  0  0  0
  6  7  1  0  0  0  0
  7 11  1  0  0  0  0
  8  7  2  0  0  0  0
  9  3  1  0  0  0  0
 10  5  1  0  0  0  0
 12 13  1  0  0  0  0
 12  1  1  0  0  0  0
 12 15  1  0  0  0  0
 14 12  1  0  0  0  0
 16  1  1  0  0  0  0
 17 16  2  0  0  0  0
 18 17  1  0  0  0  0
 19 18  1  0  0  0  0
M  END
>  <minimizedAffinity>
-3.64808393

>  <minimizedRMSD>
0.319074214

$$$$
