
 OpenBabel03242517543D

 38 39  0  0  0  0  0  0  0  0999 V2000
   45.3200   34.2410   43.7600 C   0  0  0  0  0  0  0  0  0  0  0  0
   46.4780   34.7500   43.1380 C   0  0  0  0  0  0  0  0  0  0  0  0
   47.6660   34.0840   43.2800 C   0  0  0  0  0  0  0  0  0  0  0  0
   47.6360   32.9660   44.0210 N   0  0  0  0  0  0  0  0  0  0  0  0
   46.5510   32.4870   44.6040 C   0  0  0  0  0  0  0  0  0  0  0  0
   45.3900   33.1240   44.4750 N   0  0  0  0  0  0  0  0  0  0  0  0
   44.3760   34.7590   43.6540 H   0  0  0  0  0  0  0  0  0  0  0  0
   46.3240   35.6550   42.5780 H   0  0  0  0  0  0  0  0  0  0  0  0
   48.9210   34.5210   42.6580 C   0  0  0  0  0  0  0  0  0  0  0  0
   49.5760   34.8790   43.5050 H   0  0  0  0  0  0  0  0  0  0  0  0
   49.4830   33.6980   42.1700 H   0  0  0  0  0  0  0  0  0  0  0  0
   48.7410   35.6740   41.7180 C   0  0  0  0  0  0  0  0  0  0  0  0
   48.0010   36.3840   42.0360 H   0  0  0  0  0  0  0  0  0  0  0  0
   49.7300   36.2370   41.7630 H   0  0  0  0  0  0  0  0  0  0  0  0
   48.6030   35.2710   40.3170 C   0  0  0  0  0  3  0  0  0  0  0  0
   48.0410   34.3460   39.5490 C   0  0  0  0  0  3  0  0  0  0  0  0
   48.2370   34.1930   38.0500 C   0  0  0  0  0  0  0  0  0  0  0  0
   48.4640   33.1100   37.8710 H   0  0  0  0  0  0  0  0  0  0  0  0
   47.3640   34.5720   37.5250 H   0  0  0  0  0  0  0  0  0  0  0  0
   49.1520   34.7810   37.8010 H   0  0  0  0  0  0  0  0  0  0  0  0
   46.5340   31.3390   45.3610 O   0  0  0  0  0  0  0  0  0  0  0  0
   45.4530   30.1620   47.2380 C   0  0  0  0  0  0  0  0  0  0  0  0
   46.0740   31.2220   46.6670 C   0  0  0  0  0  0  0  0  0  0  0  0
   46.3030   32.3430   47.4430 C   0  0  0  0  0  0  0  0  0  0  0  0
   45.9250   32.4170   48.7630 C   0  0  0  0  0  0  0  0  0  0  0  0
   45.2930   31.3290   49.3350 C   0  0  0  0  0  0  0  0  0  0  0  0
   45.0640   30.2050   48.5560 C   0  0  0  0  0  0  0  0  0  0  0  0
   46.7900   33.2350   47.0710 H   0  0  0  0  0  0  0  0  0  0  0  0
   46.1040   33.3000   49.3760 H   0  0  0  0  0  0  0  0  0  0  0  0
   44.9950   31.3830   50.3760 H   0  0  0  0  0  0  0  0  0  0  0  0
   44.5690   29.3540   49.0030 H   0  0  0  0  0  0  0  0  0  0  0  0
   45.1010   28.8260   46.1910 S   0  0  0  0  0  0  0  0  0  0  0  0
   44.3080   29.1620   44.9930 O   0  0  0  0  0  0  0  0  0  0  0  0
   44.2130   27.8620   47.0100 O   0  0  0  0  0  0  0  0  0  0  0  0
   46.5390   27.9340   45.7530 C   0  0  0  0  0  3  0  0  0  0  0  0
   46.7510   27.0380   44.8100 C   0  0  0  0  0  3  0  0  0  0  0  0
   48.0580   26.3610   44.5650 C   0  0  0  0  0  2  0  0  0  0  0  0
   48.5910   26.1640   45.5170 H   0  0  0  0  0  0  0  0  0  0  0  0
  1  6  1  0  0  0  0
  2  3  1  0  0  0  0
  2  1  2  0  0  0  0
  3  4  2  0  0  0  0
  4  5  1  0  0  0  0
  5 21  1  0  0  0  0
  6  5  2  0  0  0  0
  7  1  1  0  0  0  0
  8  2  1  0  0  0  0
  9  3  1  0  0  0  0
  9 10  1  0  0  0  0
 11  9  1  0  0  0  0
 12 14  1  0  0  0  0
 12 13  1  0  0  0  0
 12  9  1  0  0  0  0
 15 12  1  0  0  0  0
 16 15  2  0  0  0  0
 17 16  1  0  0  0  0
 18 17  1  0  0  0  0
 19 17  1  0  0  0  0
 20 17  1  0  0  0  0
 21 23  1  0  0  0  0
 22 27  1  0  0  0  0
 23 22  2  0  0  0  0
 23 24  1  0  0  0  0
 24 25  2  0  0  0  0
 25 26  1  0  0  0  0
 25 29  1  0  0  0  0
 26 30  1  0  0  0  0
 27 31  1  0  0  0  0
 27 26  2  0  0  0  0
 28 24  1  0  0  0  0
 32 34  2  0  0  0  0
 32 22  1  0  0  0  0
 33 32  2  0  0  0  0
 35 32  1  0  0  0  0
 36 35  2  0  0  0  0
 37 36  1  0  0  0  0
 37 38  1  0  0  0  0
M  END
>  <minimizedAffinity>
-5.41049957

>  <minimizedRMSD>
1.12905216

$$$$
