REMARK  Name = 
REMARK  9 active torsions:
REMARK  status: ('A' for Active; 'I' for Inactive)
REMARK    1  A    between atoms: C_3  and  C_7
REMARK    2  A    between atoms: C_5  and  O_12
REMARK    3  A    between atoms: C_7  and  C_8
REMARK    4  A    between atoms: C_8  and  C_9
REMARK    5  A    between atoms: C_10  and  C_11
REMARK    6  A    between atoms: O_12  and  C_14
REMARK    7  A    between atoms: C_13  and  S_19
REMARK    8  A    between atoms: S_19  and  C_37
REMARK    9  A    between atoms: C_38  and  C_39
REMARK                            x       y       z     vdW  Elec       q    Type
REMARK                         _______ _______ _______ _____ _____    ______ ____
ROOT
ATOM      1  C   UNL     1      45.305  34.280  43.749  0.00  0.00    +0.000 A 
ATOM      2  C   UNL     1      46.470  34.768  43.124  0.00  0.00    +0.000 A 
ATOM      3  C   UNL     1      47.643  34.073  43.252  0.00  0.00    +0.000 A 
ATOM      4  N   UNL     1      47.592  32.949  43.984  0.00  0.00    +0.000 NA
ATOM      5  C   UNL     1      46.499  32.491  44.570  0.00  0.00    +0.000 A 
ATOM      6  N   UNL     1      45.353  33.156  44.454  0.00  0.00    +0.000 NA
ATOM      7  H   UNL     1      44.372  34.821  43.654  0.00  0.00    +0.000 HD
ATOM      8  H   UNL     1      46.334  35.681  42.573  0.00  0.00    +0.000 HD
ENDROOT
BRANCH   3   9
ATOM      9  C   UNL     1      48.904  34.486  42.626  0.00  0.00    +0.000 C 
ATOM     10  H   UNL     1      49.579  34.803  43.473  0.00  0.00    +0.000 HD
ATOM     11  H   UNL     1      49.435  33.658  42.112  0.00  0.00    +0.000 HD
BRANCH   9  12
ATOM     12  C   UNL     1      48.749  35.666  41.715  0.00  0.00    +0.000 C 
ATOM     13  H   UNL     1      48.079  36.418  42.087  0.00  0.00    +0.000 HD
ATOM     14  H   UNL     1      49.775  36.160  41.710  0.00  0.00    +0.000 HD
BRANCH  12  15
ATOM     15  C   UNL     1      48.503  35.300  40.319  0.00  0.00    +0.000 C 
ATOM     16  C   UNL     1      48.282  34.248  39.541  0.00  0.00    +0.000 C 
BRANCH  16  17
ATOM     17  C   UNL     1      48.182  34.266  38.025  0.00  0.00    +0.000 C 
ATOM     18  H   UNL     1      48.842  33.439  37.655  0.00  0.00    +0.000 HD
ATOM     19  H   UNL     1      47.140  34.191  37.724  0.00  0.00    +0.000 HD
ATOM     20  H   UNL     1      48.633  35.235  37.701  0.00  0.00    +0.000 HD
ENDBRANCH  16  17
ENDBRANCH  12  15
ENDBRANCH   9  12
ENDBRANCH   3   9
BRANCH   5  21
ATOM     21  O   UNL     1      46.460  31.337  45.317  0.00  0.00    +0.000 OA
BRANCH  21  23
ATOM     22  C   UNL     1      45.435  30.189  47.243  0.00  0.00    +0.000 A 
ATOM     23  C   UNL     1      46.064  31.230  46.644  0.00  0.00    +0.000 A 
ATOM     24  C   UNL     1      46.371  32.338  47.411  0.00  0.00    +0.000 A 
ATOM     25  C   UNL     1      46.064  32.419  48.749  0.00  0.00    +0.000 A 
ATOM     26  C   UNL     1      45.424  31.351  49.349  0.00  0.00    +0.000 A 
ATOM     27  C   UNL     1      45.116  30.240  48.579  0.00  0.00    +0.000 A 
ATOM     28  H   UNL     1      46.870  33.214  47.017  0.00  0.00    +0.000 HD
ATOM     29  H   UNL     1      46.305  33.292  49.354  0.00  0.00    +0.000 HD
ATOM     30  H   UNL     1      45.181  31.410  50.404  0.00  0.00    +0.000 HD
ATOM     31  H   UNL     1      44.615  29.404  49.048  0.00  0.00    +0.000 HD
BRANCH  22  32
ATOM     32  S   UNL     1      44.984  28.872  46.211  0.00  0.00    +0.000 S 
ATOM     33  O   UNL     1      43.538  28.753  45.943  0.00  0.00    +0.000 OA
ATOM     34  O   UNL     1      45.364  27.582  46.973  0.00  0.00    +0.000 OA
BRANCH  32  35
ATOM     35  C   UNL     1      45.895  28.860  44.719  0.00  0.00    +0.000 C 
ATOM     36  C   UNL     1      45.513  28.672  43.472  0.00  0.00    +0.000 C 
BRANCH  36  37
ATOM     37  C   UNL     1      46.431  28.693  42.294  0.00  0.00    +0.000 C 
ATOM     38  H   UNL     1      47.416  28.253  42.548  0.00  0.00    +0.000 HD
ENDBRANCH  36  37
ENDBRANCH  32  35
ENDBRANCH  22  32
ENDBRANCH  21  23
ENDBRANCH   5  21
TORSDOF 9
