
 OpenBabel03252507033D

 42 44  0  0  0  0  0  0  0  0999 V2000
   43.2450   32.6910   41.6270 C   0  0  0  0  0  0  0  0  0  0  0  0
   43.4330   32.3190   40.5900 H   0  0  0  0  0  0  0  0  0  0  0  0
   43.3560   31.8190   42.3300 H   0  0  0  0  0  0  0  0  0  0  0  0
   44.2480   33.6820   42.0540 C   0  0  0  0  0  0  0  0  0  0  0  0
   43.8590   34.9200   42.5070 C   0  0  0  0  0  0  0  0  0  0  0  0
   44.8410   35.8220   42.8950 C   0  0  0  0  0  0  0  0  0  0  0  0
   46.1510   35.4280   42.8070 N   0  0  0  0  0  0  0  0  0  0  0  0
   46.4860   34.2200   42.3670 C   0  0  0  0  0  0  0  0  0  0  0  0
   45.5240   33.3740   41.9990 N   0  0  0  0  0  0  0  0  0  0  0  0
   42.9060   35.3960   42.6600 H   0  0  0  0  0  0  0  0  0  0  0  0
   44.7210   36.8310   43.2700 H   0  0  0  0  0  0  0  0  0  0  0  0
   47.9060   33.8790   42.3300 C   0  0  0  0  0  0  0  0  0  0  0  0
   48.3110   32.5630   42.1290 C   0  0  0  0  0  0  0  0  0  0  0  0
   49.6540   32.2510   42.1090 C   0  0  0  0  0  0  0  0  0  0  0  0
   50.4910   33.3110   42.2980 C   0  0  0  0  0  0  0  0  0  0  0  0
   50.1420   34.6410   42.5030 C   0  0  0  0  0  0  0  0  0  0  0  0
   48.8060   34.8760   42.5100 N   0  0  0  0  0  0  0  0  0  0  0  0
   47.5450   31.7920   41.9890 H   0  0  0  0  0  0  0  0  0  0  0  0
   50.0060   31.2600   41.9580 H   0  0  0  0  0  0  0  0  0  0  0  0
   51.5680   33.1240   42.2910 H   0  0  0  0  0  0  0  0  0  0  0  0
   50.8740   35.4210   42.6430 H   0  0  0  0  0  0  0  0  0  0  0  0
   41.8940   33.2930   41.8010 C   0  0  0  0  0  0  0  0  0  0  0  0
   41.4870   32.9480   42.7790 H   0  0  0  0  0  0  0  0  0  0  0  0
   42.1010   34.3990   42.0030 H   0  0  0  0  0  0  0  0  0  0  0  0
   41.0720   33.0670   40.7830 N   0  0  0  0  0  0  0  0  0  0  0  0
   40.3540   31.9000   40.4470 C   0  0  0  0  0  0  0  0  0  0  0  0
   38.9450   32.3690   40.8840 C   0  0  0  0  0  0  0  0  0  0  0  0
   38.4810   33.5200   40.1290 C   0  0  0  0  0  0  0  0  0  0  0  0
   39.4370   34.4330   39.5390 C   0  0  0  0  0  0  0  0  0  0  0  0
   40.8840   34.2320   39.8850 C   0  0  0  0  0  0  0  0  0  0  0  0
   40.6500   31.0710   41.1280 H   0  0  0  0  0  0  0  0  0  0  0  0
   40.3810   31.5090   39.4440 H   0  0  0  0  0  0  0  0  0  0  0  0
   38.2940   31.4690   40.7810 H   0  0  0  0  0  0  0  0  0  0  0  0
   39.0110   32.5860   41.9690 H   0  0  0  0  0  0  0  0  0  0  0  0
   37.7950   34.1320   40.7860 H   0  0  0  0  0  0  0  0  0  0  0  0
   37.7880   33.1640   39.3160 H   0  0  0  0  0  0  0  0  0  0  0  0
   39.2460   35.2530   38.8960 H   0  0  0  0  0  0  0  0  0  0  0  0
   42.1340   35.3110   39.2890 S   0  0  0  0  0  0  0  0  0  0  0  0
   42.0030   35.6940   37.5740 C   0  0  0  0  0  3  0  0  0  0  0  0
   41.2250   36.7220   37.2660 C   0  0  0  0  0  3  0  0  0  0  0  0
   40.9640   37.2270   35.8910 C   0  0  0  0  0  2  0  0  0  0  0  0
   41.3330   38.2910   35.8260 H   0  0  0  0  0  0  0  0  0  0  0  0
  1 22  1  0  0  0  0
  1  4  1  0  0  0  0
  1  3  1  0  0  0  0
  2  1  1  0  0  0  0
  4  5  1  0  0  0  0
  5 10  1  0  0  0  0
  5  6  2  0  0  0  0
  6 11  1  0  0  0  0
  7  6  1  0  0  0  0
  8  7  2  0  0  0  0
  9  4  2  0  0  0  0
  9  8  1  0  0  0  0
 12  8  1  0  0  0  0
 12 17  1  0  0  0  0
 13 12  2  0  0  0  0
 14 13  1  0  0  0  0
 14 15  2  0  0  0  0
 15 16  1  0  0  0  0
 16 17  2  0  0  0  0
 16 21  1  0  0  0  0
 18 13  1  0  0  0  0
 19 14  1  0  0  0  0
 20 15  1  0  0  0  0
 22 24  1  0  0  0  0
 22 23  1  0  0  0  0
 25 22  1  0  0  0  0
 26 25  1  0  0  0  0
 26 27  1  0  0  0  0
 26 31  1  0  0  0  0
 27 34  1  0  0  0  0
 28 35  1  0  0  0  0
 28 27  1  0  0  0  0
 29 30  2  0  0  0  0
 29 28  1  0  0  0  0
 30 25  1  0  0  0  0
 32 26  1  0  0  0  0
 33 27  1  0  0  0  0
 36 28  1  0  0  0  0
 37 29  1  0  0  0  0
 38 30  1  0  0  0  0
 39 38  1  0  0  0  0
 40 39  2  0  0  0  0
 41 40  1  0  0  0  0
 42 41  1  0  0  0  0
M  END
>  <minimizedAffinity>
-5.18116426

>  <minimizedRMSD>
0.744481564

$$$$
