
 OpenBabel03252507033D

 42 44  0  0  0  0  0  0  0  0999 V2000
   43.3940   32.4740   41.3530 C   0  0  0  0  0  0  0  0  0  0  0  0
   43.5070   32.2680   40.2610 H   0  0  0  0  0  0  0  0  0  0  0  0
   43.6640   31.5340   41.9090 H   0  0  0  0  0  0  0  0  0  0  0  0
   44.3330   33.5050   41.8260 C   0  0  0  0  0  0  0  0  0  0  0  0
   43.8730   34.7260   42.2590 C   0  0  0  0  0  0  0  0  0  0  0  0
   44.7970   35.6670   42.6930 C   0  0  0  0  0  0  0  0  0  0  0  0
   46.1250   35.3270   42.6670 N   0  0  0  0  0  0  0  0  0  0  0  0
   46.5300   34.1350   42.2440 C   0  0  0  0  0  0  0  0  0  0  0  0
   45.6220   33.2510   41.8320 N   0  0  0  0  0  0  0  0  0  0  0  0
   42.8940   35.1610   42.3670 H   0  0  0  0  0  0  0  0  0  0  0  0
   44.6180   36.6690   43.0600 H   0  0  0  0  0  0  0  0  0  0  0  0
   47.9630   33.8530   42.2750 C   0  0  0  0  0  0  0  0  0  0  0  0
   48.4300   32.5510   42.1190 C   0  0  0  0  0  0  0  0  0  0  0  0
   49.7850   32.2950   42.1630 C   0  0  0  0  0  0  0  0  0  0  0  0
   50.5690   33.3930   42.3630 C   0  0  0  0  0  0  0  0  0  0  0  0
   50.1560   34.7110   42.5250 C   0  0  0  0  0  0  0  0  0  0  0  0
   48.8130   34.8900   42.4710 N   0  0  0  0  0  0  0  0  0  0  0  0
   47.7030   31.7460   41.9630 H   0  0  0  0  0  0  0  0  0  0  0  0
   50.1830   31.3170   42.0480 H   0  0  0  0  0  0  0  0  0  0  0  0
   51.6510   33.2510   42.4070 H   0  0  0  0  0  0  0  0  0  0  0  0
   50.8490   35.5240   42.6800 H   0  0  0  0  0  0  0  0  0  0  0  0
   42.0160   32.8920   41.7350 C   0  0  0  0  0  0  0  0  0  0  0  0
   41.8170   32.5180   42.7650 H   0  0  0  0  0  0  0  0  0  0  0  0
   42.0970   34.0190   41.8990 H   0  0  0  0  0  0  0  0  0  0  0  0
   41.0850   32.5300   40.8580 N   0  0  0  0  0  0  0  0  0  0  0  0
   40.5420   31.2560   40.5940 C   0  0  0  0  0  0  0  0  0  0  0  0
   39.1690   31.4500   41.2790 C   0  0  0  0  0  0  0  0  0  0  0  0
   38.3820   32.5050   40.6660 C   0  0  0  0  0  0  0  0  0  0  0  0
   39.0430   33.5880   39.9670 C   0  0  0  0  0  0  0  0  0  0  0  0
   40.5390   33.6530   40.0580 C   0  0  0  0  0  0  0  0  0  0  0  0
   41.0960   30.4870   41.1780 H   0  0  0  0  0  0  0  0  0  0  0  0
   40.4660   30.8900   39.5840 H   0  0  0  0  0  0  0  0  0  0  0  0
   38.6820   30.4460   41.2460 H   0  0  0  0  0  0  0  0  0  0  0  0
   39.3800   31.6610   42.3480 H   0  0  0  0  0  0  0  0  0  0  0  0
   37.7210   32.9710   41.4550 H   0  0  0  0  0  0  0  0  0  0  0  0
   37.6350   32.0390   39.9640 H   0  0  0  0  0  0  0  0  0  0  0  0
   38.5990   34.3670   39.4020 H   0  0  0  0  0  0  0  0  0  0  0  0
   41.4530   34.9540   39.3120 S   0  0  0  0  0  0  0  0  0  0  0  0
   40.8160   35.4880   37.7580 C   0  0  0  0  0  3  0  0  0  0  0  0
   41.3790   36.5710   37.2410 C   0  0  0  0  0  3  0  0  0  0  0  0
   41.0090   37.2040   35.9450 C   0  0  0  0  0  2  0  0  0  0  0  0
   41.9070   37.1740   35.2640 H   0  0  0  0  0  0  0  0  0  0  0  0
  1 22  1  0  0  0  0
  1  4  1  0  0  0  0
  1  3  1  0  0  0  0
  2  1  1  0  0  0  0
  4  9  2  0  0  0  0
  4  5  1  0  0  0  0
  5 10  1  0  0  0  0
  5  6  2  0  0  0  0
  6 11  1  0  0  0  0
  7  6  1  0  0  0  0
  8 12  1  0  0  0  0
  8  7  2  0  0  0  0
  9  8  1  0  0  0  0
 12 17  1  0  0  0  0
 13 14  1  0  0  0  0
 13 12  2  0  0  0  0
 14 15  2  0  0  0  0
 15 20  1  0  0  0  0
 15 16  1  0  0  0  0
 16 21  1  0  0  0  0
 17 16  2  0  0  0  0
 18 13  1  0  0  0  0
 19 14  1  0  0  0  0
 22 24  1  0  0  0  0
 22 23  1  0  0  0  0
 25 22  1  0  0  0  0
 26 25  1  0  0  0  0
 26 31  1  0  0  0  0
 26 27  1  0  0  0  0
 27 34  1  0  0  0  0
 28 27  1  0  0  0  0
 28 35  1  0  0  0  0
 29 30  2  0  0  0  0
 29 28  1  0  0  0  0
 30 25  1  0  0  0  0
 32 26  1  0  0  0  0
 33 27  1  0  0  0  0
 36 28  1  0  0  0  0
 37 29  1  0  0  0  0
 38 30  1  0  0  0  0
 39 38  1  0  0  0  0
 40 39  2  0  0  0  0
 41 40  1  0  0  0  0
 42 41  1  0  0  0  0
M  END
>  <minimizedAffinity>
-5.33850861

>  <minimizedRMSD>
0.874029636

$$$$
