
 OpenBabel03252507053D

 42 44  0  0  0  0  0  0  0  0999 V2000
   37.6360   28.0450   43.4730 C   0  0  0  0  0  0  0  0  0  0  0  0
   38.1050   27.2330   44.0810 H   0  0  0  0  0  0  0  0  0  0  0  0
   37.0390   28.6950   44.1720 H   0  0  0  0  0  0  0  0  0  0  0  0
   38.6390   28.9310   42.8590 C   0  0  0  0  0  0  0  0  0  0  0  0
   39.9770   28.6220   42.9200 C   0  0  0  0  0  0  0  0  0  0  0  0
   40.8860   29.4900   42.3300 C   0  0  0  0  0  0  0  0  0  0  0  0
   40.3990   30.6140   41.7140 N   0  0  0  0  0  0  0  0  0  0  0  0
   39.0980   30.8760   41.6740 C   0  0  0  0  0  0  0  0  0  0  0  0
   38.2470   30.0270   42.2490 N   0  0  0  0  0  0  0  0  0  0  0  0
   40.5370   27.8000   43.3330 H   0  0  0  0  0  0  0  0  0  0  0  0
   41.9650   29.4090   42.2830 H   0  0  0  0  0  0  0  0  0  0  0  0
   38.6690   32.0850   40.9740 C   0  0  0  0  0  0  0  0  0  0  0  0
   37.4980   32.0870   40.2200 C   0  0  0  0  0  0  0  0  0  0  0  0
   37.1100   33.2300   39.5540 C   0  0  0  0  0  0  0  0  0  0  0  0
   37.9500   34.2940   39.7060 C   0  0  0  0  0  0  0  0  0  0  0  0
   39.1260   34.3470   40.4440 C   0  0  0  0  0  0  0  0  0  0  0  0
   39.4470   33.1880   41.0730 N   0  0  0  0  0  0  0  0  0  0  0  0
   36.9020   31.1680   40.1710 H   0  0  0  0  0  0  0  0  0  0  0  0
   36.2250   33.2740   38.9680 H   0  0  0  0  0  0  0  0  0  0  0  0
   37.6920   35.2280   39.2010 H   0  0  0  0  0  0  0  0  0  0  0  0
   39.7330   35.2370   40.5110 H   0  0  0  0  0  0  0  0  0  0  0  0
   36.7450   27.5340   42.3940 C   0  0  0  0  0  0  0  0  0  0  0  0
   35.7610   27.2840   42.8510 H   0  0  0  0  0  0  0  0  0  0  0  0
   36.4940   28.4600   41.7730 H   0  0  0  0  0  0  0  0  0  0  0  0
   37.2690   26.5320   41.6970 N   0  0  0  0  0  0  0  0  0  0  0  0
   37.9360   25.3730   42.1470 C   0  0  0  0  0  0  0  0  0  0  0  0
   36.8030   24.3500   41.8980 C   0  0  0  0  0  0  0  0  0  0  0  0
   36.4410   24.2480   40.4950 C   0  0  0  0  0  0  0  0  0  0  0  0
   36.6600   25.3710   39.6080 C   0  0  0  0  0  0  0  0  0  0  0  0
   37.1030   26.6630   40.2300 C   0  0  0  0  0  0  0  0  0  0  0  0
   38.0870   25.4350   43.2480 H   0  0  0  0  0  0  0  0  0  0  0  0
   38.8780   25.0800   41.7160 H   0  0  0  0  0  0  0  0  0  0  0  0
   37.1720   23.3930   42.3390 H   0  0  0  0  0  0  0  0  0  0  0  0
   35.9460   24.6740   42.5230 H   0  0  0  0  0  0  0  0  0  0  0  0
   35.3480   23.9720   40.4220 H   0  0  0  0  0  0  0  0  0  0  0  0
   36.9510   23.3470   40.0530 H   0  0  0  0  0  0  0  0  0  0  0  0
   36.5290   25.4080   38.5570 H   0  0  0  0  0  0  0  0  0  0  0  0
   37.3390   28.1160   39.2720 S   0  0  0  0  0  0  0  0  0  0  0  0
   35.8550   28.9990   38.9180 C   0  0  0  0  0  3  0  0  0  0  0  0
   34.9040   28.3120   38.3010 C   0  0  0  0  0  3  0  0  0  0  0  0
   33.5720   28.8460   37.9030 C   0  0  0  0  0  2  0  0  0  0  0  0
   32.7770   28.2580   38.4450 H   0  0  0  0  0  0  0  0  0  0  0  0
  1  2  1  0  0  0  0
  1  3  1  0  0  0  0
  4  5  1  0  0  0  0
  4  1  1  0  0  0  0
  5 10  1  0  0  0  0
  6  5  2  0  0  0  0
  7  6  1  0  0  0  0
  8  7  2  0  0  0  0
  8  9  1  0  0  0  0
  9  4  2  0  0  0  0
 11  6  1  0  0  0  0
 12 17  1  0  0  0  0
 12  8  1  0  0  0  0
 13 12  2  0  0  0  0
 14 15  2  0  0  0  0
 14 13  1  0  0  0  0
 15 16  1  0  0  0  0
 16 21  1  0  0  0  0
 16 17  2  0  0  0  0
 18 13  1  0  0  0  0
 19 14  1  0  0  0  0
 20 15  1  0  0  0  0
 22 23  1  0  0  0  0
 22  1  1  0  0  0  0
 24 22  1  0  0  0  0
 25 26  1  0  0  0  0
 25 22  1  0  0  0  0
 26 31  1  0  0  0  0
 27 26  1  0  0  0  0
 27 33  1  0  0  0  0
 27 34  1  0  0  0  0
 28 27  1  0  0  0  0
 29 30  2  0  0  0  0
 29 28  1  0  0  0  0
 30 25  1  0  0  0  0
 32 26  1  0  0  0  0
 35 28  1  0  0  0  0
 36 28  1  0  0  0  0
 37 29  1  0  0  0  0
 38 30  1  0  0  0  0
 39 38  1  0  0  0  0
 40 39  2  0  0  0  0
 41 40  1  0  0  0  0
 41 42  1  0  0  0  0
M  END
>  <minimizedAffinity>
-5.57627583

$$$$

 OpenBabel03252507053D

 42 44  0  0  0  0  0  0  0  0999 V2000
   38.6370   27.4730   39.7840 C   0  0  0  0  0  0  0  0  0  0  0  0
   37.9700   26.5760   39.7640 H   0  0  0  0  0  0  0  0  0  0  0  0
   39.1970   27.5060   38.8080 H   0  0  0  0  0  0  0  0  0  0  0  0
   37.8750   28.7310   39.8530 C   0  0  0  0  0  0  0  0  0  0  0  0
   36.5000   28.7190   39.8290 C   0  0  0  0  0  0  0  0  0  0  0  0
   35.8250   29.9320   39.8920 C   0  0  0  0  0  0  0  0  0  0  0  0
   36.5690   31.0810   39.9760 N   0  0  0  0  0  0  0  0  0  0  0  0
   37.8960   31.0500   40.0000 C   0  0  0  0  0  0  0  0  0  0  0  0
   38.5190   29.8730   39.9360 N   0  0  0  0  0  0  0  0  0  0  0  0
   35.7590   27.9400   39.7840 H   0  0  0  0  0  0  0  0  0  0  0  0
   34.7580   30.1110   39.8830 H   0  0  0  0  0  0  0  0  0  0  0  0
   38.6040   32.3230   40.1160 C   0  0  0  0  0  0  0  0  0  0  0  0
   37.9080   33.5270   40.0450 C   0  0  0  0  0  0  0  0  0  0  0  0
   38.5890   34.7220   40.1440 C   0  0  0  0  0  0  0  0  0  0  0  0
   39.9380   34.6010   40.3080 C   0  0  0  0  0  0  0  0  0  0  0  0
   40.6810   33.4290   40.3850 C   0  0  0  0  0  0  0  0  0  0  0  0
   39.9480   32.2920   40.2810 N   0  0  0  0  0  0  0  0  0  0  0  0
   36.8210   33.4990   39.9110 H   0  0  0  0  0  0  0  0  0  0  0  0
   38.0970   35.6620   40.0960 H   0  0  0  0  0  0  0  0  0  0  0  0
   40.5290   35.5160   40.3930 H   0  0  0  0  0  0  0  0  0  0  0  0
   41.7510   33.4250   40.5170 H   0  0  0  0  0  0  0  0  0  0  0  0
   39.6120   27.4590   40.9100 C   0  0  0  0  0  0  0  0  0  0  0  0
   40.4480   26.7780   40.6310 H   0  0  0  0  0  0  0  0  0  0  0  0
   40.1120   28.4850   40.8640 H   0  0  0  0  0  0  0  0  0  0  0  0
   39.0670   27.1650   42.0860 N   0  0  0  0  0  0  0  0  0  0  0  0
   39.1420   27.8580   43.3110 C   0  0  0  0  0  0  0  0  0  0  0  0
   37.7180   28.4610   43.3170 C   0  0  0  0  0  0  0  0  0  0  0  0
   36.6810   27.4440   43.3400 C   0  0  0  0  0  0  0  0  0  0  0  0
   36.9470   26.1270   42.8010 C   0  0  0  0  0  0  0  0  0  0  0  0
   38.2500   25.9280   42.0820 C   0  0  0  0  0  0  0  0  0  0  0  0
   39.8580   28.7060   43.2160 H   0  0  0  0  0  0  0  0  0  0  0  0
   39.3890   27.3390   44.2210 H   0  0  0  0  0  0  0  0  0  0  0  0
   37.6960   29.1480   44.1970 H   0  0  0  0  0  0  0  0  0  0  0  0
   37.6460   29.1030   42.4160 H   0  0  0  0  0  0  0  0  0  0  0  0
   35.7680   27.8450   42.8090 H   0  0  0  0  0  0  0  0  0  0  0  0
   36.3160   27.3230   44.3980 H   0  0  0  0  0  0  0  0  0  0  0  0
   36.3230   25.2720   42.8310 H   0  0  0  0  0  0  0  0  0  0  0  0
   38.6620   24.3980   41.3260 S   0  0  0  0  0  0  0  0  0  0  0  0
   37.2720   23.4580   40.7890 C   0  0  0  0  0  3  0  0  0  0  0  0
   36.5040   24.0290   39.8710 C   0  0  0  0  0  3  0  0  0  0  0  0
   35.2820   23.4270   39.2700 C   0  0  0  0  0  2  0  0  0  0  0  0
   35.4490   23.3150   38.1610 H   0  0  0  0  0  0  0  0  0  0  0  0
  1  4  1  0  0  0  0
  1 22  1  0  0  0  0
  2  1  1  0  0  0  0
  3  1  1  0  0  0  0
  4  9  1  0  0  0  0
  5  4  2  0  0  0  0
  5  6  1  0  0  0  0
  6  7  2  0  0  0  0
  7  8  1  0  0  0  0
  8 12  1  0  0  0  0
  9  8  2  0  0  0  0
 10  5  1  0  0  0  0
 11  6  1  0  0  0  0
 12 17  1  0  0  0  0
 13 12  2  0  0  0  0
 13 14  1  0  0  0  0
 14 15  2  0  0  0  0
 15 16  1  0  0  0  0
 15 20  1  0  0  0  0
 16 21  1  0  0  0  0
 17 16  2  0  0  0  0
 18 13  1  0  0  0  0
 19 14  1  0  0  0  0
 22 25  1  0  0  0  0
 23 22  1  0  0  0  0
 24 22  1  0  0  0  0
 25 26  1  0  0  0  0
 26 27  1  0  0  0  0
 26 32  1  0  0  0  0
 27 28  1  0  0  0  0
 27 33  1  0  0  0  0
 28 36  1  0  0  0  0
 29 37  1  0  0  0  0
 29 28  1  0  0  0  0
 30 25  1  0  0  0  0
 30 29  2  0  0  0  0
 31 26  1  0  0  0  0
 34 27  1  0  0  0  0
 35 28  1  0  0  0  0
 38 30  1  0  0  0  0
 39 38  1  0  0  0  0
 40 39  2  0  0  0  0
 41 40  1  0  0  0  0
 42 41  1  0  0  0  0
M  END
>  <minimizedAffinity>
-5.34397316

$$$$

 OpenBabel03252507053D

 42 44  0  0  0  0  0  0  0  0999 V2000
   37.5380   28.2060   43.6930 C   0  0  0  0  0  0  0  0  0  0  0  0
   36.4390   28.1110   43.5100 H   0  0  0  0  0  0  0  0  0  0  0  0
   37.6900   28.3450   44.8000 H   0  0  0  0  0  0  0  0  0  0  0  0
   38.2690   26.9780   43.3390 C   0  0  0  0  0  0  0  0  0  0  0  0
   39.4900   26.7010   43.9090 C   0  0  0  0  0  0  0  0  0  0  0  0
   40.1440   25.5330   43.5420 C   0  0  0  0  0  0  0  0  0  0  0  0
   39.5350   24.7130   42.6270 N   0  0  0  0  0  0  0  0  0  0  0  0
   38.3530   25.0140   42.1010 C   0  0  0  0  0  0  0  0  0  0  0  0
   37.7480   26.1420   42.4700 N   0  0  0  0  0  0  0  0  0  0  0  0
   40.1060   27.2000   44.6380 H   0  0  0  0  0  0  0  0  0  0  0  0
   41.1010   25.1600   43.8820 H   0  0  0  0  0  0  0  0  0  0  0  0
   37.7700   24.0680   41.1530 C   0  0  0  0  0  0  0  0  0  0  0  0
   36.4820   24.2630   40.6620 C   0  0  0  0  0  0  0  0  0  0  0  0
   35.9370   23.3560   39.7770 C   0  0  0  0  0  0  0  0  0  0  0  0
   36.7520   22.3100   39.4550 C   0  0  0  0  0  0  0  0  0  0  0  0
   38.0410   22.0680   39.9140 C   0  0  0  0  0  0  0  0  0  0  0  0
   38.5130   22.9990   40.7800 N   0  0  0  0  0  0  0  0  0  0  0  0
   35.9200   25.1440   40.9940 H   0  0  0  0  0  0  0  0  0  0  0  0
   34.9590   23.4680   39.3780 H   0  0  0  0  0  0  0  0  0  0  0  0
   36.3730   21.5600   38.7570 H   0  0  0  0  0  0  0  0  0  0  0  0
   38.6180   21.2100   39.6050 H   0  0  0  0  0  0  0  0  0  0  0  0
   38.1610   29.3450   42.9640 C   0  0  0  0  0  0  0  0  0  0  0  0
   38.0210   30.2640   43.5770 H   0  0  0  0  0  0  0  0  0  0  0  0
   39.2850   29.1600   43.0590 H   0  0  0  0  0  0  0  0  0  0  0  0
   37.7310   29.4790   41.7140 N   0  0  0  0  0  0  0  0  0  0  0  0
   36.4140   29.4890   41.2100 C   0  0  0  0  0  0  0  0  0  0  0  0
   36.2920   31.0060   40.9300 C   0  0  0  0  0  0  0  0  0  0  0  0
   37.2470   31.4690   39.9390 C   0  0  0  0  0  0  0  0  0  0  0  0
   38.4940   30.7590   39.7480 C   0  0  0  0  0  0  0  0  0  0  0  0
   38.8140   29.6580   40.7170 C   0  0  0  0  0  0  0  0  0  0  0  0
   35.7000   29.2480   42.0300 H   0  0  0  0  0  0  0  0  0  0  0  0
   36.1440   28.8770   40.3670 H   0  0  0  0  0  0  0  0  0  0  0  0
   35.2260   31.1630   40.6380 H   0  0  0  0  0  0  0  0  0  0  0  0
   36.4280   31.5160   41.9050 H   0  0  0  0  0  0  0  0  0  0  0  0
   37.5060   32.5460   40.1620 H   0  0  0  0  0  0  0  0  0  0  0  0
   36.7280   31.5430   38.9430 H   0  0  0  0  0  0  0  0  0  0  0  0
   39.2350   30.9280   39.0100 H   0  0  0  0  0  0  0  0  0  0  0  0
   40.3240   28.7660   40.6340 S   0  0  0  0  0  0  0  0  0  0  0  0
   41.6870   29.5750   41.4040 C   0  0  0  0  0  3  0  0  0  0  0  0
   41.8670   29.3110   42.6910 C   0  0  0  0  0  3  0  0  0  0  0  0
   42.9470   29.8760   43.5460 C   0  0  0  0  0  2  0  0  0  0  0  0
   43.5830   29.0260   43.9250 H   0  0  0  0  0  0  0  0  0  0  0  0
  1  3  1  0  0  0  0
  2  1  1  0  0  0  0
  4  1  1  0  0  0  0
  4  5  1  0  0  0  0
  5 10  1  0  0  0  0
  6 11  1  0  0  0  0
  6  5  2  0  0  0  0
  7  6  1  0  0  0  0
  8  9  1  0  0  0  0
  8  7  2  0  0  0  0
  9  4  2  0  0  0  0
 12  8  1  0  0  0  0
 13 18  1  0  0  0  0
 13 12  2  0  0  0  0
 14 13  1  0  0  0  0
 15 14  2  0  0  0  0
 15 16  1  0  0  0  0
 16 17  2  0  0  0  0
 17 12  1  0  0  0  0
 19 14  1  0  0  0  0
 20 15  1  0  0  0  0
 21 16  1  0  0  0  0
 22 24  1  0  0  0  0
 22 23  1  0  0  0  0
 22  1  1  0  0  0  0
 25 22  1  0  0  0  0
 26 25  1  0  0  0  0
 26 31  1  0  0  0  0
 27 26  1  0  0  0  0
 27 34  1  0  0  0  0
 28 35  1  0  0  0  0
 28 27  1  0  0  0  0
 29 28  1  0  0  0  0
 29 30  2  0  0  0  0
 30 25  1  0  0  0  0
 32 26  1  0  0  0  0
 33 27  1  0  0  0  0
 36 28  1  0  0  0  0
 37 29  1  0  0  0  0
 38 30  1  0  0  0  0
 38 39  1  0  0  0  0
 39 40  2  0  0  0  0
 40 41  1  0  0  0  0
 41 42  1  0  0  0  0
M  END
>  <minimizedAffinity>
-5.2714448

$$$$

 OpenBabel03252507053D

 42 44  0  0  0  0  0  0  0  0999 V2000
   35.8210   30.2630   40.6650 C   0  0  0  0  0  0  0  0  0  0  0  0
   35.9360   30.9550   41.5350 H   0  0  0  0  0  0  0  0  0  0  0  0
   34.7610   30.3500   40.2950 H   0  0  0  0  0  0  0  0  0  0  0  0
   36.6750   30.6490   39.5300 C   0  0  0  0  0  0  0  0  0  0  0  0
   36.4520   30.1290   38.2770 C   0  0  0  0  0  0  0  0  0  0  0  0
   37.2870   30.5200   37.2380 C   0  0  0  0  0  0  0  0  0  0  0  0
   38.2920   31.4100   37.5180 N   0  0  0  0  0  0  0  0  0  0  0  0
   38.4720   31.8930   38.7410 C   0  0  0  0  0  0  0  0  0  0  0  0
   37.6590   31.5000   39.7210 N   0  0  0  0  0  0  0  0  0  0  0  0
   35.7250   29.4490   37.8680 H   0  0  0  0  0  0  0  0  0  0  0  0
   37.2610   30.2130   36.2000 H   0  0  0  0  0  0  0  0  0  0  0  0
   39.5540   32.8550   38.9400 C   0  0  0  0  0  0  0  0  0  0  0  0
   39.4740   33.8090   39.9510 C   0  0  0  0  0  0  0  0  0  0  0  0
   40.4950   34.7200   40.1200 C   0  0  0  0  0  0  0  0  0  0  0  0
   41.5300   34.5900   39.2410 C   0  0  0  0  0  0  0  0  0  0  0  0
   41.6600   33.6600   38.2160 C   0  0  0  0  0  0  0  0  0  0  0  0
   40.6210   32.7960   38.1070 N   0  0  0  0  0  0  0  0  0  0  0  0
   38.5900   33.8160   40.5980 H   0  0  0  0  0  0  0  0  0  0  0  0
   40.4740   35.4630   40.8790 H   0  0  0  0  0  0  0  0  0  0  0  0
   42.3690   35.2850   39.3280 H   0  0  0  0  0  0  0  0  0  0  0  0
   42.5190   33.6280   37.5630 H   0  0  0  0  0  0  0  0  0  0  0  0
   36.1100   28.8410   41.0010 C   0  0  0  0  0  0  0  0  0  0  0  0
   35.2250   28.4280   41.5370 H   0  0  0  0  0  0  0  0  0  0  0  0
   36.0580   28.2970   39.9970 H   0  0  0  0  0  0  0  0  0  0  0  0
   37.2500   28.6680   41.6610 N   0  0  0  0  0  0  0  0  0  0  0  0
   37.7920   29.4070   42.7320 C   0  0  0  0  0  0  0  0  0  0  0  0
   37.5130   28.3950   43.8680 C   0  0  0  0  0  0  0  0  0  0  0  0
   38.2110   27.1360   43.6790 C   0  0  0  0  0  0  0  0  0  0  0  0
   38.5730   26.7020   42.3460 C   0  0  0  0  0  0  0  0  0  0  0  0
   38.0490   27.5090   41.1940 C   0  0  0  0  0  0  0  0  0  0  0  0
   37.1580   30.3020   42.9250 H   0  0  0  0  0  0  0  0  0  0  0  0
   38.8140   29.7450   42.7040 H   0  0  0  0  0  0  0  0  0  0  0  0
   37.7910   28.9290   44.8090 H   0  0  0  0  0  0  0  0  0  0  0  0
   36.4130   28.2560   43.9000 H   0  0  0  0  0  0  0  0  0  0  0  0
   37.6010   26.3080   44.1470 H   0  0  0  0  0  0  0  0  0  0  0  0
   39.1430   27.1400   44.3110 H   0  0  0  0  0  0  0  0  0  0  0  0
   39.1550   25.8610   42.0690 H   0  0  0  0  0  0  0  0  0  0  0  0
   38.3600   27.0500   39.5280 S   0  0  0  0  0  0  0  0  0  0  0  0
   37.1700   25.9410   38.8490 C   0  0  0  0  0  3  0  0  0  0  0  0
   36.7140   25.0050   39.6690 C   0  0  0  0  0  3  0  0  0  0  0  0
   35.7100   23.9630   39.3180 C   0  0  0  0  0  2  0  0  0  0  0  0
   34.8080   24.1000   39.9810 H   0  0  0  0  0  0  0  0  0  0  0  0
  1 22  1  0  0  0  0
  1  2  1  0  0  0  0
  3  1  1  0  0  0  0
  4  9  1  0  0  0  0
  4  1  1  0  0  0  0
  5  4  2  0  0  0  0
  6  7  2  0  0  0  0
  6  5  1  0  0  0  0
  7  8  1  0  0  0  0
  8 12  1  0  0  0  0
  8  9  2  0  0  0  0
 10  5  1  0  0  0  0
 11  6  1  0  0  0  0
 12 13  1  0  0  0  0
 13 14  2  0  0  0  0
 13 18  1  0  0  0  0
 14 19  1  0  0  0  0
 15 20  1  0  0  0  0
 15 14  1  0  0  0  0
 16 15  2  0  0  0  0
 17 16  1  0  0  0  0
 17 12  2  0  0  0  0
 21 16  1  0  0  0  0
 22 23  1  0  0  0  0
 22 25  1  0  0  0  0
 24 22  1  0  0  0  0
 25 26  1  0  0  0  0
 26 31  1  0  0  0  0
 26 27  1  0  0  0  0
 27 34  1  0  0  0  0
 27 33  1  0  0  0  0
 28 27  1  0  0  0  0
 28 35  1  0  0  0  0
 28 36  1  0  0  0  0
 29 28  1  0  0  0  0
 30 25  1  0  0  0  0
 30 29  2  0  0  0  0
 32 26  1  0  0  0  0
 37 29  1  0  0  0  0
 38 30  1  0  0  0  0
 39 38  1  0  0  0  0
 39 40  2  0  0  0  0
 41 40  1  0  0  0  0
 41 42  1  0  0  0  0
M  END
>  <minimizedAffinity>
-5.25976849

$$$$

 OpenBabel03252507053D

 42 44  0  0  0  0  0  0  0  0999 V2000
   37.6680   31.0580   39.3870 C   0  0  0  0  0  0  0  0  0  0  0  0
   37.3620   30.8980   38.3250 H   0  0  0  0  0  0  0  0  0  0  0  0
   38.4160   30.2600   39.6530 H   0  0  0  0  0  0  0  0  0  0  0  0
   38.3640   32.3420   39.5780 C   0  0  0  0  0  0  0  0  0  0  0  0
   37.6840   33.4460   40.0350 C   0  0  0  0  0  0  0  0  0  0  0  0
   38.3820   34.6350   40.1960 C   0  0  0  0  0  0  0  0  0  0  0  0
   39.7190   34.6450   39.8910 N   0  0  0  0  0  0  0  0  0  0  0  0
   40.3410   33.5560   39.4550 C   0  0  0  0  0  0  0  0  0  0  0  0
   39.6470   32.4280   39.3080 N   0  0  0  0  0  0  0  0  0  0  0  0
   36.6660   33.6260   40.3360 H   0  0  0  0  0  0  0  0  0  0  0  0
   38.0130   35.5940   40.5380 H   0  0  0  0  0  0  0  0  0  0  0  0
   41.7720   33.6550   39.1780 C   0  0  0  0  0  0  0  0  0  0  0  0
   42.6840   33.8040   40.2200 C   0  0  0  0  0  0  0  0  0  0  0  0
   44.0310   33.9080   39.9460 C   0  0  0  0  0  0  0  0  0  0  0  0
   44.3520   33.8530   38.6210 C   0  0  0  0  0  0  0  0  0  0  0  0
   43.4850   33.7070   37.5440 C   0  0  0  0  0  0  0  0  0  0  0  0
   42.1760   33.6090   37.8870 N   0  0  0  0  0  0  0  0  0  0  0  0
   42.3070   33.8350   41.2480 H   0  0  0  0  0  0  0  0  0  0  0  0
   44.7600   34.0230   40.7100 H   0  0  0  0  0  0  0  0  0  0  0  0
   45.4060   33.9310   38.3440 H   0  0  0  0  0  0  0  0  0  0  0  0
   43.8270   33.6720   36.5210 H   0  0  0  0  0  0  0  0  0  0  0  0
   36.5280   31.0010   40.3440 C   0  0  0  0  0  0  0  0  0  0  0  0
   36.8680   31.4400   41.3100 H   0  0  0  0  0  0  0  0  0  0  0  0
   35.7990   31.7940   39.9630 H   0  0  0  0  0  0  0  0  0  0  0  0
   36.0000   29.7890   40.4760 N   0  0  0  0  0  0  0  0  0  0  0  0
   34.7850   29.2760   39.9760 C   0  0  0  0  0  0  0  0  0  0  0  0
   35.3620   28.4010   38.8380 C   0  0  0  0  0  0  0  0  0  0  0  0
   36.2280   27.3440   39.3300 C   0  0  0  0  0  0  0  0  0  0  0  0
   36.9200   27.5030   40.5920 C   0  0  0  0  0  0  0  0  0  0  0  0
   36.8370   28.8460   41.2570 C   0  0  0  0  0  0  0  0  0  0  0  0
   34.2040   30.0960   39.4980 H   0  0  0  0  0  0  0  0  0  0  0  0
   34.1070   28.7440   40.6210 H   0  0  0  0  0  0  0  0  0  0  0  0
   34.4720   28.0300   38.2760 H   0  0  0  0  0  0  0  0  0  0  0  0
   35.8990   29.0900   38.1560 H   0  0  0  0  0  0  0  0  0  0  0  0
   37.0090   27.1200   38.5460 H   0  0  0  0  0  0  0  0  0  0  0  0
   35.6400   26.3840   39.3720 H   0  0  0  0  0  0  0  0  0  0  0  0
   37.5050   26.7880   41.1100 H   0  0  0  0  0  0  0  0  0  0  0  0
   37.6860   29.1890   42.7550 S   0  0  0  0  0  0  0  0  0  0  0  0
   39.4120   29.4850   42.5580 C   0  0  0  0  0  3  0  0  0  0  0  0
   39.7940   30.7530   42.6260 C   0  0  0  0  0  3  0  0  0  0  0  0
   41.1940   31.2420   42.4890 C   0  0  0  0  0  2  0  0  0  0  0  0
   41.4880   31.7540   43.4500 H   0  0  0  0  0  0  0  0  0  0  0  0
  1  4  1  0  0  0  0
  1  3  1  0  0  0  0
  1 22  1  0  0  0  0
  2  1  1  0  0  0  0
  4  5  1  0  0  0  0
  5  6  2  0  0  0  0
  5 10  1  0  0  0  0
  6 11  1  0  0  0  0
  7  6  1  0  0  0  0
  8  7  2  0  0  0  0
  9  8  1  0  0  0  0
  9  4  2  0  0  0  0
 12  8  1  0  0  0  0
 12 13  1  0  0  0  0
 13 18  1  0  0  0  0
 14 13  2  0  0  0  0
 14 19  1  0  0  0  0
 15 14  1  0  0  0  0
 16 17  1  0  0  0  0
 16 15  2  0  0  0  0
 17 12  2  0  0  0  0
 20 15  1  0  0  0  0
 21 16  1  0  0  0  0
 22 25  1  0  0  0  0
 22 23  1  0  0  0  0
 24 22  1  0  0  0  0
 25 30  1  0  0  0  0
 26 25  1  0  0  0  0
 26 32  1  0  0  0  0
 27 28  1  0  0  0  0
 27 26  1  0  0  0  0
 28 36  1  0  0  0  0
 28 29  1  0  0  0  0
 29 37  1  0  0  0  0
 29 30  2  0  0  0  0
 30 38  1  0  0  0  0
 31 26  1  0  0  0  0
 33 27  1  0  0  0  0
 34 27  1  0  0  0  0
 35 28  1  0  0  0  0
 39 40  2  0  0  0  0
 39 38  1  0  0  0  0
 41 40  1  0  0  0  0
 41 42  1  0  0  0  0
M  END
>  <minimizedAffinity>
-5.25360346

$$$$

 OpenBabel03252507053D

 42 44  0  0  0  0  0  0  0  0999 V2000
   38.0310   27.6880   43.1120 C   0  0  0  0  0  0  0  0  0  0  0  0
   38.3210   28.2180   44.0520 H   0  0  0  0  0  0  0  0  0  0  0  0
   37.3000   26.8770   43.3870 H   0  0  0  0  0  0  0  0  0  0  0  0
   37.3180   28.5700   42.1730 C   0  0  0  0  0  0  0  0  0  0  0  0
   36.1190   28.1830   41.6220 C   0  0  0  0  0  0  0  0  0  0  0  0
   35.4860   29.0470   40.7380 C   0  0  0  0  0  0  0  0  0  0  0  0
   36.0910   30.2460   40.4620 N   0  0  0  0  0  0  0  0  0  0  0  0
   37.2490   30.5850   41.0180 C   0  0  0  0  0  0  0  0  0  0  0  0
   37.8370   29.7360   41.8610 N   0  0  0  0  0  0  0  0  0  0  0  0
   35.4950   27.3120   41.7250 H   0  0  0  0  0  0  0  0  0  0  0  0
   34.5500   28.9080   40.2130 H   0  0  0  0  0  0  0  0  0  0  0  0
   37.8070   31.8930   40.6840 C   0  0  0  0  0  0  0  0  0  0  0  0
   37.0780   32.7960   39.9140 C   0  0  0  0  0  0  0  0  0  0  0  0
   37.6200   34.0230   39.5940 C   0  0  0  0  0  0  0  0  0  0  0  0
   38.8740   34.2410   40.0870 C   0  0  0  0  0  0  0  0  0  0  0  0
   39.6430   33.3780   40.8580 C   0  0  0  0  0  0  0  0  0  0  0  0
   39.0490   32.1900   41.1340 N   0  0  0  0  0  0  0  0  0  0  0  0
   36.0770   32.5080   39.5730 H   0  0  0  0  0  0  0  0  0  0  0  0
   37.0980   34.7400   39.0100 H   0  0  0  0  0  0  0  0  0  0  0  0
   39.3530   35.1980   39.8660 H   0  0  0  0  0  0  0  0  0  0  0  0
   40.6310   33.6340   41.2080 H   0  0  0  0  0  0  0  0  0  0  0  0
   39.1880   27.0830   42.3940 C   0  0  0  0  0  0  0  0  0  0  0  0
   39.5950   27.8480   41.6940 H   0  0  0  0  0  0  0  0  0  0  0  0
   40.0090   27.0190   43.1860 H   0  0  0  0  0  0  0  0  0  0  0  0
   38.9050   25.9280   41.8020 N   0  0  0  0  0  0  0  0  0  0  0  0
   38.6630   24.6600   42.3690 C   0  0  0  0  0  0  0  0  0  0  0  0
   37.1300   24.6130   42.1680 C   0  0  0  0  0  0  0  0  0  0  0  0
   36.7480   24.6540   40.7680 C   0  0  0  0  0  0  0  0  0  0  0  0
   37.6230   25.2780   39.7980 C   0  0  0  0  0  0  0  0  0  0  0  0
   38.8230   26.0110   40.3240 C   0  0  0  0  0  0  0  0  0  0  0  0
   38.8500   24.7010   43.4660 H   0  0  0  0  0  0  0  0  0  0  0  0
   39.1690   23.7860   41.9960 H   0  0  0  0  0  0  0  0  0  0  0  0
   36.7950   23.6900   42.7010 H   0  0  0  0  0  0  0  0  0  0  0  0
   36.7140   25.4710   42.7360 H   0  0  0  0  0  0  0  0  0  0  0  0
   35.7400   25.1570   40.6820 H   0  0  0  0  0  0  0  0  0  0  0  0
   36.5290   23.6060   40.4210 H   0  0  0  0  0  0  0  0  0  0  0  0
   37.5160   25.3030   38.7440 H   0  0  0  0  0  0  0  0  0  0  0  0
   39.9240   26.8650   39.2560 S   0  0  0  0  0  0  0  0  0  0  0  0
   39.3620   28.4610   38.7630 C   0  0  0  0  0  3  0  0  0  0  0  0
   38.3210   28.4830   37.9440 C   0  0  0  0  0  3  0  0  0  0  0  0
   37.6760   29.7090   37.3970 C   0  0  0  0  0  2  0  0  0  0  0  0
   36.6050   29.7360   37.7500 H   0  0  0  0  0  0  0  0  0  0  0  0
  1  3  1  0  0  0  0
  1  2  1  0  0  0  0
  4  1  1  0  0  0  0
  5 10  1  0  0  0  0
  5  4  2  0  0  0  0
  6  5  1  0  0  0  0
  7  6  2  0  0  0  0
  7  8  1  0  0  0  0
  8  9  2  0  0  0  0
  9  4  1  0  0  0  0
 11  6  1  0  0  0  0
 12  8  1  0  0  0  0
 12 17  1  0  0  0  0
 13 12  2  0  0  0  0
 14 13  1  0  0  0  0
 14 15  2  0  0  0  0
 15 16  1  0  0  0  0
 16 17  2  0  0  0  0
 16 21  1  0  0  0  0
 18 13  1  0  0  0  0
 19 14  1  0  0  0  0
 20 15  1  0  0  0  0
 22  1  1  0  0  0  0
 22 24  1  0  0  0  0
 23 22  1  0  0  0  0
 25 26  1  0  0  0  0
 25 22  1  0  0  0  0
 26 31  1  0  0  0  0
 27 26  1  0  0  0  0
 27 33  1  0  0  0  0
 27 34  1  0  0  0  0
 28 27  1  0  0  0  0
 29 30  2  0  0  0  0
 29 28  1  0  0  0  0
 30 25  1  0  0  0  0
 32 26  1  0  0  0  0
 35 28  1  0  0  0  0
 36 28  1  0  0  0  0
 37 29  1  0  0  0  0
 38 30  1  0  0  0  0
 39 38  1  0  0  0  0
 40 39  2  0  0  0  0
 41 42  1  0  0  0  0
 41 40  1  0  0  0  0
M  END
>  <minimizedAffinity>
-5.2336483

$$$$

 OpenBabel03252507053D

 42 44  0  0  0  0  0  0  0  0999 V2000
   38.0080   27.1330   39.8530 C   0  0  0  0  0  0  0  0  0  0  0  0
   38.3900   26.4480   39.0570 H   0  0  0  0  0  0  0  0  0  0  0  0
   38.8790   27.4200   40.5050 H   0  0  0  0  0  0  0  0  0  0  0  0
   37.4890   28.3950   39.2980 C   0  0  0  0  0  0  0  0  0  0  0  0
   36.3490   28.4050   38.5300 C   0  0  0  0  0  0  0  0  0  0  0  0
   35.9000   29.6190   38.0260 C   0  0  0  0  0  0  0  0  0  0  0  0
   36.6200   30.7470   38.3230 N   0  0  0  0  0  0  0  0  0  0  0  0
   37.7160   30.6960   39.0720 C   0  0  0  0  0  0  0  0  0  0  0  0
   38.1260   29.5180   39.5420 N   0  0  0  0  0  0  0  0  0  0  0  0
   35.6560   27.6460   38.2090 H   0  0  0  0  0  0  0  0  0  0  0  0
   35.0330   29.8130   37.4080 H   0  0  0  0  0  0  0  0  0  0  0  0
   38.4040   31.9530   39.3570 C   0  0  0  0  0  0  0  0  0  0  0  0
   37.7200   33.0150   39.9420 C   0  0  0  0  0  0  0  0  0  0  0  0
   38.3780   34.2010   40.1940 C   0  0  0  0  0  0  0  0  0  0  0  0
   39.6920   34.2170   39.8300 C   0  0  0  0  0  0  0  0  0  0  0  0
   40.4210   33.1880   39.2440 C   0  0  0  0  0  0  0  0  0  0  0  0
   39.7130   32.0520   39.0250 N   0  0  0  0  0  0  0  0  0  0  0  0
   36.6610   32.8860   40.1920 H   0  0  0  0  0  0  0  0  0  0  0  0
   37.8940   35.0360   40.6400 H   0  0  0  0  0  0  0  0  0  0  0  0
   40.2640   35.1310   40.0070 H   0  0  0  0  0  0  0  0  0  0  0  0
   41.4640   33.2860   38.9870 H   0  0  0  0  0  0  0  0  0  0  0  0
   36.9430   26.5230   40.6960 C   0  0  0  0  0  0  0  0  0  0  0  0
   36.3040   27.3460   41.0910 H   0  0  0  0  0  0  0  0  0  0  0  0
   36.2450   26.0150   39.9460 H   0  0  0  0  0  0  0  0  0  0  0  0
   37.4070   25.7190   41.6460 N   0  0  0  0  0  0  0  0  0  0  0  0
   37.4200   24.3100   41.7060 C   0  0  0  0  0  0  0  0  0  0  0  0
   38.9240   24.0860   41.4200 C   0  0  0  0  0  0  0  0  0  0  0  0
   39.7790   24.6730   42.4360 C   0  0  0  0  0  0  0  0  0  0  0  0
   39.3130   25.8050   43.2090 C   0  0  0  0  0  0  0  0  0  0  0  0
   38.0110   26.4290   42.7980 C   0  0  0  0  0  0  0  0  0  0  0  0
   36.8550   23.8950   40.8410 H   0  0  0  0  0  0  0  0  0  0  0  0
   37.0720   23.7950   42.5860 H   0  0  0  0  0  0  0  0  0  0  0  0
   39.0390   22.9800   41.3170 H   0  0  0  0  0  0  0  0  0  0  0  0
   39.1180   24.5170   40.4170 H   0  0  0  0  0  0  0  0  0  0  0  0
   40.7570   24.9760   41.9560 H   0  0  0  0  0  0  0  0  0  0  0  0
   40.0980   23.8650   43.1530 H   0  0  0  0  0  0  0  0  0  0  0  0
   39.7870   26.2730   44.0330 H   0  0  0  0  0  0  0  0  0  0  0  0
   37.3700   27.8470   43.6120 S   0  0  0  0  0  0  0  0  0  0  0  0
   37.9590   29.3790   42.9700 C   0  0  0  0  0  3  0  0  0  0  0  0
   39.2760   29.5240   42.9330 C   0  0  0  0  0  3  0  0  0  0  0  0
   39.9990   30.7270   42.4350 C   0  0  0  0  0  2  0  0  0  0  0  0
   40.6350   30.4210   41.5560 H   0  0  0  0  0  0  0  0  0  0  0  0
  1  3  1  0  0  0  0
  1 22  1  0  0  0  0
  2  1  1  0  0  0  0
  4  9  1  0  0  0  0
  4  1  1  0  0  0  0
  5  4  2  0  0  0  0
  6  7  2  0  0  0  0
  6  5  1  0  0  0  0
  7  8  1  0  0  0  0
  8 12  1  0  0  0  0
  8  9  2  0  0  0  0
 10  5  1  0  0  0  0
 11  6  1  0  0  0  0
 12 13  1  0  0  0  0
 13 18  1  0  0  0  0
 13 14  2  0  0  0  0
 14 19  1  0  0  0  0
 15 20  1  0  0  0  0
 15 14  1  0  0  0  0
 16 15  2  0  0  0  0
 17 16  1  0  0  0  0
 17 12  2  0  0  0  0
 21 16  1  0  0  0  0
 22 23  1  0  0  0  0
 22 25  1  0  0  0  0
 24 22  1  0  0  0  0
 25 26  1  0  0  0  0
 25 30  1  0  0  0  0
 26 32  1  0  0  0  0
 27 26  1  0  0  0  0
 27 28  1  0  0  0  0
 28 36  1  0  0  0  0
 28 29  1  0  0  0  0
 29 37  1  0  0  0  0
 30 29  2  0  0  0  0
 30 38  1  0  0  0  0
 31 26  1  0  0  0  0
 33 27  1  0  0  0  0
 34 27  1  0  0  0  0
 35 28  1  0  0  0  0
 39 38  1  0  0  0  0
 40 39  2  0  0  0  0
 41 40  1  0  0  0  0
 42 41  1  0  0  0  0
M  END
>  <minimizedAffinity>
-5.23304701

$$$$

 OpenBabel03252507053D

 42 44  0  0  0  0  0  0  0  0999 V2000
   36.9860   28.1830   43.1490 C   0  0  0  0  0  0  0  0  0  0  0  0
   37.7190   28.6380   43.8590 H   0  0  0  0  0  0  0  0  0  0  0  0
   35.9930   28.1200   43.6750 H   0  0  0  0  0  0  0  0  0  0  0  0
   36.7600   29.0280   41.9640 C   0  0  0  0  0  0  0  0  0  0  0  0
   35.7950   28.6970   41.0420 C   0  0  0  0  0  0  0  0  0  0  0  0
   35.6210   29.5220   39.9390 C   0  0  0  0  0  0  0  0  0  0  0  0
   36.4240   30.6280   39.8270 N   0  0  0  0  0  0  0  0  0  0  0  0
   37.3440   30.9150   40.7410 C   0  0  0  0  0  0  0  0  0  0  0  0
   37.4910   30.1060   41.7900 N   0  0  0  0  0  0  0  0  0  0  0  0
   35.0740   27.9010   40.9660 H   0  0  0  0  0  0  0  0  0  0  0  0
   34.9200   29.4170   39.1210 H   0  0  0  0  0  0  0  0  0  0  0  0
   38.1360   32.1280   40.5510 C   0  0  0  0  0  0  0  0  0  0  0  0
   37.5400   33.2950   40.0830 C   0  0  0  0  0  0  0  0  0  0  0  0
   38.3000   34.4300   39.8960 C   0  0  0  0  0  0  0  0  0  0  0  0
   39.6220   34.2900   40.2020 C   0  0  0  0  0  0  0  0  0  0  0  0
   40.2680   33.1520   40.6710 C   0  0  0  0  0  0  0  0  0  0  0  0
   39.4600   32.0740   40.8320 N   0  0  0  0  0  0  0  0  0  0  0  0
   36.4650   33.2880   39.8700 H   0  0  0  0  0  0  0  0  0  0  0  0
   37.8850   35.3410   39.5410 H   0  0  0  0  0  0  0  0  0  0  0  0
   40.2740   35.1580   40.0730 H   0  0  0  0  0  0  0  0  0  0  0  0
   41.3240   33.1300   40.8890 H   0  0  0  0  0  0  0  0  0  0  0  0
   37.3830   26.8250   42.6830 C   0  0  0  0  0  0  0  0  0  0  0  0
   37.0040   26.0840   43.4220 H   0  0  0  0  0  0  0  0  0  0  0  0
   36.7110   26.6290   41.7790 H   0  0  0  0  0  0  0  0  0  0  0  0
   38.6820   26.7020   42.4370 N   0  0  0  0  0  0  0  0  0  0  0  0
   39.7850   27.2500   43.1240 C   0  0  0  0  0  0  0  0  0  0  0  0
   40.2660   25.9660   43.8400 C   0  0  0  0  0  0  0  0  0  0  0  0
   40.6760   24.9280   42.9100 C   0  0  0  0  0  0  0  0  0  0  0  0
   40.1180   24.8910   41.5750 C   0  0  0  0  0  0  0  0  0  0  0  0
   38.9990   25.8440   41.2700 C   0  0  0  0  0  0  0  0  0  0  0  0
   39.4230   27.9500   43.9110 H   0  0  0  0  0  0  0  0  0  0  0  0
   40.5690   27.7580   42.5880 H   0  0  0  0  0  0  0  0  0  0  0  0
   41.0780   26.3020   44.5280 H   0  0  0  0  0  0  0  0  0  0  0  0
   39.4260   25.6350   44.4840 H   0  0  0  0  0  0  0  0  0  0  0  0
   40.4820   23.9200   43.3830 H   0  0  0  0  0  0  0  0  0  0  0  0
   41.7990   24.9450   42.8210 H   0  0  0  0  0  0  0  0  0  0  0  0
   40.3880   24.2540   40.7730 H   0  0  0  0  0  0  0  0  0  0  0  0
   38.1930   25.8520   39.7100 S   0  0  0  0  0  0  0  0  0  0  0  0
   38.4060   27.3410   38.7920 C   0  0  0  0  0  3  0  0  0  0  0  0
   39.4300   28.1020   39.1500 C   0  0  0  0  0  3  0  0  0  0  0  0
   39.8050   29.3990   38.5220 C   0  0  0  0  0  2  0  0  0  0  0  0
   40.8390   29.2980   38.0850 H   0  0  0  0  0  0  0  0  0  0  0  0
  1  3  1  0  0  0  0
  1  2  1  0  0  0  0
  4  1  1  0  0  0  0
  5  4  2  0  0  0  0
  6  5  1  0  0  0  0
  7  6  2  0  0  0  0
  7  8  1  0  0  0  0
  8  9  2  0  0  0  0
  9  4  1  0  0  0  0
 10  5  1  0  0  0  0
 11  6  1  0  0  0  0
 12  8  1  0  0  0  0
 12 17  1  0  0  0  0
 13 12  2  0  0  0  0
 14 13  1  0  0  0  0
 14 15  2  0  0  0  0
 15 16  1  0  0  0  0
 16 17  2  0  0  0  0
 16 21  1  0  0  0  0
 18 13  1  0  0  0  0
 19 14  1  0  0  0  0
 20 15  1  0  0  0  0
 22  1  1  0  0  0  0
 22 23  1  0  0  0  0
 24 22  1  0  0  0  0
 25 22  1  0  0  0  0
 25 26  1  0  0  0  0
 26 27  1  0  0  0  0
 26 31  1  0  0  0  0
 27 34  1  0  0  0  0
 27 33  1  0  0  0  0
 28 35  1  0  0  0  0
 28 27  1  0  0  0  0
 29 28  1  0  0  0  0
 30 29  2  0  0  0  0
 30 25  1  0  0  0  0
 32 26  1  0  0  0  0
 36 28  1  0  0  0  0
 37 29  1  0  0  0  0
 38 30  1  0  0  0  0
 39 40  2  0  0  0  0
 39 38  1  0  0  0  0
 41 40  1  0  0  0  0
 42 41  1  0  0  0  0
M  END
>  <minimizedAffinity>
-5.1810565

$$$$

 OpenBabel03252507053D

 42 44  0  0  0  0  0  0  0  0999 V2000
   35.7090   30.1030   40.4190 C   0  0  0  0  0  0  0  0  0  0  0  0
   35.3740   30.5750   39.4630 H   0  0  0  0  0  0  0  0  0  0  0  0
   34.8150   30.0350   41.1000 H   0  0  0  0  0  0  0  0  0  0  0  0
   36.1710   28.7180   40.2240 C   0  0  0  0  0  0  0  0  0  0  0  0
   35.7700   27.9940   39.1260 C   0  0  0  0  0  0  0  0  0  0  0  0
   36.2290   26.6910   38.9880 C   0  0  0  0  0  0  0  0  0  0  0  0
   37.0620   26.1930   39.9570 N   0  0  0  0  0  0  0  0  0  0  0  0
   37.4290   26.9260   41.0020 C   0  0  0  0  0  0  0  0  0  0  0  0
   36.9730   28.1740   41.1110 N   0  0  0  0  0  0  0  0  0  0  0  0
   35.1500   28.2100   38.2730 H   0  0  0  0  0  0  0  0  0  0  0  0
   36.0170   25.9810   38.1990 H   0  0  0  0  0  0  0  0  0  0  0  0
   38.3390   26.3210   41.9710 C   0  0  0  0  0  0  0  0  0  0  0  0
   38.8480   27.0720   43.0270 C   0  0  0  0  0  0  0  0  0  0  0  0
   39.7160   26.4920   43.9290 C   0  0  0  0  0  0  0  0  0  0  0  0
   40.0040   25.1810   43.6850 C   0  0  0  0  0  0  0  0  0  0  0  0
   39.5260   24.3870   42.6490 C   0  0  0  0  0  0  0  0  0  0  0  0
   38.6770   25.0200   41.8010 N   0  0  0  0  0  0  0  0  0  0  0  0
   38.5440   28.1200   43.1210 H   0  0  0  0  0  0  0  0  0  0  0  0
   40.1270   27.0290   44.7480 H   0  0  0  0  0  0  0  0  0  0  0  0
   40.6870   24.6700   44.3680 H   0  0  0  0  0  0  0  0  0  0  0  0
   39.8070   23.3520   42.5320 H   0  0  0  0  0  0  0  0  0  0  0  0
   36.7920   30.8620   41.1040 C   0  0  0  0  0  0  0  0  0  0  0  0
   36.3250   31.4790   41.9050 H   0  0  0  0  0  0  0  0  0  0  0  0
   37.3550   30.0710   41.7060 H   0  0  0  0  0  0  0  0  0  0  0  0
   37.5550   31.5680   40.2770 N   0  0  0  0  0  0  0  0  0  0  0  0
   37.2120   32.2390   39.0850 C   0  0  0  0  0  0  0  0  0  0  0  0
   37.2480   33.6890   39.6230 C   0  0  0  0  0  0  0  0  0  0  0  0
   38.5650   34.0770   40.0950 C   0  0  0  0  0  0  0  0  0  0  0  0
   39.4920   33.0680   40.5650 C   0  0  0  0  0  0  0  0  0  0  0  0
   38.9740   31.6660   40.6980 C   0  0  0  0  0  0  0  0  0  0  0  0
   36.1550   32.0110   38.8210 H   0  0  0  0  0  0  0  0  0  0  0  0
   37.7960   32.1010   38.1910 H   0  0  0  0  0  0  0  0  0  0  0  0
   36.8640   34.3200   38.7860 H   0  0  0  0  0  0  0  0  0  0  0  0
   36.4880   33.7410   40.4290 H   0  0  0  0  0  0  0  0  0  0  0  0
   38.4450   34.8330   40.9260 H   0  0  0  0  0  0  0  0  0  0  0  0
   39.0770   34.6760   39.2910 H   0  0  0  0  0  0  0  0  0  0  0  0
   40.5050   33.1950   40.8500 H   0  0  0  0  0  0  0  0  0  0  0  0
   39.9780   30.3660   41.3190 S   0  0  0  0  0  0  0  0  0  0  0  0
   40.3050   29.0840   40.1560 C   0  0  0  0  0  3  0  0  0  0  0  0
   39.7000   29.1970   38.9820 C   0  0  0  0  0  3  0  0  0  0  0  0
   39.8250   28.2390   37.8490 C   0  0  0  0  0  2  0  0  0  0  0  0
   40.2690   28.7860   36.9680 H   0  0  0  0  0  0  0  0  0  0  0  0
  1  3  1  0  0  0  0
  1 22  1  0  0  0  0
  2  1  1  0  0  0  0
  4  1  1  0  0  0  0
  4  9  1  0  0  0  0
  5  4  2  0  0  0  0
  6  5  1  0  0  0  0
  6  7  2  0  0  0  0
  7  8  1  0  0  0  0
  8  9  2  0  0  0  0
  8 12  1  0  0  0  0
 10  5  1  0  0  0  0
 11  6  1  0  0  0  0
 12 13  1  0  0  0  0
 13 18  1  0  0  0  0
 13 14  2  0  0  0  0
 14 19  1  0  0  0  0
 15 14  1  0  0  0  0
 15 20  1  0  0  0  0
 16 15  2  0  0  0  0
 17 12  2  0  0  0  0
 17 16  1  0  0  0  0
 21 16  1  0  0  0  0
 22 24  1  0  0  0  0
 22 23  1  0  0  0  0
 25 30  1  0  0  0  0
 25 22  1  0  0  0  0
 26 27  1  0  0  0  0
 26 25  1  0  0  0  0
 27 28  1  0  0  0  0
 27 34  1  0  0  0  0
 28 29  1  0  0  0  0
 28 35  1  0  0  0  0
 29 30  2  0  0  0  0
 29 37  1  0  0  0  0
 30 38  1  0  0  0  0
 31 26  1  0  0  0  0
 32 26  1  0  0  0  0
 33 27  1  0  0  0  0
 36 28  1  0  0  0  0
 39 38  1  0  0  0  0
 40 39  2  0  0  0  0
 41 40  1  0  0  0  0
 42 41  1  0  0  0  0
M  END
>  <minimizedAffinity>
-5.12170601

$$$$
