
     RDKit          3D

 46 48  0  0  0  0  0  0  0  0999 V2000
   43.2017   33.2224   41.1609 C   0  0  0  0  0  0  0  0  0  0  0  0
   44.2286   34.0737   41.7844 C   0  0  0  0  0  0  0  0  0  0  0  0
   43.8804   35.2490   42.4070 C   0  0  0  0  0  0  0  0  0  0  0  0
   44.8839   36.0211   42.9765 C   0  0  0  0  0  0  0  0  0  0  0  0
   46.1746   35.5675   42.8892 N   0  0  0  0  0  0  0  0  0  0  0  0
   46.4706   34.4250   42.2805 C   0  0  0  0  0  0  0  0  0  0  0  0
   45.4890   33.7042   41.7409 N   0  0  0  0  0  0  0  0  0  0  0  0
   47.8721   34.0101   42.2585 C   0  0  0  0  0  0  0  0  0  0  0  0
   48.2106   32.6815   42.0199 C   0  0  0  0  0  0  0  0  0  0  0  0
   49.5361   32.2994   42.0126 C   0  0  0  0  0  0  0  0  0  0  0  0
   50.4237   33.3066   42.2505 C   0  0  0  0  0  0  0  0  0  0  0  0
   50.1407   34.6460   42.4937 C   0  0  0  0  0  0  0  0  0  0  0  0
   48.8186   34.9507   42.4863 N   0  0  0  0  0  0  0  0  0  0  0  0
   41.9042   33.9508   41.2063 C   0  0  0  0  0  0  0  0  0  0  0  0
   41.0011   33.4885   40.3483 N   0  0  0  0  0  0  0  0  0  0  0  0
   40.3239   32.2523   40.3305 C   0  0  0  0  0  0  0  0  0  0  0  0
   38.9401   32.7458   40.8147 C   0  0  0  0  0  0  0  0  0  0  0  0
   38.3359   33.6988   39.9006 C   0  0  0  0  0  0  0  0  0  0  0  0
   39.1738   34.5076   39.0411 C   0  0  0  0  0  0  0  0  0  0  0  0
   40.6566   34.4375   39.2619 C   0  0  0  0  0  0  0  0  0  0  0  0
   41.7759   35.4203   38.3306 S   0  0  0  0  0  0  0  0  0  0  0  0
   43.4908   32.8963   40.1320 H   0  0  0  0  0  0  0  0  0  0  0  0
   43.1336   32.3019   41.8057 H   0  0  0  0  0  0  0  0  0  0  0  0
   42.9453   35.7507   42.5883 H   0  0  0  0  0  0  0  0  0  0  0  0
   44.7951   36.9645   43.4995 H   0  0  0  0  0  0  0  0  0  0  0  0
   47.4079   31.9574   41.8407 H   0  0  0  0  0  0  0  0  0  0  0  0
   49.8379   31.2964   41.8349 H   0  0  0  0  0  0  0  0  0  0  0  0
   51.4892   33.0628   42.2567 H   0  0  0  0  0  0  0  0  0  0  0  0
   50.9101   35.3813   42.6734 H   0  0  0  0  0  0  0  0  0  0  0  0
   41.5466   33.9517   42.2615 H   0  0  0  0  0  0  0  0  0  0  0  0
   42.1894   35.0463   41.0472 H   0  0  0  0  0  0  0  0  0  0  0  0
   40.7353   31.5922   41.1276 H   0  0  0  0  0  0  0  0  0  0  0  0
   40.2764   31.6647   39.4298 H   0  0  0  0  0  0  0  0  0  0  0  0
   38.3358   31.8188   40.9651 H   0  0  0  0  0  0  0  0  0  0  0  0
   39.0990   33.1833   41.8215 H   0  0  0  0  0  0  0  0  0  0  0  0
   37.6832   34.4055   40.4927 H   0  0  0  0  0  0  0  0  0  0  0  0
   37.5888   33.1583   39.2546 H   0  0  0  0  0  0  0  0  0  0  0  0
   38.8724   35.1706   38.2719 H   0  0  0  0  0  0  0  0  0  0  0  0
   41.0079   36.4371   37.1142 C   0  0  0  0  0  0  0  0  0  0  0  0
   41.5992   36.4705   35.9283 C   0  0  0  0  0  0  0  0  0  0  0  0
   41.1337   37.2556   34.7516 C   0  0  0  0  0  0  0  0  0  0  0  0
   40.8952   36.5369   33.9159 H   0  0  0  0  0  0  0  0  0  0  0  0
   40.1251   37.0217   37.2348 H   0  0  0  0  0  0  0  0  0  0  0  0
   42.4995   35.9372   35.6418 H   0  0  0  0  0  0  0  0  0  0  0  0
   41.8773   37.9980   34.4036 H   0  0  0  0  0  0  0  0  0  0  0  0
   40.1397   37.7082   35.0079 H   0  0  0  0  0  0  0  0  0  0  0  0
  1 14  1  0
  1  2  1  0
  2  3  2  0
  3  4  1  0
  5  4  2  0
  6  5  1  0
  7  2  1  0
  7  6  2  0
  8  6  1  0
  8 13  1  0
  9  8  2  0
 10  9  1  0
 10 11  2  0
 11 12  1  0
 13 12  2  0
 15 14  1  0
 16 15  1  0
 16 17  1  0
 18 17  1  0
 19 20  2  0
 19 18  1  0
 20 15  1  0
 21 20  1  0
  1 22  1  0
  1 23  1  0
  3 24  1  0
  4 25  1  0
  9 26  1  0
 10 27  1  0
 11 28  1  0
 12 29  1  0
 14 30  1  0
 14 31  1  0
 16 32  1  0
 16 33  1  0
 17 34  1  0
 17 35  1  0
 18 36  1  0
 18 37  1  0
 19 38  1  0
 39 40  2  3
 40 41  1  0
 41 42  1  0
 39 43  1  0
 40 44  1  0
 41 45  1  0
 41 46  1  0
 21 39  1  0
M  ISO  8  22   8  23   8  24  14  25  14  26  14  27  14  28  14  29  14
M  ISO  8  30   8  31   8  32  13  33  13  34  13  35  13  36  13  37  13
M  ISO  2  38  13  42   8
M  END
>  <DihAtoms>  (1) 
19,20,38,39

>  <DihDeg>  (1) 
133.69265019727058

$$$$
