
 OpenBabel03252507033D

 42 44  0  0  0  0  0  0  0  0999 V2000
   43.0920   33.0190   41.3860 C   0  0  0  0  0  0  0  0  0  0  0  0
   43.3490   32.6150   40.3760 H   0  0  0  0  0  0  0  0  0  0  0  0
   43.0870   32.1560   42.1090 H   0  0  0  0  0  0  0  0  0  0  0  0
   44.1120   33.9560   41.8860 C   0  0  0  0  0  0  0  0  0  0  0  0
   43.7490   35.1870   42.3800 C   0  0  0  0  0  0  0  0  0  0  0  0
   44.7460   36.0390   42.8380 C   0  0  0  0  0  0  0  0  0  0  0  0
   46.0450   35.6050   42.7740 N   0  0  0  0  0  0  0  0  0  0  0  0
   46.3540   34.4060   42.2920 C   0  0  0  0  0  0  0  0  0  0  0  0
   45.3790   33.6090   41.8580 N   0  0  0  0  0  0  0  0  0  0  0  0
   42.8060   35.6870   42.5230 H   0  0  0  0  0  0  0  0  0  0  0  0
   44.6460   37.0340   43.2520 H   0  0  0  0  0  0  0  0  0  0  0  0
   47.7640   34.0190   42.2860 C   0  0  0  0  0  0  0  0  0  0  0  0
   48.1280   32.6810   42.1680 C   0  0  0  0  0  0  0  0  0  0  0  0
   49.4610   32.3270   42.1760 C   0  0  0  0  0  0  0  0  0  0  0  0
   50.3300   33.3710   42.3050 C   0  0  0  0  0  0  0  0  0  0  0  0
   50.0210   34.7210   42.4260 C   0  0  0  0  0  0  0  0  0  0  0  0
   48.6930   34.9970   42.4110 N   0  0  0  0  0  0  0  0  0  0  0  0
   47.3390   31.9270   42.0700 H   0  0  0  0  0  0  0  0  0  0  0  0
   49.7820   31.3180   42.0870 H   0  0  0  0  0  0  0  0  0  0  0  0
   51.4000   33.1500   42.3170 H   0  0  0  0  0  0  0  0  0  0  0  0
   50.7770   35.4850   42.5240 H   0  0  0  0  0  0  0  0  0  0  0  0
   41.7710   33.7040   41.4280 C   0  0  0  0  0  0  0  0  0  0  0  0
   41.3930   33.6570   42.4750 H   0  0  0  0  0  0  0  0  0  0  0  0
   42.0230   34.8120   41.3120 H   0  0  0  0  0  0  0  0  0  0  0  0
   40.9000   33.2430   40.5370 N   0  0  0  0  0  0  0  0  0  0  0  0
   40.1170   32.0700   40.5650 C   0  0  0  0  0  0  0  0  0  0  0  0
   38.7490   32.7210   40.8830 C   0  0  0  0  0  0  0  0  0  0  0  0
   38.3090   33.6340   39.8430 C   0  0  0  0  0  0  0  0  0  0  0  0
   39.2830   34.2870   38.9940 C   0  0  0  0  0  0  0  0  0  0  0  0
   40.7320   34.1140   39.3490 C   0  0  0  0  0  0  0  0  0  0  0  0
   40.4010   31.4540   41.4480 H   0  0  0  0  0  0  0  0  0  0  0  0
   40.0870   31.4090   39.7160 H   0  0  0  0  0  0  0  0  0  0  0  0
   38.0530   31.8660   41.0580 H   0  0  0  0  0  0  0  0  0  0  0  0
   38.8670   33.2340   41.8600 H   0  0  0  0  0  0  0  0  0  0  0  0
   37.6790   34.4440   40.3140 H   0  0  0  0  0  0  0  0  0  0  0  0
   37.5700   33.1000   39.1820 H   0  0  0  0  0  0  0  0  0  0  0  0
   39.1050   34.9000   38.1490 H   0  0  0  0  0  0  0  0  0  0  0  0
   42.0060   34.9090   38.4400 S   0  0  0  0  0  0  0  0  0  0  0  0
   41.5930   36.5260   37.8760 C   0  0  0  0  0  3  0  0  0  0  0  0
   41.0730   36.6020   36.6590 C   0  0  0  0  0  3  0  0  0  0  0  0
   40.6500   37.8550   35.9750 C   0  0  0  0  0  2  0  0  0  0  0  0
   39.5440   37.7900   35.7650 H   0  0  0  0  0  0  0  0  0  0  0  0
  1 22  1  0  0  0  0
  1  4  1  0  0  0  0
  1  3  1  0  0  0  0
  2  1  1  0  0  0  0
  4  5  1  0  0  0  0
  5 10  1  0  0  0  0
  5  6  2  0  0  0  0
  6 11  1  0  0  0  0
  7  6  1  0  0  0  0
  8  7  2  0  0  0  0
  9  4  2  0  0  0  0
  9  8  1  0  0  0  0
 12  8  1  0  0  0  0
 12 17  1  0  0  0  0
 13 14  1  0  0  0  0
 13 12  2  0  0  0  0
 14 15  2  0  0  0  0
 15 20  1  0  0  0  0
 15 16  1  0  0  0  0
 16 21  1  0  0  0  0
 17 16  2  0  0  0  0
 18 13  1  0  0  0  0
 19 14  1  0  0  0  0
 22 23  1  0  0  0  0
 24 22  1  0  0  0  0
 25 26  1  0  0  0  0
 25 22  1  0  0  0  0
 26 27  1  0  0  0  0
 26 31  1  0  0  0  0
 27 33  1  0  0  0  0
 27 34  1  0  0  0  0
 28 35  1  0  0  0  0
 28 27  1  0  0  0  0
 29 30  2  0  0  0  0
 29 28  1  0  0  0  0
 30 25  1  0  0  0  0
 32 26  1  0  0  0  0
 36 28  1  0  0  0  0
 37 29  1  0  0  0  0
 38 30  1  0  0  0  0
 39 38  1  0  0  0  0
 40 39  2  0  0  0  0
 41 40  1  0  0  0  0
 42 41  1  0  0  0  0
M  END
>  <minimizedAffinity>
-5.25823164

>  <minimizedRMSD>
0.46510309

$$$$
