
 OpenBabel03252505493D

 17 17  0  0  0  0  0  0  0  0999 V2000
   44.7520   34.9250   45.7060 C   0  0  0  0  0  0  0  0  0  0  0  0
   45.3890   34.9040   44.4620 C   0  0  0  0  0  0  0  0  0  0  0  0
   46.3200   33.8830   44.2530 C   0  0  0  0  0  0  0  0  0  0  0  0
   46.5590   32.9850   45.2330 N   0  0  0  0  0  0  0  0  0  0  0  0
   45.9210   33.0450   46.4150 C   0  0  0  0  0  0  0  0  0  0  0  0
   45.0160   34.0070   46.6690 N   0  0  0  0  0  0  0  0  0  0  0  0
   44.0070   35.6740   45.9850 H   0  0  0  0  0  0  0  0  0  0  0  0
   46.7850   33.9040   43.2860 H   0  0  0  0  0  0  0  0  0  0  0  0
   45.0100   35.9630   43.4830 C   0  0  0  0  0  0  0  0  0  0  0  0
   44.9220   37.1250   44.1880 F   0  0  0  0  0  0  0  0  0  0  0  0
   43.7690   35.6100   42.9660 F   0  0  0  0  0  0  0  0  0  0  0  0
   45.9590   35.9610   42.4880 F   0  0  0  0  0  0  0  0  0  0  0  0
   46.1650   32.1250   47.4130 O   0  0  0  0  0  0  0  0  0  0  0  0
   45.8570   32.3440   48.7370 C   0  0  0  0  0  3  0  0  0  0  0  0
   45.3170   31.3680   49.4700 C   0  0  0  0  0  3  0  0  0  0  0  0
   45.0910   30.0750   48.7390 C   0  0  0  0  0  2  0  0  0  0  0  0
   44.9100   29.2480   49.4700 H   0  0  0  0  0  0  0  0  0  0  0  0
  1  7  1  0  0  0  0
  1  6  1  0  0  0  0
  2  1  2  0  0  0  0
  3  2  1  0  0  0  0
  3  4  2  0  0  0  0
  4  5  1  0  0  0  0
  5  6  2  0  0  0  0
  5 13  1  0  0  0  0
  8  3  1  0  0  0  0
  9 10  1  0  0  0  0
  9  2  1  0  0  0  0
 11  9  1  0  0  0  0
 12  9  1  0  0  0  0
 13 14  1  0  0  0  0
 14 15  2  0  0  0  0
 16 15  1  0  0  0  0
 16 17  1  0  0  0  0
M  END
>  <minimizedAffinity>
-4.68702173

>  <minimizedRMSD>
1.736781

$$$$
