
 OpenBabel03252505503D

 17 17  0  0  0  0  0  0  0  0999 V2000
   38.8850   31.4410   41.3280 C   0  0  0  0  0  0  0  0  0  0  0  0
   37.8170   31.9680   40.5970 C   0  0  0  0  0  0  0  0  0  0  0  0
   36.5990   31.2900   40.6900 C   0  0  0  0  0  0  0  0  0  0  0  0
   36.5070   30.1840   41.4600 N   0  0  0  0  0  0  0  0  0  0  0  0
   37.5640   29.7130   42.1470 C   0  0  0  0  0  0  0  0  0  0  0  0
   38.7590   30.3280   42.0920 N   0  0  0  0  0  0  0  0  0  0  0  0
   39.8850   31.8840   41.3330 H   0  0  0  0  0  0  0  0  0  0  0  0
   35.8060   31.7270   40.1130 H   0  0  0  0  0  0  0  0  0  0  0  0
   38.0780   33.2000   39.7980 C   0  0  0  0  0  0  0  0  0  0  0  0
   38.4730   34.1560   40.6830 F   0  0  0  0  0  0  0  0  0  0  0  0
   36.8740   33.5570   39.2000 F   0  0  0  0  0  0  0  0  0  0  0  0
   39.0090   32.8790   38.8390 F   0  0  0  0  0  0  0  0  0  0  0  0
   37.4670   28.5850   42.9350 O   0  0  0  0  0  0  0  0  0  0  0  0
   38.5390   27.7760   43.2350 C   0  0  0  0  0  3  0  0  0  0  0  0
   38.4980   26.4740   42.9450 C   0  0  0  0  0  3  0  0  0  0  0  0
   37.2280   26.0080   42.2930 C   0  0  0  0  0  2  0  0  0  0  0  0
   37.3790   24.9990   41.8350 H   0  0  0  0  0  0  0  0  0  0  0  0
  1  7  1  0  0  0  0
  1  6  1  0  0  0  0
  2  3  1  0  0  0  0
  2  1  2  0  0  0  0
  3  4  2  0  0  0  0
  4  5  1  0  0  0  0
  5 13  1  0  0  0  0
  6  5  2  0  0  0  0
  8  3  1  0  0  0  0
  9  2  1  0  0  0  0
  9 10  1  0  0  0  0
 11  9  1  0  0  0  0
 12  9  1  0  0  0  0
 13 14  1  0  0  0  0
 15 14  2  0  0  0  0
 16 15  1  0  0  0  0
 17 16  1  0  0  0  0
M  END
>  <minimizedAffinity>
-4.19890928

$$$$

 OpenBabel03252505503D

 17 17  0  0  0  0  0  0  0  0999 V2000
   38.8860   31.3800   41.4000 C   0  0  0  0  0  0  0  0  0  0  0  0
   37.8380   31.9000   40.6350 C   0  0  0  0  0  0  0  0  0  0  0  0
   36.6260   31.2060   40.6810 C   0  0  0  0  0  0  0  0  0  0  0  0
   36.5200   30.0940   41.4400 N   0  0  0  0  0  0  0  0  0  0  0  0
   37.5570   29.6310   42.1600 C   0  0  0  0  0  0  0  0  0  0  0  0
   38.7450   30.2600   42.1520 N   0  0  0  0  0  0  0  0  0  0  0  0
   39.8790   31.8340   41.4430 H   0  0  0  0  0  0  0  0  0  0  0  0
   35.8490   31.6390   40.0790 H   0  0  0  0  0  0  0  0  0  0  0  0
   38.1120   33.1400   39.8540 C   0  0  0  0  0  0  0  0  0  0  0  0
   39.1720   32.8600   39.0470 F   0  0  0  0  0  0  0  0  0  0  0  0
   38.4460   34.1300   40.7720 F   0  0  0  0  0  0  0  0  0  0  0  0
   36.9540   33.4740   39.1930 F   0  0  0  0  0  0  0  0  0  0  0  0
   37.4450   28.4970   42.9370 O   0  0  0  0  0  0  0  0  0  0  0  0
   37.3930   27.2240   42.4170 C   0  0  0  0  0  2  0  0  0  0  0  0
   38.3270   26.3280   42.7390 C   0  0  0  0  0  2  0  0  0  0  0  0
   39.3880   26.8270   43.6800 C   0  0  0  0  0  2  0  0  0  0  0  0
   39.9520   25.9650   44.1140 H   0  0  0  0  0  0  0  0  0  0  0  0
  1  7  1  0  0  0  0
  1  6  1  0  0  0  0
  2  3  1  0  0  0  0
  2  1  2  0  0  0  0
  3  4  2  0  0  0  0
  4  5  1  0  0  0  0
  5 13  1  0  0  0  0
  6  5  2  0  0  0  0
  8  3  1  0  0  0  0
  9  2  1  0  0  0  0
  9 11  1  0  0  0  0
 10  9  1  0  0  0  0
 12  9  1  0  0  0  0
 14 15  1  0  0  0  0
 14 13  1  0  0  0  0
 15 16  1  0  0  0  0
 16 17  1  0  0  0  0
M  END
>  <minimizedAffinity>
-4.14989328

$$$$

 OpenBabel03252505503D

 17 17  0  0  0  0  0  0  0  0999 V2000
   37.5890   27.9090   40.6030 C   0  0  0  0  0  0  0  0  0  0  0  0
   37.3920   28.0500   41.9790 C   0  0  0  0  0  0  0  0  0  0  0  0
   37.4470   29.3490   42.4900 C   0  0  0  0  0  0  0  0  0  0  0  0
   37.6820   30.3860   41.6570 N   0  0  0  0  0  0  0  0  0  0  0  0
   37.8650   30.2020   40.3370 C   0  0  0  0  0  0  0  0  0  0  0  0
   37.8230   28.9730   39.7940 N   0  0  0  0  0  0  0  0  0  0  0  0
   37.5690   26.9440   40.0890 H   0  0  0  0  0  0  0  0  0  0  0  0
   37.2910   29.4110   43.5500 H   0  0  0  0  0  0  0  0  0  0  0  0
   37.1370   26.8070   42.7630 C   0  0  0  0  0  0  0  0  0  0  0  0
   38.3160   26.4810   43.3600 F   0  0  0  0  0  0  0  0  0  0  0  0
   36.7640   25.8240   41.8520 F   0  0  0  0  0  0  0  0  0  0  0  0
   36.1030   27.0710   43.6290 F   0  0  0  0  0  0  0  0  0  0  0  0
   38.1020   31.2630   39.4880 O   0  0  0  0  0  0  0  0  0  0  0  0
   37.1310   32.1630   39.1120 C   0  0  0  0  0  3  0  0  0  0  0  0
   37.2480   33.4510   39.4390 C   0  0  0  0  0  3  0  0  0  0  0  0
   38.4840   33.7990   40.2200 C   0  0  0  0  0  2  0  0  0  0  0  0
   38.6480   34.9050   40.2080 H   0  0  0  0  0  0  0  0  0  0  0  0
  1  2  1  0  0  0  0
  2  3  2  0  0  0  0
  2  9  1  0  0  0  0
  3  8  1  0  0  0  0
  4  3  1  0  0  0  0
  5  4  2  0  0  0  0
  6  5  1  0  0  0  0
  6  1  2  0  0  0  0
  7  1  1  0  0  0  0
  9 10  1  0  0  0  0
  9 12  1  0  0  0  0
 11  9  1  0  0  0  0
 13  5  1  0  0  0  0
 14 15  2  0  0  0  0
 14 13  1  0  0  0  0
 15 16  1  0  0  0  0
 17 16  1  0  0  0  0
M  END
>  <minimizedAffinity>
-4.10895109

$$$$

 OpenBabel03252505503D

 17 17  0  0  0  0  0  0  0  0999 V2000
   37.8480   26.6380   41.3520 C   0  0  0  0  0  0  0  0  0  0  0  0
   38.4960   26.1930   42.5060 C   0  0  0  0  0  0  0  0  0  0  0  0
   38.6680   27.1290   43.5290 C   0  0  0  0  0  0  0  0  0  0  0  0
   38.2140   28.3910   43.3640 N   0  0  0  0  0  0  0  0  0  0  0  0
   37.5950   28.7740   42.2330 C   0  0  0  0  0  0  0  0  0  0  0  0
   37.4040   27.9130   41.2180 N   0  0  0  0  0  0  0  0  0  0  0  0
   37.6570   25.9980   40.4860 H   0  0  0  0  0  0  0  0  0  0  0  0
   39.1710   26.7460   44.3970 H   0  0  0  0  0  0  0  0  0  0  0  0
   38.9340   24.7680   42.5370 C   0  0  0  0  0  0  0  0  0  0  0  0
   39.6060   24.5460   41.3740 F   0  0  0  0  0  0  0  0  0  0  0  0
   37.7810   23.9920   42.5900 F   0  0  0  0  0  0  0  0  0  0  0  0
   39.6790   24.5910   43.6790 F   0  0  0  0  0  0  0  0  0  0  0  0
   37.1290   30.0620   42.0680 O   0  0  0  0  0  0  0  0  0  0  0  0
   36.3130   30.4450   41.0280 C   0  0  0  0  0  3  0  0  0  0  0  0
   36.6690   31.4550   40.2330 C   0  0  0  0  0  3  0  0  0  0  0  0
   37.9840   32.0980   40.5720 C   0  0  0  0  0  2  0  0  0  0  0  0
   38.3370   32.7250   39.7160 H   0  0  0  0  0  0  0  0  0  0  0  0
  1  2  1  0  0  0  0
  2  9  1  0  0  0  0
  2  3  2  0  0  0  0
  3  8  1  0  0  0  0
  4  3  1  0  0  0  0
  5  4  2  0  0  0  0
  6  1  2  0  0  0  0
  6  5  1  0  0  0  0
  7  1  1  0  0  0  0
  9 11  1  0  0  0  0
  9 12  1  0  0  0  0
 10  9  1  0  0  0  0
 13  5  1  0  0  0  0
 14 13  1  0  0  0  0
 15 16  1  0  0  0  0
 15 14  2  0  0  0  0
 17 16  1  0  0  0  0
M  END
>  <minimizedAffinity>
-4.00852108

$$$$

 OpenBabel03252505503D

 17 17  0  0  0  0  0  0  0  0999 V2000
   37.5050   26.8030   40.6200 C   0  0  0  0  0  0  0  0  0  0  0  0
   37.2470   26.0030   41.7370 C   0  0  0  0  0  0  0  0  0  0  0  0
   36.9000   26.6670   42.9160 C   0  0  0  0  0  0  0  0  0  0  0  0
   36.8300   28.0160   42.9280 N   0  0  0  0  0  0  0  0  0  0  0  0
   37.0870   28.7450   41.8270 C   0  0  0  0  0  0  0  0  0  0  0  0
   37.4250   28.1560   40.6670 N   0  0  0  0  0  0  0  0  0  0  0  0
   37.7850   26.3980   39.6440 H   0  0  0  0  0  0  0  0  0  0  0  0
   36.7120   26.0150   43.7480 H   0  0  0  0  0  0  0  0  0  0  0  0
   37.3610   24.5270   41.5600 C   0  0  0  0  0  0  0  0  0  0  0  0
   36.0890   24.0470   41.4970 F   0  0  0  0  0  0  0  0  0  0  0  0
   38.0130   24.0340   42.6850 F   0  0  0  0  0  0  0  0  0  0  0  0
   38.1200   24.3040   40.4350 F   0  0  0  0  0  0  0  0  0  0  0  0
   37.0110   30.1220   41.8410 O   0  0  0  0  0  0  0  0  0  0  0  0
   36.3370   30.8530   40.8910 C   0  0  0  0  0  2  0  0  0  0  0  0
   36.9420   31.8680   40.2710 C   0  0  0  0  0  2  0  0  0  0  0  0
   38.3620   32.1160   40.6960 C   0  0  0  0  0  2  0  0  0  0  0  0
   38.8760   32.7740   39.9520 H   0  0  0  0  0  0  0  0  0  0  0  0
  1  6  2  0  0  0  0
  1  2  1  0  0  0  0
  2  3  2  0  0  0  0
  3  4  1  0  0  0  0
  3  8  1  0  0  0  0
  5 13  1  0  0  0  0
  5  4  2  0  0  0  0
  6  5  1  0  0  0  0
  7  1  1  0  0  0  0
  9  2  1  0  0  0  0
  9 11  1  0  0  0  0
 10  9  1  0  0  0  0
 12  9  1  0  0  0  0
 14 13  1  0  0  0  0
 15 16  1  0  0  0  0
 15 14  1  0  0  0  0
 17 16  1  0  0  0  0
M  END
>  <minimizedAffinity>
-4.0084219

$$$$

 OpenBabel03252505503D

 17 17  0  0  0  0  0  0  0  0999 V2000
   37.2980   26.7050   42.7450 C   0  0  0  0  0  0  0  0  0  0  0  0
   37.1620   26.0150   41.5380 C   0  0  0  0  0  0  0  0  0  0  0  0
   36.9240   26.7870   40.3980 C   0  0  0  0  0  0  0  0  0  0  0  0
   36.8360   28.1310   40.5070 N   0  0  0  0  0  0  0  0  0  0  0  0
   36.9730   28.7520   41.6920 C   0  0  0  0  0  0  0  0  0  0  0  0
   37.2040   28.0560   42.8200 N   0  0  0  0  0  0  0  0  0  0  0  0
   37.4860   26.2100   43.7010 H   0  0  0  0  0  0  0  0  0  0  0  0
   36.8260   26.2180   39.4930 H   0  0  0  0  0  0  0  0  0  0  0  0
   37.2910   24.5300   41.5820 C   0  0  0  0  0  0  0  0  0  0  0  0
   37.9850   24.2370   42.7160 F   0  0  0  0  0  0  0  0  0  0  0  0
   38.0160   24.1540   40.4560 F   0  0  0  0  0  0  0  0  0  0  0  0
   36.0220   24.0050   41.5280 F   0  0  0  0  0  0  0  0  0  0  0  0
   36.8860   30.1240   41.8010 O   0  0  0  0  0  0  0  0  0  0  0  0
   36.3340   30.9270   40.8290 C   0  0  0  0  0  3  0  0  0  0  0  0
   37.0450   31.9230   40.2970 C   0  0  0  0  0  3  0  0  0  0  0  0
   38.4390   32.0690   40.8400 C   0  0  0  0  0  2  0  0  0  0  0  0
   39.0480   32.7180   40.1640 H   0  0  0  0  0  0  0  0  0  0  0  0
  1  6  1  0  0  0  0
  1  7  1  0  0  0  0
  2  9  1  0  0  0  0
  2  1  2  0  0  0  0
  3  4  2  0  0  0  0
  3  2  1  0  0  0  0
  4  5  1  0  0  0  0
  5 13  1  0  0  0  0
  5  6  2  0  0  0  0
  8  3  1  0  0  0  0
  9 10  1  0  0  0  0
 11  9  1  0  0  0  0
 12  9  1  0  0  0  0
 14 13  1  0  0  0  0
 15 14  2  0  0  0  0
 15 16  1  0  0  0  0
 17 16  1  0  0  0  0
M  END
>  <minimizedAffinity>
-3.99014711

$$$$

 OpenBabel03252505503D

 17 17  0  0  0  0  0  0  0  0999 V2000
   36.3060   27.6710   40.0830 C   0  0  0  0  0  0  0  0  0  0  0  0
   35.6060   28.8500   39.8110 C   0  0  0  0  0  0  0  0  0  0  0  0
   35.8450   29.9310   40.6640 C   0  0  0  0  0  0  0  0  0  0  0  0
   36.7170   29.7960   41.6860 N   0  0  0  0  0  0  0  0  0  0  0  0
   37.3690   28.6400   41.9090 C   0  0  0  0  0  0  0  0  0  0  0  0
   37.1760   27.5690   41.1190 N   0  0  0  0  0  0  0  0  0  0  0  0
   36.2010   26.7610   39.4870 H   0  0  0  0  0  0  0  0  0  0  0  0
   35.2870   30.8150   40.4200 H   0  0  0  0  0  0  0  0  0  0  0  0
   34.6820   28.8410   38.6410 C   0  0  0  0  0  0  0  0  0  0  0  0
   35.1700   29.7540   37.7580 F   0  0  0  0  0  0  0  0  0  0  0  0
   33.4330   29.2350   39.1090 F   0  0  0  0  0  0  0  0  0  0  0  0
   34.6280   27.5510   38.1690 F   0  0  0  0  0  0  0  0  0  0  0  0
   38.2620   28.5060   42.9510 O   0  0  0  0  0  0  0  0  0  0  0  0
   38.5580   27.3000   43.5440 C   0  0  0  0  0  2  0  0  0  0  0  0
   39.8280   26.9130   43.6800 C   0  0  0  0  0  2  0  0  0  0  0  0
   40.8470   27.8800   43.1450 C   0  0  0  0  0  2  0  0  0  0  0  0
   41.8620   27.6260   43.5410 H   0  0  0  0  0  0  0  0  0  0  0  0
  1  6  1  0  0  0  0
  2  1  2  0  0  0  0
  2  3  1  0  0  0  0
  3  4  2  0  0  0  0
  4  5  1  0  0  0  0
  5 13  1  0  0  0  0
  6  5  2  0  0  0  0
  7  1  1  0  0  0  0
  8  3  1  0  0  0  0
  9 11  1  0  0  0  0
  9  2  1  0  0  0  0
 10  9  1  0  0  0  0
 12  9  1  0  0  0  0
 13 14  1  0  0  0  0
 14 15  1  0  0  0  0
 16 17  1  0  0  0  0
 16 15  1  0  0  0  0
M  END
>  <minimizedAffinity>
-3.82240367

$$$$

 OpenBabel03252505503D

 17 17  0  0  0  0  0  0  0  0999 V2000
   37.9860   29.6360   41.6460 C   0  0  0  0  0  0  0  0  0  0  0  0
   36.7720   29.7390   40.9610 C   0  0  0  0  0  0  0  0  0  0  0  0
   36.5420   30.9330   40.2720 C   0  0  0  0  0  0  0  0  0  0  0  0
   37.4750   31.9090   40.2950 N   0  0  0  0  0  0  0  0  0  0  0  0
   38.6310   31.7640   40.9680 C   0  0  0  0  0  0  0  0  0  0  0  0
   38.9020   30.6360   41.6490 N   0  0  0  0  0  0  0  0  0  0  0  0
   38.2770   28.7520   42.2200 H   0  0  0  0  0  0  0  0  0  0  0  0
   35.5990   30.9710   39.7610 H   0  0  0  0  0  0  0  0  0  0  0  0
   35.8480   28.5710   41.0280 C   0  0  0  0  0  0  0  0  0  0  0  0
   35.9430   28.0770   42.2930 F   0  0  0  0  0  0  0  0  0  0  0  0
   36.3090   27.6390   40.1050 F   0  0  0  0  0  0  0  0  0  0  0  0
   34.5970   29.0150   40.6720 F   0  0  0  0  0  0  0  0  0  0  0  0
   39.5830   32.7600   40.9880 O   0  0  0  0  0  0  0  0  0  0  0  0
   39.7190   33.6990   39.9900 C   0  0  0  0  0  2  0  0  0  0  0  0
   40.9270   34.1610   39.6620 C   0  0  0  0  0  2  0  0  0  0  0  0
   42.0640   33.5810   40.4540 C   0  0  0  0  0  2  0  0  0  0  0  0
   43.0360   33.7960   39.9430 H   0  0  0  0  0  0  0  0  0  0  0  0
  1  6  1  0  0  0  0
  1  7  1  0  0  0  0
  2  9  1  0  0  0  0
  2  1  2  0  0  0  0
  3  4  2  0  0  0  0
  3  2  1  0  0  0  0
  4  5  1  0  0  0  0
  5 13  1  0  0  0  0
  5  6  2  0  0  0  0
  8  3  1  0  0  0  0
  9 10  1  0  0  0  0
 11  9  1  0  0  0  0
 12  9  1  0  0  0  0
 14 13  1  0  0  0  0
 15 14  1  0  0  0  0
 15 16  1  0  0  0  0
 17 16  1  0  0  0  0
M  END
>  <minimizedAffinity>
-3.7526474

$$$$

 OpenBabel03252505503D

 17 17  0  0  0  0  0  0  0  0999 V2000
   36.6530   27.1940   40.3330 C   0  0  0  0  0  0  0  0  0  0  0  0
   36.7430   27.8180   41.5810 C   0  0  0  0  0  0  0  0  0  0  0  0
   36.6170   29.2100   41.5950 C   0  0  0  0  0  0  0  0  0  0  0  0
   36.4190   29.8750   40.4360 N   0  0  0  0  0  0  0  0  0  0  0  0
   36.3380   29.2310   39.2580 C   0  0  0  0  0  0  0  0  0  0  0  0
   36.4530   27.8930   39.1880 N   0  0  0  0  0  0  0  0  0  0  0  0
   36.7370   26.1130   40.1970 H   0  0  0  0  0  0  0  0  0  0  0  0
   36.6930   29.6480   42.5720 H   0  0  0  0  0  0  0  0  0  0  0  0
   36.9580   26.9430   42.7680 C   0  0  0  0  0  0  0  0  0  0  0  0
   35.9620   27.2370   43.6480 F   0  0  0  0  0  0  0  0  0  0  0  0
   38.1970   27.2830   43.3020 F   0  0  0  0  0  0  0  0  0  0  0  0
   36.9720   25.6420   42.3230 F   0  0  0  0  0  0  0  0  0  0  0  0
   36.1320   29.9130   38.0770 O   0  0  0  0  0  0  0  0  0  0  0  0
   37.0340   29.9150   37.0370 C   0  0  0  0  0  3  0  0  0  0  0  0
   36.6500   29.5360   35.8160 C   0  0  0  0  0  3  0  0  0  0  0  0
   35.2090   29.1280   35.7010 C   0  0  0  0  0  2  0  0  0  0  0  0
   34.9020   29.1010   34.6260 H   0  0  0  0  0  0  0  0  0  0  0  0
  1  2  1  0  0  0  0
  2  3  2  0  0  0  0
  2  9  1  0  0  0  0
  3  8  1  0  0  0  0
  4  3  1  0  0  0  0
  5  4  2  0  0  0  0
  6  5  1  0  0  0  0
  6  1  2  0  0  0  0
  7  1  1  0  0  0  0
  9 11  1  0  0  0  0
  9 10  1  0  0  0  0
 12  9  1  0  0  0  0
 13  5  1  0  0  0  0
 14 13  1  0  0  0  0
 15 14  2  0  0  0  0
 16 15  1  0  0  0  0
 17 16  1  0  0  0  0
M  END
>  <minimizedAffinity>
-3.73216414

$$$$
