
 OpenBabel03252505493D

 17 17  0  0  0  0  0  0  0  0999 V2000
   45.2270   34.7150   44.8830 C   0  0  0  0  0  0  0  0  0  0  0  0
   46.1040   34.5620   43.8070 C   0  0  0  0  0  0  0  0  0  0  0  0
   47.0480   33.5360   43.9100 C   0  0  0  0  0  0  0  0  0  0  0  0
   47.0730   32.7590   45.0140 N   0  0  0  0  0  0  0  0  0  0  0  0
   46.2060   32.9440   46.0260 C   0  0  0  0  0  0  0  0  0  0  0  0
   45.2780   33.9160   45.9780 N   0  0  0  0  0  0  0  0  0  0  0  0
   44.4480   35.4820   44.9170 H   0  0  0  0  0  0  0  0  0  0  0  0
   47.7020   33.4540   43.0630 H   0  0  0  0  0  0  0  0  0  0  0  0
   45.9450   35.4980   42.6570 C   0  0  0  0  0  0  0  0  0  0  0  0
   45.3580   36.6210   43.1530 F   0  0  0  0  0  0  0  0  0  0  0  0
   45.1070   34.8730   41.7400 F   0  0  0  0  0  0  0  0  0  0  0  0
   47.1910   35.6910   42.1080 F   0  0  0  0  0  0  0  0  0  0  0  0
   46.2310   32.1470   47.1510 O   0  0  0  0  0  0  0  0  0  0  0  0
   45.6730   30.8900   47.2010 C   0  0  0  0  0  3  0  0  0  0  0  0
   45.1650   30.4270   48.3450 C   0  0  0  0  0  3  0  0  0  0  0  0
   45.2610   31.3700   49.5110 C   0  0  0  0  0  2  0  0  0  0  0  0
   44.5790   31.0370   50.3320 H   0  0  0  0  0  0  0  0  0  0  0  0
  1  7  1  0  0  0  0
  1  6  1  0  0  0  0
  2  3  1  0  0  0  0
  2  1  2  0  0  0  0
  3  4  2  0  0  0  0
  4  5  1  0  0  0  0
  5 13  1  0  0  0  0
  6  5  2  0  0  0  0
  8  3  1  0  0  0  0
  9 10  1  0  0  0  0
  9  2  1  0  0  0  0
 11  9  1  0  0  0  0
 12  9  1  0  0  0  0
 13 14  1  0  0  0  0
 14 15  2  0  0  0  0
 15 16  1  0  0  0  0
 16 17  1  0  0  0  0
M  END
>  <minimizedAffinity>
-4.54786015

>  <minimizedRMSD>
1.08564866

$$$$
