
     RDKit          3D

 24 24  0  0  0  0  0  0  0  0999 V2000
   45.6488   34.7546   44.3688 C   0  0  0  0  0  0  0  0  0  0  0  0
   45.2697   34.3901   45.6368 C   0  0  0  0  0  0  0  0  0  0  0  0
   45.9438   33.2895   46.1665 C   0  0  0  0  0  0  0  0  0  0  0  0
   46.8837   32.6929   45.4115 N   0  0  0  0  0  0  0  0  0  0  0  0
   47.2192   33.0855   44.1781 C   0  0  0  0  0  0  0  0  0  0  0  0
   46.5879   34.1542   43.6217 N   0  0  0  0  0  0  0  0  0  0  0  0
   44.1607   35.3531   42.6460 C   0  0  0  0  0  0  0  0  0  0  0  0
   44.1045   34.0834   42.6604 O   0  0  0  0  0  0  0  0  0  0  0  0
   45.0757   35.8705   43.6193 N   0  0  0  0  0  0  0  0  0  0  0  0
   43.4426   36.2034   41.8068 O   0  0  0  0  0  0  0  0  0  0  0  0
   44.2613   35.1370   46.2760 N   0  0  0  0  0  0  0  0  0  0  0  0
   45.6552   32.9906   47.1657 H   0  0  0  0  0  0  0  0  0  0  0  0
   47.9916   32.5271   43.6664 H   0  0  0  0  0  0  0  0  0  0  0  0
   45.2357   36.8867   43.6994 H   0  0  0  0  0  0  0  0  0  0  0  0
   43.5790   34.6698   46.9239 H   0  0  0  0  0  0  0  0  0  0  0  0
   44.2027   36.1646   46.0952 H   0  0  0  0  0  0  0  0  0  0  0  0
   42.5588   35.6517   40.8696 C   0  0  0  0  0  0  0  0  0  0  0  0
   41.3799   35.1225   41.0327 C   0  0  0  0  0  0  0  0  0  0  0  0
   40.5222   34.5631   39.9599 C   0  0  0  0  0  0  0  0  0  0  0  0
   41.1709   34.4090   39.0526 H   0  0  0  0  0  0  0  0  0  0  0  0
   42.9119   35.6661   39.8365 H   0  0  0  0  0  0  0  0  0  0  0  0
   40.9683   35.0757   42.0319 H   0  0  0  0  0  0  0  0  0  0  0  0
   40.1811   33.5406   40.2360 H   0  0  0  0  0  0  0  0  0  0  0  0
   39.6799   35.2064   39.6711 H   0  0  0  0  0  0  0  0  0  0  0  0
  1  2  2  0
  2  3  1  0
  2 11  1  0
  4  3  2  0
  5  4  1  0
  6  5  2  0
  6  1  1  0
  7  8  2  0
  7  9  1  0
  9  1  1  0
 10  7  1  0
  3 12  1  0
  5 13  1  0
  9 14  1  0
 11 15  1  0
 11 16  1  0
 17 18  2  3
 18 19  1  0
 19 20  1  0
 17 21  1  0
 18 22  1  0
 19 23  1  0
 19 24  1  0
 10 17  1  0
M  ISO  3  12  14  13  14  20   8
M  END
>  <DihAtoms>  (1) 
6,9,16,17

>  <DihDeg>  (1) 
-59.99905285070935

$$$$
