REMARK  Name = 
REMARK  7 active torsions:
REMARK  status: ('A' for Active; 'I' for Inactive)
REMARK    1  A    between atoms: C_2  and  O_17
REMARK    2  A    between atoms: C_3  and  C_7
REMARK    3  A    between atoms: O_17  and  P_19
REMARK    4  A    between atoms: P_19  and  O_20
REMARK    5  A    between atoms: P_19  and  O_21
REMARK    6  A    between atoms: O_21  and  C_32
REMARK    7  A    between atoms: C_33  and  C_34
REMARK                            x       y       z     vdW  Elec       q    Type
REMARK                         _______ _______ _______ _____ _____    ______ ____
ROOT
ATOM      1  C   UNL     1      46.232  35.228  42.744  0.00  0.00    +0.000 A 
ATOM      2  C   UNL     1      46.825  34.044  43.180  0.00  0.00    +0.000 A 
ATOM      3  C   UNL     1      46.413  33.472  44.370  0.00  0.00    +0.000 A 
ATOM      4  N   UNL     1      45.417  34.107  45.069  0.00  0.00    +0.000 NA
ATOM      5  C   UNL     1      44.860  35.242  44.632  0.00  0.00    +0.000 A 
ATOM      6  N   UNL     1      45.276  35.790  43.474  0.00  0.00    +0.000 NA
ATOM      7  H   UNL     1      46.535  35.704  41.818  0.00  0.00    +0.000 HD
ATOM      8  H   UNL     1      44.071  35.675  45.261  0.00  0.00    +0.000 HD
ENDROOT
BRANCH   3   9
ATOM      9  C   UNL     1      46.945  32.271  44.922  0.00  0.00    +0.000 A 
ATOM     10  C   UNL     1      47.674  31.318  44.236  0.00  0.00    +0.000 A 
ATOM     11  C   UNL     1      48.100  30.134  44.769  0.00  0.00    +0.000 A 
ATOM     12  C   UNL     1      47.796  29.831  46.092  0.00  0.00    +0.000 A 
ATOM     13  C   UNL     1      47.048  30.798  46.816  0.00  0.00    +0.000 A 
ATOM     14  C   UNL     1      46.762  30.510  48.119  0.00  0.00    +0.000 A 
ATOM     15  C   UNL     1      46.059  31.414  48.895  0.00  0.00    +0.000 A 
ATOM     16  C   UNL     1      45.649  32.623  48.332  0.00  0.00    +0.000 A 
ATOM     17  C   UNL     1      45.959  32.888  46.985  0.00  0.00    +0.000 A 
ATOM     18  C   UNL     1      46.657  31.961  46.233  0.00  0.00    +0.000 A 
ATOM     19  H   UNL     1      47.941  31.459  43.235  0.00  0.00    +0.000 HD
ATOM     20  H   UNL     1      48.674  29.397  44.220  0.00  0.00    +0.000 HD
ATOM     21  H   UNL     1      48.111  28.907  46.544  0.00  0.00    +0.000 HD
ATOM     22  H   UNL     1      47.099  29.552  48.533  0.00  0.00    +0.000 HD
ATOM     23  H   UNL     1      45.882  31.079  49.923  0.00  0.00    +0.000 HD
ATOM     24  H   UNL     1      45.127  33.194  49.072  0.00  0.00    +0.000 HD
ATOM     25  H   UNL     1      45.578  33.846  46.850  0.00  0.00    +0.000 HD
ENDBRANCH   3   9
BRANCH   2  26
ATOM     26  O   UNL     1      47.790  33.505  42.376  0.00  0.00    +0.000 OA
BRANCH  26  28
ATOM     27  O   UNL     1      50.297  33.277  41.605  0.00  0.00    +0.000 OA
ATOM     28  P   UNL     1      49.269  34.271  42.034  0.00  0.00    +0.000 P 
BRANCH  28  29
ATOM     29  O   UNL     1      49.088  35.385  40.768  0.00  0.00    +0.000 OA
ATOM     30  H   UNL     1      48.472  35.060  40.066  0.00  0.00    +0.000 HD
ENDBRANCH  28  29
BRANCH  28  31
ATOM     31  O   UNL     1      49.776  35.098  43.402  0.00  0.00    +0.000 OA
BRANCH  31  32
ATOM     32  C   UNL     1      50.493  34.384  44.355  0.00  0.00    +0.000 C 
ATOM     33  C   UNL     1      51.514  33.626  43.994  0.00  0.00    +0.000 C 
BRANCH  33  34
ATOM     34  C   UNL     1      51.892  33.541  42.559  0.00  0.00    +0.000 C 
ATOM     35  H   UNL     1      51.789  32.502  42.170  0.00  0.00    +0.000 HD
ENDBRANCH  33  34
ENDBRANCH  31  32
ENDBRANCH  28  31
ENDBRANCH  26  28
ENDBRANCH   2  26
TORSDOF 7
