REMARK  Name = 
REMARK  5 active torsions:
REMARK  status: ('A' for Active; 'I' for Inactive)
REMARK    1  A    between atoms: C_1  and  N_9
REMARK    2  A    between atoms: C_2  and  N_11
REMARK    3  A    between atoms: C_7  and  O_10
REMARK    4  A    between atoms: O_10  and  C_17
REMARK    5  A    between atoms: C_18  and  C_19
REMARK                            x       y       z     vdW  Elec       q    Type
REMARK                         _______ _______ _______ _____ _____    ______ ____
ROOT
ATOM      1  C   UNL     1      45.649  34.755  44.369  0.00  0.00    +0.000 A 
ATOM      2  C   UNL     1      45.270  34.390  45.637  0.00  0.00    +0.000 A 
ATOM      3  C   UNL     1      45.944  33.289  46.166  0.00  0.00    +0.000 A 
ATOM      4  N   UNL     1      46.884  32.693  45.411  0.00  0.00    +0.000 NA
ATOM      5  C   UNL     1      47.219  33.086  44.178  0.00  0.00    +0.000 A 
ATOM      6  N   UNL     1      46.588  34.154  43.622  0.00  0.00    +0.000 NA
ATOM      7  H   UNL     1      45.655  32.991  47.166  0.00  0.00    +0.000 HD
ATOM      8  H   UNL     1      47.992  32.527  43.666  0.00  0.00    +0.000 HD
ENDROOT
BRANCH   1  11
ATOM      9  C   UNL     1      44.161  35.353  42.646  0.00  0.00    +0.000 C 
ATOM     10  O   UNL     1      44.105  34.083  42.660  0.00  0.00    +0.000 OA
ATOM     11  N   UNL     1      45.076  35.870  43.619  0.00  0.00    +0.000 N 
ATOM     12  H   UNL     1      45.236  36.887  43.699  0.00  0.00    +0.000 HD
BRANCH   9  13
ATOM     13  O   UNL     1      43.443  36.203  41.807  0.00  0.00    +0.000 OA
BRANCH  13  14
ATOM     14  C   UNL     1      42.559  35.652  40.870  0.00  0.00    +0.000 C 
ATOM     15  C   UNL     1      41.510  34.899  41.042  0.00  0.00    +0.000 C 
BRANCH  15  16
ATOM     16  C   UNL     1      40.637  34.365  39.968  0.00  0.00    +0.000 C 
ATOM     17  H   UNL     1      41.193  34.473  38.994  0.00  0.00    +0.000 HD
ENDBRANCH  15  16
ENDBRANCH  13  14
ENDBRANCH   9  13
ENDBRANCH   1  11
BRANCH   2  18
ATOM     18  N   UNL     1      44.261  35.137  46.276  0.00  0.00    +0.000 N 
ATOM     19  H   UNL     1      43.579  34.670  46.924  0.00  0.00    +0.000 HD
ATOM     20  H   UNL     1      44.203  36.165  46.095  0.00  0.00    +0.000 HD
ENDBRANCH   2  18
TORSDOF 5
