
 OpenBabel03252505103D

 39 41  0  0  1  0  0  0  0  0999 V2000
   44.5610   35.5770   44.5990 C   0  0  0  0  0  0  0  0  0  0  0  0
   45.2350   35.6040   43.3600 C   0  0  0  0  0  0  0  0  0  0  0  0
   46.3400   34.7090   43.1840 C   0  0  0  0  0  0  0  0  0  0  0  0
   46.6810   33.8890   44.2070 N   0  0  0  0  0  0  0  0  0  0  0  0
   46.0160   33.8930   45.3690 C   0  0  0  0  0  0  0  0  0  0  0  0
   44.9490   34.7390   45.5750 N   0  0  0  0  0  0  0  0  0  0  0  0
   43.7270   36.2310   44.7770 H   0  0  0  0  0  0  0  0  0  0  0  0
   44.9220   36.2800   42.5730 H   0  0  0  0  0  0  0  0  0  0  0  0
   46.4340   32.9770   46.4660 C   0  0  2  0  0  0  0  0  0  0  0  0
   46.9500   31.7400   45.7600 C   0  0  0  0  0  0  0  0  0  0  0  0
   46.0730   30.5650   45.7760 C   0  0  0  0  0  0  0  0  0  0  0  0
   45.7950   30.3060   47.2590 C   0  0  0  0  0  0  0  0  0  0  0  0
   44.9890   31.3740   47.8760 C   0  0  0  0  0  0  0  0  0  0  0  0
   45.3830   32.7360   47.4100 C   0  0  0  0  0  0  0  0  0  0  0  0
   47.2980   33.4760   46.9520 H   0  0  0  0  0  0  0  0  0  0  0  0
   47.2410   31.9340   44.7050 H   0  0  0  0  0  0  0  0  0  0  0  0
   47.9170   31.4370   46.2440 H   0  0  0  0  0  0  0  0  0  0  0  0
   46.6370   29.6960   45.4320 H   0  0  0  0  0  0  0  0  0  0  0  0
   45.1460   30.7150   45.2110 H   0  0  0  0  0  0  0  0  0  0  0  0
   45.2020   29.3990   47.3410 H   0  0  0  0  0  0  0  0  0  0  0  0
   46.7760   30.2630   47.7590 H   0  0  0  0  0  0  0  0  0  0  0  0
   44.1940   31.3540   48.5770 H   0  0  0  0  0  0  0  0  0  0  0  0
   44.6850   33.8760   47.9210 N   0  0  0  0  0  0  0  0  0  0  0  0
   43.6510   33.8380   47.7150 H   0  0  0  0  0  0  0  0  0  0  0  0
   45.2990   34.5600   48.4120 H   0  0  0  0  0  0  0  0  0  0  0  0
   47.0480   34.7100   41.9180 C   0  0  0  0  0  0  0  0  0  0  0  0
   48.1780   35.4350   41.8020 C   0  0  0  0  0  0  0  0  0  0  0  0
   48.8230   35.4030   40.5550 C   0  0  0  0  0  0  0  0  0  0  0  0
   48.2400   34.6380   39.5830 C   0  0  0  0  0  0  0  0  0  0  0  0
   47.1040   33.9090   39.6970 C   0  0  0  0  0  0  0  0  0  0  0  0
   46.5110   33.9660   40.9160 N   0  0  0  0  0  0  0  0  0  0  0  0
   48.5680   36.0170   42.6370 H   0  0  0  0  0  0  0  0  0  0  0  0
   49.7290   35.9700   40.4290 H   0  0  0  0  0  0  0  0  0  0  0  0
   48.7780   34.6460   38.6350 H   0  0  0  0  0  0  0  0  0  0  0  0
   46.5720   33.1540   38.6550 O   0  0  0  0  0  0  0  0  0  0  0  0
   46.8830   33.3480   37.3420 C   0  0  0  0  0  3  0  0  0  0  0  0
   47.6880   32.5720   36.6530 C   0  0  0  0  0  3  0  0  0  0  0  0
   48.2150   32.5000   35.2770 C   0  0  0  0  0  2  0  0  0  0  0  0
   48.0140   31.5070   34.7980 H   0  0  0  0  0  0  0  0  0  0  0  0
  1  7  1  0  0  0  0
  1  6  1  0  0  0  0
  2  1  2  0  0  0  0
  3  2  1  0  0  0  0
  3  4  2  0  0  0  0
  4  5  1  0  0  0  0
  5  6  2  0  0  0  0
  5  9  1  0  0  0  0
  8  2  1  0  0  0  0
  9 15  1  1  0  0  0
  9 14  1  0  0  0  0
 10 11  1  0  0  0  0
 10 17  1  0  0  0  0
 10  9  1  0  0  0  0
 11 12  1  0  0  0  0
 12 20  1  0  0  0  0
 12 21  1  0  0  0  0
 12 13  1  0  0  0  0
 13 22  1  0  0  0  0
 14 13  2  0  0  0  0
 14 23  1  0  0  0  0
 16 10  1  0  0  0  0
 18 11  1  0  0  0  0
 19 11  1  0  0  0  0
 23 25  1  0  0  0  0
 24 23  1  0  0  0  0
 26  3  1  0  0  0  0
 27 26  1  0  0  0  0
 27 32  1  0  0  0  0
 28 27  2  0  0  0  0
 29 30  2  0  0  0  0
 29 28  1  0  0  0  0
 30 31  1  0  0  0  0
 31 26  2  0  0  0  0
 33 28  1  0  0  0  0
 34 29  1  0  0  0  0
 35 30  1  0  0  0  0
 36 35  1  0  0  0  0
 37 36  2  0  0  0  0
 38 37  1  0  0  0  0
 39 38  1  0  0  0  0
M  END
>  <minimizedAffinity>
-6.88699102

>  <minimizedRMSD>
0.35794872

$$$$
