
 OpenBabel03242510303D

 30 31  0  0  1  0  0  0  0  0999 V2000
   47.0140   34.0790   40.2370 C   0  0  1  0  0  0  0  0  0  0  0  0
   46.7850   32.8690   39.4040 C   0  0  0  0  0  0  0  0  0  0  0  0
   45.5750   33.1540   38.5420 C   0  0  0  0  0  0  0  0  0  0  0  0
   44.3830   33.2340   39.4210 C   0  0  0  0  0  0  0  0  0  0  0  0
   44.5150   34.1230   40.5930 C   0  0  0  0  0  0  0  0  0  0  0  0
   45.8460   34.2440   41.2140 C   0  0  1  0  0  0  0  0  0  0  0  0
   46.9470   34.9870   39.5670 H   0  0  0  0  0  0  0  0  0  0  0  0
   46.5920   31.9810   40.0430 H   0  0  0  0  0  0  0  0  0  0  0  0
   47.6750   32.6850   38.7580 H   0  0  0  0  0  0  0  0  0  0  0  0
   45.4490   32.2840   37.8480 H   0  0  0  0  0  0  0  0  0  0  0  0
   45.7510   34.0690   37.9510 H   0  0  0  0  0  0  0  0  0  0  0  0
   43.5180   33.5840   38.8110 H   0  0  0  0  0  0  0  0  0  0  0  0
   44.0970   32.2000   39.7450 H   0  0  0  0  0  0  0  0  0  0  0  0
   43.7850   33.7450   41.3680 H   0  0  0  0  0  0  0  0  0  0  0  0
   44.1350   35.1430   40.3290 H   0  0  0  0  0  0  0  0  0  0  0  0
   45.9840   35.2900   41.6100 H   0  0  0  0  0  0  0  0  0  0  0  0
   50.2860   32.9210   41.8110 C   0  0  0  0  0  0  0  0  0  0  0  0
   49.1160   32.9410   41.0640 C   0  0  0  0  0  0  0  0  0  0  0  0
   48.2580   34.0460   41.0060 C   0  0  0  0  0  0  0  0  0  0  0  0
   48.6580   35.1020   41.7390 N   0  0  0  0  0  0  0  0  0  0  0  0
   49.7770   35.1120   42.4680 C   0  0  0  0  0  0  0  0  0  0  0  0
   50.5930   34.0230   42.5060 N   0  0  0  0  0  0  0  0  0  0  0  0
   50.8920   32.0450   41.8080 H   0  0  0  0  0  0  0  0  0  0  0  0
   48.8720   32.0500   40.5060 H   0  0  0  0  0  0  0  0  0  0  0  0
   49.9720   36.0260   43.0060 H   0  0  0  0  0  0  0  0  0  0  0  0
   46.0380   33.3800   42.2690 O   0  0  0  0  0  0  0  0  0  0  0  0
   45.4210   33.5980   43.4950 C   0  0  0  0  0  0  0  0  0  0  0  0
   46.1590   33.6630   44.5830 C   0  0  0  0  0  0  0  0  0  0  0  0
   45.5030   33.8970   45.8990 C   0  0  0  0  0  0  0  0  0  0  0  0
   46.2540   34.1480   46.6770 H   0  0  0  0  0  0  0  0  0  0  0  0
  1  7  1  6  0  0  0
  1 19  1  0  0  0  0
  1  6  1  0  0  0  0
  2  8  1  0  0  0  0
  2  1  1  0  0  0  0
  3  2  1  0  0  0  0
  3  4  1  0  0  0  0
  4 13  1  0  0  0  0
  4  5  1  0  0  0  0
  5  6  1  0  0  0  0
  5 14  1  0  0  0  0
  6 16  1  1  0  0  0
  6 26  1  0  0  0  0
  9  2  1  0  0  0  0
 10  3  1  0  0  0  0
 11  3  1  0  0  0  0
 12  4  1  0  0  0  0
 15  5  1  0  0  0  0
 17 22  1  0  0  0  0
 18 17  2  0  0  0  0
 19 18  1  0  0  0  0
 19 20  2  0  0  0  0
 20 21  1  0  0  0  0
 21 22  2  0  0  0  0
 21 25  1  0  0  0  0
 23 17  1  0  0  0  0
 24 18  1  0  0  0  0
 26 27  1  0  0  0  0
 27 28  2  0  0  0  0
 28 29  1  0  0  0  0
 29 30  1  0  0  0  0
M  END
>  <minimizedAffinity>
-3.97087598

>  <minimizedRMSD>
4.69005489

$$$$
