
 OpenBabel03242513543D

 14 14  0  0  0  0  0  0  0  0999 V2000
   45.0370   34.7800   44.2690 C   0  0  0  0  0  0  0  0  0  0  0  0
   45.5590   35.6030   43.2680 C   0  0  0  0  0  0  0  0  0  0  0  0
   46.4770   35.0330   42.3950 C   0  0  0  0  0  0  0  0  0  0  0  0
   46.8280   33.7300   42.5380 N   0  0  0  0  0  0  0  0  0  0  0  0
   46.2900   32.9630   43.5350 C   0  0  0  0  0  0  0  0  0  0  0  0
   45.4010   33.5010   44.3880 N   0  0  0  0  0  0  0  0  0  0  0  0
   44.3240   35.2150   44.9510 H   0  0  0  0  0  0  0  0  0  0  0  0
   46.9080   35.6340   41.6040 H   0  0  0  0  0  0  0  0  0  0  0  0
   46.5550   31.9220   43.6690 H   0  0  0  0  0  0  0  0  0  0  0  0
   45.2300   36.9260   43.0900 O   0  0  0  0  0  0  0  0  0  0  0  0
   45.1070   37.8550   44.0820 C   0  0  0  0  0  0  0  0  0  0  0  0
   45.4330   39.1110   43.8280 C   0  0  0  0  0  0  0  0  0  0  0  0
   45.3050   40.1450   44.9040 C   0  0  0  0  0  0  0  0  0  0  0  0
   44.2480   40.3550   45.1520 H   0  0  0  0  0  0  0  0  0  0  0  0
  1  6  1  0  0  0  0
  1  7  1  0  0  0  0
  2  1  2  0  0  0  0
  3  4  2  0  0  0  0
  3  2  1  0  0  0  0
  4  5  1  0  0  0  0
  5  9  1  0  0  0  0
  5  6  2  0  0  0  0
  8  3  1  0  0  0  0
 10  2  1  0  0  0  0
 10 11  1  0  0  0  0
 12 11  2  0  0  0  0
 12 13  1  0  0  0  0
 13 14  1  0  0  0  0
M  END
>  <minimizedAffinity>
-2.61623335

>  <minimizedRMSD>
1.58660913

$$$$
