
 OpenBabel03252505103D

 39 41  0  0  1  0  0  0  0  0999 V2000
   44.5600   35.5610   44.6130 C   0  0  0  0  0  0  0  0  0  0  0  0
   45.2440   35.6010   43.3810 C   0  0  0  0  0  0  0  0  0  0  0  0
   46.3580   34.7150   43.2080 C   0  0  0  0  0  0  0  0  0  0  0  0
   46.6960   33.8910   44.2290 N   0  0  0  0  0  0  0  0  0  0  0  0
   46.0210   33.8820   45.3850 C   0  0  0  0  0  0  0  0  0  0  0  0
   44.9460   34.7190   45.5870 N   0  0  0  0  0  0  0  0  0  0  0  0
   43.7190   36.2070   44.7880 H   0  0  0  0  0  0  0  0  0  0  0  0
   44.9340   36.2800   42.5950 H   0  0  0  0  0  0  0  0  0  0  0  0
   46.4350   32.9620   46.4800 C   0  0  2  0  0  0  0  0  0  0  0  0
   46.9460   31.7240   45.7700 C   0  0  0  0  0  0  0  0  0  0  0  0
   46.0640   30.5520   45.7840 C   0  0  0  0  0  0  0  0  0  0  0  0
   45.7860   30.2910   47.2660 C   0  0  0  0  0  0  0  0  0  0  0  0
   44.9850   31.3610   47.8860 C   0  0  0  0  0  0  0  0  0  0  0  0
   45.3840   32.7220   47.4230 C   0  0  0  0  0  0  0  0  0  0  0  0
   47.3020   33.4560   46.9660 H   0  0  0  0  0  0  0  0  0  0  0  0
   47.2370   31.9200   44.7160 H   0  0  0  0  0  0  0  0  0  0  0  0
   47.9120   31.4160   46.2520 H   0  0  0  0  0  0  0  0  0  0  0  0
   46.6250   29.6820   45.4370 H   0  0  0  0  0  0  0  0  0  0  0  0
   45.1380   30.7080   45.2190 H   0  0  0  0  0  0  0  0  0  0  0  0
   45.1890   29.3860   47.3460 H   0  0  0  0  0  0  0  0  0  0  0  0
   46.7670   30.2420   47.7660 H   0  0  0  0  0  0  0  0  0  0  0  0
   44.1900   31.3420   48.5870 H   0  0  0  0  0  0  0  0  0  0  0  0
   44.6910   33.8640   47.9370 N   0  0  0  0  0  0  0  0  0  0  0  0
   43.6570   33.8310   47.7320 H   0  0  0  0  0  0  0  0  0  0  0  0
   45.3080   34.5450   48.4300 H   0  0  0  0  0  0  0  0  0  0  0  0
   47.0770   34.7300   41.9490 C   0  0  0  0  0  0  0  0  0  0  0  0
   48.1970   35.4730   41.8440 C   0  0  0  0  0  0  0  0  0  0  0  0
   48.8540   35.4530   40.6040 C   0  0  0  0  0  0  0  0  0  0  0  0
   48.2910   34.6820   39.6240 C   0  0  0  0  0  0  0  0  0  0  0  0
   47.1660   33.9350   39.7270 C   0  0  0  0  0  0  0  0  0  0  0  0
   46.5610   33.9810   40.9400 N   0  0  0  0  0  0  0  0  0  0  0  0
   48.5700   36.0580   42.6840 H   0  0  0  0  0  0  0  0  0  0  0  0
   49.7520   36.0340   40.4870 H   0  0  0  0  0  0  0  0  0  0  0  0
   48.8370   34.7000   38.6820 H   0  0  0  0  0  0  0  0  0  0  0  0
   46.6540   33.1740   38.6790 O   0  0  0  0  0  0  0  0  0  0  0  0
   47.4300   32.5430   37.7510 C   0  0  0  0  0  3  0  0  0  0  0  0
   47.6440   32.9980   36.5380 C   0  0  0  0  0  3  0  0  0  0  0  0
   48.3970   32.5820   35.3390 C   0  0  0  0  0  2  0  0  0  0  0  0
   49.1050   33.3760   34.9880 H   0  0  0  0  0  0  0  0  0  0  0  0
  1  7  1  0  0  0  0
  1  6  1  0  0  0  0
  2  1  2  0  0  0  0
  3  2  1  0  0  0  0
  3  4  2  0  0  0  0
  4  5  1  0  0  0  0
  5  6  2  0  0  0  0
  5  9  1  0  0  0  0
  8  2  1  0  0  0  0
  9 15  1  1  0  0  0
  9 14  1  0  0  0  0
 10 11  1  0  0  0  0
 10 17  1  0  0  0  0
 10  9  1  0  0  0  0
 11 12  1  0  0  0  0
 12 20  1  0  0  0  0
 12 21  1  0  0  0  0
 12 13  1  0  0  0  0
 13 22  1  0  0  0  0
 14 13  2  0  0  0  0
 14 23  1  0  0  0  0
 16 10  1  0  0  0  0
 18 11  1  0  0  0  0
 19 11  1  0  0  0  0
 23 25  1  0  0  0  0
 24 23  1  0  0  0  0
 26  3  1  0  0  0  0
 27 26  1  0  0  0  0
 27 32  1  0  0  0  0
 28 27  2  0  0  0  0
 29 30  2  0  0  0  0
 29 28  1  0  0  0  0
 30 31  1  0  0  0  0
 31 26  2  0  0  0  0
 33 28  1  0  0  0  0
 34 29  1  0  0  0  0
 35 30  1  0  0  0  0
 36 35  1  0  0  0  0
 37 36  2  0  0  0  0
 38 37  1  0  0  0  0
 39 38  1  0  0  0  0
M  END
>  <minimizedAffinity>
-6.84871864

>  <minimizedRMSD>
0.480542183

$$$$
