
     RDKit          3D

 43 45  0  0  0  0  0  0  0  0999 V2000
   44.5695   35.5845   44.6126 C   0  0  0  0  0  0  0  0  0  0  0  0
   45.2251   35.5949   43.3653 C   0  0  0  0  0  0  0  0  0  0  0  0
   46.3182   34.6867   43.1795 C   0  0  0  0  0  0  0  0  0  0  0  0
   46.6648   33.8706   44.2029 N   0  0  0  0  0  0  0  0  0  0  0  0
   46.0168   33.8904   45.3744 C   0  0  0  0  0  0  0  0  0  0  0  0
   44.9617   34.7492   45.5892 N   0  0  0  0  0  0  0  0  0  0  0  0
   46.4396   32.9766   46.4724 C   0  0  2  0  0  0  0  0  0  0  0  0
   46.9671   31.7445   45.7657 C   0  0  0  0  0  0  0  0  0  0  0  0
   46.0987   30.5619   45.7813 C   0  0  0  0  0  0  0  0  0  0  0  0
   45.8205   30.3012   47.2634 C   0  0  0  0  0  0  0  0  0  0  0  0
   45.0058   31.3617   47.8794 C   0  0  0  0  0  0  0  0  0  0  0  0
   45.3903   32.7272   47.4145 C   0  0  0  0  0  0  0  0  0  0  0  0
   44.6825   33.8616   47.9240 N   0  0  0  0  0  0  0  0  0  0  0  0
   47.0083   34.6725   41.9027 C   0  0  0  0  0  0  0  0  0  0  0  0
   48.1459   35.3822   41.7673 C   0  0  0  0  0  0  0  0  0  0  0  0
   48.7735   35.3343   40.5120 C   0  0  0  0  0  0  0  0  0  0  0  0
   48.1665   34.5715   39.5518 C   0  0  0  0  0  0  0  0  0  0  0  0
   47.0235   33.8585   39.6871 C   0  0  0  0  0  0  0  0  0  0  0  0
   46.4479   33.9301   40.9135 N   0  0  0  0  0  0  0  0  0  0  0  0
   46.4658   33.1039   38.6569 O   0  0  0  0  0  0  0  0  0  0  0  0
   43.7437   36.2482   44.7984 H   0  0  0  0  0  0  0  0  0  0  0  0
   44.9090   36.2689   42.5770 H   0  0  0  0  0  0  0  0  0  0  0  0
   47.2997   33.4827   46.9591 H   0  0  0  0  0  0  0  0  0  0  0  0
   47.2580   31.9407   44.7118 H   0  0  0  0  0  0  0  0  0  0  0  0
   47.9358   31.4489   46.2514 H   0  0  0  0  0  0  0  0  0  0  0  0
   46.6710   29.6979   45.4371 H   0  0  0  0  0  0  0  0  0  0  0  0
   45.1715   30.7054   45.2136 H   0  0  0  0  0  0  0  0  0  0  0  0
   45.2351   29.3886   47.3443 H   0  0  0  0  0  0  0  0  0  0  0  0
   46.8019   30.2645   47.7646 H   0  0  0  0  0  0  0  0  0  0  0  0
   44.2096   31.3363   48.5791 H   0  0  0  0  0  0  0  0  0  0  0  0
   43.6488   33.8165   47.7168 H   0  0  0  0  0  0  0  0  0  0  0  0
   45.2898   34.5510   48.4163 H   0  0  0  0  0  0  0  0  0  0  0  0
   48.5549   35.9626   42.5927 H   0  0  0  0  0  0  0  0  0  0  0  0
   49.6835   35.8892   40.3697 H   0  0  0  0  0  0  0  0  0  0  0  0
   48.6911   34.5666   38.5970 H   0  0  0  0  0  0  0  0  0  0  0  0
   47.0099   33.0048   37.4103 C   0  0  0  0  0  0  0  0  0  0  0  0
   46.5383   32.2300   36.4602 C   0  0  0  0  0  0  0  0  0  0  0  0
   46.8711   31.8999   35.0615 C   0  0  0  0  0  0  0  0  0  0  0  0
   46.0047   32.0623   34.3697 H   0  0  0  0  0  0  0  0  0  0  0  0
   47.8783   33.6389   37.2891 H   0  0  0  0  0  0  0  0  0  0  0  0
   45.6550   31.6370   36.7055 H   0  0  0  0  0  0  0  0  0  0  0  0
   47.6798   32.5692   34.6479 H   0  0  0  0  0  0  0  0  0  0  0  0
   47.1953   30.8335   34.9268 H   0  0  0  0  0  0  0  0  0  0  0  0
  1  6  2  0
  2  1  1  0
  3  2  2  0
  3  4  1  0
  4  5  2  0
  5  6  1  0
  5  7  1  0
  7 12  1  0
  8  9  1  0
  8  7  1  0
  9 10  1  0
 10 11  1  0
 12 11  2  0
 12 13  1  0
 14  3  1  0
 15 14  2  0
 16 15  1  0
 17 18  1  0
 17 16  2  0
 18 19  2  0
 19 14  1  0
 20 18  1  0
  1 21  1  0
  2 22  1  0
  7 23  1  1
  8 24  1  0
  8 25  1  0
  9 26  1  0
  9 27  1  0
 10 28  1  0
 10 29  1  0
 11 30  1  0
 13 31  1  0
 13 32  1  0
 15 33  1  0
 16 34  1  0
 17 35  1  0
 36 37  2  3
 37 38  1  0
 38 39  1  0
 36 40  1  0
 37 41  1  0
 38 42  1  0
 38 43  1  0
 20 36  1  0
M  ISO  8  21  14  22  14  23  13  24  13  25  13  26  13  27  13  28  13
M  ISO  6  29  13  30  13  33  14  34  14  35  14  39   8
M  END
>  <DihAtoms>  (1) 
17,19,35,36

>  <DihDeg>  (1) 
100.50079254903295

$$$$
