
     RDKit          3D

 21 21  0  0  0  0  0  0  0  0999 V2000
   44.3821   35.7638   44.3997 C   0  0  0  0  0  0  0  0  0  0  0  0
   44.6606   35.0520   43.2365 C   0  0  0  0  0  0  0  0  0  0  0  0
   45.2820   33.8273   43.3828 C   0  0  0  0  0  0  0  0  0  0  0  0
   45.5717   33.4113   44.6174 N   0  0  0  0  0  0  0  0  0  0  0  0
   45.3001   34.1029   45.7307 C   0  0  0  0  0  0  0  0  0  0  0  0
   44.6819   35.3304   45.6554 N   0  0  0  0  0  0  0  0  0  0  0  0
   44.2521   35.7046   41.9923 C   0  0  0  0  0  0  0  0  0  0  0  0
   42.9615   35.3908   41.5892 O   0  0  0  0  0  0  0  0  0  0  0  0
   43.8935   36.7421   44.4005 H   0  0  0  0  0  0  0  0  0  0  0  0
   45.4859   33.2969   42.4628 H   0  0  0  0  0  0  0  0  0  0  0  0
   45.5517   33.7274   46.6956 H   0  0  0  0  0  0  0  0  0  0  0  0
   44.9568   35.4176   41.1615 H   0  0  0  0  0  0  0  0  0  0  0  0
   44.3379   36.8067   42.0723 H   0  0  0  0  0  0  0  0  0  0  0  0
   42.3239   35.8581   40.4659 C   0  0  0  0  0  0  0  0  0  0  0  0
   42.5608   35.2919   39.2706 C   0  0  0  0  0  0  0  0  0  0  0  0
   41.9905   35.6281   37.9299 C   0  0  0  0  0  0  0  0  0  0  0  0
   42.8156   36.0680   37.3387 H   0  0  0  0  0  0  0  0  0  0  0  0
   41.6180   36.6662   40.4169 H   0  0  0  0  0  0  0  0  0  0  0  0
   43.2718   34.4519   39.2126 H   0  0  0  0  0  0  0  0  0  0  0  0
   41.2074   36.4121   38.0170 H   0  0  0  0  0  0  0  0  0  0  0  0
   41.6257   34.6914   37.4809 H   0  0  0  0  0  0  0  0  0  0  0  0
  1  6  2  0
  2  3  2  0
  2  1  1  0
  3  4  1  0
  4  5  2  0
  6  5  1  0
  7  2  1  0
  8  7  1  0
  1  9  1  0
  3 10  1  0
  5 11  1  0
  7 12  1  0
  7 13  1  0
 14 15  2  3
 15 16  1  0
 16 17  1  0
 14 18  1  0
 15 19  1  0
 16 20  1  0
 16 21  1  0
  8 14  1  0
M  ISO  6   9  14  10  14  11  14  12   8  13   8  17   8
M  END
>  <DihAtoms>  (1) 
6,7,13,14

>  <DihDeg>  (1) 
-68.89880987217724

$$$$
