
 OpenBabel03242513553D

 14 14  0  0  0  0  0  0  0  0999 V2000
   36.6430   27.6900   42.0190 C   0  0  0  0  0  0  0  0  0  0  0  0
   36.9420   29.0440   41.8500 C   0  0  0  0  0  0  0  0  0  0  0  0
   38.0670   29.5300   42.5030 C   0  0  0  0  0  0  0  0  0  0  0  0
   38.8210   28.6970   43.2640 N   0  0  0  0  0  0  0  0  0  0  0  0
   38.4880   27.3760   43.4010 C   0  0  0  0  0  0  0  0  0  0  0  0
   37.4010   26.8920   42.7750 N   0  0  0  0  0  0  0  0  0  0  0  0
   35.7700   27.3050   41.5150 H   0  0  0  0  0  0  0  0  0  0  0  0
   38.3370   30.5740   42.4000 H   0  0  0  0  0  0  0  0  0  0  0  0
   39.0730   26.6930   44.0030 H   0  0  0  0  0  0  0  0  0  0  0  0
   36.2050   29.9210   41.0890 O   0  0  0  0  0  0  0  0  0  0  0  0
   36.5390   31.2180   40.8240 C   0  0  0  0  0  3  0  0  0  0  0  0
   36.8940   31.5500   39.5940 C   0  0  0  0  0  3  0  0  0  0  0  0
   37.2640   32.9680   39.2850 C   0  0  0  0  0  2  0  0  0  0  0  0
   36.3900   33.6430   39.3330 H   0  0  0  0  0  0  0  0  0  0  0  0
  1  6  1  0  0  0  0
  2  1  2  0  0  0  0
  2  3  1  0  0  0  0
  3  4  2  0  0  0  0
  4  5  1  0  0  0  0
  5  9  1  0  0  0  0
  6  5  2  0  0  0  0
  7  1  1  0  0  0  0
  8  3  1  0  0  0  0
 10  2  1  0  0  0  0
 11 10  1  0  0  0  0
 12 11  2  0  0  0  0
 13 14  1  0  0  0  0
 13 12  1  0  0  0  0
M  END
>  <minimizedAffinity>
-3.2942574

$$$$

 OpenBabel03242513553D

 14 14  0  0  0  0  0  0  0  0999 V2000
   38.1030   29.5770   42.4400 C   0  0  0  0  0  0  0  0  0  0  0  0
   36.9490   29.2630   41.7190 C   0  0  0  0  0  0  0  0  0  0  0  0
   36.3760   28.0180   41.9510 C   0  0  0  0  0  0  0  0  0  0  0  0
   36.9410   27.1700   42.8480 N   0  0  0  0  0  0  0  0  0  0  0  0
   38.0740   27.5220   43.5310 C   0  0  0  0  0  0  0  0  0  0  0  0
   38.6390   28.7230   43.3150 N   0  0  0  0  0  0  0  0  0  0  0  0
   38.5540   30.5410   42.2650 H   0  0  0  0  0  0  0  0  0  0  0  0
   35.4810   27.7320   41.4140 H   0  0  0  0  0  0  0  0  0  0  0  0
   38.5430   26.8620   44.2500 H   0  0  0  0  0  0  0  0  0  0  0  0
   36.3460   30.0920   40.8030 O   0  0  0  0  0  0  0  0  0  0  0  0
   36.5510   31.4370   40.6930 C   0  0  0  0  0  3  0  0  0  0  0  0
   37.0390   31.9210   39.5630 C   0  0  0  0  0  3  0  0  0  0  0  0
   37.2710   33.3940   39.4240 C   0  0  0  0  0  2  0  0  0  0  0  0
   36.3230   33.9600   39.3850 H   0  0  0  0  0  0  0  0  0  0  0  0
  1  6  1  0  0  0  0
  2  3  1  0  0  0  0
  2  1  2  0  0  0  0
  3  4  2  0  0  0  0
  4  5  1  0  0  0  0
  5  9  1  0  0  0  0
  6  5  2  0  0  0  0
  7  1  1  0  0  0  0
  8  3  1  0  0  0  0
 10  2  1  0  0  0  0
 11 10  1  0  0  0  0
 12 11  2  0  0  0  0
 13 12  1  0  0  0  0
 14 13  1  0  0  0  0
M  END
>  <minimizedAffinity>
-3.2866559

$$$$

 OpenBabel03242513553D

 14 14  0  0  0  0  0  0  0  0999 V2000
   36.4120   30.1810   41.4360 C   0  0  0  0  0  0  0  0  0  0  0  0
   37.4190   29.6300   42.2320 C   0  0  0  0  0  0  0  0  0  0  0  0
   38.6880   30.1830   42.1190 C   0  0  0  0  0  0  0  0  0  0  0  0
   38.9040   31.2130   41.2620 N   0  0  0  0  0  0  0  0  0  0  0  0
   37.8850   31.7200   40.5020 C   0  0  0  0  0  0  0  0  0  0  0  0
   36.6520   31.1940   40.6000 N   0  0  0  0  0  0  0  0  0  0  0  0
   35.4240   29.7570   41.5180 H   0  0  0  0  0  0  0  0  0  0  0  0
   39.5000   29.7870   42.7170 H   0  0  0  0  0  0  0  0  0  0  0  0
   38.0330   32.5400   39.8110 H   0  0  0  0  0  0  0  0  0  0  0  0
   37.2420   28.5870   43.1110 O   0  0  0  0  0  0  0  0  0  0  0  0
   36.7180   27.3660   42.8000 C   0  0  0  0  0  3  0  0  0  0  0  0
   37.5370   26.3820   42.4710 C   0  0  0  0  0  3  0  0  0  0  0  0
   36.9800   25.0350   42.1270 C   0  0  0  0  0  2  0  0  0  0  0  0
   36.5500   24.5280   43.0090 H   0  0  0  0  0  0  0  0  0  0  0  0
  1  7  1  0  0  0  0
  1  2  1  0  0  0  0
  2 10  1  0  0  0  0
  3  2  2  0  0  0  0
  3  8  1  0  0  0  0
  4  3  1  0  0  0  0
  5  6  1  0  0  0  0
  5  4  2  0  0  0  0
  6  1  2  0  0  0  0
  9  5  1  0  0  0  0
 11 10  1  0  0  0  0
 12 11  2  0  0  0  0
 13 12  1  0  0  0  0
 13 14  1  0  0  0  0
M  END
>  <minimizedAffinity>
-3.17594171

$$$$

 OpenBabel03242513553D

 14 14  0  0  0  0  0  0  0  0999 V2000
   38.8210   26.9720   43.0130 C   0  0  0  0  0  0  0  0  0  0  0  0
   37.4830   26.8050   42.6480 C   0  0  0  0  0  0  0  0  0  0  0  0
   36.7380   27.9570   42.4320 C   0  0  0  0  0  0  0  0  0  0  0  0
   37.3170   29.1760   42.5780 N   0  0  0  0  0  0  0  0  0  0  0  0
   38.6330   29.2900   42.9380 C   0  0  0  0  0  0  0  0  0  0  0  0
   39.3660   28.1830   43.1510 N   0  0  0  0  0  0  0  0  0  0  0  0
   39.4060   26.0820   43.1820 H   0  0  0  0  0  0  0  0  0  0  0  0
   35.6960   27.8760   42.1470 H   0  0  0  0  0  0  0  0  0  0  0  0
   39.1170   30.2500   43.0610 H   0  0  0  0  0  0  0  0  0  0  0  0
   36.8580   25.5900   42.4890 O   0  0  0  0  0  0  0  0  0  0  0  0
   37.4630   24.4300   42.1010 C   0  0  0  0  0  3  0  0  0  0  0  0
   37.1780   23.9240   40.9140 C   0  0  0  0  0  3  0  0  0  0  0  0
   37.8320   22.6520   40.4710 C   0  0  0  0  0  2  0  0  0  0  0  0
   38.9110   22.7890   40.2740 H   0  0  0  0  0  0  0  0  0  0  0  0
  1  6  1  0  0  0  0
  1  7  1  0  0  0  0
  2  1  2  0  0  0  0
  3  4  2  0  0  0  0
  3  2  1  0  0  0  0
  4  5  1  0  0  0  0
  5  9  1  0  0  0  0
  5  6  2  0  0  0  0
  8  3  1  0  0  0  0
 10  2  1  0  0  0  0
 11 10  1  0  0  0  0
 12 11  2  0  0  0  0
 13 12  1  0  0  0  0
 14 13  1  0  0  0  0
M  END
>  <minimizedAffinity>
-3.09449601

$$$$

 OpenBabel03242513553D

 14 14  0  0  0  0  0  0  0  0999 V2000
   38.1140   29.6240   42.2910 C   0  0  0  0  0  0  0  0  0  0  0  0
   36.9030   29.0990   41.8360 C   0  0  0  0  0  0  0  0  0  0  0  0
   36.5930   27.7990   42.2160 C   0  0  0  0  0  0  0  0  0  0  0  0
   37.4540   27.0990   42.9980 N   0  0  0  0  0  0  0  0  0  0  0  0
   38.6310   27.6560   43.4200 C   0  0  0  0  0  0  0  0  0  0  0  0
   38.9440   28.9130   43.0590 N   0  0  0  0  0  0  0  0  0  0  0  0
   38.3620   30.6320   42.0000 H   0  0  0  0  0  0  0  0  0  0  0  0
   35.6640   27.3510   41.8860 H   0  0  0  0  0  0  0  0  0  0  0  0
   39.3340   27.1180   44.0430 H   0  0  0  0  0  0  0  0  0  0  0  0
   36.0040   29.7730   41.0430 O   0  0  0  0  0  0  0  0  0  0  0  0
   35.0440   29.1960   40.2630 C   0  0  0  0  0  3  0  0  0  0  0  0
   35.1700   29.2490   38.9480 C   0  0  0  0  0  3  0  0  0  0  0  0
   34.1260   28.6210   38.0760 C   0  0  0  0  0  2  0  0  0  0  0  0
   34.1400   27.5180   38.1430 H   0  0  0  0  0  0  0  0  0  0  0  0
  1  6  1  0  0  0  0
  2  3  1  0  0  0  0
  2  1  2  0  0  0  0
  3  4  2  0  0  0  0
  4  5  1  0  0  0  0
  5  9  1  0  0  0  0
  6  5  2  0  0  0  0
  7  1  1  0  0  0  0
  8  3  1  0  0  0  0
 10  2  1  0  0  0  0
 11 10  1  0  0  0  0
 12 11  2  0  0  0  0
 13 14  1  0  0  0  0
 13 12  1  0  0  0  0
M  END
>  <minimizedAffinity>
-3.08627057

$$$$

 OpenBabel03242513553D

 14 14  0  0  0  0  0  0  0  0999 V2000
   36.5300   30.4030   38.6340 C   0  0  0  0  0  0  0  0  0  0  0  0
   36.2650   30.3130   40.0020 C   0  0  0  0  0  0  0  0  0  0  0  0
   36.6770   31.3750   40.7970 C   0  0  0  0  0  0  0  0  0  0  0  0
   37.3060   32.4380   40.2350 N   0  0  0  0  0  0  0  0  0  0  0  0
   37.5440   32.4810   38.8880 C   0  0  0  0  0  0  0  0  0  0  0  0
   37.1510   31.4600   38.1060 N   0  0  0  0  0  0  0  0  0  0  0  0
   36.2130   29.5820   38.0100 H   0  0  0  0  0  0  0  0  0  0  0  0
   36.4930   31.3480   41.8640 H   0  0  0  0  0  0  0  0  0  0  0  0
   38.0440   33.3180   38.4160 H   0  0  0  0  0  0  0  0  0  0  0  0
   35.6320   29.2550   40.6110 O   0  0  0  0  0  0  0  0  0  0  0  0
   36.2240   28.0850   40.9900 C   0  0  0  0  0  3  0  0  0  0  0  0
   36.5500   27.9130   42.2600 C   0  0  0  0  0  3  0  0  0  0  0  0
   37.2010   26.6360   42.6940 C   0  0  0  0  0  2  0  0  0  0  0  0
   36.5050   25.7800   42.6430 H   0  0  0  0  0  0  0  0  0  0  0  0
  1  2  1  0  0  0  0
  2 10  1  0  0  0  0
  2  3  2  0  0  0  0
  3  8  1  0  0  0  0
  4  3  1  0  0  0  0
  5  4  2  0  0  0  0
  6  1  2  0  0  0  0
  6  5  1  0  0  0  0
  7  1  1  0  0  0  0
  9  5  1  0  0  0  0
 10 11  1  0  0  0  0
 11 12  2  0  0  0  0
 12 13  1  0  0  0  0
 14 13  1  0  0  0  0
M  END
>  <minimizedAffinity>
-3.07593751

$$$$

 OpenBabel03242513553D

 14 14  0  0  0  0  0  0  0  0999 V2000
   39.4310   31.2870   40.7020 C   0  0  0  0  0  0  0  0  0  0  0  0
   38.0810   30.9340   40.6600 C   0  0  0  0  0  0  0  0  0  0  0  0
   37.1750   31.9360   40.3350 C   0  0  0  0  0  0  0  0  0  0  0  0
   37.6190   33.1920   40.0760 N   0  0  0  0  0  0  0  0  0  0  0  0
   38.9530   33.4910   40.1300 C   0  0  0  0  0  0  0  0  0  0  0  0
   39.8410   32.5310   40.4440 N   0  0  0  0  0  0  0  0  0  0  0  0
   40.1410   30.5150   40.9540 H   0  0  0  0  0  0  0  0  0  0  0  0
   36.1170   31.7080   40.2910 H   0  0  0  0  0  0  0  0  0  0  0  0
   39.3310   34.4850   39.9280 H   0  0  0  0  0  0  0  0  0  0  0  0
   37.5900   29.6750   40.9150 O   0  0  0  0  0  0  0  0  0  0  0  0
   37.4110   29.1290   42.1530 C   0  0  0  0  0  3  0  0  0  0  0  0
   36.6840   28.0300   42.2700 C   0  0  0  0  0  3  0  0  0  0  0  0
   36.4770   27.4160   43.6200 C   0  0  0  0  0  2  0  0  0  0  0  0
   37.4070   26.9740   44.0200 H   0  0  0  0  0  0  0  0  0  0  0  0
  1  7  1  0  0  0  0
  2  1  1  0  0  0  0
  2 10  1  0  0  0  0
  3  2  2  0  0  0  0
  4  5  2  0  0  0  0
  4  3  1  0  0  0  0
  5  6  1  0  0  0  0
  6  1  2  0  0  0  0
  8  3  1  0  0  0  0
  9  5  1  0  0  0  0
 10 11  1  0  0  0  0
 11 12  2  0  0  0  0
 12 13  1  0  0  0  0
 13 14  1  0  0  0  0
M  END
>  <minimizedAffinity>
-3.05410028

$$$$

 OpenBabel03242513553D

 14 14  0  0  0  0  0  0  0  0999 V2000
   38.8110   26.7150   43.2030 C   0  0  0  0  0  0  0  0  0  0  0  0
   37.5850   26.4140   42.6040 C   0  0  0  0  0  0  0  0  0  0  0  0
   37.4040   25.1120   42.1540 C   0  0  0  0  0  0  0  0  0  0  0  0
   38.3960   24.1990   42.3060 N   0  0  0  0  0  0  0  0  0  0  0  0
   39.5810   24.5410   42.9000 C   0  0  0  0  0  0  0  0  0  0  0  0
   39.7710   25.7970   43.3400 N   0  0  0  0  0  0  0  0  0  0  0  0
   38.9590   27.7230   43.5550 H   0  0  0  0  0  0  0  0  0  0  0  0
   36.4700   24.8340   41.6820 H   0  0  0  0  0  0  0  0  0  0  0  0
   40.3870   23.8300   43.0320 H   0  0  0  0  0  0  0  0  0  0  0  0
   36.5560   27.3080   42.4300 O   0  0  0  0  0  0  0  0  0  0  0  0
   36.6560   28.5260   41.8220 C   0  0  0  0  0  3  0  0  0  0  0  0
   35.7600   28.8610   40.9080 C   0  0  0  0  0  3  0  0  0  0  0  0
   35.8540   30.1930   40.2300 C   0  0  0  0  0  2  0  0  0  0  0  0
   35.6230   31.0250   40.9190 H   0  0  0  0  0  0  0  0  0  0  0  0
  1  6  1  0  0  0  0
  1  7  1  0  0  0  0
  2  1  2  0  0  0  0
  3  4  2  0  0  0  0
  3  2  1  0  0  0  0
  4  5  1  0  0  0  0
  5  9  1  0  0  0  0
  5  6  2  0  0  0  0
  8  3  1  0  0  0  0
 10  2  1  0  0  0  0
 11 10  1  0  0  0  0
 12 11  2  0  0  0  0
 13 12  1  0  0  0  0
 13 14  1  0  0  0  0
M  END
>  <minimizedAffinity>
-3.05171609

$$$$

 OpenBabel03242513553D

 14 14  0  0  0  0  0  0  0  0999 V2000
   36.7460   28.3330   40.1140 C   0  0  0  0  0  0  0  0  0  0  0  0
   36.7270   28.9390   41.3720 C   0  0  0  0  0  0  0  0  0  0  0  0
   36.8950   28.1130   42.4760 C   0  0  0  0  0  0  0  0  0  0  0  0
   37.0680   26.7780   42.3020 N   0  0  0  0  0  0  0  0  0  0  0  0
   37.0790   26.2280   41.0490 C   0  0  0  0  0  0  0  0  0  0  0  0
   36.9170   27.0160   39.9720 N   0  0  0  0  0  0  0  0  0  0  0  0
   36.6170   28.9670   39.2520 H   0  0  0  0  0  0  0  0  0  0  0  0
   36.8870   28.5410   43.4710 H   0  0  0  0  0  0  0  0  0  0  0  0
   37.2140   25.1670   40.8850 H   0  0  0  0  0  0  0  0  0  0  0  0
   36.5550   30.2860   41.5910 O   0  0  0  0  0  0  0  0  0  0  0  0
   36.4160   31.2370   40.6220 C   0  0  0  0  0  3  0  0  0  0  0  0
   37.3900   32.1130   40.4390 C   0  0  0  0  0  3  0  0  0  0  0  0
   37.2550   33.1640   39.3810 C   0  0  0  0  0  2  0  0  0  0  0  0
   37.3030   32.7350   38.3640 H   0  0  0  0  0  0  0  0  0  0  0  0
  1  2  1  0  0  0  0
  2 10  1  0  0  0  0
  2  3  2  0  0  0  0
  3  8  1  0  0  0  0
  4  3  1  0  0  0  0
  5  4  2  0  0  0  0
  6  1  2  0  0  0  0
  6  5  1  0  0  0  0
  7  1  1  0  0  0  0
  9  5  1  0  0  0  0
 11 10  1  0  0  0  0
 12 11  2  0  0  0  0
 13 12  1  0  0  0  0
 14 13  1  0  0  0  0
M  END
>  <minimizedAffinity>
-3.00693941

$$$$
