
 OpenBabel03252504083D

 17 17  0  0  0  0  0  0  0  0999 V2000
   48.0260   32.9510   41.8510 C   0  0  0  0  0  0  0  0  0  0  0  0
   49.1900   32.6210   41.1460 C   0  0  0  0  0  0  0  0  0  0  0  0
   49.0670   32.3470   39.7790 C   0  0  0  0  0  0  0  0  0  0  0  0
   47.8430   32.4130   39.2060 N   0  0  0  0  0  0  0  0  0  0  0  0
   46.7490   32.7340   39.9220 C   0  0  0  0  0  0  0  0  0  0  0  0
   46.8260   33.0060   41.2510 N   0  0  0  0  0  0  0  0  0  0  0  0
   49.9620   32.0930   39.2310 H   0  0  0  0  0  0  0  0  0  0  0  0
   45.8400   32.7540   39.3700 H   0  0  0  0  0  0  0  0  0  0  0  0
   50.4820   32.5770   41.8730 C   0  0  0  0  0  0  0  0  0  0  0  0
   50.6930   33.7770   42.5410 F   0  0  0  0  0  0  0  0  0  0  0  0
   50.3950   31.5910   42.8440 F   0  0  0  0  0  0  0  0  0  0  0  0
   51.5640   32.3550   41.0720 F   0  0  0  0  0  0  0  0  0  0  0  0
   48.1470   33.2190   43.1790 O   0  0  0  0  0  0  0  0  0  0  0  0
   47.0940   33.9260   43.7720 C   0  0  0  0  0  3  0  0  0  0  0  0
   46.3900   33.5800   44.8180 C   0  0  0  0  0  3  0  0  0  0  0  0
   46.7090   32.3030   45.4770 C   0  0  0  0  0  2  0  0  0  0  0  0
   46.1980   31.4770   44.9310 H   0  0  0  0  0  0  0  0  0  0  0  0
  1 13  1  0  0  0  0
  2  1  2  0  0  0  0
  2  9  1  0  0  0  0
  3  2  1  0  0  0  0
  4  3  2  0  0  0  0
  4  5  1  0  0  0  0
  5  6  2  0  0  0  0
  6  1  1  0  0  0  0
  7  3  1  0  0  0  0
  8  5  1  0  0  0  0
  9 10  1  0  0  0  0
  9 11  1  0  0  0  0
 12  9  1  0  0  0  0
 13 14  1  0  0  0  0
 14 15  2  0  0  0  0
 15 16  1  0  0  0  0
 17 16  1  0  0  0  0
M  END
>  <minimizedAffinity>
-3.03158617

>  <minimizedRMSD>
5.4636426

$$$$
