
 OpenBabel03242514193D

 44 45  0  0  0  0  0  0  0  0999 V2000
   46.1680   34.5650   43.6080 C   0  0  0  0  0  0  0  0  0  0  0  0
   46.1630   33.7950   44.7460 C   0  0  0  0  0  0  0  0  0  0  0  0
   45.3330   34.1760   45.7570 C   0  0  0  0  0  0  0  0  0  0  0  0
   44.5560   35.2840   45.6020 N   0  0  0  0  0  0  0  0  0  0  0  0
   44.5600   36.0210   44.5150 C   0  0  0  0  0  0  0  0  0  0  0  0
   45.3660   35.6480   43.5370 N   0  0  0  0  0  0  0  0  0  0  0  0
   45.1730   33.7220   46.7220 H   0  0  0  0  0  0  0  0  0  0  0  0
   43.9360   36.9120   44.3870 H   0  0  0  0  0  0  0  0  0  0  0  0
   47.0100   34.1100   42.4940 C   0  0  0  0  0  0  0  0  0  0  0  0
   48.3960   34.6760   42.5790 C   0  0  0  0  0  0  0  0  0  0  0  0
   48.7080   35.5760   41.4680 C   0  0  0  0  0  0  0  0  0  0  0  0
   48.5100   34.8990   40.1280 C   0  0  0  0  0  0  0  0  0  0  0  0
   47.2640   34.1060   40.0420 C   0  0  0  0  0  0  0  0  0  0  0  0
   46.3360   34.3940   41.2000 C   0  0  0  0  0  0  0  0  0  0  0  0
   47.1860   33.0240   42.6140 H   0  0  0  0  0  0  0  0  0  0  0  0
   49.1750   33.8950   42.6340 H   0  0  0  0  0  0  0  0  0  0  0  0
   48.4750   35.2360   43.5330 H   0  0  0  0  0  0  0  0  0  0  0  0
   48.2040   36.5600   41.5140 H   0  0  0  0  0  0  0  0  0  0  0  0
   49.8070   35.8270   41.5200 H   0  0  0  0  0  0  0  0  0  0  0  0
   48.4340   35.7270   39.3740 H   0  0  0  0  0  0  0  0  0  0  0  0
   49.4060   34.2620   39.9470 H   0  0  0  0  0  0  0  0  0  0  0  0
   47.4870   33.0060   40.0720 H   0  0  0  0  0  0  0  0  0  0  0  0
   46.6710   34.2750   39.1160 H   0  0  0  0  0  0  0  0  0  0  0  0
   46.1450   35.5020   41.1420 H   0  0  0  0  0  0  0  0  0  0  0  0
   45.3820   33.8560   41.0640 H   0  0  0  0  0  0  0  0  0  0  0  0
   46.8430   32.7000   45.0730 O   0  0  0  0  0  0  0  0  0  0  0  0
   47.2730   32.1590   46.2590 C   0  0  0  0  0  0  0  0  0  0  0  0
   46.8610   32.5810   47.1840 H   0  0  0  0  0  0  0  0  0  0  0  0
   48.3830   32.3570   46.3280 H   0  0  0  0  0  0  0  0  0  0  0  0
   47.1530   30.6520   46.3380 C   0  0  0  0  0  0  0  0  0  0  0  0
   47.1320   30.3570   47.3930 H   0  0  0  0  0  0  0  0  0  0  0  0
   48.0600   30.2050   45.8420 H   0  0  0  0  0  0  0  0  0  0  0  0
   46.0210   30.1550   45.5900 N   0  0  0  0  0  0  0  0  0  0  0  0
   45.5490   30.8820   45.0500 H   0  0  0  0  0  0  0  0  0  0  0  0
   44.7960   29.7030   46.7490 S   0  0  0  0  0  0  0  0  0  0  0  0
   43.5770   29.1720   46.0560 O   0  0  0  0  0  0  0  0  0  0  0  0
   43.5820   28.3580   45.4940 H   0  0  0  0  0  0  0  0  0  0  0  0
   44.4610   30.9340   47.5350 O   0  0  0  0  0  0  0  0  0  0  0  0
   44.2060   30.8770   48.4880 H   0  0  0  0  0  0  0  0  0  0  0  0
   45.3860   28.5730   47.8220 O   0  0  0  0  0  0  0  0  0  0  0  0
   45.1440   27.2290   47.8030 C   0  0  0  0  0  3  0  0  0  0  0  0
   44.4020   26.2120   48.2150 C   0  0  0  0  0  3  0  0  0  0  0  0
   44.6330   24.8150   47.8280 C   0  0  0  0  0  2  0  0  0  0  0  0
   43.9940   24.4350   47.0170 H   0  0  0  0  0  0  0  0  0  0  0  0
  1  2  1  0  0  0  0
  2 26  1  0  0  0  0
  2  3  2  0  0  0  0
  3  7  1  0  0  0  0
  4  3  1  0  0  0  0
  5  4  2  0  0  0  0
  6  1  2  0  0  0  0
  6  5  1  0  0  0  0
  8  5  1  0  0  0  0
  9 10  1  0  0  0  0
  9 15  1  0  0  0  0
  9  1  1  0  0  0  0
 10 16  1  0  0  0  0
 10 17  1  0  0  0  0
 11 18  1  0  0  0  0
 11 19  1  0  0  0  0
 11 10  1  0  0  0  0
 12 11  1  0  0  0  0
 13 22  1  0  0  0  0
 13 12  1  0  0  0  0
 13 14  1  0  0  0  0
 14  9  1  0  0  0  0
 20 12  1  0  0  0  0
 21 12  1  0  0  0  0
 23 13  1  0  0  0  0
 24 14  1  0  0  0  0
 25 14  1  0  0  0  0
 26 27  1  0  0  0  0
 27 29  1  0  0  0  0
 27 30  1  0  0  0  0
 27 28  1  0  0  0  0
 30 31  1  0  0  0  0
 32 30  1  0  0  0  0
 33 30  1  0  0  0  0
 33 35  1  0  0  0  0
 34 33  1  0  0  0  0
 35 38  1  0  0  0  0
 35 40  1  0  0  0  0
 36 35  1  0  0  0  0
 37 36  1  0  0  0  0
 38 39  1  0  0  0  0
 41 40  1  0  0  0  0
 41 42  2  0  0  0  0
 43 42  1  0  0  0  0
 44 43  1  0  0  0  0
M  END
>  <minimizedAffinity>
-5.50055695

>  <minimizedRMSD>
1.51466024

$$$$
