
 OpenBabel03242514193D

 44 45  0  0  0  0  0  0  0  0999 V2000
   46.1670   34.5600   43.6130 C   0  0  0  0  0  0  0  0  0  0  0  0
   46.1610   33.7880   44.7500 C   0  0  0  0  0  0  0  0  0  0  0  0
   45.3310   34.1680   45.7610 C   0  0  0  0  0  0  0  0  0  0  0  0
   44.5550   35.2780   45.6080 N   0  0  0  0  0  0  0  0  0  0  0  0
   44.5600   36.0160   44.5220 C   0  0  0  0  0  0  0  0  0  0  0  0
   45.3650   35.6440   43.5440 N   0  0  0  0  0  0  0  0  0  0  0  0
   45.1710   33.7140   46.7250 H   0  0  0  0  0  0  0  0  0  0  0  0
   43.9370   36.9080   44.3960 H   0  0  0  0  0  0  0  0  0  0  0  0
   47.0080   34.1070   42.4990 C   0  0  0  0  0  0  0  0  0  0  0  0
   48.3950   34.6720   42.5840 C   0  0  0  0  0  0  0  0  0  0  0  0
   48.7070   35.5730   41.4750 C   0  0  0  0  0  0  0  0  0  0  0  0
   48.5090   34.8980   40.1340 C   0  0  0  0  0  0  0  0  0  0  0  0
   47.2630   34.1060   40.0460 C   0  0  0  0  0  0  0  0  0  0  0  0
   46.3350   34.3930   41.2050 C   0  0  0  0  0  0  0  0  0  0  0  0
   47.1840   33.0200   42.6170 H   0  0  0  0  0  0  0  0  0  0  0  0
   49.1730   33.8910   42.6380 H   0  0  0  0  0  0  0  0  0  0  0  0
   48.4740   35.2310   43.5390 H   0  0  0  0  0  0  0  0  0  0  0  0
   48.2040   36.5570   41.5220 H   0  0  0  0  0  0  0  0  0  0  0  0
   49.8060   35.8240   41.5270 H   0  0  0  0  0  0  0  0  0  0  0  0
   48.4330   35.7270   39.3810 H   0  0  0  0  0  0  0  0  0  0  0  0
   49.4040   34.2600   39.9520 H   0  0  0  0  0  0  0  0  0  0  0  0
   47.4850   33.0050   40.0750 H   0  0  0  0  0  0  0  0  0  0  0  0
   46.6700   34.2760   39.1200 H   0  0  0  0  0  0  0  0  0  0  0  0
   46.1440   35.5010   41.1480 H   0  0  0  0  0  0  0  0  0  0  0  0
   45.3810   33.8560   41.0690 H   0  0  0  0  0  0  0  0  0  0  0  0
   46.8390   32.6930   45.0760 O   0  0  0  0  0  0  0  0  0  0  0  0
   47.2720   32.1510   46.2610 C   0  0  0  0  0  0  0  0  0  0  0  0
   46.8550   32.5660   47.1860 H   0  0  0  0  0  0  0  0  0  0  0  0
   48.3800   32.3580   46.3320 H   0  0  0  0  0  0  0  0  0  0  0  0
   47.1640   30.6430   46.3340 C   0  0  0  0  0  0  0  0  0  0  0  0
   47.1630   30.3430   47.3870 H   0  0  0  0  0  0  0  0  0  0  0  0
   48.0650   30.2050   45.8210 H   0  0  0  0  0  0  0  0  0  0  0  0
   46.0220   30.1410   45.6030 N   0  0  0  0  0  0  0  0  0  0  0  0
   45.5200   30.8720   45.0970 H   0  0  0  0  0  0  0  0  0  0  0  0
   44.8400   29.6290   46.7810 S   0  0  0  0  0  0  0  0  0  0  0  0
   43.6090   29.1030   46.1070 O   0  0  0  0  0  0  0  0  0  0  0  0
   43.6090   28.3100   45.5170 H   0  0  0  0  0  0  0  0  0  0  0  0
   44.5110   30.8260   47.6210 O   0  0  0  0  0  0  0  0  0  0  0  0
   44.2860   30.7320   48.5790 H   0  0  0  0  0  0  0  0  0  0  0  0
   45.4800   28.4720   47.7950 O   0  0  0  0  0  0  0  0  0  0  0  0
   45.8530   27.2030   47.4500 C   0  0  0  0  0  3  0  0  0  0  0  0
   46.0660   26.3130   46.4930 C   0  0  0  0  0  3  0  0  0  0  0  0
   46.5130   24.9360   46.7340 C   0  0  0  0  0  2  0  0  0  0  0  0
   47.5890   24.7550   46.5920 H   0  0  0  0  0  0  0  0  0  0  0  0
  1  2  1  0  0  0  0
  2 26  1  0  0  0  0
  2  3  2  0  0  0  0
  3  7  1  0  0  0  0
  4  3  1  0  0  0  0
  5  4  2  0  0  0  0
  6  1  2  0  0  0  0
  6  5  1  0  0  0  0
  8  5  1  0  0  0  0
  9 10  1  0  0  0  0
  9 15  1  0  0  0  0
  9  1  1  0  0  0  0
 10 16  1  0  0  0  0
 10 17  1  0  0  0  0
 11 18  1  0  0  0  0
 11 19  1  0  0  0  0
 11 10  1  0  0  0  0
 12 11  1  0  0  0  0
 13 22  1  0  0  0  0
 13 12  1  0  0  0  0
 13 14  1  0  0  0  0
 14  9  1  0  0  0  0
 20 12  1  0  0  0  0
 21 12  1  0  0  0  0
 23 13  1  0  0  0  0
 24 14  1  0  0  0  0
 25 14  1  0  0  0  0
 26 27  1  0  0  0  0
 27 29  1  0  0  0  0
 27 30  1  0  0  0  0
 27 28  1  0  0  0  0
 30 31  1  0  0  0  0
 32 30  1  0  0  0  0
 33 30  1  0  0  0  0
 33 35  1  0  0  0  0
 34 33  1  0  0  0  0
 35 38  1  0  0  0  0
 35 40  1  0  0  0  0
 36 35  1  0  0  0  0
 37 36  1  0  0  0  0
 38 39  1  0  0  0  0
 41 40  1  0  0  0  0
 42 43  1  0  0  0  0
 42 41  2  0  0  0  0
 44 43  1  0  0  0  0
M  END
>  <minimizedAffinity>
-5.25947809

>  <minimizedRMSD>
1.0825789

$$$$
