
 OpenBabel03242514193D

 44 45  0  0  0  0  0  0  0  0999 V2000
   46.1270   34.5380   43.6360 C   0  0  0  0  0  0  0  0  0  0  0  0
   46.1110   33.7720   44.7770 C   0  0  0  0  0  0  0  0  0  0  0  0
   45.2960   34.1750   45.7910 C   0  0  0  0  0  0  0  0  0  0  0  0
   44.5440   35.3010   45.6370 N   0  0  0  0  0  0  0  0  0  0  0  0
   44.5590   36.0340   44.5480 C   0  0  0  0  0  0  0  0  0  0  0  0
   45.3500   35.6390   43.5670 N   0  0  0  0  0  0  0  0  0  0  0  0
   45.1320   33.7290   46.7580 H   0  0  0  0  0  0  0  0  0  0  0  0
   43.9550   36.9380   44.4210 H   0  0  0  0  0  0  0  0  0  0  0  0
   46.9510   34.0600   42.5190 C   0  0  0  0  0  0  0  0  0  0  0  0
   48.3450   34.6090   42.5820 C   0  0  0  0  0  0  0  0  0  0  0  0
   48.6560   35.4930   41.4580 C   0  0  0  0  0  0  0  0  0  0  0  0
   48.4350   34.8040   40.1280 C   0  0  0  0  0  0  0  0  0  0  0  0
   47.1790   34.0260   40.0640 C   0  0  0  0  0  0  0  0  0  0  0  0
   46.2670   34.3390   41.2290 C   0  0  0  0  0  0  0  0  0  0  0  0
   47.1150   32.9730   42.6490 H   0  0  0  0  0  0  0  0  0  0  0  0
   49.1140   33.8200   42.6380 H   0  0  0  0  0  0  0  0  0  0  0  0
   48.4410   35.1790   43.5290 H   0  0  0  0  0  0  0  0  0  0  0  0
   48.1650   36.4840   41.4990 H   0  0  0  0  0  0  0  0  0  0  0  0
   49.7590   35.7310   41.4960 H   0  0  0  0  0  0  0  0  0  0  0  0
   48.3620   35.6240   39.3650 H   0  0  0  0  0  0  0  0  0  0  0  0
   49.3210   34.1530   39.9450 H   0  0  0  0  0  0  0  0  0  0  0  0
   47.3880   32.9230   40.1040 H   0  0  0  0  0  0  0  0  0  0  0  0
   46.5780   34.1910   39.1420 H   0  0  0  0  0  0  0  0  0  0  0  0
   46.0890   35.4480   41.1600 H   0  0  0  0  0  0  0  0  0  0  0  0
   45.3050   33.8110   41.1090 H   0  0  0  0  0  0  0  0  0  0  0  0
   46.7670   32.6620   45.1030 O   0  0  0  0  0  0  0  0  0  0  0  0
   47.2590   32.1520   46.2790 C   0  0  0  0  0  0  0  0  0  0  0  0
   46.8840   32.5870   47.2130 H   0  0  0  0  0  0  0  0  0  0  0  0
   48.3680   32.3670   46.2920 H   0  0  0  0  0  0  0  0  0  0  0  0
   47.1650   30.6460   46.3930 C   0  0  0  0  0  0  0  0  0  0  0  0
   47.1290   30.3770   47.4550 H   0  0  0  0  0  0  0  0  0  0  0  0
   48.0890   30.2040   45.9260 H   0  0  0  0  0  0  0  0  0  0  0  0
   46.0560   30.1090   45.6370 N   0  0  0  0  0  0  0  0  0  0  0  0
   45.5750   30.8160   45.0780 H   0  0  0  0  0  0  0  0  0  0  0  0
   44.8250   29.6470   46.7850 S   0  0  0  0  0  0  0  0  0  0  0  0
   43.6040   29.1370   46.0810 O   0  0  0  0  0  0  0  0  0  0  0  0
   43.6040   28.3330   45.5060 H   0  0  0  0  0  0  0  0  0  0  0  0
   44.4970   30.8670   47.5910 O   0  0  0  0  0  0  0  0  0  0  0  0
   44.2390   30.7970   48.5430 H   0  0  0  0  0  0  0  0  0  0  0  0
   45.4040   28.4950   47.8410 O   0  0  0  0  0  0  0  0  0  0  0  0
   45.9120   27.2710   47.5100 C   0  0  0  0  0  3  0  0  0  0  0  0
   46.9640   26.5440   47.1640 C   0  0  0  0  0  3  0  0  0  0  0  0
   46.9160   25.0990   46.9040 C   0  0  0  0  0  2  0  0  0  0  0  0
   47.2470   24.4570   47.7340 H   0  0  0  0  0  0  0  0  0  0  0  0
  1  2  1  0  0  0  0
  2 26  1  0  0  0  0
  2  3  2  0  0  0  0
  3  7  1  0  0  0  0
  4  3  1  0  0  0  0
  5  4  2  0  0  0  0
  6  1  2  0  0  0  0
  6  5  1  0  0  0  0
  8  5  1  0  0  0  0
  9 10  1  0  0  0  0
  9 15  1  0  0  0  0
  9  1  1  0  0  0  0
 10 16  1  0  0  0  0
 10 17  1  0  0  0  0
 11 19  1  0  0  0  0
 11 18  1  0  0  0  0
 11 10  1  0  0  0  0
 12 11  1  0  0  0  0
 13 22  1  0  0  0  0
 13 12  1  0  0  0  0
 13 14  1  0  0  0  0
 14  9  1  0  0  0  0
 20 12  1  0  0  0  0
 21 12  1  0  0  0  0
 23 13  1  0  0  0  0
 24 14  1  0  0  0  0
 25 14  1  0  0  0  0
 26 27  1  0  0  0  0
 27 29  1  0  0  0  0
 27 30  1  0  0  0  0
 27 28  1  0  0  0  0
 30 31  1  0  0  0  0
 32 30  1  0  0  0  0
 33 30  1  0  0  0  0
 33 35  1  0  0  0  0
 34 33  1  0  0  0  0
 35 38  1  0  0  0  0
 35 40  1  0  0  0  0
 36 35  1  0  0  0  0
 37 36  1  0  0  0  0
 38 39  1  0  0  0  0
 41 40  1  0  0  0  0
 42 41  2  0  0  0  0
 43 42  1  0  0  0  0
 43 44  1  0  0  0  0
M  END
>  <minimizedAffinity>
-5.25699329

>  <minimizedRMSD>
0.935813546

$$$$
