
     RDKit          3D

 48 49  0  0  0  0  0  0  0  0999 V2000
   46.1567   34.6015   43.6184 C   0  0  0  0  0  0  0  0  0  0  0  0
   46.1420   33.8369   44.7590 C   0  0  0  0  0  0  0  0  0  0  0  0
   45.2984   34.2177   45.7585 C   0  0  0  0  0  0  0  0  0  0  0  0
   44.5175   35.3220   45.5890 N   0  0  0  0  0  0  0  0  0  0  0  0
   44.5306   36.0537   44.4988 C   0  0  0  0  0  0  0  0  0  0  0  0
   45.3500   35.6806   43.5334 N   0  0  0  0  0  0  0  0  0  0  0  0
   47.0137   34.1466   42.5157 C   0  0  0  0  0  0  0  0  0  0  0  0
   48.3981   34.7152   42.6183 C   0  0  0  0  0  0  0  0  0  0  0  0
   48.7231   35.6138   41.5098 C   0  0  0  0  0  0  0  0  0  0  0  0
   48.5442   34.9338   40.1694 C   0  0  0  0  0  0  0  0  0  0  0  0
   47.3011   34.1389   40.0669 C   0  0  0  0  0  0  0  0  0  0  0  0
   46.3567   34.4281   41.2126 C   0  0  0  0  0  0  0  0  0  0  0  0
   46.8232   32.7472   45.0988 O   0  0  0  0  0  0  0  0  0  0  0  0
   47.1773   32.1737   46.2955 C   0  0  0  0  0  0  0  0  0  0  0  0
   47.2253   30.6612   46.2715 C   0  0  0  0  0  0  0  0  0  0  0  0
   46.0092   30.0842   45.7455 N   0  0  0  0  0  0  0  0  0  0  0  0
   45.1779   29.3237   47.0791 S   0  0  0  0  0  0  0  0  0  0  0  0
   44.0424   28.4794   46.5866 O   0  0  0  0  0  0  0  0  0  0  0  0
   44.6726   30.4228   47.9639 O   0  0  0  0  0  0  0  0  0  0  0  0
   46.2318   28.4029   47.9834 O   0  0  0  0  0  0  0  0  0  0  0  0
   45.1290   33.7684   46.7229 H   0  0  0  0  0  0  0  0  0  0  0  0
   43.9037   36.9415   44.3601 H   0  0  0  0  0  0  0  0  0  0  0  0
   47.1903   33.0611   42.6404 H   0  0  0  0  0  0  0  0  0  0  0  0
   49.1774   33.9356   42.6854 H   0  0  0  0  0  0  0  0  0  0  0  0
   48.4634   35.2770   43.5724 H   0  0  0  0  0  0  0  0  0  0  0  0
   48.2174   36.5971   41.5481 H   0  0  0  0  0  0  0  0  0  0  0  0
   49.8208   35.8675   41.5759 H   0  0  0  0  0  0  0  0  0  0  0  0
   48.4768   35.7608   39.4123 H   0  0  0  0  0  0  0  0  0  0  0  0
   49.4430   34.2976   40.0005 H   0  0  0  0  0  0  0  0  0  0  0  0
   47.5253   33.0392   40.1021 H   0  0  0  0  0  0  0  0  0  0  0  0
   46.7200   34.3047   39.1331 H   0  0  0  0  0  0  0  0  0  0  0  0
   46.1649   35.5345   41.1500 H   0  0  0  0  0  0  0  0  0  0  0  0
   45.4058   33.8880   41.0653 H   0  0  0  0  0  0  0  0  0  0  0  0
   46.6182   32.4816   47.1868 H   0  0  0  0  0  0  0  0  0  0  0  0
   48.2424   32.4865   46.5066 H   0  0  0  0  0  0  0  0  0  0  0  0
   47.4674   30.3032   47.2785 H   0  0  0  0  0  0  0  0  0  0  0  0
   48.0394   30.3504   45.5589 H   0  0  0  0  0  0  0  0  0  0  0  0
   45.3327   30.7874   45.4416 H   0  0  0  0  0  0  0  0  0  0  0  0
   44.1630   27.6938   45.9986 H   0  0  0  0  0  0  0  0  0  0  0  0
   44.6177   30.3055   48.9436 H   0  0  0  0  0  0  0  0  0  0  0  0
   47.3962   27.8348   47.5473 C   0  0  0  0  0  0  0  0  0  0  0  0
   48.6596   27.5245   47.7941 C   0  0  0  0  0  0  0  0  0  0  0  0
   49.5381   26.8314   46.8435 C   0  0  0  0  0  0  0  0  0  0  0  0
   49.6566   25.7506   47.0095 H   0  0  0  0  0  0  0  0  0  0  0  0
   46.5044   27.8675   46.9352 H   0  0  0  0  0  0  0  0  0  0  0  0
   48.9288   27.8565   48.7829 H   0  0  0  0  0  0  0  0  0  0  0  0
   49.1319   26.9606   45.8109 H   0  0  0  0  0  0  0  0  0  0  0  0
   50.5310   27.3393   46.9010 H   0  0  0  0  0  0  0  0  0  0  0  0
  1  2  2  0
  2 13  1  0
  2  3  1  0
  4  3  2  0
  5  4  1  0
  6  1  1  0
  6  5  2  0
  7  8  1  0
  7  1  1  0
  9  8  1  0
 10  9  1  0
 11 10  1  0
 11 12  1  0
 12  7  1  0
 13 14  1  0
 15 14  1  0
 16 15  1  0
 16 17  1  0
 17 19  1  0
 17 20  1  0
 18 17  1  0
  3 21  1  0
  5 22  1  0
  7 23  1  0
  8 24  1  0
  8 25  1  0
  9 26  1  0
  9 27  1  0
 10 28  1  0
 10 29  1  0
 11 30  1  0
 11 31  1  0
 12 32  1  0
 12 33  1  0
 14 34  1  0
 14 35  1  0
 15 36  1  0
 15 37  1  0
 16 38  1  0
 18 39  1  0
 19 40  1  0
 41 42  2  3
 42 43  1  0
 43 44  1  0
 41 45  1  0
 42 46  1  0
 43 47  1  0
 43 48  1  0
 20 41  1  0
M  ISO  8  21  14  22  14  23  13  24  13  25  13  26  13  27  13  28  13
M  ISO  8  29  13  30  13  31  13  32  13  33  13  34   8  35   8  36   8
M  ISO  5  37   8  38   5  39   3  40   3  44   8
M  END
>  <DihAtoms>  (1) 
16,19,40,41

>  <DihDeg>  (1) 
-9.115369262173294

$$$$
