
 OpenBabel03252504083D

 17 17  0  0  0  0  0  0  0  0999 V2000
   47.3940   32.9500   42.7040 C   0  0  0  0  0  0  0  0  0  0  0  0
   48.2310   33.6310   41.8110 C   0  0  0  0  0  0  0  0  0  0  0  0
   49.4930   33.0820   41.5550 C   0  0  0  0  0  0  0  0  0  0  0  0
   49.8450   31.9310   42.1750 N   0  0  0  0  0  0  0  0  0  0  0  0
   49.0080   31.3100   43.0270 C   0  0  0  0  0  0  0  0  0  0  0  0
   47.7750   31.8100   43.3020 N   0  0  0  0  0  0  0  0  0  0  0  0
   50.1420   33.6040   40.8670 H   0  0  0  0  0  0  0  0  0  0  0  0
   49.3880   30.4140   43.4570 H   0  0  0  0  0  0  0  0  0  0  0  0
   47.7460   34.8860   41.1880 C   0  0  0  0  0  0  0  0  0  0  0  0
   46.5100   34.6740   40.5900 F   0  0  0  0  0  0  0  0  0  0  0  0
   47.5460   35.8160   42.1960 F   0  0  0  0  0  0  0  0  0  0  0  0
   48.5830   35.3950   40.2370 F   0  0  0  0  0  0  0  0  0  0  0  0
   46.1670   33.4820   42.9500 O   0  0  0  0  0  0  0  0  0  0  0  0
   45.8210   33.6610   44.2940 C   0  0  0  0  0  3  0  0  0  0  0  0
   45.1700   34.6640   44.8230 C   0  0  0  0  0  3  0  0  0  0  0  0
   44.7330   35.7540   43.9360 C   0  0  0  0  0  2  0  0  0  0  0  0
   45.5820   36.4600   43.7860 H   0  0  0  0  0  0  0  0  0  0  0  0
  1 13  1  0  0  0  0
  1  6  1  0  0  0  0
  2  1  2  0  0  0  0
  3  2  1  0  0  0  0
  3  4  2  0  0  0  0
  4  5  1  0  0  0  0
  5  6  2  0  0  0  0
  5  8  1  0  0  0  0
  7  3  1  0  0  0  0
  9  2  1  0  0  0  0
  9 11  1  0  0  0  0
 10  9  1  0  0  0  0
 12  9  1  0  0  0  0
 13 14  1  0  0  0  0
 14 15  2  0  0  0  0
 16 15  1  0  0  0  0
 17 16  1  0  0  0  0
M  END
>  <minimizedAffinity>
-3.73735046

>  <minimizedRMSD>
3.49937201

$$$$
