
 OpenBabel03242514193D

 44 45  0  0  0  0  0  0  0  0999 V2000
   46.1630   34.5660   43.6110 C   0  0  0  0  0  0  0  0  0  0  0  0
   46.1550   33.7980   44.7490 C   0  0  0  0  0  0  0  0  0  0  0  0
   45.3250   34.1810   45.7590 C   0  0  0  0  0  0  0  0  0  0  0  0
   44.5500   35.2910   45.6020 N   0  0  0  0  0  0  0  0  0  0  0  0
   44.5570   36.0260   44.5150 C   0  0  0  0  0  0  0  0  0  0  0  0
   45.3620   35.6510   43.5380 N   0  0  0  0  0  0  0  0  0  0  0  0
   45.1640   33.7290   46.7240 H   0  0  0  0  0  0  0  0  0  0  0  0
   43.9340   36.9180   44.3860 H   0  0  0  0  0  0  0  0  0  0  0  0
   47.0050   34.1090   42.4980 C   0  0  0  0  0  0  0  0  0  0  0  0
   48.3920   34.6730   42.5830 C   0  0  0  0  0  0  0  0  0  0  0  0
   48.7050   35.5720   41.4710 C   0  0  0  0  0  0  0  0  0  0  0  0
   48.5070   34.8930   40.1320 C   0  0  0  0  0  0  0  0  0  0  0  0
   47.2610   34.1020   40.0450 C   0  0  0  0  0  0  0  0  0  0  0  0
   46.3320   34.3930   41.2030 C   0  0  0  0  0  0  0  0  0  0  0  0
   47.1790   33.0230   42.6190 H   0  0  0  0  0  0  0  0  0  0  0  0
   49.1690   33.8920   42.6390 H   0  0  0  0  0  0  0  0  0  0  0  0
   48.4700   35.2350   43.5360 H   0  0  0  0  0  0  0  0  0  0  0  0
   48.2030   36.5560   41.5160 H   0  0  0  0  0  0  0  0  0  0  0  0
   49.8050   35.8220   41.5230 H   0  0  0  0  0  0  0  0  0  0  0  0
   48.4330   35.7210   39.3760 H   0  0  0  0  0  0  0  0  0  0  0  0
   49.4020   34.2540   39.9520 H   0  0  0  0  0  0  0  0  0  0  0  0
   47.4820   33.0010   40.0770 H   0  0  0  0  0  0  0  0  0  0  0  0
   46.6680   34.2700   39.1190 H   0  0  0  0  0  0  0  0  0  0  0  0
   46.1430   35.5010   41.1430 H   0  0  0  0  0  0  0  0  0  0  0  0
   45.3780   33.8560   41.0670 H   0  0  0  0  0  0  0  0  0  0  0  0
   46.8330   32.7020   45.0780 O   0  0  0  0  0  0  0  0  0  0  0  0
   47.2610   32.1620   46.2650 C   0  0  0  0  0  0  0  0  0  0  0  0
   46.8350   32.5720   47.1890 H   0  0  0  0  0  0  0  0  0  0  0  0
   48.3680   32.3770   46.3440 H   0  0  0  0  0  0  0  0  0  0  0  0
   47.1640   30.6530   46.3350 C   0  0  0  0  0  0  0  0  0  0  0  0
   47.1640   30.3500   47.3880 H   0  0  0  0  0  0  0  0  0  0  0  0
   48.0690   30.2220   45.8220 H   0  0  0  0  0  0  0  0  0  0  0  0
   46.0270   30.1440   45.6020 N   0  0  0  0  0  0  0  0  0  0  0  0
   45.5210   30.8730   45.0960 H   0  0  0  0  0  0  0  0  0  0  0  0
   44.8460   29.6230   46.7770 S   0  0  0  0  0  0  0  0  0  0  0  0
   43.6200   29.0900   46.1000 O   0  0  0  0  0  0  0  0  0  0  0  0
   43.6250   28.2980   45.5100 H   0  0  0  0  0  0  0  0  0  0  0  0
   44.5080   30.8170   47.6170 O   0  0  0  0  0  0  0  0  0  0  0  0
   44.2820   30.7200   48.5750 H   0  0  0  0  0  0  0  0  0  0  0  0
   45.4920   28.4690   47.7910 O   0  0  0  0  0  0  0  0  0  0  0  0
   45.9350   27.2270   47.4330 C   0  0  0  0  0  3  0  0  0  0  0  0
   46.6300   26.1450   47.7480 C   0  0  0  0  0  3  0  0  0  0  0  0
   46.7790   24.9780   46.8690 C   0  0  0  0  0  2  0  0  0  0  0  0
   46.1140   24.1290   47.0920 H   0  0  0  0  0  0  0  0  0  0  0  0
  1  2  1  0  0  0  0
  2 26  1  0  0  0  0
  2  3  2  0  0  0  0
  3  7  1  0  0  0  0
  4  3  1  0  0  0  0
  5  4  2  0  0  0  0
  6  1  2  0  0  0  0
  6  5  1  0  0  0  0
  8  5  1  0  0  0  0
  9 10  1  0  0  0  0
  9 15  1  0  0  0  0
  9  1  1  0  0  0  0
 10 16  1  0  0  0  0
 10 17  1  0  0  0  0
 11 18  1  0  0  0  0
 11 19  1  0  0  0  0
 11 10  1  0  0  0  0
 12 11  1  0  0  0  0
 13 22  1  0  0  0  0
 13 12  1  0  0  0  0
 13 14  1  0  0  0  0
 14  9  1  0  0  0  0
 20 12  1  0  0  0  0
 21 12  1  0  0  0  0
 23 13  1  0  0  0  0
 24 14  1  0  0  0  0
 25 14  1  0  0  0  0
 26 27  1  0  0  0  0
 27 30  1  0  0  0  0
 27 29  1  0  0  0  0
 27 28  1  0  0  0  0
 30 31  1  0  0  0  0
 32 30  1  0  0  0  0
 33 30  1  0  0  0  0
 33 35  1  0  0  0  0
 34 33  1  0  0  0  0
 35 38  1  0  0  0  0
 35 40  1  0  0  0  0
 36 35  1  0  0  0  0
 37 36  1  0  0  0  0
 38 39  1  0  0  0  0
 41 42  2  0  0  0  0
 41 40  1  0  0  0  0
 43 44  1  0  0  0  0
 43 42  1  0  0  0  0
M  END
>  <minimizedAffinity>
-5.29799652

>  <minimizedRMSD>
0.933003008

$$$$
