
 OpenBabel03242514233D

 33 36  0  0  0  0  0  0  0  0999 V2000
   44.7850   33.1320   41.1140 Cl  0  0  0  0  0  0  0  0  0  0  0  0
   46.3200   33.9540   40.9040 C   0  0  0  0  0  0  0  0  0  0  0  0
   46.8340   34.7110   41.9160 C   0  0  0  0  0  0  0  0  0  0  0  0
   48.0520   35.3700   41.7630 C   0  0  0  0  0  0  0  0  0  0  0  0
   48.6900   35.2170   40.5640 C   0  0  0  0  0  0  0  0  0  0  0  0
   48.1680   34.4510   39.5440 C   0  0  0  0  0  0  0  0  0  0  0  0
   46.9740   33.8130   39.7090 C   0  0  0  0  0  0  0  0  0  0  0  0
   48.4820   35.9720   42.5430 H   0  0  0  0  0  0  0  0  0  0  0  0
   49.6510   35.6840   40.3300 H   0  0  0  0  0  0  0  0  0  0  0  0
   48.6700   34.3230   38.5850 H   0  0  0  0  0  0  0  0  0  0  0  0
   45.6030   34.0380   45.3230 C   0  0  0  0  0  0  0  0  0  0  0  0
   44.7180   35.1040   45.5320 C   0  0  0  0  0  0  0  0  0  0  0  0
   44.5490   36.0370   44.5180 C   0  0  0  0  0  0  0  0  0  0  0  0
   45.2490   35.8700   43.3740 N   0  0  0  0  0  0  0  0  0  0  0  0
   46.1020   34.8370   43.1790 C   0  0  0  0  0  0  0  0  0  0  0  0
   46.2840   33.9130   44.1570 N   0  0  0  0  0  0  0  0  0  0  0  0
   45.7220   33.3160   46.1320 H   0  0  0  0  0  0  0  0  0  0  0  0
   44.1520   35.2660   46.4200 H   0  0  0  0  0  0  0  0  0  0  0  0
   43.9210   36.8980   44.5140 H   0  0  0  0  0  0  0  0  0  0  0  0
   46.3930   32.9950   38.6510 C   0  0  0  0  0  0  0  0  0  0  0  0
   45.4740   33.3590   37.7480 N   0  0  0  0  0  0  0  0  0  0  0  0
   45.2030   32.3140   36.9470 C   0  0  0  0  0  0  0  0  0  0  0  0
   45.9620   31.2710   37.3500 N   0  0  0  0  0  0  0  0  0  0  0  0
   46.6880   31.6990   38.3960 N   0  0  0  0  0  0  0  0  0  0  0  0
   44.5380   32.1990   36.1180 H   0  0  0  0  0  0  0  0  0  0  0  0
   46.1110   29.9270   36.9010 C   0  0  0  0  0  0  0  0  0  0  0  0
   44.9490   29.2560   36.5030 C   0  0  0  0  0  0  0  0  0  0  0  0
   43.9030   29.5360   36.4530 H   0  0  0  0  0  0  0  0  0  0  0  0
   45.3500   27.9800   36.1130 C   0  0  0  0  0  0  0  0  0  0  0  0
   44.8390   27.0980   35.7330 H   0  0  0  0  0  0  0  0  0  0  0  0
   46.7370   27.9550   36.3000 C   0  0  0  0  0  0  0  0  0  0  0  0
   47.5110   27.2050   36.1480 H   0  0  0  0  0  0  0  0  0  0  0  0
   47.1390   29.1250   36.7660 O   0  0  0  0  0  0  0  0  0  0  0  0
  2  1  1  0  0  0  0
  2  3  1  0  0  0  0
  3 15  1  0  0  0  0
  4  3  2  0  0  0  0
  4  8  1  0  0  0  0
  5  4  1  0  0  0  0
  6  7  1  0  0  0  0
  6  5  2  0  0  0  0
  7  2  2  0  0  0  0
  9  5  1  0  0  0  0
 10  6  1  0  0  0  0
 11 12  1  0  0  0  0
 11 17  1  0  0  0  0
 12 18  1  0  0  0  0
 13 12  2  0  0  0  0
 14 13  1  0  0  0  0
 15 14  2  0  0  0  0
 15 16  1  0  0  0  0
 16 11  2  0  0  0  0
 19 13  1  0  0  0  0
 20  7  1  0  0  0  0
 21 20  1  0  0  0  0
 22 23  1  0  0  0  0
 22 21  2  0  0  0  0
 23 24  1  0  0  0  0
 24 20  2  0  0  0  0
 25 22  1  0  0  0  0
 26 23  1  0  0  0  0
 27 26  2  0  0  0  0
 28 27  1  0  0  0  0
 29 31  2  0  0  0  0
 29 27  1  0  0  0  0
 30 29  1  0  0  0  0
 31 33  1  0  0  0  0
 32 31  1  0  0  0  0
 33 26  1  0  0  0  0
M  END
>  <minimizedAffinity>
-5.31550789

>  <minimizedRMSD>
0.14891158

$$$$
