
 OpenBabel03252505403D

 27 29  0  0  1  0  0  0  0  0999 V2000
   45.2010   35.2540   44.0110 C   0  0  1  0  0  0  0  0  0  0  0  0
   45.1600   36.4710   43.0770 C   0  0  0  0  0  0  0  0  0  0  0  0
   44.0880   35.4330   43.0810 C   0  0  1  0  0  0  0  0  0  0  0  0
   45.0510   35.4710   45.0920 H   0  0  0  0  0  0  0  0  0  0  0  0
   45.9300   36.5040   42.2920 H   0  0  0  0  0  0  0  0  0  0  0  0
   45.0040   37.4320   43.6060 H   0  0  0  0  0  0  0  0  0  0  0  0
   43.1150   35.7880   43.5370 H   0  0  0  0  0  0  0  0  0  0  0  0
   46.3230   34.3220   43.7800 C   0  0  0  0  0  0  0  0  0  0  0  0
   46.1890   33.0270   44.3420 C   0  0  0  0  0  0  0  0  0  0  0  0
   47.2170   32.1250   44.1260 C   0  0  0  0  0  0  0  0  0  0  0  0
   48.2930   32.5380   43.3860 N   0  0  0  0  0  0  0  0  0  0  0  0
   48.3770   33.7760   42.8730 C   0  0  0  0  0  0  0  0  0  0  0  0
   47.3860   34.6610   43.0760 N   0  0  0  0  0  0  0  0  0  0  0  0
   45.3650   32.6590   44.9400 H   0  0  0  0  0  0  0  0  0  0  0  0
   47.1680   31.1290   44.5300 H   0  0  0  0  0  0  0  0  0  0  0  0
   49.6340   34.0200   42.0980 C   0  0  0  0  0  0  0  0  0  0  0  0
   49.7970   35.3470   41.7920 F   0  0  0  0  0  0  0  0  0  0  0  0
   49.6130   33.2840   40.9110 F   0  0  0  0  0  0  0  0  0  0  0  0
   50.7130   33.5290   42.8290 F   0  0  0  0  0  0  0  0  0  0  0  0
   43.9760   34.7610   41.7570 C   0  0  0  0  0  0  0  0  0  0  0  0
   42.7340   34.3770   41.2940 C   0  0  0  0  0  0  0  0  0  0  0  0
   41.7260   34.4680   41.7280 H   0  0  0  0  0  0  0  0  0  0  0  0
   42.8980   33.7820   40.0510 C   0  0  0  0  0  0  0  0  0  0  0  0
   42.1830   33.3500   39.3590 H   0  0  0  0  0  0  0  0  0  0  0  0
   44.2440   33.8380   39.8270 C   0  0  0  0  0  0  0  0  0  0  0  0
   44.7370   33.4610   38.9410 H   0  0  0  0  0  0  0  0  0  0  0  0
   44.8260   34.4070   40.8290 O   0  0  0  0  0  0  0  0  0  0  0  0
  1  4  1  1  0  0  0
  2  3  1  0  0  0  0
  2  6  1  0  0  0  0
  2  1  1  0  0  0  0
  3  7  1  1  0  0  0
  3  1  1  0  0  0  0
  5  2  1  0  0  0  0
  8  1  1  0  0  0  0
  8  9  1  0  0  0  0
  9 14  1  0  0  0  0
 10  9  2  0  0  0  0
 10 15  1  0  0  0  0
 11 10  1  0  0  0  0
 12 13  1  0  0  0  0
 12 11  2  0  0  0  0
 13  8  2  0  0  0  0
 16 19  1  0  0  0  0
 16 12  1  0  0  0  0
 17 16  1  0  0  0  0
 18 16  1  0  0  0  0
 20  3  1  0  0  0  0
 21 22  1  0  0  0  0
 21 20  2  0  0  0  0
 23 21  1  0  0  0  0
 24 23  1  0  0  0  0
 25 23  2  0  0  0  0
 25 27  1  0  0  0  0
 26 25  1  0  0  0  0
 27 20  1  0  0  0  0
M  END
>  <minimizedAffinity>
-4.561306

>  <minimizedRMSD>
4.53505135

$$$$
