
 OpenBabel03252508503D

 27 29  0  0  0  0  0  0  0  0999 V2000
   45.9700   34.1890   41.0370 C   0  0  0  0  0  0  0  0  0  0  0  0
   46.5460   34.8090   42.1370 C   0  0  0  0  0  0  0  0  0  0  0  0
   47.8970   35.1800   42.0130 C   0  0  0  0  0  0  0  0  0  0  0  0
   48.5360   34.9100   40.8450 N   0  0  0  0  0  0  0  0  0  0  0  0
   47.9410   34.3130   39.8200 C   0  0  0  0  0  0  0  0  0  0  0  0
   46.6510   33.9480   39.9070 N   0  0  0  0  0  0  0  0  0  0  0  0
   48.3680   35.6600   42.8430 H   0  0  0  0  0  0  0  0  0  0  0  0
   48.4160   34.0810   38.8700 H   0  0  0  0  0  0  0  0  0  0  0  0
   45.7630   35.0470   43.3340 C   0  0  0  0  0  0  0  0  0  0  0  0
   45.0670   36.2140   43.5630 C   0  0  0  0  0  0  0  0  0  0  0  0
   44.4820   36.0160   44.7910 C   0  0  0  0  0  0  0  0  0  0  0  0
   44.8000   34.8020   45.2840 N   0  0  0  0  0  0  0  0  0  0  0  0
   45.5750   34.2370   44.3840 N   0  0  0  0  0  0  0  0  0  0  0  0
   44.9490   37.1180   42.9800 H   0  0  0  0  0  0  0  0  0  0  0  0
   43.8330   36.6630   45.3900 H   0  0  0  0  0  0  0  0  0  0  0  0
   44.5780   34.2690   46.1520 H   0  0  0  0  0  0  0  0  0  0  0  0
   44.6420   33.8100   41.1210 O   0  0  0  0  0  0  0  0  0  0  0  0
   43.5630   34.4290   40.5580 C   0  0  0  0  0  0  0  0  0  0  0  0
   43.2610   35.6760   40.6370 O   0  0  0  0  0  0  0  0  0  0  0  0
   42.5400   33.7080   39.7410 C   0  0  0  0  0  0  0  0  0  0  0  0
   41.7350   34.2250   38.7180 C   0  0  0  0  0  0  0  0  0  0  0  0
   41.8070   35.2840   38.4240 H   0  0  0  0  0  0  0  0  0  0  0  0
   40.9060   33.2610   38.1910 C   0  0  0  0  0  0  0  0  0  0  0  0
   40.1880   33.3940   37.3940 H   0  0  0  0  0  0  0  0  0  0  0  0
   41.2500   32.1540   38.9380 C   0  0  0  0  0  0  0  0  0  0  0  0
   40.7980   31.1600   38.8140 H   0  0  0  0  0  0  0  0  0  0  0  0
   42.1650   32.4560   39.7880 O   0  0  0  0  0  0  0  0  0  0  0  0
  1 17  1  0  0  0  0
  1  2  1  0  0  0  0
  2  9  1  0  0  0  0
  3  2  2  0  0  0  0
  3  7  1  0  0  0  0
  4  3  1  0  0  0  0
  5  6  1  0  0  0  0
  5  4  2  0  0  0  0
  6  1  2  0  0  0  0
  8  5  1  0  0  0  0
  9 10  1  0  0  0  0
  9 13  2  0  0  0  0
 10 11  2  0  0  0  0
 11 12  1  0  0  0  0
 11 15  1  0  0  0  0
 12 16  1  0  0  0  0
 13 12  1  0  0  0  0
 14 10  1  0  0  0  0
 18 19  2  0  0  0  0
 18 17  1  0  0  0  0
 20 27  1  0  0  0  0
 20 18  1  0  0  0  0
 21 20  2  0  0  0  0
 22 21  1  0  0  0  0
 23 21  1  0  0  0  0
 23 25  2  0  0  0  0
 24 23  1  0  0  0  0
 25 27  1  0  0  0  0
 26 25  1  0  0  0  0
M  END
>  <minimizedAffinity>
-5.05088806

>  <minimizedRMSD>
0.372265458

$$$$
