REMARK  Name = 
REMARK  4 active torsions:
REMARK  status: ('A' for Active; 'I' for Inactive)
REMARK    1  A    between atoms: C_3  and  C_10
REMARK    2  A    between atoms: C_4  and  C_15
REMARK    3  A    between atoms: C_14  and  S_20
REMARK    4  A    between atoms: S_20  and  C_33
REMARK                            x       y       z     vdW  Elec       q    Type
REMARK                         _______ _______ _______ _____ _____    ______ ____
ROOT
ATOM      1  C   UNL     1      47.804  31.875  38.989  0.00  0.00    +0.000 A 
ATOM      2  C   UNL     1      47.238  33.108  38.873  0.00  0.00    +0.000 A 
ATOM      3  C   UNL     1      47.761  34.032  37.982  0.00  0.00    +0.000 A 
ATOM      4  C   UNL     1      48.853  33.700  37.215  0.00  0.00    +0.000 A 
ATOM      5  C   UNL     1      49.461  32.449  37.301  0.00  0.00    +0.000 A 
ATOM      6  C   UNL     1      48.913  31.536  38.209  0.00  0.00    +0.000 A 
ATOM      7  H   UNL     1      47.343  35.020  37.860  0.00  0.00    +0.000 HD
ATOM      8  H   UNL     1      49.344  34.329  36.493  0.00  0.00    +0.000 HD
ATOM      9  H   UNL     1      50.306  32.124  36.739  0.00  0.00    +0.000 HD
ATOM     10  H   UNL     1      49.360  30.548  38.306  0.00  0.00    +0.000 HD
ENDROOT
BRANCH   2  14
ATOM     11 CL   UNL     1      45.285  35.291  43.125  0.00  0.00    +0.000 Cl
ATOM     12  C   UNL     1      45.165  34.545  41.553  0.00  0.00    +0.000 A 
ATOM     13  C   UNL     1      46.274  34.157  40.874  0.00  0.00    +0.000 A 
ATOM     14  C   UNL     1      46.074  33.556  39.640  0.00  0.00    +0.000 A 
ATOM     15  C   UNL     1      44.815  33.361  39.125  0.00  0.00    +0.000 A 
ATOM     16  C   UNL     1      43.718  33.756  39.818  0.00  0.00    +0.000 A 
ATOM     17  C   UNL     1      43.904  34.351  41.041  0.00  0.00    +0.000 A 
ATOM     18  H   UNL     1      44.723  32.890  38.161  0.00  0.00    +0.000 HD
ATOM     19  H   UNL     1      42.739  33.589  39.386  0.00  0.00    +0.000 HD
ATOM     20  H   UNL     1      43.009  34.658  41.576  0.00  0.00    +0.000 HD
BRANCH  13  23
ATOM     21  C   UNL     1      49.544  35.744  41.889  0.00  0.00    +0.000 A 
ATOM     22  C   UNL     1      48.283  35.547  41.311  0.00  0.00    +0.000 A 
ATOM     23  C   UNL     1      47.575  34.372  41.466  0.00  0.00    +0.000 A 
ATOM     24  N   UNL     1      48.198  33.430  42.220  0.00  0.00    +0.000 NA
ATOM     25  C   UNL     1      49.403  33.610  42.776  0.00  0.00    +0.000 A 
ATOM     26  N   UNL     1      50.066  34.758  42.609  0.00  0.00    +0.000 NA
ATOM     27  H   UNL     1      50.024  36.699  41.712  0.00  0.00    +0.000 HD
ATOM     28  H   UNL     1      47.833  36.331  40.721  0.00  0.00    +0.000 HD
ATOM     29  H   UNL     1      49.751  32.757  43.345  0.00  0.00    +0.000 HD
ENDBRANCH  13  23
ENDBRANCH   2  14
BRANCH   1  30
ATOM     30  S   UNL     1      47.169  30.716  40.032  0.00  0.00    +0.000 S 
ATOM     31  O   UNL     1      46.791  29.439  39.314  0.00  0.00    +0.000 OA
ATOM     32  O   UNL     1      48.410  30.271  40.892  0.00  0.00    +0.000 OA
BRANCH  30  33
ATOM     33  C   UNL     1      45.929  31.016  41.188  0.00  0.00    +0.000 A 
ATOM     34  C   UNL     1      46.263  31.141  42.562  0.00  0.00    +0.000 A 
ATOM     35  H   UNL     1      47.260  31.071  43.043  0.00  0.00    +0.000 HD
ATOM     36  C   UNL     1      45.178  31.378  43.373  0.00  0.00    +0.000 A 
ATOM     37  H   UNL     1      45.118  31.514  44.424  0.00  0.00    +0.000 HD
ATOM     38  C   UNL     1      44.179  31.394  42.453  0.00  0.00    +0.000 A 
ATOM     39  H   UNL     1      43.100  31.552  42.608  0.00  0.00    +0.000 HD
ATOM     40  O   UNL     1      44.636  31.194  41.288  0.00  0.00    +0.000 OA
ENDBRANCH  30  33
ENDBRANCH   1  30
TORSDOF 4
