
 OpenBabel03252508463D

 44 46  0  0  0  0  0  0  0  0999 V2000
   42.9800   32.5200   41.6220 C   0  0  0  0  0  0  0  0  0  0  0  0
   43.3960   32.1440   40.6400 H   0  0  0  0  0  0  0  0  0  0  0  0
   42.0220   33.0430   41.3970 H   0  0  0  0  0  0  0  0  0  0  0  0
   43.7770   34.8670   41.9200 C   0  0  0  0  0  0  0  0  0  0  0  0
   43.9060   33.5160   42.2240 C   0  0  0  0  0  0  0  0  0  0  0  0
   44.9050   33.1470   43.0860 C   0  0  0  0  0  0  0  0  0  0  0  0
   45.7440   34.0780   43.6290 C   0  0  0  0  0  0  0  0  0  0  0  0
   45.6320   35.4060   43.3420 C   0  0  0  0  0  0  0  0  0  0  0  0
   44.6120   35.7530   42.4650 C   0  0  0  0  0  0  0  0  0  0  0  0
   44.9950   32.0850   43.3160 H   0  0  0  0  0  0  0  0  0  0  0  0
   46.5400   33.7970   44.3130 H   0  0  0  0  0  0  0  0  0  0  0  0
   46.2500   36.2080   43.7230 H   0  0  0  0  0  0  0  0  0  0  0  0
   44.4630   36.7940   42.1900 H   0  0  0  0  0  0  0  0  0  0  0  0
   40.4900   36.0100   40.4350 C   0  0  0  0  0  0  0  0  0  0  0  0
   41.4640   35.7060   41.4020 C   0  0  0  0  0  0  0  0  0  0  0  0
   42.6950   35.2150   40.9940 C   0  0  0  0  0  0  0  0  0  0  0  0
   42.8930   35.0520   39.6590 N   0  0  0  0  0  0  0  0  0  0  0  0
   41.9460   35.3480   38.7390 C   0  0  0  0  0  0  0  0  0  0  0  0
   40.7560   35.8240   39.1360 N   0  0  0  0  0  0  0  0  0  0  0  0
   39.5320   36.3940   40.7670 H   0  0  0  0  0  0  0  0  0  0  0  0
   41.2930   35.8400   42.4600 H   0  0  0  0  0  0  0  0  0  0  0  0
   42.2020   35.1820   37.6910 H   0  0  0  0  0  0  0  0  0  0  0  0
   42.6550   31.4170   42.4900 N   0  0  0  0  0  0  0  0  0  0  0  0
   42.9560   31.6560   43.4660 H   0  0  0  0  0  0  0  0  0  0  0  0
   40.9640   31.1540   42.5860 S   0  0  0  0  0  0  0  0  0  0  0  0
   40.2100   32.4510   42.5260 O   0  0  0  0  0  0  0  0  0  0  0  0
   39.3650   32.6170   42.0130 H   0  0  0  0  0  0  0  0  0  0  0  0
   40.6110   30.4070   43.8230 O   0  0  0  0  0  0  0  0  0  0  0  0
   40.6760   30.8690   44.7180 H   0  0  0  0  0  0  0  0  0  0  0  0
   40.5360   30.2120   41.2670 O   0  0  0  0  0  0  0  0  0  0  0  0
   39.2010   29.8930   41.3500 C   0  0  0  0  0  0  0  0  0  0  0  0
   38.6720   30.5630   42.0340 H   0  0  0  0  0  0  0  0  0  0  0  0
   38.9780   28.8680   41.6730 H   0  0  0  0  0  0  0  0  0  0  0  0
   38.5780   29.9830   39.9470 C   0  0  0  0  0  0  0  0  0  0  0  0
   39.1470   29.4070   39.2190 H   0  0  0  0  0  0  0  0  0  0  0  0
   37.5500   29.5330   40.0250 H   0  0  0  0  0  0  0  0  0  0  0  0
   38.4400   31.3970   39.5570 C   0  0  0  0  0  0  0  0  0  0  0  0
   38.5080   31.9020   38.2880 C   0  0  0  0  0  0  0  0  0  0  0  0
   38.6730   31.3590   37.3550 H   0  0  0  0  0  0  0  0  0  0  0  0
   38.3200   33.2800   38.4160 C   0  0  0  0  0  0  0  0  0  0  0  0
   38.3310   33.9220   37.5320 H   0  0  0  0  0  0  0  0  0  0  0  0
   38.1480   33.5200   39.7760 C   0  0  0  0  0  0  0  0  0  0  0  0
   37.9910   34.5600   40.0260 H   0  0  0  0  0  0  0  0  0  0  0  0
   38.2250   32.3840   40.4180 O   0  0  0  0  0  0  0  0  0  0  0  0
  1  5  1  0  0  0  0
  1 23  1  0  0  0  0
  2  1  1  0  0  0  0
  3  1  1  0  0  0  0
  4  5  2  0  0  0  0
  4  9  1  0  0  0  0
  5  6  1  0  0  0  0
  6 10  1  0  0  0  0
  6  7  2  0  0  0  0
  7 11  1  0  0  0  0
  8  7  1  0  0  0  0
  8 12  1  0  0  0  0
  9  8  2  0  0  0  0
 13  9  1  0  0  0  0
 14 20  1  0  0  0  0
 14 15  1  0  0  0  0
 15 21  1  0  0  0  0
 16 15  2  0  0  0  0
 16  4  1  0  0  0  0
 17 16  1  0  0  0  0
 18 19  1  0  0  0  0
 18 17  2  0  0  0  0
 19 14  2  0  0  0  0
 22 18  1  0  0  0  0
 23 25  1  0  0  0  0
 23 24  1  0  0  0  0
 25 28  1  0  0  0  0
 26 25  1  0  0  0  0
 27 26  1  0  0  0  0
 28 29  1  0  0  0  0
 30 31  1  0  0  0  0
 30 25  1  0  0  0  0
 31 33  1  0  0  0  0
 31 32  1  0  0  0  0
 34 36  1  0  0  0  0
 34 31  1  0  0  0  0
 35 34  1  0  0  0  0
 37 34  1  0  0  0  0
 37 44  1  0  0  0  0
 38 40  1  0  0  0  0
 38 37  2  0  0  0  0
 39 38  1  0  0  0  0
 40 42  2  0  0  0  0
 41 40  1  0  0  0  0
 42 43  1  0  0  0  0
 42 44  1  0  0  0  0
M  END
>  <minimizedAffinity>
-5.65928078

>  <minimizedRMSD>
2.73488355

$$$$
