
 OpenBabel03242514233D

 33 36  0  0  0  0  0  0  0  0999 V2000
   44.7990   33.1250   41.1110 Cl  0  0  0  0  0  0  0  0  0  0  0  0
   46.3300   33.9540   40.9010 C   0  0  0  0  0  0  0  0  0  0  0  0
   46.8400   34.7140   41.9130 C   0  0  0  0  0  0  0  0  0  0  0  0
   48.0550   35.3780   41.7600 C   0  0  0  0  0  0  0  0  0  0  0  0
   48.6950   35.2270   40.5620 C   0  0  0  0  0  0  0  0  0  0  0  0
   48.1780   34.4570   39.5430 C   0  0  0  0  0  0  0  0  0  0  0  0
   46.9860   33.8140   39.7070 C   0  0  0  0  0  0  0  0  0  0  0  0
   48.4810   35.9840   42.5400 H   0  0  0  0  0  0  0  0  0  0  0  0
   49.6540   35.6980   40.3290 H   0  0  0  0  0  0  0  0  0  0  0  0
   48.6810   34.3310   38.5840 H   0  0  0  0  0  0  0  0  0  0  0  0
   45.6050   34.0370   45.3180 C   0  0  0  0  0  0  0  0  0  0  0  0
   44.7190   35.1030   45.5270 C   0  0  0  0  0  0  0  0  0  0  0  0
   44.5500   36.0360   44.5130 C   0  0  0  0  0  0  0  0  0  0  0  0
   45.2520   35.8710   43.3700 N   0  0  0  0  0  0  0  0  0  0  0  0
   46.1060   34.8390   43.1760 C   0  0  0  0  0  0  0  0  0  0  0  0
   46.2880   33.9140   44.1530 N   0  0  0  0  0  0  0  0  0  0  0  0
   45.7230   33.3150   46.1270 H   0  0  0  0  0  0  0  0  0  0  0  0
   44.1510   35.2620   46.4140 H   0  0  0  0  0  0  0  0  0  0  0  0
   43.9220   36.8960   44.5090 H   0  0  0  0  0  0  0  0  0  0  0  0
   46.4100   32.9920   38.6500 C   0  0  0  0  0  0  0  0  0  0  0  0
   45.5050   33.3580   37.7330 N   0  0  0  0  0  0  0  0  0  0  0  0
   45.2340   32.3080   36.9380 C   0  0  0  0  0  0  0  0  0  0  0  0
   45.9770   31.2610   37.3600 N   0  0  0  0  0  0  0  0  0  0  0  0
   46.6950   31.6920   38.4100 N   0  0  0  0  0  0  0  0  0  0  0  0
   44.5770   32.1910   36.1020 H   0  0  0  0  0  0  0  0  0  0  0  0
   46.1190   29.9120   36.9240 C   0  0  0  0  0  0  0  0  0  0  0  0
   46.1960   28.9280   37.9160 C   0  0  0  0  0  0  0  0  0  0  0  0
   46.1730   28.9520   39.0000 H   0  0  0  0  0  0  0  0  0  0  0  0
   46.3290   27.7110   37.2490 C   0  0  0  0  0  0  0  0  0  0  0  0
   46.4250   26.6720   37.5590 H   0  0  0  0  0  0  0  0  0  0  0  0
   46.3230   28.0340   35.8880 C   0  0  0  0  0  0  0  0  0  0  0  0
   46.3970   27.4560   34.9680 H   0  0  0  0  0  0  0  0  0  0  0  0
   46.1970   29.3430   35.7460 O   0  0  0  0  0  0  0  0  0  0  0  0
  2  1  1  0  0  0  0
  2  3  1  0  0  0  0
  3 15  1  0  0  0  0
  4  3  2  0  0  0  0
  4  8  1  0  0  0  0
  5  4  1  0  0  0  0
  6  7  1  0  0  0  0
  6  5  2  0  0  0  0
  7  2  2  0  0  0  0
  9  5  1  0  0  0  0
 10  6  1  0  0  0  0
 11 12  1  0  0  0  0
 11 17  1  0  0  0  0
 12 18  1  0  0  0  0
 13 12  2  0  0  0  0
 14 13  1  0  0  0  0
 15 14  2  0  0  0  0
 15 16  1  0  0  0  0
 16 11  2  0  0  0  0
 19 13  1  0  0  0  0
 20  7  1  0  0  0  0
 21 20  1  0  0  0  0
 22 23  1  0  0  0  0
 22 21  2  0  0  0  0
 23 24  1  0  0  0  0
 24 20  2  0  0  0  0
 25 22  1  0  0  0  0
 26 23  1  0  0  0  0
 26 27  2  0  0  0  0
 27 28  1  0  0  0  0
 29 30  1  0  0  0  0
 29 27  1  0  0  0  0
 31 29  2  0  0  0  0
 32 31  1  0  0  0  0
 33 31  1  0  0  0  0
 33 26  1  0  0  0  0
M  END
>  <minimizedAffinity>
-5.27180099

>  <minimizedRMSD>
0.126818016

$$$$
