
 OpenBabel03252501153D

 27 29  0  0  1  0  0  0  0  0999 V2000
   46.6110   32.5210   44.0610 C   0  0  1  0  0  0  0  0  0  0  0  0
   46.0800   33.8730   44.4150 C   0  0  0  0  0  0  0  0  0  0  0  0
   47.5500   33.6460   43.9280 C   0  0  2  0  0  0  0  0  0  0  0  0
   46.2190   32.0590   43.1420 H   0  0  0  0  0  0  0  0  0  0  0  0
   45.4140   34.4300   43.7350 H   0  0  0  0  0  0  0  0  0  0  0  0
   46.0370   34.2110   45.4680 H   0  0  0  0  0  0  0  0  0  0  0  0
   48.3420   33.6990   44.6860 H   0  0  0  0  0  0  0  0  0  0  0  0
   46.1440   30.7980   47.3730 C   0  0  0  0  0  0  0  0  0  0  0  0
   45.9180   31.7110   46.3450 C   0  0  0  0  0  0  0  0  0  0  0  0
   46.7470   31.5970   45.2350 C   0  0  0  0  0  0  0  0  0  0  0  0
   47.7140   30.6360   45.1970 N   0  0  0  0  0  0  0  0  0  0  0  0
   47.8910   29.7680   46.2330 C   0  0  0  0  0  0  0  0  0  0  0  0
   47.0990   29.8580   47.3190 N   0  0  0  0  0  0  0  0  0  0  0  0
   45.1550   32.4690   46.3790 H   0  0  0  0  0  0  0  0  0  0  0  0
   48.6810   29.0150   46.1510 H   0  0  0  0  0  0  0  0  0  0  0  0
   45.2690   30.8740   48.5770 C   0  0  0  0  0  0  0  0  0  0  0  0
   46.0560   31.3050   49.6360 F   0  0  0  0  0  0  0  0  0  0  0  0
   44.8230   29.6120   48.8660 F   0  0  0  0  0  0  0  0  0  0  0  0
   44.2580   31.7860   48.4000 F   0  0  0  0  0  0  0  0  0  0  0  0
   47.8000   34.1310   42.5460 C   0  0  0  0  0  0  0  0  0  0  0  0
   47.2890   33.6080   41.3760 C   0  0  0  0  0  0  0  0  0  0  0  0
   46.6280   32.7650   41.2640 H   0  0  0  0  0  0  0  0  0  0  0  0
   47.8390   34.4320   40.4120 C   0  0  0  0  0  0  0  0  0  0  0  0
   47.6580   34.3250   39.3390 H   0  0  0  0  0  0  0  0  0  0  0  0
   48.6460   35.4080   41.0050 C   0  0  0  0  0  0  0  0  0  0  0  0
   49.2090   36.1950   40.5120 H   0  0  0  0  0  0  0  0  0  0  0  0
   48.5690   35.1560   42.2910 O   0  0  0  0  0  0  0  0  0  0  0  0
  1  4  1  6  0  0  0
  1  2  1  0  0  0  0
  1 10  1  0  0  0  0
  2  6  1  0  0  0  0
  3  1  1  0  0  0  0
  3  2  1  0  0  0  0
  3  7  1  1  0  0  0
  5  2  1  0  0  0  0
  8 16  1  0  0  0  0
  9 14  1  0  0  0  0
  9  8  2  0  0  0  0
 10  9  1  0  0  0  0
 11 10  2  0  0  0  0
 11 12  1  0  0  0  0
 12 13  2  0  0  0  0
 13  8  1  0  0  0  0
 15 12  1  0  0  0  0
 16 18  1  0  0  0  0
 16 17  1  0  0  0  0
 19 16  1  0  0  0  0
 20  3  1  0  0  0  0
 21 20  2  0  0  0  0
 22 21  1  0  0  0  0
 23 25  2  0  0  0  0
 23 21  1  0  0  0  0
 24 23  1  0  0  0  0
 25 27  1  0  0  0  0
 26 25  1  0  0  0  0
 27 20  1  0  0  0  0
M  END
>  <minimizedAffinity>
-4.65907526

>  <minimizedRMSD>
4.91577005

$$$$
