REMARK  Name = 
REMARK  3 active torsions:
REMARK  status: ('A' for Active; 'I' for Inactive)
REMARK    1  A    between atoms: C_1  and  C_11
REMARK    2  A    between atoms: C_5  and  C_7
REMARK    3  A    between atoms: C_13  and  C_20
REMARK                            x       y       z     vdW  Elec       q    Type
REMARK                         _______ _______ _______ _____ _____    ______ ____
ROOT
ATOM      1  C   UNL     1      44.606  35.151  43.847  0.00  0.00    +0.000 C 
ATOM      2  C   UNL     1      44.825  36.590  44.334  0.00  0.00    +0.000 C 
ATOM      3  C   UNL     1      45.021  36.191  42.909  0.00  0.00    +0.000 C 
ATOM      4  H   UNL     1      43.550  34.800  43.842  0.00  0.00    +0.000 HD
ATOM      5  H   UNL     1      45.676  36.746  45.013  0.00  0.00    +0.000 HD
ATOM      6  H   UNL     1      43.892  37.101  44.644  0.00  0.00    +0.000 HD
ATOM      7  H   UNL     1      44.217  36.581  42.215  0.00  0.00    +0.000 HD
ENDROOT
BRANCH   1   8
ATOM      8  C   UNL     1      45.524  34.147  44.421  0.00  0.00    +0.000 A 
ATOM      9  C   UNL     1      46.482  33.593  43.534  0.00  0.00    +0.000 A 
ATOM     10  C   UNL     1      47.370  32.663  44.048  0.00  0.00    +0.000 A 
ATOM     11  N   UNL     1      47.268  32.338  45.375  0.00  0.00    +0.000 NA
ATOM     12  C   UNL     1      46.343  32.889  46.178  0.00  0.00    +0.000 A 
ATOM     13  N   UNL     1      45.475  33.793  45.691  0.00  0.00    +0.000 NA
ATOM     14  H   UNL     1      46.595  33.811  42.480  0.00  0.00    +0.000 HD
ATOM     15  H   UNL     1      48.117  32.211  43.420  0.00  0.00    +0.000 HD
BRANCH  12  16
ATOM     16  C   UNL     1      46.405  32.396  47.590  0.00  0.00    +0.000 C 
ATOM     17  F   UNL     1      45.383  32.901  48.353  0.00  0.00    +0.000 F 
ATOM     18  F   UNL     1      47.622  32.761  48.170  0.00  0.00    +0.000 F 
ATOM     19  F   UNL     1      46.393  31.003  47.579  0.00  0.00    +0.000 F 
ENDBRANCH  12  16
ENDBRANCH   1   8
BRANCH   3  20
ATOM     20  C   UNL     1      46.425  36.420  42.469  0.00  0.00    +0.000 A 
ATOM     21  C   UNL     1      46.696  37.422  41.559  0.00  0.00    +0.000 A 
ATOM     22  H   UNL     1      46.044  38.147  41.047  0.00  0.00    +0.000 HD
ATOM     23  C   UNL     1      48.062  37.432  41.315  0.00  0.00    +0.000 A 
ATOM     24  H   UNL     1      48.675  38.055  40.673  0.00  0.00    +0.000 HD
ATOM     25  C   UNL     1      48.550  36.425  42.099  0.00  0.00    +0.000 A 
ATOM     26  H   UNL     1      49.592  36.144  42.161  0.00  0.00    +0.000 HD
ATOM     27  O   UNL     1      47.579  35.870  42.744  0.00  0.00    +0.000 OA
ENDBRANCH   3  20
TORSDOF 3
