
 OpenBabel03242518173D

 22 23  0  0  0  0  0  0  0  0999 V2000
   44.7840   35.5060   45.0180 C   0  0  0  0  0  0  0  0  0  0  0  0
   45.2070   35.9440   43.7540 C   0  0  0  0  0  0  0  0  0  0  0  0
   45.9000   35.0360   42.9680 C   0  0  0  0  0  0  0  0  0  0  0  0
   46.1280   33.7930   43.4490 N   0  0  0  0  0  0  0  0  0  0  0  0
   45.7020   33.4080   44.6790 C   0  0  0  0  0  0  0  0  0  0  0  0
   45.0190   34.2780   45.4720 N   0  0  0  0  0  0  0  0  0  0  0  0
   44.2390   36.1550   45.6860 H   0  0  0  0  0  0  0  0  0  0  0  0
   46.2100   35.3910   42.0120 H   0  0  0  0  0  0  0  0  0  0  0  0
   44.8760   37.2760   43.4220 N   0  0  0  0  0  0  0  0  0  0  0  0
   45.6010   37.8020   42.9160 H   0  0  0  0  0  0  0  0  0  0  0  0
   43.9470   37.6620   43.6890 H   0  0  0  0  0  0  0  0  0  0  0  0
   45.9580   32.0400   45.2010 C   0  0  0  0  0  0  0  0  0  0  0  0
   45.1030   31.4080   44.8870 H   0  0  0  0  0  0  0  0  0  0  0  0
   46.8800   31.6730   44.7110 H   0  0  0  0  0  0  0  0  0  0  0  0
   46.1130   32.0680   46.6970 C   0  0  0  0  0  0  0  0  0  0  0  0
   47.3220   32.2380   47.3440 C   0  0  0  0  0  0  0  0  0  0  0  0
   48.3040   32.3710   46.9590 H   0  0  0  0  0  0  0  0  0  0  0  0
   47.0720   32.2090   48.7100 C   0  0  0  0  0  0  0  0  0  0  0  0
   47.6940   32.2990   49.5970 H   0  0  0  0  0  0  0  0  0  0  0  0
   45.6960   32.0210   48.8140 C   0  0  0  0  0  0  0  0  0  0  0  0
   45.0320   31.9340   49.6870 H   0  0  0  0  0  0  0  0  0  0  0  0
   45.2020   31.9480   47.6190 O   0  0  0  0  0  0  0  0  0  0  0  0
  1  6  1  0  0  0  0
  1  7  1  0  0  0  0
  2  1  2  0  0  0  0
  3  4  2  0  0  0  0
  3  2  1  0  0  0  0
  4  5  1  0  0  0  0
  5 12  1  0  0  0  0
  5  6  2  0  0  0  0
  8  3  1  0  0  0  0
  9 11  1  0  0  0  0
  9  2  1  0  0  0  0
 10  9  1  0  0  0  0
 12 15  1  0  0  0  0
 13 12  1  0  0  0  0
 14 12  1  0  0  0  0
 15 16  2  0  0  0  0
 15 22  1  0  0  0  0
 16 18  1  0  0  0  0
 17 16  1  0  0  0  0
 18 20  2  0  0  0  0
 18 19  1  0  0  0  0
 20 21  1  0  0  0  0
 22 20  1  0  0  0  0
M  END
>  <minimizedAffinity>
-4.11816311

>  <minimizedRMSD>
2.04715967

$$$$
