
 OpenBabel03252509083D

 40 43  0  0  0  0  0  0  0  0999 V2000
   47.4980   31.7670   38.8830 C   0  0  0  0  0  0  0  0  0  0  0  0
   47.1290   33.0760   38.9340 C   0  0  0  0  0  0  0  0  0  0  0  0
   47.8240   34.0240   38.1990 C   0  0  0  0  0  0  0  0  0  0  0  0
   48.8880   33.6380   37.4190 C   0  0  0  0  0  0  0  0  0  0  0  0
   49.2980   32.3080   37.3360 C   0  0  0  0  0  0  0  0  0  0  0  0
   48.5790   31.3730   38.0890 C   0  0  0  0  0  0  0  0  0  0  0  0
   47.5650   35.0720   38.2120 H   0  0  0  0  0  0  0  0  0  0  0  0
   49.5000   34.2780   36.8070 H   0  0  0  0  0  0  0  0  0  0  0  0
   50.1100   31.9380   36.7530 H   0  0  0  0  0  0  0  0  0  0  0  0
   48.8680   30.3240   38.0510 H   0  0  0  0  0  0  0  0  0  0  0  0
   45.4120   35.4050   43.2100 Cl  0  0  0  0  0  0  0  0  0  0  0  0
   45.2090   34.6430   41.6550 C   0  0  0  0  0  0  0  0  0  0  0  0
   46.2770   34.1960   40.9480 C   0  0  0  0  0  0  0  0  0  0  0  0
   46.0110   33.5870   39.7300 C   0  0  0  0  0  0  0  0  0  0  0  0
   44.7290   33.4410   39.2580 C   0  0  0  0  0  0  0  0  0  0  0  0
   43.6730   33.8950   39.9790 C   0  0  0  0  0  0  0  0  0  0  0  0
   43.9250   34.4980   41.1860 C   0  0  0  0  0  0  0  0  0  0  0  0
   44.5850   32.9610   38.3050 H   0  0  0  0  0  0  0  0  0  0  0  0
   42.6750   33.7660   39.5810 H   0  0  0  0  0  0  0  0  0  0  0  0
   43.0620   34.8530   41.7440 H   0  0  0  0  0  0  0  0  0  0  0  0
   49.5910   35.6970   41.9510 C   0  0  0  0  0  0  0  0  0  0  0  0
   48.3040   35.5490   41.4180 C   0  0  0  0  0  0  0  0  0  0  0  0
   47.6050   34.3610   41.4950 C   0  0  0  0  0  0  0  0  0  0  0  0
   48.2640   33.3550   42.1260 N   0  0  0  0  0  0  0  0  0  0  0  0
   49.4940   33.4880   42.6390 C   0  0  0  0  0  0  0  0  0  0  0  0
   50.1470   34.6500   42.5500 N   0  0  0  0  0  0  0  0  0  0  0  0
   50.0620   36.6670   41.8430 H   0  0  0  0  0  0  0  0  0  0  0  0
   47.8260   36.3830   40.9260 H   0  0  0  0  0  0  0  0  0  0  0  0
   49.8690   32.5870   43.1080 H   0  0  0  0  0  0  0  0  0  0  0  0
   46.6500   30.5850   39.7310 S   0  0  0  0  0  0  0  0  0  0  0  0
   45.3780   30.1690   39.0250 O   0  0  0  0  0  0  0  0  0  0  0  0
   47.5550   29.3050   39.5900 O   0  0  0  0  0  0  0  0  0  0  0  0
   46.2770   30.6660   41.4100 C   0  0  0  0  0  0  0  0  0  0  0  0
   44.9330   30.8470   41.8260 C   0  0  0  0  0  0  0  0  0  0  0  0
   44.0220   30.9530   41.2020 H   0  0  0  0  0  0  0  0  0  0  0  0
   44.7800   30.8940   43.1920 C   0  0  0  0  0  0  0  0  0  0  0  0
   43.9090   31.0170   43.7850 H   0  0  0  0  0  0  0  0  0  0  0  0
   46.0680   30.7360   43.5910 C   0  0  0  0  0  0  0  0  0  0  0  0
   46.4750   30.7020   44.6150 H   0  0  0  0  0  0  0  0  0  0  0  0
   46.8380   30.6170   42.5920 O   0  0  0  0  0  0  0  0  0  0  0  0
  1  2  1  0  0  0  0
  1 30  1  0  0  0  0
  2 14  1  0  0  0  0
  3  7  1  0  0  0  0
  3  2  2  0  0  0  0
  4  3  1  0  0  0  0
  5  4  2  0  0  0  0
  5  6  1  0  0  0  0
  6  1  2  0  0  0  0
  8  4  1  0  0  0  0
  9  5  1  0  0  0  0
 10  6  1  0  0  0  0
 12 11  1  0  0  0  0
 13 23  1  0  0  0  0
 13 12  2  0  0  0  0
 14 13  1  0  0  0  0
 15 14  2  0  0  0  0
 15 16  1  0  0  0  0
 16 17  2  0  0  0  0
 17 12  1  0  0  0  0
 17 20  1  0  0  0  0
 18 15  1  0  0  0  0
 19 16  1  0  0  0  0
 21 26  1  0  0  0  0
 22 23  1  0  0  0  0
 22 21  2  0  0  0  0
 23 24  2  0  0  0  0
 24 25  1  0  0  0  0
 25 29  1  0  0  0  0
 26 25  2  0  0  0  0
 27 21  1  0  0  0  0
 28 22  1  0  0  0  0
 30 33  1  0  0  0  0
 31 30  2  0  0  0  0
 32 30  2  0  0  0  0
 33 34  2  0  0  0  0
 33 40  1  0  0  0  0
 34 36  1  0  0  0  0
 35 34  1  0  0  0  0
 36 38  2  0  0  0  0
 36 37  1  0  0  0  0
 38 39  1  0  0  0  0
 40 38  1  0  0  0  0
M  END
>  <minimizedAffinity>
-4.67661524

>  <minimizedRMSD>
0.789460361

$$$$
