
 OpenBabel03242516433D

 43 45  0  0  1  0  0  0  0  0999 V2000
   34.4600   29.2850   39.8030 O   0  0  0  0  0  0  0  0  0  0  0  0
   35.7630   29.6780   40.4710 P   0  0  2  0  0  0  0  0  0  0  0  0
   35.6610   31.1380   41.2770 O   0  0  0  0  0  0  0  0  0  0  0  0
   34.7090   31.4290   41.3360 H   0  0  0  0  0  0  0  0  0  0  0  0
   36.9750   29.7640   39.3060 O   0  0  0  0  0  0  0  0  0  0  0  0
   36.8980   30.9440   38.5850 C   0  0  0  0  0  0  0  0  0  0  0  0
   36.6780   31.8350   39.2070 H   0  0  0  0  0  0  0  0  0  0  0  0
   36.0270   30.8690   37.8710 H   0  0  0  0  0  0  0  0  0  0  0  0
   38.1560   31.1820   37.8170 C   0  0  0  0  0  0  0  0  0  0  0  0
   37.9280   31.5130   36.7810 H   0  0  0  0  0  0  0  0  0  0  0  0
   38.7790   30.2680   37.7490 H   0  0  0  0  0  0  0  0  0  0  0  0
   39.2060   33.8020   40.2970 C   0  0  0  0  0  0  0  0  0  0  0  0
   38.4190   32.8670   39.6110 C   0  0  0  0  0  0  0  0  0  0  0  0
   38.9980   32.1810   38.5480 C   0  0  0  0  0  0  0  0  0  0  0  0
   40.2860   32.4380   38.2170 N   0  0  0  0  0  0  0  0  0  0  0  0
   41.0060   33.3540   38.9100 C   0  0  0  0  0  0  0  0  0  0  0  0
   40.4930   34.0330   39.9330 N   0  0  0  0  0  0  0  0  0  0  0  0
   38.6690   34.5320   41.3870 N   0  0  0  0  0  0  0  0  0  0  0  0
   37.4130   32.7330   39.9460 H   0  0  0  0  0  0  0  0  0  0  0  0
   42.0300   33.5120   38.5930 H   0  0  0  0  0  0  0  0  0  0  0  0
   38.3570   35.5170   41.1960 H   0  0  0  0  0  0  0  0  0  0  0  0
   38.5280   34.2570   42.3650 H   0  0  0  0  0  0  0  0  0  0  0  0
   36.1780   28.4840   41.6260 O   0  0  0  0  0  0  0  0  0  0  0  0
   37.8020   27.0050   42.4640 C   0  0  1  0  0  0  0  0  0  0  0  0
   37.5180   28.2090   41.6100 C   0  0  2  0  0  0  0  0  0  0  0  0
   38.1630   29.2910   42.5050 C   0  0  0  0  0  0  0  0  0  0  0  0
   37.8550   28.9460   43.7890 O   0  0  0  0  0  0  0  0  0  0  0  0
   37.6510   27.5890   43.8490 C   0  0  0  0  0  0  0  0  0  0  0  0
   38.8390   26.6910   42.2800 H   0  0  0  0  0  0  0  0  0  0  0  0
   38.0010   28.2020   40.6180 H   0  0  0  0  0  0  0  0  0  0  0  0
   37.7630   30.2800   42.2040 H   0  0  0  0  0  0  0  0  0  0  0  0
   39.2460   29.2640   42.2810 H   0  0  0  0  0  0  0  0  0  0  0  0
   38.3770   27.0780   44.5240 H   0  0  0  0  0  0  0  0  0  0  0  0
   36.6340   27.4320   44.2720 H   0  0  0  0  0  0  0  0  0  0  0  0
   36.9410   25.9570   42.2120 O   0  0  0  0  0  0  0  0  0  0  0  0
   37.2190   24.7860   41.5380 C   0  0  0  0  0  0  0  0  0  0  0  0
   38.5820   24.5130   41.3580 C   0  0  0  0  0  0  0  0  0  0  0  0
   39.5550   24.9650   41.5980 H   0  0  0  0  0  0  0  0  0  0  0  0
   38.6480   23.3000   40.6650 C   0  0  0  0  0  0  0  0  0  0  0  0
   39.3860   22.6150   40.2610 H   0  0  0  0  0  0  0  0  0  0  0  0
   37.3380   22.9150   40.4690 C   0  0  0  0  0  0  0  0  0  0  0  0
   36.7390   22.1080   40.0190 H   0  0  0  0  0  0  0  0  0  0  0  0
   36.5470   23.8090   40.9930 O   0  0  0  0  0  0  0  0  0  0  0  0
  2  1  2  6  0  0  0
  2  3  1  0  0  0  0
  2 23  1  0  0  0  0
  3  4  1  0  0  0  0
  5  2  1  0  0  0  0
  6  7  1  0  0  0  0
  6  5  1  0  0  0  0
  8  6  1  0  0  0  0
  9 14  1  0  0  0  0
  9  6  1  0  0  0  0
 10  9  1  0  0  0  0
 11  9  1  0  0  0  0
 12 18  1  0  0  0  0
 13 19  1  0  0  0  0
 13 12  2  0  0  0  0
 14 13  1  0  0  0  0
 15 14  2  0  0  0  0
 15 16  1  0  0  0  0
 16 17  2  0  0  0  0
 17 12  1  0  0  0  0
 18 22  1  0  0  0  0
 20 16  1  0  0  0  0
 21 18  1  0  0  0  0
 24 29  1  6  0  0  0
 24 28  1  0  0  0  0
 25 30  1  6  0  0  0
 25 23  1  0  0  0  0
 25 24  1  0  0  0  0
 25 26  1  0  0  0  0
 26 27  1  0  0  0  0
 27 28  1  0  0  0  0
 28 34  1  0  0  0  0
 28 33  1  0  0  0  0
 31 26  1  0  0  0  0
 32 26  1  0  0  0  0
 35 24  1  0  0  0  0
 36 35  1  0  0  0  0
 37 36  2  0  0  0  0
 37 38  1  0  0  0  0
 39 37  1  0  0  0  0
 40 39  1  0  0  0  0
 41 39  2  0  0  0  0
 41 43  1  0  0  0  0
 42 41  1  0  0  0  0
 43 36  1  0  0  0  0
M  END
>  <minimizedAffinity>
-5.95760965

$$$$

 OpenBabel03242516433D

 43 45  0  0  1  0  0  0  0  0999 V2000
   37.2580   31.4540   38.2140 O   0  0  0  0  0  0  0  0  0  0  0  0
   37.6870   31.6240   39.6580 P   0  0  2  0  0  0  0  0  0  0  0  0
   36.6390   32.5880   40.5330 O   0  0  0  0  0  0  0  0  0  0  0  0
   35.8070   32.7510   40.0070 H   0  0  0  0  0  0  0  0  0  0  0  0
   39.2310   32.2920   39.7000 O   0  0  0  0  0  0  0  0  0  0  0  0
   39.4050   33.0880   40.8200 C   0  0  0  0  0  0  0  0  0  0  0  0
   40.0770   32.6450   41.5830 H   0  0  0  0  0  0  0  0  0  0  0  0
   38.4090   33.1950   41.3400 H   0  0  0  0  0  0  0  0  0  0  0  0
   39.9200   34.4370   40.4400 C   0  0  0  0  0  0  0  0  0  0  0  0
   39.8360   35.1450   41.2930 H   0  0  0  0  0  0  0  0  0  0  0  0
   39.3590   34.8690   39.5890 H   0  0  0  0  0  0  0  0  0  0  0  0
   42.8880   34.2960   38.1420 C   0  0  0  0  0  0  0  0  0  0  0  0
   41.5670   34.4160   38.5930 C   0  0  0  0  0  0  0  0  0  0  0  0
   41.3320   34.3080   39.9600 C   0  0  0  0  0  0  0  0  0  0  0  0
   42.3750   34.0930   40.7970 N   0  0  0  0  0  0  0  0  0  0  0  0
   43.6360   33.9840   40.3110 C   0  0  0  0  0  0  0  0  0  0  0  0
   43.9070   34.0800   39.0120 N   0  0  0  0  0  0  0  0  0  0  0  0
   43.1880   34.3950   36.7600 N   0  0  0  0  0  0  0  0  0  0  0  0
   40.8110   34.5850   37.8560 H   0  0  0  0  0  0  0  0  0  0  0  0
   44.4250   33.8120   41.0350 H   0  0  0  0  0  0  0  0  0  0  0  0
   43.3410   33.4960   36.2380 H   0  0  0  0  0  0  0  0  0  0  0  0
   43.2870   35.2210   36.1590 H   0  0  0  0  0  0  0  0  0  0  0  0
   37.7190   30.0870   40.4130 O   0  0  0  0  0  0  0  0  0  0  0  0
   36.9190   28.7590   42.1810 C   0  0  1  0  0  0  0  0  0  0  0  0
   36.6590   29.9190   41.2610 C   0  0  2  0  0  0  0  0  0  0  0  0
   35.5450   29.2880   40.3950 C   0  0  0  0  0  0  0  0  0  0  0  0
   35.9150   27.9890   40.2000 O   0  0  0  0  0  0  0  0  0  0  0  0
   36.7180   27.5930   41.2420 C   0  0  0  0  0  0  0  0  0  0  0  0
   36.1540   28.7670   42.9690 H   0  0  0  0  0  0  0  0  0  0  0  0
   36.2810   30.8300   41.7550 H   0  0  0  0  0  0  0  0  0  0  0  0
   35.4590   29.8700   39.4560 H   0  0  0  0  0  0  0  0  0  0  0  0
   34.6080   29.4060   40.9710 H   0  0  0  0  0  0  0  0  0  0  0  0
   36.2770   26.7500   41.8230 H   0  0  0  0  0  0  0  0  0  0  0  0
   37.6710   27.2300   40.7970 H   0  0  0  0  0  0  0  0  0  0  0  0
   38.1770   28.7990   42.7450 O   0  0  0  0  0  0  0  0  0  0  0  0
   39.1410   27.8120   42.7180 C   0  0  0  0  0  0  0  0  0  0  0  0
   39.2030   27.0110   43.8670 C   0  0  0  0  0  0  0  0  0  0  0  0
   38.6970   26.9170   44.8380 H   0  0  0  0  0  0  0  0  0  0  0  0
   40.2290   26.0860   43.6420 C   0  0  0  0  0  0  0  0  0  0  0  0
   40.7200   25.2560   44.1380 H   0  0  0  0  0  0  0  0  0  0  0  0
   40.7190   26.3780   42.3860 C   0  0  0  0  0  0  0  0  0  0  0  0
   41.4810   26.0450   41.6640 H   0  0  0  0  0  0  0  0  0  0  0  0
   40.0570   27.3860   41.8910 O   0  0  0  0  0  0  0  0  0  0  0  0
  2  1  2  6  0  0  0
  2  5  1  0  0  0  0
  2 23  1  0  0  0  0
  2  3  1  0  0  0  0
  4  3  1  0  0  0  0
  5  6  1  0  0  0  0
  6  8  1  0  0  0  0
  6  7  1  0  0  0  0
  9  6  1  0  0  0  0
  9 10  1  0  0  0  0
 11  9  1  0  0  0  0
 12 13  2  0  0  0  0
 12 17  1  0  0  0  0
 13 14  1  0  0  0  0
 14  9  1  0  0  0  0
 14 15  2  0  0  0  0
 16 15  1  0  0  0  0
 16 20  1  0  0  0  0
 17 16  2  0  0  0  0
 18 12  1  0  0  0  0
 19 13  1  0  0  0  0
 21 18  1  0  0  0  0
 22 18  1  0  0  0  0
 23 25  1  0  0  0  0
 24 35  1  0  0  0  0
 24 29  1  1  0  0  0
 25 30  1  1  0  0  0
 25 24  1  0  0  0  0
 26 32  1  0  0  0  0
 26 25  1  0  0  0  0
 27 26  1  0  0  0  0
 27 28  1  0  0  0  0
 28 33  1  0  0  0  0
 28 24  1  0  0  0  0
 31 26  1  0  0  0  0
 34 28  1  0  0  0  0
 36 35  1  0  0  0  0
 36 37  2  0  0  0  0
 37 38  1  0  0  0  0
 39 37  1  0  0  0  0
 39 40  1  0  0  0  0
 41 39  2  0  0  0  0
 42 41  1  0  0  0  0
 43 41  1  0  0  0  0
 43 36  1  0  0  0  0
M  END
>  <minimizedAffinity>
-5.73967743

$$$$

 OpenBabel03242516433D

 43 45  0  0  1  0  0  0  0  0999 V2000
   37.3130   30.6530   39.1810 O   0  0  0  0  0  0  0  0  0  0  0  0
   37.1850   31.2520   40.5680 P   0  0  2  0  0  0  0  0  0  0  0  0
   35.6600   31.0510   41.2200 O   0  0  0  0  0  0  0  0  0  0  0  0
   35.1320   30.4150   40.6620 H   0  0  0  0  0  0  0  0  0  0  0  0
   37.5530   32.8930   40.4940 O   0  0  0  0  0  0  0  0  0  0  0  0
   38.7560   33.1120   39.8430 C   0  0  0  0  0  0  0  0  0  0  0  0
   38.6420   33.5360   38.8250 H   0  0  0  0  0  0  0  0  0  0  0  0
   39.2610   32.1150   39.6850 H   0  0  0  0  0  0  0  0  0  0  0  0
   39.6430   34.0020   40.6480 C   0  0  0  0  0  0  0  0  0  0  0  0
   39.6280   33.7070   41.7200 H   0  0  0  0  0  0  0  0  0  0  0  0
   39.3310   35.0630   40.5880 H   0  0  0  0  0  0  0  0  0  0  0  0
   42.4750   34.1840   38.1870 C   0  0  0  0  0  0  0  0  0  0  0  0
   41.1800   34.2200   38.7210 C   0  0  0  0  0  0  0  0  0  0  0  0
   41.0270   33.9630   40.0790 C   0  0  0  0  0  0  0  0  0  0  0  0
   42.1220   33.6900   40.8300 N   0  0  0  0  0  0  0  0  0  0  0  0
   43.3540   33.6670   40.2660 C   0  0  0  0  0  0  0  0  0  0  0  0
   43.5480   33.9060   38.9720 N   0  0  0  0  0  0  0  0  0  0  0  0
   42.6930   34.4360   36.8090 N   0  0  0  0  0  0  0  0  0  0  0  0
   40.3790   34.4440   38.0500 H   0  0  0  0  0  0  0  0  0  0  0  0
   44.1870   33.4420   40.9220 H   0  0  0  0  0  0  0  0  0  0  0  0
   42.8340   33.6010   36.1870 H   0  0  0  0  0  0  0  0  0  0  0  0
   42.7380   35.3230   36.2950 H   0  0  0  0  0  0  0  0  0  0  0  0
   38.2950   30.4740   41.6140 O   0  0  0  0  0  0  0  0  0  0  0  0
   39.2120   28.3110   41.5140 C   0  0  1  0  0  0  0  0  0  0  0  0
   39.1790   29.6930   40.9230 C   0  0  2  0  0  0  0  0  0  0  0  0
   40.5790   30.1740   41.3680 C   0  0  0  0  0  0  0  0  0  0  0  0
   40.7550   29.6890   42.6310 O   0  0  0  0  0  0  0  0  0  0  0  0
   39.9890   28.5590   42.7860 C   0  0  0  0  0  0  0  0  0  0  0  0
   39.7720   27.6580   40.8310 H   0  0  0  0  0  0  0  0  0  0  0  0
   39.1010   29.7270   39.8230 H   0  0  0  0  0  0  0  0  0  0  0  0
   40.6040   31.2800   41.3110 H   0  0  0  0  0  0  0  0  0  0  0  0
   41.2910   29.7650   40.6270 H   0  0  0  0  0  0  0  0  0  0  0  0
   40.6040   27.6530   43.0000 H   0  0  0  0  0  0  0  0  0  0  0  0
   39.3300   28.7310   43.6660 H   0  0  0  0  0  0  0  0  0  0  0  0
   37.9510   27.7960   41.7330 O   0  0  0  0  0  0  0  0  0  0  0  0
   37.4570   26.5800   41.3080 C   0  0  0  0  0  0  0  0  0  0  0  0
   37.3180   25.6110   42.3120 C   0  0  0  0  0  0  0  0  0  0  0  0
   37.4890   25.5100   43.3930 H   0  0  0  0  0  0  0  0  0  0  0  0
   36.8100   24.4690   41.6830 C   0  0  0  0  0  0  0  0  0  0  0  0
   36.5110   23.4540   41.9240 H   0  0  0  0  0  0  0  0  0  0  0  0
   36.6740   24.8090   40.3540 C   0  0  0  0  0  0  0  0  0  0  0  0
   36.3480   24.3890   39.3900 H   0  0  0  0  0  0  0  0  0  0  0  0
   37.0620   26.0430   40.1860 O   0  0  0  0  0  0  0  0  0  0  0  0
  2  1  2  6  0  0  0
  2  3  1  0  0  0  0
  2 23  1  0  0  0  0
  4  3  1  0  0  0  0
  5  2  1  0  0  0  0
  6  5  1  0  0  0  0
  6  9  1  0  0  0  0
  7  6  1  0  0  0  0
  8  6  1  0  0  0  0
  9 10  1  0  0  0  0
 11  9  1  0  0  0  0
 12 13  2  0  0  0  0
 12 17  1  0  0  0  0
 13 14  1  0  0  0  0
 14  9  1  0  0  0  0
 14 15  2  0  0  0  0
 16 15  1  0  0  0  0
 16 20  1  0  0  0  0
 17 16  2  0  0  0  0
 18 12  1  0  0  0  0
 19 13  1  0  0  0  0
 21 18  1  0  0  0  0
 22 18  1  0  0  0  0
 24 29  1  6  0  0  0
 24 35  1  0  0  0  0
 24 28  1  0  0  0  0
 25 30  1  6  0  0  0
 25 26  1  0  0  0  0
 25 24  1  0  0  0  0
 25 23  1  0  0  0  0
 26 27  1  0  0  0  0
 27 28  1  0  0  0  0
 28 33  1  0  0  0  0
 28 34  1  0  0  0  0
 31 26  1  0  0  0  0
 32 26  1  0  0  0  0
 36 35  1  0  0  0  0
 36 37  2  0  0  0  0
 37 38  1  0  0  0  0
 39 40  1  0  0  0  0
 39 37  1  0  0  0  0
 41 39  2  0  0  0  0
 42 41  1  0  0  0  0
 43 41  1  0  0  0  0
 43 36  1  0  0  0  0
M  END
>  <minimizedAffinity>
-5.68098307

$$$$

 OpenBabel03242516433D

 43 45  0  0  1  0  0  0  0  0999 V2000
   36.0070   27.2890   43.8310 O   0  0  0  0  0  0  0  0  0  0  0  0
   37.1150   27.9500   43.0350 P   0  0  2  0  0  0  0  0  0  0  0  0
   37.2380   29.5890   43.3360 O   0  0  0  0  0  0  0  0  0  0  0  0
   36.6770   29.8330   44.1240 H   0  0  0  0  0  0  0  0  0  0  0  0
   36.8370   27.7010   41.3930 O   0  0  0  0  0  0  0  0  0  0  0  0
   35.7740   28.4650   40.9400 C   0  0  0  0  0  0  0  0  0  0  0  0
   35.6360   29.4130   41.4990 H   0  0  0  0  0  0  0  0  0  0  0  0
   34.8210   27.8870   41.1130 H   0  0  0  0  0  0  0  0  0  0  0  0
   35.9200   28.7700   39.4860 C   0  0  0  0  0  0  0  0  0  0  0  0
   34.9360   28.7090   38.9710 H   0  0  0  0  0  0  0  0  0  0  0  0
   36.6080   28.0640   38.9820 H   0  0  0  0  0  0  0  0  0  0  0  0
   37.5970   31.7400   37.9120 C   0  0  0  0  0  0  0  0  0  0  0  0
   37.0070   30.4780   38.0630 C   0  0  0  0  0  0  0  0  0  0  0  0
   36.5490   30.1190   39.3260 C   0  0  0  0  0  0  0  0  0  0  0  0
   36.6880   30.9910   40.3540 N   0  0  0  0  0  0  0  0  0  0  0  0
   37.2660   32.2000   40.1570 C   0  0  0  0  0  0  0  0  0  0  0  0
   37.7180   32.5860   38.9670 N   0  0  0  0  0  0  0  0  0  0  0  0
   38.0820   32.1610   36.6480 N   0  0  0  0  0  0  0  0  0  0  0  0
   36.9420   29.8600   37.1930 H   0  0  0  0  0  0  0  0  0  0  0  0
   37.3470   32.8500   41.0210 H   0  0  0  0  0  0  0  0  0  0  0  0
   39.1180   32.0890   36.4860 H   0  0  0  0  0  0  0  0  0  0  0  0
   37.5810   32.5360   35.8350 H   0  0  0  0  0  0  0  0  0  0  0  0
   38.6110   27.2360   43.4670 O   0  0  0  0  0  0  0  0  0  0  0  0
   39.7530   25.5630   42.2740 C   0  0  1  0  0  0  0  0  0  0  0  0
   39.4020   27.0210   42.3720 C   0  0  2  0  0  0  0  0  0  0  0  0
   40.7920   27.5730   42.7640 C   0  0  0  0  0  0  0  0  0  0  0  0
   41.3210   26.6650   43.6350 O   0  0  0  0  0  0  0  0  0  0  0  0
   40.7680   25.4330   43.3860 C   0  0  0  0  0  0  0  0  0  0  0  0
   40.2180   25.3870   41.2940 H   0  0  0  0  0  0  0  0  0  0  0  0
   39.0650   27.4840   41.4290 H   0  0  0  0  0  0  0  0  0  0  0  0
   40.6580   28.5820   43.2020 H   0  0  0  0  0  0  0  0  0  0  0  0
   41.3570   27.6700   41.8190 H   0  0  0  0  0  0  0  0  0  0  0  0
   41.5280   24.6790   43.0780 H   0  0  0  0  0  0  0  0  0  0  0  0
   40.3160   25.0820   44.3410 H   0  0  0  0  0  0  0  0  0  0  0  0
   38.6570   24.7400   42.4310 O   0  0  0  0  0  0  0  0  0  0  0  0
   38.0490   23.9600   41.4700 C   0  0  0  0  0  0  0  0  0  0  0  0
   36.7190   24.3000   41.1830 C   0  0  0  0  0  0  0  0  0  0  0  0
   35.9660   25.0350   41.5020 H   0  0  0  0  0  0  0  0  0  0  0  0
   36.2910   23.4040   40.1980 C   0  0  0  0  0  0  0  0  0  0  0  0
   35.4090   23.1800   39.6080 H   0  0  0  0  0  0  0  0  0  0  0  0
   37.3730   22.5850   39.9490 C   0  0  0  0  0  0  0  0  0  0  0  0
   37.6770   21.7310   39.3250 H   0  0  0  0  0  0  0  0  0  0  0  0
   38.3670   22.9470   40.7110 O   0  0  0  0  0  0  0  0  0  0  0  0
  2  3  1  0  0  0  0
  2 23  1  0  0  0  0
  2  1  2  1  0  0  0
  3  4  1  0  0  0  0
  5  2  1  0  0  0  0
  6  8  1  0  0  0  0
  6  5  1  0  0  0  0
  6  7  1  0  0  0  0
  9  6  1  0  0  0  0
 10  9  1  0  0  0  0
 11  9  1  0  0  0  0
 12 13  2  0  0  0  0
 12 17  1  0  0  0  0
 13 14  1  0  0  0  0
 14  9  1  0  0  0  0
 14 15  2  0  0  0  0
 16 15  1  0  0  0  0
 16 20  1  0  0  0  0
 17 16  2  0  0  0  0
 18 12  1  0  0  0  0
 19 13  1  0  0  0  0
 21 18  1  0  0  0  0
 22 18  1  0  0  0  0
 24 29  1  6  0  0  0
 24 25  1  0  0  0  0
 24 35  1  0  0  0  0
 24 28  1  0  0  0  0
 25 30  1  6  0  0  0
 25 26  1  0  0  0  0
 25 23  1  0  0  0  0
 26 31  1  0  0  0  0
 26 27  1  0  0  0  0
 28 27  1  0  0  0  0
 28 34  1  0  0  0  0
 32 26  1  0  0  0  0
 33 28  1  0  0  0  0
 36 35  1  0  0  0  0
 37 36  2  0  0  0  0
 37 38  1  0  0  0  0
 39 37  1  0  0  0  0
 40 39  1  0  0  0  0
 41 39  2  0  0  0  0
 41 43  1  0  0  0  0
 42 41  1  0  0  0  0
 43 36  1  0  0  0  0
M  END
>  <minimizedAffinity>
-5.48541737

$$$$

 OpenBabel03242516433D

 43 45  0  0  1  0  0  0  0  0999 V2000
   38.0230   29.9570   41.2290 O   0  0  0  0  0  0  0  0  0  0  0  0
   36.5490   29.6980   40.9830 P   0  0  2  0  0  0  0  0  0  0  0  0
   35.5840   30.9880   41.4260 O   0  0  0  0  0  0  0  0  0  0  0  0
   36.1500   31.7870   41.6170 H   0  0  0  0  0  0  0  0  0  0  0  0
   36.0810   28.3270   41.8400 O   0  0  0  0  0  0  0  0  0  0  0  0
   37.1610   27.7370   42.4770 C   0  0  0  0  0  0  0  0  0  0  0  0
   37.4250   28.2140   43.4420 H   0  0  0  0  0  0  0  0  0  0  0  0
   38.0740   27.8730   41.8280 H   0  0  0  0  0  0  0  0  0  0  0  0
   36.9170   26.2820   42.7000 C   0  0  0  0  0  0  0  0  0  0  0  0
   35.8300   26.0530   42.6550 H   0  0  0  0  0  0  0  0  0  0  0  0
   37.2900   25.9460   43.6880 H   0  0  0  0  0  0  0  0  0  0  0  0
   38.2950   23.3660   40.7730 C   0  0  0  0  0  0  0  0  0  0  0  0
   37.5670   24.1070   41.7140 C   0  0  0  0  0  0  0  0  0  0  0  0
   37.6950   25.4920   41.6940 C   0  0  0  0  0  0  0  0  0  0  0  0
   38.5080   26.0690   40.7770 N   0  0  0  0  0  0  0  0  0  0  0  0
   39.1910   25.3090   39.8870 C   0  0  0  0  0  0  0  0  0  0  0  0
   39.1000   23.9810   39.8700 N   0  0  0  0  0  0  0  0  0  0  0  0
   38.2060   21.9510   40.7460 N   0  0  0  0  0  0  0  0  0  0  0  0
   36.9520   23.5620   42.3980 H   0  0  0  0  0  0  0  0  0  0  0  0
   39.8240   25.8340   39.1810 H   0  0  0  0  0  0  0  0  0  0  0  0
   38.9900   21.4150   41.1950 H   0  0  0  0  0  0  0  0  0  0  0  0
   37.4840   21.3380   40.3500 H   0  0  0  0  0  0  0  0  0  0  0  0
   36.3040   29.4270   39.3100 O   0  0  0  0  0  0  0  0  0  0  0  0
   37.6040   30.2360   37.5260 C   0  0  1  0  0  0  0  0  0  0  0  0
   37.4880   29.2440   38.6490 C   0  0  2  0  0  0  0  0  0  0  0  0
   37.2890   27.9610   37.8120 C   0  0  0  0  0  0  0  0  0  0  0  0
   36.4780   28.3150   36.7730 O   0  0  0  0  0  0  0  0  0  0  0  0
   36.6300   29.6570   36.5260 C   0  0  0  0  0  0  0  0  0  0  0  0
   38.6320   30.1990   37.1410 H   0  0  0  0  0  0  0  0  0  0  0  0
   38.3870   29.1470   39.2810 H   0  0  0  0  0  0  0  0  0  0  0  0
   36.8560   27.1780   38.4660 H   0  0  0  0  0  0  0  0  0  0  0  0
   38.3010   27.6410   37.5010 H   0  0  0  0  0  0  0  0  0  0  0  0
   37.0210   29.8600   35.5020 H   0  0  0  0  0  0  0  0  0  0  0  0
   35.6190   30.1170   36.5950 H   0  0  0  0  0  0  0  0  0  0  0  0
   37.2920   31.5220   37.9160 O   0  0  0  0  0  0  0  0  0  0  0  0
   38.0470   32.3660   38.7040 C   0  0  0  0  0  0  0  0  0  0  0  0
   37.3160   33.3330   39.4080 C   0  0  0  0  0  0  0  0  0  0  0  0
   36.2700   33.6470   39.5380 H   0  0  0  0  0  0  0  0  0  0  0  0
   38.2520   34.0760   40.1350 C   0  0  0  0  0  0  0  0  0  0  0  0
   38.2910   34.9110   40.8260 H   0  0  0  0  0  0  0  0  0  0  0  0
   39.4780   33.5230   39.8310 C   0  0  0  0  0  0  0  0  0  0  0  0
   40.5500   33.6360   40.0560 H   0  0  0  0  0  0  0  0  0  0  0  0
   39.3070   32.5350   38.9970 O   0  0  0  0  0  0  0  0  0  0  0  0
  2  1  2  1  0  0  0
  2  3  1  0  0  0  0
  2  5  1  0  0  0  0
  3  4  1  0  0  0  0
  5  6  1  0  0  0  0
  6  9  1  0  0  0  0
  6  7  1  0  0  0  0
  8  6  1  0  0  0  0
  9 11  1  0  0  0  0
 10  9  1  0  0  0  0
 12 13  1  0  0  0  0
 13 19  1  0  0  0  0
 14 13  2  0  0  0  0
 14  9  1  0  0  0  0
 15 14  1  0  0  0  0
 16 15  2  0  0  0  0
 17 16  1  0  0  0  0
 17 12  2  0  0  0  0
 18 12  1  0  0  0  0
 18 21  1  0  0  0  0
 20 16  1  0  0  0  0
 22 18  1  0  0  0  0
 23  2  1  0  0  0  0
 24 29  1  6  0  0  0
 24 35  1  0  0  0  0
 24 25  1  0  0  0  0
 25 30  1  1  0  0  0
 25 23  1  0  0  0  0
 26 31  1  0  0  0  0
 26 25  1  0  0  0  0
 27 26  1  0  0  0  0
 28 34  1  0  0  0  0
 28 27  1  0  0  0  0
 28 24  1  0  0  0  0
 32 26  1  0  0  0  0
 33 28  1  0  0  0  0
 35 36  1  0  0  0  0
 36 43  1  0  0  0  0
 36 37  2  0  0  0  0
 37 38  1  0  0  0  0
 37 39  1  0  0  0  0
 39 40  1  0  0  0  0
 41 42  1  0  0  0  0
 41 39  2  0  0  0  0
 43 41  1  0  0  0  0
M  END
>  <minimizedAffinity>
-5.42629004

$$$$

 OpenBabel03242516433D

 43 45  0  0  1  0  0  0  0  0999 V2000
   40.5260   29.6970   41.5800 O   0  0  0  0  0  0  0  0  0  0  0  0
   39.7900   30.6360   40.6440 P   0  0  2  0  0  0  0  0  0  0  0  0
   40.5400   30.7870   39.1590 O   0  0  0  0  0  0  0  0  0  0  0  0
   41.2550   30.0980   39.0670 H   0  0  0  0  0  0  0  0  0  0  0  0
   39.6680   32.1510   41.3680 O   0  0  0  0  0  0  0  0  0  0  0  0
   39.1820   33.0970   40.4790 C   0  0  0  0  0  0  0  0  0  0  0  0
   38.0920   33.2780   40.5720 H   0  0  0  0  0  0  0  0  0  0  0  0
   39.3210   32.7030   39.4310 H   0  0  0  0  0  0  0  0  0  0  0  0
   39.9080   34.3920   40.6290 C   0  0  0  0  0  0  0  0  0  0  0  0
   39.9560   34.6940   41.6980 H   0  0  0  0  0  0  0  0  0  0  0  0
   39.4160   35.2110   40.0700 H   0  0  0  0  0  0  0  0  0  0  0  0
   42.6620   34.2610   38.0770 C   0  0  0  0  0  0  0  0  0  0  0  0
   41.3860   34.3800   38.6440 C   0  0  0  0  0  0  0  0  0  0  0  0
   41.2720   34.2640   40.0250 C   0  0  0  0  0  0  0  0  0  0  0  0
   42.3860   34.0430   40.7660 N   0  0  0  0  0  0  0  0  0  0  0  0
   43.5980   33.9350   40.1710 C   0  0  0  0  0  0  0  0  0  0  0  0
   43.7540   34.0380   38.8530 N   0  0  0  0  0  0  0  0  0  0  0  0
   42.8400   34.3680   36.6750 N   0  0  0  0  0  0  0  0  0  0  0  0
   40.5680   34.5540   37.9780 H   0  0  0  0  0  0  0  0  0  0  0  0
   44.4470   33.7570   40.8200 H   0  0  0  0  0  0  0  0  0  0  0  0
   42.9440   33.4720   36.1360 H   0  0  0  0  0  0  0  0  0  0  0  0
   42.8860   35.1980   36.0730 H   0  0  0  0  0  0  0  0  0  0  0  0
   38.2170   30.0200   40.3630 O   0  0  0  0  0  0  0  0  0  0  0  0
   36.7810   28.7150   41.6900 C   0  0  1  0  0  0  0  0  0  0  0  0
   37.4540   30.0450   41.4980 C   0  0  2  0  0  0  0  0  0  0  0  0
   36.2120   30.8880   41.1320 C   0  0  0  0  0  0  0  0  0  0  0  0
   35.4420   30.0920   40.3340 O   0  0  0  0  0  0  0  0  0  0  0  0
   35.7080   28.7770   40.6270 C   0  0  0  0  0  0  0  0  0  0  0  0
   36.3390   28.6960   42.6950 H   0  0  0  0  0  0  0  0  0  0  0  0
   37.9370   30.4570   42.4000 H   0  0  0  0  0  0  0  0  0  0  0  0
   36.5530   31.8170   40.6340 H   0  0  0  0  0  0  0  0  0  0  0  0
   35.7330   31.1570   42.0920 H   0  0  0  0  0  0  0  0  0  0  0  0
   34.8100   28.2350   41.0070 H   0  0  0  0  0  0  0  0  0  0  0  0
   36.0170   28.2870   39.6770 H   0  0  0  0  0  0  0  0  0  0  0  0
   37.6460   27.6520   41.5350 O   0  0  0  0  0  0  0  0  0  0  0  0
   37.3350   26.3660   41.1440 C   0  0  0  0  0  0  0  0  0  0  0  0
   37.1050   25.4660   42.1940 C   0  0  0  0  0  0  0  0  0  0  0  0
   37.0940   25.4620   43.2930 H   0  0  0  0  0  0  0  0  0  0  0  0
   36.8090   24.2360   41.5950 C   0  0  0  0  0  0  0  0  0  0  0  0
   36.5570   23.2180   41.8730 H   0  0  0  0  0  0  0  0  0  0  0  0
   36.8760   24.4630   40.2360 C   0  0  0  0  0  0  0  0  0  0  0  0
   36.7570   23.9430   39.2730 H   0  0  0  0  0  0  0  0  0  0  0  0
   37.1850   25.7120   40.0250 O   0  0  0  0  0  0  0  0  0  0  0  0
  2  5  1  0  0  0  0
  2  1  2  1  0  0  0
  3  2  1  0  0  0  0
  4  3  1  0  0  0  0
  6  7  1  0  0  0  0
  6  9  1  0  0  0  0
  6  5  1  0  0  0  0
  8  6  1  0  0  0  0
  9 10  1  0  0  0  0
 11  9  1  0  0  0  0
 12 13  2  0  0  0  0
 12 17  1  0  0  0  0
 13 14  1  0  0  0  0
 14  9  1  0  0  0  0
 14 15  2  0  0  0  0
 16 15  1  0  0  0  0
 16 20  1  0  0  0  0
 17 16  2  0  0  0  0
 18 12  1  0  0  0  0
 19 13  1  0  0  0  0
 21 18  1  0  0  0  0
 22 18  1  0  0  0  0
 23  2  1  0  0  0  0
 23 25  1  0  0  0  0
 24 29  1  1  0  0  0
 25 24  1  0  0  0  0
 25 30  1  1  0  0  0
 26 25  1  0  0  0  0
 26 32  1  0  0  0  0
 27 28  1  0  0  0  0
 27 26  1  0  0  0  0
 28 33  1  0  0  0  0
 28 24  1  0  0  0  0
 31 26  1  0  0  0  0
 34 28  1  0  0  0  0
 35 24  1  0  0  0  0
 36 35  1  0  0  0  0
 36 37  2  0  0  0  0
 37 38  1  0  0  0  0
 39 40  1  0  0  0  0
 39 37  1  0  0  0  0
 41 39  2  0  0  0  0
 42 41  1  0  0  0  0
 43 41  1  0  0  0  0
 43 36  1  0  0  0  0
M  END
>  <minimizedAffinity>
-5.38931799

$$$$

 OpenBabel03242516433D

 43 45  0  0  1  0  0  0  0  0999 V2000
   38.3650   30.5010   42.0590 O   0  0  0  0  0  0  0  0  0  0  0  0
   37.1570   29.7020   41.6100 P   0  0  2  0  0  0  0  0  0  0  0  0
   35.7650   30.6240   41.5320 O   0  0  0  0  0  0  0  0  0  0  0  0
   35.9920   31.5910   41.6250 H   0  0  0  0  0  0  0  0  0  0  0  0
   36.9200   28.4170   42.6720 O   0  0  0  0  0  0  0  0  0  0  0  0
   37.9750   28.3000   43.5630 C   0  0  0  0  0  0  0  0  0  0  0  0
   37.7040   28.5430   44.6100 H   0  0  0  0  0  0  0  0  0  0  0  0
   38.7620   29.0580   43.2850 H   0  0  0  0  0  0  0  0  0  0  0  0
   38.5610   26.9280   43.5160 C   0  0  0  0  0  0  0  0  0  0  0  0
   38.1010   26.3310   42.6980 H   0  0  0  0  0  0  0  0  0  0  0  0
   38.4040   26.3770   44.4630 H   0  0  0  0  0  0  0  0  0  0  0  0
   42.1880   25.9650   43.3410 C   0  0  0  0  0  0  0  0  0  0  0  0
   40.7980   25.8680   43.4850 C   0  0  0  0  0  0  0  0  0  0  0  0
   40.0470   27.0320   43.3610 C   0  0  0  0  0  0  0  0  0  0  0  0
   40.6780   28.2040   43.1070 N   0  0  0  0  0  0  0  0  0  0  0  0
   42.0260   28.2460   42.9750 C   0  0  0  0  0  0  0  0  0  0  0  0
   42.7840   27.1580   43.0870 N   0  0  0  0  0  0  0  0  0  0  0  0
   43.0060   24.8120   43.4580 N   0  0  0  0  0  0  0  0  0  0  0  0
   40.3910   24.9000   43.6850 H   0  0  0  0  0  0  0  0  0  0  0  0
   42.4670   29.2150   42.7740 H   0  0  0  0  0  0  0  0  0  0  0  0
   43.5030   24.6700   44.3740 H   0  0  0  0  0  0  0  0  0  0  0  0
   43.2040   24.0660   42.7830 H   0  0  0  0  0  0  0  0  0  0  0  0
   37.4510   29.0860   40.0390 O   0  0  0  0  0  0  0  0  0  0  0  0
   39.0720   29.4270   38.3710 C   0  0  1  0  0  0  0  0  0  0  0  0
   38.7890   28.9820   39.7790 C   0  0  2  0  0  0  0  0  0  0  0  0
   39.0520   27.4690   39.6060 C   0  0  0  0  0  0  0  0  0  0  0  0
   38.5370   27.1380   38.3870 O   0  0  0  0  0  0  0  0  0  0  0  0
   38.5400   28.2520   37.5840 C   0  0  0  0  0  0  0  0  0  0  0  0
   40.1600   29.5200   38.2530 H   0  0  0  0  0  0  0  0  0  0  0  0
   39.4670   29.3980   40.5440 H   0  0  0  0  0  0  0  0  0  0  0  0
   38.5750   26.9320   40.4500 H   0  0  0  0  0  0  0  0  0  0  0  0
   40.1480   27.3410   39.6800 H   0  0  0  0  0  0  0  0  0  0  0  0
   39.1780   28.1230   36.6780 H   0  0  0  0  0  0  0  0  0  0  0  0
   37.4940   28.4060   37.2370 H   0  0  0  0  0  0  0  0  0  0  0  0
   38.4590   30.6220   38.0570 O   0  0  0  0  0  0  0  0  0  0  0  0
   38.4940   31.7980   38.7780 C   0  0  0  0  0  0  0  0  0  0  0  0
   37.2670   32.4690   38.8780 C   0  0  0  0  0  0  0  0  0  0  0  0
   36.2280   32.3470   38.5430 H   0  0  0  0  0  0  0  0  0  0  0  0
   37.5140   33.6190   39.6360 C   0  0  0  0  0  0  0  0  0  0  0  0
   36.9860   34.4830   40.0270 H   0  0  0  0  0  0  0  0  0  0  0  0
   38.8570   33.5760   39.9460 C   0  0  0  0  0  0  0  0  0  0  0  0
   39.6320   34.1440   40.4840 H   0  0  0  0  0  0  0  0  0  0  0  0
   39.3820   32.5020   39.4260 O   0  0  0  0  0  0  0  0  0  0  0  0
  2  1  2  1  0  0  0
  2  5  1  0  0  0  0
  3  2  1  0  0  0  0
  3  4  1  0  0  0  0
  5  6  1  0  0  0  0
  6  7  1  0  0  0  0
  8  6  1  0  0  0  0
  9  6  1  0  0  0  0
  9 11  1  0  0  0  0
 10  9  1  0  0  0  0
 12 18  1  0  0  0  0
 12 13  1  0  0  0  0
 13 19  1  0  0  0  0
 14 13  2  0  0  0  0
 14  9  1  0  0  0  0
 15 14  1  0  0  0  0
 16 17  1  0  0  0  0
 16 15  2  0  0  0  0
 17 12  2  0  0  0  0
 18 21  1  0  0  0  0
 20 16  1  0  0  0  0
 22 18  1  0  0  0  0
 23  2  1  0  0  0  0
 24 29  1  6  0  0  0
 24 25  1  0  0  0  0
 25 23  1  0  0  0  0
 25 30  1  1  0  0  0
 26 32  1  0  0  0  0
 26 25  1  0  0  0  0
 26 31  1  0  0  0  0
 27 26  1  0  0  0  0
 28 24  1  0  0  0  0
 28 27  1  0  0  0  0
 33 28  1  0  0  0  0
 34 28  1  0  0  0  0
 35 24  1  0  0  0  0
 35 36  1  0  0  0  0
 36 37  2  0  0  0  0
 36 43  1  0  0  0  0
 37 39  1  0  0  0  0
 38 37  1  0  0  0  0
 39 41  2  0  0  0  0
 39 40  1  0  0  0  0
 41 42  1  0  0  0  0
 43 41  1  0  0  0  0
M  END
>  <minimizedAffinity>
-5.33322811

$$$$

 OpenBabel03242516433D

 43 45  0  0  1  0  0  0  0  0999 V2000
   34.9850   28.9640   40.6300 O   0  0  0  0  0  0  0  0  0  0  0  0
   36.1770   29.8630   40.3720 P   0  0  2  0  0  0  0  0  0  0  0  0
   35.9620   31.4090   40.9690 O   0  0  0  0  0  0  0  0  0  0  0  0
   35.1540   31.4390   41.5530 H   0  0  0  0  0  0  0  0  0  0  0  0
   36.4640   29.9370   38.7150 O   0  0  0  0  0  0  0  0  0  0  0  0
   37.8210   29.9410   38.4380 C   0  0  0  0  0  0  0  0  0  0  0  0
   38.1520   29.0880   37.8120 H   0  0  0  0  0  0  0  0  0  0  0  0
   38.3830   29.8220   39.4090 H   0  0  0  0  0  0  0  0  0  0  0  0
   38.2250   31.2180   37.7780 C   0  0  0  0  0  0  0  0  0  0  0  0
   37.7650   32.0890   38.2910 H   0  0  0  0  0  0  0  0  0  0  0  0
   37.9150   31.2510   36.7150 H   0  0  0  0  0  0  0  0  0  0  0  0
   41.6910   32.5790   37.2770 C   0  0  0  0  0  0  0  0  0  0  0  0
   40.2930   32.4910   37.2970 C   0  0  0  0  0  0  0  0  0  0  0  0
   39.7200   31.3100   37.7570 C   0  0  0  0  0  0  0  0  0  0  0  0
   40.5230   30.2970   38.1640 N   0  0  0  0  0  0  0  0  0  0  0  0
   41.8710   30.4310   38.1250 C   0  0  0  0  0  0  0  0  0  0  0  0
   42.4630   31.5420   37.6930 N   0  0  0  0  0  0  0  0  0  0  0  0
   42.3320   33.7570   36.8180 N   0  0  0  0  0  0  0  0  0  0  0  0
   39.7430   33.3420   36.9560 H   0  0  0  0  0  0  0  0  0  0  0  0
   42.4560   29.5830   38.4640 H   0  0  0  0  0  0  0  0  0  0  0  0
   42.7080   33.7450   35.8370 H   0  0  0  0  0  0  0  0  0  0  0  0
   42.4980   34.6510   37.2940 H   0  0  0  0  0  0  0  0  0  0  0  0
   37.5510   29.2020   41.1510 O   0  0  0  0  0  0  0  0  0  0  0  0
   39.1880   29.9570   42.6610 C   0  0  1  0  0  0  0  0  0  0  0  0
   37.7250   29.7270   42.4020 C   0  0  2  0  0  0  0  0  0  0  0  0
   37.4960   28.5450   43.3710 C   0  0  0  0  0  0  0  0  0  0  0  0
   38.6090   27.7620   43.2750 O   0  0  0  0  0  0  0  0  0  0  0  0
   39.6690   28.5410   42.8800 C   0  0  0  0  0  0  0  0  0  0  0  0
   39.2840   30.5520   43.5790 H   0  0  0  0  0  0  0  0  0  0  0  0
   37.0660   30.5690   42.6710 H   0  0  0  0  0  0  0  0  0  0  0  0
   36.5620   28.0260   43.0770 H   0  0  0  0  0  0  0  0  0  0  0  0
   37.3500   28.9960   44.3700 H   0  0  0  0  0  0  0  0  0  0  0  0
   40.4870   28.5650   43.6380 H   0  0  0  0  0  0  0  0  0  0  0  0
   40.0840   28.0810   41.9550 H   0  0  0  0  0  0  0  0  0  0  0  0
   39.8200   30.5960   41.6150 O   0  0  0  0  0  0  0  0  0  0  0  0
   39.6720   31.9110   41.2240 C   0  0  0  0  0  0  0  0  0  0  0  0
   40.8710   32.5990   40.9900 C   0  0  0  0  0  0  0  0  0  0  0  0
   41.9530   32.4100   41.0220 H   0  0  0  0  0  0  0  0  0  0  0  0
   40.5080   33.8960   40.6090 C   0  0  0  0  0  0  0  0  0  0  0  0
   40.9690   34.8340   40.3170 H   0  0  0  0  0  0  0  0  0  0  0  0
   39.1290   33.9150   40.6350 C   0  0  0  0  0  0  0  0  0  0  0  0
   38.2770   34.5880   40.4520 H   0  0  0  0  0  0  0  0  0  0  0  0
   38.6910   32.7420   40.9970 O   0  0  0  0  0  0  0  0  0  0  0  0
  2  1  2  1  0  0  0
  2  3  1  0  0  0  0
  2 23  1  0  0  0  0
  3  4  1  0  0  0  0
  5  2  1  0  0  0  0
  6  5  1  0  0  0  0
  6  8  1  0  0  0  0
  7  6  1  0  0  0  0
  9 10  1  0  0  0  0
  9  6  1  0  0  0  0
 11  9  1  0  0  0  0
 12 13  2  0  0  0  0
 12 17  1  0  0  0  0
 13 14  1  0  0  0  0
 14  9  1  0  0  0  0
 14 15  2  0  0  0  0
 16 15  1  0  0  0  0
 16 20  1  0  0  0  0
 17 16  2  0  0  0  0
 18 12  1  0  0  0  0
 18 22  1  0  0  0  0
 19 13  1  0  0  0  0
 21 18  1  0  0  0  0
 23 25  1  0  0  0  0
 24 28  1  0  0  0  0
 24 29  1  1  0  0  0
 25 24  1  0  0  0  0
 25 30  1  1  0  0  0
 25 26  1  0  0  0  0
 26 32  1  0  0  0  0
 27 26  1  0  0  0  0
 28 27  1  0  0  0  0
 28 33  1  0  0  0  0
 31 26  1  0  0  0  0
 34 28  1  0  0  0  0
 35 24  1  0  0  0  0
 36 35  1  0  0  0  0
 37 38  1  0  0  0  0
 37 36  2  0  0  0  0
 39 41  2  0  0  0  0
 39 37  1  0  0  0  0
 40 39  1  0  0  0  0
 41 43  1  0  0  0  0
 42 41  1  0  0  0  0
 43 36  1  0  0  0  0
M  END
>  <minimizedAffinity>
-5.24198437

$$$$

 OpenBabel03242516433D

 43 45  0  0  1  0  0  0  0  0999 V2000
   38.4390   30.6020   41.9390 O   0  0  0  0  0  0  0  0  0  0  0  0
   37.2370   29.8040   41.4730 P   0  0  2  0  0  0  0  0  0  0  0  0
   35.8140   30.6750   41.5530 O   0  0  0  0  0  0  0  0  0  0  0  0
   36.0120   31.6370   41.7300 H   0  0  0  0  0  0  0  0  0  0  0  0
   37.0990   28.4150   42.4130 O   0  0  0  0  0  0  0  0  0  0  0  0
   37.9650   28.4500   43.4940 C   0  0  0  0  0  0  0  0  0  0  0  0
   37.5000   28.8270   44.4270 H   0  0  0  0  0  0  0  0  0  0  0  0
   38.7900   29.1860   43.2650 H   0  0  0  0  0  0  0  0  0  0  0  0
   38.5520   27.1020   43.7500 C   0  0  0  0  0  0  0  0  0  0  0  0
   38.0270   26.3250   43.1530 H   0  0  0  0  0  0  0  0  0  0  0  0
   38.4790   26.8130   44.8160 H   0  0  0  0  0  0  0  0  0  0  0  0
   42.1190   25.9970   43.3350 C   0  0  0  0  0  0  0  0  0  0  0  0
   40.7460   25.9650   43.6160 C   0  0  0  0  0  0  0  0  0  0  0  0
   40.0190   27.1380   43.4490 C   0  0  0  0  0  0  0  0  0  0  0  0
   40.6540   28.2580   43.0270 N   0  0  0  0  0  0  0  0  0  0  0  0
   41.9840   28.2380   42.7690 C   0  0  0  0  0  0  0  0  0  0  0  0
   42.7200   27.1390   42.9140 N   0  0  0  0  0  0  0  0  0  0  0  0
   42.9120   24.8320   43.4880 N   0  0  0  0  0  0  0  0  0  0  0  0
   40.3350   25.0340   43.9440 H   0  0  0  0  0  0  0  0  0  0  0  0
   42.4300   29.1680   42.4350 H   0  0  0  0  0  0  0  0  0  0  0  0
   43.4900   24.7590   44.3630 H   0  0  0  0  0  0  0  0  0  0  0  0
   43.0250   24.0200   42.8720 H   0  0  0  0  0  0  0  0  0  0  0  0
   37.4690   29.3550   39.8360 O   0  0  0  0  0  0  0  0  0  0  0  0
   36.9380   27.4080   38.6300 C   0  0  1  0  0  0  0  0  0  0  0  0
   36.4220   28.6150   39.3620 C   0  0  2  0  0  0  0  0  0  0  0  0
   35.8790   29.4110   38.1540 C   0  0  0  0  0  0  0  0  0  0  0  0
   36.7850   29.2290   37.1500 O   0  0  0  0  0  0  0  0  0  0  0  0
   37.4400   28.0390   37.3510 C   0  0  0  0  0  0  0  0  0  0  0  0
   36.0910   26.7380   38.4320 H   0  0  0  0  0  0  0  0  0  0  0  0
   35.6060   28.4130   40.0770 H   0  0  0  0  0  0  0  0  0  0  0  0
   35.7590   30.4700   38.4570 H   0  0  0  0  0  0  0  0  0  0  0  0
   34.8790   28.9910   37.9370 H   0  0  0  0  0  0  0  0  0  0  0  0
   37.2750   27.3150   36.5190 H   0  0  0  0  0  0  0  0  0  0  0  0
   38.5280   28.2680   37.3840 H   0  0  0  0  0  0  0  0  0  0  0  0
   37.9170   26.7370   39.3320 O   0  0  0  0  0  0  0  0  0  0  0  0
   37.7430   25.7360   40.2650 C   0  0  0  0  0  0  0  0  0  0  0  0
   38.8660   24.9280   40.4860 C   0  0  0  0  0  0  0  0  0  0  0  0
   39.9020   24.8360   40.1300 H   0  0  0  0  0  0  0  0  0  0  0  0
   38.4870   23.9890   41.4520 C   0  0  0  0  0  0  0  0  0  0  0  0
   38.9020   23.1490   41.9990 H   0  0  0  0  0  0  0  0  0  0  0  0
   37.1740   24.2810   41.7550 C   0  0  0  0  0  0  0  0  0  0  0  0
   36.3450   23.9420   42.3950 H   0  0  0  0  0  0  0  0  0  0  0  0
   36.7870   25.3020   41.0410 O   0  0  0  0  0  0  0  0  0  0  0  0
  2  3  1  0  0  0  0
  2  1  2  1  0  0  0
  2  5  1  0  0  0  0
  3  4  1  0  0  0  0
  5  6  1  0  0  0  0
  6  9  1  0  0  0  0
  6  7  1  0  0  0  0
  8  6  1  0  0  0  0
  9 11  1  0  0  0  0
 10  9  1  0  0  0  0
 12 18  1  0  0  0  0
 12 13  1  0  0  0  0
 13 19  1  0  0  0  0
 14 13  2  0  0  0  0
 14  9  1  0  0  0  0
 15 14  1  0  0  0  0
 16 17  1  0  0  0  0
 16 15  2  0  0  0  0
 17 12  2  0  0  0  0
 18 21  1  0  0  0  0
 20 16  1  0  0  0  0
 22 18  1  0  0  0  0
 23  2  1  0  0  0  0
 24 29  1  6  0  0  0
 24 35  1  0  0  0  0
 24 25  1  0  0  0  0
 25 23  1  0  0  0  0
 25 30  1  1  0  0  0
 26 31  1  0  0  0  0
 26 25  1  0  0  0  0
 27 28  1  0  0  0  0
 27 26  1  0  0  0  0
 28 34  1  0  0  0  0
 28 24  1  0  0  0  0
 32 26  1  0  0  0  0
 33 28  1  0  0  0  0
 35 36  1  0  0  0  0
 36 37  2  0  0  0  0
 36 43  1  0  0  0  0
 37 39  1  0  0  0  0
 38 37  1  0  0  0  0
 39 41  2  0  0  0  0
 39 40  1  0  0  0  0
 41 42  1  0  0  0  0
 43 41  1  0  0  0  0
M  END
>  <minimizedAffinity>
-5.12439251

$$$$
