
 OpenBabel03242514233D

 33 36  0  0  0  0  0  0  0  0999 V2000
   44.8560   33.1340   41.0940 Cl  0  0  0  0  0  0  0  0  0  0  0  0
   46.3790   33.9820   40.9010 C   0  0  0  0  0  0  0  0  0  0  0  0
   46.8730   34.7410   41.9220 C   0  0  0  0  0  0  0  0  0  0  0  0
   48.0820   35.4190   41.7830 C   0  0  0  0  0  0  0  0  0  0  0  0
   48.7310   35.2850   40.5880 C   0  0  0  0  0  0  0  0  0  0  0  0
   48.2290   34.5170   39.5590 C   0  0  0  0  0  0  0  0  0  0  0  0
   47.0450   33.8590   39.7110 C   0  0  0  0  0  0  0  0  0  0  0  0
   48.4950   36.0240   42.5700 H   0  0  0  0  0  0  0  0  0  0  0  0
   49.6860   35.7690   40.3650 H   0  0  0  0  0  0  0  0  0  0  0  0
   48.7400   34.4040   38.6030 H   0  0  0  0  0  0  0  0  0  0  0  0
   45.6250   34.0240   45.3140 C   0  0  0  0  0  0  0  0  0  0  0  0
   44.7230   35.0760   45.5250 C   0  0  0  0  0  0  0  0  0  0  0  0
   44.5490   36.0140   44.5160 C   0  0  0  0  0  0  0  0  0  0  0  0
   45.2600   35.8660   43.3770 N   0  0  0  0  0  0  0  0  0  0  0  0
   46.1290   34.8470   43.1810 C   0  0  0  0  0  0  0  0  0  0  0  0
   46.3170   33.9180   44.1540 N   0  0  0  0  0  0  0  0  0  0  0  0
   45.7480   33.2980   46.1190 H   0  0  0  0  0  0  0  0  0  0  0  0
   44.1480   35.2230   46.4090 H   0  0  0  0  0  0  0  0  0  0  0  0
   43.9090   36.8660   44.5140 H   0  0  0  0  0  0  0  0  0  0  0  0
   46.4850   33.0390   38.6430 C   0  0  0  0  0  0  0  0  0  0  0  0
   45.4190   33.3100   37.8790 N   0  0  0  0  0  0  0  0  0  0  0  0
   45.2310   32.3000   37.0120 C   0  0  0  0  0  0  0  0  0  0  0  0
   46.1910   31.3740   37.2320 N   0  0  0  0  0  0  0  0  0  0  0  0
   46.9550   31.8380   38.2340 N   0  0  0  0  0  0  0  0  0  0  0  0
   44.5010   32.1370   36.2470 H   0  0  0  0  0  0  0  0  0  0  0  0
   46.5030   30.1160   36.6410 C   0  0  0  0  0  0  0  0  0  0  0  0
   47.8390   29.7030   36.6920 C   0  0  0  0  0  0  0  0  0  0  0  0
   48.7440   30.1410   37.0980 H   0  0  0  0  0  0  0  0  0  0  0  0
   47.8880   28.4630   36.0590 C   0  0  0  0  0  0  0  0  0  0  0  0
   48.6730   27.7420   35.8410 H   0  0  0  0  0  0  0  0  0  0  0  0
   46.5730   28.1990   35.6610 C   0  0  0  0  0  0  0  0  0  0  0  0
   46.0870   27.3770   35.1390 H   0  0  0  0  0  0  0  0  0  0  0  0
   45.7920   29.2020   36.0260 O   0  0  0  0  0  0  0  0  0  0  0  0
  2  1  1  0  0  0  0
  2  3  1  0  0  0  0
  3 15  1  0  0  0  0
  4  3  2  0  0  0  0
  4  8  1  0  0  0  0
  5  4  1  0  0  0  0
  6  7  1  0  0  0  0
  6  5  2  0  0  0  0
  7  2  2  0  0  0  0
  9  5  1  0  0  0  0
 10  6  1  0  0  0  0
 11 12  1  0  0  0  0
 11 17  1  0  0  0  0
 12 18  1  0  0  0  0
 13 12  2  0  0  0  0
 14 13  1  0  0  0  0
 15 14  2  0  0  0  0
 15 16  1  0  0  0  0
 16 11  2  0  0  0  0
 19 13  1  0  0  0  0
 20  7  1  0  0  0  0
 21 20  1  0  0  0  0
 22 23  1  0  0  0  0
 22 21  2  0  0  0  0
 23 24  1  0  0  0  0
 24 20  2  0  0  0  0
 25 22  1  0  0  0  0
 26 27  2  0  0  0  0
 26 23  1  0  0  0  0
 27 28  1  0  0  0  0
 29 27  1  0  0  0  0
 30 29  1  0  0  0  0
 31 33  1  0  0  0  0
 31 29  2  0  0  0  0
 32 31  1  0  0  0  0
 33 26  1  0  0  0  0
M  END
>  <minimizedAffinity>
-5.36395884

>  <minimizedRMSD>
0.493174493

$$$$
