
 OpenBabel03242512043D

 19 20  0  0  0  0  0  0  0  0999 V2000
   47.1790   34.9230   41.9030 C   0  0  0  0  0  0  0  0  0  0  0  0
   48.2850   35.5270   41.9530 O   0  0  0  0  0  0  0  0  0  0  0  0
   45.4340   36.0290   43.1960 C   0  0  0  0  0  0  0  0  0  0  0  0
   46.3390   34.9790   43.0520 C   0  0  0  0  0  0  0  0  0  0  0  0
   46.3620   34.0310   44.0720 C   0  0  0  0  0  0  0  0  0  0  0  0
   45.5320   34.1600   45.1290 N   0  0  0  0  0  0  0  0  0  0  0  0
   44.6620   35.2000   45.2320 C   0  0  0  0  0  0  0  0  0  0  0  0
   44.6120   36.1370   44.2620 N   0  0  0  0  0  0  0  0  0  0  0  0
   45.4050   36.7790   42.4030 H   0  0  0  0  0  0  0  0  0  0  0  0
   47.0450   33.2180   43.9890 H   0  0  0  0  0  0  0  0  0  0  0  0
   44.0740   35.1560   46.1280 H   0  0  0  0  0  0  0  0  0  0  0  0
   46.8440   34.2120   40.6740 C   0  0  0  0  0  0  0  0  0  0  0  0
   47.6780   34.0340   39.5980 C   0  0  0  0  0  0  0  0  0  0  0  0
   48.6870   34.3940   39.5150 H   0  0  0  0  0  0  0  0  0  0  0  0
   46.9140   33.3110   38.6990 C   0  0  0  0  0  0  0  0  0  0  0  0
   47.2640   32.9870   37.7180 H   0  0  0  0  0  0  0  0  0  0  0  0
   45.6730   33.0840   39.2580 C   0  0  0  0  0  0  0  0  0  0  0  0
   44.8370   32.5460   38.8140 H   0  0  0  0  0  0  0  0  0  0  0  0
   45.6570   33.6440   40.4630 O   0  0  0  0  0  0  0  0  0  0  0  0
  1  2  2  0  0  0  0
  1  4  1  0  0  0  0
  3  8  1  0  0  0  0
  4  3  2  0  0  0  0
  4  5  1  0  0  0  0
  5  6  2  0  0  0  0
  6  7  1  0  0  0  0
  7 11  1  0  0  0  0
  8  7  2  0  0  0  0
  9  3  1  0  0  0  0
 10  5  1  0  0  0  0
 12  1  1  0  0  0  0
 13 12  2  0  0  0  0
 14 13  1  0  0  0  0
 15 17  2  0  0  0  0
 15 13  1  0  0  0  0
 16 15  1  0  0  0  0
 17 19  1  0  0  0  0
 18 17  1  0  0  0  0
 19 12  1  0  0  0  0
M  END
>  <minimizedAffinity>
-4.01794672

>  <minimizedRMSD>
0.659686029

$$$$
