
 OpenBabel03252509273D

 29 31  0  0  1  0  0  0  0  0999 V2000
   46.5840   35.0880   41.9290 C   0  0  1  0  0  0  0  0  0  0  0  0
   48.1190   35.3070   41.9270 C   0  0  0  0  0  0  0  0  0  0  0  0
   47.3600   34.0960   41.3070 C   0  0  2  0  0  0  0  0  0  0  0  0
   46.0750   35.9050   41.3970 H   0  0  0  0  0  0  0  0  0  0  0  0
   48.5300   35.9670   41.1490 H   0  0  0  0  0  0  0  0  0  0  0  0
   48.6890   35.0790   42.8330 H   0  0  0  0  0  0  0  0  0  0  0  0
   47.5220   33.1210   41.8510 H   0  0  0  0  0  0  0  0  0  0  0  0
   44.6660   35.3850   45.1360 C   0  0  0  0  0  0  0  0  0  0  0  0
   45.1320   35.6960   43.8310 C   0  0  0  0  0  0  0  0  0  0  0  0
   46.0770   34.8580   43.3290 C   0  0  0  0  0  0  0  0  0  0  0  0
   46.5450   33.7840   44.0470 N   0  0  0  0  0  0  0  0  0  0  0  0
   46.0760   33.5250   45.2870 C   0  0  0  0  0  0  0  0  0  0  0  0
   45.1330   34.3290   45.8310 N   0  0  0  0  0  0  0  0  0  0  0  0
   43.9080   36.0420   45.5560 H   0  0  0  0  0  0  0  0  0  0  0  0
   46.4170   32.6950   45.8830 H   0  0  0  0  0  0  0  0  0  0  0  0
   44.6550   36.8220   43.1200 N   0  0  0  0  0  0  0  0  0  0  0  0
   43.7680   37.0240   42.6140 H   0  0  0  0  0  0  0  0  0  0  0  0
   45.4600   37.5110   43.2050 H   0  0  0  0  0  0  0  0  0  0  0  0
   47.3860   33.9240   39.8060 C   0  0  0  0  0  0  0  0  0  0  0  0
   48.3190   33.4470   39.5080 H   0  0  0  0  0  0  0  0  0  0  0  0
   47.2550   34.8900   39.2750 H   0  0  0  0  0  0  0  0  0  0  0  0
   46.2380   33.0110   39.4970 C   0  0  0  0  0  0  0  0  0  0  0  0
   46.2210   31.6390   39.5530 C   0  0  0  0  0  0  0  0  0  0  0  0
   47.0490   31.0220   39.8340 H   0  0  0  0  0  0  0  0  0  0  0  0
   44.9420   31.2470   39.1810 C   0  0  0  0  0  0  0  0  0  0  0  0
   44.5880   30.2240   39.1190 H   0  0  0  0  0  0  0  0  0  0  0  0
   44.2440   32.4200   38.9160 C   0  0  0  0  0  0  0  0  0  0  0  0
   43.2150   32.3620   38.6040 H   0  0  0  0  0  0  0  0  0  0  0  0
   45.0470   33.4340   39.1150 O   0  0  0  0  0  0  0  0  0  0  0  0
  1  4  1  6  0  0  0
  1 10  1  0  0  0  0
  2  1  1  0  0  0  0
  2  6  1  0  0  0  0
  3  7  1  1  0  0  0
  3  2  1  0  0  0  0
  3  1  1  0  0  0  0
  5  2  1  0  0  0  0
  8 14  1  0  0  0  0
  8 13  1  0  0  0  0
  9  8  2  0  0  0  0
 10  9  1  0  0  0  0
 10 11  2  0  0  0  0
 11 12  1  0  0  0  0
 12 13  2  0  0  0  0
 12 15  1  0  0  0  0
 16 18  1  0  0  0  0
 16  9  1  0  0  0  0
 17 16  1  0  0  0  0
 19  3  1  0  0  0  0
 20 19  1  0  0  0  0
 21 19  1  0  0  0  0
 22 23  2  0  0  0  0
 22 19  1  0  0  0  0
 23 24  1  0  0  0  0
 25 23  1  0  0  0  0
 26 25  1  0  0  0  0
 27 29  1  0  0  0  0
 27 25  2  0  0  0  0
 28 27  1  0  0  0  0
 29 22  1  0  0  0  0
M  END
>  <minimizedAffinity>
-4.37902069

>  <minimizedRMSD>
0.717507243

$$$$
