
 OpenBabel03242515393D

 35 38  0  0  0  0  0  0  0  0999 V2000
   43.9160   34.7900   40.9970 C   0  0  0  0  0  0  0  0  0  0  0  0
   43.8560   33.9430   39.9060 C   0  0  0  0  0  0  0  0  0  0  0  0
   45.0600   33.3510   39.4950 C   0  0  0  0  0  0  0  0  0  0  0  0
   46.1950   33.6220   40.1600 N   0  0  0  0  0  0  0  0  0  0  0  0
   46.2100   34.4570   41.2230 C   0  0  0  0  0  0  0  0  0  0  0  0
   45.0670   35.0120   41.6050 N   0  0  0  0  0  0  0  0  0  0  0  0
   42.9590   33.7080   39.3530 H   0  0  0  0  0  0  0  0  0  0  0  0
   45.0670   32.4480   38.3510 C   0  0  0  0  0  0  0  0  0  0  0  0
   45.2000   32.8220   37.0310 C   0  0  0  0  0  0  0  0  0  0  0  0
   45.3160   33.8370   36.6650 H   0  0  0  0  0  0  0  0  0  0  0  0
   45.1580   31.6640   36.2450 C   0  0  0  0  0  0  0  0  0  0  0  0
   45.2350   31.6310   35.1870 H   0  0  0  0  0  0  0  0  0  0  0  0
   44.9980   30.6530   37.1750 C   0  0  0  0  0  0  0  0  0  0  0  0
   44.9250   29.5950   36.9140 H   0  0  0  0  0  0  0  0  0  0  0  0
   44.9490   31.1440   38.3990 O   0  0  0  0  0  0  0  0  0  0  0  0
   42.3410   35.5250   41.4830 S   0  0  0  0  0  0  0  0  0  0  0  0
   40.0070   34.9350   40.3030 C   0  0  0  0  0  0  0  0  0  0  0  0
   40.9910   34.4130   41.1310 C   0  0  0  0  0  0  0  0  0  0  0  0
   40.8900   33.1370   41.6180 C   0  0  0  0  0  0  0  0  0  0  0  0
   39.8270   32.3090   41.3210 C   0  0  0  0  0  0  0  0  0  0  0  0
   38.8270   32.8450   40.4770 C   0  0  0  0  0  0  0  0  0  0  0  0
   38.8980   34.1290   39.9690 C   0  0  0  0  0  0  0  0  0  0  0  0
   37.8560   31.8300   40.3170 O   0  0  0  0  0  0  0  0  0  0  0  0
   38.0910   30.8850   41.3260 C   0  0  0  0  0  0  0  0  0  0  0  0
   39.4620   31.0070   41.6550 O   0  0  0  0  0  0  0  0  0  0  0  0
   39.9930   35.9260   39.8690 H   0  0  0  0  0  0  0  0  0  0  0  0
   41.6880   32.7800   42.2610 H   0  0  0  0  0  0  0  0  0  0  0  0
   38.1200   34.5100   39.3280 H   0  0  0  0  0  0  0  0  0  0  0  0
   37.5460   31.2250   42.2390 H   0  0  0  0  0  0  0  0  0  0  0  0
   37.7950   29.8550   41.0610 H   0  0  0  0  0  0  0  0  0  0  0  0
   47.3230   34.7890   41.9580 O   0  0  0  0  0  0  0  0  0  0  0  0
   48.5270   35.0590   41.2670 C   0  0  0  0  0  0  0  0  0  0  0  0
   49.4800   34.1060   41.4510 F   0  0  0  0  0  0  0  0  0  0  0  0
   48.1570   35.2280   39.9200 F   0  0  0  0  0  0  0  0  0  0  0  0
   49.0150   36.2670   41.7750 F   0  0  0  0  0  0  0  0  0  0  0  0
  1 16  1  0  0  0  0
  1  6  1  0  0  0  0
  2  1  2  0  0  0  0
  3  2  1  0  0  0  0
  3  4  2  0  0  0  0
  4  5  1  0  0  0  0
  5  6  2  0  0  0  0
  5 31  1  0  0  0  0
  7  2  1  0  0  0  0
  8 15  1  0  0  0  0
  8  3  1  0  0  0  0
  9  8  2  0  0  0  0
 10  9  1  0  0  0  0
 11  9  1  0  0  0  0
 11 13  2  0  0  0  0
 12 11  1  0  0  0  0
 13 15  1  0  0  0  0
 14 13  1  0  0  0  0
 17 18  1  0  0  0  0
 18 16  1  0  0  0  0
 18 19  2  0  0  0  0
 19 27  1  0  0  0  0
 20 19  1  0  0  0  0
 20 25  1  0  0  0  0
 21 20  2  0  0  0  0
 22 17  2  0  0  0  0
 22 21  1  0  0  0  0
 23 21  1  0  0  0  0
 23 24  1  0  0  0  0
 24 25  1  0  0  0  0
 24 29  1  0  0  0  0
 26 17  1  0  0  0  0
 28 22  1  0  0  0  0
 30 24  1  0  0  0  0
 32 33  1  0  0  0  0
 32 35  1  0  0  0  0
 32 31  1  0  0  0  0
 34 32  1  0  0  0  0
M  END
>  <minimizedAffinity>
-5.86977434

>  <minimizedRMSD>
0.231756538

$$$$
