
 OpenBabel03242514223D

 33 36  0  0  0  0  0  0  0  0999 V2000
   44.8370   33.0810   41.1350 Cl  0  0  0  0  0  0  0  0  0  0  0  0
   46.3550   33.9330   40.9190 C   0  0  0  0  0  0  0  0  0  0  0  0
   46.8530   34.7070   41.9270 C   0  0  0  0  0  0  0  0  0  0  0  0
   48.0580   35.3890   41.7700 C   0  0  0  0  0  0  0  0  0  0  0  0
   48.6990   35.2420   40.5720 C   0  0  0  0  0  0  0  0  0  0  0  0
   48.1920   34.4600   39.5560 C   0  0  0  0  0  0  0  0  0  0  0  0
   47.0120   33.7990   39.7250 C   0  0  0  0  0  0  0  0  0  0  0  0
   48.4750   36.0040   42.5460 H   0  0  0  0  0  0  0  0  0  0  0  0
   49.6500   35.7280   40.3350 H   0  0  0  0  0  0  0  0  0  0  0  0
   48.6960   34.3380   38.5980 H   0  0  0  0  0  0  0  0  0  0  0  0
   45.6190   34.0150   45.3290 C   0  0  0  0  0  0  0  0  0  0  0  0
   44.7310   35.0770   45.5420 C   0  0  0  0  0  0  0  0  0  0  0  0
   44.5610   36.0130   44.5320 C   0  0  0  0  0  0  0  0  0  0  0  0
   45.2630   35.8540   43.3880 N   0  0  0  0  0  0  0  0  0  0  0  0
   46.1190   34.8250   43.1900 C   0  0  0  0  0  0  0  0  0  0  0  0
   46.3030   33.8970   44.1640 N   0  0  0  0  0  0  0  0  0  0  0  0
   45.7390   33.2890   46.1360 H   0  0  0  0  0  0  0  0  0  0  0  0
   44.1630   35.2330   46.4300 H   0  0  0  0  0  0  0  0  0  0  0  0
   43.9300   36.8730   44.5310 H   0  0  0  0  0  0  0  0  0  0  0  0
   46.4470   32.9630   38.6720 C   0  0  0  0  0  0  0  0  0  0  0  0
   45.5920   33.3300   37.7080 N   0  0  0  0  0  0  0  0  0  0  0  0
   45.3140   32.2650   36.9370 C   0  0  0  0  0  0  0  0  0  0  0  0
   46.0020   31.2060   37.4210 N   0  0  0  0  0  0  0  0  0  0  0  0
   46.6940   31.6470   38.4840 N   0  0  0  0  0  0  0  0  0  0  0  0
   44.6860   32.1440   36.0790 H   0  0  0  0  0  0  0  0  0  0  0  0
   46.1110   29.8400   37.0340 C   0  0  0  0  0  0  0  0  0  0  0  0
   44.9180   29.1480   36.7970 C   0  0  0  0  0  0  0  0  0  0  0  0
   43.8710   29.4240   36.8430 H   0  0  0  0  0  0  0  0  0  0  0  0
   45.2840   27.8520   36.4400 C   0  0  0  0  0  0  0  0  0  0  0  0
   44.7400   26.9500   36.1640 H   0  0  0  0  0  0  0  0  0  0  0  0
   46.6820   27.8380   36.4810 C   0  0  0  0  0  0  0  0  0  0  0  0
   47.4400   27.0800   36.2900 H   0  0  0  0  0  0  0  0  0  0  0  0
   47.1250   29.0320   36.8350 O   0  0  0  0  0  0  0  0  0  0  0  0
  2  1  1  0  0  0  0
  2  3  1  0  0  0  0
  3 15  1  0  0  0  0
  4  3  2  0  0  0  0
  4  8  1  0  0  0  0
  5  4  1  0  0  0  0
  6  7  1  0  0  0  0
  6  5  2  0  0  0  0
  7  2  2  0  0  0  0
  9  5  1  0  0  0  0
 10  6  1  0  0  0  0
 11 12  1  0  0  0  0
 11 17  1  0  0  0  0
 12 18  1  0  0  0  0
 13 12  2  0  0  0  0
 14 13  1  0  0  0  0
 15 14  2  0  0  0  0
 15 16  1  0  0  0  0
 16 11  2  0  0  0  0
 19 13  1  0  0  0  0
 20  7  1  0  0  0  0
 21 20  1  0  0  0  0
 22 23  1  0  0  0  0
 22 21  2  0  0  0  0
 23 24  1  0  0  0  0
 24 20  2  0  0  0  0
 25 22  1  0  0  0  0
 26 23  1  0  0  0  0
 27 28  1  0  0  0  0
 27 26  2  0  0  0  0
 29 31  2  0  0  0  0
 29 27  1  0  0  0  0
 30 29  1  0  0  0  0
 31 33  1  0  0  0  0
 32 31  1  0  0  0  0
 33 26  1  0  0  0  0
M  END
>  <minimizedAffinity>
-5.30010271

>  <minimizedRMSD>
0.0430826582

$$$$
