
 OpenBabel03252508473D

 44 46  0  0  0  0  0  0  0  0999 V2000
   43.0210   32.5290   41.6410 C   0  0  0  0  0  0  0  0  0  0  0  0
   43.4660   32.1220   40.6850 H   0  0  0  0  0  0  0  0  0  0  0  0
   42.0580   33.0230   41.3750 H   0  0  0  0  0  0  0  0  0  0  0  0
   43.7110   34.9120   41.9210 C   0  0  0  0  0  0  0  0  0  0  0  0
   43.9150   33.5700   42.2180 C   0  0  0  0  0  0  0  0  0  0  0  0
   44.9540   33.2500   43.0520 C   0  0  0  0  0  0  0  0  0  0  0  0
   45.7620   34.2200   43.5720 C   0  0  0  0  0  0  0  0  0  0  0  0
   45.5770   35.5410   43.2910 C   0  0  0  0  0  0  0  0  0  0  0  0
   44.5180   35.8380   42.4440 C   0  0  0  0  0  0  0  0  0  0  0  0
   45.1020   32.1920   43.2780 H   0  0  0  0  0  0  0  0  0  0  0  0
   46.5890   33.9780   44.2340 H   0  0  0  0  0  0  0  0  0  0  0  0
   46.1660   36.3720   43.6560 H   0  0  0  0  0  0  0  0  0  0  0  0
   44.3110   36.8710   42.1750 H   0  0  0  0  0  0  0  0  0  0  0  0
   40.3180   35.8500   40.5320 C   0  0  0  0  0  0  0  0  0  0  0  0
   41.3310   35.5890   41.4720 C   0  0  0  0  0  0  0  0  0  0  0  0
   42.5890   35.2080   41.0260 C   0  0  0  0  0  0  0  0  0  0  0  0
   42.7720   35.1060   39.6830 N   0  0  0  0  0  0  0  0  0  0  0  0
   41.7880   35.3600   38.7900 C   0  0  0  0  0  0  0  0  0  0  0  0
   40.5730   35.7290   39.2240 N   0  0  0  0  0  0  0  0  0  0  0  0
   39.3400   36.1470   40.8940 H   0  0  0  0  0  0  0  0  0  0  0  0
   41.1720   35.6730   42.5360 H   0  0  0  0  0  0  0  0  0  0  0  0
   42.0350   35.2510   37.7330 H   0  0  0  0  0  0  0  0  0  0  0  0
   42.7000   31.4580   42.5480 N   0  0  0  0  0  0  0  0  0  0  0  0
   42.9460   31.7570   43.5240 H   0  0  0  0  0  0  0  0  0  0  0  0
   41.0190   31.1290   42.5820 S   0  0  0  0  0  0  0  0  0  0  0  0
   40.2180   32.3980   42.5320 O   0  0  0  0  0  0  0  0  0  0  0  0
   39.3840   32.5470   41.9960 H   0  0  0  0  0  0  0  0  0  0  0  0
   40.6560   30.3340   43.7850 O   0  0  0  0  0  0  0  0  0  0  0  0
   40.6750   30.7730   44.6940 H   0  0  0  0  0  0  0  0  0  0  0  0
   40.6690   30.2090   41.2250 O   0  0  0  0  0  0  0  0  0  0  0  0
   39.3160   30.2520   40.9820 C   0  0  0  0  0  0  0  0  0  0  0  0
   38.8780   31.1920   41.3270 H   0  0  0  0  0  0  0  0  0  0  0  0
   38.7290   29.4420   41.4350 H   0  0  0  0  0  0  0  0  0  0  0  0
   39.0740   30.0860   39.4720 C   0  0  0  0  0  0  0  0  0  0  0  0
   39.9310   29.6340   38.9770 H   0  0  0  0  0  0  0  0  0  0  0  0
   38.1980   29.3890   39.3650 H   0  0  0  0  0  0  0  0  0  0  0  0
   38.7090   31.3870   38.8860 C   0  0  0  0  0  0  0  0  0  0  0  0
   38.4600   32.5460   39.5680 C   0  0  0  0  0  0  0  0  0  0  0  0
   38.4860   32.7110   40.6470 H   0  0  0  0  0  0  0  0  0  0  0  0
   38.1570   33.5020   38.5960 C   0  0  0  0  0  0  0  0  0  0  0  0
   37.9170   34.5270   38.8880 H   0  0  0  0  0  0  0  0  0  0  0  0
   38.2460   32.8480   37.3720 C   0  0  0  0  0  0  0  0  0  0  0  0
   38.0350   33.4750   36.5170 H   0  0  0  0  0  0  0  0  0  0  0  0
   38.5740   31.6000   37.5820 O   0  0  0  0  0  0  0  0  0  0  0  0
  1  5  1  0  0  0  0
  1 23  1  0  0  0  0
  2  1  1  0  0  0  0
  3  1  1  0  0  0  0
  4  5  2  0  0  0  0
  4  9  1  0  0  0  0
  5  6  1  0  0  0  0
  6 10  1  0  0  0  0
  6  7  2  0  0  0  0
  7 11  1  0  0  0  0
  8  7  1  0  0  0  0
  8 12  1  0  0  0  0
  9  8  2  0  0  0  0
 13  9  1  0  0  0  0
 14 20  1  0  0  0  0
 14 15  1  0  0  0  0
 15 21  1  0  0  0  0
 16 15  2  0  0  0  0
 16  4  1  0  0  0  0
 17 16  1  0  0  0  0
 18 19  1  0  0  0  0
 18 17  2  0  0  0  0
 19 14  2  0  0  0  0
 22 18  1  0  0  0  0
 23 25  1  0  0  0  0
 23 24  1  0  0  0  0
 25 28  1  0  0  0  0
 26 25  1  0  0  0  0
 27 26  1  0  0  0  0
 28 29  1  0  0  0  0
 30 25  1  0  0  0  0
 31 30  1  0  0  0  0
 31 32  1  0  0  0  0
 31 33  1  0  0  0  0
 34 31  1  0  0  0  0
 35 34  1  0  0  0  0
 36 34  1  0  0  0  0
 37 34  1  0  0  0  0
 37 38  2  0  0  0  0
 38 39  1  0  0  0  0
 40 41  1  0  0  0  0
 40 38  1  0  0  0  0
 42 44  1  0  0  0  0
 42 40  2  0  0  0  0
 43 42  1  0  0  0  0
 44 37  1  0  0  0  0
M  END
>  <minimizedAffinity>
-5.6109004

>  <minimizedRMSD>
2.65421224

$$$$
