
 OpenBabel03252509263D

 29 31  0  0  1  0  0  0  0  0999 V2000
   46.6070   35.1020   41.9290 C   0  0  1  0  0  0  0  0  0  0  0  0
   48.1440   35.3160   41.9320 C   0  0  0  0  0  0  0  0  0  0  0  0
   47.3800   34.1150   41.2960 C   0  0  2  0  0  0  0  0  0  0  0  0
   46.1020   35.9280   41.4060 H   0  0  0  0  0  0  0  0  0  0  0  0
   48.5580   35.9840   41.1630 H   0  0  0  0  0  0  0  0  0  0  0  0
   48.7110   35.0750   42.8350 H   0  0  0  0  0  0  0  0  0  0  0  0
   47.5390   33.1340   41.8290 H   0  0  0  0  0  0  0  0  0  0  0  0
   44.6740   35.3580   45.1300 C   0  0  0  0  0  0  0  0  0  0  0  0
   45.1410   35.6820   43.8300 C   0  0  0  0  0  0  0  0  0  0  0  0
   46.0980   34.8580   43.3260 C   0  0  0  0  0  0  0  0  0  0  0  0
   46.5760   33.7850   44.0390 N   0  0  0  0  0  0  0  0  0  0  0  0
   46.1050   33.5120   45.2750 C   0  0  0  0  0  0  0  0  0  0  0  0
   45.1500   34.3020   45.8210 N   0  0  0  0  0  0  0  0  0  0  0  0
   43.9080   36.0030   45.5520 H   0  0  0  0  0  0  0  0  0  0  0  0
   46.4530   32.6820   45.8670 H   0  0  0  0  0  0  0  0  0  0  0  0
   44.6550   36.8070   43.1240 N   0  0  0  0  0  0  0  0  0  0  0  0
   43.7670   37.0020   42.6160 H   0  0  0  0  0  0  0  0  0  0  0  0
   45.4520   37.5040   43.2160 H   0  0  0  0  0  0  0  0  0  0  0  0
   47.4080   33.9620   39.7940 C   0  0  0  0  0  0  0  0  0  0  0  0
   48.3650   33.5410   39.4860 H   0  0  0  0  0  0  0  0  0  0  0  0
   47.2200   34.9240   39.2740 H   0  0  0  0  0  0  0  0  0  0  0  0
   46.3120   32.9880   39.4800 C   0  0  0  0  0  0  0  0  0  0  0  0
   46.3940   31.6180   39.4440 C   0  0  0  0  0  0  0  0  0  0  0  0
   47.2770   31.0480   39.6390 H   0  0  0  0  0  0  0  0  0  0  0  0
   45.1290   31.1570   39.1090 C   0  0  0  0  0  0  0  0  0  0  0  0
   44.8440   30.1180   38.9940 H   0  0  0  0  0  0  0  0  0  0  0  0
   44.3360   32.2900   38.9590 C   0  0  0  0  0  0  0  0  0  0  0  0
   43.2990   32.1770   38.6950 H   0  0  0  0  0  0  0  0  0  0  0  0
   45.0740   33.3450   39.1860 O   0  0  0  0  0  0  0  0  0  0  0  0
  1  4  1  6  0  0  0
  1  2  1  0  0  0  0
  1 10  1  0  0  0  0
  2  6  1  0  0  0  0
  3  7  1  1  0  0  0
  3  1  1  0  0  0  0
  3  2  1  0  0  0  0
  5  2  1  0  0  0  0
  8 14  1  0  0  0  0
  8 13  1  0  0  0  0
  9  8  2  0  0  0  0
 10  9  1  0  0  0  0
 10 11  2  0  0  0  0
 11 12  1  0  0  0  0
 12 13  2  0  0  0  0
 12 15  1  0  0  0  0
 16 18  1  0  0  0  0
 16  9  1  0  0  0  0
 17 16  1  0  0  0  0
 19  3  1  0  0  0  0
 20 19  1  0  0  0  0
 21 19  1  0  0  0  0
 22 19  1  0  0  0  0
 23 22  2  0  0  0  0
 23 24  1  0  0  0  0
 25 23  1  0  0  0  0
 26 25  1  0  0  0  0
 27 25  2  0  0  0  0
 27 29  1  0  0  0  0
 28 27  1  0  0  0  0
 29 22  1  0  0  0  0
M  END
>  <minimizedAffinity>
-4.38213205

>  <minimizedRMSD>
0.78916651

$$$$
