
 OpenBabel03252508503D

 27 29  0  0  0  0  0  0  0  0999 V2000
   45.9570   34.1980   41.0410 C   0  0  0  0  0  0  0  0  0  0  0  0
   46.5390   34.8130   42.1410 C   0  0  0  0  0  0  0  0  0  0  0  0
   47.8920   35.1750   42.0160 C   0  0  0  0  0  0  0  0  0  0  0  0
   48.5270   34.9040   40.8460 N   0  0  0  0  0  0  0  0  0  0  0  0
   47.9270   34.3130   39.8200 C   0  0  0  0  0  0  0  0  0  0  0  0
   46.6350   33.9550   39.9100 N   0  0  0  0  0  0  0  0  0  0  0  0
   48.3670   35.6500   42.8460 H   0  0  0  0  0  0  0  0  0  0  0  0
   48.3990   34.0800   38.8690 H   0  0  0  0  0  0  0  0  0  0  0  0
   45.7600   35.0520   43.3400 C   0  0  0  0  0  0  0  0  0  0  0  0
   45.0720   36.2240   43.5730 C   0  0  0  0  0  0  0  0  0  0  0  0
   44.4870   36.0260   44.8020 C   0  0  0  0  0  0  0  0  0  0  0  0
   44.7970   34.8080   45.2910 N   0  0  0  0  0  0  0  0  0  0  0  0
   45.5670   34.2410   44.3880 N   0  0  0  0  0  0  0  0  0  0  0  0
   44.9600   37.1300   42.9930 H   0  0  0  0  0  0  0  0  0  0  0  0
   43.8440   36.6760   45.4030 H   0  0  0  0  0  0  0  0  0  0  0  0
   44.5740   34.2740   46.1580 H   0  0  0  0  0  0  0  0  0  0  0  0
   44.6270   33.8270   41.1270 O   0  0  0  0  0  0  0  0  0  0  0  0
   43.5530   34.4430   40.5520 C   0  0  0  0  0  0  0  0  0  0  0  0
   43.1530   35.6480   40.7570 O   0  0  0  0  0  0  0  0  0  0  0  0
   42.6540   33.7710   39.5650 C   0  0  0  0  0  0  0  0  0  0  0  0
   41.4010   34.2000   39.1100 C   0  0  0  0  0  0  0  0  0  0  0  0
   40.9570   35.1370   39.4800 H   0  0  0  0  0  0  0  0  0  0  0  0
   40.8660   33.3190   38.1980 C   0  0  0  0  0  0  0  0  0  0  0  0
   39.9130   33.4110   37.6960 H   0  0  0  0  0  0  0  0  0  0  0  0
   41.8470   32.3540   38.1290 C   0  0  0  0  0  0  0  0  0  0  0  0
   41.7910   31.4600   37.4920 H   0  0  0  0  0  0  0  0  0  0  0  0
   42.8230   32.6520   38.9100 O   0  0  0  0  0  0  0  0  0  0  0  0
  1 17  1  0  0  0  0
  1  2  1  0  0  0  0
  2  9  1  0  0  0  0
  3  2  2  0  0  0  0
  3  7  1  0  0  0  0
  4  3  1  0  0  0  0
  5  6  1  0  0  0  0
  5  4  2  0  0  0  0
  6  1  2  0  0  0  0
  8  5  1  0  0  0  0
  9 10  1  0  0  0  0
  9 13  2  0  0  0  0
 10 11  2  0  0  0  0
 11 12  1  0  0  0  0
 11 15  1  0  0  0  0
 12 16  1  0  0  0  0
 13 12  1  0  0  0  0
 14 10  1  0  0  0  0
 18 19  2  0  0  0  0
 18 17  1  0  0  0  0
 20 18  1  0  0  0  0
 21 22  1  0  0  0  0
 21 20  2  0  0  0  0
 23 21  1  0  0  0  0
 24 23  1  0  0  0  0
 25 23  2  0  0  0  0
 25 27  1  0  0  0  0
 26 25  1  0  0  0  0
 27 20  1  0  0  0  0
M  END
>  <minimizedAffinity>
-5.07904482

>  <minimizedRMSD>
0.413515568

$$$$
