
     RDKit          3D

 21 22  0  0  0  0  0  0  0  0999 V2000
   44.5310   36.0423   44.5680 C   0  0  0  0  0  0  0  0  0  0  0  0
   45.2490   36.0062   43.3581 C   0  0  0  0  0  0  0  0  0  0  0  0
   46.1409   34.9550   43.1441 C   0  0  0  0  0  0  0  0  0  0  0  0
   46.2859   34.0042   44.1084 N   0  0  0  0  0  0  0  0  0  0  0  0
   45.5660   34.0773   45.2743 C   0  0  0  0  0  0  0  0  0  0  0  0
   44.7101   35.0808   45.4862 N   0  0  0  0  0  0  0  0  0  0  0  0
   46.3778   34.2013   40.7964 C   0  0  0  0  0  0  0  0  0  0  0  0
   45.2183   33.7267   40.9251 O   0  0  0  0  0  0  0  0  0  0  0  0
   46.9049   34.8474   41.9455 N   0  0  0  0  0  0  0  0  0  0  0  0
   43.8683   36.9025   44.6255 H   0  0  0  0  0  0  0  0  0  0  0  0
   45.1392   36.7591   42.5858 H   0  0  0  0  0  0  0  0  0  0  0  0
   45.7073   33.2984   46.0247 H   0  0  0  0  0  0  0  0  0  0  0  0
   47.8832   35.2499   41.8930 H   0  0  0  0  0  0  0  0  0  0  0  0
   47.1192   34.0877   39.5440 C   0  0  0  0  0  0  0  0  0  0  0  0
   46.5560   34.3365   38.3119 C   0  0  0  0  0  0  0  0  0  0  0  0
   45.5677   34.6354   37.9988 H   0  0  0  0  0  0  0  0  0  0  0  0
   47.5915   34.1151   37.4070 C   0  0  0  0  0  0  0  0  0  0  0  0
   47.6370   34.1834   36.3173 H   0  0  0  0  0  0  0  0  0  0  0  0
   48.7222   33.7449   38.1443 C   0  0  0  0  0  0  0  0  0  0  0  0
   49.7429   33.4831   37.8371 H   0  0  0  0  0  0  0  0  0  0  0  0
   48.3604   33.7510   39.4177 O   0  0  0  0  0  0  0  0  0  0  0  0
  1  6  2  0
  2  1  1  0
  3  2  2  0
  3  4  1  0
  4  5  2  0
  5  6  1  0
  7  8  2  0
  7  9  1  0
  9  3  1  0
  1 10  1  0
  2 11  1  0
  5 12  1  0
  9 13  1  0
 14 15  2  0
 15 16  1  0
 15 17  1  0
 17 18  1  0
 17 19  2  0
 19 20  1  0
 19 21  1  0
 21 14  1  0
  7 14  1  0
M  ISO  6  10  14  11  14  12  14  16  16  18  16  20  14
M  END
>  <DihAtoms>  (1) 
7,6,13,14

>  <DihDeg>  (1) 
0.0010109747524218444

$$$$
