
 OpenBabel03242523443D

 30 32  0  0  1  0  0  0  0  0999 V2000
   37.7160   30.2450   39.8660 C   0  0  2  0  0  0  0  0  0  0  0  0
   38.5620   29.6120   40.1070 H   0  0  0  0  0  0  0  0  0  0  0  0
   39.4290   31.8880   40.5310 C   0  0  0  0  0  0  0  0  0  0  0  0
   38.1310   31.6530   40.0160 C   0  0  0  0  0  0  0  0  0  0  0  0
   37.3400   32.7730   39.7060 C   0  0  0  0  0  0  0  0  0  0  0  0
   37.8950   33.9770   39.9290 N   0  0  0  0  0  0  0  0  0  0  0  0
   39.1130   34.1600   40.4130 C   0  0  0  0  0  0  0  0  0  0  0  0
   39.9040   33.1160   40.7240 N   0  0  0  0  0  0  0  0  0  0  0  0
   40.0580   31.0360   40.7780 H   0  0  0  0  0  0  0  0  0  0  0  0
   36.3520   32.5880   39.3130 H   0  0  0  0  0  0  0  0  0  0  0  0
   39.5260   35.1470   40.5790 H   0  0  0  0  0  0  0  0  0  0  0  0
   37.3110   30.0480   38.4400 C   0  0  0  0  0  0  0  0  0  0  0  0
   38.0060   30.2940   37.2810 C   0  0  0  0  0  0  0  0  0  0  0  0
   37.2430   29.9530   36.2160 N   0  0  0  0  0  0  0  0  0  0  0  0
   36.0610   29.4910   36.7150 C   0  0  0  0  0  0  0  0  0  0  0  0
   36.1120   29.5520   38.0570 N   0  0  0  0  0  0  0  0  0  0  0  0
   39.0140   30.7010   37.2920 H   0  0  0  0  0  0  0  0  0  0  0  0
   37.5350   30.0400   35.1970 H   0  0  0  0  0  0  0  0  0  0  0  0
   35.2370   29.1400   36.1080 H   0  0  0  0  0  0  0  0  0  0  0  0
   36.5440   30.0250   40.7610 C   0  0  0  0  0  0  0  0  0  0  0  0
   35.7480   29.4340   40.2090 H   0  0  0  0  0  0  0  0  0  0  0  0
   36.0360   30.9590   41.0620 H   0  0  0  0  0  0  0  0  0  0  0  0
   36.9040   29.1560   41.9120 C   0  0  0  0  0  0  0  0  0  0  0  0
   36.5660   27.8070   41.7580 C   0  0  0  0  0  0  0  0  0  0  0  0
   36.0800   27.2320   40.9540 H   0  0  0  0  0  0  0  0  0  0  0  0
   36.9500   27.1030   42.8890 C   0  0  0  0  0  0  0  0  0  0  0  0
   36.8500   26.0470   43.1240 H   0  0  0  0  0  0  0  0  0  0  0  0
   37.5080   28.0850   43.6750 C   0  0  0  0  0  0  0  0  0  0  0  0
   37.9350   27.9270   44.6660 H   0  0  0  0  0  0  0  0  0  0  0  0
   37.4630   29.2360   43.0830 O   0  0  0  0  0  0  0  0  0  0  0  0
  1  4  1  0  0  0  0
  1  2  1  1  0  0  0
  1 20  1  0  0  0  0
  3  8  1  0  0  0  0
  3  9  1  0  0  0  0
  4  3  2  0  0  0  0
  5  6  2  0  0  0  0
  5  4  1  0  0  0  0
  6  7  1  0  0  0  0
  7 11  1  0  0  0  0
  7  8  2  0  0  0  0
 10  5  1  0  0  0  0
 12  1  1  0  0  0  0
 13 17  1  0  0  0  0
 13 12  2  0  0  0  0
 14 15  1  0  0  0  0
 14 13  1  0  0  0  0
 15 16  2  0  0  0  0
 16 12  1  0  0  0  0
 18 14  1  0  0  0  0
 19 15  1  0  0  0  0
 20 22  1  0  0  0  0
 20 23  1  0  0  0  0
 21 20  1  0  0  0  0
 23 30  1  0  0  0  0
 24 23  2  0  0  0  0
 24 26  1  0  0  0  0
 25 24  1  0  0  0  0
 26 27  1  0  0  0  0
 26 28  2  0  0  0  0
 28 29  1  0  0  0  0
 30 28  1  0  0  0  0
M  END
>  <minimizedAffinity>
-4.63733244

$$$$

 OpenBabel03242523443D

 30 32  0  0  1  0  0  0  0  0999 V2000
   35.8500   28.7770   40.0360 C   0  0  2  0  0  0  0  0  0  0  0  0
   35.1930   28.6330   40.8870 H   0  0  0  0  0  0  0  0  0  0  0  0
   35.6930   27.5730   37.8910 C   0  0  0  0  0  0  0  0  0  0  0  0
   35.0940   28.4720   38.8070 C   0  0  0  0  0  0  0  0  0  0  0  0
   33.8420   29.0100   38.4660 C   0  0  0  0  0  0  0  0  0  0  0  0
   33.3220   28.6180   37.2900 N   0  0  0  0  0  0  0  0  0  0  0  0
   33.9110   27.7760   36.4560 C   0  0  0  0  0  0  0  0  0  0  0  0
   35.1110   27.2370   36.7430 N   0  0  0  0  0  0  0  0  0  0  0  0
   36.6640   27.1440   38.1350 H   0  0  0  0  0  0  0  0  0  0  0  0
   33.3890   29.6940   39.1680 H   0  0  0  0  0  0  0  0  0  0  0  0
   33.4610   27.4830   35.5170 H   0  0  0  0  0  0  0  0  0  0  0  0
   36.2820   30.2070   39.9520 C   0  0  0  0  0  0  0  0  0  0  0  0
   36.2730   31.1920   40.9100 C   0  0  0  0  0  0  0  0  0  0  0  0
   36.7660   32.3380   40.3840 N   0  0  0  0  0  0  0  0  0  0  0  0
   37.0850   32.0660   39.0860 C   0  0  0  0  0  0  0  0  0  0  0  0
   36.7890   30.7790   38.8360 N   0  0  0  0  0  0  0  0  0  0  0  0
   35.9110   31.0070   41.9180 H   0  0  0  0  0  0  0  0  0  0  0  0
   36.8730   33.2580   40.9060 H   0  0  0  0  0  0  0  0  0  0  0  0
   37.5060   32.7850   38.3970 H   0  0  0  0  0  0  0  0  0  0  0  0
   37.0460   27.8870   40.0610 C   0  0  0  0  0  0  0  0  0  0  0  0
   37.8920   28.3690   39.4770 H   0  0  0  0  0  0  0  0  0  0  0  0
   36.8840   26.9160   39.5610 H   0  0  0  0  0  0  0  0  0  0  0  0
   37.5880   27.7560   41.4380 C   0  0  0  0  0  0  0  0  0  0  0  0
   36.6210   27.6950   42.4480 C   0  0  0  0  0  0  0  0  0  0  0  0
   35.5200   27.7240   42.4480 H   0  0  0  0  0  0  0  0  0  0  0  0
   37.2460   27.5740   43.6790 C   0  0  0  0  0  0  0  0  0  0  0  0
   36.8210   27.5000   44.6760 H   0  0  0  0  0  0  0  0  0  0  0  0
   38.5790   27.5680   43.3370 C   0  0  0  0  0  0  0  0  0  0  0  0
   39.4070   27.4860   44.0420 H   0  0  0  0  0  0  0  0  0  0  0  0
   38.7300   27.6730   42.0550 O   0  0  0  0  0  0  0  0  0  0  0  0
  1 20  1  0  0  0  0
  1  2  1  1  0  0  0
  3  9  1  0  0  0  0
  3  4  1  0  0  0  0
  4  1  1  0  0  0  0
  5  4  2  0  0  0  0
  5 10  1  0  0  0  0
  6  5  1  0  0  0  0
  7  8  1  0  0  0  0
  7  6  2  0  0  0  0
  8  3  2  0  0  0  0
 11  7  1  0  0  0  0
 12  1  1  0  0  0  0
 12 13  2  0  0  0  0
 13 17  1  0  0  0  0
 14 18  1  0  0  0  0
 14 13  1  0  0  0  0
 15 14  1  0  0  0  0
 16 15  2  0  0  0  0
 16 12  1  0  0  0  0
 19 15  1  0  0  0  0
 20 23  1  0  0  0  0
 21 20  1  0  0  0  0
 22 20  1  0  0  0  0
 23 30  1  0  0  0  0
 23 24  2  0  0  0  0
 24 25  1  0  0  0  0
 24 26  1  0  0  0  0
 26 27  1  0  0  0  0
 28 26  2  0  0  0  0
 28 29  1  0  0  0  0
 30 28  1  0  0  0  0
M  END
>  <minimizedAffinity>
-4.62580585

$$$$

 OpenBabel03242523443D

 30 32  0  0  1  0  0  0  0  0999 V2000
   36.9980   28.9710   39.8550 C   0  0  2  0  0  0  0  0  0  0  0  0
   37.6730   28.5810   39.1010 H   0  0  0  0  0  0  0  0  0  0  0  0
   36.4930   27.9500   42.0400 C   0  0  0  0  0  0  0  0  0  0  0  0
   37.4630   28.5140   41.1770 C   0  0  0  0  0  0  0  0  0  0  0  0
   38.7820   28.6090   41.6540 C   0  0  0  0  0  0  0  0  0  0  0  0
   39.0030   28.1500   42.8990 N   0  0  0  0  0  0  0  0  0  0  0  0
   38.0700   27.6280   43.6790 C   0  0  0  0  0  0  0  0  0  0  0  0
   36.7940   27.5190   43.2620 N   0  0  0  0  0  0  0  0  0  0  0  0
   35.4640   27.8670   41.6920 H   0  0  0  0  0  0  0  0  0  0  0  0
   39.5180   29.0390   40.9930 H   0  0  0  0  0  0  0  0  0  0  0  0
   38.2860   27.2690   44.6760 H   0  0  0  0  0  0  0  0  0  0  0  0
   37.0350   30.4660   39.8590 C   0  0  0  0  0  0  0  0  0  0  0  0
   36.5210   31.3610   40.7650 C   0  0  0  0  0  0  0  0  0  0  0  0
   36.8040   32.6230   40.3640 N   0  0  0  0  0  0  0  0  0  0  0  0
   37.5020   32.5140   39.1960 C   0  0  0  0  0  0  0  0  0  0  0  0
   37.6350   31.2090   38.9010 N   0  0  0  0  0  0  0  0  0  0  0  0
   35.9790   31.0350   41.6490 H   0  0  0  0  0  0  0  0  0  0  0  0
   36.5240   33.5100   40.8790 H   0  0  0  0  0  0  0  0  0  0  0  0
   37.8730   33.3540   38.6260 H   0  0  0  0  0  0  0  0  0  0  0  0
   35.5940   28.4990   39.6850 C   0  0  0  0  0  0  0  0  0  0  0  0
   34.8950   29.1540   40.2960 H   0  0  0  0  0  0  0  0  0  0  0  0
   35.4210   27.4780   40.0690 H   0  0  0  0  0  0  0  0  0  0  0  0
   35.1300   28.6860   38.2850 C   0  0  0  0  0  0  0  0  0  0  0  0
   33.7460   28.8220   38.1370 C   0  0  0  0  0  0  0  0  0  0  0  0
   32.9020   28.8210   38.8460 H   0  0  0  0  0  0  0  0  0  0  0  0
   33.4390   28.9900   36.7960 C   0  0  0  0  0  0  0  0  0  0  0  0
   32.4770   29.1240   36.3090 H   0  0  0  0  0  0  0  0  0  0  0  0
   34.6780   28.9450   36.2000 C   0  0  0  0  0  0  0  0  0  0  0  0
   34.8630   29.0410   35.1290 H   0  0  0  0  0  0  0  0  0  0  0  0
   35.6120   28.7720   37.0810 O   0  0  0  0  0  0  0  0  0  0  0  0
  1  2  1  6  0  0  0
  1 12  1  0  0  0  0
  1  4  1  0  0  0  0
  3  8  1  0  0  0  0
  4  5  1  0  0  0  0
  4  3  2  0  0  0  0
  5  6  2  0  0  0  0
  6  7  1  0  0  0  0
  7 11  1  0  0  0  0
  8  7  2  0  0  0  0
  9  3  1  0  0  0  0
 10  5  1  0  0  0  0
 12 13  2  0  0  0  0
 13 17  1  0  0  0  0
 14 13  1  0  0  0  0
 14 18  1  0  0  0  0
 15 14  1  0  0  0  0
 16 15  2  0  0  0  0
 16 12  1  0  0  0  0
 19 15  1  0  0  0  0
 20  1  1  0  0  0  0
 20 22  1  0  0  0  0
 20 21  1  0  0  0  0
 23 20  1  0  0  0  0
 24 23  2  0  0  0  0
 24 25  1  0  0  0  0
 26 24  1  0  0  0  0
 27 26  1  0  0  0  0
 28 26  2  0  0  0  0
 28 30  1  0  0  0  0
 29 28  1  0  0  0  0
 30 23  1  0  0  0  0
M  END
>  <minimizedAffinity>
-4.61632061

$$$$

 OpenBabel03242523443D

 30 32  0  0  1  0  0  0  0  0999 V2000
   36.2550   28.7700   39.5870 C   0  0  2  0  0  0  0  0  0  0  0  0
   37.0830   28.1110   39.3510 H   0  0  0  0  0  0  0  0  0  0  0  0
   36.6230   31.0710   40.3900 C   0  0  0  0  0  0  0  0  0  0  0  0
   36.6710   30.1570   39.3090 C   0  0  0  0  0  0  0  0  0  0  0  0
   37.0930   30.6470   38.0610 C   0  0  0  0  0  0  0  0  0  0  0  0
   37.4160   31.9510   38.0080 N   0  0  0  0  0  0  0  0  0  0  0  0
   37.3590   32.7770   39.0400 C   0  0  0  0  0  0  0  0  0  0  0  0
   36.9600   32.3510   40.2530 N   0  0  0  0  0  0  0  0  0  0  0  0
   36.2990   30.7130   41.3660 H   0  0  0  0  0  0  0  0  0  0  0  0
   37.1290   29.9470   37.2410 H   0  0  0  0  0  0  0  0  0  0  0  0
   37.6270   33.8220   38.9590 H   0  0  0  0  0  0  0  0  0  0  0  0
   35.0860   28.4680   38.7040 C   0  0  0  0  0  0  0  0  0  0  0  0
   33.8330   29.0300   38.6730 C   0  0  0  0  0  0  0  0  0  0  0  0
   33.1000   28.4460   37.6960 N   0  0  0  0  0  0  0  0  0  0  0  0
   33.9030   27.5100   37.1130 C   0  0  0  0  0  0  0  0  0  0  0  0
   35.0980   27.5320   37.7280 N   0  0  0  0  0  0  0  0  0  0  0  0
   33.5420   29.8220   39.3580 H   0  0  0  0  0  0  0  0  0  0  0  0
   32.0940   28.6890   37.4520 H   0  0  0  0  0  0  0  0  0  0  0  0
   33.6020   26.8710   36.2930 H   0  0  0  0  0  0  0  0  0  0  0  0
   35.8410   28.7030   41.0170 C   0  0  0  0  0  0  0  0  0  0  0  0
   34.8300   28.1930   41.0980 H   0  0  0  0  0  0  0  0  0  0  0  0
   35.6880   29.6940   41.4800 H   0  0  0  0  0  0  0  0  0  0  0  0
   36.7510   27.8240   41.7980 C   0  0  0  0  0  0  0  0  0  0  0  0
   37.2710   28.4020   42.9620 C   0  0  0  0  0  0  0  0  0  0  0  0
   37.1540   29.3880   43.4380 H   0  0  0  0  0  0  0  0  0  0  0  0
   38.0990   27.4910   43.5990 C   0  0  0  0  0  0  0  0  0  0  0  0
   38.6700   27.5880   44.5180 H   0  0  0  0  0  0  0  0  0  0  0  0
   38.0300   26.3960   42.7700 C   0  0  0  0  0  0  0  0  0  0  0  0
   38.5540   25.4530   42.9310 H   0  0  0  0  0  0  0  0  0  0  0  0
   37.2530   26.6250   41.7590 O   0  0  0  0  0  0  0  0  0  0  0  0
  1  2  1  6  0  0  0
  1 20  1  0  0  0  0
  3  9  1  0  0  0  0
  4  1  1  0  0  0  0
  4  3  2  0  0  0  0
  5  4  1  0  0  0  0
  6  5  2  0  0  0  0
  6  7  1  0  0  0  0
  7  8  2  0  0  0  0
  8  3  1  0  0  0  0
 10  5  1  0  0  0  0
 11  7  1  0  0  0  0
 12  1  1  0  0  0  0
 13 12  2  0  0  0  0
 13 17  1  0  0  0  0
 14 13  1  0  0  0  0
 15 14  1  0  0  0  0
 15 16  2  0  0  0  0
 16 12  1  0  0  0  0
 18 14  1  0  0  0  0
 19 15  1  0  0  0  0
 20 21  1  0  0  0  0
 20 22  1  0  0  0  0
 20 23  1  0  0  0  0
 23 24  2  0  0  0  0
 24 25  1  0  0  0  0
 24 26  1  0  0  0  0
 26 27  1  0  0  0  0
 28 29  1  0  0  0  0
 28 26  2  0  0  0  0
 30 23  1  0  0  0  0
 30 28  1  0  0  0  0
M  END
>  <minimizedAffinity>
-4.56084967

$$$$

 OpenBabel03242523443D

 30 32  0  0  1  0  0  0  0  0999 V2000
   37.3940   30.6140   40.5420 C   0  0  2  0  0  0  0  0  0  0  0  0
   36.4610   30.5680   41.0920 H   0  0  0  0  0  0  0  0  0  0  0  0
   35.8390   29.7070   38.8590 C   0  0  0  0  0  0  0  0  0  0  0  0
   37.1700   30.0530   39.1960 C   0  0  0  0  0  0  0  0  0  0  0  0
   38.1670   29.8200   38.2340 C   0  0  0  0  0  0  0  0  0  0  0  0
   37.7610   29.2850   37.0690 N   0  0  0  0  0  0  0  0  0  0  0  0
   36.5070   28.9730   36.7870 C   0  0  0  0  0  0  0  0  0  0  0  0
   35.5200   29.1790   37.6800 N   0  0  0  0  0  0  0  0  0  0  0  0
   35.0500   29.8790   39.5890 H   0  0  0  0  0  0  0  0  0  0  0  0
   39.1800   30.0860   38.4950 H   0  0  0  0  0  0  0  0  0  0  0  0
   36.2180   28.5430   35.8370 H   0  0  0  0  0  0  0  0  0  0  0  0
   37.8230   32.0370   40.3670 C   0  0  0  0  0  0  0  0  0  0  0  0
   37.3240   33.0160   39.5430 C   0  0  0  0  0  0  0  0  0  0  0  0
   38.0220   34.1610   39.7290 N   0  0  0  0  0  0  0  0  0  0  0  0
   38.9650   33.8940   40.6780 C   0  0  0  0  0  0  0  0  0  0  0  0
   38.8360   32.6100   41.0560 N   0  0  0  0  0  0  0  0  0  0  0  0
   36.4920   32.8290   38.8690 H   0  0  0  0  0  0  0  0  0  0  0  0
   37.8470   35.0780   39.2190 H   0  0  0  0  0  0  0  0  0  0  0  0
   39.6830   34.6140   41.0460 H   0  0  0  0  0  0  0  0  0  0  0  0
   38.4900   29.8290   41.1780 C   0  0  0  0  0  0  0  0  0  0  0  0
   38.9600   30.4380   42.0130 H   0  0  0  0  0  0  0  0  0  0  0  0
   39.3270   29.6040   40.4940 H   0  0  0  0  0  0  0  0  0  0  0  0
   37.9560   28.6250   41.8680 C   0  0  0  0  0  0  0  0  0  0  0  0
   37.4270   28.8640   43.1420 C   0  0  0  0  0  0  0  0  0  0  0  0
   37.3170   29.7670   43.7620 H   0  0  0  0  0  0  0  0  0  0  0  0
   36.9640   27.6730   43.6790 C   0  0  0  0  0  0  0  0  0  0  0  0
   36.4960   27.4730   44.6390 H   0  0  0  0  0  0  0  0  0  0  0  0
   37.2450   26.7670   42.6820 C   0  0  0  0  0  0  0  0  0  0  0  0
   37.0270   25.6990   42.7250 H   0  0  0  0  0  0  0  0  0  0  0  0
   37.8070   27.3490   41.6700 O   0  0  0  0  0  0  0  0  0  0  0  0
  1  2  1  1  0  0  0
  1 20  1  0  0  0  0
  3  4  1  0  0  0  0
  3  9  1  0  0  0  0
  4  1  1  0  0  0  0
  5 10  1  0  0  0  0
  5  4  2  0  0  0  0
  6  5  1  0  0  0  0
  7  6  2  0  0  0  0
  7  8  1  0  0  0  0
  8  3  2  0  0  0  0
 11  7  1  0  0  0  0
 12  1  1  0  0  0  0
 12 16  1  0  0  0  0
 13 14  1  0  0  0  0
 13 12  2  0  0  0  0
 14 15  1  0  0  0  0
 15 19  1  0  0  0  0
 15 16  2  0  0  0  0
 17 13  1  0  0  0  0
 18 14  1  0  0  0  0
 20 23  1  0  0  0  0
 20 21  1  0  0  0  0
 22 20  1  0  0  0  0
 23 24  2  0  0  0  0
 24 26  1  0  0  0  0
 24 25  1  0  0  0  0
 26 27  1  0  0  0  0
 28 29  1  0  0  0  0
 28 26  2  0  0  0  0
 30 23  1  0  0  0  0
 30 28  1  0  0  0  0
M  END
>  <minimizedAffinity>
-4.55351448

$$$$

 OpenBabel03242523443D

 30 32  0  0  1  0  0  0  0  0999 V2000
   39.3920   30.6920   40.7420 C   0  0  2  0  0  0  0  0  0  0  0  0
   38.8360   29.8670   40.3110 H   0  0  0  0  0  0  0  0  0  0  0  0
   40.7060   30.6310   38.6570 C   0  0  0  0  0  0  0  0  0  0  0  0
   40.7000   30.7750   40.0660 C   0  0  0  0  0  0  0  0  0  0  0  0
   41.9370   30.9670   40.7050 C   0  0  0  0  0  0  0  0  0  0  0  0
   43.0220   30.9980   39.9120 N   0  0  0  0  0  0  0  0  0  0  0  0
   42.9910   30.8590   38.5970 C   0  0  0  0  0  0  0  0  0  0  0  0
   41.8280   30.6720   37.9440 N   0  0  0  0  0  0  0  0  0  0  0  0
   39.7590   30.4800   38.1410 H   0  0  0  0  0  0  0  0  0  0  0  0
   41.9280   31.0780   41.7790 H   0  0  0  0  0  0  0  0  0  0  0  0
   43.8870   30.8890   37.9910 H   0  0  0  0  0  0  0  0  0  0  0  0
   38.6780   31.9830   40.4940 C   0  0  0  0  0  0  0  0  0  0  0  0
   37.3580   32.2210   40.1960 C   0  0  0  0  0  0  0  0  0  0  0  0
   37.1580   33.5530   40.0630 N   0  0  0  0  0  0  0  0  0  0  0  0
   38.3650   34.1520   40.2800 C   0  0  0  0  0  0  0  0  0  0  0  0
   39.2740   33.1960   40.5390 N   0  0  0  0  0  0  0  0  0  0  0  0
   36.6380   31.4130   40.0970 H   0  0  0  0  0  0  0  0  0  0  0  0
   36.2290   34.0160   39.8340 H   0  0  0  0  0  0  0  0  0  0  0  0
   38.5320   35.2200   40.2440 H   0  0  0  0  0  0  0  0  0  0  0  0
   39.6500   30.5270   42.2010 C   0  0  0  0  0  0  0  0  0  0  0  0
   39.3300   31.4660   42.7530 H   0  0  0  0  0  0  0  0  0  0  0  0
   40.7190   30.4100   42.4500 H   0  0  0  0  0  0  0  0  0  0  0  0
   38.7930   29.4600   42.7790 C   0  0  0  0  0  0  0  0  0  0  0  0
   39.4600   28.2670   43.0780 C   0  0  0  0  0  0  0  0  0  0  0  0
   40.5050   27.9340   42.9760 H   0  0  0  0  0  0  0  0  0  0  0  0
   38.5610   27.3550   43.6080 C   0  0  0  0  0  0  0  0  0  0  0  0
   38.7170   26.3360   43.9520 H   0  0  0  0  0  0  0  0  0  0  0  0
   37.3800   28.0620   43.6000 C   0  0  0  0  0  0  0  0  0  0  0  0
   36.4190   27.6820   43.9470 H   0  0  0  0  0  0  0  0  0  0  0  0
   37.5550   29.2540   43.1220 O   0  0  0  0  0  0  0  0  0  0  0  0
  1  2  1  6  0  0  0
  1 20  1  0  0  0  0
  3  4  1  0  0  0  0
  4  5  2  0  0  0  0
  4  1  1  0  0  0  0
  5 10  1  0  0  0  0
  6  5  1  0  0  0  0
  7  6  2  0  0  0  0
  8  7  1  0  0  0  0
  8  3  2  0  0  0  0
  9  3  1  0  0  0  0
 11  7  1  0  0  0  0
 12 16  1  0  0  0  0
 12  1  1  0  0  0  0
 13 12  2  0  0  0  0
 14 13  1  0  0  0  0
 14 15  1  0  0  0  0
 15 16  2  0  0  0  0
 17 13  1  0  0  0  0
 18 14  1  0  0  0  0
 19 15  1  0  0  0  0
 20 22  1  0  0  0  0
 20 21  1  0  0  0  0
 20 23  1  0  0  0  0
 23 24  2  0  0  0  0
 23 30  1  0  0  0  0
 24 26  1  0  0  0  0
 25 24  1  0  0  0  0
 26 27  1  0  0  0  0
 28 26  2  0  0  0  0
 28 29  1  0  0  0  0
 30 28  1  0  0  0  0
M  END
>  <minimizedAffinity>
-4.47891617

$$$$

 OpenBabel03242523443D

 30 32  0  0  1  0  0  0  0  0999 V2000
   38.2180   26.0700   41.5920 C   0  0  2  0  0  0  0  0  0  0  0  0
   38.2450   26.1310   40.5090 H   0  0  0  0  0  0  0  0  0  0  0  0
   40.5810   25.5760   41.0940 C   0  0  0  0  0  0  0  0  0  0  0  0
   39.5820   25.7860   42.0750 C   0  0  0  0  0  0  0  0  0  0  0  0
   39.9650   25.6920   43.4240 C   0  0  0  0  0  0  0  0  0  0  0  0
   41.2580   25.4080   43.6610 N   0  0  0  0  0  0  0  0  0  0  0  0
   42.1650   25.2160   42.7170 C   0  0  0  0  0  0  0  0  0  0  0  0
   41.8420   25.2970   41.4130 N   0  0  0  0  0  0  0  0  0  0  0  0
   40.3070   25.6440   40.0420 H   0  0  0  0  0  0  0  0  0  0  0  0
   39.2010   25.8540   44.1690 H   0  0  0  0  0  0  0  0  0  0  0  0
   43.1980   24.9890   42.9470 H   0  0  0  0  0  0  0  0  0  0  0  0
   37.8020   27.3840   42.1740 C   0  0  0  0  0  0  0  0  0  0  0  0
   36.8380   27.6710   43.1100 C   0  0  0  0  0  0  0  0  0  0  0  0
   36.8170   29.0050   43.3410 N   0  0  0  0  0  0  0  0  0  0  0  0
   37.7750   29.5550   42.5410 C   0  0  0  0  0  0  0  0  0  0  0  0
   38.3630   28.5690   41.8420 N   0  0  0  0  0  0  0  0  0  0  0  0
   36.2230   26.8940   43.5560 H   0  0  0  0  0  0  0  0  0  0  0  0
   36.1670   29.5010   44.0200 H   0  0  0  0  0  0  0  0  0  0  0  0
   38.0030   30.6120   42.4990 H   0  0  0  0  0  0  0  0  0  0  0  0
   37.3280   24.9870   42.0970 C   0  0  0  0  0  0  0  0  0  0  0  0
   36.2600   25.3670   42.1580 H   0  0  0  0  0  0  0  0  0  0  0  0
   37.5650   24.6640   43.1260 H   0  0  0  0  0  0  0  0  0  0  0  0
   37.2540   23.8600   41.1310 C   0  0  0  0  0  0  0  0  0  0  0  0
   36.1530   23.8970   40.2680 C   0  0  0  0  0  0  0  0  0  0  0  0
   35.3080   24.5930   40.1430 H   0  0  0  0  0  0  0  0  0  0  0  0
   36.1940   22.8010   39.4200 C   0  0  0  0  0  0  0  0  0  0  0  0
   35.5130   22.5020   38.6270 H   0  0  0  0  0  0  0  0  0  0  0  0
   37.3370   22.1530   39.8260 C   0  0  0  0  0  0  0  0  0  0  0  0
   37.7220   21.2280   39.3940 H   0  0  0  0  0  0  0  0  0  0  0  0
   37.9100   22.7870   40.8000 O   0  0  0  0  0  0  0  0  0  0  0  0
  1  2  1  6  0  0  0
  1  4  1  0  0  0  0
  1 20  1  0  0  0  0
  1 12  1  0  0  0  0
  3  8  2  0  0  0  0
  3  4  1  0  0  0  0
  4  5  2  0  0  0  0
  5  6  1  0  0  0  0
  5 10  1  0  0  0  0
  7 11  1  0  0  0  0
  7  6  2  0  0  0  0
  8  7  1  0  0  0  0
  9  3  1  0  0  0  0
 12 13  2  0  0  0  0
 13 14  1  0  0  0  0
 13 17  1  0  0  0  0
 14 18  1  0  0  0  0
 15 14  1  0  0  0  0
 16 12  1  0  0  0  0
 16 15  2  0  0  0  0
 19 15  1  0  0  0  0
 20 21  1  0  0  0  0
 20 22  1  0  0  0  0
 23 20  1  0  0  0  0
 24 23  2  0  0  0  0
 25 24  1  0  0  0  0
 26 28  2  0  0  0  0
 26 24  1  0  0  0  0
 27 26  1  0  0  0  0
 28 30  1  0  0  0  0
 29 28  1  0  0  0  0
 30 23  1  0  0  0  0
M  END
>  <minimizedAffinity>
-4.4651618

$$$$

 OpenBabel03242523443D

 30 32  0  0  1  0  0  0  0  0999 V2000
   37.6730   29.0750   38.9930 C   0  0  2  0  0  0  0  0  0  0  0  0
   38.5580   28.5520   39.3380 H   0  0  0  0  0  0  0  0  0  0  0  0
   39.0770   31.0990   38.9550 C   0  0  0  0  0  0  0  0  0  0  0  0
   37.8350   30.5100   39.2910 C   0  0  0  0  0  0  0  0  0  0  0  0
   36.8670   31.3310   39.8950 C   0  0  0  0  0  0  0  0  0  0  0  0
   37.2130   32.6140   40.0980 N   0  0  0  0  0  0  0  0  0  0  0  0
   38.3860   33.1320   39.7710 C   0  0  0  0  0  0  0  0  0  0  0  0
   39.3420   32.3820   39.1910 N   0  0  0  0  0  0  0  0  0  0  0  0
   39.8420   30.4820   38.4870 H   0  0  0  0  0  0  0  0  0  0  0  0
   35.9210   30.8780   40.1490 H   0  0  0  0  0  0  0  0  0  0  0  0
   38.6280   34.1710   39.9500 H   0  0  0  0  0  0  0  0  0  0  0  0
   37.5360   28.9380   37.5100 C   0  0  0  0  0  0  0  0  0  0  0  0
   38.3320   28.2790   36.6050 C   0  0  0  0  0  0  0  0  0  0  0  0
   37.8130   28.4180   35.3620 N   0  0  0  0  0  0  0  0  0  0  0  0
   36.6830   29.1720   35.4930 C   0  0  0  0  0  0  0  0  0  0  0  0
   36.5260   29.4800   36.7920 N   0  0  0  0  0  0  0  0  0  0  0  0
   39.2280   27.7460   36.9110 H   0  0  0  0  0  0  0  0  0  0  0  0
   38.2280   28.0090   34.4730 H   0  0  0  0  0  0  0  0  0  0  0  0
   36.0410   29.4580   34.6710 H   0  0  0  0  0  0  0  0  0  0  0  0
   36.4230   28.6150   39.6630 C   0  0  0  0  0  0  0  0  0  0  0  0
   35.7980   28.0120   38.9310 H   0  0  0  0  0  0  0  0  0  0  0  0
   35.7600   29.4410   39.9760 H   0  0  0  0  0  0  0  0  0  0  0  0
   36.7220   27.6550   40.7570 C   0  0  0  0  0  0  0  0  0  0  0  0
   36.4960   28.1450   42.0480 C   0  0  0  0  0  0  0  0  0  0  0  0
   36.1380   29.1090   42.4430 H   0  0  0  0  0  0  0  0  0  0  0  0
   36.8090   27.1640   42.9760 C   0  0  0  0  0  0  0  0  0  0  0  0
   36.7590   27.1850   44.0610 H   0  0  0  0  0  0  0  0  0  0  0  0
   37.2130   26.1180   42.1780 C   0  0  0  0  0  0  0  0  0  0  0  0
   37.5450   25.1450   42.5400 H   0  0  0  0  0  0  0  0  0  0  0  0
   37.1480   26.4380   40.9240 O   0  0  0  0  0  0  0  0  0  0  0  0
  1  4  1  0  0  0  0
  1  2  1  1  0  0  0
  1 20  1  0  0  0  0
  3  8  2  0  0  0  0
  3  4  1  0  0  0  0
  4  5  2  0  0  0  0
  5  6  1  0  0  0  0
  5 10  1  0  0  0  0
  7 11  1  0  0  0  0
  7  6  2  0  0  0  0
  8  7  1  0  0  0  0
  9  3  1  0  0  0  0
 12  1  1  0  0  0  0
 13 17  1  0  0  0  0
 13 12  2  0  0  0  0
 14 15  1  0  0  0  0
 14 13  1  0  0  0  0
 15 16  2  0  0  0  0
 16 12  1  0  0  0  0
 18 14  1  0  0  0  0
 19 15  1  0  0  0  0
 20 22  1  0  0  0  0
 20 23  1  0  0  0  0
 21 20  1  0  0  0  0
 23 30  1  0  0  0  0
 23 24  2  0  0  0  0
 24 25  1  0  0  0  0
 24 26  1  0  0  0  0
 26 27  1  0  0  0  0
 28 29  1  0  0  0  0
 28 26  2  0  0  0  0
 30 28  1  0  0  0  0
M  END
>  <minimizedAffinity>
-4.35713053

$$$$

 OpenBabel03242523443D

 30 32  0  0  1  0  0  0  0  0999 V2000
   38.1050   30.5530   39.9130 C   0  0  2  0  0  0  0  0  0  0  0  0
   38.6340   30.1760   39.0450 H   0  0  0  0  0  0  0  0  0  0  0  0
   37.4310   29.7350   42.1380 C   0  0  0  0  0  0  0  0  0  0  0  0
   38.2930   29.6000   41.0230 C   0  0  0  0  0  0  0  0  0  0  0  0
   39.2640   28.5860   41.0700 C   0  0  0  0  0  0  0  0  0  0  0  0
   39.2850   27.8290   42.1810 N   0  0  0  0  0  0  0  0  0  0  0  0
   38.4630   27.9840   43.2060 C   0  0  0  0  0  0  0  0  0  0  0  0
   37.5180   28.9430   43.2030 N   0  0  0  0  0  0  0  0  0  0  0  0
   36.6710   30.5150   42.1230 H   0  0  0  0  0  0  0  0  0  0  0  0
   39.9190   28.4860   40.2180 H   0  0  0  0  0  0  0  0  0  0  0  0
   38.5100   27.3540   44.0850 H   0  0  0  0  0  0  0  0  0  0  0  0
   38.6860   31.8620   40.3440 C   0  0  0  0  0  0  0  0  0  0  0  0
   39.9310   32.1560   40.8450 C   0  0  0  0  0  0  0  0  0  0  0  0
   40.0170   33.4840   41.0900 N   0  0  0  0  0  0  0  0  0  0  0  0
   38.8140   34.0250   40.7390 C   0  0  0  0  0  0  0  0  0  0  0  0
   38.0190   33.0380   40.2910 N   0  0  0  0  0  0  0  0  0  0  0  0
   40.6840   31.3870   40.9950 H   0  0  0  0  0  0  0  0  0  0  0  0
   40.8700   33.9840   41.4810 H   0  0  0  0  0  0  0  0  0  0  0  0
   38.5710   35.0760   40.8190 H   0  0  0  0  0  0  0  0  0  0  0  0
   36.6380   30.6980   39.6880 C   0  0  0  0  0  0  0  0  0  0  0  0
   36.3770   31.7960   39.5730 H   0  0  0  0  0  0  0  0  0  0  0  0
   36.0250   30.3560   40.5410 H   0  0  0  0  0  0  0  0  0  0  0  0
   36.2320   30.0930   38.3930 C   0  0  0  0  0  0  0  0  0  0  0  0
   37.1040   30.3430   37.3270 C   0  0  0  0  0  0  0  0  0  0  0  0
   38.0470   30.9030   37.2330 H   0  0  0  0  0  0  0  0  0  0  0  0
   36.6200   29.7310   36.1820 C   0  0  0  0  0  0  0  0  0  0  0  0
   37.0270   29.7090   35.1740 H   0  0  0  0  0  0  0  0  0  0  0  0
   35.4630   29.1350   36.6290 C   0  0  0  0  0  0  0  0  0  0  0  0
   34.7830   28.5450   36.0130 H   0  0  0  0  0  0  0  0  0  0  0  0
   35.2790   29.3640   37.8910 O   0  0  0  0  0  0  0  0  0  0  0  0
  1  2  1  6  0  0  0
  1 12  1  0  0  0  0
  1  4  1  0  0  0  0
  3  8  1  0  0  0  0
  4  5  1  0  0  0  0
  4  3  2  0  0  0  0
  5  6  2  0  0  0  0
  6  7  1  0  0  0  0
  7 11  1  0  0  0  0
  8  7  2  0  0  0  0
  9  3  1  0  0  0  0
 10  5  1  0  0  0  0
 12 13  2  0  0  0  0
 13 17  1  0  0  0  0
 13 14  1  0  0  0  0
 14 18  1  0  0  0  0
 15 19  1  0  0  0  0
 15 14  1  0  0  0  0
 16 12  1  0  0  0  0
 16 15  2  0  0  0  0
 20  1  1  0  0  0  0
 20 22  1  0  0  0  0
 21 20  1  0  0  0  0
 23 20  1  0  0  0  0
 24 23  2  0  0  0  0
 25 24  1  0  0  0  0
 26 28  2  0  0  0  0
 26 24  1  0  0  0  0
 27 26  1  0  0  0  0
 28 30  1  0  0  0  0
 29 28  1  0  0  0  0
 30 23  1  0  0  0  0
M  END
>  <minimizedAffinity>
-4.30721951

$$$$
