
 OpenBabel03252508593D

 44 46  0  0  1  0  0  0  0  0999 V2000
   47.2560   33.8390   42.9480 N   0  0  0  0  0  0  0  0  0  0  0  0
   46.9460   35.1700   42.5740 C   0  0  0  0  0  0  0  0  0  0  0  0
   45.5170   35.5960   42.8410 C   0  0  0  0  0  0  0  0  0  0  0  0
   44.8900   34.9570   44.0500 C   0  0  0  0  0  0  0  0  0  0  0  0
   45.8850   34.1110   44.8080 C   0  0  0  0  0  0  0  0  0  0  0  0
   46.3890   33.0880   43.7240 C   0  0  2  0  0  0  0  0  0  0  0  0
   47.1850   35.4500   41.5410 H   0  0  0  0  0  0  0  0  0  0  0  0
   47.5940   35.8350   43.2090 H   0  0  0  0  0  0  0  0  0  0  0  0
   44.8970   35.4810   41.9270 H   0  0  0  0  0  0  0  0  0  0  0  0
   45.5110   36.6970   43.0390 H   0  0  0  0  0  0  0  0  0  0  0  0
   44.4830   35.6800   44.7730 H   0  0  0  0  0  0  0  0  0  0  0  0
   44.0690   34.2990   43.7280 H   0  0  0  0  0  0  0  0  0  0  0  0
   45.3630   33.5690   45.6040 H   0  0  0  0  0  0  0  0  0  0  0  0
   46.7690   34.6520   45.1450 H   0  0  0  0  0  0  0  0  0  0  0  0
   45.4980   32.6470   43.2340 H   0  0  0  0  0  0  0  0  0  0  0  0
   48.1360   33.1590   42.0380 C   0  0  0  0  0  0  0  0  0  0  0  0
   48.8850   33.9000   41.6770 H   0  0  0  0  0  0  0  0  0  0  0  0
   48.6780   32.3340   42.5440 H   0  0  0  0  0  0  0  0  0  0  0  0
   47.3130   32.5750   40.9310 C   0  0  0  0  0  0  0  0  0  0  0  0
   46.2760   33.0080   40.9280 H   0  0  0  0  0  0  0  0  0  0  0  0
   47.1910   31.4800   41.0020 H   0  0  0  0  0  0  0  0  0  0  0  0
   49.3080   32.3250   37.7600 C   0  0  0  0  0  0  0  0  0  0  0  0
   48.7220   31.9990   38.9970 C   0  0  0  0  0  0  0  0  0  0  0  0
   47.9270   32.9300   39.6260 C   0  0  0  0  0  0  0  0  0  0  0  0
   47.7540   34.1090   39.0210 N   0  0  0  0  0  0  0  0  0  0  0  0
   48.3180   34.4140   37.8390 C   0  0  0  0  0  0  0  0  0  0  0  0
   49.1030   33.5200   37.1970 N   0  0  0  0  0  0  0  0  0  0  0  0
   49.9320   31.6600   37.2160 H   0  0  0  0  0  0  0  0  0  0  0  0
   48.9440   31.0110   39.3750 H   0  0  0  0  0  0  0  0  0  0  0  0
   48.1560   35.3860   37.3730 H   0  0  0  0  0  0  0  0  0  0  0  0
   47.0650   32.1660   44.5070 O   0  0  0  0  0  0  0  0  0  0  0  0
   46.8780   29.6480   43.6710 O   0  0  0  0  0  0  0  0  0  0  0  0
   46.2660   30.6900   44.6160 P   0  0  2  0  0  0  0  0  0  0  0  0
   44.6930   30.9610   43.9890 O   0  0  0  0  0  0  0  0  0  0  0  0
   44.3670   31.8480   44.3070 H   0  0  0  0  0  0  0  0  0  0  0  0
   46.1080   30.1410   46.1660 O   0  0  0  0  0  0  0  0  0  0  0  0
   45.8930   30.8230   47.3320 C   0  0  0  0  0  0  0  0  0  0  0  0
   45.1660   30.2420   48.3780 C   0  0  0  0  0  0  0  0  0  0  0  0
   44.7080   29.2620   48.4210 H   0  0  0  0  0  0  0  0  0  0  0  0
   45.1540   31.2130   49.3810 C   0  0  0  0  0  0  0  0  0  0  0  0
   44.6400   31.0170   50.3340 H   0  0  0  0  0  0  0  0  0  0  0  0
   45.8650   32.3120   48.8910 C   0  0  0  0  0  0  0  0  0  0  0  0
   45.9440   33.1570   49.5620 H   0  0  0  0  0  0  0  0  0  0  0  0
   46.2780   32.0310   47.6830 O   0  0  0  0  0  0  0  0  0  0  0  0
  1  6  1  0  0  0  0
  2  3  1  0  0  0  0
  2  1  1  0  0  0  0
  2  8  1  0  0  0  0
  3 10  1  0  0  0  0
  3  4  1  0  0  0  0
  4 11  1  0  0  0  0
  4  5  1  0  0  0  0
  5 14  1  0  0  0  0
  5 13  1  0  0  0  0
  6 15  1  6  0  0  0
  6 31  1  0  0  0  0
  6  5  1  0  0  0  0
  7  2  1  0  0  0  0
  9  3  1  0  0  0  0
 12  4  1  0  0  0  0
 16 18  1  0  0  0  0
 16  1  1  0  0  0  0
 17 16  1  0  0  0  0
 19 21  1  0  0  0  0
 19 16  1  0  0  0  0
 20 19  1  0  0  0  0
 22 23  1  0  0  0  0
 23 29  1  0  0  0  0
 23 24  2  0  0  0  0
 24 19  1  0  0  0  0
 25 24  1  0  0  0  0
 26 25  2  0  0  0  0
 27 22  2  0  0  0  0
 27 26  1  0  0  0  0
 28 22  1  0  0  0  0
 30 26  1  0  0  0  0
 31 33  1  0  0  0  0
 33 32  2  6  0  0  0
 33 36  1  0  0  0  0
 34 35  1  0  0  0  0
 34 33  1  0  0  0  0
 36 37  1  0  0  0  0
 37 44  1  0  0  0  0
 37 38  2  0  0  0  0
 38 39  1  0  0  0  0
 38 40  1  0  0  0  0
 40 41  1  0  0  0  0
 42 40  2  0  0  0  0
 42 43  1  0  0  0  0
 44 42  1  0  0  0  0
M  END
>  <minimizedAffinity>
-4.88152933

>  <minimizedRMSD>
2.30108809

$$$$
