
 OpenBabel03252509273D

 29 31  0  0  1  0  0  0  0  0999 V2000
   46.5990   35.1010   41.9380 C   0  0  1  0  0  0  0  0  0  0  0  0
   48.1350   35.3240   41.9430 C   0  0  0  0  0  0  0  0  0  0  0  0
   47.3800   34.1140   41.3140 C   0  0  2  0  0  0  0  0  0  0  0  0
   46.0910   35.9200   41.4070 H   0  0  0  0  0  0  0  0  0  0  0  0
   48.5470   35.9890   41.1710 H   0  0  0  0  0  0  0  0  0  0  0  0
   48.7010   35.0930   42.8500 H   0  0  0  0  0  0  0  0  0  0  0  0
   47.5430   33.1370   41.8540 H   0  0  0  0  0  0  0  0  0  0  0  0
   44.6650   35.3770   45.1360 C   0  0  0  0  0  0  0  0  0  0  0  0
   45.1360   35.6950   43.8350 C   0  0  0  0  0  0  0  0  0  0  0  0
   46.0870   34.8630   43.3340 C   0  0  0  0  0  0  0  0  0  0  0  0
   46.5580   33.7900   44.0510 N   0  0  0  0  0  0  0  0  0  0  0  0
   46.0840   33.5230   45.2870 C   0  0  0  0  0  0  0  0  0  0  0  0
   45.1340   34.3200   45.8300 N   0  0  0  0  0  0  0  0  0  0  0  0
   43.9020   36.0280   45.5560 H   0  0  0  0  0  0  0  0  0  0  0  0
   46.4270   32.6920   45.8820 H   0  0  0  0  0  0  0  0  0  0  0  0
   44.6560   36.8210   43.1260 N   0  0  0  0  0  0  0  0  0  0  0  0
   43.7710   37.0200   42.6160 H   0  0  0  0  0  0  0  0  0  0  0  0
   45.4580   37.5140   43.2170 H   0  0  0  0  0  0  0  0  0  0  0  0
   47.4130   33.9500   39.8130 C   0  0  0  0  0  0  0  0  0  0  0  0
   48.3950   33.5910   39.5050 H   0  0  0  0  0  0  0  0  0  0  0  0
   47.1610   34.8940   39.2850 H   0  0  0  0  0  0  0  0  0  0  0  0
   46.3830   32.9040   39.5110 C   0  0  0  0  0  0  0  0  0  0  0  0
   45.0870   33.1000   39.0990 C   0  0  0  0  0  0  0  0  0  0  0  0
   44.6290   34.0520   38.9350 H   0  0  0  0  0  0  0  0  0  0  0  0
   44.5270   31.8390   38.9510 C   0  0  0  0  0  0  0  0  0  0  0  0
   43.5110   31.6310   38.6350 H   0  0  0  0  0  0  0  0  0  0  0  0
   45.5290   30.9340   39.2850 C   0  0  0  0  0  0  0  0  0  0  0  0
   45.3220   29.8790   39.2420 H   0  0  0  0  0  0  0  0  0  0  0  0
   46.6030   31.6050   39.6090 O   0  0  0  0  0  0  0  0  0  0  0  0
  1  4  1  6  0  0  0
  1  2  1  0  0  0  0
  1 10  1  0  0  0  0
  2  6  1  0  0  0  0
  3  7  1  1  0  0  0
  3  1  1  0  0  0  0
  3  2  1  0  0  0  0
  5  2  1  0  0  0  0
  8 14  1  0  0  0  0
  8 13  1  0  0  0  0
  9  8  2  0  0  0  0
 10  9  1  0  0  0  0
 10 11  2  0  0  0  0
 11 12  1  0  0  0  0
 12 13  2  0  0  0  0
 12 15  1  0  0  0  0
 16 18  1  0  0  0  0
 16  9  1  0  0  0  0
 17 16  1  0  0  0  0
 19  3  1  0  0  0  0
 20 19  1  0  0  0  0
 21 19  1  0  0  0  0
 22 29  1  0  0  0  0
 22 19  1  0  0  0  0
 23 22  2  0  0  0  0
 24 23  1  0  0  0  0
 25 23  1  0  0  0  0
 25 27  2  0  0  0  0
 26 25  1  0  0  0  0
 27 29  1  0  0  0  0
 28 27  1  0  0  0  0
M  END
>  <minimizedAffinity>
-4.3668375

>  <minimizedRMSD>
0.89785713

$$$$
