REMARK  Name = 
REMARK  6 active torsions:
REMARK  status: ('A' for Active; 'I' for Inactive)
REMARK    1  A    between atoms: C_1  and  C_11
REMARK    2  A    between atoms: C_5  and  C_7
REMARK    3  A    between atoms: C_9  and  N_10
REMARK    4  A    between atoms: C_11  and  C_14
REMARK    5  A    between atoms: C_13  and  S_19
REMARK    6  A    between atoms: S_19  and  C_34
REMARK                            x       y       z     vdW  Elec       q    Type
REMARK                         _______ _______ _______ _____ _____    ______ ____
ROOT
ATOM      1  C   UNL     1      41.990  33.318  41.316  0.00  0.00    +0.000 A 
ATOM      2  C   UNL     1      42.802  34.413  41.313  0.00  0.00    +0.000 A 
ATOM      3  C   UNL     1      42.224  35.669  41.068  0.00  0.00    +0.000 A 
ATOM      4  C   UNL     1      40.881  35.846  40.833  0.00  0.00    +0.000 A 
ATOM      5  C   UNL     1      40.073  34.745  40.838  0.00  0.00    +0.000 A 
ATOM      6  C   UNL     1      40.626  33.523  41.074  0.00  0.00    +0.000 A 
ATOM      7  H   UNL     1      42.800  36.584  41.042  0.00  0.00    +0.000 HD
ATOM      8  H   UNL     1      40.449  36.794  40.648  0.00  0.00    +0.000 HD
ATOM      9  H   UNL     1      39.010  34.794  40.662  0.00  0.00    +0.000 HD
ATOM     10  H   UNL     1      39.964  32.640  41.076  0.00  0.00    +0.000 HD
ENDROOT
BRANCH   1  11
ATOM     11  S   UNL     1      42.544  31.759  41.649  0.00  0.00    +0.000 S 
ATOM     12  O   UNL     1      42.387  31.073  40.275  0.00  0.00    +0.000 OA
ATOM     13  O   UNL     1      41.666  31.027  42.606  0.00  0.00    +0.000 OA
BRANCH  11  14
ATOM     14  C   UNL     1      44.159  31.219  41.694  0.00  0.00    +0.000 A 
ATOM     15  C   UNL     1      44.670  30.574  40.538  0.00  0.00    +0.000 A 
ATOM     16  H   UNL     1      44.231  30.325  39.560  0.00  0.00    +0.000 HD
ATOM     17  C   UNL     1      45.964  30.237  40.794  0.00  0.00    +0.000 A 
ATOM     18  H   UNL     1      46.682  29.733  40.156  0.00  0.00    +0.000 HD
ATOM     19  C   UNL     1      46.257  30.648  42.048  0.00  0.00    +0.000 A 
ATOM     20  H   UNL     1      47.106  30.617  42.683  0.00  0.00    +0.000 HD
ATOM     21  O   UNL     1      45.188  31.205  42.518  0.00  0.00    +0.000 OA
ENDBRANCH  11  14
ENDBRANCH   1  11
BRANCH   2  22
ATOM     22  C   UNL     1      44.243  34.315  41.547  0.00  0.00    +0.000 C 
ATOM     23  O   UNL     1      45.120  34.143  40.627  0.00  0.00    +0.000 OA
BRANCH  22  24
ATOM     24  C   UNL     1      44.590  34.435  42.935  0.00  0.00    +0.000 A 
ATOM     25  C   UNL     1      44.321  35.687  43.545  0.00  0.00    +0.000 A 
ATOM     26  C   UNL     1      44.643  35.816  44.887  0.00  0.00    +0.000 A 
ATOM     27  N   UNL     1      45.191  34.748  45.531  0.00  0.00    +0.000 NA
ATOM     28  C   UNL     1      45.434  33.558  44.902  0.00  0.00    +0.000 A 
ATOM     29  N   UNL     1      45.128  33.464  43.659  0.00  0.00    +0.000 NA
ATOM     30  H   UNL     1      43.903  36.563  43.126  0.00  0.00    +0.000 HD
ATOM     31  H   UNL     1      44.486  36.720  45.466  0.00  0.00    +0.000 HD
BRANCH  28  32
ATOM     32  C   UNL     1      46.020  32.450  45.684  0.00  0.00    +0.000 C 
ATOM     33  C   UNL     1      46.957  32.775  46.825  0.00  0.00    +0.000 C 
ATOM     34  C   UNL     1      45.534  32.363  47.085  0.00  0.00    +0.000 C 
ATOM     35  H   UNL     1      46.145  31.475  45.181  0.00  0.00    +0.000 HD
ATOM     36  H   UNL     1      47.684  31.966  47.080  0.00  0.00    +0.000 HD
ATOM     37  H   UNL     1      47.296  33.804  47.011  0.00  0.00    +0.000 HD
ATOM     38  H   UNL     1      45.311  31.382  47.559  0.00  0.00    +0.000 HD
BRANCH  34  39
ATOM     39  N   UNL     1      44.747  33.435  47.654  0.00  0.00    +0.000 NA
ATOM     40  H   UNL     1      45.320  34.028  48.287  0.00  0.00    +0.000 HD
ATOM     41  H   UNL     1      43.840  33.151  48.048  0.00  0.00    +0.000 HD
ENDBRANCH  34  39
ENDBRANCH  28  32
ENDBRANCH  22  24
ENDBRANCH   2  22
TORSDOF 6
