
 OpenBabel03252503343D

 21 22  0  0  0  0  0  0  0  0999 V2000
   46.2020   33.9690   40.9960 C   0  0  0  0  0  0  0  0  0  0  0  0
   45.1500   33.3280   41.2610 O   0  0  0  0  0  0  0  0  0  0  0  0
   46.6940   34.7940   42.0430 N   0  0  0  0  0  0  0  0  0  0  0  0
   47.5840   35.3430   41.8750 H   0  0  0  0  0  0  0  0  0  0  0  0
   44.4700   35.9360   44.8160 C   0  0  0  0  0  0  0  0  0  0  0  0
   45.1050   35.9140   43.5600 C   0  0  0  0  0  0  0  0  0  0  0  0
   46.0090   34.8870   43.2890 C   0  0  0  0  0  0  0  0  0  0  0  0
   46.2460   33.9450   44.2440 N   0  0  0  0  0  0  0  0  0  0  0  0
   45.6040   34.0040   45.4560 C   0  0  0  0  0  0  0  0  0  0  0  0
   44.7370   34.9850   45.7220 N   0  0  0  0  0  0  0  0  0  0  0  0
   43.7880   36.7790   44.9160 H   0  0  0  0  0  0  0  0  0  0  0  0
   44.9220   36.6600   42.7950 H   0  0  0  0  0  0  0  0  0  0  0  0
   45.8170   33.2330   46.1980 H   0  0  0  0  0  0  0  0  0  0  0  0
   46.8610   33.8630   39.6990 C   0  0  0  0  0  0  0  0  0  0  0  0
   48.1030   34.3980   39.4390 C   0  0  0  0  0  0  0  0  0  0  0  0
   48.8070   34.9540   40.0390 H   0  0  0  0  0  0  0  0  0  0  0  0
   48.3490   34.0730   38.1080 C   0  0  0  0  0  0  0  0  0  0  0  0
   49.1980   34.2780   37.4500 H   0  0  0  0  0  0  0  0  0  0  0  0
   47.2410   33.3590   37.6370 C   0  0  0  0  0  0  0  0  0  0  0  0
   47.0170   32.9160   36.6580 H   0  0  0  0  0  0  0  0  0  0  0  0
   46.3920   33.2740   38.6480 O   0  0  0  0  0  0  0  0  0  0  0  0
  1  2  2  0  0  0  0
  1  3  1  0  0  0  0
  3  7  1  0  0  0  0
  4  3  1  0  0  0  0
  5 11  1  0  0  0  0
  5 10  1  0  0  0  0
  6  5  2  0  0  0  0
  7  6  1  0  0  0  0
  7  8  2  0  0  0  0
  8  9  1  0  0  0  0
  9 10  2  0  0  0  0
  9 13  1  0  0  0  0
 12  6  1  0  0  0  0
 14  1  1  0  0  0  0
 15 14  2  0  0  0  0
 15 16  1  0  0  0  0
 17 15  1  0  0  0  0
 18 17  1  0  0  0  0
 19 17  2  0  0  0  0
 19 21  1  0  0  0  0
 20 19  1  0  0  0  0
 21 14  1  0  0  0  0
M  END
>  <minimizedAffinity>
-4.28714418

>  <minimizedRMSD>
0.4978562

$$$$
