
 OpenBabel03242523403D

 36 40  0  0  1  0  0  0  0  0999 V2000
   45.7820   33.7210   46.0640 C   0  0  2  0  0  0  0  0  0  0  0  0
   44.9120   34.2480   45.2840 N   0  0  1  0  0  0  0  0  0  0  0  0
   44.5250   35.4280   45.0470 C   0  0  0  0  0  0  0  0  0  0  0  0
   45.2560   35.4470   43.9260 N   0  0  0  0  0  0  0  0  0  0  0  0
   46.1740   34.4600   43.7250 C   0  0  2  0  0  0  0  0  0  0  0  0
   46.7780   34.4160   42.4400 C   0  0  0  0  0  0  0  0  0  0  0  0
   47.6660   33.4230   42.2040 C   0  0  0  0  0  0  0  0  0  0  0  0
   48.0260   32.4580   43.1100 C   0  0  0  0  0  0  0  0  0  0  0  0
   47.3720   32.6090   44.3190 C   0  0  0  0  0  0  0  0  0  0  0  0
   46.4370   33.5400   44.7770 C   0  0  1  0  0  0  0  0  0  0  0  0
   46.3330   34.6720   46.4880 H   0  0  0  0  0  0  0  0  0  0  0  0
   44.1010   33.5720   45.1650 H   0  0  0  0  0  0  0  0  0  0  0  0
   43.4290   35.6110   44.8440 H   0  0  0  0  0  0  0  0  0  0  0  0
   44.7830   36.2370   45.7690 H   0  0  0  0  0  0  0  0  0  0  0  0
   45.0480   36.2550   43.2730 H   0  0  0  0  0  0  0  0  0  0  0  0
   46.5660   35.1140   41.6750 H   0  0  0  0  0  0  0  0  0  0  0  0
   48.1330   33.3960   41.2030 H   0  0  0  0  0  0  0  0  0  0  0  0
   48.7200   31.7000   42.8910 H   0  0  0  0  0  0  0  0  0  0  0  0
   47.6770   31.7990   44.9690 H   0  0  0  0  0  0  0  0  0  0  0  0
   47.7190   31.3430   48.1560 C   0  0  0  0  0  0  0  0  0  0  0  0
   46.9090   30.2450   47.8990 C   0  0  0  0  0  0  0  0  0  0  0  0
   45.8280   30.4340   47.0540 C   0  0  0  0  0  0  0  0  0  0  0  0
   45.6590   31.6770   46.5530 N   0  0  0  0  0  0  0  0  0  0  0  0
   46.4670   32.7370   46.8210 C   0  0  0  0  0  0  0  0  0  0  0  0
   47.4220   32.4780   47.5960 N   0  0  0  0  0  0  0  0  0  0  0  0
   48.5810   31.2520   48.8120 H   0  0  0  0  0  0  0  0  0  0  0  0
   47.1200   29.2830   48.3440 H   0  0  0  0  0  0  0  0  0  0  0  0
   44.7550   29.0320   46.7230 S   0  0  0  0  0  0  0  0  0  0  0  0
   44.3560   29.1330   44.9750 C   0  0  0  0  0  0  0  0  0  0  0  0
   45.0730   29.5430   43.8730 C   0  0  0  0  0  0  0  0  0  0  0  0
   46.1030   29.8890   44.0330 H   0  0  0  0  0  0  0  0  0  0  0  0
   44.2200   29.3900   42.7820 C   0  0  0  0  0  0  0  0  0  0  0  0
   44.6480   29.6770   41.8170 H   0  0  0  0  0  0  0  0  0  0  0  0
   43.0390   28.8970   43.2870 C   0  0  0  0  0  0  0  0  0  0  0  0
   42.2380   28.7090   42.5840 H   0  0  0  0  0  0  0  0  0  0  0  0
   43.1550   28.7580   44.5850 O   0  0  0  0  0  0  0  0  0  0  0  0
  1 11  1  1  0  0  0
  1 24  1  0  0  0  0
  2 12  1  6  0  0  0
  2  1  1  0  0  0  0
  3  2  1  0  0  0  0
  3 14  1  0  0  0  0
  4  3  1  0  0  0  0
  5  6  1  6  0  0  0
  5  4  1  0  0  0  0
  5 10  1  0  0  0  0
  7  6  2  0  0  0  0
  7  8  1  0  0  0  0
  8  9  2  0  0  0  0
  9 19  1  0  0  0  0
 10  9  1  6  0  0  0
 10  2  1  0  0  0  0
 10  1  1  0  0  0  0
 13  3  1  0  0  0  0
 15  4  1  0  0  0  0
 16  6  1  0  0  0  0
 17  7  1  0  0  0  0
 18  8  1  0  0  0  0
 20 26  1  0  0  0  0
 21 20  1  0  0  0  0
 21 27  1  0  0  0  0
 22 21  2  0  0  0  0
 23 24  2  0  0  0  0
 23 22  1  0  0  0  0
 24 25  1  0  0  0  0
 25 20  2  0  0  0  0
 28 22  1  0  0  0  0
 29 28  1  0  0  0  0
 30 31  1  0  0  0  0
 30 29  2  0  0  0  0
 32 34  2  0  0  0  0
 32 30  1  0  0  0  0
 33 32  1  0  0  0  0
 34 36  1  0  0  0  0
 35 34  1  0  0  0  0
 36 29  1  0  0  0  0
M  END
>  <minimizedAffinity>
-5.07581711

>  <minimizedRMSD>
6.26258516

$$$$
