
 OpenBabel03252508503D

 27 29  0  0  0  0  0  0  0  0999 V2000
   46.0800   34.1630   41.0080 C   0  0  0  0  0  0  0  0  0  0  0  0
   46.6100   34.8130   42.1150 C   0  0  0  0  0  0  0  0  0  0  0  0
   47.9470   35.2380   42.0140 C   0  0  0  0  0  0  0  0  0  0  0  0
   48.6180   34.9870   40.8600 N   0  0  0  0  0  0  0  0  0  0  0  0
   48.0680   34.3610   39.8280 C   0  0  0  0  0  0  0  0  0  0  0  0
   46.7920   33.9430   39.8940 N   0  0  0  0  0  0  0  0  0  0  0  0
   48.3820   35.7400   42.8500 H   0  0  0  0  0  0  0  0  0  0  0  0
   48.5700   34.1430   38.8890 H   0  0  0  0  0  0  0  0  0  0  0  0
   45.7960   35.0250   43.2960 C   0  0  0  0  0  0  0  0  0  0  0  0
   45.0550   36.1680   43.5080 C   0  0  0  0  0  0  0  0  0  0  0  0
   44.4530   35.9510   44.7250 C   0  0  0  0  0  0  0  0  0  0  0  0
   44.8020   34.7490   45.2270 N   0  0  0  0  0  0  0  0  0  0  0  0
   45.6140   34.2100   44.3430 N   0  0  0  0  0  0  0  0  0  0  0  0
   44.9190   37.0660   42.9210 H   0  0  0  0  0  0  0  0  0  0  0  0
   43.7700   36.5770   45.3090 H   0  0  0  0  0  0  0  0  0  0  0  0
   44.5820   34.2110   46.0910 H   0  0  0  0  0  0  0  0  0  0  0  0
   44.7680   33.7310   41.0710 O   0  0  0  0  0  0  0  0  0  0  0  0
   43.6920   34.2410   40.4040 C   0  0  0  0  0  0  0  0  0  0  0  0
   43.2730   35.4560   40.4310 O   0  0  0  0  0  0  0  0  0  0  0  0
   42.8130   33.4210   39.5160 C   0  0  0  0  0  0  0  0  0  0  0  0
   41.4510   33.6040   39.2450 C   0  0  0  0  0  0  0  0  0  0  0  0
   40.8900   34.4310   39.7040 H   0  0  0  0  0  0  0  0  0  0  0  0
   40.9770   32.6480   38.3740 C   0  0  0  0  0  0  0  0  0  0  0  0
   39.9660   32.5600   38.0040 H   0  0  0  0  0  0  0  0  0  0  0  0
   42.1060   31.8930   38.1410 C   0  0  0  0  0  0  0  0  0  0  0  0
   42.1370   31.0140   37.4820 H   0  0  0  0  0  0  0  0  0  0  0  0
   43.1020   32.3650   38.8010 O   0  0  0  0  0  0  0  0  0  0  0  0
  1 17  1  0  0  0  0
  1  2  1  0  0  0  0
  2  9  1  0  0  0  0
  3  2  2  0  0  0  0
  3  7  1  0  0  0  0
  4  3  1  0  0  0  0
  5  6  1  0  0  0  0
  5  4  2  0  0  0  0
  6  1  2  0  0  0  0
  8  5  1  0  0  0  0
  9 10  1  0  0  0  0
  9 13  2  0  0  0  0
 10 11  2  0  0  0  0
 11 12  1  0  0  0  0
 11 15  1  0  0  0  0
 12 16  1  0  0  0  0
 13 12  1  0  0  0  0
 14 10  1  0  0  0  0
 18 19  2  0  0  0  0
 18 17  1  0  0  0  0
 20 18  1  0  0  0  0
 21 20  2  0  0  0  0
 21 22  1  0  0  0  0
 23 21  1  0  0  0  0
 24 23  1  0  0  0  0
 25 23  2  0  0  0  0
 25 27  1  0  0  0  0
 26 25  1  0  0  0  0
 27 20  1  0  0  0  0
M  END
>  <minimizedAffinity>
-4.95508003

>  <minimizedRMSD>
0.0808946788

$$$$
