
 OpenBabel03252508023D

 41 44  0  0  1  0  0  0  0  0999 V2000
   42.0500   33.2820   41.1230 C   0  0  0  0  0  0  0  0  0  0  0  0
   42.7860   34.4120   41.3220 C   0  0  0  0  0  0  0  0  0  0  0  0
   42.1230   35.6500   41.2990 C   0  0  0  0  0  0  0  0  0  0  0  0
   40.7710   35.7750   41.0870 C   0  0  0  0  0  0  0  0  0  0  0  0
   40.0390   34.6390   40.8880 C   0  0  0  0  0  0  0  0  0  0  0  0
   40.6750   33.4340   40.9080 C   0  0  0  0  0  0  0  0  0  0  0  0
   42.6350   36.5920   41.4420 H   0  0  0  0  0  0  0  0  0  0  0  0
   40.2750   36.7100   41.0690 H   0  0  0  0  0  0  0  0  0  0  0  0
   38.9750   34.6470   40.7140 H   0  0  0  0  0  0  0  0  0  0  0  0
   40.0740   32.5230   40.7470 H   0  0  0  0  0  0  0  0  0  0  0  0
   42.7100   31.7300   41.1780 S   0  0  0  0  0  0  0  0  0  0  0  0
   41.5810   30.8890   40.5440 O   0  0  0  0  0  0  0  0  0  0  0  0
   42.8960   31.2320   42.5710 O   0  0  0  0  0  0  0  0  0  0  0  0
   43.8030   31.0270   40.0770 C   0  0  0  0  0  0  0  0  0  0  0  0
   43.8110   31.5260   38.7480 C   0  0  0  0  0  0  0  0  0  0  0  0
   43.2330   32.3080   38.2360 H   0  0  0  0  0  0  0  0  0  0  0  0
   44.7540   30.8320   38.0550 C   0  0  0  0  0  0  0  0  0  0  0  0
   45.0510   30.9250   37.0160 H   0  0  0  0  0  0  0  0  0  0  0  0
   45.3140   29.9390   38.9000 C   0  0  0  0  0  0  0  0  0  0  0  0
   46.0690   29.1960   38.8380 H   0  0  0  0  0  0  0  0  0  0  0  0
   44.7340   30.0940   40.0460 O   0  0  0  0  0  0  0  0  0  0  0  0
   44.2310   34.3720   41.5480 C   0  0  0  0  0  0  0  0  0  0  0  0
   45.1100   34.2630   40.6210 O   0  0  0  0  0  0  0  0  0  0  0  0
   44.5790   34.4700   42.9380 C   0  0  0  0  0  0  0  0  0  0  0  0
   44.3060   35.7100   43.5690 C   0  0  0  0  0  0  0  0  0  0  0  0
   44.6290   35.8180   44.9130 C   0  0  0  0  0  0  0  0  0  0  0  0
   45.1810   34.7410   45.5380 N   0  0  0  0  0  0  0  0  0  0  0  0
   45.4280   33.5630   44.8890 C   0  0  0  0  0  0  0  0  0  0  0  0
   45.1210   33.4890   43.6450 N   0  0  0  0  0  0  0  0  0  0  0  0
   43.8850   36.5920   43.1650 H   0  0  0  0  0  0  0  0  0  0  0  0
   44.4690   36.7120   45.5070 H   0  0  0  0  0  0  0  0  0  0  0  0
   46.0180   32.4440   45.6520 C   0  0  1  0  0  0  0  0  0  0  0  0
   46.9670   32.7530   46.7880 C   0  0  0  0  0  0  0  0  0  0  0  0
   45.5450   32.3410   47.0570 C   0  0  1  0  0  0  0  0  0  0  0  0
   46.1360   31.4750   45.1360 H   0  0  0  0  0  0  0  0  0  0  0  0
   47.6940   31.9390   47.0260 H   0  0  0  0  0  0  0  0  0  0  0  0
   47.3100   33.7780   46.9830 H   0  0  0  0  0  0  0  0  0  0  0  0
   45.3240   31.3550   47.5210 H   0  0  0  0  0  0  0  0  0  0  0  0
   44.7670   33.4080   47.6460 N   0  0  0  0  0  0  0  0  0  0  0  0
   45.3470   33.9920   48.2810 H   0  0  0  0  0  0  0  0  0  0  0  0
   43.8630   33.1220   48.0450 H   0  0  0  0  0  0  0  0  0  0  0  0
  1 11  1  0  0  0  0
  1  2  1  0  0  0  0
  2 22  1  0  0  0  0
  3  2  2  0  0  0  0
  3  7  1  0  0  0  0
  4  3  1  0  0  0  0
  5  6  1  0  0  0  0
  5  4  2  0  0  0  0
  6  1  2  0  0  0  0
  8  4  1  0  0  0  0
  9  5  1  0  0  0  0
 10  6  1  0  0  0  0
 11 13  2  0  0  0  0
 12 11  2  0  0  0  0
 14 11  1  0  0  0  0
 15 14  2  0  0  0  0
 16 15  1  0  0  0  0
 17 15  1  0  0  0  0
 17 19  2  0  0  0  0
 18 17  1  0  0  0  0
 19 21  1  0  0  0  0
 20 19  1  0  0  0  0
 21 14  1  0  0  0  0
 22 24  1  0  0  0  0
 23 22  2  0  0  0  0
 24 25  2  0  0  0  0
 24 29  1  0  0  0  0
 25 26  1  0  0  0  0
 26 31  1  0  0  0  0
 26 27  2  0  0  0  0
 28 27  1  0  0  0  0
 28 32  1  0  0  0  0
 29 28  2  0  0  0  0
 30 25  1  0  0  0  0
 32 35  1  6  0  0  0
 32 33  1  0  0  0  0
 32 34  1  0  0  0  0
 33 37  1  0  0  0  0
 33 36  1  0  0  0  0
 33 34  1  0  0  0  0
 34 38  1  1  0  0  0
 34 39  1  0  0  0  0
 39 41  1  0  0  0  0
 39 40  1  0  0  0  0
M  END
>  <minimizedAffinity>
-5.72304535

>  <minimizedRMSD>
1.30525208

$$$$
