
 OpenBabel03242519123D

 46 49  0  0  1  0  0  0  0  0999 V2000
   40.3060   33.5910   38.9620 N   0  0  0  0  0  0  0  0  0  0  0  0
   40.3900   33.4260   37.9170 H   0  0  0  0  0  0  0  0  0  0  0  0
   42.0000   35.4680   41.4750 N   0  0  0  0  0  0  0  0  0  0  0  0
   41.5160   34.1680   41.0230 C   0  0  0  0  0  0  0  0  0  0  0  0
   41.1430   34.5330   39.6230 C   0  0  2  0  0  0  0  0  0  0  0  0
   40.3390   35.8060   39.8300 C   0  0  0  0  0  0  0  0  0  0  0  0
   41.0490   36.4430   40.9950 C   0  0  0  0  0  0  0  0  0  0  0  0
   40.5740   33.9410   41.5620 H   0  0  0  0  0  0  0  0  0  0  0  0
   42.2850   33.3820   41.1020 H   0  0  0  0  0  0  0  0  0  0  0  0
   42.0150   34.7970   39.0010 H   0  0  0  0  0  0  0  0  0  0  0  0
   39.3250   35.4980   40.1610 H   0  0  0  0  0  0  0  0  0  0  0  0
   40.2830   36.4340   38.9310 H   0  0  0  0  0  0  0  0  0  0  0  0
   40.3600   36.6590   41.8520 H   0  0  0  0  0  0  0  0  0  0  0  0
   41.5180   37.4020   40.7250 H   0  0  0  0  0  0  0  0  0  0  0  0
   45.4930   35.8070   42.7330 C   0  0  0  0  0  0  0  0  0  0  0  0
   44.4410   35.4010   41.9080 C   0  0  0  0  0  0  0  0  0  0  0  0
   43.1380   35.8090   42.2240 C   0  0  0  0  0  0  0  0  0  0  0  0
   42.9680   36.5860   43.3300 N   0  0  0  0  0  0  0  0  0  0  0  0
   43.9820   36.9730   44.1220 C   0  0  0  0  0  0  0  0  0  0  0  0
   45.2510   36.5790   43.8190 N   0  0  0  0  0  0  0  0  0  0  0  0
   46.4880   35.4990   42.4970 H   0  0  0  0  0  0  0  0  0  0  0  0
   44.5610   34.7930   41.0390 H   0  0  0  0  0  0  0  0  0  0  0  0
   43.8440   37.5890   44.9980 H   0  0  0  0  0  0  0  0  0  0  0  0
   39.4890   31.4040   39.8270 C   0  0  0  0  0  0  0  0  0  0  0  0
   39.2870   32.7420   39.4280 C   0  0  0  0  0  0  0  0  0  0  0  0
   37.9830   33.1390   39.5400 C   0  0  0  0  0  0  0  0  0  0  0  0
   36.9360   32.3720   39.9830 C   0  0  0  0  0  0  0  0  0  0  0  0
   37.1970   31.0660   40.3610 C   0  0  0  0  0  0  0  0  0  0  0  0
   38.4810   30.6030   40.2740 C   0  0  0  0  0  0  0  0  0  0  0  0
   37.7390   34.1590   39.2520 H   0  0  0  0  0  0  0  0  0  0  0  0
   35.9190   32.7590   40.0450 H   0  0  0  0  0  0  0  0  0  0  0  0
   36.3760   30.4520   40.7130 H   0  0  0  0  0  0  0  0  0  0  0  0
   38.8580   28.9540   42.0420 C   0  0  0  0  0  0  0  0  0  0  0  0
   38.7820   29.8950   42.9140 O   0  0  0  0  0  0  0  0  0  0  0  0
   38.7120   29.2580   40.6700 N   0  0  0  0  0  0  0  0  0  0  0  0
   38.7760   28.4990   39.9790 H   0  0  0  0  0  0  0  0  0  0  0  0
   39.0920   27.6030   42.4900 C   0  0  0  0  0  0  0  0  0  0  0  0
   39.9240   27.2370   43.5380 C   0  0  0  0  0  0  0  0  0  0  0  0
   40.5020   27.9000   44.1540 H   0  0  0  0  0  0  0  0  0  0  0  0
   39.8800   25.8620   43.6560 C   0  0  0  0  0  0  0  0  0  0  0  0
   40.3860   25.2020   44.3460 H   0  0  0  0  0  0  0  0  0  0  0  0
   39.0060   25.4620   42.6500 C   0  0  0  0  0  0  0  0  0  0  0  0
   38.6820   24.4460   42.3850 H   0  0  0  0  0  0  0  0  0  0  0  0
   38.5780   26.4990   42.0060 O   0  0  0  0  0  0  0  0  0  0  0  0
   41.9500   30.5260   39.6630 N   0  0  0  0  0  0  0  0  0  0  0  0
   40.8600   30.9030   39.7370 C   0  0  0  0  0  0  0  0  0  0  0  0
  1 25  1  0  0  0  0
  1  5  1  0  0  0  0
  2  1  1  0  0  0  0
  3 17  1  0  0  0  0
  4  9  1  0  0  0  0
  4  3  1  0  0  0  0
  4  8  1  0  0  0  0
  5 10  1  6  0  0  0
  5  6  1  0  0  0  0
  5  4  1  0  0  0  0
  6 11  1  0  0  0  0
  6  7  1  0  0  0  0
  7  3  1  0  0  0  0
  7 13  1  0  0  0  0
 12  6  1  0  0  0  0
 14  7  1  0  0  0  0
 15 20  1  0  0  0  0
 16 17  1  0  0  0  0
 16 15  2  0  0  0  0
 17 18  2  0  0  0  0
 18 19  1  0  0  0  0
 19 23  1  0  0  0  0
 20 19  2  0  0  0  0
 21 15  1  0  0  0  0
 22 16  1  0  0  0  0
 24 29  1  0  0  0  0
 25 26  1  0  0  0  0
 25 24  2  0  0  0  0
 26 27  2  0  0  0  0
 27 31  1  0  0  0  0
 27 28  1  0  0  0  0
 28 32  1  0  0  0  0
 29 28  2  0  0  0  0
 29 35  1  0  0  0  0
 30 26  1  0  0  0  0
 33 37  1  0  0  0  0
 33 34  2  0  0  0  0
 35 33  1  0  0  0  0
 36 35  1  0  0  0  0
 37 38  2  0  0  0  0
 38 40  1  0  0  0  0
 38 39  1  0  0  0  0
 40 41  1  0  0  0  0
 42 40  2  0  0  0  0
 43 42  1  0  0  0  0
 44 37  1  0  0  0  0
 44 42  1  0  0  0  0
 45 46  3  0  0  0  0
 46 24  1  0  0  0  0
M  END
>  <minimizedAffinity>
-6.53343153

$$$$

 OpenBabel03242519123D

 46 49  0  0  1  0  0  0  0  0999 V2000
   39.0530   32.4690   38.1640 N   0  0  0  0  0  0  0  0  0  0  0  0
   38.5850   33.0900   37.4410 H   0  0  0  0  0  0  0  0  0  0  0  0
   38.1830   29.6070   40.1030 N   0  0  0  0  0  0  0  0  0  0  0  0
   39.0840   30.7380   39.9100 C   0  0  0  0  0  0  0  0  0  0  0  0
   38.3150   31.4720   38.8600 C   0  0  2  0  0  0  0  0  0  0  0  0
   37.9870   30.3630   37.8730 C   0  0  0  0  0  0  0  0  0  0  0  0
   37.7800   29.1810   38.7830 C   0  0  0  0  0  0  0  0  0  0  0  0
   40.0130   30.3650   39.4320 H   0  0  0  0  0  0  0  0  0  0  0  0
   39.2490   31.3090   40.8390 H   0  0  0  0  0  0  0  0  0  0  0  0
   37.3560   31.8710   39.2290 H   0  0  0  0  0  0  0  0  0  0  0  0
   38.9020   30.1860   37.2690 H   0  0  0  0  0  0  0  0  0  0  0  0
   37.1300   30.5970   37.2270 H   0  0  0  0  0  0  0  0  0  0  0  0
   38.4400   28.3140   38.5180 H   0  0  0  0  0  0  0  0  0  0  0  0
   36.7460   28.8050   38.7510 H   0  0  0  0  0  0  0  0  0  0  0  0
   36.3070   27.5430   42.5750 C   0  0  0  0  0  0  0  0  0  0  0  0
   36.6550   28.0960   41.3410 C   0  0  0  0  0  0  0  0  0  0  0  0
   37.7360   28.9860   41.2810 C   0  0  0  0  0  0  0  0  0  0  0  0
   38.3930   29.2650   42.4400 N   0  0  0  0  0  0  0  0  0  0  0  0
   38.0550   28.7310   43.6260 C   0  0  0  0  0  0  0  0  0  0  0  0
   37.0050   27.8650   43.6900 N   0  0  0  0  0  0  0  0  0  0  0  0
   35.4840   26.8640   42.6290 H   0  0  0  0  0  0  0  0  0  0  0  0
   36.1480   27.8860   40.4250 H   0  0  0  0  0  0  0  0  0  0  0  0
   38.5780   28.9530   44.5440 H   0  0  0  0  0  0  0  0  0  0  0  0
   40.9210   33.7910   39.1460 C   0  0  0  0  0  0  0  0  0  0  0  0
   40.4030   32.8580   38.2220 C   0  0  0  0  0  0  0  0  0  0  0  0
   41.3560   32.3640   37.3740 C   0  0  0  0  0  0  0  0  0  0  0  0
   42.6870   32.6940   37.3680 C   0  0  0  0  0  0  0  0  0  0  0  0
   43.1360   33.6140   38.2990 C   0  0  0  0  0  0  0  0  0  0  0  0
   42.2350   34.1500   39.1780 C   0  0  0  0  0  0  0  0  0  0  0  0
   41.0400   31.6380   36.6280 H   0  0  0  0  0  0  0  0  0  0  0  0
   43.3900   32.2560   36.6590 H   0  0  0  0  0  0  0  0  0  0  0  0
   44.1860   33.8810   38.3020 H   0  0  0  0  0  0  0  0  0  0  0  0
   43.1670   34.6420   41.3860 C   0  0  0  0  0  0  0  0  0  0  0  0
   43.1080   33.3910   41.6730 O   0  0  0  0  0  0  0  0  0  0  0  0
   42.7320   35.0910   40.1200 N   0  0  0  0  0  0  0  0  0  0  0  0
   42.7820   36.0940   39.9000 H   0  0  0  0  0  0  0  0  0  0  0  0
   43.6800   35.5610   42.3730 C   0  0  0  0  0  0  0  0  0  0  0  0
   45.0170   35.8830   42.5510 C   0  0  0  0  0  0  0  0  0  0  0  0
   45.8470   35.5000   41.9870 H   0  0  0  0  0  0  0  0  0  0  0  0
   45.1010   36.7920   43.5880 C   0  0  0  0  0  0  0  0  0  0  0  0
   45.9620   37.2780   44.0250 H   0  0  0  0  0  0  0  0  0  0  0  0
   43.7810   36.9730   43.9900 C   0  0  0  0  0  0  0  0  0  0  0  0
   43.3890   37.6150   44.7900 H   0  0  0  0  0  0  0  0  0  0  0  0
   43.0000   36.2430   43.2610 O   0  0  0  0  0  0  0  0  0  0  0  0
   39.2110   34.8070   40.8460 N   0  0  0  0  0  0  0  0  0  0  0  0
   39.9630   34.3660   40.0880 C   0  0  0  0  0  0  0  0  0  0  0  0
  1 25  1  0  0  0  0
  1  5  1  0  0  0  0
  2  1  1  0  0  0  0
  3 17  1  0  0  0  0
  4  3  1  0  0  0  0
  4  9  1  0  0  0  0
  5 10  1  1  0  0  0
  5  4  1  0  0  0  0
  6  7  1  0  0  0  0
  6  5  1  0  0  0  0
  7  3  1  0  0  0  0
  8  4  1  0  0  0  0
 11  6  1  0  0  0  0
 12  6  1  0  0  0  0
 13  7  1  0  0  0  0
 14  7  1  0  0  0  0
 15 21  1  0  0  0  0
 15 20  1  0  0  0  0
 16 15  2  0  0  0  0
 17 16  1  0  0  0  0
 17 18  2  0  0  0  0
 18 19  1  0  0  0  0
 19 20  2  0  0  0  0
 19 23  1  0  0  0  0
 22 16  1  0  0  0  0
 24 29  1  0  0  0  0
 24 46  1  0  0  0  0
 25 24  2  0  0  0  0
 26 25  1  0  0  0  0
 27 26  2  0  0  0  0
 27 28  1  0  0  0  0
 28 32  1  0  0  0  0
 28 29  2  0  0  0  0
 29 35  1  0  0  0  0
 30 26  1  0  0  0  0
 31 27  1  0  0  0  0
 33 34  2  0  0  0  0
 33 37  1  0  0  0  0
 35 33  1  0  0  0  0
 36 35  1  0  0  0  0
 37 38  2  0  0  0  0
 37 44  1  0  0  0  0
 38 40  1  0  0  0  0
 39 38  1  0  0  0  0
 40 42  2  0  0  0  0
 40 41  1  0  0  0  0
 42 43  1  0  0  0  0
 44 42  1  0  0  0  0
 46 45  3  0  0  0  0
M  END
>  <minimizedAffinity>
-6.51348495

$$$$

 OpenBabel03242519123D

 46 49  0  0  1  0  0  0  0  0999 V2000
   40.6650   33.9220   38.6230 N   0  0  0  0  0  0  0  0  0  0  0  0
   39.9570   34.2940   37.9240 H   0  0  0  0  0  0  0  0  0  0  0  0
   42.0920   35.5420   41.4600 N   0  0  0  0  0  0  0  0  0  0  0  0
   41.7030   34.2890   40.8210 C   0  0  0  0  0  0  0  0  0  0  0  0
   41.4090   34.8070   39.4510 C   0  0  2  0  0  0  0  0  0  0  0  0
   40.5320   36.0120   39.7490 C   0  0  0  0  0  0  0  0  0  0  0  0
   41.1300   36.5290   41.0310 C   0  0  0  0  0  0  0  0  0  0  0  0
   40.7390   33.9600   41.2590 H   0  0  0  0  0  0  0  0  0  0  0  0
   42.5020   33.5300   40.8620 H   0  0  0  0  0  0  0  0  0  0  0  0
   42.3070   35.1800   38.9310 H   0  0  0  0  0  0  0  0  0  0  0  0
   39.5140   35.6260   39.9660 H   0  0  0  0  0  0  0  0  0  0  0  0
   40.5070   36.7430   38.9300 H   0  0  0  0  0  0  0  0  0  0  0  0
   40.3740   36.6110   41.8550 H   0  0  0  0  0  0  0  0  0  0  0  0
   41.5680   37.5320   40.9130 H   0  0  0  0  0  0  0  0  0  0  0  0
   45.4410   35.7180   43.0860 C   0  0  0  0  0  0  0  0  0  0  0  0
   44.4650   35.3570   42.1540 C   0  0  0  0  0  0  0  0  0  0  0  0
   43.1580   35.8330   42.3260 C   0  0  0  0  0  0  0  0  0  0  0  0
   42.9100   36.6290   43.4030 N   0  0  0  0  0  0  0  0  0  0  0  0
   43.8500   36.9730   44.2970 C   0  0  0  0  0  0  0  0  0  0  0  0
   45.1230   36.5140   44.1350 N   0  0  0  0  0  0  0  0  0  0  0  0
   46.4390   35.3590   42.9610 H   0  0  0  0  0  0  0  0  0  0  0  0
   44.6470   34.7350   41.3060 H   0  0  0  0  0  0  0  0  0  0  0  0
   43.6510   37.6050   45.1500 H   0  0  0  0  0  0  0  0  0  0  0  0
   39.7510   31.6760   39.1890 C   0  0  0  0  0  0  0  0  0  0  0  0
   40.6530   32.5200   38.5080 C   0  0  0  0  0  0  0  0  0  0  0  0
   41.5300   31.8330   37.7140 C   0  0  0  0  0  0  0  0  0  0  0  0
   41.5810   30.4730   37.5510 C   0  0  0  0  0  0  0  0  0  0  0  0
   40.6690   29.6960   38.2440 C   0  0  0  0  0  0  0  0  0  0  0  0
   39.7630   30.3200   39.0580 C   0  0  0  0  0  0  0  0  0  0  0  0
   42.2620   32.4090   37.1540 H   0  0  0  0  0  0  0  0  0  0  0  0
   42.3110   29.9940   36.8980 H   0  0  0  0  0  0  0  0  0  0  0  0
   40.7020   28.6200   38.1210 H   0  0  0  0  0  0  0  0  0  0  0  0
   39.1660   29.0260   41.0470 C   0  0  0  0  0  0  0  0  0  0  0  0
   40.2890   29.3560   41.5800 O   0  0  0  0  0  0  0  0  0  0  0  0
   38.8420   29.4910   39.7540 N   0  0  0  0  0  0  0  0  0  0  0  0
   37.9420   29.2210   39.3360 H   0  0  0  0  0  0  0  0  0  0  0  0
   38.2620   28.1850   41.7910 C   0  0  0  0  0  0  0  0  0  0  0  0
   37.4320   28.6090   42.8190 C   0  0  0  0  0  0  0  0  0  0  0  0
   37.3480   29.6100   43.1990 H   0  0  0  0  0  0  0  0  0  0  0  0
   36.7240   27.5140   43.2740 C   0  0  0  0  0  0  0  0  0  0  0  0
   35.9850   27.4340   44.0590 H   0  0  0  0  0  0  0  0  0  0  0  0
   37.1750   26.4630   42.4800 C   0  0  0  0  0  0  0  0  0  0  0  0
   36.8750   25.4070   42.5040 H   0  0  0  0  0  0  0  0  0  0  0  0
   38.0590   26.8990   41.6430 O   0  0  0  0  0  0  0  0  0  0  0  0
   38.0010   32.8620   40.7320 N   0  0  0  0  0  0  0  0  0  0  0  0
   38.7800   32.3360   40.0590 C   0  0  0  0  0  0  0  0  0  0  0  0
  1  5  1  0  0  0  0
  2  1  1  0  0  0  0
  3 17  1  0  0  0  0
  4  9  1  0  0  0  0
  4  8  1  0  0  0  0
  4  3  1  0  0  0  0
  5 10  1  6  0  0  0
  5  6  1  0  0  0  0
  5  4  1  0  0  0  0
  6 11  1  0  0  0  0
  6  7  1  0  0  0  0
  7  3  1  0  0  0  0
  7 13  1  0  0  0  0
 12  6  1  0  0  0  0
 14  7  1  0  0  0  0
 15 20  1  0  0  0  0
 16 17  1  0  0  0  0
 16 15  2  0  0  0  0
 17 18  2  0  0  0  0
 18 19  1  0  0  0  0
 19 23  1  0  0  0  0
 20 19  2  0  0  0  0
 21 15  1  0  0  0  0
 22 16  1  0  0  0  0
 24 46  1  0  0  0  0
 25  1  1  0  0  0  0
 25 24  2  0  0  0  0
 26 25  1  0  0  0  0
 27 26  2  0  0  0  0
 27 28  1  0  0  0  0
 28 29  2  0  0  0  0
 29 24  1  0  0  0  0
 29 35  1  0  0  0  0
 30 26  1  0  0  0  0
 31 27  1  0  0  0  0
 32 28  1  0  0  0  0
 33 34  2  0  0  0  0
 33 37  1  0  0  0  0
 35 33  1  0  0  0  0
 36 35  1  0  0  0  0
 37 38  2  0  0  0  0
 38 39  1  0  0  0  0
 38 40  1  0  0  0  0
 40 41  1  0  0  0  0
 42 43  1  0  0  0  0
 42 40  2  0  0  0  0
 44 37  1  0  0  0  0
 44 42  1  0  0  0  0
 46 45  3  0  0  0  0
M  END
>  <minimizedAffinity>
-6.35993576

$$$$

 OpenBabel03242519123D

 46 49  0  0  1  0  0  0  0  0999 V2000
   37.8820   28.0430   41.2880 N   0  0  0  0  0  0  0  0  0  0  0  0
   37.0550   28.6100   40.9390 H   0  0  0  0  0  0  0  0  0  0  0  0
   36.8360   24.6620   40.8600 N   0  0  0  0  0  0  0  0  0  0  0  0
   36.9050   26.0110   40.3070 C   0  0  0  0  0  0  0  0  0  0  0  0
   37.8400   26.6210   41.3010 C   0  0  2  0  0  0  0  0  0  0  0  0
   37.2280   26.1860   42.6220 C   0  0  0  0  0  0  0  0  0  0  0  0
   36.6960   24.8170   42.2880 C   0  0  0  0  0  0  0  0  0  0  0  0
   35.9180   26.4960   40.4490 H   0  0  0  0  0  0  0  0  0  0  0  0
   37.2710   26.0220   39.2680 H   0  0  0  0  0  0  0  0  0  0  0  0
   38.8550   26.1910   41.2560 H   0  0  0  0  0  0  0  0  0  0  0  0
   36.3680   26.8600   42.8180 H   0  0  0  0  0  0  0  0  0  0  0  0
   37.9410   26.2070   43.4580 H   0  0  0  0  0  0  0  0  0  0  0  0
   35.6010   24.7160   42.5100 H   0  0  0  0  0  0  0  0  0  0  0  0
   37.2020   24.0220   42.8570 H   0  0  0  0  0  0  0  0  0  0  0  0
   36.0860   21.6860   38.7450 C   0  0  0  0  0  0  0  0  0  0  0  0
   35.9240   22.9520   39.3120 C   0  0  0  0  0  0  0  0  0  0  0  0
   36.8850   23.4110   40.2230 C   0  0  0  0  0  0  0  0  0  0  0  0
   37.9330   22.5900   40.5080 N   0  0  0  0  0  0  0  0  0  0  0  0
   38.0840   21.3720   39.9610 C   0  0  0  0  0  0  0  0  0  0  0  0
   37.1540   20.9200   39.0740 N   0  0  0  0  0  0  0  0  0  0  0  0
   35.3570   21.3300   38.0500 H   0  0  0  0  0  0  0  0  0  0  0  0
   35.1080   23.6060   39.0970 H   0  0  0  0  0  0  0  0  0  0  0  0
   38.9160   20.7220   40.1880 H   0  0  0  0  0  0  0  0  0  0  0  0
   38.7880   30.3560   41.4630 C   0  0  0  0  0  0  0  0  0  0  0  0
   38.8730   28.9630   41.6730 C   0  0  0  0  0  0  0  0  0  0  0  0
   40.0320   28.5900   42.2950 C   0  0  0  0  0  0  0  0  0  0  0  0
   41.0420   29.4240   42.6990 C   0  0  0  0  0  0  0  0  0  0  0  0
   40.9010   30.7810   42.4660 C   0  0  0  0  0  0  0  0  0  0  0  0
   39.7650   31.2240   41.8460 C   0  0  0  0  0  0  0  0  0  0  0  0
   40.1800   27.5310   42.4940 H   0  0  0  0  0  0  0  0  0  0  0  0
   41.9410   29.0510   43.1910 H   0  0  0  0  0  0  0  0  0  0  0  0
   41.6940   31.4490   42.7810 H   0  0  0  0  0  0  0  0  0  0  0  0
   40.2910   33.2020   40.5030 C   0  0  0  0  0  0  0  0  0  0  0  0
   40.9630   32.4580   39.7000 O   0  0  0  0  0  0  0  0  0  0  0  0
   39.6540   32.6230   41.6240 N   0  0  0  0  0  0  0  0  0  0  0  0
   39.1190   33.2260   42.2620 H   0  0  0  0  0  0  0  0  0  0  0  0
   40.2040   34.6160   40.2370 C   0  0  0  0  0  0  0  0  0  0  0  0
   39.0660   35.3940   40.3910 C   0  0  0  0  0  0  0  0  0  0  0  0
   38.1020   35.0560   40.7260 H   0  0  0  0  0  0  0  0  0  0  0  0
   39.3840   36.6900   40.0380 C   0  0  0  0  0  0  0  0  0  0  0  0
   38.7740   37.5820   40.0220 H   0  0  0  0  0  0  0  0  0  0  0  0
   40.7280   36.6250   39.6810 C   0  0  0  0  0  0  0  0  0  0  0  0
   41.3860   37.4330   39.3330 H   0  0  0  0  0  0  0  0  0  0  0  0
   41.1550   35.4110   39.8120 O   0  0  0  0  0  0  0  0  0  0  0  0
   36.6110   31.2220   40.2960 N   0  0  0  0  0  0  0  0  0  0  0  0
   37.5760   30.8360   40.8010 C   0  0  0  0  0  0  0  0  0  0  0  0
  1  5  1  0  0  0  0
  1 25  1  0  0  0  0
  2  1  1  0  0  0  0
  3  7  1  0  0  0  0
  4  8  1  0  0  0  0
  4  3  1  0  0  0  0
  4  5  1  0  0  0  0
  5 10  1  6  0  0  0
  5  6  1  0  0  0  0
  6 11  1  0  0  0  0
  6 12  1  0  0  0  0
  7 13  1  0  0  0  0
  7  6  1  0  0  0  0
  7 14  1  0  0  0  0
  9  4  1  0  0  0  0
 15 20  2  0  0  0  0
 15 16  1  0  0  0  0
 16 17  2  0  0  0  0
 17 18  1  0  0  0  0
 17  3  1  0  0  0  0
 19 23  1  0  0  0  0
 19 18  2  0  0  0  0
 20 19  1  0  0  0  0
 21 15  1  0  0  0  0
 22 16  1  0  0  0  0
 24 25  2  0  0  0  0
 24 29  1  0  0  0  0
 25 26  1  0  0  0  0
 26 30  1  0  0  0  0
 26 27  2  0  0  0  0
 27 31  1  0  0  0  0
 28 27  1  0  0  0  0
 28 32  1  0  0  0  0
 29 28  2  0  0  0  0
 33 35  1  0  0  0  0
 34 33  2  0  0  0  0
 35 29  1  0  0  0  0
 35 36  1  0  0  0  0
 37 38  2  0  0  0  0
 37 33  1  0  0  0  0
 38 39  1  0  0  0  0
 40 38  1  0  0  0  0
 41 40  1  0  0  0  0
 42 44  1  0  0  0  0
 42 40  2  0  0  0  0
 43 42  1  0  0  0  0
 44 37  1  0  0  0  0
 45 46  3  0  0  0  0
 46 24  1  0  0  0  0
M  END
>  <minimizedAffinity>
-6.07009888

$$$$

 OpenBabel03242519123D

 46 49  0  0  1  0  0  0  0  0999 V2000
   38.8370   32.9970   39.4130 N   0  0  0  0  0  0  0  0  0  0  0  0
   38.0090   33.6580   39.4940 H   0  0  0  0  0  0  0  0  0  0  0  0
   41.6080   34.9040   40.5920 N   0  0  0  0  0  0  0  0  0  0  0  0
   40.1650   34.6840   40.6100 C   0  0  0  0  0  0  0  0  0  0  0  0
   40.1220   33.3740   39.8930 C   0  0  2  0  0  0  0  0  0  0  0  0
   41.0080   33.6410   38.6880 C   0  0  0  0  0  0  0  0  0  0  0  0
   42.0520   34.5620   39.2620 C   0  0  0  0  0  0  0  0  0  0  0  0
   39.6910   35.4340   39.9460 H   0  0  0  0  0  0  0  0  0  0  0  0
   39.7560   34.6600   41.6340 H   0  0  0  0  0  0  0  0  0  0  0  0
   40.5900   32.5550   40.4650 H   0  0  0  0  0  0  0  0  0  0  0  0
   40.3980   34.2130   37.9580 H   0  0  0  0  0  0  0  0  0  0  0  0
   41.4080   32.7250   38.2320 H   0  0  0  0  0  0  0  0  0  0  0  0
   42.1300   35.5280   38.6980 H   0  0  0  0  0  0  0  0  0  0  0  0
   43.0580   34.1140   39.2480 H   0  0  0  0  0  0  0  0  0  0  0  0
   44.4690   35.2790   42.9510 C   0  0  0  0  0  0  0  0  0  0  0  0
   43.6930   34.7370   41.9250 C   0  0  0  0  0  0  0  0  0  0  0  0
   42.4760   35.3520   41.6020 C   0  0  0  0  0  0  0  0  0  0  0  0
   42.1140   36.4550   42.3140 N   0  0  0  0  0  0  0  0  0  0  0  0
   42.8630   36.9730   43.3010 C   0  0  0  0  0  0  0  0  0  0  0  0
   44.0480   36.3790   43.6190 N   0  0  0  0  0  0  0  0  0  0  0  0
   45.3980   34.8150   43.2030 H   0  0  0  0  0  0  0  0  0  0  0  0
   43.9650   33.8740   41.3590 H   0  0  0  0  0  0  0  0  0  0  0  0
   42.5750   37.8480   43.8640 H   0  0  0  0  0  0  0  0  0  0  0  0
   38.4090   30.5440   39.3770 C   0  0  0  0  0  0  0  0  0  0  0  0
   38.3640   31.8270   38.7920 C   0  0  0  0  0  0  0  0  0  0  0  0
   37.8090   31.8230   37.5420 C   0  0  0  0  0  0  0  0  0  0  0  0
   37.3280   30.7280   36.8720 C   0  0  0  0  0  0  0  0  0  0  0  0
   37.3990   29.4950   37.4980 C   0  0  0  0  0  0  0  0  0  0  0  0
   37.9440   29.4280   38.7510 C   0  0  0  0  0  0  0  0  0  0  0  0
   37.7370   32.7730   37.0180 H   0  0  0  0  0  0  0  0  0  0  0  0
   36.8980   30.8020   35.8730 H   0  0  0  0  0  0  0  0  0  0  0  0
   37.0210   28.6240   36.9760 H   0  0  0  0  0  0  0  0  0  0  0  0
   36.8750   27.6630   40.0670 C   0  0  0  0  0  0  0  0  0  0  0  0
   35.8150   28.3860   40.1460 O   0  0  0  0  0  0  0  0  0  0  0  0
   38.0000   28.1460   39.3630 N   0  0  0  0  0  0  0  0  0  0  0  0
   38.8440   27.5610   39.3050 H   0  0  0  0  0  0  0  0  0  0  0  0
   36.8860   26.3690   40.7020 C   0  0  0  0  0  0  0  0  0  0  0  0
   36.7620   25.1520   40.0480 C   0  0  0  0  0  0  0  0  0  0  0  0
   36.6420   25.0050   38.9900 H   0  0  0  0  0  0  0  0  0  0  0  0
   36.8200   24.1500   40.9970 C   0  0  0  0  0  0  0  0  0  0  0  0
   36.7590   23.0770   40.8880 H   0  0  0  0  0  0  0  0  0  0  0  0
   36.9780   24.8310   42.2010 C   0  0  0  0  0  0  0  0  0  0  0  0
   37.0680   24.4200   43.2150 H   0  0  0  0  0  0  0  0  0  0  0  0
   37.0100   26.1050   41.9790 O   0  0  0  0  0  0  0  0  0  0  0  0
   39.4400   30.4200   41.7800 N   0  0  0  0  0  0  0  0  0  0  0  0
   38.9900   30.4650   40.7170 C   0  0  0  0  0  0  0  0  0  0  0  0
  1  2  1  0  0  0  0
  1  5  1  0  0  0  0
  3  4  1  0  0  0  0
  3 17  1  0  0  0  0
  4  9  1  0  0  0  0
  5 10  1  1  0  0  0
  5  4  1  0  0  0  0
  6  7  1  0  0  0  0
  6  5  1  0  0  0  0
  7  3  1  0  0  0  0
  8  4  1  0  0  0  0
 11  6  1  0  0  0  0
 12  6  1  0  0  0  0
 13  7  1  0  0  0  0
 14  7  1  0  0  0  0
 15 21  1  0  0  0  0
 15 20  1  0  0  0  0
 16 15  2  0  0  0  0
 17 16  1  0  0  0  0
 17 18  2  0  0  0  0
 18 19  1  0  0  0  0
 19 20  2  0  0  0  0
 19 23  1  0  0  0  0
 22 16  1  0  0  0  0
 24 46  1  0  0  0  0
 25 24  1  0  0  0  0
 25  1  1  0  0  0  0
 26 25  2  0  0  0  0
 27 28  2  0  0  0  0
 27 26  1  0  0  0  0
 28 29  1  0  0  0  0
 29 35  1  0  0  0  0
 29 24  2  0  0  0  0
 30 26  1  0  0  0  0
 31 27  1  0  0  0  0
 32 28  1  0  0  0  0
 33 34  2  0  0  0  0
 33 37  1  0  0  0  0
 35 33  1  0  0  0  0
 36 35  1  0  0  0  0
 37 44  1  0  0  0  0
 38 37  2  0  0  0  0
 38 40  1  0  0  0  0
 39 38  1  0  0  0  0
 40 42  2  0  0  0  0
 41 40  1  0  0  0  0
 42 43  1  0  0  0  0
 44 42  1  0  0  0  0
 46 45  3  0  0  0  0
M  END
>  <minimizedAffinity>
-6.05655861

$$$$

 OpenBabel03242519123D

 46 49  0  0  1  0  0  0  0  0999 V2000
   37.3570   30.3190   40.8130 N   0  0  0  0  0  0  0  0  0  0  0  0
   36.3980   30.4330   40.3710 H   0  0  0  0  0  0  0  0  0  0  0  0
   39.0990   33.2850   39.8760 N   0  0  0  0  0  0  0  0  0  0  0  0
   37.8950   32.6900   40.4470 C   0  0  0  0  0  0  0  0  0  0  0  0
   38.3800   31.2840   40.5980 C   0  0  2  0  0  0  0  0  0  0  0  0
   38.9970   31.0130   39.2360 C   0  0  0  0  0  0  0  0  0  0  0  0
   39.5740   32.3570   38.8770 C   0  0  0  0  0  0  0  0  0  0  0  0
   37.1080   32.6810   39.6670 H   0  0  0  0  0  0  0  0  0  0  0  0
   37.5930   33.1740   41.3910 H   0  0  0  0  0  0  0  0  0  0  0  0
   39.1850   31.1850   41.3450 H   0  0  0  0  0  0  0  0  0  0  0  0
   38.1610   30.7920   38.5410 H   0  0  0  0  0  0  0  0  0  0  0  0
   39.7260   30.1920   39.2470 H   0  0  0  0  0  0  0  0  0  0  0  0
   39.1970   32.7370   37.8920 H   0  0  0  0  0  0  0  0  0  0  0  0
   40.6720   32.3340   38.8000 H   0  0  0  0  0  0  0  0  0  0  0  0
   41.5760   35.8630   40.9310 C   0  0  0  0  0  0  0  0  0  0  0  0
   41.0440   34.5960   40.6830 C   0  0  0  0  0  0  0  0  0  0  0  0
   39.7450   34.4980   40.1670 C   0  0  0  0  0  0  0  0  0  0  0  0
   39.0660   35.6560   39.9330 N   0  0  0  0  0  0  0  0  0  0  0  0
   39.5810   36.8730   40.1730 C   0  0  0  0  0  0  0  0  0  0  0  0
   40.8440   36.9740   40.6750 N   0  0  0  0  0  0  0  0  0  0  0  0
   42.5660   35.9450   41.3240 H   0  0  0  0  0  0  0  0  0  0  0  0
   41.5640   33.6810   40.8620 H   0  0  0  0  0  0  0  0  0  0  0  0
   39.0420   37.7890   39.9870 H   0  0  0  0  0  0  0  0  0  0  0  0
   37.2690   27.8360   40.9820 C   0  0  0  0  0  0  0  0  0  0  0  0
   37.3250   29.1250   41.5540 C   0  0  0  0  0  0  0  0  0  0  0  0
   37.3430   29.0990   42.9220 C   0  0  0  0  0  0  0  0  0  0  0  0
   37.3130   27.9790   43.7120 C   0  0  0  0  0  0  0  0  0  0  0  0
   37.2600   26.7430   43.0930 C   0  0  0  0  0  0  0  0  0  0  0  0
   37.2380   26.6960   41.7260 C   0  0  0  0  0  0  0  0  0  0  0  0
   37.3840   30.0510   43.4440 H   0  0  0  0  0  0  0  0  0  0  0  0
   37.3300   28.0380   44.8010 H   0  0  0  0  0  0  0  0  0  0  0  0
   37.2360   25.8520   43.7100 H   0  0  0  0  0  0  0  0  0  0  0  0
   38.3820   24.7010   40.8890 C   0  0  0  0  0  0  0  0  0  0  0  0
   39.5070   25.2260   41.2210 O   0  0  0  0  0  0  0  0  0  0  0  0
   37.1830   25.4090   41.1240 N   0  0  0  0  0  0  0  0  0  0  0  0
   36.2880   24.9810   40.8550 H   0  0  0  0  0  0  0  0  0  0  0  0
   38.3750   23.3920   40.2830 C   0  0  0  0  0  0  0  0  0  0  0  0
   39.1070   23.0210   39.1660 C   0  0  0  0  0  0  0  0  0  0  0  0
   39.7750   23.6470   38.6030 H   0  0  0  0  0  0  0  0  0  0  0  0
   38.8310   21.6950   38.8970 C   0  0  0  0  0  0  0  0  0  0  0  0
   39.2000   21.0460   38.1150 H   0  0  0  0  0  0  0  0  0  0  0  0
   37.9250   21.3280   39.8880 C   0  0  0  0  0  0  0  0  0  0  0  0
   37.4410   20.3560   40.0500 H   0  0  0  0  0  0  0  0  0  0  0  0
   37.6930   22.3390   40.6610 O   0  0  0  0  0  0  0  0  0  0  0  0
   37.2380   27.7160   38.3670 N   0  0  0  0  0  0  0  0  0  0  0  0
   37.2470   27.7790   39.5210 C   0  0  0  0  0  0  0  0  0  0  0  0
  1 25  1  0  0  0  0
  2  1  1  0  0  0  0
  3 17  1  0  0  0  0
  3  4  1  0  0  0  0
  4  5  1  0  0  0  0
  4  9  1  0  0  0  0
  5  1  1  0  0  0  0
  5 10  1  1  0  0  0
  6 12  1  0  0  0  0
  6  5  1  0  0  0  0
  7  6  1  0  0  0  0
  7  3  1  0  0  0  0
  8  4  1  0  0  0  0
 11  6  1  0  0  0  0
 13  7  1  0  0  0  0
 14  7  1  0  0  0  0
 15 21  1  0  0  0  0
 16 22  1  0  0  0  0
 16 15  1  0  0  0  0
 17 16  2  0  0  0  0
 18 17  1  0  0  0  0
 18 19  2  0  0  0  0
 19 20  1  0  0  0  0
 20 15  2  0  0  0  0
 23 19  1  0  0  0  0
 24 25  2  0  0  0  0
 24 29  1  0  0  0  0
 25 26  1  0  0  0  0
 26 30  1  0  0  0  0
 26 27  2  0  0  0  0
 27 31  1  0  0  0  0
 28 32  1  0  0  0  0
 28 27  1  0  0  0  0
 29 28  2  0  0  0  0
 33 35  1  0  0  0  0
 33 34  2  0  0  0  0
 35 29  1  0  0  0  0
 36 35  1  0  0  0  0
 37 44  1  0  0  0  0
 37 33  1  0  0  0  0
 38 37  2  0  0  0  0
 39 38  1  0  0  0  0
 40 38  1  0  0  0  0
 40 42  2  0  0  0  0
 41 40  1  0  0  0  0
 42 43  1  0  0  0  0
 42 44  1  0  0  0  0
 45 46  3  0  0  0  0
 46 24  1  0  0  0  0
M  END
>  <minimizedAffinity>
-5.90375185

$$$$

 OpenBabel03242519123D

 46 49  0  0  1  0  0  0  0  0999 V2000
   40.0590   29.2800   42.1810 N   0  0  0  0  0  0  0  0  0  0  0  0
   40.8850   28.9890   42.7800 H   0  0  0  0  0  0  0  0  0  0  0  0
   39.4670   32.3770   40.5180 N   0  0  0  0  0  0  0  0  0  0  0  0
   39.5200   31.6450   41.7790 C   0  0  0  0  0  0  0  0  0  0  0  0
   40.1560   30.3840   41.2890 C   0  0  2  0  0  0  0  0  0  0  0  0
   39.3210   30.0640   40.0600 C   0  0  0  0  0  0  0  0  0  0  0  0
   39.0100   31.4360   39.5230 C   0  0  0  0  0  0  0  0  0  0  0  0
   38.4830   31.3910   42.0770 H   0  0  0  0  0  0  0  0  0  0  0  0
   40.0970   32.1780   42.5520 H   0  0  0  0  0  0  0  0  0  0  0  0
   41.1930   30.5310   40.9470 H   0  0  0  0  0  0  0  0  0  0  0  0
   38.3760   29.6050   40.4210 H   0  0  0  0  0  0  0  0  0  0  0  0
   39.8320   29.4010   39.3490 H   0  0  0  0  0  0  0  0  0  0  0  0
   37.9090   31.6130   39.4050 H   0  0  0  0  0  0  0  0  0  0  0  0
   39.4580   31.6080   38.5320 H   0  0  0  0  0  0  0  0  0  0  0  0
   39.3320   36.0810   40.1230 C   0  0  0  0  0  0  0  0  0  0  0  0
   38.9090   34.7930   40.4580 C   0  0  0  0  0  0  0  0  0  0  0  0
   39.7750   33.7160   40.2250 C   0  0  0  0  0  0  0  0  0  0  0  0
   40.9930   33.9880   39.6810 N   0  0  0  0  0  0  0  0  0  0  0  0
   41.3960   35.2290   39.3600 C   0  0  0  0  0  0  0  0  0  0  0  0
   40.5580   36.2790   39.5840 N   0  0  0  0  0  0  0  0  0  0  0  0
   38.6760   36.9070   40.2980 H   0  0  0  0  0  0  0  0  0  0  0  0
   37.9570   34.5660   40.8850 H   0  0  0  0  0  0  0  0  0  0  0  0
   42.3630   35.4420   38.9300 H   0  0  0  0  0  0  0  0  0  0  0  0
   38.9310   27.0660   42.0100 C   0  0  0  0  0  0  0  0  0  0  0  0
   39.0080   28.3950   42.4790 C   0  0  0  0  0  0  0  0  0  0  0  0
   37.9430   28.7440   43.2630 C   0  0  0  0  0  0  0  0  0  0  0  0
   36.8830   27.9400   43.5980 C   0  0  0  0  0  0  0  0  0  0  0  0
   36.8650   26.6460   43.1080 C   0  0  0  0  0  0  0  0  0  0  0  0
   37.8990   26.2310   42.3150 C   0  0  0  0  0  0  0  0  0  0  0  0
   37.9220   29.7540   43.6660 H   0  0  0  0  0  0  0  0  0  0  0  0
   36.0670   28.2900   44.2310 H   0  0  0  0  0  0  0  0  0  0  0  0
   36.0320   26.0040   43.3670 H   0  0  0  0  0  0  0  0  0  0  0  0
   37.1520   24.6180   40.6330 C   0  0  0  0  0  0  0  0  0  0  0  0
   36.5750   25.5740   39.9960 O   0  0  0  0  0  0  0  0  0  0  0  0
   37.8470   24.8960   41.8310 N   0  0  0  0  0  0  0  0  0  0  0  0
   38.3050   24.1250   42.3340 H   0  0  0  0  0  0  0  0  0  0  0  0
   37.0740   23.2800   40.1030 C   0  0  0  0  0  0  0  0  0  0  0  0
   38.0150   22.2800   40.3040 C   0  0  0  0  0  0  0  0  0  0  0  0
   38.9200   22.3620   40.8760 H   0  0  0  0  0  0  0  0  0  0  0  0
   37.5840   21.1500   39.6380 C   0  0  0  0  0  0  0  0  0  0  0  0
   38.0350   20.1710   39.5540 H   0  0  0  0  0  0  0  0  0  0  0  0
   36.3800   21.5360   39.0560 C   0  0  0  0  0  0  0  0  0  0  0  0
   35.6970   20.9420   38.4330 H   0  0  0  0  0  0  0  0  0  0  0  0
   36.1290   22.7700   39.3520 O   0  0  0  0  0  0  0  0  0  0  0  0
   40.8950   26.2610   40.4780 N   0  0  0  0  0  0  0  0  0  0  0  0
   40.0350   26.6160   41.1630 C   0  0  0  0  0  0  0  0  0  0  0  0
  1 25  1  0  0  0  0
  1  2  1  0  0  0  0
  3  4  1  0  0  0  0
  4  8  1  0  0  0  0
  4  9  1  0  0  0  0
  5 10  1  6  0  0  0
  5  4  1  0  0  0  0
  5  1  1  0  0  0  0
  6 11  1  0  0  0  0
  6  5  1  0  0  0  0
  7  6  1  0  0  0  0
  7  3  1  0  0  0  0
 12  6  1  0  0  0  0
 13  7  1  0  0  0  0
 14  7  1  0  0  0  0
 15 21  1  0  0  0  0
 15 16  1  0  0  0  0
 16 22  1  0  0  0  0
 17 16  2  0  0  0  0
 17  3  1  0  0  0  0
 18 17  1  0  0  0  0
 19 20  1  0  0  0  0
 19 18  2  0  0  0  0
 20 15  2  0  0  0  0
 23 19  1  0  0  0  0
 24 29  2  0  0  0  0
 24 25  1  0  0  0  0
 25 26  2  0  0  0  0
 26 27  1  0  0  0  0
 26 30  1  0  0  0  0
 27 31  1  0  0  0  0
 28 32  1  0  0  0  0
 28 27  2  0  0  0  0
 29 28  1  0  0  0  0
 33 35  1  0  0  0  0
 34 33  2  0  0  0  0
 35 29  1  0  0  0  0
 35 36  1  0  0  0  0
 37 38  2  0  0  0  0
 37 33  1  0  0  0  0
 38 39  1  0  0  0  0
 40 38  1  0  0  0  0
 41 40  1  0  0  0  0
 42 44  1  0  0  0  0
 42 40  2  0  0  0  0
 43 42  1  0  0  0  0
 44 37  1  0  0  0  0
 45 46  3  0  0  0  0
 46 24  1  0  0  0  0
M  END
>  <minimizedAffinity>
-5.88226128

$$$$

 OpenBabel03242519123D

 46 49  0  0  1  0  0  0  0  0999 V2000
   37.7700   27.4020   41.9470 N   0  0  0  0  0  0  0  0  0  0  0  0
   37.9580   27.5880   42.9750 H   0  0  0  0  0  0  0  0  0  0  0  0
   37.8060   23.9210   41.1790 N   0  0  0  0  0  0  0  0  0  0  0  0
   37.0180   25.1020   41.5160 C   0  0  0  0  0  0  0  0  0  0  0  0
   38.0790   26.1420   41.3630 C   0  0  2  0  0  0  0  0  0  0  0  0
   39.2320   25.5370   42.1470 C   0  0  0  0  0  0  0  0  0  0  0  0
   39.0660   24.0670   41.8690 C   0  0  0  0  0  0  0  0  0  0  0  0
   36.7620   25.0530   42.5940 H   0  0  0  0  0  0  0  0  0  0  0  0
   36.1490   25.2330   40.8490 H   0  0  0  0  0  0  0  0  0  0  0  0
   38.4210   26.2580   40.3210 H   0  0  0  0  0  0  0  0  0  0  0  0
   39.0220   25.7180   43.2220 H   0  0  0  0  0  0  0  0  0  0  0  0
   40.2110   25.9470   41.8650 H   0  0  0  0  0  0  0  0  0  0  0  0
   38.9820   23.4580   42.8080 H   0  0  0  0  0  0  0  0  0  0  0  0
   39.9150   23.6500   41.3050 H   0  0  0  0  0  0  0  0  0  0  0  0
   37.8860   20.6450   39.4030 C   0  0  0  0  0  0  0  0  0  0  0  0
   38.3020   21.6770   40.2480 C   0  0  0  0  0  0  0  0  0  0  0  0
   37.4990   22.8190   40.3640 C   0  0  0  0  0  0  0  0  0  0  0  0
   36.3470   22.8610   39.6390 N   0  0  0  0  0  0  0  0  0  0  0  0
   35.9510   21.8680   38.8270 C   0  0  0  0  0  0  0  0  0  0  0  0
   36.7280   20.7540   38.7100 N   0  0  0  0  0  0  0  0  0  0  0  0
   38.4940   19.7710   39.3100 H   0  0  0  0  0  0  0  0  0  0  0  0
   39.2020   21.6560   40.8220 H   0  0  0  0  0  0  0  0  0  0  0  0
   35.0370   21.9030   38.2530 H   0  0  0  0  0  0  0  0  0  0  0  0
   37.8430   29.8430   41.4580 C   0  0  0  0  0  0  0  0  0  0  0  0
   37.2150   28.5800   41.4150 C   0  0  0  0  0  0  0  0  0  0  0  0
   35.9950   28.6130   40.7980 C   0  0  0  0  0  0  0  0  0  0  0  0
   35.3890   29.7170   40.2570 C   0  0  0  0  0  0  0  0  0  0  0  0
   36.0540   30.9290   40.3290 C   0  0  0  0  0  0  0  0  0  0  0  0
   37.2800   30.9680   40.9340 C   0  0  0  0  0  0  0  0  0  0  0  0
   35.4420   27.6800   40.7230 H   0  0  0  0  0  0  0  0  0  0  0  0
   34.4100   29.6660   39.7790 H   0  0  0  0  0  0  0  0  0  0  0  0
   35.5830   31.8070   39.9040 H   0  0  0  0  0  0  0  0  0  0  0  0
   38.7070   32.6590   39.8890 C   0  0  0  0  0  0  0  0  0  0  0  0
   38.8110   31.9070   38.8510 O   0  0  0  0  0  0  0  0  0  0  0  0
   37.9340   32.2280   40.9900 N   0  0  0  0  0  0  0  0  0  0  0  0
   37.8580   32.8360   41.8160 H   0  0  0  0  0  0  0  0  0  0  0  0
   39.3870   33.9300   39.9000 C   0  0  0  0  0  0  0  0  0  0  0  0
   38.8380   35.1310   40.3250 C   0  0  0  0  0  0  0  0  0  0  0  0
   37.8430   35.2790   40.7030 H   0  0  0  0  0  0  0  0  0  0  0  0
   39.7980   36.1130   40.1820 C   0  0  0  0  0  0  0  0  0  0  0  0
   39.7570   37.1700   40.4020 H   0  0  0  0  0  0  0  0  0  0  0  0
   40.9000   35.4380   39.6650 C   0  0  0  0  0  0  0  0  0  0  0  0
   41.8870   35.8390   39.3970 H   0  0  0  0  0  0  0  0  0  0  0  0
   40.6140   34.1850   39.5190 O   0  0  0  0  0  0  0  0  0  0  0  0
   40.1990   29.9230   42.5960 N   0  0  0  0  0  0  0  0  0  0  0  0
   39.1540   29.8910   42.1030 C   0  0  0  0  0  0  0  0  0  0  0  0
  1  2  1  0  0  0  0
  3  4  1  0  0  0  0
  3  7  1  0  0  0  0
  4  8  1  0  0  0  0
  5 10  1  6  0  0  0
  5  4  1  0  0  0  0
  5  1  1  0  0  0  0
  5  6  1  0  0  0  0
  6 11  1  0  0  0  0
  7  6  1  0  0  0  0
  7 13  1  0  0  0  0
  9  4  1  0  0  0  0
 12  6  1  0  0  0  0
 14  7  1  0  0  0  0
 15 16  1  0  0  0  0
 16 17  2  0  0  0  0
 16 22  1  0  0  0  0
 17  3  1  0  0  0  0
 18 17  1  0  0  0  0
 19 18  2  0  0  0  0
 20 19  1  0  0  0  0
 20 15  2  0  0  0  0
 21 15  1  0  0  0  0
 23 19  1  0  0  0  0
 24 46  1  0  0  0  0
 25 24  1  0  0  0  0
 25  1  1  0  0  0  0
 26 25  2  0  0  0  0
 27 28  2  0  0  0  0
 27 26  1  0  0  0  0
 28 29  1  0  0  0  0
 29 35  1  0  0  0  0
 29 24  2  0  0  0  0
 30 26  1  0  0  0  0
 31 27  1  0  0  0  0
 32 28  1  0  0  0  0
 33 37  1  0  0  0  0
 33 35  1  0  0  0  0
 34 33  2  0  0  0  0
 35 36  1  0  0  0  0
 37 38  2  0  0  0  0
 38 39  1  0  0  0  0
 40 38  1  0  0  0  0
 40 41  1  0  0  0  0
 42 40  2  0  0  0  0
 43 42  1  0  0  0  0
 44 42  1  0  0  0  0
 44 37  1  0  0  0  0
 46 45  3  0  0  0  0
M  END
>  <minimizedAffinity>
-5.86734295

$$$$

 OpenBabel03242519123D

 46 49  0  0  1  0  0  0  0  0999 V2000
   39.0460   32.1060   38.8770 N   0  0  0  0  0  0  0  0  0  0  0  0
   38.7390   32.2320   37.8680 H   0  0  0  0  0  0  0  0  0  0  0  0
   41.3280   34.5530   40.1050 N   0  0  0  0  0  0  0  0  0  0  0  0
   39.9700   34.0190   40.1130 C   0  0  0  0  0  0  0  0  0  0  0  0
   40.2170   32.7470   39.3700 C   0  0  2  0  0  0  0  0  0  0  0  0
   41.0220   33.2280   38.1730 C   0  0  0  0  0  0  0  0  0  0  0  0
   41.8370   34.3440   38.7700 C   0  0  0  0  0  0  0  0  0  0  0  0
   39.3420   34.6600   39.4620 H   0  0  0  0  0  0  0  0  0  0  0  0
   39.5770   33.8840   41.1340 H   0  0  0  0  0  0  0  0  0  0  0  0
   40.8540   32.0400   39.9260 H   0  0  0  0  0  0  0  0  0  0  0  0
   40.3000   33.6660   37.4530 H   0  0  0  0  0  0  0  0  0  0  0  0
   41.6140   32.4330   37.7010 H   0  0  0  0  0  0  0  0  0  0  0  0
   41.6990   35.3150   38.2270 H   0  0  0  0  0  0  0  0  0  0  0  0
   42.9170   34.1300   38.7510 H   0  0  0  0  0  0  0  0  0  0  0  0
   43.9460   35.3640   42.6320 C   0  0  0  0  0  0  0  0  0  0  0  0
   43.2970   34.6680   41.6100 C   0  0  0  0  0  0  0  0  0  0  0  0
   42.0770   35.1610   41.1270 C   0  0  0  0  0  0  0  0  0  0  0  0
   41.5880   36.3020   41.6860 N   0  0  0  0  0  0  0  0  0  0  0  0
   42.2150   36.9680   42.6690 C   0  0  0  0  0  0  0  0  0  0  0  0
   43.4020   36.4940   43.1430 N   0  0  0  0  0  0  0  0  0  0  0  0
   44.8770   34.9940   43.0040 H   0  0  0  0  0  0  0  0  0  0  0  0
   43.6690   33.7730   41.1630 H   0  0  0  0  0  0  0  0  0  0  0  0
   41.8260   37.8730   43.1110 H   0  0  0  0  0  0  0  0  0  0  0  0
   38.1090   29.8500   39.3620 C   0  0  0  0  0  0  0  0  0  0  0  0
   38.1050   31.2560   39.4850 C   0  0  0  0  0  0  0  0  0  0  0  0
   37.0820   31.7190   40.2660 C   0  0  0  0  0  0  0  0  0  0  0  0
   36.1290   30.9570   40.8900 C   0  0  0  0  0  0  0  0  0  0  0  0
   36.1840   29.5830   40.7330 C   0  0  0  0  0  0  0  0  0  0  0  0
   37.1830   29.0520   39.9630 C   0  0  0  0  0  0  0  0  0  0  0  0
   37.0050   32.7940   40.4120 H   0  0  0  0  0  0  0  0  0  0  0  0
   35.3400   31.3990   41.4990 H   0  0  0  0  0  0  0  0  0  0  0  0
   35.4360   28.9720   41.2220 H   0  0  0  0  0  0  0  0  0  0  0  0
   37.8040   26.8510   40.8350 C   0  0  0  0  0  0  0  0  0  0  0  0
   38.3140   27.4220   41.8680 O   0  0  0  0  0  0  0  0  0  0  0  0
   37.2100   27.6380   39.8240 N   0  0  0  0  0  0  0  0  0  0  0  0
   36.8050   27.1730   39.0010 H   0  0  0  0  0  0  0  0  0  0  0  0
   37.8520   25.4130   40.7370 C   0  0  0  0  0  0  0  0  0  0  0  0
   38.9650   24.6700   40.3740 C   0  0  0  0  0  0  0  0  0  0  0  0
   39.9350   25.0560   40.1200 H   0  0  0  0  0  0  0  0  0  0  0  0
   38.6110   23.3350   40.3980 C   0  0  0  0  0  0  0  0  0  0  0  0
   39.1940   22.4520   40.1780 H   0  0  0  0  0  0  0  0  0  0  0  0
   37.2740   23.3440   40.7810 C   0  0  0  0  0  0  0  0  0  0  0  0
   36.5950   22.4920   40.9250 H   0  0  0  0  0  0  0  0  0  0  0  0
   36.8810   24.5630   40.9640 O   0  0  0  0  0  0  0  0  0  0  0  0
   40.0140   28.8380   37.8800 N   0  0  0  0  0  0  0  0  0  0  0  0
   39.1750   29.2770   38.5420 C   0  0  0  0  0  0  0  0  0  0  0  0
  1  5  1  0  0  0  0
  1 25  1  0  0  0  0
  2  1  1  0  0  0  0
  3  4  1  0  0  0  0
  3 17  1  0  0  0  0
  4  9  1  0  0  0  0
  5 10  1  1  0  0  0
  5  4  1  0  0  0  0
  6  7  1  0  0  0  0
  6  5  1  0  0  0  0
  7  3  1  0  0  0  0
  8  4  1  0  0  0  0
 11  6  1  0  0  0  0
 12  6  1  0  0  0  0
 13  7  1  0  0  0  0
 14  7  1  0  0  0  0
 15 21  1  0  0  0  0
 15 20  1  0  0  0  0
 16 15  2  0  0  0  0
 17 16  1  0  0  0  0
 17 18  2  0  0  0  0
 18 19  1  0  0  0  0
 19 23  1  0  0  0  0
 19 20  2  0  0  0  0
 22 16  1  0  0  0  0
 24 25  2  0  0  0  0
 24 29  1  0  0  0  0
 25 26  1  0  0  0  0
 26 30  1  0  0  0  0
 26 27  2  0  0  0  0
 27 31  1  0  0  0  0
 28 27  1  0  0  0  0
 28 32  1  0  0  0  0
 29 28  2  0  0  0  0
 33 34  2  0  0  0  0
 35 29  1  0  0  0  0
 35 33  1  0  0  0  0
 36 35  1  0  0  0  0
 37 33  1  0  0  0  0
 37 44  1  0  0  0  0
 38 40  1  0  0  0  0
 38 37  2  0  0  0  0
 39 38  1  0  0  0  0
 40 42  2  0  0  0  0
 41 40  1  0  0  0  0
 42 43  1  0  0  0  0
 42 44  1  0  0  0  0
 45 46  3  0  0  0  0
 46 24  1  0  0  0  0
M  END
>  <minimizedAffinity>
-5.85847759

$$$$
