
 OpenBabel03252508463D

 44 46  0  0  0  0  0  0  0  0999 V2000
   43.0200   32.5290   41.6400 C   0  0  0  0  0  0  0  0  0  0  0  0
   43.4640   32.1220   40.6830 H   0  0  0  0  0  0  0  0  0  0  0  0
   42.0570   33.0230   41.3750 H   0  0  0  0  0  0  0  0  0  0  0  0
   43.7110   34.9120   41.9200 C   0  0  0  0  0  0  0  0  0  0  0  0
   43.9140   33.5690   42.2180 C   0  0  0  0  0  0  0  0  0  0  0  0
   44.9530   33.2480   43.0510 C   0  0  0  0  0  0  0  0  0  0  0  0
   45.7610   34.2180   43.5720 C   0  0  0  0  0  0  0  0  0  0  0  0
   45.5770   35.5390   43.2900 C   0  0  0  0  0  0  0  0  0  0  0  0
   44.5170   35.8370   42.4430 C   0  0  0  0  0  0  0  0  0  0  0  0
   45.1010   32.1910   43.2770 H   0  0  0  0  0  0  0  0  0  0  0  0
   46.5880   33.9760   44.2330 H   0  0  0  0  0  0  0  0  0  0  0  0
   46.1660   36.3710   43.6560 H   0  0  0  0  0  0  0  0  0  0  0  0
   44.3110   36.8700   42.1750 H   0  0  0  0  0  0  0  0  0  0  0  0
   40.3180   35.8510   40.5330 C   0  0  0  0  0  0  0  0  0  0  0  0
   41.3310   35.5890   41.4720 C   0  0  0  0  0  0  0  0  0  0  0  0
   42.5880   35.2080   41.0260 C   0  0  0  0  0  0  0  0  0  0  0  0
   42.7710   35.1060   39.6820 N   0  0  0  0  0  0  0  0  0  0  0  0
   41.7870   35.3610   38.7900 C   0  0  0  0  0  0  0  0  0  0  0  0
   40.5720   35.7300   39.2240 N   0  0  0  0  0  0  0  0  0  0  0  0
   39.3400   36.1490   40.8940 H   0  0  0  0  0  0  0  0  0  0  0  0
   41.1720   35.6730   42.5360 H   0  0  0  0  0  0  0  0  0  0  0  0
   42.0340   35.2510   37.7330 H   0  0  0  0  0  0  0  0  0  0  0  0
   42.6990   31.4580   42.5470 N   0  0  0  0  0  0  0  0  0  0  0  0
   42.9460   31.7560   43.5230 H   0  0  0  0  0  0  0  0  0  0  0  0
   41.0170   31.1290   42.5820 S   0  0  0  0  0  0  0  0  0  0  0  0
   40.2170   32.3990   42.5320 O   0  0  0  0  0  0  0  0  0  0  0  0
   39.3830   32.5480   41.9970 H   0  0  0  0  0  0  0  0  0  0  0  0
   40.6550   30.3360   43.7870 O   0  0  0  0  0  0  0  0  0  0  0  0
   40.6750   30.7760   44.6960 H   0  0  0  0  0  0  0  0  0  0  0  0
   40.6660   30.2090   41.2260 O   0  0  0  0  0  0  0  0  0  0  0  0
   39.3130   30.2520   40.9850 C   0  0  0  0  0  0  0  0  0  0  0  0
   38.8760   31.1940   41.3290 H   0  0  0  0  0  0  0  0  0  0  0  0
   38.7250   29.4440   41.4390 H   0  0  0  0  0  0  0  0  0  0  0  0
   39.0690   30.0850   39.4750 C   0  0  0  0  0  0  0  0  0  0  0  0
   39.9250   29.6310   38.9800 H   0  0  0  0  0  0  0  0  0  0  0  0
   38.1920   29.3900   39.3700 H   0  0  0  0  0  0  0  0  0  0  0  0
   38.7070   31.3860   38.8870 C   0  0  0  0  0  0  0  0  0  0  0  0
   38.4590   32.5460   39.5680 C   0  0  0  0  0  0  0  0  0  0  0  0
   38.4850   32.7130   40.6470 H   0  0  0  0  0  0  0  0  0  0  0  0
   38.1580   33.5020   38.5950 C   0  0  0  0  0  0  0  0  0  0  0  0
   37.9200   34.5270   38.8860 H   0  0  0  0  0  0  0  0  0  0  0  0
   38.2460   32.8460   37.3710 C   0  0  0  0  0  0  0  0  0  0  0  0
   38.0350   33.4730   36.5170 H   0  0  0  0  0  0  0  0  0  0  0  0
   38.5720   31.5970   37.5840 O   0  0  0  0  0  0  0  0  0  0  0  0
  1  5  1  0  0  0  0
  1 23  1  0  0  0  0
  2  1  1  0  0  0  0
  3  1  1  0  0  0  0
  4  5  2  0  0  0  0
  4  9  1  0  0  0  0
  5  6  1  0  0  0  0
  6 10  1  0  0  0  0
  6  7  2  0  0  0  0
  7 11  1  0  0  0  0
  8  7  1  0  0  0  0
  8 12  1  0  0  0  0
  9  8  2  0  0  0  0
 13  9  1  0  0  0  0
 14 20  1  0  0  0  0
 14 15  1  0  0  0  0
 15 21  1  0  0  0  0
 16 15  2  0  0  0  0
 16  4  1  0  0  0  0
 17 16  1  0  0  0  0
 18 19  1  0  0  0  0
 18 17  2  0  0  0  0
 19 14  2  0  0  0  0
 22 18  1  0  0  0  0
 23 25  1  0  0  0  0
 23 24  1  0  0  0  0
 25 28  1  0  0  0  0
 26 25  1  0  0  0  0
 27 26  1  0  0  0  0
 28 29  1  0  0  0  0
 30 25  1  0  0  0  0
 31 30  1  0  0  0  0
 31 32  1  0  0  0  0
 31 33  1  0  0  0  0
 34 31  1  0  0  0  0
 35 34  1  0  0  0  0
 36 34  1  0  0  0  0
 37 34  1  0  0  0  0
 37 38  2  0  0  0  0
 38 39  1  0  0  0  0
 40 41  1  0  0  0  0
 40 38  1  0  0  0  0
 42 44  1  0  0  0  0
 42 40  2  0  0  0  0
 43 42  1  0  0  0  0
 44 37  1  0  0  0  0
M  END
>  <minimizedAffinity>
-5.61318588

>  <minimizedRMSD>
2.65010238

$$$$
