
 OpenBabel03252509083D

 40 43  0  0  0  0  0  0  0  0999 V2000
   47.7920   31.8950   39.0210 C   0  0  0  0  0  0  0  0  0  0  0  0
   47.2200   33.1240   38.8960 C   0  0  0  0  0  0  0  0  0  0  0  0
   47.7400   34.0450   38.0000 C   0  0  0  0  0  0  0  0  0  0  0  0
   48.8350   33.7140   37.2380 C   0  0  0  0  0  0  0  0  0  0  0  0
   49.4500   32.4670   37.3330 C   0  0  0  0  0  0  0  0  0  0  0  0
   48.9050   31.5570   38.2460 C   0  0  0  0  0  0  0  0  0  0  0  0
   47.3160   35.0300   37.8710 H   0  0  0  0  0  0  0  0  0  0  0  0
   49.3240   34.3410   36.5120 H   0  0  0  0  0  0  0  0  0  0  0  0
   50.2980   32.1430   36.7750 H   0  0  0  0  0  0  0  0  0  0  0  0
   49.3570   30.5720   38.3510 H   0  0  0  0  0  0  0  0  0  0  0  0
   45.2470   35.3340   43.1250 Cl  0  0  0  0  0  0  0  0  0  0  0  0
   45.1340   34.5720   41.5600 C   0  0  0  0  0  0  0  0  0  0  0  0
   46.2460   34.1860   40.8860 C   0  0  0  0  0  0  0  0  0  0  0  0
   46.0520   33.5710   39.6580 C   0  0  0  0  0  0  0  0  0  0  0  0
   44.7950   33.3610   39.1440 C   0  0  0  0  0  0  0  0  0  0  0  0
   43.6940   33.7550   39.8320 C   0  0  0  0  0  0  0  0  0  0  0  0
   43.8750   34.3630   41.0490 C   0  0  0  0  0  0  0  0  0  0  0  0
   44.7070   32.8800   38.1840 H   0  0  0  0  0  0  0  0  0  0  0  0
   42.7170   33.5760   39.4010 H   0  0  0  0  0  0  0  0  0  0  0  0
   42.9770   34.6690   41.5800 H   0  0  0  0  0  0  0  0  0  0  0  0
   49.5470   35.7660   41.8080 C   0  0  0  0  0  0  0  0  0  0  0  0
   48.2880   35.5530   41.2300 C   0  0  0  0  0  0  0  0  0  0  0  0
   47.5450   34.4160   41.4770 C   0  0  0  0  0  0  0  0  0  0  0  0
   48.1310   33.5280   42.3200 N   0  0  0  0  0  0  0  0  0  0  0  0
   49.3330   33.7230   42.8770 C   0  0  0  0  0  0  0  0  0  0  0  0
   50.0310   34.8330   42.6200 N   0  0  0  0  0  0  0  0  0  0  0  0
   50.0560   36.6880   41.5550 H   0  0  0  0  0  0  0  0  0  0  0  0
   47.8690   36.2940   40.5660 H   0  0  0  0  0  0  0  0  0  0  0  0
   49.6490   32.9150   43.5240 H   0  0  0  0  0  0  0  0  0  0  0  0
   47.1610   30.7400   40.0710 S   0  0  0  0  0  0  0  0  0  0  0  0
   47.5850   29.3340   39.7030 O   0  0  0  0  0  0  0  0  0  0  0  0
   47.9420   30.9930   41.4140 O   0  0  0  0  0  0  0  0  0  0  0  0
   45.5090   30.6480   40.5440 C   0  0  0  0  0  0  0  0  0  0  0  0
   44.5540   30.0760   39.6630 C   0  0  0  0  0  0  0  0  0  0  0  0
   44.7110   29.6500   38.6510 H   0  0  0  0  0  0  0  0  0  0  0  0
   43.2750   30.0690   40.1680 C   0  0  0  0  0  0  0  0  0  0  0  0
   42.3680   29.7120   39.7450 H   0  0  0  0  0  0  0  0  0  0  0  0
   43.4800   30.6520   41.3770 C   0  0  0  0  0  0  0  0  0  0  0  0
   42.7480   30.8750   42.1690 H   0  0  0  0  0  0  0  0  0  0  0  0
   44.7030   30.9470   41.5320 O   0  0  0  0  0  0  0  0  0  0  0  0
  1 30  1  0  0  0  0
  2  1  1  0  0  0  0
  2 14  1  0  0  0  0
  3  2  2  0  0  0  0
  4  5  2  0  0  0  0
  4  3  1  0  0  0  0
  5  6  1  0  0  0  0
  6 10  1  0  0  0  0
  6  1  2  0  0  0  0
  7  3  1  0  0  0  0
  8  4  1  0  0  0  0
  9  5  1  0  0  0  0
 12 11  1  0  0  0  0
 13 23  1  0  0  0  0
 13 12  2  0  0  0  0
 14 13  1  0  0  0  0
 15 14  2  0  0  0  0
 15 16  1  0  0  0  0
 16 17  2  0  0  0  0
 17 12  1  0  0  0  0
 17 20  1  0  0  0  0
 18 15  1  0  0  0  0
 19 16  1  0  0  0  0
 21 26  1  0  0  0  0
 22 23  1  0  0  0  0
 22 21  2  0  0  0  0
 23 24  2  0  0  0  0
 24 25  1  0  0  0  0
 25 29  1  0  0  0  0
 26 25  2  0  0  0  0
 27 21  1  0  0  0  0
 28 22  1  0  0  0  0
 30 33  1  0  0  0  0
 30 32  2  0  0  0  0
 31 30  2  0  0  0  0
 33 40  1  0  0  0  0
 34 36  1  0  0  0  0
 34 33  2  0  0  0  0
 35 34  1  0  0  0  0
 36 38  2  0  0  0  0
 37 36  1  0  0  0  0
 38 40  1  0  0  0  0
 38 39  1  0  0  0  0
M  END
>  <minimizedAffinity>
-4.54903412

>  <minimizedRMSD>
0.876457989

$$$$
