
     RDKit          3D

 38 41  0  0  0  0  0  0  0  0999 V2000
   45.2140   36.1589   43.4532 C   0  0  0  0  0  0  0  0  0  0  0  0
   45.8654   34.9522   43.1358 C   0  0  0  0  0  0  0  0  0  0  0  0
   45.8093   33.9922   44.1313 C   0  0  0  0  0  0  0  0  0  0  0  0
   45.1946   34.1742   45.3007 N   0  0  0  0  0  0  0  0  0  0  0  0
   44.5779   35.3721   45.5506 C   0  0  0  0  0  0  0  0  0  0  0  0
   44.5967   36.3399   44.6294 N   0  0  0  0  0  0  0  0  0  0  0  0
   46.4499   32.7395   43.8862 C   0  0  0  0  0  0  0  0  0  0  0  0
   47.7126   32.2558   43.9825 C   0  0  0  0  0  0  0  0  0  0  0  0
   48.0357   31.0206   43.6833 C   0  0  0  0  0  0  0  0  0  0  0  0
   47.0294   30.2402   43.2667 C   0  0  0  0  0  0  0  0  0  0  0  0
   45.5581   31.3064   43.3010 S   0  0  0  0  0  0  0  0  0  0  0  0
   46.5117   34.7991   41.8712 C   0  0  0  0  0  0  0  0  0  0  0  0
   47.6891   35.2394   41.8050 O   0  0  0  0  0  0  0  0  0  0  0  0
   45.7748   34.1433   40.7298 C   0  0  0  0  0  0  0  0  0  0  0  0
   44.4233   34.1302   40.5418 C   0  0  0  0  0  0  0  0  0  0  0  0
   44.2328   33.4313   39.3989 N   0  0  0  0  0  0  0  0  0  0  0  0
   45.4058   33.0427   38.9213 C   0  0  0  0  0  0  0  0  0  0  0  0
   46.3718   33.4837   39.7471 N   0  0  0  0  0  0  0  0  0  0  0  0
   45.7304   32.2922   37.7594 N   0  0  0  0  0  0  0  0  0  0  0  0
   42.9658   33.1209   38.7448 C   0  0  0  0  0  0  0  0  0  0  0  0
   45.1905   36.9876   42.7504 H   0  0  0  0  0  0  0  0  0  0  0  0
   44.0710   35.5420   46.4971 H   0  0  0  0  0  0  0  0  0  0  0  0
   48.4385   33.0160   44.3404 H   0  0  0  0  0  0  0  0  0  0  0  0
   49.0249   30.5833   43.7417 H   0  0  0  0  0  0  0  0  0  0  0  0
   47.0507   29.1218   42.9448 H   0  0  0  0  0  0  0  0  0  0  0  0
   43.6633   34.5676   41.1485 H   0  0  0  0  0  0  0  0  0  0  0  0
   46.6251   32.3979   37.2419 H   0  0  0  0  0  0  0  0  0  0  0  0
   45.0829   31.5821   37.3512 H   0  0  0  0  0  0  0  0  0  0  0  0
   43.1061   33.0372   37.6545 H   0  0  0  0  0  0  0  0  0  0  0  0
   42.2892   33.9744   38.9566 H   0  0  0  0  0  0  0  0  0  0  0  0
   42.3985   31.8458   39.2208 C   0  0  0  0  0  0  0  0  0  0  0  0
   41.0981   31.4171   39.3386 C   0  0  0  0  0  0  0  0  0  0  0  0
   40.2417   31.9946   39.0807 H   0  0  0  0  0  0  0  0  0  0  0  0
   41.1341   30.1418   39.8377 C   0  0  0  0  0  0  0  0  0  0  0  0
   40.2369   29.5594   40.0308 H   0  0  0  0  0  0  0  0  0  0  0  0
   42.4640   29.8265   40.0112 C   0  0  0  0  0  0  0  0  0  0  0  0
   42.8162   28.8854   40.3919 H   0  0  0  0  0  0  0  0  0  0  0  0
   43.1852   30.8553   39.6373 O   0  0  0  0  0  0  0  0  0  0  0  0
  1  6  2  0
  2  1  1  0
  2  3  2  0
  3  4  1  0
  4  5  2  0
  6  5  1  0
  7  8  2  0
  7  3  1  0
  9  8  1  0
 10 11  1  0
 10  9  2  0
 11  7  1  0
 12  2  1  0
 13 12  2  0
 14 12  1  0
 15 14  2  0
 16 15  1  0
 17 16  1  0
 17 18  2  0
 18 14  1  0
 19 17  1  0
 20 16  1  0
  1 21  1  0
  5 22  1  0
  8 23  1  0
  9 24  1  0
 10 25  1  0
 15 26  1  0
 19 27  1  0
 19 28  1  0
 20 29  1  0
 20 30  1  0
 31 32  2  0
 32 33  1  0
 32 34  1  0
 34 35  1  0
 34 36  2  0
 36 37  1  0
 36 38  1  0
 38 31  1  0
 20 31  1  0
M  ISO  8  21  14  22  14  23  14  24  14  25  14  26  14  29   8  30   8
M  ISO  3  33  16  35  16  37  14
M  END
>  <DihAtoms>  (1) 
15,19,30,31

>  <DihDeg>  (1) 
-89.99865439923838

$$$$
