
 OpenBabel03252503343D

 21 22  0  0  0  0  0  0  0  0999 V2000
   46.2240   34.0150   40.8230 C   0  0  0  0  0  0  0  0  0  0  0  0
   45.1240   33.4470   41.0580 O   0  0  0  0  0  0  0  0  0  0  0  0
   46.7500   34.7920   41.8890 N   0  0  0  0  0  0  0  0  0  0  0  0
   47.6800   35.2780   41.7460 H   0  0  0  0  0  0  0  0  0  0  0  0
   44.5070   36.0240   44.6070 C   0  0  0  0  0  0  0  0  0  0  0  0
   45.1610   35.9680   43.3620 C   0  0  0  0  0  0  0  0  0  0  0  0
   46.0490   34.9190   43.1230 C   0  0  0  0  0  0  0  0  0  0  0  0
   46.2510   33.9880   44.0970 N   0  0  0  0  0  0  0  0  0  0  0  0
   45.5930   34.0800   45.2970 C   0  0  0  0  0  0  0  0  0  0  0  0
   44.7410   35.0830   45.5330 N   0  0  0  0  0  0  0  0  0  0  0  0
   43.8420   36.8810   44.6830 H   0  0  0  0  0  0  0  0  0  0  0  0
   45.0060   36.7040   42.5820 H   0  0  0  0  0  0  0  0  0  0  0  0
   45.7780   33.3180   46.0550 H   0  0  0  0  0  0  0  0  0  0  0  0
   46.9000   33.8760   39.5370 C   0  0  0  0  0  0  0  0  0  0  0  0
   48.1430   34.4110   39.2800 C   0  0  0  0  0  0  0  0  0  0  0  0
   48.8360   34.9860   39.8730 H   0  0  0  0  0  0  0  0  0  0  0  0
   48.4080   34.0510   37.9610 C   0  0  0  0  0  0  0  0  0  0  0  0
   49.2640   34.2420   37.3090 H   0  0  0  0  0  0  0  0  0  0  0  0
   47.3100   33.3180   37.4960 C   0  0  0  0  0  0  0  0  0  0  0  0
   47.1010   32.8480   36.5260 H   0  0  0  0  0  0  0  0  0  0  0  0
   46.4460   33.2560   38.4970 O   0  0  0  0  0  0  0  0  0  0  0  0
  1  2  2  0  0  0  0
  1  3  1  0  0  0  0
  3  7  1  0  0  0  0
  4  3  1  0  0  0  0
  5 11  1  0  0  0  0
  5 10  1  0  0  0  0
  6  5  2  0  0  0  0
  7  6  1  0  0  0  0
  7  8  2  0  0  0  0
  8  9  1  0  0  0  0
  9 10  2  0  0  0  0
  9 13  1  0  0  0  0
 12  6  1  0  0  0  0
 14  1  1  0  0  0  0
 15 14  2  0  0  0  0
 15 16  1  0  0  0  0
 17 15  1  0  0  0  0
 18 17  1  0  0  0  0
 19 17  2  0  0  0  0
 19 21  1  0  0  0  0
 20 19  1  0  0  0  0
 21 14  1  0  0  0  0
M  END
>  <minimizedAffinity>
-4.26663017

>  <minimizedRMSD>
0.250987828

$$$$
