
 OpenBabel03252505403D

 27 29  0  0  1  0  0  0  0  0999 V2000
   45.0160   33.8530   43.5380 C   0  0  1  0  0  0  0  0  0  0  0  0
   45.2860   35.3160   43.9180 C   0  0  0  0  0  0  0  0  0  0  0  0
   45.7650   34.7230   42.6350 C   0  0  1  0  0  0  0  0  0  0  0  0
   43.9570   33.6040   43.3040 H   0  0  0  0  0  0  0  0  0  0  0  0
   45.9640   35.4760   44.7690 H   0  0  0  0  0  0  0  0  0  0  0  0
   44.3750   35.9460   43.9320 H   0  0  0  0  0  0  0  0  0  0  0  0
   45.2030   35.0950   41.7260 H   0  0  0  0  0  0  0  0  0  0  0  0
   45.6430   32.8490   44.4210 C   0  0  0  0  0  0  0  0  0  0  0  0
   46.0590   31.6420   43.8020 C   0  0  0  0  0  0  0  0  0  0  0  0
   46.6680   30.6890   44.6010 C   0  0  0  0  0  0  0  0  0  0  0  0
   46.8300   30.9700   45.9320 N   0  0  0  0  0  0  0  0  0  0  0  0
   46.4190   32.1280   46.4740 C   0  0  0  0  0  0  0  0  0  0  0  0
   45.8260   33.0610   45.7100 N   0  0  0  0  0  0  0  0  0  0  0  0
   45.9450   31.3730   42.7600 H   0  0  0  0  0  0  0  0  0  0  0  0
   47.0040   29.7560   44.1840 H   0  0  0  0  0  0  0  0  0  0  0  0
   46.6920   32.2320   47.9430 C   0  0  0  0  0  0  0  0  0  0  0  0
   45.6730   32.8660   48.6080 F   0  0  0  0  0  0  0  0  0  0  0  0
   47.8780   32.9360   48.1590 F   0  0  0  0  0  0  0  0  0  0  0  0
   46.9130   30.9530   48.4490 F   0  0  0  0  0  0  0  0  0  0  0  0
   47.2510   34.7630   42.5390 C   0  0  0  0  0  0  0  0  0  0  0  0
   47.8450   35.3560   41.4430 C   0  0  0  0  0  0  0  0  0  0  0  0
   47.4210   35.8440   40.5520 H   0  0  0  0  0  0  0  0  0  0  0  0
   49.2210   35.2650   41.5900 C   0  0  0  0  0  0  0  0  0  0  0  0
   50.0380   35.6020   40.9610 H   0  0  0  0  0  0  0  0  0  0  0  0
   49.3890   34.6160   42.7810 C   0  0  0  0  0  0  0  0  0  0  0  0
   50.3470   34.3700   43.2180 H   0  0  0  0  0  0  0  0  0  0  0  0
   48.2350   34.3450   43.2920 O   0  0  0  0  0  0  0  0  0  0  0  0
  1  4  1  6  0  0  0
  1  2  1  0  0  0  0
  1  8  1  0  0  0  0
  2  6  1  0  0  0  0
  2  5  1  0  0  0  0
  3  7  1  6  0  0  0
  3  1  1  0  0  0  0
  3  2  1  0  0  0  0
  8 13  1  0  0  0  0
  9  8  2  0  0  0  0
  9 10  1  0  0  0  0
 10 11  2  0  0  0  0
 11 12  1  0  0  0  0
 12 16  1  0  0  0  0
 13 12  2  0  0  0  0
 14  9  1  0  0  0  0
 15 10  1  0  0  0  0
 16 18  1  0  0  0  0
 16 19  1  0  0  0  0
 16 17  1  0  0  0  0
 20  3  1  0  0  0  0
 20 27  1  0  0  0  0
 21 23  1  0  0  0  0
 21 20  2  0  0  0  0
 22 21  1  0  0  0  0
 23 25  2  0  0  0  0
 24 23  1  0  0  0  0
 25 26  1  0  0  0  0
 25 27  1  0  0  0  0
M  END
>  <minimizedAffinity>
-4.91938162

>  <minimizedRMSD>
1.58216655

$$$$
