
 OpenBabel03242514243D

 33 36  0  0  0  0  0  0  0  0999 V2000
   40.8460   30.4780   40.6970 Cl  0  0  0  0  0  0  0  0  0  0  0  0
   39.3200   31.2860   40.3900 C   0  0  0  0  0  0  0  0  0  0  0  0
   39.2910   32.4350   39.6540 C   0  0  0  0  0  0  0  0  0  0  0  0
   38.0860   33.0870   39.4020 C   0  0  0  0  0  0  0  0  0  0  0  0
   36.9570   32.5230   39.9250 C   0  0  0  0  0  0  0  0  0  0  0  0
   36.9900   31.3630   40.6690 C   0  0  0  0  0  0  0  0  0  0  0  0
   38.1770   30.7360   40.9070 C   0  0  0  0  0  0  0  0  0  0  0  0
   38.0320   33.9930   38.8240 H   0  0  0  0  0  0  0  0  0  0  0  0
   35.9560   32.9440   39.7920 H   0  0  0  0  0  0  0  0  0  0  0  0
   36.0950   30.9050   41.0900 H   0  0  0  0  0  0  0  0  0  0  0  0
   42.4270   34.3480   39.3760 C   0  0  0  0  0  0  0  0  0  0  0  0
   42.8620   34.0150   38.0860 C   0  0  0  0  0  0  0  0  0  0  0  0
   42.0880   33.1490   37.3270 C   0  0  0  0  0  0  0  0  0  0  0  0
   40.9500   32.6660   37.8710 N   0  0  0  0  0  0  0  0  0  0  0  0
   40.5360   32.9920   39.1180 C   0  0  0  0  0  0  0  0  0  0  0  0
   41.2770   33.8380   39.8800 N   0  0  0  0  0  0  0  0  0  0  0  0
   43.0500   35.0310   39.9560 H   0  0  0  0  0  0  0  0  0  0  0  0
   43.7530   34.3770   37.6270 H   0  0  0  0  0  0  0  0  0  0  0  0
   42.2720   32.7970   36.3380 H   0  0  0  0  0  0  0  0  0  0  0  0
   38.2490   29.5070   41.6890 C   0  0  0  0  0  0  0  0  0  0  0  0
   38.3610   29.3910   43.0180 N   0  0  0  0  0  0  0  0  0  0  0  0
   38.3950   28.0870   43.3450 C   0  0  0  0  0  0  0  0  0  0  0  0
   38.3040   27.3670   42.2050 N   0  0  0  0  0  0  0  0  0  0  0  0
   38.2150   28.2480   41.1950 N   0  0  0  0  0  0  0  0  0  0  0  0
   38.4760   27.5850   44.2860 H   0  0  0  0  0  0  0  0  0  0  0  0
   38.2870   25.9720   41.9170 C   0  0  0  0  0  0  0  0  0  0  0  0
   37.0780   25.2950   42.1160 C   0  0  0  0  0  0  0  0  0  0  0  0
   36.0960   25.6010   42.4570 H   0  0  0  0  0  0  0  0  0  0  0  0
   37.3140   23.9670   41.7700 C   0  0  0  0  0  0  0  0  0  0  0  0
   36.7120   23.0600   41.7490 H   0  0  0  0  0  0  0  0  0  0  0  0
   38.6570   23.9190   41.3810 C   0  0  0  0  0  0  0  0  0  0  0  0
   39.3190   23.1300   41.0290 H   0  0  0  0  0  0  0  0  0  0  0  0
   39.1900   25.1250   41.4850 O   0  0  0  0  0  0  0  0  0  0  0  0
  2  1  1  0  0  0  0
  2  7  1  0  0  0  0
  3  2  2  0  0  0  0
  4  3  1  0  0  0  0
  4  5  2  0  0  0  0
  5  6  1  0  0  0  0
  6  7  2  0  0  0  0
  6 10  1  0  0  0  0
  7 20  1  0  0  0  0
  8  4  1  0  0  0  0
  9  5  1  0  0  0  0
 11 16  1  0  0  0  0
 11 17  1  0  0  0  0
 12 11  2  0  0  0  0
 13 14  2  0  0  0  0
 13 12  1  0  0  0  0
 14 15  1  0  0  0  0
 15  3  1  0  0  0  0
 15 16  2  0  0  0  0
 18 12  1  0  0  0  0
 19 13  1  0  0  0  0
 20 21  1  0  0  0  0
 21 22  2  0  0  0  0
 22 25  1  0  0  0  0
 23 22  1  0  0  0  0
 24 20  2  0  0  0  0
 24 23  1  0  0  0  0
 26 27  2  0  0  0  0
 26 23  1  0  0  0  0
 27 28  1  0  0  0  0
 29 27  1  0  0  0  0
 30 29  1  0  0  0  0
 31 33  1  0  0  0  0
 31 29  2  0  0  0  0
 32 31  1  0  0  0  0
 33 26  1  0  0  0  0
M  END
>  <minimizedAffinity>
-5.61353922

$$$$

 OpenBabel03242514243D

 33 36  0  0  0  0  0  0  0  0999 V2000
   37.3550   31.2640   37.0690 Cl  0  0  0  0  0  0  0  0  0  0  0  0
   36.5810   30.5590   38.4760 C   0  0  0  0  0  0  0  0  0  0  0  0
   35.7720   29.4690   38.3370 C   0  0  0  0  0  0  0  0  0  0  0  0
   35.1510   28.8980   39.4460 C   0  0  0  0  0  0  0  0  0  0  0  0
   35.3940   29.4810   40.6580 C   0  0  0  0  0  0  0  0  0  0  0  0
   36.2120   30.5820   40.7950 C   0  0  0  0  0  0  0  0  0  0  0  0
   36.8130   31.1290   39.7000 C   0  0  0  0  0  0  0  0  0  0  0  0
   34.5090   28.0390   39.3670 H   0  0  0  0  0  0  0  0  0  0  0  0
   34.9640   29.1200   41.5960 H   0  0  0  0  0  0  0  0  0  0  0  0
   36.4120   31.0530   41.7570 H   0  0  0  0  0  0  0  0  0  0  0  0
   36.2180   27.4500   35.2870 C   0  0  0  0  0  0  0  0  0  0  0  0
   35.1020   27.8190   34.5240 C   0  0  0  0  0  0  0  0  0  0  0  0
   34.2130   28.7460   35.0510 C   0  0  0  0  0  0  0  0  0  0  0  0
   34.4690   29.2490   36.2790 N   0  0  0  0  0  0  0  0  0  0  0  0
   35.5500   28.8880   37.0100 C   0  0  0  0  0  0  0  0  0  0  0  0
   36.4320   27.9820   36.5150 N   0  0  0  0  0  0  0  0  0  0  0  0
   36.9040   26.7200   34.8550 H   0  0  0  0  0  0  0  0  0  0  0  0
   34.8710   27.4430   33.5540 H   0  0  0  0  0  0  0  0  0  0  0  0
   33.3250   29.1320   34.6070 H   0  0  0  0  0  0  0  0  0  0  0  0
   37.6840   32.2930   39.8080 C   0  0  0  0  0  0  0  0  0  0  0  0
   37.3230   33.5810   39.8730 N   0  0  0  0  0  0  0  0  0  0  0  0
   38.4250   34.3450   39.9660 C   0  0  0  0  0  0  0  0  0  0  0  0
   39.5020   33.5280   39.9590 N   0  0  0  0  0  0  0  0  0  0  0  0
   39.0360   32.2720   39.8630 N   0  0  0  0  0  0  0  0  0  0  0  0
   38.5610   35.4030   40.0370 H   0  0  0  0  0  0  0  0  0  0  0  0
   40.9080   33.7460   40.0320 C   0  0  0  0  0  0  0  0  0  0  0  0
   41.6160   33.7430   38.8250 C   0  0  0  0  0  0  0  0  0  0  0  0
   41.3300   33.6040   37.7890 H   0  0  0  0  0  0  0  0  0  0  0  0
   42.9490   33.9750   39.1550 C   0  0  0  0  0  0  0  0  0  0  0  0
   43.8760   34.0630   38.5910 H   0  0  0  0  0  0  0  0  0  0  0  0
   42.9680   34.1050   40.5480 C   0  0  0  0  0  0  0  0  0  0  0  0
   43.7480   34.2910   41.2830 H   0  0  0  0  0  0  0  0  0  0  0  0
   41.7410   33.9640   41.0210 O   0  0  0  0  0  0  0  0  0  0  0  0
  1  2  1  0  0  0  0
  2  7  1  0  0  0  0
  3  2  2  0  0  0  0
  3  4  1  0  0  0  0
  4  5  2  0  0  0  0
  5  6  1  0  0  0  0
  5  9  1  0  0  0  0
  6 10  1  0  0  0  0
  7 20  1  0  0  0  0
  7  6  2  0  0  0  0
  8  4  1  0  0  0  0
 11 16  1  0  0  0  0
 12 13  1  0  0  0  0
 12 11  2  0  0  0  0
 13 14  2  0  0  0  0
 14 15  1  0  0  0  0
 15  3  1  0  0  0  0
 16 15  2  0  0  0  0
 17 11  1  0  0  0  0
 18 12  1  0  0  0  0
 19 13  1  0  0  0  0
 20 24  2  0  0  0  0
 20 21  1  0  0  0  0
 21 22  2  0  0  0  0
 22 25  1  0  0  0  0
 23 22  1  0  0  0  0
 23 26  1  0  0  0  0
 24 23  1  0  0  0  0
 26 33  1  0  0  0  0
 27 29  1  0  0  0  0
 27 26  2  0  0  0  0
 28 27  1  0  0  0  0
 29 31  2  0  0  0  0
 30 29  1  0  0  0  0
 31 33  1  0  0  0  0
 31 32  1  0  0  0  0
M  END
>  <minimizedAffinity>
-5.36556578

$$$$

 OpenBabel03242514243D

 33 36  0  0  0  0  0  0  0  0999 V2000
   37.8820   27.6160   39.2380 Cl  0  0  0  0  0  0  0  0  0  0  0  0
   37.6100   27.7740   40.9640 C   0  0  0  0  0  0  0  0  0  0  0  0
   37.4630   26.6590   41.7370 C   0  0  0  0  0  0  0  0  0  0  0  0
   37.2470   26.7690   43.1090 C   0  0  0  0  0  0  0  0  0  0  0  0
   37.1920   28.0330   43.6260 C   0  0  0  0  0  0  0  0  0  0  0  0
   37.3410   29.1570   42.8420 C   0  0  0  0  0  0  0  0  0  0  0  0
   37.5520   29.0330   41.5000 C   0  0  0  0  0  0  0  0  0  0  0  0
   37.1280   25.9090   43.7430 H   0  0  0  0  0  0  0  0  0  0  0  0
   37.0280   28.2420   44.6870 H   0  0  0  0  0  0  0  0  0  0  0  0
   37.2980   30.1680   43.2450 H   0  0  0  0  0  0  0  0  0  0  0  0
   36.4740   23.5140   40.0910 C   0  0  0  0  0  0  0  0  0  0  0  0
   37.6990   22.8420   39.9820 C   0  0  0  0  0  0  0  0  0  0  0  0
   38.8430   23.4600   40.4660 C   0  0  0  0  0  0  0  0  0  0  0  0
   38.7190   24.6860   41.0220 N   0  0  0  0  0  0  0  0  0  0  0  0
   37.5320   25.3300   41.1240 C   0  0  0  0  0  0  0  0  0  0  0  0
   36.4000   24.7440   40.6560 N   0  0  0  0  0  0  0  0  0  0  0  0
   35.5870   23.0110   39.7040 H   0  0  0  0  0  0  0  0  0  0  0  0
   37.8310   21.8760   39.5500 H   0  0  0  0  0  0  0  0  0  0  0  0
   39.8420   23.0910   40.4620 H   0  0  0  0  0  0  0  0  0  0  0  0
   37.7140   30.2000   40.6410 C   0  0  0  0  0  0  0  0  0  0  0  0
   36.7570   30.8790   39.9970 N   0  0  0  0  0  0  0  0  0  0  0  0
   37.3190   31.8900   39.3110 C   0  0  0  0  0  0  0  0  0  0  0  0
   38.6530   31.8490   39.5240 N   0  0  0  0  0  0  0  0  0  0  0  0
   38.8840   30.8090   40.3410 N   0  0  0  0  0  0  0  0  0  0  0  0
   36.9040   32.6480   38.6820 H   0  0  0  0  0  0  0  0  0  0  0  0
   39.7490   32.6410   39.0760 C   0  0  0  0  0  0  0  0  0  0  0  0
   40.1000   33.7440   39.8620 C   0  0  0  0  0  0  0  0  0  0  0  0
   39.7120   34.1620   40.7830 H   0  0  0  0  0  0  0  0  0  0  0  0
   41.1820   34.3480   39.2250 C   0  0  0  0  0  0  0  0  0  0  0  0
   41.8060   35.2160   39.4270 H   0  0  0  0  0  0  0  0  0  0  0  0
   41.4220   33.5700   38.0860 C   0  0  0  0  0  0  0  0  0  0  0  0
   42.1430   33.6160   37.2730 H   0  0  0  0  0  0  0  0  0  0  0  0
   40.5520   32.5750   38.0410 O   0  0  0  0  0  0  0  0  0  0  0  0
  1  2  1  0  0  0  0
  2  7  2  0  0  0  0
  2  3  1  0  0  0  0
  3  4  2  0  0  0  0
  4  5  1  0  0  0  0
  4  8  1  0  0  0  0
  5  9  1  0  0  0  0
  6 10  1  0  0  0  0
  6  5  2  0  0  0  0
  7  6  1  0  0  0  0
 11 16  1  0  0  0  0
 12 11  2  0  0  0  0
 12 13  1  0  0  0  0
 13 14  2  0  0  0  0
 14 15  1  0  0  0  0
 15  3  1  0  0  0  0
 16 15  2  0  0  0  0
 17 11  1  0  0  0  0
 18 12  1  0  0  0  0
 19 13  1  0  0  0  0
 20  7  1  0  0  0  0
 21 20  1  0  0  0  0
 22 23  1  0  0  0  0
 22 21  2  0  0  0  0
 23 24  1  0  0  0  0
 24 20  2  0  0  0  0
 25 22  1  0  0  0  0
 26 23  1  0  0  0  0
 26 27  2  0  0  0  0
 27 28  1  0  0  0  0
 29 30  1  0  0  0  0
 29 27  1  0  0  0  0
 31 29  2  0  0  0  0
 32 31  1  0  0  0  0
 33 31  1  0  0  0  0
 33 26  1  0  0  0  0
M  END
>  <minimizedAffinity>
-5.3614049

$$$$

 OpenBabel03242514243D

 33 36  0  0  0  0  0  0  0  0999 V2000
   39.7330   27.1290   40.5020 Cl  0  0  0  0  0  0  0  0  0  0  0  0
   38.5240   27.3680   41.7500 C   0  0  0  0  0  0  0  0  0  0  0  0
   37.5420   26.4380   41.9360 C   0  0  0  0  0  0  0  0  0  0  0  0
   36.5750   26.6140   42.9240 C   0  0  0  0  0  0  0  0  0  0  0  0
   36.6640   27.7490   43.6800 C   0  0  0  0  0  0  0  0  0  0  0  0
   37.6570   28.6860   43.4890 C   0  0  0  0  0  0  0  0  0  0  0  0
   38.5960   28.4990   42.5180 C   0  0  0  0  0  0  0  0  0  0  0  0
   35.7910   25.8990   43.0940 H   0  0  0  0  0  0  0  0  0  0  0  0
   35.9630   27.9940   44.4830 H   0  0  0  0  0  0  0  0  0  0  0  0
   37.7360   29.5930   44.0870 H   0  0  0  0  0  0  0  0  0  0  0  0
   38.1460   23.0290   40.6750 C   0  0  0  0  0  0  0  0  0  0  0  0
   37.3950   23.0150   39.4920 C   0  0  0  0  0  0  0  0  0  0  0  0
   36.6950   24.1590   39.1370 C   0  0  0  0  0  0  0  0  0  0  0  0
   36.7710   25.2340   39.9520 N   0  0  0  0  0  0  0  0  0  0  0  0
   37.4990   25.2400   41.0930 C   0  0  0  0  0  0  0  0  0  0  0  0
   38.1930   24.1330   41.4620 N   0  0  0  0  0  0  0  0  0  0  0  0
   38.6900   22.1200   40.9370 H   0  0  0  0  0  0  0  0  0  0  0  0
   37.3130   22.1860   38.8280 H   0  0  0  0  0  0  0  0  0  0  0  0
   36.0820   24.3160   38.2790 H   0  0  0  0  0  0  0  0  0  0  0  0
   39.6610   29.4690   42.2880 C   0  0  0  0  0  0  0  0  0  0  0  0
   40.9250   29.4130   42.7250 N   0  0  0  0  0  0  0  0  0  0  0  0
   41.5880   30.5010   42.2980 C   0  0  0  0  0  0  0  0  0  0  0  0
   40.7290   31.2600   41.5810 N   0  0  0  0  0  0  0  0  0  0  0  0
   39.5500   30.6170   41.5810 N   0  0  0  0  0  0  0  0  0  0  0  0
   42.5990   30.8250   42.4310 H   0  0  0  0  0  0  0  0  0  0  0  0
   40.8470   32.5010   40.8910 C   0  0  0  0  0  0  0  0  0  0  0  0
   42.0640   33.1810   41.0070 C   0  0  0  0  0  0  0  0  0  0  0  0
   42.9910   32.9740   41.5290 H   0  0  0  0  0  0  0  0  0  0  0  0
   41.9330   34.3460   40.2550 C   0  0  0  0  0  0  0  0  0  0  0  0
   42.5800   35.1910   40.0280 H   0  0  0  0  0  0  0  0  0  0  0  0
   40.6390   34.3010   39.7260 C   0  0  0  0  0  0  0  0  0  0  0  0
   40.0570   34.9580   39.0820 H   0  0  0  0  0  0  0  0  0  0  0  0
   40.0370   33.1940   40.1280 O   0  0  0  0  0  0  0  0  0  0  0  0
  1  2  1  0  0  0  0
  2  3  2  0  0  0  0
  2  7  1  0  0  0  0
  3  4  1  0  0  0  0
  4  8  1  0  0  0  0
  4  5  2  0  0  0  0
  5  9  1  0  0  0  0
  6  5  1  0  0  0  0
  6 10  1  0  0  0  0
  7  6  2  0  0  0  0
 11 17  1  0  0  0  0
 11 16  1  0  0  0  0
 12 11  2  0  0  0  0
 13 12  1  0  0  0  0
 13 14  2  0  0  0  0
 14 15  1  0  0  0  0
 15 16  2  0  0  0  0
 15  3  1  0  0  0  0
 18 12  1  0  0  0  0
 19 13  1  0  0  0  0
 20  7  1  0  0  0  0
 20 21  1  0  0  0  0
 22 25  1  0  0  0  0
 22 21  2  0  0  0  0
 23 22  1  0  0  0  0
 24 23  1  0  0  0  0
 24 20  2  0  0  0  0
 26 27  2  0  0  0  0
 26 23  1  0  0  0  0
 27 28  1  0  0  0  0
 29 27  1  0  0  0  0
 30 29  1  0  0  0  0
 31 33  1  0  0  0  0
 31 29  2  0  0  0  0
 32 31  1  0  0  0  0
 33 26  1  0  0  0  0
M  END
>  <minimizedAffinity>
-5.27599859

$$$$

 OpenBabel03242514243D

 33 36  0  0  0  0  0  0  0  0999 V2000
   36.7120   26.5660   38.5820 Cl  0  0  0  0  0  0  0  0  0  0  0  0
   36.5860   27.9440   39.6600 C   0  0  0  0  0  0  0  0  0  0  0  0
   37.0790   27.8660   40.9300 C   0  0  0  0  0  0  0  0  0  0  0  0
   36.9860   28.9530   41.7970 C   0  0  0  0  0  0  0  0  0  0  0  0
   36.3850   30.0800   41.3110 C   0  0  0  0  0  0  0  0  0  0  0  0
   35.8890   30.1560   40.0270 C   0  0  0  0  0  0  0  0  0  0  0  0
   35.9870   29.0830   39.1910 C   0  0  0  0  0  0  0  0  0  0  0  0
   37.3650   28.9200   42.8020 H   0  0  0  0  0  0  0  0  0  0  0  0
   36.2560   30.9940   41.8980 H   0  0  0  0  0  0  0  0  0  0  0  0
   35.4080   31.0500   39.6320 H   0  0  0  0  0  0  0  0  0  0  0  0
   37.5380   24.4400   42.2080 C   0  0  0  0  0  0  0  0  0  0  0  0
   38.9340   24.3280   42.2540 C   0  0  0  0  0  0  0  0  0  0  0  0
   39.7010   25.4120   41.8520 C   0  0  0  0  0  0  0  0  0  0  0  0
   39.0630   26.5270   41.4350 N   0  0  0  0  0  0  0  0  0  0  0  0
   37.7130   26.6290   41.3930 C   0  0  0  0  0  0  0  0  0  0  0  0
   36.9420   25.5810   41.7810 N   0  0  0  0  0  0  0  0  0  0  0  0
   36.9530   23.5770   42.5280 H   0  0  0  0  0  0  0  0  0  0  0  0
   39.4690   23.4650   42.5770 H   0  0  0  0  0  0  0  0  0  0  0  0
   40.7640   25.4930   41.8260 H   0  0  0  0  0  0  0  0  0  0  0  0
   35.4730   29.1280   37.8270 C   0  0  0  0  0  0  0  0  0  0  0  0
   34.2360   28.8310   37.4100 N   0  0  0  0  0  0  0  0  0  0  0  0
   34.1670   29.0000   36.0780 C   0  0  0  0  0  0  0  0  0  0  0  0
   35.3800   29.4090   35.6450 N   0  0  0  0  0  0  0  0  0  0  0  0
   36.1740   29.4850   36.7260 N   0  0  0  0  0  0  0  0  0  0  0  0
   33.3690   28.8690   35.3780 H   0  0  0  0  0  0  0  0  0  0  0  0
   35.9110   29.7430   34.3660 C   0  0  0  0  0  0  0  0  0  0  0  0
   35.9750   31.1010   34.0380 C   0  0  0  0  0  0  0  0  0  0  0  0
   35.6990   32.0110   34.5580 H   0  0  0  0  0  0  0  0  0  0  0  0
   36.5210   31.1680   32.7580 C   0  0  0  0  0  0  0  0  0  0  0  0
   36.7710   31.9730   32.0700 H   0  0  0  0  0  0  0  0  0  0  0  0
   36.7560   29.8390   32.3860 C   0  0  0  0  0  0  0  0  0  0  0  0
   37.1640   29.3590   31.5000 H   0  0  0  0  0  0  0  0  0  0  0  0
   36.3800   29.0350   33.3670 O   0  0  0  0  0  0  0  0  0  0  0  0
  1  2  1  0  0  0  0
  2  3  1  0  0  0  0
  3 15  1  0  0  0  0
  3  4  2  0  0  0  0
  4  8  1  0  0  0  0
  5  4  1  0  0  0  0
  5  9  1  0  0  0  0
  6  5  2  0  0  0  0
  7  2  2  0  0  0  0
  7  6  1  0  0  0  0
 10  6  1  0  0  0  0
 11 12  1  0  0  0  0
 11 17  1  0  0  0  0
 12 18  1  0  0  0  0
 13 12  2  0  0  0  0
 14 13  1  0  0  0  0
 15 14  2  0  0  0  0
 15 16  1  0  0  0  0
 16 11  2  0  0  0  0
 19 13  1  0  0  0  0
 20  7  1  0  0  0  0
 21 20  1  0  0  0  0
 22 21  2  0  0  0  0
 23 22  1  0  0  0  0
 23 24  1  0  0  0  0
 24 20  2  0  0  0  0
 25 22  1  0  0  0  0
 26 23  1  0  0  0  0
 27 26  2  0  0  0  0
 27 28  1  0  0  0  0
 29 27  1  0  0  0  0
 30 29  1  0  0  0  0
 31 29  2  0  0  0  0
 31 33  1  0  0  0  0
 32 31  1  0  0  0  0
 33 26  1  0  0  0  0
M  END
>  <minimizedAffinity>
-5.21768427

$$$$

 OpenBabel03242514243D

 33 36  0  0  0  0  0  0  0  0999 V2000
   40.6140   30.7180   38.8080 Cl  0  0  0  0  0  0  0  0  0  0  0  0
   39.5690   32.0350   39.3110 C   0  0  0  0  0  0  0  0  0  0  0  0
   40.0770   33.2930   39.4550 C   0  0  0  0  0  0  0  0  0  0  0  0
   39.2590   34.3480   39.8530 C   0  0  0  0  0  0  0  0  0  0  0  0
   37.9450   34.0560   40.0870 C   0  0  0  0  0  0  0  0  0  0  0  0
   37.4350   32.7840   39.9400 C   0  0  0  0  0  0  0  0  0  0  0  0
   38.2490   31.7620   39.5500 C   0  0  0  0  0  0  0  0  0  0  0  0
   39.6310   35.3500   39.9740 H   0  0  0  0  0  0  0  0  0  0  0  0
   37.2100   34.8020   40.4020 H   0  0  0  0  0  0  0  0  0  0  0  0
   36.3890   32.5420   40.1250 H   0  0  0  0  0  0  0  0  0  0  0  0
   43.7100   33.6670   39.9400 C   0  0  0  0  0  0  0  0  0  0  0  0
   44.1450   34.0200   38.6550 C   0  0  0  0  0  0  0  0  0  0  0  0
   43.2020   34.1260   37.6420 C   0  0  0  0  0  0  0  0  0  0  0  0
   41.9080   33.8840   37.9450 N   0  0  0  0  0  0  0  0  0  0  0  0
   41.4960   33.5440   39.1890 C   0  0  0  0  0  0  0  0  0  0  0  0
   42.4000   33.4330   40.1960 N   0  0  0  0  0  0  0  0  0  0  0  0
   44.4670   33.5890   40.7230 H   0  0  0  0  0  0  0  0  0  0  0  0
   45.1550   34.2170   38.3830 H   0  0  0  0  0  0  0  0  0  0  0  0
   43.3620   34.3820   36.6200 H   0  0  0  0  0  0  0  0  0  0  0  0
   37.7440   30.4040   39.3850 C   0  0  0  0  0  0  0  0  0  0  0  0
   37.1230   29.8870   38.3170 N   0  0  0  0  0  0  0  0  0  0  0  0
   36.8160   28.6020   38.5640 C   0  0  0  0  0  0  0  0  0  0  0  0
   37.2490   28.3000   39.8090 N   0  0  0  0  0  0  0  0  0  0  0  0
   37.8160   29.4120   40.3030 N   0  0  0  0  0  0  0  0  0  0  0  0
   36.3260   27.8550   37.9760 H   0  0  0  0  0  0  0  0  0  0  0  0
   37.2120   27.1210   40.6080 C   0  0  0  0  0  0  0  0  0  0  0  0
   36.9790   27.2870   41.9770 C   0  0  0  0  0  0  0  0  0  0  0  0
   36.8110   28.1510   42.6090 H   0  0  0  0  0  0  0  0  0  0  0  0
   36.9880   26.0090   42.5320 C   0  0  0  0  0  0  0  0  0  0  0  0
   36.8580   25.6060   43.5340 H   0  0  0  0  0  0  0  0  0  0  0  0
   37.2280   25.1430   41.4600 C   0  0  0  0  0  0  0  0  0  0  0  0
   37.3270   24.0630   41.3620 H   0  0  0  0  0  0  0  0  0  0  0  0
   37.3530   25.8440   40.3450 O   0  0  0  0  0  0  0  0  0  0  0  0
  1  2  1  0  0  0  0
  2  3  2  0  0  0  0
  2  7  1  0  0  0  0
  3  4  1  0  0  0  0
  4  8  1  0  0  0  0
  4  5  2  0  0  0  0
  5  9  1  0  0  0  0
  6  5  1  0  0  0  0
  6 10  1  0  0  0  0
  7  6  2  0  0  0  0
 11 16  1  0  0  0  0
 11 17  1  0  0  0  0
 12 11  2  0  0  0  0
 13 14  2  0  0  0  0
 13 12  1  0  0  0  0
 14 15  1  0  0  0  0
 15  3  1  0  0  0  0
 15 16  2  0  0  0  0
 18 12  1  0  0  0  0
 19 13  1  0  0  0  0
 20  7  1  0  0  0  0
 20 24  2  0  0  0  0
 21 22  2  0  0  0  0
 21 20  1  0  0  0  0
 22 23  1  0  0  0  0
 23 24  1  0  0  0  0
 23 26  1  0  0  0  0
 25 22  1  0  0  0  0
 26 27  2  0  0  0  0
 27 29  1  0  0  0  0
 27 28  1  0  0  0  0
 29 30  1  0  0  0  0
 31 29  2  0  0  0  0
 32 31  1  0  0  0  0
 33 26  1  0  0  0  0
 33 31  1  0  0  0  0
M  END
>  <minimizedAffinity>
-5.21041775

$$$$

 OpenBabel03242514243D

 33 36  0  0  0  0  0  0  0  0999 V2000
   39.5760   28.2000   40.8580 Cl  0  0  0  0  0  0  0  0  0  0  0  0
   38.0020   28.9690   40.7760 C   0  0  0  0  0  0  0  0  0  0  0  0
   36.8690   28.2090   40.7700 C   0  0  0  0  0  0  0  0  0  0  0  0
   35.6120   28.8060   40.7060 C   0  0  0  0  0  0  0  0  0  0  0  0
   35.5790   30.1710   40.6500 C   0  0  0  0  0  0  0  0  0  0  0  0
   36.7260   30.9360   40.6560 C   0  0  0  0  0  0  0  0  0  0  0  0
   37.9490   30.3360   40.7190 C   0  0  0  0  0  0  0  0  0  0  0  0
   34.7030   28.2330   40.7010 H   0  0  0  0  0  0  0  0  0  0  0  0
   34.6520   30.7490   40.5980 H   0  0  0  0  0  0  0  0  0  0  0  0
   36.7100   32.0250   40.6120 H   0  0  0  0  0  0  0  0  0  0  0  0
   37.0630   24.6730   39.7510 C   0  0  0  0  0  0  0  0  0  0  0  0
   37.1570   24.0160   40.9850 C   0  0  0  0  0  0  0  0  0  0  0  0
   37.1540   24.7770   42.1450 C   0  0  0  0  0  0  0  0  0  0  0  0
   37.0590   26.1200   42.0280 N   0  0  0  0  0  0  0  0  0  0  0  0
   36.9680   26.7480   40.8320 C   0  0  0  0  0  0  0  0  0  0  0  0
   36.9700   26.0240   39.6830 N   0  0  0  0  0  0  0  0  0  0  0  0
   37.0680   24.0570   38.8510 H   0  0  0  0  0  0  0  0  0  0  0  0
   37.2330   22.9610   41.1130 H   0  0  0  0  0  0  0  0  0  0  0  0
   37.2170   24.4390   43.1540 H   0  0  0  0  0  0  0  0  0  0  0  0
   39.1820   31.1150   40.7280 C   0  0  0  0  0  0  0  0  0  0  0  0
   39.9660   31.3920   41.7770 N   0  0  0  0  0  0  0  0  0  0  0  0
   41.0070   32.1360   41.3660 C   0  0  0  0  0  0  0  0  0  0  0  0
   40.8790   32.3360   40.0350 N   0  0  0  0  0  0  0  0  0  0  0  0
   39.7570   31.7040   39.6540 N   0  0  0  0  0  0  0  0  0  0  0  0
   41.8410   32.5550   41.8890 H   0  0  0  0  0  0  0  0  0  0  0  0
   41.6540   33.0300   39.0620 C   0  0  0  0  0  0  0  0  0  0  0  0
   42.9640   33.3710   39.4160 C   0  0  0  0  0  0  0  0  0  0  0  0
   43.5610   33.2240   40.3090 H   0  0  0  0  0  0  0  0  0  0  0  0
   43.5060   34.0310   38.3160 C   0  0  0  0  0  0  0  0  0  0  0  0
   44.4690   34.4840   38.0890 H   0  0  0  0  0  0  0  0  0  0  0  0
   42.4870   34.0480   37.3570 C   0  0  0  0  0  0  0  0  0  0  0  0
   42.4030   34.4370   36.3440 H   0  0  0  0  0  0  0  0  0  0  0  0
   41.4140   33.4460   37.8420 O   0  0  0  0  0  0  0  0  0  0  0  0
  2  1  1  0  0  0  0
  3  2  1  0  0  0  0
  3 15  1  0  0  0  0
  4  3  2  0  0  0  0
  5  6  2  0  0  0  0
  5  4  1  0  0  0  0
  6  7  1  0  0  0  0
  7 20  1  0  0  0  0
  7  2  2  0  0  0  0
  8  4  1  0  0  0  0
  9  5  1  0  0  0  0
 10  6  1  0  0  0  0
 11 12  1  0  0  0  0
 12 18  1  0  0  0  0
 12 13  2  0  0  0  0
 13 19  1  0  0  0  0
 14 13  1  0  0  0  0
 15 14  2  0  0  0  0
 16 11  2  0  0  0  0
 16 15  1  0  0  0  0
 17 11  1  0  0  0  0
 20 21  1  0  0  0  0
 22 21  2  0  0  0  0
 22 25  1  0  0  0  0
 23 22  1  0  0  0  0
 24 23  1  0  0  0  0
 24 20  2  0  0  0  0
 26 27  2  0  0  0  0
 26 23  1  0  0  0  0
 27 28  1  0  0  0  0
 29 27  1  0  0  0  0
 30 29  1  0  0  0  0
 31 33  1  0  0  0  0
 31 29  2  0  0  0  0
 32 31  1  0  0  0  0
 33 26  1  0  0  0  0
M  END
>  <minimizedAffinity>
-5.19209909

$$$$

 OpenBabel03242514243D

 33 36  0  0  0  0  0  0  0  0999 V2000
   36.4280   27.3230   38.5110 Cl  0  0  0  0  0  0  0  0  0  0  0  0
   36.6930   26.5510   40.0630 C   0  0  0  0  0  0  0  0  0  0  0  0
   36.6900   25.1890   40.1580 C   0  0  0  0  0  0  0  0  0  0  0  0
   36.8990   24.5620   41.3840 C   0  0  0  0  0  0  0  0  0  0  0  0
   37.1040   25.3720   42.4650 C   0  0  0  0  0  0  0  0  0  0  0  0
   37.1070   26.7470   42.3650 C   0  0  0  0  0  0  0  0  0  0  0  0
   36.9000   27.3460   41.1580 C   0  0  0  0  0  0  0  0  0  0  0  0
   36.9030   23.4920   41.4890 H   0  0  0  0  0  0  0  0  0  0  0  0
   37.2800   24.9940   43.4760 H   0  0  0  0  0  0  0  0  0  0  0  0
   37.2690   27.4010   43.2220 H   0  0  0  0  0  0  0  0  0  0  0  0
   37.3020   23.2380   37.0930 C   0  0  0  0  0  0  0  0  0  0  0  0
   36.0070   22.8440   36.7310 C   0  0  0  0  0  0  0  0  0  0  0  0
   34.9440   23.2440   37.5280 C   0  0  0  0  0  0  0  0  0  0  0  0
   35.2100   23.9960   38.6180 N   0  0  0  0  0  0  0  0  0  0  0  0
   36.4650   24.3730   38.9610 C   0  0  0  0  0  0  0  0  0  0  0  0
   37.5210   23.9930   38.1970 N   0  0  0  0  0  0  0  0  0  0  0  0
   38.1240   22.9130   36.4530 H   0  0  0  0  0  0  0  0  0  0  0  0
   35.7620   22.2530   35.8790 H   0  0  0  0  0  0  0  0  0  0  0  0
   33.9070   23.0340   37.3960 H   0  0  0  0  0  0  0  0  0  0  0  0
   36.8970   28.7970   41.0160 C   0  0  0  0  0  0  0  0  0  0  0  0
   35.8430   29.6220   41.0760 N   0  0  0  0  0  0  0  0  0  0  0  0
   36.2620   30.8860   40.8970 C   0  0  0  0  0  0  0  0  0  0  0  0
   37.6010   30.8630   40.7180 N   0  0  0  0  0  0  0  0  0  0  0  0
   37.9810   29.5760   40.7940 N   0  0  0  0  0  0  0  0  0  0  0  0
   35.7390   31.8190   40.8750 H   0  0  0  0  0  0  0  0  0  0  0  0
   38.5850   31.8670   40.4890 C   0  0  0  0  0  0  0  0  0  0  0  0
   39.3730   31.7360   39.3400 C   0  0  0  0  0  0  0  0  0  0  0  0
   39.4140   31.0080   38.5390 H   0  0  0  0  0  0  0  0  0  0  0  0
   40.2440   32.8240   39.3390 C   0  0  0  0  0  0  0  0  0  0  0  0
   41.0360   33.1730   38.6800 H   0  0  0  0  0  0  0  0  0  0  0  0
   39.9290   33.5510   40.4920 C   0  0  0  0  0  0  0  0  0  0  0  0
   40.3100   34.4650   40.9420 H   0  0  0  0  0  0  0  0  0  0  0  0
   38.9440   32.9480   41.1380 O   0  0  0  0  0  0  0  0  0  0  0  0
  1  2  1  0  0  0  0
  2  3  2  0  0  0  0
  2  7  1  0  0  0  0
  3  4  1  0  0  0  0
  4  8  1  0  0  0  0
  4  5  2  0  0  0  0
  5  9  1  0  0  0  0
  6  5  1  0  0  0  0
  6 10  1  0  0  0  0
  7  6  2  0  0  0  0
 11 16  1  0  0  0  0
 12 11  2  0  0  0  0
 12 13  1  0  0  0  0
 13 14  2  0  0  0  0
 14 15  1  0  0  0  0
 15  3  1  0  0  0  0
 16 15  2  0  0  0  0
 17 11  1  0  0  0  0
 18 12  1  0  0  0  0
 19 13  1  0  0  0  0
 20 21  1  0  0  0  0
 20  7  1  0  0  0  0
 22 21  2  0  0  0  0
 23 24  1  0  0  0  0
 23 22  1  0  0  0  0
 24 20  2  0  0  0  0
 25 22  1  0  0  0  0
 26 23  1  0  0  0  0
 26 33  1  0  0  0  0
 27 26  2  0  0  0  0
 28 27  1  0  0  0  0
 29 27  1  0  0  0  0
 29 31  2  0  0  0  0
 30 29  1  0  0  0  0
 31 32  1  0  0  0  0
 31 33  1  0  0  0  0
M  END
>  <minimizedAffinity>
-5.09016562

$$$$

 OpenBabel03242514243D

 33 36  0  0  0  0  0  0  0  0999 V2000
   39.4110   27.1400   39.4190 Cl  0  0  0  0  0  0  0  0  0  0  0  0
   38.3570   26.3580   40.5820 C   0  0  0  0  0  0  0  0  0  0  0  0
   37.9690   25.0640   40.3910 C   0  0  0  0  0  0  0  0  0  0  0  0
   37.1320   24.4300   41.3070 C   0  0  0  0  0  0  0  0  0  0  0  0
   36.7300   25.1640   42.3870 C   0  0  0  0  0  0  0  0  0  0  0  0
   37.1230   26.4710   42.5770 C   0  0  0  0  0  0  0  0  0  0  0  0
   37.9430   27.0780   41.6710 C   0  0  0  0  0  0  0  0  0  0  0  0
   36.8110   23.4110   41.1830 H   0  0  0  0  0  0  0  0  0  0  0  0
   36.0750   24.7730   43.1710 H   0  0  0  0  0  0  0  0  0  0  0  0
   36.8080   27.0640   43.4350 H   0  0  0  0  0  0  0  0  0  0  0  0
   38.1450   23.6780   36.9820 C   0  0  0  0  0  0  0  0  0  0  0  0
   39.3350   22.9390   37.0250 C   0  0  0  0  0  0  0  0  0  0  0  0
   40.0610   22.9190   38.2070 C   0  0  0  0  0  0  0  0  0  0  0  0
   39.5850   23.6160   39.2620 N   0  0  0  0  0  0  0  0  0  0  0  0
   38.4340   24.3280   39.2120 C   0  0  0  0  0  0  0  0  0  0  0  0
   37.7060   24.3620   38.0670 N   0  0  0  0  0  0  0  0  0  0  0  0
   37.5880   23.6810   36.0430 H   0  0  0  0  0  0  0  0  0  0  0  0
   39.7390   22.3790   36.2130 H   0  0  0  0  0  0  0  0  0  0  0  0
   40.9770   22.4120   38.4080 H   0  0  0  0  0  0  0  0  0  0  0  0
   38.3790   28.4590   41.8410 C   0  0  0  0  0  0  0  0  0  0  0  0
   39.2200   28.9420   42.7640 N   0  0  0  0  0  0  0  0  0  0  0  0
   39.3630   30.2660   42.5810 C   0  0  0  0  0  0  0  0  0  0  0  0
   38.5980   30.6280   41.5260 N   0  0  0  0  0  0  0  0  0  0  0  0
   37.9990   29.5110   41.0800 N   0  0  0  0  0  0  0  0  0  0  0  0
   39.9370   31.0060   43.0990 H   0  0  0  0  0  0  0  0  0  0  0  0
   38.3430   31.8660   40.8700 C   0  0  0  0  0  0  0  0  0  0  0  0
   37.2380   31.9170   40.0120 C   0  0  0  0  0  0  0  0  0  0  0  0
   36.4890   31.1940   39.7130 H   0  0  0  0  0  0  0  0  0  0  0  0
   37.2010   33.2120   39.5000 C   0  0  0  0  0  0  0  0  0  0  0  0
   36.5530   33.7470   38.8090 H   0  0  0  0  0  0  0  0  0  0  0  0
   38.2910   33.8700   40.0820 C   0  0  0  0  0  0  0  0  0  0  0  0
   38.6950   34.8780   40.0120 H   0  0  0  0  0  0  0  0  0  0  0  0
   38.9340   33.0360   40.8820 O   0  0  0  0  0  0  0  0  0  0  0  0
  1  2  1  0  0  0  0
  2  7  1  0  0  0  0
  3  2  2  0  0  0  0
  3  4  1  0  0  0  0
  4  5  2  0  0  0  0
  5  6  1  0  0  0  0
  5  9  1  0  0  0  0
  6 10  1  0  0  0  0
  7 20  1  0  0  0  0
  7  6  2  0  0  0  0
  8  4  1  0  0  0  0
 11 12  2  0  0  0  0
 11 16  1  0  0  0  0
 12 13  1  0  0  0  0
 13 19  1  0  0  0  0
 13 14  2  0  0  0  0
 15 14  1  0  0  0  0
 15  3  1  0  0  0  0
 16 15  2  0  0  0  0
 17 11  1  0  0  0  0
 18 12  1  0  0  0  0
 20 21  1  0  0  0  0
 22 21  2  0  0  0  0
 22 25  1  0  0  0  0
 23 22  1  0  0  0  0
 24 23  1  0  0  0  0
 24 20  2  0  0  0  0
 26 33  1  0  0  0  0
 26 23  1  0  0  0  0
 27 26  2  0  0  0  0
 28 27  1  0  0  0  0
 29 27  1  0  0  0  0
 29 31  2  0  0  0  0
 30 29  1  0  0  0  0
 31 33  1  0  0  0  0
 32 31  1  0  0  0  0
M  END
>  <minimizedAffinity>
-5.08676195

$$$$
