
     RDKit          3D

 33 36  0  0  0  0  0  0  0  0999 V2000
   44.8373   33.0803   41.1347 Cl  0  0  0  0  0  0  0  0  0  0  0  0
   46.3541   33.9327   40.9170 C   0  0  0  0  0  0  0  0  0  0  0  0
   46.8475   34.7167   41.9188 C   0  0  0  0  0  0  0  0  0  0  0  0
   48.0508   35.3996   41.7603 C   0  0  0  0  0  0  0  0  0  0  0  0
   48.6971   35.2428   40.5665 C   0  0  0  0  0  0  0  0  0  0  0  0
   48.1964   34.4504   39.5563 C   0  0  0  0  0  0  0  0  0  0  0  0
   47.0159   33.7876   39.7272 C   0  0  0  0  0  0  0  0  0  0  0  0
   45.6012   34.0559   45.3233 C   0  0  0  0  0  0  0  0  0  0  0  0
   44.7097   35.1187   45.5224 C   0  0  0  0  0  0  0  0  0  0  0  0
   44.5420   36.0449   44.5022 C   0  0  0  0  0  0  0  0  0  0  0  0
   45.2488   35.8762   43.3630 N   0  0  0  0  0  0  0  0  0  0  0  0
   46.1084   34.8462   43.1785 C   0  0  0  0  0  0  0  0  0  0  0  0
   46.2893   33.9276   44.1618 N   0  0  0  0  0  0  0  0  0  0  0  0
   46.4568   32.9410   38.6803 C   0  0  0  0  0  0  0  0  0  0  0  0
   45.6052   33.2957   37.7097 N   0  0  0  0  0  0  0  0  0  0  0  0
   45.3319   32.2232   36.9480 C   0  0  0  0  0  0  0  0  0  0  0  0
   46.0214   31.1712   37.4436 N   0  0  0  0  0  0  0  0  0  0  0  0
   46.7080   31.6233   38.5062 N   0  0  0  0  0  0  0  0  0  0  0  0
   48.4636   36.0243   42.5324 H   0  0  0  0  0  0  0  0  0  0  0  0
   49.6476   35.7285   40.3275 H   0  0  0  0  0  0  0  0  0  0  0  0
   48.7042   34.3189   38.6011 H   0  0  0  0  0  0  0  0  0  0  0  0
   45.7188   33.3391   46.1368 H   0  0  0  0  0  0  0  0  0  0  0  0
   44.1375   35.2820   46.4059 H   0  0  0  0  0  0  0  0  0  0  0  0
   43.9101   36.9034   44.4905 H   0  0  0  0  0  0  0  0  0  0  0  0
   44.7081   32.0917   36.0886 H   0  0  0  0  0  0  0  0  0  0  0  0
   46.1348   29.8014   37.0709 C   0  0  0  0  0  0  0  0  0  0  0  0
   45.8244   28.8478   38.0474 C   0  0  0  0  0  0  0  0  0  0  0  0
   45.4996   28.9110   39.0794 H   0  0  0  0  0  0  0  0  0  0  0  0
   46.0092   27.6030   37.4490 C   0  0  0  0  0  0  0  0  0  0  0  0
   45.9031   26.5708   37.7762 H   0  0  0  0  0  0  0  0  0  0  0  0
   46.4219   27.8790   36.1410 C   0  0  0  0  0  0  0  0  0  0  0  0
   46.6904   27.2650   35.2830 H   0  0  0  0  0  0  0  0  0  0  0  0
   46.4813   29.1883   35.9648 O   0  0  0  0  0  0  0  0  0  0  0  0
  2  1  1  0
  2  3  2  0
  3 12  1  0
  4  3  1  0
  5  4  2  0
  6  7  2  0
  6  5  1  0
  7  2  1  0
  8  9  2  0
 10  9  1  0
 11 10  2  0
 12 11  1  0
 12 13  2  0
 13  8  1  0
 14  7  1  0
 15 14  1  0
 16 17  1  0
 16 15  2  0
 17 18  1  0
 18 14  2  0
  4 19  1  0
  5 20  1  0
  6 21  1  0
  8 22  1  0
  9 23  1  0
 10 24  1  0
 16 25  1  0
 26 27  2  0
 27 28  1  0
 27 29  1  0
 29 30  1  0
 29 31  2  0
 31 32  1  0
 31 33  1  0
 33 26  1  0
 17 26  1  0
M  ISO  8  19  14  20  14  21  14  22  14  23  14  24  14  25  14  28  16
M  ISO  2  30  16  32  14
M  END
>  <DihAtoms>  (1) 
15,16,25,26

>  <DihDeg>  (1) 
71.1667161617619

$$$$
