
 OpenBabel03252503343D

 21 22  0  0  0  0  0  0  0  0999 V2000
   46.2730   34.0200   40.8160 C   0  0  0  0  0  0  0  0  0  0  0  0
   45.1740   33.4480   41.0410 O   0  0  0  0  0  0  0  0  0  0  0  0
   46.7870   34.7980   41.8870 N   0  0  0  0  0  0  0  0  0  0  0  0
   47.7160   35.2880   41.7530 H   0  0  0  0  0  0  0  0  0  0  0  0
   44.5120   36.0200   44.5840 C   0  0  0  0  0  0  0  0  0  0  0  0
   45.1780   35.9670   43.3450 C   0  0  0  0  0  0  0  0  0  0  0  0
   46.0730   34.9220   43.1150 C   0  0  0  0  0  0  0  0  0  0  0  0
   46.2720   33.9940   44.0910 N   0  0  0  0  0  0  0  0  0  0  0  0
   45.6010   34.0830   45.2850 C   0  0  0  0  0  0  0  0  0  0  0  0
   44.7420   35.0810   45.5130 N   0  0  0  0  0  0  0  0  0  0  0  0
   43.8410   36.8740   44.6530 H   0  0  0  0  0  0  0  0  0  0  0  0
   45.0260   36.7020   42.5640 H   0  0  0  0  0  0  0  0  0  0  0  0
   45.7840   33.3210   46.0450 H   0  0  0  0  0  0  0  0  0  0  0  0
   46.9620   33.8850   39.5370 C   0  0  0  0  0  0  0  0  0  0  0  0
   46.4900   33.0980   38.5090 C   0  0  0  0  0  0  0  0  0  0  0  0
   45.6190   32.4710   38.3990 H   0  0  0  0  0  0  0  0  0  0  0  0
   47.4320   33.2530   37.4950 C   0  0  0  0  0  0  0  0  0  0  0  0
   47.4990   32.8320   36.4890 H   0  0  0  0  0  0  0  0  0  0  0  0
   48.4210   34.1240   37.9680 C   0  0  0  0  0  0  0  0  0  0  0  0
   49.3360   34.5140   37.5040 H   0  0  0  0  0  0  0  0  0  0  0  0
   48.0690   34.4590   39.1990 O   0  0  0  0  0  0  0  0  0  0  0  0
  1  2  2  0  0  0  0
  1  3  1  0  0  0  0
  3  7  1  0  0  0  0
  4  3  1  0  0  0  0
  5 11  1  0  0  0  0
  5 10  1  0  0  0  0
  6  5  2  0  0  0  0
  7  6  1  0  0  0  0
  7  8  2  0  0  0  0
  8  9  1  0  0  0  0
  9 10  2  0  0  0  0
  9 13  1  0  0  0  0
 12  6  1  0  0  0  0
 14  1  1  0  0  0  0
 15 14  2  0  0  0  0
 16 15  1  0  0  0  0
 17 19  2  0  0  0  0
 17 15  1  0  0  0  0
 18 17  1  0  0  0  0
 19 21  1  0  0  0  0
 20 19  1  0  0  0  0
 21 14  1  0  0  0  0
M  END
>  <minimizedAffinity>
-4.1675849

>  <minimizedRMSD>
0.297991723

$$$$
