
 OpenBabel03252503203D

 38 41  0  0  0  0  0  0  0  0999 V2000
   37.8700   31.8180   40.6110 C   0  0  0  0  0  0  0  0  0  0  0  0
   38.5450   31.0470   41.5130 C   0  0  0  0  0  0  0  0  0  0  0  0
   37.6760   30.0680   41.8590 N   0  0  0  0  0  0  0  0  0  0  0  0
   36.5380   30.2380   41.2020 C   0  0  0  0  0  0  0  0  0  0  0  0
   36.6530   31.3280   40.4220 N   0  0  0  0  0  0  0  0  0  0  0  0
   35.3360   29.4820   41.2230 N   0  0  0  0  0  0  0  0  0  0  0  0
   39.5380   31.1690   41.8810 H   0  0  0  0  0  0  0  0  0  0  0  0
   34.3990   29.8930   41.0390 H   0  0  0  0  0  0  0  0  0  0  0  0
   35.3200   28.4580   41.4250 H   0  0  0  0  0  0  0  0  0  0  0  0
   37.8960   28.9740   42.7990 C   0  0  0  0  0  0  0  0  0  0  0  0
   37.1200   28.9770   43.5820 H   0  0  0  0  0  0  0  0  0  0  0  0
   38.8840   29.1610   43.2690 H   0  0  0  0  0  0  0  0  0  0  0  0
   37.8530   27.6590   42.1330 C   0  0  0  0  0  0  0  0  0  0  0  0
   37.1250   26.5260   42.4050 C   0  0  0  0  0  0  0  0  0  0  0  0
   36.4300   26.4270   43.2040 H   0  0  0  0  0  0  0  0  0  0  0  0
   37.4690   25.5870   41.4680 C   0  0  0  0  0  0  0  0  0  0  0  0
   37.0390   24.5890   41.4490 H   0  0  0  0  0  0  0  0  0  0  0  0
   38.4030   26.1780   40.6460 C   0  0  0  0  0  0  0  0  0  0  0  0
   38.8660   25.6890   39.8080 H   0  0  0  0  0  0  0  0  0  0  0  0
   38.6070   27.4030   41.0650 O   0  0  0  0  0  0  0  0  0  0  0  0
   38.3980   33.0480   39.9150 C   0  0  0  0  0  0  0  0  0  0  0  0
   37.8060   34.1570   39.8750 O   0  0  0  0  0  0  0  0  0  0  0  0
   40.7160   33.8210   39.6580 C   0  0  0  0  0  0  0  0  0  0  0  0
   39.6570   32.9930   39.2410 C   0  0  0  0  0  0  0  0  0  0  0  0
   39.9580   32.1740   38.1670 C   0  0  0  0  0  0  0  0  0  0  0  0
   41.1470   32.1530   37.5630 N   0  0  0  0  0  0  0  0  0  0  0  0
   42.1400   32.9820   38.0160 C   0  0  0  0  0  0  0  0  0  0  0  0
   41.9100   33.7980   39.0500 N   0  0  0  0  0  0  0  0  0  0  0  0
   40.5990   34.5090   40.4920 H   0  0  0  0  0  0  0  0  0  0  0  0
   43.1170   32.9820   37.5400 H   0  0  0  0  0  0  0  0  0  0  0  0
   38.9330   31.3050   37.6820 C   0  0  0  0  0  0  0  0  0  0  0  0
   37.7800   31.4550   36.9840 C   0  0  0  0  0  0  0  0  0  0  0  0
   37.0000   30.4520   36.6610 C   0  0  0  0  0  0  0  0  0  0  0  0
   37.4090   29.2410   37.0650 C   0  0  0  0  0  0  0  0  0  0  0  0
   38.9720   29.5390   37.9440 S   0  0  0  0  0  0  0  0  0  0  0  0
   37.5720   32.5120   36.7190 H   0  0  0  0  0  0  0  0  0  0  0  0
   36.0710   30.5130   36.1060 H   0  0  0  0  0  0  0  0  0  0  0  0
   36.9040   28.2050   36.9080 H   0  0  0  0  0  0  0  0  0  0  0  0
  1  2  2  0  0  0  0
  2  3  1  0  0  0  0
  2  7  1  0  0  0  0
  3 10  1  0  0  0  0
  4  6  1  0  0  0  0
  4  3  1  0  0  0  0
  5  1  1  0  0  0  0
  5  4  2  0  0  0  0
  6  9  1  0  0  0  0
  8  6  1  0  0  0  0
 10 12  1  0  0  0  0
 10 11  1  0  0  0  0
 13 14  2  0  0  0  0
 13 10  1  0  0  0  0
 14 15  1  0  0  0  0
 16 14  1  0  0  0  0
 17 16  1  0  0  0  0
 18 20  1  0  0  0  0
 18 16  2  0  0  0  0
 19 18  1  0  0  0  0
 20 13  1  0  0  0  0
 21  1  1  0  0  0  0
 22 21  2  0  0  0  0
 23 29  1  0  0  0  0
 24 23  1  0  0  0  0
 24 21  1  0  0  0  0
 25 24  2  0  0  0  0
 26 27  2  0  0  0  0
 26 25  1  0  0  0  0
 27 28  1  0  0  0  0
 28 23  2  0  0  0  0
 30 27  1  0  0  0  0
 31 35  1  0  0  0  0
 31 25  1  0  0  0  0
 32 31  2  0  0  0  0
 33 32  1  0  0  0  0
 33 34  2  0  0  0  0
 34 35  1  0  0  0  0
 36 32  1  0  0  0  0
 37 33  1  0  0  0  0
 38 34  1  0  0  0  0
M  END
>  <minimizedAffinity>
-5.65678787

$$$$

 OpenBabel03252503203D

 38 41  0  0  0  0  0  0  0  0999 V2000
   36.2500   30.3170   39.3000 C   0  0  0  0  0  0  0  0  0  0  0  0
   36.5460   31.3420   40.1520 C   0  0  0  0  0  0  0  0  0  0  0  0
   37.2820   32.2080   39.4180 N   0  0  0  0  0  0  0  0  0  0  0  0
   37.4240   31.7340   38.1890 C   0  0  0  0  0  0  0  0  0  0  0  0
   36.7820   30.5540   38.1090 N   0  0  0  0  0  0  0  0  0  0  0  0
   38.1040   32.2700   37.0620 N   0  0  0  0  0  0  0  0  0  0  0  0
   36.2710   31.4560   41.1750 H   0  0  0  0  0  0  0  0  0  0  0  0
   38.5240   31.6810   36.3160 H   0  0  0  0  0  0  0  0  0  0  0  0
   38.2230   33.2960   36.9150 H   0  0  0  0  0  0  0  0  0  0  0  0
   37.8580   33.4770   39.8520 C   0  0  0  0  0  0  0  0  0  0  0  0
   37.3720   33.8230   40.7800 H   0  0  0  0  0  0  0  0  0  0  0  0
   37.6490   34.2070   39.0420 H   0  0  0  0  0  0  0  0  0  0  0  0
   39.3030   33.3630   40.1210 C   0  0  0  0  0  0  0  0  0  0  0  0
   40.3630   34.1500   39.7400 C   0  0  0  0  0  0  0  0  0  0  0  0
   40.2860   35.0300   39.1460 H   0  0  0  0  0  0  0  0  0  0  0  0
   41.4960   33.5880   40.2670 C   0  0  0  0  0  0  0  0  0  0  0  0
   42.4870   34.0110   40.1190 H   0  0  0  0  0  0  0  0  0  0  0  0
   41.0920   32.4670   40.9570 C   0  0  0  0  0  0  0  0  0  0  0  0
   41.7600   31.8090   41.4850 H   0  0  0  0  0  0  0  0  0  0  0  0
   39.7900   32.3620   40.8530 O   0  0  0  0  0  0  0  0  0  0  0  0
   35.4420   29.0860   39.6290 C   0  0  0  0  0  0  0  0  0  0  0  0
   34.3160   29.0970   40.1900 O   0  0  0  0  0  0  0  0  0  0  0  0
   35.6160   27.1940   38.0720 C   0  0  0  0  0  0  0  0  0  0  0  0
   35.9560   27.7940   39.2990 C   0  0  0  0  0  0  0  0  0  0  0  0
   36.7920   27.0340   40.0970 C   0  0  0  0  0  0  0  0  0  0  0  0
   37.2500   25.8290   39.7530 N   0  0  0  0  0  0  0  0  0  0  0  0
   36.8840   25.2970   38.5440 C   0  0  0  0  0  0  0  0  0  0  0  0
   36.0780   25.9840   37.7270 N   0  0  0  0  0  0  0  0  0  0  0  0
   34.9650   27.6950   37.3610 H   0  0  0  0  0  0  0  0  0  0  0  0
   37.2450   24.3180   38.2420 H   0  0  0  0  0  0  0  0  0  0  0  0
   37.1800   27.5740   41.3620 C   0  0  0  0  0  0  0  0  0  0  0  0
   36.6680   27.5780   42.6170 C   0  0  0  0  0  0  0  0  0  0  0  0
   37.2520   28.1720   43.6300 C   0  0  0  0  0  0  0  0  0  0  0  0
   38.4090   28.7900   43.3550 C   0  0  0  0  0  0  0  0  0  0  0  0
   38.6810   28.5170   41.5790 S   0  0  0  0  0  0  0  0  0  0  0  0
   35.7080   27.0270   42.6920 H   0  0  0  0  0  0  0  0  0  0  0  0
   36.8900   28.2070   44.6500 H   0  0  0  0  0  0  0  0  0  0  0  0
   39.1130   29.3830   44.0670 H   0  0  0  0  0  0  0  0  0  0  0  0
  1 21  1  0  0  0  0
  1  2  2  0  0  0  0
  2  7  1  0  0  0  0
  3 10  1  0  0  0  0
  3  2  1  0  0  0  0
  4  3  1  0  0  0  0
  5  4  2  0  0  0  0
  5  1  1  0  0  0  0
  6  4  1  0  0  0  0
  8  6  1  0  0  0  0
  9  6  1  0  0  0  0
 10 13  1  0  0  0  0
 10 11  1  0  0  0  0
 12 10  1  0  0  0  0
 13 20  1  0  0  0  0
 14 13  2  0  0  0  0
 14 16  1  0  0  0  0
 15 14  1  0  0  0  0
 16 18  2  0  0  0  0
 17 16  1  0  0  0  0
 18 19  1  0  0  0  0
 20 18  1  0  0  0  0
 21 22  2  0  0  0  0
 23 24  1  0  0  0  0
 24 21  1  0  0  0  0
 24 25  2  0  0  0  0
 25 31  1  0  0  0  0
 26 25  1  0  0  0  0
 27 26  2  0  0  0  0
 28 23  2  0  0  0  0
 28 27  1  0  0  0  0
 29 23  1  0  0  0  0
 30 27  1  0  0  0  0
 31 35  1  0  0  0  0
 31 32  2  0  0  0  0
 32 36  1  0  0  0  0
 32 33  1  0  0  0  0
 33 37  1  0  0  0  0
 34 33  2  0  0  0  0
 34 38  1  0  0  0  0
 35 34  1  0  0  0  0
M  END
>  <minimizedAffinity>
-5.62389374

$$$$

 OpenBabel03252503203D

 38 41  0  0  0  0  0  0  0  0999 V2000
   36.0170   28.5180   40.4940 C   0  0  0  0  0  0  0  0  0  0  0  0
   36.7700   27.3820   40.5700 C   0  0  0  0  0  0  0  0  0  0  0  0
   37.3740   27.4400   41.7800 N   0  0  0  0  0  0  0  0  0  0  0  0
   37.0070   28.5510   42.4020 C   0  0  0  0  0  0  0  0  0  0  0  0
   36.1610   29.2280   41.6050 N   0  0  0  0  0  0  0  0  0  0  0  0
   37.3650   29.0590   43.6800 N   0  0  0  0  0  0  0  0  0  0  0  0
   36.8770   26.6050   39.8480 H   0  0  0  0  0  0  0  0  0  0  0  0
   37.3930   30.0730   43.9040 H   0  0  0  0  0  0  0  0  0  0  0  0
   37.6240   28.4380   44.4780 H   0  0  0  0  0  0  0  0  0  0  0  0
   38.2930   26.4690   42.3640 C   0  0  0  0  0  0  0  0  0  0  0  0
   38.0350   26.2800   43.4200 H   0  0  0  0  0  0  0  0  0  0  0  0
   39.3030   26.9270   42.3160 H   0  0  0  0  0  0  0  0  0  0  0  0
   38.2500   25.1760   41.6560 C   0  0  0  0  0  0  0  0  0  0  0  0
   37.4240   24.0880   41.8010 C   0  0  0  0  0  0  0  0  0  0  0  0
   36.6290   24.0170   42.5060 H   0  0  0  0  0  0  0  0  0  0  0  0
   37.8220   23.1500   40.8850 C   0  0  0  0  0  0  0  0  0  0  0  0
   37.3350   22.1830   40.7820 H   0  0  0  0  0  0  0  0  0  0  0  0
   38.8860   23.6970   40.2030 C   0  0  0  0  0  0  0  0  0  0  0  0
   39.4180   23.1970   39.4130 H   0  0  0  0  0  0  0  0  0  0  0  0
   39.1140   24.8950   40.6820 O   0  0  0  0  0  0  0  0  0  0  0  0
   35.1440   28.9350   39.3370 C   0  0  0  0  0  0  0  0  0  0  0  0
   33.9270   29.2420   39.4320 O   0  0  0  0  0  0  0  0  0  0  0  0
   35.2240   28.1360   37.0160 C   0  0  0  0  0  0  0  0  0  0  0  0
   35.6960   29.0000   38.0210 C   0  0  0  0  0  0  0  0  0  0  0  0
   36.6960   29.8640   37.6110 C   0  0  0  0  0  0  0  0  0  0  0  0
   37.1870   29.8930   36.3710 N   0  0  0  0  0  0  0  0  0  0  0  0
   36.6860   29.0260   35.4360 C   0  0  0  0  0  0  0  0  0  0  0  0
   35.7180   28.1660   35.7700 N   0  0  0  0  0  0  0  0  0  0  0  0
   34.4390   27.4110   37.2180 H   0  0  0  0  0  0  0  0  0  0  0  0
   37.0700   29.0320   34.4190 H   0  0  0  0  0  0  0  0  0  0  0  0
   37.2310   30.7720   38.5760 C   0  0  0  0  0  0  0  0  0  0  0  0
   36.8120   31.9130   39.1770 C   0  0  0  0  0  0  0  0  0  0  0  0
   37.5290   32.5670   40.0580 C   0  0  0  0  0  0  0  0  0  0  0  0
   38.7260   32.0370   40.3450 C   0  0  0  0  0  0  0  0  0  0  0  0
   38.8410   30.5440   39.3160 S   0  0  0  0  0  0  0  0  0  0  0  0
   35.8030   32.2300   38.8410 H   0  0  0  0  0  0  0  0  0  0  0  0
   37.2450   33.4800   40.5680 H   0  0  0  0  0  0  0  0  0  0  0  0
   39.5410   32.4180   41.0820 H   0  0  0  0  0  0  0  0  0  0  0  0
  1  2  2  0  0  0  0
  1  5  1  0  0  0  0
  2  3  1  0  0  0  0
  3 10  1  0  0  0  0
  3  4  1  0  0  0  0
  4  6  1  0  0  0  0
  5  4  2  0  0  0  0
  6  8  1  0  0  0  0
  6  9  1  0  0  0  0
  7  2  1  0  0  0  0
 10 11  1  0  0  0  0
 12 10  1  0  0  0  0
 13 14  2  0  0  0  0
 13 10  1  0  0  0  0
 14 15  1  0  0  0  0
 16 14  1  0  0  0  0
 17 16  1  0  0  0  0
 18 20  1  0  0  0  0
 18 16  2  0  0  0  0
 19 18  1  0  0  0  0
 20 13  1  0  0  0  0
 21 22  2  0  0  0  0
 21  1  1  0  0  0  0
 23 29  1  0  0  0  0
 23 24  1  0  0  0  0
 24 21  1  0  0  0  0
 25 24  2  0  0  0  0
 25 31  1  0  0  0  0
 26 25  1  0  0  0  0
 27 28  1  0  0  0  0
 27 26  2  0  0  0  0
 28 23  2  0  0  0  0
 30 27  1  0  0  0  0
 31 32  2  0  0  0  0
 31 35  1  0  0  0  0
 32 33  1  0  0  0  0
 33 34  2  0  0  0  0
 33 37  1  0  0  0  0
 34 38  1  0  0  0  0
 35 34  1  0  0  0  0
 36 32  1  0  0  0  0
M  END
>  <minimizedAffinity>
-5.48387051

$$$$

 OpenBabel03252503203D

 38 41  0  0  0  0  0  0  0  0999 V2000
   38.8260   30.8220   39.9280 C   0  0  0  0  0  0  0  0  0  0  0  0
   39.9110   31.6500   39.9010 C   0  0  0  0  0  0  0  0  0  0  0  0
   39.3990   32.9000   39.8260 N   0  0  0  0  0  0  0  0  0  0  0  0
   38.0760   32.8330   39.8080 C   0  0  0  0  0  0  0  0  0  0  0  0
   37.7130   31.5390   39.8720 N   0  0  0  0  0  0  0  0  0  0  0  0
   37.0980   33.8610   39.7390 N   0  0  0  0  0  0  0  0  0  0  0  0
   40.9450   31.3920   39.9300 H   0  0  0  0  0  0  0  0  0  0  0  0
   36.1610   33.7290   39.3090 H   0  0  0  0  0  0  0  0  0  0  0  0
   37.2620   34.8190   40.1190 H   0  0  0  0  0  0  0  0  0  0  0  0
   40.1320   34.1610   39.7700 C   0  0  0  0  0  0  0  0  0  0  0  0
   40.2980   34.5560   40.7870 H   0  0  0  0  0  0  0  0  0  0  0  0
   39.4900   34.8700   39.2080 H   0  0  0  0  0  0  0  0  0  0  0  0
   41.4530   34.0020   39.1330 C   0  0  0  0  0  0  0  0  0  0  0  0
   41.8150   33.8610   37.8150 C   0  0  0  0  0  0  0  0  0  0  0  0
   41.1360   33.8440   36.9960 H   0  0  0  0  0  0  0  0  0  0  0  0
   43.1800   33.7510   37.7780 C   0  0  0  0  0  0  0  0  0  0  0  0
   43.7360   33.6280   36.8520 H   0  0  0  0  0  0  0  0  0  0  0  0
   43.6140   33.8290   39.0830 C   0  0  0  0  0  0  0  0  0  0  0  0
   44.6460   33.7740   39.3810 H   0  0  0  0  0  0  0  0  0  0  0  0
   42.5690   33.9780   39.8590 O   0  0  0  0  0  0  0  0  0  0  0  0
   38.8530   29.3160   40.0080 C   0  0  0  0  0  0  0  0  0  0  0  0
   39.2920   28.5580   39.1050 O   0  0  0  0  0  0  0  0  0  0  0  0
   39.1710   28.5280   42.3140 C   0  0  0  0  0  0  0  0  0  0  0  0
   38.3530   28.6610   41.1760 C   0  0  0  0  0  0  0  0  0  0  0  0
   37.0880   28.1170   41.3130 C   0  0  0  0  0  0  0  0  0  0  0  0
   36.6580   27.5120   42.4210 N   0  0  0  0  0  0  0  0  0  0  0  0
   37.5020   27.4130   43.4960 C   0  0  0  0  0  0  0  0  0  0  0  0
   38.7370   27.9190   43.4270 N   0  0  0  0  0  0  0  0  0  0  0  0
   40.1860   28.9150   42.3260 H   0  0  0  0  0  0  0  0  0  0  0  0
   37.1730   26.9250   44.4100 H   0  0  0  0  0  0  0  0  0  0  0  0
   36.1980   28.2100   40.1990 C   0  0  0  0  0  0  0  0  0  0  0  0
   35.2300   29.0690   39.7940 C   0  0  0  0  0  0  0  0  0  0  0  0
   34.5430   28.9100   38.6890 C   0  0  0  0  0  0  0  0  0  0  0  0
   34.8540   27.8290   37.9600 C   0  0  0  0  0  0  0  0  0  0  0  0
   36.1800   27.0000   38.8840 S   0  0  0  0  0  0  0  0  0  0  0  0
   35.0840   29.9150   40.4980 H   0  0  0  0  0  0  0  0  0  0  0  0
   33.7620   29.5630   38.3180 H   0  0  0  0  0  0  0  0  0  0  0  0
   34.3990   27.4670   36.9520 H   0  0  0  0  0  0  0  0  0  0  0  0
  1 21  1  0  0  0  0
  2  1  2  0  0  0  0
  2  7  1  0  0  0  0
  3  2  1  0  0  0  0
  4  3  1  0  0  0  0
  4  5  2  0  0  0  0
  5  1  1  0  0  0  0
  6  4  1  0  0  0  0
  6  9  1  0  0  0  0
  8  6  1  0  0  0  0
 10  3  1  0  0  0  0
 10 11  1  0  0  0  0
 12 10  1  0  0  0  0
 13 10  1  0  0  0  0
 13 20  1  0  0  0  0
 14 13  2  0  0  0  0
 15 14  1  0  0  0  0
 16 14  1  0  0  0  0
 16 18  2  0  0  0  0
 17 16  1  0  0  0  0
 18 19  1  0  0  0  0
 18 20  1  0  0  0  0
 21 24  1  0  0  0  0
 22 21  2  0  0  0  0
 23 29  1  0  0  0  0
 23 28  1  0  0  0  0
 24 25  1  0  0  0  0
 24 23  2  0  0  0  0
 25 26  2  0  0  0  0
 26 27  1  0  0  0  0
 27 30  1  0  0  0  0
 28 27  2  0  0  0  0
 31 25  1  0  0  0  0
 32 31  2  0  0  0  0
 32 36  1  0  0  0  0
 33 32  1  0  0  0  0
 34 33  2  0  0  0  0
 34 35  1  0  0  0  0
 35 31  1  0  0  0  0
 37 33  1  0  0  0  0
 38 34  1  0  0  0  0
M  END
>  <minimizedAffinity>
-5.4655757

$$$$

 OpenBabel03252503203D

 38 41  0  0  0  0  0  0  0  0999 V2000
   36.7200   30.2440   39.0570 C   0  0  0  0  0  0  0  0  0  0  0  0
   37.6530   30.9230   39.7850 C   0  0  0  0  0  0  0  0  0  0  0  0
   38.2830   31.7220   38.8930 N   0  0  0  0  0  0  0  0  0  0  0  0
   37.7600   31.5360   37.6900 C   0  0  0  0  0  0  0  0  0  0  0  0
   36.7840   30.6150   37.7860 N   0  0  0  0  0  0  0  0  0  0  0  0
   38.0740   32.1350   36.4410 N   0  0  0  0  0  0  0  0  0  0  0  0
   37.8610   30.8560   40.8290 H   0  0  0  0  0  0  0  0  0  0  0  0
   37.9410   31.6550   35.5290 H   0  0  0  0  0  0  0  0  0  0  0  0
   38.4620   33.1010   36.3620 H   0  0  0  0  0  0  0  0  0  0  0  0
   39.3710   32.6600   39.1500 C   0  0  0  0  0  0  0  0  0  0  0  0
   39.5180   32.7910   40.2350 H   0  0  0  0  0  0  0  0  0  0  0  0
   39.0590   33.6280   38.7080 H   0  0  0  0  0  0  0  0  0  0  0  0
   40.6480   32.1900   38.5810 C   0  0  0  0  0  0  0  0  0  0  0  0
   41.6080   31.3420   39.0790 C   0  0  0  0  0  0  0  0  0  0  0  0
   41.5620   30.8610   40.0280 H   0  0  0  0  0  0  0  0  0  0  0  0
   42.5960   31.2470   38.1350 C   0  0  0  0  0  0  0  0  0  0  0  0
   43.4840   30.6350   38.2710 H   0  0  0  0  0  0  0  0  0  0  0  0
   42.2090   32.0450   37.0820 C   0  0  0  0  0  0  0  0  0  0  0  0
   42.7820   32.1780   36.1820 H   0  0  0  0  0  0  0  0  0  0  0  0
   41.0530   32.5880   37.3760 O   0  0  0  0  0  0  0  0  0  0  0  0
   35.7480   29.2190   39.5850 C   0  0  0  0  0  0  0  0  0  0  0  0
   34.7490   29.4820   40.3050 O   0  0  0  0  0  0  0  0  0  0  0  0
   35.4520   27.3190   38.0550 C   0  0  0  0  0  0  0  0  0  0  0  0
   35.9360   27.8370   39.2710 C   0  0  0  0  0  0  0  0  0  0  0  0
   36.5740   26.9100   40.0750 C   0  0  0  0  0  0  0  0  0  0  0  0
   36.7290   25.6270   39.7460 N   0  0  0  0  0  0  0  0  0  0  0  0
   36.2360   25.1820   38.5470 C   0  0  0  0  0  0  0  0  0  0  0  0
   35.6090   26.0300   37.7250 N   0  0  0  0  0  0  0  0  0  0  0  0
   34.9320   27.9520   37.3400 H   0  0  0  0  0  0  0  0  0  0  0  0
   36.3520   24.1410   38.2570 H   0  0  0  0  0  0  0  0  0  0  0  0
   37.0910   27.3580   41.3290 C   0  0  0  0  0  0  0  0  0  0  0  0
   36.5940   27.5470   42.5760 C   0  0  0  0  0  0  0  0  0  0  0  0
   37.3150   27.9840   43.5800 C   0  0  0  0  0  0  0  0  0  0  0  0
   38.6020   28.2400   43.3050 C   0  0  0  0  0  0  0  0  0  0  0  0
   38.7970   27.8440   41.5420 S   0  0  0  0  0  0  0  0  0  0  0  0
   35.5170   27.2940   42.6520 H   0  0  0  0  0  0  0  0  0  0  0  0
   36.9710   28.1530   44.5930 H   0  0  0  0  0  0  0  0  0  0  0  0
   39.4410   28.6310   44.0100 H   0  0  0  0  0  0  0  0  0  0  0  0
  1 21  1  0  0  0  0
  1  2  2  0  0  0  0
  2  7  1  0  0  0  0
  3 10  1  0  0  0  0
  3  2  1  0  0  0  0
  4  5  2  0  0  0  0
  4  3  1  0  0  0  0
  5  1  1  0  0  0  0
  6  4  1  0  0  0  0
  8  6  1  0  0  0  0
  9  6  1  0  0  0  0
 10 11  1  0  0  0  0
 12 10  1  0  0  0  0
 13 14  2  0  0  0  0
 13 10  1  0  0  0  0
 14 15  1  0  0  0  0
 16 17  1  0  0  0  0
 16 14  1  0  0  0  0
 18 20  1  0  0  0  0
 18 16  2  0  0  0  0
 19 18  1  0  0  0  0
 20 13  1  0  0  0  0
 21 22  2  0  0  0  0
 23 24  1  0  0  0  0
 24 21  1  0  0  0  0
 24 25  2  0  0  0  0
 25 31  1  0  0  0  0
 26 25  1  0  0  0  0
 27 26  2  0  0  0  0
 28 23  2  0  0  0  0
 28 27  1  0  0  0  0
 29 23  1  0  0  0  0
 30 27  1  0  0  0  0
 31 35  1  0  0  0  0
 31 32  2  0  0  0  0
 32 36  1  0  0  0  0
 32 33  1  0  0  0  0
 33 37  1  0  0  0  0
 34 33  2  0  0  0  0
 34 38  1  0  0  0  0
 35 34  1  0  0  0  0
M  END
>  <minimizedAffinity>
-5.40714502

$$$$

 OpenBabel03252503203D

 38 41  0  0  0  0  0  0  0  0999 V2000
   38.0560   30.8610   41.3350 C   0  0  0  0  0  0  0  0  0  0  0  0
   39.2380   31.5440   41.3410 C   0  0  0  0  0  0  0  0  0  0  0  0
   38.9720   32.7150   40.7160 N   0  0  0  0  0  0  0  0  0  0  0  0
   37.6980   32.7390   40.3520 C   0  0  0  0  0  0  0  0  0  0  0  0
   37.1220   31.5860   40.7350 N   0  0  0  0  0  0  0  0  0  0  0  0
   36.9470   33.7380   39.6750 N   0  0  0  0  0  0  0  0  0  0  0  0
   40.1790   31.2420   41.7420 H   0  0  0  0  0  0  0  0  0  0  0  0
   36.1310   33.5250   39.0700 H   0  0  0  0  0  0  0  0  0  0  0  0
   37.1730   34.7540   39.7470 H   0  0  0  0  0  0  0  0  0  0  0  0
   39.8950   33.8140   40.4540 C   0  0  0  0  0  0  0  0  0  0  0  0
   40.5990   33.9350   41.2940 H   0  0  0  0  0  0  0  0  0  0  0  0
   39.2730   34.7300   40.3710 H   0  0  0  0  0  0  0  0  0  0  0  0
   40.6910   33.5860   39.2340 C   0  0  0  0  0  0  0  0  0  0  0  0
   41.8580   34.1590   38.7900 C   0  0  0  0  0  0  0  0  0  0  0  0
   42.4000   34.9150   39.3070 H   0  0  0  0  0  0  0  0  0  0  0  0
   42.1660   33.5760   37.5890 C   0  0  0  0  0  0  0  0  0  0  0  0
   43.0470   33.8460   37.0120 H   0  0  0  0  0  0  0  0  0  0  0  0
   41.1710   32.6580   37.3330 C   0  0  0  0  0  0  0  0  0  0  0  0
   41.1340   32.0360   36.4570 H   0  0  0  0  0  0  0  0  0  0  0  0
   40.3150   32.6870   38.3250 O   0  0  0  0  0  0  0  0  0  0  0  0
   37.8140   29.4890   41.9130 C   0  0  0  0  0  0  0  0  0  0  0  0
   37.0380   29.2420   42.8710 O   0  0  0  0  0  0  0  0  0  0  0  0
   39.5960   27.8020   42.0390 C   0  0  0  0  0  0  0  0  0  0  0  0
   38.4950   28.3600   41.3620 C   0  0  0  0  0  0  0  0  0  0  0  0
   38.1710   27.7260   40.1760 C   0  0  0  0  0  0  0  0  0  0  0  0
   38.8330   26.6730   39.6940 N   0  0  0  0  0  0  0  0  0  0  0  0
   39.8980   26.1750   40.4000 C   0  0  0  0  0  0  0  0  0  0  0  0
   40.2600   26.7440   41.5540 N   0  0  0  0  0  0  0  0  0  0  0  0
   39.9450   28.2150   42.9820 H   0  0  0  0  0  0  0  0  0  0  0  0
   40.4510   25.3180   40.0270 H   0  0  0  0  0  0  0  0  0  0  0  0
   37.0660   28.2360   39.4270 C   0  0  0  0  0  0  0  0  0  0  0  0
   35.7150   28.2100   39.5450 C   0  0  0  0  0  0  0  0  0  0  0  0
   34.9070   28.7790   38.6840 C   0  0  0  0  0  0  0  0  0  0  0  0
   35.4980   29.4060   37.6570 C   0  0  0  0  0  0  0  0  0  0  0  0
   37.2800   29.1750   37.9230 S   0  0  0  0  0  0  0  0  0  0  0  0
   35.3730   27.6560   40.4440 H   0  0  0  0  0  0  0  0  0  0  0  0
   33.8250   28.7900   38.7290 H   0  0  0  0  0  0  0  0  0  0  0  0
   35.0120   29.9810   36.7690 H   0  0  0  0  0  0  0  0  0  0  0  0
  1  2  2  0  0  0  0
  1 21  1  0  0  0  0
  2  7  1  0  0  0  0
  3  2  1  0  0  0  0
  4  3  1  0  0  0  0
  4  5  2  0  0  0  0
  5  1  1  0  0  0  0
  6  9  1  0  0  0  0
  6  4  1  0  0  0  0
  8  6  1  0  0  0  0
 10  3  1  0  0  0  0
 10 11  1  0  0  0  0
 12 10  1  0  0  0  0
 13 10  1  0  0  0  0
 14 13  2  0  0  0  0
 14 15  1  0  0  0  0
 16 14  1  0  0  0  0
 17 16  1  0  0  0  0
 18 16  2  0  0  0  0
 18 20  1  0  0  0  0
 19 18  1  0  0  0  0
 20 13  1  0  0  0  0
 21 22  2  0  0  0  0
 23 29  1  0  0  0  0
 24 21  1  0  0  0  0
 24 23  2  0  0  0  0
 25 24  1  0  0  0  0
 26 25  2  0  0  0  0
 26 27  1  0  0  0  0
 27 28  2  0  0  0  0
 28 23  1  0  0  0  0
 30 27  1  0  0  0  0
 31 32  2  0  0  0  0
 31 25  1  0  0  0  0
 32 36  1  0  0  0  0
 33 37  1  0  0  0  0
 33 32  1  0  0  0  0
 34 35  1  0  0  0  0
 34 33  2  0  0  0  0
 35 31  1  0  0  0  0
 38 34  1  0  0  0  0
M  END
>  <minimizedAffinity>
-5.38626909

$$$$

 OpenBabel03252503203D

 38 41  0  0  0  0  0  0  0  0999 V2000
   38.9150   31.8480   40.1790 C   0  0  0  0  0  0  0  0  0  0  0  0
   38.9210   30.5310   39.8220 C   0  0  0  0  0  0  0  0  0  0  0  0
   37.6980   30.0670   40.1700 N   0  0  0  0  0  0  0  0  0  0  0  0
   36.9920   31.0490   40.7080 C   0  0  0  0  0  0  0  0  0  0  0  0
   37.7450   32.1640   40.7160 N   0  0  0  0  0  0  0  0  0  0  0  0
   35.6670   31.0640   41.2220 N   0  0  0  0  0  0  0  0  0  0  0  0
   39.7050   29.9680   39.3690 H   0  0  0  0  0  0  0  0  0  0  0  0
   35.3560   31.7030   41.9800 H   0  0  0  0  0  0  0  0  0  0  0  0
   34.9200   30.4280   40.8670 H   0  0  0  0  0  0  0  0  0  0  0  0
   37.1800   28.7120   40.0060 C   0  0  0  0  0  0  0  0  0  0  0  0
   37.7390   28.1790   39.2180 H   0  0  0  0  0  0  0  0  0  0  0  0
   36.1230   28.8190   39.6880 H   0  0  0  0  0  0  0  0  0  0  0  0
   37.2970   27.9240   41.2470 C   0  0  0  0  0  0  0  0  0  0  0  0
   36.4120   27.7150   42.2760 C   0  0  0  0  0  0  0  0  0  0  0  0
   35.4320   28.1270   42.3300 H   0  0  0  0  0  0  0  0  0  0  0  0
   37.0300   26.8950   43.1830 C   0  0  0  0  0  0  0  0  0  0  0  0
   36.5520   26.5670   44.1030 H   0  0  0  0  0  0  0  0  0  0  0  0
   38.2830   26.6270   42.6780 C   0  0  0  0  0  0  0  0  0  0  0  0
   39.0110   26.0050   43.1670 H   0  0  0  0  0  0  0  0  0  0  0  0
   38.4090   27.2490   41.5320 O   0  0  0  0  0  0  0  0  0  0  0  0
   40.0510   32.8260   40.0040 C   0  0  0  0  0  0  0  0  0  0  0  0
   40.1170   33.9530   40.5590 O   0  0  0  0  0  0  0  0  0  0  0  0
   41.1170   32.8250   37.7910 C   0  0  0  0  0  0  0  0  0  0  0  0
   41.1510   32.4880   39.1570 C   0  0  0  0  0  0  0  0  0  0  0  0
   42.3010   31.8320   39.5570 C   0  0  0  0  0  0  0  0  0  0  0  0
   43.3070   31.5330   38.7340 N   0  0  0  0  0  0  0  0  0  0  0  0
   43.2160   31.8880   37.4130 C   0  0  0  0  0  0  0  0  0  0  0  0
   42.1290   32.5250   36.9650 N   0  0  0  0  0  0  0  0  0  0  0  0
   40.2640   33.3430   37.3590 H   0  0  0  0  0  0  0  0  0  0  0  0
   44.0240   31.6560   36.7250 H   0  0  0  0  0  0  0  0  0  0  0  0
   42.4100   31.4530   40.9310 C   0  0  0  0  0  0  0  0  0  0  0  0
   42.0920   30.3600   41.6670 C   0  0  0  0  0  0  0  0  0  0  0  0
   42.3080   30.2750   42.9580 C   0  0  0  0  0  0  0  0  0  0  0  0
   42.8750   31.3490   43.5260 C   0  0  0  0  0  0  0  0  0  0  0  0
   43.1110   32.5340   42.1690 S   0  0  0  0  0  0  0  0  0  0  0  0
   41.6310   29.5530   41.0620 H   0  0  0  0  0  0  0  0  0  0  0  0
   42.0760   29.4290   43.5940 H   0  0  0  0  0  0  0  0  0  0  0  0
   43.1670   31.5230   44.6390 H   0  0  0  0  0  0  0  0  0  0  0  0
  1  5  1  0  0  0  0
  2  3  1  0  0  0  0
  2  1  2  0  0  0  0
  3  4  1  0  0  0  0
  4  5  2  0  0  0  0
  4  6  1  0  0  0  0
  6  8  1  0  0  0  0
  7  2  1  0  0  0  0
  9  6  1  0  0  0  0
 10  3  1  0  0  0  0
 10 13  1  0  0  0  0
 11 10  1  0  0  0  0
 12 10  1  0  0  0  0
 13 20  1  0  0  0  0
 13 14  2  0  0  0  0
 14 15  1  0  0  0  0
 14 16  1  0  0  0  0
 16 17  1  0  0  0  0
 18 19  1  0  0  0  0
 18 16  2  0  0  0  0
 20 18  1  0  0  0  0
 21  1  1  0  0  0  0
 21 22  2  0  0  0  0
 23 24  1  0  0  0  0
 24 25  2  0  0  0  0
 24 21  1  0  0  0  0
 25 31  1  0  0  0  0
 26 25  1  0  0  0  0
 27 26  2  0  0  0  0
 28 27  1  0  0  0  0
 28 23  2  0  0  0  0
 29 23  1  0  0  0  0
 30 27  1  0  0  0  0
 31 32  2  0  0  0  0
 31 35  1  0  0  0  0
 32 33  1  0  0  0  0
 33 34  2  0  0  0  0
 33 37  1  0  0  0  0
 34 38  1  0  0  0  0
 35 34  1  0  0  0  0
 36 32  1  0  0  0  0
M  END
>  <minimizedAffinity>
-5.3858552

$$$$

 OpenBabel03252503203D

 38 41  0  0  0  0  0  0  0  0999 V2000
   38.3590   28.1640   42.7640 C   0  0  0  0  0  0  0  0  0  0  0  0
   38.3130   29.5240   42.6510 C   0  0  0  0  0  0  0  0  0  0  0  0
   39.6060   29.9210   42.6520 N   0  0  0  0  0  0  0  0  0  0  0  0
   40.3920   28.8600   42.7590 C   0  0  0  0  0  0  0  0  0  0  0  0
   39.6200   27.7610   42.8290 N   0  0  0  0  0  0  0  0  0  0  0  0
   41.8090   28.7580   42.8020 N   0  0  0  0  0  0  0  0  0  0  0  0
   37.4570   30.1560   42.5790 H   0  0  0  0  0  0  0  0  0  0  0  0
   42.3110   27.9960   43.3000 H   0  0  0  0  0  0  0  0  0  0  0  0
   42.4360   29.4470   42.3330 H   0  0  0  0  0  0  0  0  0  0  0  0
   40.1190   31.2840   42.5540 C   0  0  0  0  0  0  0  0  0  0  0  0
   41.2180   31.2890   42.6450 H   0  0  0  0  0  0  0  0  0  0  0  0
   39.6830   31.8430   43.4070 H   0  0  0  0  0  0  0  0  0  0  0  0
   39.7750   31.9100   41.2630 C   0  0  0  0  0  0  0  0  0  0  0  0
   40.0940   31.5650   39.9720 C   0  0  0  0  0  0  0  0  0  0  0  0
   40.6850   30.7240   39.6950 H   0  0  0  0  0  0  0  0  0  0  0  0
   39.5130   32.4920   39.1480 C   0  0  0  0  0  0  0  0  0  0  0  0
   39.6060   32.4590   38.0650 H   0  0  0  0  0  0  0  0  0  0  0  0
   38.8530   33.3830   39.9660 C   0  0  0  0  0  0  0  0  0  0  0  0
   38.2970   34.2320   39.6100 H   0  0  0  0  0  0  0  0  0  0  0  0
   39.0270   33.0110   41.2100 O   0  0  0  0  0  0  0  0  0  0  0  0
   37.1750   27.2310   42.8100 C   0  0  0  0  0  0  0  0  0  0  0  0
   36.2580   27.2790   43.6710 O   0  0  0  0  0  0  0  0  0  0  0  0
   37.2580   24.8570   42.1800 C   0  0  0  0  0  0  0  0  0  0  0  0
   37.0450   26.2030   41.8260 C   0  0  0  0  0  0  0  0  0  0  0  0
   36.7160   26.4010   40.4970 C   0  0  0  0  0  0  0  0  0  0  0  0
   36.6060   25.4130   39.6070 N   0  0  0  0  0  0  0  0  0  0  0  0
   36.8250   24.1230   40.0120 C   0  0  0  0  0  0  0  0  0  0  0  0
   37.1460   23.8660   41.2850 N   0  0  0  0  0  0  0  0  0  0  0  0
   37.5220   24.5770   43.1970 H   0  0  0  0  0  0  0  0  0  0  0  0
   36.7400   23.3020   39.3050 H   0  0  0  0  0  0  0  0  0  0  0  0
   36.4870   27.7410   40.0580 C   0  0  0  0  0  0  0  0  0  0  0  0
   35.5120   28.6680   40.2280 C   0  0  0  0  0  0  0  0  0  0  0  0
   35.5560   29.8640   39.6930 C   0  0  0  0  0  0  0  0  0  0  0  0
   36.6410   30.1320   38.9520 C   0  0  0  0  0  0  0  0  0  0  0  0
   37.6430   28.6180   39.0160 S   0  0  0  0  0  0  0  0  0  0  0  0
   34.6790   28.3040   40.8640 H   0  0  0  0  0  0  0  0  0  0  0  0
   34.8090   30.6420   39.7950 H   0  0  0  0  0  0  0  0  0  0  0  0
   36.9160   31.1060   38.3780 H   0  0  0  0  0  0  0  0  0  0  0  0
  1 21  1  0  0  0  0
  1  5  1  0  0  0  0
  2  3  1  0  0  0  0
  2  1  2  0  0  0  0
  3  4  1  0  0  0  0
  4  6  1  0  0  0  0
  4  5  2  0  0  0  0
  6  8  1  0  0  0  0
  7  2  1  0  0  0  0
  9  6  1  0  0  0  0
 10 11  1  0  0  0  0
 10  3  1  0  0  0  0
 10 12  1  0  0  0  0
 13 10  1  0  0  0  0
 14 13  2  0  0  0  0
 15 14  1  0  0  0  0
 16 18  2  0  0  0  0
 16 14  1  0  0  0  0
 17 16  1  0  0  0  0
 18 20  1  0  0  0  0
 19 18  1  0  0  0  0
 20 13  1  0  0  0  0
 21 22  2  0  0  0  0
 23 29  1  0  0  0  0
 24 23  1  0  0  0  0
 24 21  1  0  0  0  0
 25 24  2  0  0  0  0
 26 27  2  0  0  0  0
 26 25  1  0  0  0  0
 27 28  1  0  0  0  0
 28 23  2  0  0  0  0
 30 27  1  0  0  0  0
 31 32  2  0  0  0  0
 31 25  1  0  0  0  0
 32 36  1  0  0  0  0
 33 37  1  0  0  0  0
 33 32  1  0  0  0  0
 34 35  1  0  0  0  0
 34 33  2  0  0  0  0
 35 31  1  0  0  0  0
 38 34  1  0  0  0  0
M  END
>  <minimizedAffinity>
-5.36725235

$$$$

 OpenBabel03252503203D

 38 41  0  0  0  0  0  0  0  0999 V2000
   38.1120   29.0640   40.7040 C   0  0  0  0  0  0  0  0  0  0  0  0
   38.7150   27.8580   40.9120 C   0  0  0  0  0  0  0  0  0  0  0  0
   38.1670   27.3830   42.0550 N   0  0  0  0  0  0  0  0  0  0  0  0
   37.2820   28.2550   42.5130 C   0  0  0  0  0  0  0  0  0  0  0  0
   37.2430   29.3060   41.6740 N   0  0  0  0  0  0  0  0  0  0  0  0
   36.4530   28.2140   43.6670 N   0  0  0  0  0  0  0  0  0  0  0  0
   39.4580   27.3740   40.3200 H   0  0  0  0  0  0  0  0  0  0  0  0
   36.1330   29.0650   44.1700 H   0  0  0  0  0  0  0  0  0  0  0  0
   36.1120   27.3190   44.0810 H   0  0  0  0  0  0  0  0  0  0  0  0
   38.4630   26.1220   42.7270 C   0  0  0  0  0  0  0  0  0  0  0  0
   37.8890   26.0420   43.6660 H   0  0  0  0  0  0  0  0  0  0  0  0
   39.5460   26.1420   42.9670 H   0  0  0  0  0  0  0  0  0  0  0  0
   38.1140   24.9580   41.8920 C   0  0  0  0  0  0  0  0  0  0  0  0
   36.8970   24.4390   41.5180 C   0  0  0  0  0  0  0  0  0  0  0  0
   35.9520   24.8380   41.8020 H   0  0  0  0  0  0  0  0  0  0  0  0
   37.1460   23.3450   40.7320 C   0  0  0  0  0  0  0  0  0  0  0  0
   36.3540   22.7400   40.2960 H   0  0  0  0  0  0  0  0  0  0  0  0
   38.5160   23.2260   40.6480 C   0  0  0  0  0  0  0  0  0  0  0  0
   39.0230   22.4560   40.0950 H   0  0  0  0  0  0  0  0  0  0  0  0
   39.0590   24.1950   41.3440 O   0  0  0  0  0  0  0  0  0  0  0  0
   38.3720   30.0060   39.5540 C   0  0  0  0  0  0  0  0  0  0  0  0
   38.6560   29.6450   38.3830 O   0  0  0  0  0  0  0  0  0  0  0  0
   37.2720   32.1690   39.1710 C   0  0  0  0  0  0  0  0  0  0  0  0
   38.3020   31.4170   39.7670 C   0  0  0  0  0  0  0  0  0  0  0  0
   39.1840   32.1590   40.5330 C   0  0  0  0  0  0  0  0  0  0  0  0
   39.0850   33.4780   40.7070 N   0  0  0  0  0  0  0  0  0  0  0  0
   38.0590   34.1550   40.1010 C   0  0  0  0  0  0  0  0  0  0  0  0
   37.1740   33.4950   39.3470 N   0  0  0  0  0  0  0  0  0  0  0  0
   36.5190   31.6970   38.5460 H   0  0  0  0  0  0  0  0  0  0  0  0
   37.9590   35.2290   40.2290 H   0  0  0  0  0  0  0  0  0  0  0  0
   40.2600   31.4670   41.1690 C   0  0  0  0  0  0  0  0  0  0  0  0
   40.5210   31.0110   42.4190 C   0  0  0  0  0  0  0  0  0  0  0  0
   41.6290   30.3870   42.7400 C   0  0  0  0  0  0  0  0  0  0  0  0
   42.5120   30.2180   41.7450 C   0  0  0  0  0  0  0  0  0  0  0  0
   41.7360   30.9800   40.2890 S   0  0  0  0  0  0  0  0  0  0  0  0
   39.7000   31.2230   43.1340 H   0  0  0  0  0  0  0  0  0  0  0  0
   41.8890   30.0020   43.7180 H   0  0  0  0  0  0  0  0  0  0  0  0
   43.5550   29.7040   41.7690 H   0  0  0  0  0  0  0  0  0  0  0  0
  1  2  2  0  0  0  0
  1  5  1  0  0  0  0
  2  3  1  0  0  0  0
  3  4  1  0  0  0  0
  3 10  1  0  0  0  0
  4  6  1  0  0  0  0
  5  4  2  0  0  0  0
  6  9  1  0  0  0  0
  6  8  1  0  0  0  0
  7  2  1  0  0  0  0
 10 12  1  0  0  0  0
 10 11  1  0  0  0  0
 13 10  1  0  0  0  0
 14 15  1  0  0  0  0
 14 13  2  0  0  0  0
 16 14  1  0  0  0  0
 17 16  1  0  0  0  0
 18 16  2  0  0  0  0
 18 20  1  0  0  0  0
 19 18  1  0  0  0  0
 20 13  1  0  0  0  0
 21 24  1  0  0  0  0
 21  1  1  0  0  0  0
 22 21  2  0  0  0  0
 23 28  2  0  0  0  0
 23 24  1  0  0  0  0
 24 25  2  0  0  0  0
 25 26  1  0  0  0  0
 25 31  1  0  0  0  0
 27 30  1  0  0  0  0
 27 26  2  0  0  0  0
 28 27  1  0  0  0  0
 29 23  1  0  0  0  0
 31 32  2  0  0  0  0
 32 33  1  0  0  0  0
 32 36  1  0  0  0  0
 33 37  1  0  0  0  0
 34 38  1  0  0  0  0
 34 33  2  0  0  0  0
 35 31  1  0  0  0  0
 35 34  1  0  0  0  0
M  END
>  <minimizedAffinity>
-5.35152912

$$$$
