
 OpenBabel03242513283D

 29 31  0  0  0  0  0  0  0  0999 V2000
   37.7490   29.8250   41.7210 C   0  0  0  0  0  0  0  0  0  0  0  0
   37.3650   30.6450   40.6980 C   0  0  0  0  0  0  0  0  0  0  0  0
   36.2220   30.3240   40.0410 C   0  0  0  0  0  0  0  0  0  0  0  0
   35.4650   29.2100   40.3900 C   0  0  0  0  0  0  0  0  0  0  0  0
   35.8520   28.4050   41.4060 C   0  0  0  0  0  0  0  0  0  0  0  0
   37.0260   28.6900   42.1170 C   0  0  0  0  0  0  0  0  0  0  0  0
   35.8810   30.9460   39.2230 H   0  0  0  0  0  0  0  0  0  0  0  0
   34.5460   28.9530   39.8630 H   0  0  0  0  0  0  0  0  0  0  0  0
   35.3460   27.5190   41.7610 H   0  0  0  0  0  0  0  0  0  0  0  0
   38.5330   34.1610   40.0050 C   0  0  0  0  0  0  0  0  0  0  0  0
   37.7000   33.0750   40.3080 C   0  0  0  0  0  0  0  0  0  0  0  0
   38.1980   31.7850   40.3870 C   0  0  0  0  0  0  0  0  0  0  0  0
   39.5290   31.6600   40.1530 N   0  0  0  0  0  0  0  0  0  0  0  0
   40.3250   32.7070   39.8620 C   0  0  0  0  0  0  0  0  0  0  0  0
   39.8340   33.9520   39.7880 N   0  0  0  0  0  0  0  0  0  0  0  0
   38.0890   35.1520   39.9560 H   0  0  0  0  0  0  0  0  0  0  0  0
   36.6380   33.2590   40.4840 H   0  0  0  0  0  0  0  0  0  0  0  0
   41.3850   32.4640   39.6950 H   0  0  0  0  0  0  0  0  0  0  0  0
   38.9160   30.1030   42.4340 O   0  0  0  0  0  0  0  0  0  0  0  0
   38.8030   30.7810   43.1780 H   0  0  0  0  0  0  0  0  0  0  0  0
   37.4910   27.9220   43.1650 O   0  0  0  0  0  0  0  0  0  0  0  0
   38.2110   26.7440   43.0110 C   0  0  0  0  0  0  0  0  0  0  0  0
   39.4310   26.6790   43.6800 C   0  0  0  0  0  0  0  0  0  0  0  0
   39.9720   27.3630   44.3190 H   0  0  0  0  0  0  0  0  0  0  0  0
   39.9540   25.4180   43.3720 C   0  0  0  0  0  0  0  0  0  0  0  0
   40.8990   25.0080   43.7160 H   0  0  0  0  0  0  0  0  0  0  0  0
   39.0230   24.8050   42.5420 C   0  0  0  0  0  0  0  0  0  0  0  0
   39.1760   23.8150   42.1530 H   0  0  0  0  0  0  0  0  0  0  0  0
   38.0210   25.6270   42.3620 O   0  0  0  0  0  0  0  0  0  0  0  0
  1  6  1  0  0  0  0
  1 19  1  0  0  0  0
  2  1  2  0  0  0  0
  3  4  2  0  0  0  0
  3  2  1  0  0  0  0
  4  5  1  0  0  0  0
  5  9  1  0  0  0  0
  5  6  2  0  0  0  0
  6 21  1  0  0  0  0
  7  3  1  0  0  0  0
  8  4  1  0  0  0  0
 10 11  1  0  0  0  0
 11 12  2  0  0  0  0
 11 17  1  0  0  0  0
 12  2  1  0  0  0  0
 13 12  1  0  0  0  0
 14 13  2  0  0  0  0
 15 14  1  0  0  0  0
 15 10  2  0  0  0  0
 16 10  1  0  0  0  0
 18 14  1  0  0  0  0
 19 20  1  0  0  0  0
 22 21  1  0  0  0  0
 22 23  2  0  0  0  0
 23 24  1  0  0  0  0
 25 23  1  0  0  0  0
 25 26  1  0  0  0  0
 27 25  2  0  0  0  0
 28 27  1  0  0  0  0
 29 27  1  0  0  0  0
 29 22  1  0  0  0  0
M  END
>  <minimizedAffinity>
-5.23088169

$$$$

 OpenBabel03242513283D

 29 31  0  0  0  0  0  0  0  0999 V2000
   37.8030   30.1450   41.4600 C   0  0  0  0  0  0  0  0  0  0  0  0
   37.5660   30.9430   40.3770 C   0  0  0  0  0  0  0  0  0  0  0  0
   36.4590   30.6770   39.6380 C   0  0  0  0  0  0  0  0  0  0  0  0
   35.5950   29.6370   39.9650 C   0  0  0  0  0  0  0  0  0  0  0  0
   35.8360   28.8520   41.0410 C   0  0  0  0  0  0  0  0  0  0  0  0
   36.9660   29.0840   41.8360 C   0  0  0  0  0  0  0  0  0  0  0  0
   36.2340   31.2840   38.7710 H   0  0  0  0  0  0  0  0  0  0  0  0
   34.7050   29.4230   39.3730 H   0  0  0  0  0  0  0  0  0  0  0  0
   35.2370   28.0220   41.3860 H   0  0  0  0  0  0  0  0  0  0  0  0
   40.3420   32.9700   38.8290 C   0  0  0  0  0  0  0  0  0  0  0  0
   39.4450   31.9230   39.0800 C   0  0  0  0  0  0  0  0  0  0  0  0
   38.5060   32.0060   40.0940 C   0  0  0  0  0  0  0  0  0  0  0  0
   38.5230   33.1580   40.8110 N   0  0  0  0  0  0  0  0  0  0  0  0
   39.3880   34.1610   40.5670 C   0  0  0  0  0  0  0  0  0  0  0  0
   40.2930   34.0730   39.5830 N   0  0  0  0  0  0  0  0  0  0  0  0
   41.0580   32.8520   38.0210 H   0  0  0  0  0  0  0  0  0  0  0  0
   39.4950   31.0270   38.4570 H   0  0  0  0  0  0  0  0  0  0  0  0
   39.2930   35.0380   41.2240 H   0  0  0  0  0  0  0  0  0  0  0  0
   38.9250   30.3700   42.2580 O   0  0  0  0  0  0  0  0  0  0  0  0
   38.8040   31.0870   42.9620 H   0  0  0  0  0  0  0  0  0  0  0  0
   37.2850   28.3320   42.9490 O   0  0  0  0  0  0  0  0  0  0  0  0
   38.0040   27.1440   42.9090 C   0  0  0  0  0  0  0  0  0  0  0  0
   39.1640   27.1030   43.6800 C   0  0  0  0  0  0  0  0  0  0  0  0
   39.6570   27.8120   44.3300 H   0  0  0  0  0  0  0  0  0  0  0  0
   39.6980   25.8260   43.4750 C   0  0  0  0  0  0  0  0  0  0  0  0
   40.6080   25.4270   43.9140 H   0  0  0  0  0  0  0  0  0  0  0  0
   38.8330   25.1810   42.5990 C   0  0  0  0  0  0  0  0  0  0  0  0
   39.0090   24.1730   42.2690 H   0  0  0  0  0  0  0  0  0  0  0  0
   37.8580   25.9990   42.2990 O   0  0  0  0  0  0  0  0  0  0  0  0
  1  6  1  0  0  0  0
  1 19  1  0  0  0  0
  2  1  2  0  0  0  0
  3  4  2  0  0  0  0
  3  2  1  0  0  0  0
  4  5  1  0  0  0  0
  5  9  1  0  0  0  0
  5  6  2  0  0  0  0
  6 21  1  0  0  0  0
  7  3  1  0  0  0  0
  8  4  1  0  0  0  0
 10 11  2  0  0  0  0
 10 15  1  0  0  0  0
 11 12  1  0  0  0  0
 12  2  1  0  0  0  0
 12 13  2  0  0  0  0
 14 13  1  0  0  0  0
 14 18  1  0  0  0  0
 15 14  2  0  0  0  0
 16 10  1  0  0  0  0
 17 11  1  0  0  0  0
 19 20  1  0  0  0  0
 22 21  1  0  0  0  0
 22 23  2  0  0  0  0
 23 24  1  0  0  0  0
 25 23  1  0  0  0  0
 25 26  1  0  0  0  0
 27 25  2  0  0  0  0
 28 27  1  0  0  0  0
 29 27  1  0  0  0  0
 29 22  1  0  0  0  0
M  END
>  <minimizedAffinity>
-5.187078

$$$$

 OpenBabel03242513283D

 29 31  0  0  0  0  0  0  0  0999 V2000
   37.0680   27.4000   41.1100 C   0  0  0  0  0  0  0  0  0  0  0  0
   37.8240   26.4280   41.7020 C   0  0  0  0  0  0  0  0  0  0  0  0
   38.3220   26.6930   42.9360 C   0  0  0  0  0  0  0  0  0  0  0  0
   38.0770   27.9020   43.5800 C   0  0  0  0  0  0  0  0  0  0  0  0
   37.3260   28.8590   42.9860 C   0  0  0  0  0  0  0  0  0  0  0  0
   36.7890   28.6360   41.7120 C   0  0  0  0  0  0  0  0  0  0  0  0
   38.9270   25.9500   43.4420 H   0  0  0  0  0  0  0  0  0  0  0  0
   38.4760   28.1150   44.5720 H   0  0  0  0  0  0  0  0  0  0  0  0
   37.0730   29.8290   43.3910 H   0  0  0  0  0  0  0  0  0  0  0  0
   37.6960   22.8140   40.6370 C   0  0  0  0  0  0  0  0  0  0  0  0
   37.4680   23.9930   41.3600 C   0  0  0  0  0  0  0  0  0  0  0  0
   38.0400   25.1950   40.9770 C   0  0  0  0  0  0  0  0  0  0  0  0
   38.8210   25.1420   39.8690 N   0  0  0  0  0  0  0  0  0  0  0  0
   39.0370   24.0050   39.1780 C   0  0  0  0  0  0  0  0  0  0  0  0
   38.4800   22.8470   39.5550 N   0  0  0  0  0  0  0  0  0  0  0  0
   37.2220   21.8990   40.9820 H   0  0  0  0  0  0  0  0  0  0  0  0
   36.8260   23.9530   42.2420 H   0  0  0  0  0  0  0  0  0  0  0  0
   39.6920   24.1030   38.2990 H   0  0  0  0  0  0  0  0  0  0  0  0
   36.5290   27.1860   39.8410 O   0  0  0  0  0  0  0  0  0  0  0  0
   35.6570   26.6720   39.8370 H   0  0  0  0  0  0  0  0  0  0  0  0
   36.0140   29.5580   41.0370 O   0  0  0  0  0  0  0  0  0  0  0  0
   36.5160   30.6880   40.4060 C   0  0  0  0  0  0  0  0  0  0  0  0
   36.6370   30.6150   39.0200 C   0  0  0  0  0  0  0  0  0  0  0  0
   36.4210   29.8480   38.2890 H   0  0  0  0  0  0  0  0  0  0  0  0
   37.1550   31.8540   38.6280 C   0  0  0  0  0  0  0  0  0  0  0  0
   37.3860   32.1680   37.6140 H   0  0  0  0  0  0  0  0  0  0  0  0
   37.3140   32.5930   39.7950 C   0  0  0  0  0  0  0  0  0  0  0  0
   37.7010   33.5960   39.7820 H   0  0  0  0  0  0  0  0  0  0  0  0
   36.9250   31.8620   40.8070 O   0  0  0  0  0  0  0  0  0  0  0  0
  1  2  2  0  0  0  0
  1  6  1  0  0  0  0
  2  3  1  0  0  0  0
  3  7  1  0  0  0  0
  3  4  2  0  0  0  0
  4  8  1  0  0  0  0
  5  9  1  0  0  0  0
  5  4  1  0  0  0  0
  6  5  2  0  0  0  0
 10 16  1  0  0  0  0
 10 11  1  0  0  0  0
 11 17  1  0  0  0  0
 12 11  2  0  0  0  0
 12  2  1  0  0  0  0
 13 12  1  0  0  0  0
 14 15  1  0  0  0  0
 14 13  2  0  0  0  0
 15 10  2  0  0  0  0
 18 14  1  0  0  0  0
 19  1  1  0  0  0  0
 20 19  1  0  0  0  0
 21  6  1  0  0  0  0
 22 29  1  0  0  0  0
 22 21  1  0  0  0  0
 23 22  2  0  0  0  0
 24 23  1  0  0  0  0
 25 23  1  0  0  0  0
 25 27  2  0  0  0  0
 26 25  1  0  0  0  0
 27 29  1  0  0  0  0
 28 27  1  0  0  0  0
M  END
>  <minimizedAffinity>
-5.06692743

$$$$

 OpenBabel03242513283D

 29 31  0  0  0  0  0  0  0  0999 V2000
   37.3200   28.4400   41.0210 C   0  0  0  0  0  0  0  0  0  0  0  0
   37.6830   29.4410   41.8770 C   0  0  0  0  0  0  0  0  0  0  0  0
   37.6930   29.1510   43.2030 C   0  0  0  0  0  0  0  0  0  0  0  0
   37.3510   27.8890   43.6790 C   0  0  0  0  0  0  0  0  0  0  0  0
   36.9940   26.9040   42.8230 C   0  0  0  0  0  0  0  0  0  0  0  0
   36.9660   27.1500   41.4440 C   0  0  0  0  0  0  0  0  0  0  0  0
   37.9740   29.9150   43.9160 H   0  0  0  0  0  0  0  0  0  0  0  0
   37.3600   27.6560   44.7440 H   0  0  0  0  0  0  0  0  0  0  0  0
   36.7100   25.8930   43.0800 H   0  0  0  0  0  0  0  0  0  0  0  0
   39.5830   32.5490   40.9090 C   0  0  0  0  0  0  0  0  0  0  0  0
   39.2790   31.3000   41.4660 C   0  0  0  0  0  0  0  0  0  0  0  0
   38.0270   30.7280   41.3150 C   0  0  0  0  0  0  0  0  0  0  0  0
   37.1350   31.4610   40.6010 N   0  0  0  0  0  0  0  0  0  0  0  0
   37.4310   32.6620   40.0690 C   0  0  0  0  0  0  0  0  0  0  0  0
   38.6460   33.2070   40.2190 N   0  0  0  0  0  0  0  0  0  0  0  0
   40.5810   32.9500   41.0580 H   0  0  0  0  0  0  0  0  0  0  0  0
   40.0530   30.7720   42.0280 H   0  0  0  0  0  0  0  0  0  0  0  0
   36.6150   33.1490   39.5140 H   0  0  0  0  0  0  0  0  0  0  0  0
   37.2900   28.6770   39.6460 O   0  0  0  0  0  0  0  0  0  0  0  0
   38.1870   28.5850   39.1840 H   0  0  0  0  0  0  0  0  0  0  0  0
   36.6140   26.2020   40.5040 O   0  0  0  0  0  0  0  0  0  0  0  0
   37.3030   25.0150   40.2960 C   0  0  0  0  0  0  0  0  0  0  0  0
   36.5890   23.8420   40.5260 C   0  0  0  0  0  0  0  0  0  0  0  0
   35.5770   23.6320   40.8450 H   0  0  0  0  0  0  0  0  0  0  0  0
   37.4860   22.8030   40.2530 C   0  0  0  0  0  0  0  0  0  0  0  0
   37.2840   21.7380   40.3230 H   0  0  0  0  0  0  0  0  0  0  0  0
   38.6780   23.4110   39.8760 C   0  0  0  0  0  0  0  0  0  0  0  0
   39.5460   22.8370   39.6090 H   0  0  0  0  0  0  0  0  0  0  0  0
   38.5160   24.7080   39.9190 O   0  0  0  0  0  0  0  0  0  0  0  0
  1  6  2  0  0  0  0
  1  2  1  0  0  0  0
  2  3  2  0  0  0  0
  3  4  1  0  0  0  0
  3  7  1  0  0  0  0
  4  8  1  0  0  0  0
  5  9  1  0  0  0  0
  5  4  2  0  0  0  0
  6  5  1  0  0  0  0
 10 16  1  0  0  0  0
 10 11  1  0  0  0  0
 11 17  1  0  0  0  0
 12 11  2  0  0  0  0
 12  2  1  0  0  0  0
 13 12  1  0  0  0  0
 14 15  1  0  0  0  0
 14 13  2  0  0  0  0
 15 10  2  0  0  0  0
 18 14  1  0  0  0  0
 19  1  1  0  0  0  0
 20 19  1  0  0  0  0
 21  6  1  0  0  0  0
 22 21  1  0  0  0  0
 22 23  2  0  0  0  0
 23 24  1  0  0  0  0
 25 26  1  0  0  0  0
 25 23  1  0  0  0  0
 27 29  1  0  0  0  0
 27 25  2  0  0  0  0
 28 27  1  0  0  0  0
 29 22  1  0  0  0  0
M  END
>  <minimizedAffinity>
-4.96993923

$$$$

 OpenBabel03242513283D

 29 31  0  0  0  0  0  0  0  0999 V2000
   38.1980   27.8720   41.1440 C   0  0  0  0  0  0  0  0  0  0  0  0
   37.4740   26.8800   41.7420 C   0  0  0  0  0  0  0  0  0  0  0  0
   37.0450   27.1030   43.0100 C   0  0  0  0  0  0  0  0  0  0  0  0
   37.3240   28.2910   43.6790 C   0  0  0  0  0  0  0  0  0  0  0  0
   38.0420   29.2680   43.0780 C   0  0  0  0  0  0  0  0  0  0  0  0
   38.5100   29.0880   41.7700 C   0  0  0  0  0  0  0  0  0  0  0  0
   36.4680   26.3440   43.5220 H   0  0  0  0  0  0  0  0  0  0  0  0
   36.9790   28.4700   44.6980 H   0  0  0  0  0  0  0  0  0  0  0  0
   38.3170   30.2240   43.5000 H   0  0  0  0  0  0  0  0  0  0  0  0
   37.3530   23.2660   40.6770 C   0  0  0  0  0  0  0  0  0  0  0  0
   37.6160   24.4200   41.4290 C   0  0  0  0  0  0  0  0  0  0  0  0
   37.2190   25.6720   40.9900 C   0  0  0  0  0  0  0  0  0  0  0  0
   36.5710   25.6920   39.7970 N   0  0  0  0  0  0  0  0  0  0  0  0
   36.3230   24.5800   39.0790 C   0  0  0  0  0  0  0  0  0  0  0  0
   36.7090   23.3730   39.5120 N   0  0  0  0  0  0  0  0  0  0  0  0
   37.6870   22.3090   41.0700 H   0  0  0  0  0  0  0  0  0  0  0  0
   38.1430   24.3200   42.3800 H   0  0  0  0  0  0  0  0  0  0  0  0
   35.7880   24.7400   38.1300 H   0  0  0  0  0  0  0  0  0  0  0  0
   38.6670   27.7010   39.8400 O   0  0  0  0  0  0  0  0  0  0  0  0
   37.9930   27.9210   39.1190 H   0  0  0  0  0  0  0  0  0  0  0  0
   39.2470   30.0330   41.0840 O   0  0  0  0  0  0  0  0  0  0  0  0
   38.7840   31.3020   40.7620 C   0  0  0  0  0  0  0  0  0  0  0  0
   37.5720   31.3580   40.0790 C   0  0  0  0  0  0  0  0  0  0  0  0
   36.8780   30.6090   39.7230 H   0  0  0  0  0  0  0  0  0  0  0  0
   37.3260   32.7200   39.8740 C   0  0  0  0  0  0  0  0  0  0  0  0
   36.4670   33.1540   39.3690 H   0  0  0  0  0  0  0  0  0  0  0  0
   38.3980   33.3970   40.4440 C   0  0  0  0  0  0  0  0  0  0  0  0
   38.4640   34.4690   40.4280 H   0  0  0  0  0  0  0  0  0  0  0  0
   39.2230   32.5180   40.9500 O   0  0  0  0  0  0  0  0  0  0  0  0
  1  2  2  0  0  0  0
  1  6  1  0  0  0  0
  2  3  1  0  0  0  0
  3  7  1  0  0  0  0
  3  4  2  0  0  0  0
  4  8  1  0  0  0  0
  5  9  1  0  0  0  0
  5  4  1  0  0  0  0
  6  5  2  0  0  0  0
 10 16  1  0  0  0  0
 10 11  1  0  0  0  0
 11 17  1  0  0  0  0
 12 11  2  0  0  0  0
 12  2  1  0  0  0  0
 13 12  1  0  0  0  0
 14 15  1  0  0  0  0
 14 13  2  0  0  0  0
 15 10  2  0  0  0  0
 18 14  1  0  0  0  0
 19  1  1  0  0  0  0
 20 19  1  0  0  0  0
 21  6  1  0  0  0  0
 22 29  1  0  0  0  0
 22 21  1  0  0  0  0
 23 22  2  0  0  0  0
 24 23  1  0  0  0  0
 25 23  1  0  0  0  0
 25 27  2  0  0  0  0
 26 25  1  0  0  0  0
 27 29  1  0  0  0  0
 28 27  1  0  0  0  0
M  END
>  <minimizedAffinity>
-4.92189026

$$$$

 OpenBabel03242513283D

 29 31  0  0  0  0  0  0  0  0999 V2000
   38.5230   31.3320   40.6030 C   0  0  0  0  0  0  0  0  0  0  0  0
   39.0610   31.8500   39.4590 C   0  0  0  0  0  0  0  0  0  0  0  0
   38.3300   31.7370   38.3210 C   0  0  0  0  0  0  0  0  0  0  0  0
   37.0810   31.1210   38.3130 C   0  0  0  0  0  0  0  0  0  0  0  0
   36.5560   30.6120   39.4510 C   0  0  0  0  0  0  0  0  0  0  0  0
   37.2710   30.7020   40.6530 C   0  0  0  0  0  0  0  0  0  0  0  0
   38.7180   32.1330   37.3920 H   0  0  0  0  0  0  0  0  0  0  0  0
   36.4930   31.0310   37.3990 H   0  0  0  0  0  0  0  0  0  0  0  0
   35.6020   30.1160   39.5600 H   0  0  0  0  0  0  0  0  0  0  0  0
   42.7070   32.6450   38.9260 C   0  0  0  0  0  0  0  0  0  0  0  0
   41.4580   32.0160   38.8280 C   0  0  0  0  0  0  0  0  0  0  0  0
   40.3620   32.4760   39.5390 C   0  0  0  0  0  0  0  0  0  0  0  0
   40.5890   33.5610   40.3220 N   0  0  0  0  0  0  0  0  0  0  0  0
   41.7920   34.1610   40.4130 C   0  0  0  0  0  0  0  0  0  0  0  0
   42.8470   33.7100   39.7210 N   0  0  0  0  0  0  0  0  0  0  0  0
   43.5330   32.2420   38.3460 H   0  0  0  0  0  0  0  0  0  0  0  0
   41.3570   31.1470   38.1760 H   0  0  0  0  0  0  0  0  0  0  0  0
   41.8370   35.0320   41.0840 H   0  0  0  0  0  0  0  0  0  0  0  0
   39.2290   31.4180   41.8040 O   0  0  0  0  0  0  0  0  0  0  0  0
   39.1200   32.2980   42.2930 H   0  0  0  0  0  0  0  0  0  0  0  0
   36.8080   30.2090   41.8570 O   0  0  0  0  0  0  0  0  0  0  0  0
   37.2830   29.0530   42.4620 C   0  0  0  0  0  0  0  0  0  0  0  0
   36.5690   27.8860   42.2000 C   0  0  0  0  0  0  0  0  0  0  0  0
   35.6920   27.6620   41.6100 H   0  0  0  0  0  0  0  0  0  0  0  0
   37.2330   26.8800   42.9100 C   0  0  0  0  0  0  0  0  0  0  0  0
   36.9630   25.8280   42.9480 H   0  0  0  0  0  0  0  0  0  0  0  0
   38.3000   27.4980   43.5520 C   0  0  0  0  0  0  0  0  0  0  0  0
   38.9820   26.9490   44.1740 H   0  0  0  0  0  0  0  0  0  0  0  0
   38.2820   28.7720   43.2550 O   0  0  0  0  0  0  0  0  0  0  0  0
  1  6  1  0  0  0  0
  1 19  1  0  0  0  0
  2 12  1  0  0  0  0
  2  1  2  0  0  0  0
  3  2  1  0  0  0  0
  4  3  2  0  0  0  0
  4  5  1  0  0  0  0
  5  9  1  0  0  0  0
  5  6  2  0  0  0  0
  6 21  1  0  0  0  0
  7  3  1  0  0  0  0
  8  4  1  0  0  0  0
 10 15  1  0  0  0  0
 11 10  2  0  0  0  0
 11 12  1  0  0  0  0
 12 13  2  0  0  0  0
 13 14  1  0  0  0  0
 14 18  1  0  0  0  0
 15 14  2  0  0  0  0
 16 10  1  0  0  0  0
 17 11  1  0  0  0  0
 19 20  1  0  0  0  0
 21 22  1  0  0  0  0
 22 29  1  0  0  0  0
 23 22  2  0  0  0  0
 23 25  1  0  0  0  0
 24 23  1  0  0  0  0
 25 26  1  0  0  0  0
 25 27  2  0  0  0  0
 27 28  1  0  0  0  0
 29 27  1  0  0  0  0
M  END
>  <minimizedAffinity>
-4.86363459

$$$$

 OpenBabel03242513283D

 29 31  0  0  0  0  0  0  0  0999 V2000
   38.9240   28.1710   41.7380 C   0  0  0  0  0  0  0  0  0  0  0  0
   39.1680   27.4500   42.8730 C   0  0  0  0  0  0  0  0  0  0  0  0
   38.1090   27.1800   43.6780 C   0  0  0  0  0  0  0  0  0  0  0  0
   36.8250   27.6160   43.3670 C   0  0  0  0  0  0  0  0  0  0  0  0
   36.5920   28.3290   42.2410 C   0  0  0  0  0  0  0  0  0  0  0  0
   37.6510   28.6350   41.3760 C   0  0  0  0  0  0  0  0  0  0  0  0
   38.2580   26.6120   44.5870 H   0  0  0  0  0  0  0  0  0  0  0  0
   35.9740   27.3990   44.0140 H   0  0  0  0  0  0  0  0  0  0  0  0
   35.6410   28.7150   41.9020 H   0  0  0  0  0  0  0  0  0  0  0  0
   42.2420   25.3230   43.3610 C   0  0  0  0  0  0  0  0  0  0  0  0
   40.9170   25.7000   43.1030 C   0  0  0  0  0  0  0  0  0  0  0  0
   40.5270   27.0290   43.1350 C   0  0  0  0  0  0  0  0  0  0  0  0
   41.5090   27.9180   43.4310 N   0  0  0  0  0  0  0  0  0  0  0  0
   42.7800   27.5490   43.6790 C   0  0  0  0  0  0  0  0  0  0  0  0
   43.1500   26.2620   43.6450 N   0  0  0  0  0  0  0  0  0  0  0  0
   42.4930   24.2670   43.3220 H   0  0  0  0  0  0  0  0  0  0  0  0
   40.1850   24.9240   42.8710 H   0  0  0  0  0  0  0  0  0  0  0  0
   43.4760   28.3720   43.9060 H   0  0  0  0  0  0  0  0  0  0  0  0
   39.9730   28.4790   40.8710 O   0  0  0  0  0  0  0  0  0  0  0  0
   40.2030   27.7460   40.2120 H   0  0  0  0  0  0  0  0  0  0  0  0
   37.5000   29.3560   40.2080 O   0  0  0  0  0  0  0  0  0  0  0  0
   37.5740   30.7400   40.1300 C   0  0  0  0  0  0  0  0  0  0  0  0
   37.1180   31.3130   38.9450 C   0  0  0  0  0  0  0  0  0  0  0  0
   36.7020   30.9120   38.0310 H   0  0  0  0  0  0  0  0  0  0  0  0
   37.2940   32.6910   39.1090 C   0  0  0  0  0  0  0  0  0  0  0  0
   37.0500   33.4660   38.3880 H   0  0  0  0  0  0  0  0  0  0  0  0
   37.8420   32.8630   40.3750 C   0  0  0  0  0  0  0  0  0  0  0  0
   38.0810   33.8370   40.7620 H   0  0  0  0  0  0  0  0  0  0  0  0
   37.9860   31.6870   40.9300 O   0  0  0  0  0  0  0  0  0  0  0  0
  1  2  1  0  0  0  0
  2 12  1  0  0  0  0
  2  3  2  0  0  0  0
  3  7  1  0  0  0  0
  4  3  1  0  0  0  0
  4  8  1  0  0  0  0
  5  4  2  0  0  0  0
  6  1  2  0  0  0  0
  6  5  1  0  0  0  0
  9  5  1  0  0  0  0
 10 15  1  0  0  0  0
 11 12  1  0  0  0  0
 11 10  2  0  0  0  0
 12 13  2  0  0  0  0
 13 14  1  0  0  0  0
 14 18  1  0  0  0  0
 15 14  2  0  0  0  0
 16 10  1  0  0  0  0
 17 11  1  0  0  0  0
 19  1  1  0  0  0  0
 20 19  1  0  0  0  0
 21  6  1  0  0  0  0
 22 21  1  0  0  0  0
 22 29  1  0  0  0  0
 23 25  1  0  0  0  0
 23 22  2  0  0  0  0
 24 23  1  0  0  0  0
 25 27  2  0  0  0  0
 26 25  1  0  0  0  0
 27 28  1  0  0  0  0
 27 29  1  0  0  0  0
M  END
>  <minimizedAffinity>
-4.7679491

$$$$

 OpenBabel03242513283D

 29 31  0  0  0  0  0  0  0  0999 V2000
   37.6240   29.5530   40.7500 C   0  0  0  0  0  0  0  0  0  0  0  0
   37.3800   30.4750   39.7730 C   0  0  0  0  0  0  0  0  0  0  0  0
   36.4840   30.1400   38.8110 C   0  0  0  0  0  0  0  0  0  0  0  0
   35.8340   28.9090   38.8140 C   0  0  0  0  0  0  0  0  0  0  0  0
   36.0810   28.0010   39.7870 C   0  0  0  0  0  0  0  0  0  0  0  0
   36.9990   28.2980   40.8030 C   0  0  0  0  0  0  0  0  0  0  0  0
   36.2610   30.8410   38.0170 H   0  0  0  0  0  0  0  0  0  0  0  0
   35.1140   28.6390   38.0410 H   0  0  0  0  0  0  0  0  0  0  0  0
   35.6380   27.0210   39.8870 H   0  0  0  0  0  0  0  0  0  0  0  0
   38.1550   34.1600   39.9550 C   0  0  0  0  0  0  0  0  0  0  0  0
   37.4400   32.9560   39.9000 C   0  0  0  0  0  0  0  0  0  0  0  0
   38.0890   31.7340   39.8300 C   0  0  0  0  0  0  0  0  0  0  0  0
   39.4450   31.7950   39.8200 N   0  0  0  0  0  0  0  0  0  0  0  0
   40.1270   32.9550   39.8720 C   0  0  0  0  0  0  0  0  0  0  0  0
   39.4910   34.1330   39.9400 N   0  0  0  0  0  0  0  0  0  0  0  0
   37.5950   35.0890   40.0080 H   0  0  0  0  0  0  0  0  0  0  0  0
   36.3490   32.9910   39.9130 H   0  0  0  0  0  0  0  0  0  0  0  0
   41.2240   32.8610   39.8560 H   0  0  0  0  0  0  0  0  0  0  0  0
   38.5360   29.8410   41.7670 O   0  0  0  0  0  0  0  0  0  0  0  0
   38.1530   30.3770   42.5350 H   0  0  0  0  0  0  0  0  0  0  0  0
   37.3080   27.4300   41.8310 O   0  0  0  0  0  0  0  0  0  0  0  0
   37.7950   26.1420   41.6470 C   0  0  0  0  0  0  0  0  0  0  0  0
   36.9490   25.1060   42.0350 C   0  0  0  0  0  0  0  0  0  0  0  0
   35.9580   25.0700   42.4670 H   0  0  0  0  0  0  0  0  0  0  0  0
   37.6530   23.9300   41.7540 C   0  0  0  0  0  0  0  0  0  0  0  0
   37.3090   22.9130   41.9250 H   0  0  0  0  0  0  0  0  0  0  0  0
   38.8720   24.3270   41.2170 C   0  0  0  0  0  0  0  0  0  0  0  0
   39.6150   23.6150   40.9100 H   0  0  0  0  0  0  0  0  0  0  0  0
   38.9020   25.6340   41.1770 O   0  0  0  0  0  0  0  0  0  0  0  0
  1  6  1  0  0  0  0
  1 19  1  0  0  0  0
  2 12  1  0  0  0  0
  2  1  2  0  0  0  0
  3  4  2  0  0  0  0
  3  2  1  0  0  0  0
  4  5  1  0  0  0  0
  5  9  1  0  0  0  0
  5  6  2  0  0  0  0
  6 21  1  0  0  0  0
  7  3  1  0  0  0  0
  8  4  1  0  0  0  0
 10 16  1  0  0  0  0
 11 17  1  0  0  0  0
 11 10  2  0  0  0  0
 12 11  1  0  0  0  0
 13 12  2  0  0  0  0
 13 14  1  0  0  0  0
 14 15  2  0  0  0  0
 15 10  1  0  0  0  0
 18 14  1  0  0  0  0
 19 20  1  0  0  0  0
 22 21  1  0  0  0  0
 22 23  2  0  0  0  0
 23 24  1  0  0  0  0
 25 26  1  0  0  0  0
 25 23  1  0  0  0  0
 27 25  2  0  0  0  0
 28 27  1  0  0  0  0
 29 27  1  0  0  0  0
 29 22  1  0  0  0  0
M  END
>  <minimizedAffinity>
-4.76599598

$$$$

 OpenBabel03242513283D

 29 31  0  0  0  0  0  0  0  0999 V2000
   38.1060   28.9860   41.5150 C   0  0  0  0  0  0  0  0  0  0  0  0
   37.2050   28.0300   41.1410 C   0  0  0  0  0  0  0  0  0  0  0  0
   35.9920   28.4550   40.7050 C   0  0  0  0  0  0  0  0  0  0  0  0
   35.6730   29.8080   40.6360 C   0  0  0  0  0  0  0  0  0  0  0  0
   36.5720   30.7480   41.0080 C   0  0  0  0  0  0  0  0  0  0  0  0
   37.8380   30.3620   41.4670 C   0  0  0  0  0  0  0  0  0  0  0  0
   35.2480   27.7310   40.3990 H   0  0  0  0  0  0  0  0  0  0  0  0
   34.6990   30.1490   40.2850 H   0  0  0  0  0  0  0  0  0  0  0  0
   36.4330   31.8200   40.9960 H   0  0  0  0  0  0  0  0  0  0  0  0
   37.3910   24.4060   42.1620 C   0  0  0  0  0  0  0  0  0  0  0  0
   36.9830   25.7450   42.0920 C   0  0  0  0  0  0  0  0  0  0  0  0
   37.6020   26.6420   41.2380 C   0  0  0  0  0  0  0  0  0  0  0  0
   38.6140   26.1330   40.4910 N   0  0  0  0  0  0  0  0  0  0  0  0
   39.0020   24.8450   40.5630 C   0  0  0  0  0  0  0  0  0  0  0  0
   38.3970   23.9830   41.3910 N   0  0  0  0  0  0  0  0  0  0  0  0
   36.8700   23.7450   42.8490 H   0  0  0  0  0  0  0  0  0  0  0  0
   36.1600   26.0780   42.7260 H   0  0  0  0  0  0  0  0  0  0  0  0
   39.8360   24.5640   39.9020 H   0  0  0  0  0  0  0  0  0  0  0  0
   39.3700   28.6100   41.9730 O   0  0  0  0  0  0  0  0  0  0  0  0
   40.0450   28.4290   41.2410 H   0  0  0  0  0  0  0  0  0  0  0  0
   38.8130   31.2560   41.8640 O   0  0  0  0  0  0  0  0  0  0  0  0
   39.2610   32.3190   41.0910 C   0  0  0  0  0  0  0  0  0  0  0  0
   40.5030   32.1540   40.4830 C   0  0  0  0  0  0  0  0  0  0  0  0
   41.2320   31.3560   40.4740 H   0  0  0  0  0  0  0  0  0  0  0  0
   40.7270   33.3390   39.7730 C   0  0  0  0  0  0  0  0  0  0  0  0
   41.5990   33.5790   39.1720 H   0  0  0  0  0  0  0  0  0  0  0  0
   39.6120   34.1390   39.9960 C   0  0  0  0  0  0  0  0  0  0  0  0
   39.5220   35.1190   39.5620 H   0  0  0  0  0  0  0  0  0  0  0  0
   38.7840   33.4930   40.7750 O   0  0  0  0  0  0  0  0  0  0  0  0
  1 19  1  0  0  0  0
  2 12  1  0  0  0  0
  2  1  2  0  0  0  0
  3  2  1  0  0  0  0
  4  3  2  0  0  0  0
  4  5  1  0  0  0  0
  5  6  2  0  0  0  0
  6  1  1  0  0  0  0
  6 21  1  0  0  0  0
  7  3  1  0  0  0  0
  8  4  1  0  0  0  0
  9  5  1  0  0  0  0
 10 16  1  0  0  0  0
 11 10  1  0  0  0  0
 11 17  1  0  0  0  0
 12 11  2  0  0  0  0
 13 14  2  0  0  0  0
 13 12  1  0  0  0  0
 14 15  1  0  0  0  0
 15 10  2  0  0  0  0
 18 14  1  0  0  0  0
 20 19  1  0  0  0  0
 22 21  1  0  0  0  0
 23 22  2  0  0  0  0
 24 23  1  0  0  0  0
 25 27  2  0  0  0  0
 25 23  1  0  0  0  0
 26 25  1  0  0  0  0
 27 29  1  0  0  0  0
 28 27  1  0  0  0  0
 29 22  1  0  0  0  0
M  END
>  <minimizedAffinity>
-4.73418331

$$$$
