
 OpenBabel03242523113D

 45 49  0  0  1  0  0  0  0  0999 V2000
   45.2200   36.0330   43.4500 C   0  0  0  0  0  0  0  0  0  0  0  0
   46.0300   34.9190   43.2170 C   0  0  0  0  0  0  0  0  0  0  0  0
   46.1210   33.9490   44.1690 C   0  0  0  0  0  0  0  0  0  0  0  0
   45.4000   34.1320   45.3180 N   0  0  0  0  0  0  0  0  0  0  0  0
   44.6250   35.2010   45.5400 C   0  0  0  0  0  0  0  0  0  0  0  0
   44.5420   36.1280   44.6180 N   0  0  0  0  0  0  0  0  0  0  0  0
   45.1430   36.8090   42.6940 H   0  0  0  0  0  0  0  0  0  0  0  0
   44.0360   35.3990   46.4240 H   0  0  0  0  0  0  0  0  0  0  0  0
   46.7310   34.8800   42.0120 N   0  0  0  0  0  0  0  0  0  0  0  0
   48.0170   35.4840   41.8650 C   0  0  0  0  0  0  0  0  0  0  0  0
   48.7020   35.2010   40.5600 C   0  0  0  0  0  0  0  0  0  0  0  0
   48.5510   33.8960   40.0800 N   0  0  0  0  0  0  0  0  0  0  0  0
   47.2970   33.3360   40.1910 C   0  0  0  0  0  0  0  0  0  0  0  0
   46.2900   34.2740   40.8200 C   0  0  0  0  0  0  0  0  0  0  0  0
   48.7090   35.2730   42.7180 H   0  0  0  0  0  0  0  0  0  0  0  0
   47.8530   36.5950   41.9060 H   0  0  0  0  0  0  0  0  0  0  0  0
   48.3400   35.9330   39.7950 H   0  0  0  0  0  0  0  0  0  0  0  0
   49.7800   35.4610   40.7000 H   0  0  0  0  0  0  0  0  0  0  0  0
   49.3880   33.2970   40.1950 H   0  0  0  0  0  0  0  0  0  0  0  0
   47.2320   32.3630   40.7240 H   0  0  0  0  0  0  0  0  0  0  0  0
   46.8920   33.1180   39.1600 H   0  0  0  0  0  0  0  0  0  0  0  0
   45.3820   33.6430   41.0310 H   0  0  0  0  0  0  0  0  0  0  0  0
   45.9540   35.0400   40.0860 H   0  0  0  0  0  0  0  0  0  0  0  0
   46.3650   31.9020   45.2980 C   0  0  0  0  0  0  0  0  0  0  0  0
   46.8120   32.7390   44.2540 C   0  0  0  0  0  0  0  0  0  0  0  0
   47.8750   32.1770   43.5890 C   0  0  0  0  0  0  0  0  0  0  0  0
   48.4530   30.9780   43.8690 C   0  0  0  0  0  0  0  0  0  0  0  0
   47.9520   30.2190   44.9200 C   0  0  0  0  0  0  0  0  0  0  0  0
   46.8940   30.6890   45.6410 C   0  0  0  0  0  0  0  0  0  0  0  0
   48.7500   29.0840   44.9450 O   0  0  0  0  0  0  0  0  0  0  0  0
   49.6940   29.1240   43.8910 C   0  0  2  0  0  0  0  0  0  0  0  0
   49.5200   30.3710   43.2260 O   0  0  0  0  0  0  0  0  0  0  0  0
   45.5260   32.0510   46.0130 H   0  0  0  0  0  0  0  0  0  0  0  0
   48.2230   32.7820   42.8090 H   0  0  0  0  0  0  0  0  0  0  0  0
   46.5940   30.0220   46.4180 H   0  0  0  0  0  0  0  0  0  0  0  0
   50.7360   29.0290   44.2210 H   0  0  0  0  0  0  0  0  0  0  0  0
   49.3520   28.0840   43.0120 O   0  0  0  0  0  0  0  0  0  0  0  0
   49.1390   28.2080   41.6480 C   0  0  0  0  0  0  0  0  0  0  0  0
   47.8040   28.1640   41.2320 C   0  0  0  0  0  0  0  0  0  0  0  0
   46.8350   28.0540   41.7030 H   0  0  0  0  0  0  0  0  0  0  0  0
   47.8490   28.3070   39.8400 C   0  0  0  0  0  0  0  0  0  0  0  0
   47.1120   28.3410   39.0260 H   0  0  0  0  0  0  0  0  0  0  0  0
   49.1920   28.4270   39.5030 C   0  0  0  0  0  0  0  0  0  0  0  0
   49.6490   28.5540   38.5310 H   0  0  0  0  0  0  0  0  0  0  0  0
   49.9060   28.3630   40.5940 O   0  0  0  0  0  0  0  0  0  0  0  0
  1  6  1  0  0  0  0
  2  1  2  0  0  0  0
  2  3  1  0  0  0  0
  3 25  1  0  0  0  0
  3  4  2  0  0  0  0
  4  5  1  0  0  0  0
  5  8  1  0  0  0  0
  6  5  2  0  0  0  0
  7  1  1  0  0  0  0
  9  2  1  0  0  0  0
 10 16  1  0  0  0  0
 10  9  1  0  0  0  0
 10 15  1  0  0  0  0
 11 18  1  0  0  0  0
 11 10  1  0  0  0  0
 12 13  1  0  0  0  0
 12 19  1  0  0  0  0
 12 11  1  0  0  0  0
 13 20  1  0  0  0  0
 13 14  1  0  0  0  0
 14 22  1  0  0  0  0
 14  9  1  0  0  0  0
 17 11  1  0  0  0  0
 21 13  1  0  0  0  0
 23 14  1  0  0  0  0
 24 29  1  0  0  0  0
 24 33  1  0  0  0  0
 25 24  2  0  0  0  0
 26 27  2  0  0  0  0
 26 25  1  0  0  0  0
 27 28  1  0  0  0  0
 28 30  1  0  0  0  0
 28 29  2  0  0  0  0
 29 35  1  0  0  0  0
 31 36  1  1  0  0  0
 31 30  1  0  0  0  0
 32 27  1  0  0  0  0
 32 31  1  0  0  0  0
 34 26  1  0  0  0  0
 37 31  1  0  0  0  0
 38 37  1  0  0  0  0
 39 38  2  0  0  0  0
 39 40  1  0  0  0  0
 41 39  1  0  0  0  0
 42 41  1  0  0  0  0
 43 41  2  0  0  0  0
 43 45  1  0  0  0  0
 44 43  1  0  0  0  0
 45 38  1  0  0  0  0
M  END
>  <minimizedAffinity>
-4.71231842

>  <minimizedRMSD>
1.52640867

$$$$
