
 OpenBabel03252503343D

 21 22  0  0  0  0  0  0  0  0999 V2000
   46.2250   33.9640   40.9180 C   0  0  0  0  0  0  0  0  0  0  0  0
   45.1780   33.3180   41.1870 O   0  0  0  0  0  0  0  0  0  0  0  0
   46.7140   34.7950   41.9610 N   0  0  0  0  0  0  0  0  0  0  0  0
   47.6010   35.3480   41.7900 H   0  0  0  0  0  0  0  0  0  0  0  0
   44.4870   35.9280   44.7350 C   0  0  0  0  0  0  0  0  0  0  0  0
   45.1190   35.9060   43.4770 C   0  0  0  0  0  0  0  0  0  0  0  0
   46.0330   34.8870   43.2090 C   0  0  0  0  0  0  0  0  0  0  0  0
   46.2810   33.9520   44.1680 N   0  0  0  0  0  0  0  0  0  0  0  0
   45.6430   34.0110   45.3810 C   0  0  0  0  0  0  0  0  0  0  0  0
   44.7660   34.9840   45.6450 N   0  0  0  0  0  0  0  0  0  0  0  0
   43.7980   36.7650   44.8330 H   0  0  0  0  0  0  0  0  0  0  0  0
   44.9270   36.6460   42.7090 H   0  0  0  0  0  0  0  0  0  0  0  0
   45.8650   33.2450   46.1270 H   0  0  0  0  0  0  0  0  0  0  0  0
   46.8810   33.8580   39.6190 C   0  0  0  0  0  0  0  0  0  0  0  0
   48.1210   34.3950   39.3570 C   0  0  0  0  0  0  0  0  0  0  0  0
   48.8260   34.9520   39.9540 H   0  0  0  0  0  0  0  0  0  0  0  0
   48.3650   34.0700   38.0240 C   0  0  0  0  0  0  0  0  0  0  0  0
   49.2120   34.2740   37.3650 H   0  0  0  0  0  0  0  0  0  0  0  0
   47.2580   33.3530   37.5580 C   0  0  0  0  0  0  0  0  0  0  0  0
   47.0320   32.9100   36.5790 H   0  0  0  0  0  0  0  0  0  0  0  0
   46.4090   33.2670   38.5710 O   0  0  0  0  0  0  0  0  0  0  0  0
  1  2  2  0  0  0  0
  1  3  1  0  0  0  0
  3  7  1  0  0  0  0
  4  3  1  0  0  0  0
  5 11  1  0  0  0  0
  5 10  1  0  0  0  0
  6  5  2  0  0  0  0
  7  6  1  0  0  0  0
  7  8  2  0  0  0  0
  8  9  1  0  0  0  0
  9 10  2  0  0  0  0
  9 13  1  0  0  0  0
 12  6  1  0  0  0  0
 14  1  1  0  0  0  0
 15 14  2  0  0  0  0
 15 16  1  0  0  0  0
 17 15  1  0  0  0  0
 18 17  1  0  0  0  0
 19 17  2  0  0  0  0
 19 21  1  0  0  0  0
 20 19  1  0  0  0  0
 21 14  1  0  0  0  0
M  END
>  <minimizedAffinity>
-4.28044033

>  <minimizedRMSD>
0.386543125

$$$$
