
 OpenBabel03242521573D

 47 51  0  0  0  0  0  0  0  0999 V2000
   36.5900   27.0140   39.8490 C   0  0  0  0  0  0  0  0  0  0  0  0
   36.6420   25.6220   39.8320 C   0  0  0  0  0  0  0  0  0  0  0  0
   36.9700   24.8580   40.9580 C   0  0  0  0  0  0  0  0  0  0  0  0
   37.2600   25.4630   42.1480 C   0  0  0  0  0  0  0  0  0  0  0  0
   37.2240   26.8740   42.1930 C   0  0  0  0  0  0  0  0  0  0  0  0
   37.5750   27.4380   43.3770 C   0  0  0  0  0  0  0  0  0  0  0  0
   37.6230   28.8300   43.4320 C   0  0  0  0  0  0  0  0  0  0  0  0
   37.3120   29.5800   42.2420 C   0  0  0  0  0  0  0  0  0  0  0  0
   36.9760   28.8560   41.1210 C   0  0  0  0  0  0  0  0  0  0  0  0
   36.8920   27.5400   41.0120 C   0  0  0  0  0  0  0  0  0  0  0  0
   36.4080   25.1230   38.8760 H   0  0  0  0  0  0  0  0  0  0  0  0
   36.9890   23.7850   40.8650 H   0  0  0  0  0  0  0  0  0  0  0  0
   37.5080   24.8830   43.0200 H   0  0  0  0  0  0  0  0  0  0  0  0
   37.8050   26.8270   44.2400 H   0  0  0  0  0  0  0  0  0  0  0  0
   37.9030   29.2100   44.4040 H   0  0  0  0  0  0  0  0  0  0  0  0
   37.4300   30.5980   42.5780 H   0  0  0  0  0  0  0  0  0  0  0  0
   38.5610   30.0100   39.8600 C   0  0  0  0  0  0  0  0  0  0  0  0
   37.1650   29.9970   40.2510 C   0  0  0  0  0  0  0  0  0  0  0  0
   36.5500   31.0920   39.8110 C   0  0  0  0  0  0  0  0  0  0  0  0
   37.1280   32.1130   39.0880 C   0  0  0  0  0  0  0  0  0  0  0  0
   38.4480   32.1060   38.7320 C   0  0  0  0  0  0  0  0  0  0  0  0
   39.1750   31.0140   39.1370 C   0  0  0  0  0  0  0  0  0  0  0  0
   35.5040   30.9930   40.1490 H   0  0  0  0  0  0  0  0  0  0  0  0
   36.4510   32.9060   38.8320 H   0  0  0  0  0  0  0  0  0  0  0  0
   38.8330   32.9330   38.1710 H   0  0  0  0  0  0  0  0  0  0  0  0
   39.5270   29.0050   40.1450 O   0  0  0  0  0  0  0  0  0  0  0  0
   39.9420   29.1290   41.0640 H   0  0  0  0  0  0  0  0  0  0  0  0
   40.4980   31.0650   38.7530 O   0  0  0  0  0  0  0  0  0  0  0  0
   41.2340   32.2330   38.6830 C   0  0  0  0  0  0  0  0  0  0  0  0
   41.7790   33.1170   39.5720 C   0  0  0  0  0  0  0  0  0  0  0  0
   41.6660   32.9570   40.6160 H   0  0  0  0  0  0  0  0  0  0  0  0
   42.3990   34.0840   38.8100 C   0  0  0  0  0  0  0  0  0  0  0  0
   42.9200   34.9190   39.2310 H   0  0  0  0  0  0  0  0  0  0  0  0
   42.2120   33.7600   37.4860 C   0  0  0  0  0  0  0  0  0  0  0  0
   42.5500   34.2790   36.6230 H   0  0  0  0  0  0  0  0  0  0  0  0
   41.5130   32.6500   37.4620 O   0  0  0  0  0  0  0  0  0  0  0  0
   34.5430   29.0040   37.4470 C   0  0  0  0  0  0  0  0  0  0  0  0
   35.4970   29.1960   36.4200 C   0  0  0  0  0  0  0  0  0  0  0  0
   36.7270   28.6180   36.6150 C   0  0  0  0  0  0  0  0  0  0  0  0
   36.8660   27.9510   37.7570 N   0  0  0  0  0  0  0  0  0  0  0  0
   36.0000   27.7500   38.7440 C   0  0  0  0  0  0  0  0  0  0  0  0
   34.8370   28.2980   38.5450 N   0  0  0  0  0  0  0  0  0  0  0  0
   33.5690   29.4520   37.3070 H   0  0  0  0  0  0  0  0  0  0  0  0
   35.2740   29.7610   35.5360 H   0  0  0  0  0  0  0  0  0  0  0  0
   37.7520   28.6750   35.6390 N   0  0  0  0  0  0  0  0  0  0  0  0
   38.0040   29.5020   35.0610 H   0  0  0  0  0  0  0  0  0  0  0  0
   38.3110   27.8110   35.4800 H   0  0  0  0  0  0  0  0  0  0  0  0
  1 10  1  0  0  0  0
  2  1  2  0  0  0  0
  2  3  1  0  0  0  0
  3  4  2  0  0  0  0
  4  5  1  0  0  0  0
  4 13  1  0  0  0  0
  5  6  1  0  0  0  0
  6  7  2  0  0  0  0
  6 14  1  0  0  0  0
  7 15  1  0  0  0  0
  8 16  1  0  0  0  0
  8  7  1  0  0  0  0
  9  8  2  0  0  0  0
 10  9  1  0  0  0  0
 10  5  2  0  0  0  0
 11  2  1  0  0  0  0
 12  3  1  0  0  0  0
 17 26  1  0  0  0  0
 17 18  1  0  0  0  0
 18  9  1  0  0  0  0
 19 23  1  0  0  0  0
 19 18  2  0  0  0  0
 20 19  1  0  0  0  0
 21 20  2  0  0  0  0
 21 22  1  0  0  0  0
 22 17  2  0  0  0  0
 24 20  1  0  0  0  0
 25 21  1  0  0  0  0
 26 27  1  0  0  0  0
 28 22  1  0  0  0  0
 29 28  1  0  0  0  0
 29 30  2  0  0  0  0
 30 31  1  0  0  0  0
 32 33  1  0  0  0  0
 32 30  1  0  0  0  0
 34 32  2  0  0  0  0
 35 34  1  0  0  0  0
 36 34  1  0  0  0  0
 36 29  1  0  0  0  0
 37 42  1  0  0  0  0
 38 39  1  0  0  0  0
 38 37  2  0  0  0  0
 39 40  2  0  0  0  0
 40 41  1  0  0  0  0
 41  1  1  0  0  0  0
 42 41  2  0  0  0  0
 43 37  1  0  0  0  0
 44 38  1  0  0  0  0
 45 39  1  0  0  0  0
 46 45  1  0  0  0  0
 47 45  1  0  0  0  0
M  END
>  <minimizedAffinity>
-7.18374205

$$$$

 OpenBabel03242521573D

 47 51  0  0  0  0  0  0  0  0999 V2000
   36.6170   26.9340   39.8490 C   0  0  0  0  0  0  0  0  0  0  0  0
   36.6240   25.5410   39.8370 C   0  0  0  0  0  0  0  0  0  0  0  0
   36.8640   24.7700   40.9810 C   0  0  0  0  0  0  0  0  0  0  0  0
   37.1060   25.3700   42.1850 C   0  0  0  0  0  0  0  0  0  0  0  0
   37.1140   26.7830   42.2250 C   0  0  0  0  0  0  0  0  0  0  0  0
   37.4150   27.3390   43.4260 C   0  0  0  0  0  0  0  0  0  0  0  0
   37.5050   28.7290   43.4810 C   0  0  0  0  0  0  0  0  0  0  0  0
   37.2860   29.4840   42.2740 C   0  0  0  0  0  0  0  0  0  0  0  0
   36.9900   28.7670   41.1370 C   0  0  0  0  0  0  0  0  0  0  0  0
   36.8700   27.4540   41.0260 C   0  0  0  0  0  0  0  0  0  0  0  0
   36.4290   25.0460   38.8710 H   0  0  0  0  0  0  0  0  0  0  0  0
   36.8540   23.6970   40.8920 H   0  0  0  0  0  0  0  0  0  0  0  0
   37.2860   24.7870   43.0710 H   0  0  0  0  0  0  0  0  0  0  0  0
   37.5760   26.7240   44.3010 H   0  0  0  0  0  0  0  0  0  0  0  0
   37.7420   29.1040   44.4660 H   0  0  0  0  0  0  0  0  0  0  0  0
   37.4180   30.4990   42.6140 H   0  0  0  0  0  0  0  0  0  0  0  0
   38.6970   29.9320   40.0580 C   0  0  0  0  0  0  0  0  0  0  0  0
   37.2640   29.8990   40.2770 C   0  0  0  0  0  0  0  0  0  0  0  0
   36.6890   30.9740   39.7460 C   0  0  0  0  0  0  0  0  0  0  0  0
   37.3340   31.9950   39.0810 C   0  0  0  0  0  0  0  0  0  0  0  0
   38.6870   32.0080   38.8880 C   0  0  0  0  0  0  0  0  0  0  0  0
   39.3780   30.9360   39.3970 C   0  0  0  0  0  0  0  0  0  0  0  0
   35.6120   30.8610   39.9570 H   0  0  0  0  0  0  0  0  0  0  0  0
   36.6790   32.7710   38.7320 H   0  0  0  0  0  0  0  0  0  0  0  0
   39.1230   32.8330   38.3640 H   0  0  0  0  0  0  0  0  0  0  0  0
   39.6380   28.9490   40.4760 O   0  0  0  0  0  0  0  0  0  0  0  0
   39.9360   29.0950   41.4350 H   0  0  0  0  0  0  0  0  0  0  0  0
   40.7370   31.0060   39.1760 O   0  0  0  0  0  0  0  0  0  0  0  0
   41.3590   30.5090   38.0460 C   0  0  0  0  0  0  0  0  0  0  0  0
   42.2030   30.9910   37.0860 C   0  0  0  0  0  0  0  0  0  0  0  0
   42.5310   32.0010   37.1240 H   0  0  0  0  0  0  0  0  0  0  0  0
   42.4400   29.9370   36.2280 C   0  0  0  0  0  0  0  0  0  0  0  0
   43.0720   30.0110   35.3670 H   0  0  0  0  0  0  0  0  0  0  0  0
   41.7320   28.8510   36.6920 C   0  0  0  0  0  0  0  0  0  0  0  0
   41.6780   27.8730   36.2830 H   0  0  0  0  0  0  0  0  0  0  0  0
   41.1050   29.2420   37.7760 O   0  0  0  0  0  0  0  0  0  0  0  0
   34.7630   28.9600   37.3230 C   0  0  0  0  0  0  0  0  0  0  0  0
   35.7910   29.1560   36.3710 C   0  0  0  0  0  0  0  0  0  0  0  0
   37.0000   28.5680   36.6500 C   0  0  0  0  0  0  0  0  0  0  0  0
   37.0510   27.8900   37.7920 N   0  0  0  0  0  0  0  0  0  0  0  0
   36.1140   27.6850   38.7110 C   0  0  0  0  0  0  0  0  0  0  0  0
   34.9720   28.2410   38.4320 N   0  0  0  0  0  0  0  0  0  0  0  0
   33.8040   29.4150   37.1170 H   0  0  0  0  0  0  0  0  0  0  0  0
   35.6360   29.7310   35.4790 H   0  0  0  0  0  0  0  0  0  0  0  0
   38.0950   28.6300   35.7530 N   0  0  0  0  0  0  0  0  0  0  0  0
   38.3930   29.4600   35.2040 H   0  0  0  0  0  0  0  0  0  0  0  0
   38.6600   27.7630   35.6270 H   0  0  0  0  0  0  0  0  0  0  0  0
  1 10  1  0  0  0  0
  2  1  2  0  0  0  0
  2  3  1  0  0  0  0
  3  4  2  0  0  0  0
  4  5  1  0  0  0  0
  4 13  1  0  0  0  0
  5  6  1  0  0  0  0
  6  7  2  0  0  0  0
  6 14  1  0  0  0  0
  7 15  1  0  0  0  0
  8 16  1  0  0  0  0
  8  7  1  0  0  0  0
  9  8  2  0  0  0  0
 10  9  1  0  0  0  0
 10  5  2  0  0  0  0
 11  2  1  0  0  0  0
 12  3  1  0  0  0  0
 17 18  1  0  0  0  0
 17 26  1  0  0  0  0
 18  9  1  0  0  0  0
 19 23  1  0  0  0  0
 19 18  2  0  0  0  0
 20 19  1  0  0  0  0
 21 20  2  0  0  0  0
 21 22  1  0  0  0  0
 22 17  2  0  0  0  0
 24 20  1  0  0  0  0
 25 21  1  0  0  0  0
 26 27  1  0  0  0  0
 28 22  1  0  0  0  0
 29 28  1  0  0  0  0
 30 31  1  0  0  0  0
 30 29  2  0  0  0  0
 32 34  2  0  0  0  0
 32 30  1  0  0  0  0
 33 32  1  0  0  0  0
 34 36  1  0  0  0  0
 35 34  1  0  0  0  0
 36 29  1  0  0  0  0
 37 42  1  0  0  0  0
 38 39  1  0  0  0  0
 38 37  2  0  0  0  0
 39 40  2  0  0  0  0
 40 41  1  0  0  0  0
 41  1  1  0  0  0  0
 42 41  2  0  0  0  0
 43 37  1  0  0  0  0
 44 38  1  0  0  0  0
 45 39  1  0  0  0  0
 46 45  1  0  0  0  0
 47 45  1  0  0  0  0
M  END
>  <minimizedAffinity>
-6.96796131

$$$$

 OpenBabel03242521573D

 47 51  0  0  0  0  0  0  0  0999 V2000
   37.8100   31.5640   40.5130 C   0  0  0  0  0  0  0  0  0  0  0  0
   37.5930   32.8250   39.9640 C   0  0  0  0  0  0  0  0  0  0  0  0
   38.5630   33.8350   39.9660 C   0  0  0  0  0  0  0  0  0  0  0  0
   39.7930   33.6160   40.5220 C   0  0  0  0  0  0  0  0  0  0  0  0
   40.0380   32.3490   41.0940 C   0  0  0  0  0  0  0  0  0  0  0  0
   41.2490   32.1910   41.6870 C   0  0  0  0  0  0  0  0  0  0  0  0
   41.4940   30.9770   42.3270 C   0  0  0  0  0  0  0  0  0  0  0  0
   40.4570   29.9770   42.3330 C   0  0  0  0  0  0  0  0  0  0  0  0
   39.2840   30.2950   41.6870 C   0  0  0  0  0  0  0  0  0  0  0  0
   39.0000   31.4160   41.0450 C   0  0  0  0  0  0  0  0  0  0  0  0
   36.6050   33.0130   39.5120 H   0  0  0  0  0  0  0  0  0  0  0  0
   38.3200   34.7850   39.5220 H   0  0  0  0  0  0  0  0  0  0  0  0
   40.5460   34.3840   40.5230 H   0  0  0  0  0  0  0  0  0  0  0  0
   41.9910   32.9780   41.6570 H   0  0  0  0  0  0  0  0  0  0  0  0
   42.4770   30.9190   42.7700 H   0  0  0  0  0  0  0  0  0  0  0  0
   40.9190   29.1740   42.8850 H   0  0  0  0  0  0  0  0  0  0  0  0
   38.7730   28.0270   41.5040 C   0  0  0  0  0  0  0  0  0  0  0  0
   38.5680   29.2080   42.3210 C   0  0  0  0  0  0  0  0  0  0  0  0
   37.6940   28.9540   43.2910 C   0  0  0  0  0  0  0  0  0  0  0  0
   37.0530   27.7540   43.5120 C   0  0  0  0  0  0  0  0  0  0  0  0
   37.2590   26.6540   42.7270 C   0  0  0  0  0  0  0  0  0  0  0  0
   38.1500   26.8090   41.6950 C   0  0  0  0  0  0  0  0  0  0  0  0
   37.6060   29.8970   43.8560 H   0  0  0  0  0  0  0  0  0  0  0  0
   36.3840   27.7650   44.3520 H   0  0  0  0  0  0  0  0  0  0  0  0
   36.7270   25.7540   42.9550 H   0  0  0  0  0  0  0  0  0  0  0  0
   39.6410   27.9180   40.3810 O   0  0  0  0  0  0  0  0  0  0  0  0
   39.1990   28.2440   39.5280 H   0  0  0  0  0  0  0  0  0  0  0  0
   38.3130   25.6700   40.9370 O   0  0  0  0  0  0  0  0  0  0  0  0
   37.2700   24.9880   40.3380 C   0  0  0  0  0  0  0  0  0  0  0  0
   36.3920   24.0050   40.6980 C   0  0  0  0  0  0  0  0  0  0  0  0
   36.4350   23.5850   41.6720 H   0  0  0  0  0  0  0  0  0  0  0  0
   35.5940   23.7910   39.5940 C   0  0  0  0  0  0  0  0  0  0  0  0
   34.8030   23.0690   39.5720 H   0  0  0  0  0  0  0  0  0  0  0  0
   36.0120   24.6470   38.6000 C   0  0  0  0  0  0  0  0  0  0  0  0
   35.6280   24.7560   37.6160 H   0  0  0  0  0  0  0  0  0  0  0  0
   37.0120   25.3380   39.0920 O   0  0  0  0  0  0  0  0  0  0  0  0
   35.0360   29.0740   40.3570 C   0  0  0  0  0  0  0  0  0  0  0  0
   35.4370   28.3390   39.2160 C   0  0  0  0  0  0  0  0  0  0  0  0
   36.6120   28.7290   38.6230 C   0  0  0  0  0  0  0  0  0  0  0  0
   37.2250   29.7590   39.1990 N   0  0  0  0  0  0  0  0  0  0  0  0
   36.8820   30.4740   40.2640 C   0  0  0  0  0  0  0  0  0  0  0  0
   35.7700   30.0920   40.8200 N   0  0  0  0  0  0  0  0  0  0  0  0
   34.1130   28.7790   40.8360 H   0  0  0  0  0  0  0  0  0  0  0  0
   34.8560   27.5220   38.8340 H   0  0  0  0  0  0  0  0  0  0  0  0
   37.1630   28.0400   37.5140 N   0  0  0  0  0  0  0  0  0  0  0  0
   36.6360   27.6670   36.6990 H   0  0  0  0  0  0  0  0  0  0  0  0
   38.1940   27.8890   37.5070 H   0  0  0  0  0  0  0  0  0  0  0  0
  1 10  1  0  0  0  0
  2  3  1  0  0  0  0
  2  1  2  0  0  0  0
  3  4  2  0  0  0  0
  4 13  1  0  0  0  0
  4  5  1  0  0  0  0
  5  6  1  0  0  0  0
  6  7  2  0  0  0  0
  7  8  1  0  0  0  0
  7 15  1  0  0  0  0
  8 16  1  0  0  0  0
  9 18  1  0  0  0  0
  9  8  2  0  0  0  0
 10  5  2  0  0  0  0
 10  9  1  0  0  0  0
 11  2  1  0  0  0  0
 12  3  1  0  0  0  0
 14  6  1  0  0  0  0
 17 22  2  0  0  0  0
 17 18  1  0  0  0  0
 18 19  2  0  0  0  0
 19 20  1  0  0  0  0
 19 23  1  0  0  0  0
 20 24  1  0  0  0  0
 21 25  1  0  0  0  0
 21 20  2  0  0  0  0
 22 21  1  0  0  0  0
 26 17  1  0  0  0  0
 27 26  1  0  0  0  0
 28 22  1  0  0  0  0
 29 30  2  0  0  0  0
 29 28  1  0  0  0  0
 30 31  1  0  0  0  0
 32 30  1  0  0  0  0
 33 32  1  0  0  0  0
 34 36  1  0  0  0  0
 34 32  2  0  0  0  0
 35 34  1  0  0  0  0
 36 29  1  0  0  0  0
 37 42  1  0  0  0  0
 37 43  1  0  0  0  0
 38 37  2  0  0  0  0
 39 40  2  0  0  0  0
 39 38  1  0  0  0  0
 40 41  1  0  0  0  0
 41  1  1  0  0  0  0
 41 42  2  0  0  0  0
 44 38  1  0  0  0  0
 45 39  1  0  0  0  0
 46 45  1  0  0  0  0
 47 45  1  0  0  0  0
M  END
>  <minimizedAffinity>
-6.80971956

$$$$

 OpenBabel03242521573D

 47 51  0  0  0  0  0  0  0  0999 V2000
   36.7180   26.9760   39.7700 C   0  0  0  0  0  0  0  0  0  0  0  0
   36.7230   25.5840   39.7870 C   0  0  0  0  0  0  0  0  0  0  0  0
   36.9040   24.8370   40.9570 C   0  0  0  0  0  0  0  0  0  0  0  0
   37.0890   25.4610   42.1590 C   0  0  0  0  0  0  0  0  0  0  0  0
   37.0980   26.8740   42.1700 C   0  0  0  0  0  0  0  0  0  0  0  0
   37.3420   27.4550   43.3720 C   0  0  0  0  0  0  0  0  0  0  0  0
   37.4330   28.8460   43.4020 C   0  0  0  0  0  0  0  0  0  0  0  0
   37.2740   29.5760   42.1700 C   0  0  0  0  0  0  0  0  0  0  0  0
   37.0330   28.8360   41.0360 C   0  0  0  0  0  0  0  0  0  0  0  0
   36.9150   27.5210   40.9460 C   0  0  0  0  0  0  0  0  0  0  0  0
   36.5740   25.0680   38.8230 H   0  0  0  0  0  0  0  0  0  0  0  0
   36.8950   23.7620   40.8900 H   0  0  0  0  0  0  0  0  0  0  0  0
   37.2230   24.8960   43.0640 H   0  0  0  0  0  0  0  0  0  0  0  0
   37.4580   26.8590   44.2670 H   0  0  0  0  0  0  0  0  0  0  0  0
   37.6210   29.2410   44.3900 H   0  0  0  0  0  0  0  0  0  0  0  0
   37.3920   30.5980   42.4950 H   0  0  0  0  0  0  0  0  0  0  0  0
   38.7890   29.9450   39.9770 C   0  0  0  0  0  0  0  0  0  0  0  0
   37.3510   29.9480   40.1670 C   0  0  0  0  0  0  0  0  0  0  0  0
   36.8140   31.0300   39.6090 C   0  0  0  0  0  0  0  0  0  0  0  0
   37.4960   32.0260   38.9450 C   0  0  0  0  0  0  0  0  0  0  0  0
   38.8530   32.0040   38.7810 C   0  0  0  0  0  0  0  0  0  0  0  0
   39.5080   30.9230   39.3180 C   0  0  0  0  0  0  0  0  0  0  0  0
   35.7300   30.9450   39.7990 H   0  0  0  0  0  0  0  0  0  0  0  0
   36.8680   32.8130   38.5720 H   0  0  0  0  0  0  0  0  0  0  0  0
   39.3200   32.8110   38.2550 H   0  0  0  0  0  0  0  0  0  0  0  0
   39.6980   28.9460   40.4280 O   0  0  0  0  0  0  0  0  0  0  0  0
   39.9780   29.0980   41.3920 H   0  0  0  0  0  0  0  0  0  0  0  0
   40.8720   30.9580   39.1250 O   0  0  0  0  0  0  0  0  0  0  0  0
   41.5030   30.4570   38.0020 C   0  0  0  0  0  0  0  0  0  0  0  0
   42.2580   30.9600   36.9800 C   0  0  0  0  0  0  0  0  0  0  0  0
   42.4770   31.9990   36.9440 H   0  0  0  0  0  0  0  0  0  0  0  0
   42.5740   29.8830   36.1790 C   0  0  0  0  0  0  0  0  0  0  0  0
   43.1640   29.9660   35.2900 H   0  0  0  0  0  0  0  0  0  0  0  0
   42.0020   28.7620   36.7370 C   0  0  0  0  0  0  0  0  0  0  0  0
   42.0380   27.7590   36.3900 H   0  0  0  0  0  0  0  0  0  0  0  0
   41.3760   29.1550   37.8200 O   0  0  0  0  0  0  0  0  0  0  0  0
   36.2010   28.6790   36.4900 C   0  0  0  0  0  0  0  0  0  0  0  0
   34.8230   28.9820   36.5910 C   0  0  0  0  0  0  0  0  0  0  0  0
   34.2020   28.6130   37.7590 C   0  0  0  0  0  0  0  0  0  0  0  0
   34.9820   28.0080   38.6500 N   0  0  0  0  0  0  0  0  0  0  0  0
   36.2740   27.7040   38.5920 C   0  0  0  0  0  0  0  0  0  0  0  0
   36.8510   28.0640   37.4840 N   0  0  0  0  0  0  0  0  0  0  0  0
   36.7040   28.9650   35.5770 H   0  0  0  0  0  0  0  0  0  0  0  0
   34.2900   29.4740   35.8010 H   0  0  0  0  0  0  0  0  0  0  0  0
   32.8420   28.9130   38.0190 N   0  0  0  0  0  0  0  0  0  0  0  0
   32.0580   28.8460   37.3410 H   0  0  0  0  0  0  0  0  0  0  0  0
   32.5970   29.2320   38.9810 H   0  0  0  0  0  0  0  0  0  0  0  0
  1  2  2  0  0  0  0
  1 10  1  0  0  0  0
  2  3  1  0  0  0  0
  3  4  2  0  0  0  0
  4  5  1  0  0  0  0
  4 13  1  0  0  0  0
  5  6  1  0  0  0  0
  6  7  2  0  0  0  0
  6 14  1  0  0  0  0
  7 15  1  0  0  0  0
  8 16  1  0  0  0  0
  8  7  1  0  0  0  0
  9  8  2  0  0  0  0
 10  9  1  0  0  0  0
 10  5  2  0  0  0  0
 11  2  1  0  0  0  0
 12  3  1  0  0  0  0
 17 18  1  0  0  0  0
 17 26  1  0  0  0  0
 18  9  1  0  0  0  0
 19 23  1  0  0  0  0
 19 18  2  0  0  0  0
 20 19  1  0  0  0  0
 21 20  2  0  0  0  0
 21 22  1  0  0  0  0
 22 17  2  0  0  0  0
 24 20  1  0  0  0  0
 25 21  1  0  0  0  0
 26 27  1  0  0  0  0
 28 22  1  0  0  0  0
 29 28  1  0  0  0  0
 30 29  2  0  0  0  0
 31 30  1  0  0  0  0
 32 34  2  0  0  0  0
 32 30  1  0  0  0  0
 33 32  1  0  0  0  0
 34 36  1  0  0  0  0
 35 34  1  0  0  0  0
 36 29  1  0  0  0  0
 37 38  2  0  0  0  0
 37 42  1  0  0  0  0
 38 39  1  0  0  0  0
 39 45  1  0  0  0  0
 39 40  2  0  0  0  0
 41 40  1  0  0  0  0
 41  1  1  0  0  0  0
 42 41  2  0  0  0  0
 43 37  1  0  0  0  0
 44 38  1  0  0  0  0
 45 47  1  0  0  0  0
 46 45  1  0  0  0  0
M  END
>  <minimizedAffinity>
-6.78627253

$$$$

 OpenBabel03242521573D

 47 51  0  0  0  0  0  0  0  0999 V2000
   37.5820   29.2970   37.7700 C   0  0  0  0  0  0  0  0  0  0  0  0
   37.7450   29.0760   36.4050 C   0  0  0  0  0  0  0  0  0  0  0  0
   36.6710   28.8610   35.5330 C   0  0  0  0  0  0  0  0  0  0  0  0
   35.3870   28.8590   36.0010 C   0  0  0  0  0  0  0  0  0  0  0  0
   35.1910   29.0710   37.3830 C   0  0  0  0  0  0  0  0  0  0  0  0
   33.9070   29.0040   37.8170 C   0  0  0  0  0  0  0  0  0  0  0  0
   33.6870   29.1340   39.1870 C   0  0  0  0  0  0  0  0  0  0  0  0
   34.8220   29.3200   40.0540 C   0  0  0  0  0  0  0  0  0  0  0  0
   36.0610   29.3640   39.4560 C   0  0  0  0  0  0  0  0  0  0  0  0
   36.3310   29.2690   38.1640 C   0  0  0  0  0  0  0  0  0  0  0  0
   38.7780   29.0770   36.0160 H   0  0  0  0  0  0  0  0  0  0  0  0
   36.8790   28.6970   34.4890 H   0  0  0  0  0  0  0  0  0  0  0  0
   34.5550   28.7000   35.3380 H   0  0  0  0  0  0  0  0  0  0  0  0
   33.0900   28.8580   37.1220 H   0  0  0  0  0  0  0  0  0  0  0  0
   32.6440   29.0770   39.4600 H   0  0  0  0  0  0  0  0  0  0  0  0
   34.3580   29.3850   41.0250 H   0  0  0  0  0  0  0  0  0  0  0  0
   36.7130   27.7420   40.9990 C   0  0  0  0  0  0  0  0  0  0  0  0
   36.7450   29.1640   40.7150 C   0  0  0  0  0  0  0  0  0  0  0  0
   37.2570   29.8310   41.7470 C   0  0  0  0  0  0  0  0  0  0  0  0
   37.6980   29.2810   42.9310 C   0  0  0  0  0  0  0  0  0  0  0  0
   37.6560   27.9360   43.1780 C   0  0  0  0  0  0  0  0  0  0  0  0
   37.1460   27.1550   42.1720 C   0  0  0  0  0  0  0  0  0  0  0  0
   37.2450   30.8910   41.4420 H   0  0  0  0  0  0  0  0  0  0  0  0
   38.0750   29.9990   43.6340 H   0  0  0  0  0  0  0  0  0  0  0  0
   38.0140   27.5760   44.1210 H   0  0  0  0  0  0  0  0  0  0  0  0
   36.2410   26.7190   40.1300 O   0  0  0  0  0  0  0  0  0  0  0  0
   35.2350   26.6000   40.1980 H   0  0  0  0  0  0  0  0  0  0  0  0
   37.1250   25.8110   42.4790 O   0  0  0  0  0  0  0  0  0  0  0  0
   37.7000   24.8320   41.6920 C   0  0  0  0  0  0  0  0  0  0  0  0
   38.9660   24.4790   41.3160 C   0  0  0  0  0  0  0  0  0  0  0  0
   39.7990   25.0370   41.6650 H   0  0  0  0  0  0  0  0  0  0  0  0
   38.8230   23.3770   40.4990 C   0  0  0  0  0  0  0  0  0  0  0  0
   39.6500   22.8710   40.0460 H   0  0  0  0  0  0  0  0  0  0  0  0
   37.4780   23.0970   40.4030 C   0  0  0  0  0  0  0  0  0  0  0  0
   37.0010   22.3200   39.8580 H   0  0  0  0  0  0  0  0  0  0  0  0
   36.8520   23.9910   41.1310 O   0  0  0  0  0  0  0  0  0  0  0  0
   40.6110   29.8370   39.8810 C   0  0  0  0  0  0  0  0  0  0  0  0
   40.6650   31.2510   39.8670 C   0  0  0  0  0  0  0  0  0  0  0  0
   39.6670   31.8910   39.1750 C   0  0  0  0  0  0  0  0  0  0  0  0
   38.7730   31.0930   38.5980 N   0  0  0  0  0  0  0  0  0  0  0  0
   38.6890   29.7680   38.5860 C   0  0  0  0  0  0  0  0  0  0  0  0
   39.6360   29.1730   39.2490 N   0  0  0  0  0  0  0  0  0  0  0  0
   41.3890   29.3180   40.4230 H   0  0  0  0  0  0  0  0  0  0  0  0
   41.4410   31.7950   40.3680 H   0  0  0  0  0  0  0  0  0  0  0  0
   39.5630   33.3040   39.1330 N   0  0  0  0  0  0  0  0  0  0  0  0
   40.3500   33.9740   39.0250 H   0  0  0  0  0  0  0  0  0  0  0  0
   38.6100   33.7170   39.2180 H   0  0  0  0  0  0  0  0  0  0  0  0
  1 10  1  0  0  0  0
  1 41  1  0  0  0  0
  2  1  2  0  0  0  0
  3  4  2  0  0  0  0
  3  2  1  0  0  0  0
  4  5  1  0  0  0  0
  5  6  2  0  0  0  0
  5 10  1  0  0  0  0
  6  7  1  0  0  0  0
  7 15  1  0  0  0  0
  7  8  2  0  0  0  0
  8 16  1  0  0  0  0
  9  8  1  0  0  0  0
  9 18  1  0  0  0  0
 10  9  2  0  0  0  0
 11  2  1  0  0  0  0
 12  3  1  0  0  0  0
 13  4  1  0  0  0  0
 14  6  1  0  0  0  0
 17 22  1  0  0  0  0
 18 17  2  0  0  0  0
 18 19  1  0  0  0  0
 19 20  2  0  0  0  0
 20 21  1  0  0  0  0
 20 24  1  0  0  0  0
 21 25  1  0  0  0  0
 22 28  1  0  0  0  0
 22 21  2  0  0  0  0
 23 19  1  0  0  0  0
 26 27  1  0  0  0  0
 26 17  1  0  0  0  0
 29 28  1  0  0  0  0
 30 31  1  0  0  0  0
 30 29  2  0  0  0  0
 32 30  1  0  0  0  0
 33 32  1  0  0  0  0
 34 32  2  0  0  0  0
 34 36  1  0  0  0  0
 35 34  1  0  0  0  0
 36 29  1  0  0  0  0
 37 43  1  0  0  0  0
 38 37  1  0  0  0  0
 38 44  1  0  0  0  0
 39 38  2  0  0  0  0
 40 39  1  0  0  0  0
 41 40  2  0  0  0  0
 41 42  1  0  0  0  0
 42 37  2  0  0  0  0
 45 39  1  0  0  0  0
 45 47  1  0  0  0  0
 46 45  1  0  0  0  0
M  END
>  <minimizedAffinity>
-6.69006109

$$$$

 OpenBabel03242521573D

 47 51  0  0  0  0  0  0  0  0999 V2000
   37.6800   28.7670   41.1590 C   0  0  0  0  0  0  0  0  0  0  0  0
   36.5510   28.2850   41.8160 C   0  0  0  0  0  0  0  0  0  0  0  0
   36.6140   27.5830   43.0260 C   0  0  0  0  0  0  0  0  0  0  0  0
   37.8180   27.3360   43.6240 C   0  0  0  0  0  0  0  0  0  0  0  0
   38.9810   27.8050   42.9750 C   0  0  0  0  0  0  0  0  0  0  0  0
   40.1600   27.4900   43.5710 C   0  0  0  0  0  0  0  0  0  0  0  0
   41.3290   27.8730   42.9160 C   0  0  0  0  0  0  0  0  0  0  0  0
   41.2220   28.5640   41.6570 C   0  0  0  0  0  0  0  0  0  0  0  0
   39.9510   28.8060   41.1870 C   0  0  0  0  0  0  0  0  0  0  0  0
   38.8070   28.4880   41.7700 C   0  0  0  0  0  0  0  0  0  0  0  0
   35.5730   28.4790   41.3430 H   0  0  0  0  0  0  0  0  0  0  0  0
   35.6950   27.2410   43.4730 H   0  0  0  0  0  0  0  0  0  0  0  0
   37.8760   26.8020   44.5560 H   0  0  0  0  0  0  0  0  0  0  0  0
   40.1830   26.9650   44.5160 H   0  0  0  0  0  0  0  0  0  0  0  0
   42.2270   27.5960   43.4490 H   0  0  0  0  0  0  0  0  0  0  0  0
   42.2560   28.7250   41.3970 H   0  0  0  0  0  0  0  0  0  0  0  0
   40.6750   30.5350   39.8000 C   0  0  0  0  0  0  0  0  0  0  0  0
   40.4330   29.1060   39.8560 C   0  0  0  0  0  0  0  0  0  0  0  0
   40.5930   28.5610   38.6520 C   0  0  0  0  0  0  0  0  0  0  0  0
   40.9330   29.2310   37.4970 C   0  0  0  0  0  0  0  0  0  0  0  0
   41.1550   30.5800   37.4660 C   0  0  0  0  0  0  0  0  0  0  0  0
   41.0180   31.2400   38.6630 C   0  0  0  0  0  0  0  0  0  0  0  0
   40.3940   27.4850   38.7920 H   0  0  0  0  0  0  0  0  0  0  0  0
   41.0090   28.5990   36.6320 H   0  0  0  0  0  0  0  0  0  0  0  0
   41.4150   31.0360   36.5340 H   0  0  0  0  0  0  0  0  0  0  0  0
   40.6060   31.4460   40.8910 O   0  0  0  0  0  0  0  0  0  0  0  0
   39.6570   31.7680   41.0550 H   0  0  0  0  0  0  0  0  0  0  0  0
   41.2490   32.5950   38.5690 O   0  0  0  0  0  0  0  0  0  0  0  0
   42.5040   33.1690   38.6460 C   0  0  0  0  0  0  0  0  0  0  0  0
   43.3940   33.7290   37.7730 C   0  0  0  0  0  0  0  0  0  0  0  0
   43.1580   33.7890   36.7400 H   0  0  0  0  0  0  0  0  0  0  0  0
   44.4780   34.1120   38.5350 C   0  0  0  0  0  0  0  0  0  0  0  0
   45.3460   34.5850   38.1240 H   0  0  0  0  0  0  0  0  0  0  0  0
   44.2140   33.7730   39.8420 C   0  0  0  0  0  0  0  0  0  0  0  0
   44.8240   33.9170   40.7000 H   0  0  0  0  0  0  0  0  0  0  0  0
   43.0270   33.2150   39.8570 O   0  0  0  0  0  0  0  0  0  0  0  0
   37.2640   30.6020   37.9370 C   0  0  0  0  0  0  0  0  0  0  0  0
   37.1880   31.9280   38.4240 C   0  0  0  0  0  0  0  0  0  0  0  0
   37.3100   32.0860   39.7820 C   0  0  0  0  0  0  0  0  0  0  0  0
   37.4810   30.9620   40.4710 N   0  0  0  0  0  0  0  0  0  0  0  0
   37.5550   29.7030   40.0550 C   0  0  0  0  0  0  0  0  0  0  0  0
   37.4430   29.5670   38.7660 N   0  0  0  0  0  0  0  0  0  0  0  0
   37.1710   30.4610   36.8690 H   0  0  0  0  0  0  0  0  0  0  0  0
   37.0430   32.7660   37.7700 H   0  0  0  0  0  0  0  0  0  0  0  0
   37.3170   33.3630   40.3960 N   0  0  0  0  0  0  0  0  0  0  0  0
   36.7040   34.1650   40.1510 H   0  0  0  0  0  0  0  0  0  0  0  0
   37.9990   33.5200   41.1680 H   0  0  0  0  0  0  0  0  0  0  0  0
  1 10  2  0  0  0  0
  1  2  1  0  0  0  0
  2  3  2  0  0  0  0
  3 12  1  0  0  0  0
  3  4  1  0  0  0  0
  4 13  1  0  0  0  0
  5  6  1  0  0  0  0
  5  4  2  0  0  0  0
  6 14  1  0  0  0  0
  7 15  1  0  0  0  0
  7  6  2  0  0  0  0
  8  7  1  0  0  0  0
  9  8  2  0  0  0  0
  9 10  1  0  0  0  0
 10  5  1  0  0  0  0
 11  2  1  0  0  0  0
 16  8  1  0  0  0  0
 17 18  1  0  0  0  0
 17 26  1  0  0  0  0
 18  9  1  0  0  0  0
 19 23  1  0  0  0  0
 19 18  2  0  0  0  0
 20 19  1  0  0  0  0
 21 20  2  0  0  0  0
 21 22  1  0  0  0  0
 22 17  2  0  0  0  0
 24 20  1  0  0  0  0
 25 21  1  0  0  0  0
 26 27  1  0  0  0  0
 28 29  1  0  0  0  0
 28 22  1  0  0  0  0
 29 36  1  0  0  0  0
 30 32  1  0  0  0  0
 30 29  2  0  0  0  0
 31 30  1  0  0  0  0
 32 34  2  0  0  0  0
 33 32  1  0  0  0  0
 34 36  1  0  0  0  0
 34 35  1  0  0  0  0
 37 38  2  0  0  0  0
 37 42  1  0  0  0  0
 38 39  1  0  0  0  0
 39 45  1  0  0  0  0
 39 40  2  0  0  0  0
 41 40  1  0  0  0  0
 41  1  1  0  0  0  0
 42 41  2  0  0  0  0
 43 37  1  0  0  0  0
 44 38  1  0  0  0  0
 45 47  1  0  0  0  0
 46 45  1  0  0  0  0
M  END
>  <minimizedAffinity>
-6.53592062

$$$$

 OpenBabel03242521573D

 47 51  0  0  0  0  0  0  0  0999 V2000
   40.4160   31.0400   41.1360 C   0  0  0  0  0  0  0  0  0  0  0  0
   40.8510   32.3060   40.7530 C   0  0  0  0  0  0  0  0  0  0  0  0
   42.0830   32.8400   41.1480 C   0  0  0  0  0  0  0  0  0  0  0  0
   42.9280   32.1210   41.9460 C   0  0  0  0  0  0  0  0  0  0  0  0
   42.5090   30.8370   42.3570 C   0  0  0  0  0  0  0  0  0  0  0  0
   43.3500   30.1790   43.1950 C   0  0  0  0  0  0  0  0  0  0  0  0
   42.9320   28.9410   43.6800 C   0  0  0  0  0  0  0  0  0  0  0  0
   41.6420   28.4420   43.2760 C   0  0  0  0  0  0  0  0  0  0  0  0
   40.9080   29.2330   42.4210 C   0  0  0  0  0  0  0  0  0  0  0  0
   41.2590   30.4020   41.9120 C   0  0  0  0  0  0  0  0  0  0  0  0
   40.1770   32.8950   40.1080 H   0  0  0  0  0  0  0  0  0  0  0  0
   42.3490   33.8280   40.8110 H   0  0  0  0  0  0  0  0  0  0  0  0
   43.8790   32.5210   42.2500 H   0  0  0  0  0  0  0  0  0  0  0  0
   44.3070   30.6030   43.4700 H   0  0  0  0  0  0  0  0  0  0  0  0
   43.6510   28.4730   44.3340 H   0  0  0  0  0  0  0  0  0  0  0  0
   41.5930   27.4970   43.7930 H   0  0  0  0  0  0  0  0  0  0  0  0
   39.6970   27.3350   41.8160 C   0  0  0  0  0  0  0  0  0  0  0  0
   39.6910   28.4960   42.6840 C   0  0  0  0  0  0  0  0  0  0  0  0
   38.5300   28.5870   43.3280 C   0  0  0  0  0  0  0  0  0  0  0  0
   37.4640   27.7220   43.2060 C   0  0  0  0  0  0  0  0  0  0  0  0
   37.4910   26.6330   42.3790 C   0  0  0  0  0  0  0  0  0  0  0  0
   38.6500   26.4460   41.6680 C   0  0  0  0  0  0  0  0  0  0  0  0
   38.6180   29.4870   43.9600 H   0  0  0  0  0  0  0  0  0  0  0  0
   36.6200   27.9790   43.8170 H   0  0  0  0  0  0  0  0  0  0  0  0
   36.6270   26.0030   42.3310 H   0  0  0  0  0  0  0  0  0  0  0  0
   40.7680   26.9120   40.9790 O   0  0  0  0  0  0  0  0  0  0  0  0
   40.7610   27.3920   40.0850 H   0  0  0  0  0  0  0  0  0  0  0  0
   38.6170   25.3380   40.8490 O   0  0  0  0  0  0  0  0  0  0  0  0
   37.5340   24.9960   40.0600 C   0  0  0  0  0  0  0  0  0  0  0  0
   36.9120   25.5060   38.9550 C   0  0  0  0  0  0  0  0  0  0  0  0
   37.2770   26.3950   38.5030 H   0  0  0  0  0  0  0  0  0  0  0  0
   35.8680   24.6480   38.6820 C   0  0  0  0  0  0  0  0  0  0  0  0
   35.1920   24.7880   37.8630 H   0  0  0  0  0  0  0  0  0  0  0  0
   35.8860   23.6480   39.6270 C   0  0  0  0  0  0  0  0  0  0  0  0
   35.2310   22.8180   39.7260 H   0  0  0  0  0  0  0  0  0  0  0  0
   36.8960   23.8990   40.4250 O   0  0  0  0  0  0  0  0  0  0  0  0
   37.9200   29.0490   39.2040 C   0  0  0  0  0  0  0  0  0  0  0  0
   36.7240   29.5310   39.7870 C   0  0  0  0  0  0  0  0  0  0  0  0
   36.8650   30.4970   40.7530 C   0  0  0  0  0  0  0  0  0  0  0  0
   38.1170   30.8540   41.0210 N   0  0  0  0  0  0  0  0  0  0  0  0
   39.2610   30.4260   40.5010 C   0  0  0  0  0  0  0  0  0  0  0  0
   39.1150   29.5150   39.5840 N   0  0  0  0  0  0  0  0  0  0  0  0
   37.8260   28.2880   38.4410 H   0  0  0  0  0  0  0  0  0  0  0  0
   35.7600   29.1650   39.4930 H   0  0  0  0  0  0  0  0  0  0  0  0
   35.7490   31.1140   41.3710 N   0  0  0  0  0  0  0  0  0  0  0  0
   34.8790   30.6380   41.6830 H   0  0  0  0  0  0  0  0  0  0  0  0
   35.7990   32.1420   41.5340 H   0  0  0  0  0  0  0  0  0  0  0  0
  1 10  1  0  0  0  0
  2  1  2  0  0  0  0
  2  3  1  0  0  0  0
  3  4  2  0  0  0  0
  4 13  1  0  0  0  0
  4  5  1  0  0  0  0
  5  6  1  0  0  0  0
  6 14  1  0  0  0  0
  6  7  2  0  0  0  0
  7 15  1  0  0  0  0
  8  7  1  0  0  0  0
  8 16  1  0  0  0  0
  9 18  1  0  0  0  0
  9  8  2  0  0  0  0
 10  5  2  0  0  0  0
 10  9  1  0  0  0  0
 11  2  1  0  0  0  0
 12  3  1  0  0  0  0
 17 18  1  0  0  0  0
 18 19  2  0  0  0  0
 19 23  1  0  0  0  0
 20 19  1  0  0  0  0
 20 24  1  0  0  0  0
 21 20  2  0  0  0  0
 22 17  2  0  0  0  0
 22 21  1  0  0  0  0
 25 21  1  0  0  0  0
 26 17  1  0  0  0  0
 27 26  1  0  0  0  0
 28 22  1  0  0  0  0
 29 36  1  0  0  0  0
 29 28  1  0  0  0  0
 30 29  2  0  0  0  0
 31 30  1  0  0  0  0
 32 30  1  0  0  0  0
 32 34  2  0  0  0  0
 33 32  1  0  0  0  0
 34 35  1  0  0  0  0
 34 36  1  0  0  0  0
 37 42  2  0  0  0  0
 37 38  1  0  0  0  0
 38 39  2  0  0  0  0
 39 40  1  0  0  0  0
 39 45  1  0  0  0  0
 41 40  2  0  0  0  0
 41  1  1  0  0  0  0
 42 41  1  0  0  0  0
 43 37  1  0  0  0  0
 44 38  1  0  0  0  0
 45 47  1  0  0  0  0
 45 46  1  0  0  0  0
M  END
>  <minimizedAffinity>
-6.40536928

$$$$

 OpenBabel03242521573D

 47 51  0  0  0  0  0  0  0  0999 V2000
   36.1970   26.2990   39.0750 C   0  0  0  0  0  0  0  0  0  0  0  0
   36.7830   25.3050   39.8540 C   0  0  0  0  0  0  0  0  0  0  0  0
   37.2460   25.5300   41.1560 C   0  0  0  0  0  0  0  0  0  0  0  0
   37.1380   26.7670   41.7270 C   0  0  0  0  0  0  0  0  0  0  0  0
   36.5550   27.7980   40.9560 C   0  0  0  0  0  0  0  0  0  0  0  0
   36.5200   29.0240   41.5380 C   0  0  0  0  0  0  0  0  0  0  0  0
   36.0200   30.0790   40.7750 C   0  0  0  0  0  0  0  0  0  0  0  0
   35.5860   29.8110   39.4270 C   0  0  0  0  0  0  0  0  0  0  0  0
   35.6900   28.5120   38.9870 C   0  0  0  0  0  0  0  0  0  0  0  0
   36.1330   27.4670   39.6680 C   0  0  0  0  0  0  0  0  0  0  0  0
   36.8740   24.3020   39.4040 H   0  0  0  0  0  0  0  0  0  0  0  0
   37.6880   24.7100   41.6960 H   0  0  0  0  0  0  0  0  0  0  0  0
   37.4860   26.9490   42.7290 H   0  0  0  0  0  0  0  0  0  0  0  0
   36.8640   29.1700   42.5530 H   0  0  0  0  0  0  0  0  0  0  0  0
   36.0150   31.0220   41.3010 H   0  0  0  0  0  0  0  0  0  0  0  0
   35.2620   30.7850   39.0960 H   0  0  0  0  0  0  0  0  0  0  0  0
   34.0980   28.9670   37.3450 C   0  0  0  0  0  0  0  0  0  0  0  0
   35.5240   28.9020   37.6030 C   0  0  0  0  0  0  0  0  0  0  0  0
   36.2080   29.0790   36.4760 C   0  0  0  0  0  0  0  0  0  0  0  0
   35.6700   29.2910   35.2250 C   0  0  0  0  0  0  0  0  0  0  0  0
   34.3220   29.3470   35.0030 C   0  0  0  0  0  0  0  0  0  0  0  0
   33.5230   29.1780   36.1070 C   0  0  0  0  0  0  0  0  0  0  0  0
   37.2700   29.0180   36.7680 H   0  0  0  0  0  0  0  0  0  0  0  0
   36.4020   29.4100   34.4480 H   0  0  0  0  0  0  0  0  0  0  0  0
   33.9720   29.5140   34.0050 H   0  0  0  0  0  0  0  0  0  0  0  0
   33.0590   28.8300   38.3070 O   0  0  0  0  0  0  0  0  0  0  0  0
   32.8290   27.8560   38.4790 H   0  0  0  0  0  0  0  0  0  0  0  0
   32.1760   29.2390   35.8210 O   0  0  0  0  0  0  0  0  0  0  0  0
   31.4260   30.3980   35.8940 C   0  0  0  0  0  0  0  0  0  0  0  0
   31.0760   31.4080   35.0420 C   0  0  0  0  0  0  0  0  0  0  0  0
   31.4170   31.3960   34.0360 H   0  0  0  0  0  0  0  0  0  0  0  0
   30.2910   32.2680   35.7800 C   0  0  0  0  0  0  0  0  0  0  0  0
   29.8630   33.1640   35.3790 H   0  0  0  0  0  0  0  0  0  0  0  0
   30.1890   31.7560   37.0540 C   0  0  0  0  0  0  0  0  0  0  0  0
   29.6640   32.1540   37.8870 H   0  0  0  0  0  0  0  0  0  0  0  0
   30.8810   30.6430   37.0710 O   0  0  0  0  0  0  0  0  0  0  0  0
   33.8420   25.6280   36.2590 C   0  0  0  0  0  0  0  0  0  0  0  0
   34.7720   25.4110   35.2150 C   0  0  0  0  0  0  0  0  0  0  0  0
   36.1000   25.4830   35.5570 C   0  0  0  0  0  0  0  0  0  0  0  0
   36.3430   25.7540   36.8360 N   0  0  0  0  0  0  0  0  0  0  0  0
   35.5020   25.9660   37.8420 C   0  0  0  0  0  0  0  0  0  0  0  0
   34.2480   25.8900   37.5070 N   0  0  0  0  0  0  0  0  0  0  0  0
   32.7930   25.5740   36.0060 H   0  0  0  0  0  0  0  0  0  0  0  0
   34.4600   25.2010   34.2100 H   0  0  0  0  0  0  0  0  0  0  0  0
   37.1350   25.2220   34.6250 N   0  0  0  0  0  0  0  0  0  0  0  0
   37.1620   25.5350   33.6350 H   0  0  0  0  0  0  0  0  0  0  0  0
   37.9500   24.6650   34.9580 H   0  0  0  0  0  0  0  0  0  0  0  0
  1 10  2  0  0  0  0
  1  2  1  0  0  0  0
  2  3  2  0  0  0  0
  3 12  1  0  0  0  0
  3  4  1  0  0  0  0
  4 13  1  0  0  0  0
  5  6  1  0  0  0  0
  5  4  2  0  0  0  0
  6 14  1  0  0  0  0
  7 15  1  0  0  0  0
  7  6  2  0  0  0  0
  8  7  1  0  0  0  0
  9  8  2  0  0  0  0
  9 10  1  0  0  0  0
 10  5  1  0  0  0  0
 11  2  1  0  0  0  0
 16  8  1  0  0  0  0
 17 18  1  0  0  0  0
 17 26  1  0  0  0  0
 18  9  1  0  0  0  0
 19 23  1  0  0  0  0
 19 18  2  0  0  0  0
 20 19  1  0  0  0  0
 21 20  2  0  0  0  0
 21 22  1  0  0  0  0
 22 17  2  0  0  0  0
 24 20  1  0  0  0  0
 25 21  1  0  0  0  0
 26 27  1  0  0  0  0
 28 29  1  0  0  0  0
 28 22  1  0  0  0  0
 29 36  1  0  0  0  0
 30 32  1  0  0  0  0
 30 29  2  0  0  0  0
 31 30  1  0  0  0  0
 32 34  2  0  0  0  0
 33 32  1  0  0  0  0
 34 36  1  0  0  0  0
 34 35  1  0  0  0  0
 37 42  1  0  0  0  0
 38 39  1  0  0  0  0
 38 37  2  0  0  0  0
 39 40  2  0  0  0  0
 40 41  1  0  0  0  0
 41  1  1  0  0  0  0
 42 41  2  0  0  0  0
 43 37  1  0  0  0  0
 44 38  1  0  0  0  0
 45 47  1  0  0  0  0
 45 39  1  0  0  0  0
 46 45  1  0  0  0  0
M  END
>  <minimizedAffinity>
-6.40014505

$$$$

 OpenBabel03242521573D

 47 51  0  0  0  0  0  0  0  0999 V2000
   37.5080   30.6040   40.1170 C   0  0  0  0  0  0  0  0  0  0  0  0
   36.5560   30.4020   39.1200 C   0  0  0  0  0  0  0  0  0  0  0  0
   35.5410   29.4430   39.2180 C   0  0  0  0  0  0  0  0  0  0  0  0
   35.4430   28.6460   40.3240 C   0  0  0  0  0  0  0  0  0  0  0  0
   36.4010   28.8220   41.3480 C   0  0  0  0  0  0  0  0  0  0  0  0
   36.3030   27.9730   42.4020 C   0  0  0  0  0  0  0  0  0  0  0  0
   37.2790   28.0710   43.3930 C   0  0  0  0  0  0  0  0  0  0  0  0
   38.3260   29.0480   43.2380 C   0  0  0  0  0  0  0  0  0  0  0  0
   38.2820   29.8330   42.1090 C   0  0  0  0  0  0  0  0  0  0  0  0
   37.3740   29.8020   41.1460 C   0  0  0  0  0  0  0  0  0  0  0  0
   36.6250   31.0400   38.2230 H   0  0  0  0  0  0  0  0  0  0  0  0
   34.8430   29.3460   38.4050 H   0  0  0  0  0  0  0  0  0  0  0  0
   34.6640   27.9100   40.4110 H   0  0  0  0  0  0  0  0  0  0  0  0
   35.4980   27.2530   42.4660 H   0  0  0  0  0  0  0  0  0  0  0  0
   37.1360   27.3710   44.2030 H   0  0  0  0  0  0  0  0  0  0  0  0
   38.9130   28.8950   44.1300 H   0  0  0  0  0  0  0  0  0  0  0  0
   40.5030   29.2180   41.7570 C   0  0  0  0  0  0  0  0  0  0  0  0
   39.6510   30.2680   42.2820 C   0  0  0  0  0  0  0  0  0  0  0  0
   40.3850   31.2100   42.8680 C   0  0  0  0  0  0  0  0  0  0  0  0
   41.7580   31.2150   42.9830 C   0  0  0  0  0  0  0  0  0  0  0  0
   42.5420   30.2130   42.4830 C   0  0  0  0  0  0  0  0  0  0  0  0
   41.8810   29.1890   41.8520 C   0  0  0  0  0  0  0  0  0  0  0  0
   39.6600   31.9590   43.2290 H   0  0  0  0  0  0  0  0  0  0  0  0
   42.1510   32.0730   43.4960 H   0  0  0  0  0  0  0  0  0  0  0  0
   43.6030   30.2800   42.6080 H   0  0  0  0  0  0  0  0  0  0  0  0
   40.0750   28.0530   41.0600 O   0  0  0  0  0  0  0  0  0  0  0  0
   39.8080   27.3080   41.6970 H   0  0  0  0  0  0  0  0  0  0  0  0
   42.7220   28.2070   41.3730 O   0  0  0  0  0  0  0  0  0  0  0  0
   43.1900   27.1550   42.1380 C   0  0  0  0  0  0  0  0  0  0  0  0
   44.4080   26.7010   42.5610 C   0  0  0  0  0  0  0  0  0  0  0  0
   45.2920   27.2210   42.2860 H   0  0  0  0  0  0  0  0  0  0  0  0
   44.1500   25.5740   43.3120 C   0  0  0  0  0  0  0  0  0  0  0  0
   44.9170   24.9930   43.7810 H   0  0  0  0  0  0  0  0  0  0  0  0
   42.7870   25.3780   43.3210 C   0  0  0  0  0  0  0  0  0  0  0  0
   42.2330   24.6080   43.7990 H   0  0  0  0  0  0  0  0  0  0  0  0
   42.2600   26.3450   42.6090 O   0  0  0  0  0  0  0  0  0  0  0  0
   39.3140   33.8390   40.5530 C   0  0  0  0  0  0  0  0  0  0  0  0
   40.4610   33.5830   39.7640 C   0  0  0  0  0  0  0  0  0  0  0  0
   40.5090   32.3620   39.1390 C   0  0  0  0  0  0  0  0  0  0  0  0
   39.4650   31.5690   39.3610 N   0  0  0  0  0  0  0  0  0  0  0  0
   38.3750   31.7700   40.0920 C   0  0  0  0  0  0  0  0  0  0  0  0
   38.3390   32.9320   40.6760 N   0  0  0  0  0  0  0  0  0  0  0  0
   39.2620   34.7970   41.0510 H   0  0  0  0  0  0  0  0  0  0  0  0
   41.2510   34.3010   39.6590 H   0  0  0  0  0  0  0  0  0  0  0  0
   41.5660   32.0000   38.2680 N   0  0  0  0  0  0  0  0  0  0  0  0
   42.5770   32.1940   38.4160 H   0  0  0  0  0  0  0  0  0  0  0  0
   41.3150   31.4900   37.3950 H   0  0  0  0  0  0  0  0  0  0  0  0
  1 10  1  0  0  0  0
  2  3  1  0  0  0  0
  2  1  2  0  0  0  0
  3  4  2  0  0  0  0
  4 13  1  0  0  0  0
  4  5  1  0  0  0  0
  5  6  1  0  0  0  0
  6 14  1  0  0  0  0
  6  7  2  0  0  0  0
  7 15  1  0  0  0  0
  8  7  1  0  0  0  0
  8 16  1  0  0  0  0
  9 18  1  0  0  0  0
  9  8  2  0  0  0  0
 10  5  2  0  0  0  0
 10  9  1  0  0  0  0
 11  2  1  0  0  0  0
 12  3  1  0  0  0  0
 17 22  2  0  0  0  0
 17 18  1  0  0  0  0
 18 19  2  0  0  0  0
 19 20  1  0  0  0  0
 19 23  1  0  0  0  0
 20 24  1  0  0  0  0
 21 25  1  0  0  0  0
 21 20  2  0  0  0  0
 22 21  1  0  0  0  0
 26 27  1  0  0  0  0
 26 17  1  0  0  0  0
 28 22  1  0  0  0  0
 28 29  1  0  0  0  0
 29 30  2  0  0  0  0
 29 36  1  0  0  0  0
 30 32  1  0  0  0  0
 31 30  1  0  0  0  0
 32 34  2  0  0  0  0
 32 33  1  0  0  0  0
 34 35  1  0  0  0  0
 36 34  1  0  0  0  0
 37 42  1  0  0  0  0
 37 43  1  0  0  0  0
 38 37  2  0  0  0  0
 39 40  2  0  0  0  0
 39 38  1  0  0  0  0
 40 41  1  0  0  0  0
 41  1  1  0  0  0  0
 41 42  2  0  0  0  0
 44 38  1  0  0  0  0
 45 46  1  0  0  0  0
 45 39  1  0  0  0  0
 47 45  1  0  0  0  0
M  END
>  <minimizedAffinity>
-6.33291578

$$$$
