
 OpenBabel03242523013D

 30 32  0  0  0  0  0  0  0  0999 V2000
   37.3930   33.4420   39.6620 C   0  0  0  0  0  0  0  0  0  0  0  0
   36.9730   32.1120   39.7780 C   0  0  0  0  0  0  0  0  0  0  0  0
   37.8450   31.1160   40.1920 C   0  0  0  0  0  0  0  0  0  0  0  0
   39.1220   31.5110   40.4770 N   0  0  0  0  0  0  0  0  0  0  0  0
   39.5170   32.7970   40.3630 C   0  0  0  0  0  0  0  0  0  0  0  0
   38.6630   33.7570   39.9590 N   0  0  0  0  0  0  0  0  0  0  0  0
   36.6920   34.2010   39.3360 H   0  0  0  0  0  0  0  0  0  0  0  0
   35.9590   31.8380   39.5450 H   0  0  0  0  0  0  0  0  0  0  0  0
   37.1470   29.7450   37.6410 Cl  0  0  0  0  0  0  0  0  0  0  0  0
   37.1230   29.0230   39.2220 C   0  0  0  0  0  0  0  0  0  0  0  0
   37.4530   29.7120   40.3280 C   0  0  0  0  0  0  0  0  0  0  0  0
   37.4000   29.0430   41.5400 C   0  0  0  0  0  0  0  0  0  0  0  0
   37.0320   27.7420   41.6300 C   0  0  0  0  0  0  0  0  0  0  0  0
   36.6940   27.0320   40.5040 C   0  0  0  0  0  0  0  0  0  0  0  0
   36.7440   27.6880   39.3080 C   0  0  0  0  0  0  0  0  0  0  0  0
   37.6690   29.6050   42.4350 H   0  0  0  0  0  0  0  0  0  0  0  0
   36.3940   25.9920   40.5340 H   0  0  0  0  0  0  0  0  0  0  0  0
   36.4760   27.1280   38.4140 H   0  0  0  0  0  0  0  0  0  0  0  0
   36.9760   27.0210   42.9360 C   0  0  0  0  0  0  0  0  0  0  0  0
   35.8390   27.4020   43.5910 F   0  0  0  0  0  0  0  0  0  0  0  0
   38.1220   27.2380   43.6800 F   0  0  0  0  0  0  0  0  0  0  0  0
   36.9190   25.6540   42.6610 F   0  0  0  0  0  0  0  0  0  0  0  0
   40.9190   32.9780   40.7180 C   0  0  0  0  0  0  0  0  0  0  0  0
   41.5150   34.1600   40.2710 C   0  0  0  0  0  0  0  0  0  0  0  0
   41.1510   35.0120   39.6920 H   0  0  0  0  0  0  0  0  0  0  0  0
   42.8340   34.1400   40.7090 C   0  0  0  0  0  0  0  0  0  0  0  0
   43.6400   34.8790   40.5700 H   0  0  0  0  0  0  0  0  0  0  0  0
   42.9600   32.9380   41.4000 C   0  0  0  0  0  0  0  0  0  0  0  0
   43.8720   32.6090   41.8730 H   0  0  0  0  0  0  0  0  0  0  0  0
   41.8310   32.2900   41.3850 O   0  0  0  0  0  0  0  0  0  0  0  0
  1  2  2  0  0  0  0
  1  6  1  0  0  0  0
  2  3  1  0  0  0  0
  3 11  1  0  0  0  0
  3  4  2  0  0  0  0
  5  4  1  0  0  0  0
  5 23  1  0  0  0  0
  6  5  2  0  0  0  0
  7  1  1  0  0  0  0
  8  2  1  0  0  0  0
  9 10  1  0  0  0  0
 10 15  2  0  0  0  0
 10 11  1  0  0  0  0
 11 12  2  0  0  0  0
 12 13  1  0  0  0  0
 12 16  1  0  0  0  0
 13 19  1  0  0  0  0
 14 17  1  0  0  0  0
 14 13  2  0  0  0  0
 15 14  1  0  0  0  0
 18 15  1  0  0  0  0
 19 20  1  0  0  0  0
 19 21  1  0  0  0  0
 22 19  1  0  0  0  0
 23 30  1  0  0  0  0
 24 26  1  0  0  0  0
 24 23  2  0  0  0  0
 25 24  1  0  0  0  0
 26 28  2  0  0  0  0
 27 26  1  0  0  0  0
 28 29  1  0  0  0  0
 30 28  1  0  0  0  0
M  END
>  <minimizedAffinity>
-5.80222559

$$$$

 OpenBabel03242523013D

 30 32  0  0  0  0  0  0  0  0999 V2000
   36.3340   29.6490   36.9320 C   0  0  0  0  0  0  0  0  0  0  0  0
   36.2210   28.8360   38.0660 C   0  0  0  0  0  0  0  0  0  0  0  0
   37.1210   28.9390   39.1170 C   0  0  0  0  0  0  0  0  0  0  0  0
   38.1090   29.8720   38.9780 N   0  0  0  0  0  0  0  0  0  0  0  0
   38.2090   30.6520   37.8790 C   0  0  0  0  0  0  0  0  0  0  0  0
   37.3320   30.5440   36.8640 N   0  0  0  0  0  0  0  0  0  0  0  0
   35.6190   29.5480   36.1240 H   0  0  0  0  0  0  0  0  0  0  0  0
   35.4290   28.1130   38.1410 H   0  0  0  0  0  0  0  0  0  0  0  0
   36.5440   30.4260   41.6330 Cl  0  0  0  0  0  0  0  0  0  0  0  0
   36.7860   28.7090   41.5000 C   0  0  0  0  0  0  0  0  0  0  0  0
   37.0430   28.1130   40.3230 C   0  0  0  0  0  0  0  0  0  0  0  0
   37.2210   26.7390   40.3260 C   0  0  0  0  0  0  0  0  0  0  0  0
   37.1420   26.0040   41.4610 C   0  0  0  0  0  0  0  0  0  0  0  0
   36.8800   26.6070   42.6670 C   0  0  0  0  0  0  0  0  0  0  0  0
   36.7050   27.9610   42.6690 C   0  0  0  0  0  0  0  0  0  0  0  0
   37.4290   26.2590   39.3690 H   0  0  0  0  0  0  0  0  0  0  0  0
   36.8100   26.0550   43.5960 H   0  0  0  0  0  0  0  0  0  0  0  0
   36.4980   28.4410   43.6230 H   0  0  0  0  0  0  0  0  0  0  0  0
   37.3330   24.5230   41.4640 C   0  0  0  0  0  0  0  0  0  0  0  0
   36.1160   23.9310   41.2810 F   0  0  0  0  0  0  0  0  0  0  0  0
   37.9670   24.1010   42.6190 F   0  0  0  0  0  0  0  0  0  0  0  0
   38.1730   24.2040   40.3960 F   0  0  0  0  0  0  0  0  0  0  0  0
   39.3390   31.5690   37.9550 C   0  0  0  0  0  0  0  0  0  0  0  0
   39.4670   32.2850   39.1480 C   0  0  0  0  0  0  0  0  0  0  0  0
   38.8870   32.3110   40.0740 H   0  0  0  0  0  0  0  0  0  0  0  0
   40.5920   33.0910   39.0200 C   0  0  0  0  0  0  0  0  0  0  0  0
   41.0390   33.8060   39.7300 H   0  0  0  0  0  0  0  0  0  0  0  0
   41.0810   32.8150   37.7460 C   0  0  0  0  0  0  0  0  0  0  0  0
   41.9600   33.2810   37.3250 H   0  0  0  0  0  0  0  0  0  0  0  0
   40.3310   31.9290   37.1570 O   0  0  0  0  0  0  0  0  0  0  0  0
  1  2  1  0  0  0  0
  2  8  1  0  0  0  0
  2  3  2  0  0  0  0
  3 11  1  0  0  0  0
  4  3  1  0  0  0  0
  5 23  1  0  0  0  0
  5  4  2  0  0  0  0
  6  1  2  0  0  0  0
  6  5  1  0  0  0  0
  7  1  1  0  0  0  0
 10  9  1  0  0  0  0
 10 15  1  0  0  0  0
 11 12  1  0  0  0  0
 11 10  2  0  0  0  0
 12 13  2  0  0  0  0
 13 19  1  0  0  0  0
 13 14  1  0  0  0  0
 14 15  2  0  0  0  0
 14 17  1  0  0  0  0
 15 18  1  0  0  0  0
 16 12  1  0  0  0  0
 19 21  1  0  0  0  0
 20 19  1  0  0  0  0
 22 19  1  0  0  0  0
 23 24  2  0  0  0  0
 24 25  1  0  0  0  0
 26 24  1  0  0  0  0
 26 27  1  0  0  0  0
 28 26  2  0  0  0  0
 29 28  1  0  0  0  0
 30 28  1  0  0  0  0
 30 23  1  0  0  0  0
M  END
>  <minimizedAffinity>
-5.56857204

$$$$

 OpenBabel03242523013D

 30 32  0  0  0  0  0  0  0  0999 V2000
   37.4740   33.1170   40.0750 C   0  0  0  0  0  0  0  0  0  0  0  0
   37.0520   31.7990   40.2850 C   0  0  0  0  0  0  0  0  0  0  0  0
   37.7910   30.7230   39.8150 C   0  0  0  0  0  0  0  0  0  0  0  0
   38.9420   31.0270   39.1440 N   0  0  0  0  0  0  0  0  0  0  0  0
   39.3410   32.3020   38.9480 C   0  0  0  0  0  0  0  0  0  0  0  0
   38.6160   33.3400   39.4070 N   0  0  0  0  0  0  0  0  0  0  0  0
   36.8780   33.9390   40.4520 H   0  0  0  0  0  0  0  0  0  0  0  0
   36.1400   31.5970   40.8190 H   0  0  0  0  0  0  0  0  0  0  0  0
   36.8450   29.3240   37.3620 Cl  0  0  0  0  0  0  0  0  0  0  0  0
   36.9520   28.6270   38.9510 C   0  0  0  0  0  0  0  0  0  0  0  0
   37.3920   29.3280   40.0110 C   0  0  0  0  0  0  0  0  0  0  0  0
   37.4380   28.6790   41.2340 C   0  0  0  0  0  0  0  0  0  0  0  0
   37.0600   27.3870   41.3790 C   0  0  0  0  0  0  0  0  0  0  0  0
   36.6100   26.6650   40.3000 C   0  0  0  0  0  0  0  0  0  0  0  0
   36.5620   27.3000   39.0930 C   0  0  0  0  0  0  0  0  0  0  0  0
   37.7950   29.2510   42.0910 H   0  0  0  0  0  0  0  0  0  0  0  0
   36.2990   25.6300   40.3750 H   0  0  0  0  0  0  0  0  0  0  0  0
   36.2060   26.7310   38.2380 H   0  0  0  0  0  0  0  0  0  0  0  0
   37.1100   26.6870   42.6970 C   0  0  0  0  0  0  0  0  0  0  0  0
   38.3270   26.9290   43.2680 F   0  0  0  0  0  0  0  0  0  0  0  0
   36.8400   25.3370   42.5600 F   0  0  0  0  0  0  0  0  0  0  0  0
   36.1040   27.2260   43.5000 F   0  0  0  0  0  0  0  0  0  0  0  0
   40.5950   32.3810   38.2080 C   0  0  0  0  0  0  0  0  0  0  0  0
   41.0170   31.1980   37.5950 C   0  0  0  0  0  0  0  0  0  0  0  0
   40.6010   30.1880   37.5430 H   0  0  0  0  0  0  0  0  0  0  0  0
   42.2150   31.4810   36.9500 C   0  0  0  0  0  0  0  0  0  0  0  0
   42.8730   30.8280   36.3530 H   0  0  0  0  0  0  0  0  0  0  0  0
   42.4500   32.8270   37.2130 C   0  0  0  0  0  0  0  0  0  0  0  0
   43.3110   33.3700   36.8530 H   0  0  0  0  0  0  0  0  0  0  0  0
   41.4910   33.3180   37.9450 O   0  0  0  0  0  0  0  0  0  0  0  0
  1  2  1  0  0  0  0
  1  7  1  0  0  0  0
  2  8  1  0  0  0  0
  3 11  1  0  0  0  0
  3  2  2  0  0  0  0
  4  3  1  0  0  0  0
  5  4  2  0  0  0  0
  5  6  1  0  0  0  0
  6  1  2  0  0  0  0
  9 10  1  0  0  0  0
 10 15  2  0  0  0  0
 10 11  1  0  0  0  0
 11 12  2  0  0  0  0
 12 13  1  0  0  0  0
 12 16  1  0  0  0  0
 13 19  1  0  0  0  0
 14 17  1  0  0  0  0
 14 13  2  0  0  0  0
 15 14  1  0  0  0  0
 18 15  1  0  0  0  0
 19 20  1  0  0  0  0
 19 22  1  0  0  0  0
 21 19  1  0  0  0  0
 23  5  1  0  0  0  0
 24 23  2  0  0  0  0
 25 24  1  0  0  0  0
 26 28  2  0  0  0  0
 26 24  1  0  0  0  0
 27 26  1  0  0  0  0
 28 30  1  0  0  0  0
 29 28  1  0  0  0  0
 30 23  1  0  0  0  0
M  END
>  <minimizedAffinity>
-5.53389502

$$$$

 OpenBabel03242523013D

 30 32  0  0  0  0  0  0  0  0999 V2000
   40.9030   32.6580   40.6950 C   0  0  0  0  0  0  0  0  0  0  0  0
   39.7550   31.9410   41.0510 C   0  0  0  0  0  0  0  0  0  0  0  0
   39.3370   30.8420   40.3150 C   0  0  0  0  0  0  0  0  0  0  0  0
   40.1060   30.5080   39.2360 N   0  0  0  0  0  0  0  0  0  0  0  0
   41.2120   31.2060   38.9020 C   0  0  0  0  0  0  0  0  0  0  0  0
   41.6100   32.2730   39.6220 N   0  0  0  0  0  0  0  0  0  0  0  0
   41.2070   33.5140   41.2860 H   0  0  0  0  0  0  0  0  0  0  0  0
   39.1730   32.2330   41.9070 H   0  0  0  0  0  0  0  0  0  0  0  0
   36.8770   31.5850   38.8080 Cl  0  0  0  0  0  0  0  0  0  0  0  0
   36.9930   30.3340   40.0110 C   0  0  0  0  0  0  0  0  0  0  0  0
   38.1450   30.0600   40.6480 C   0  0  0  0  0  0  0  0  0  0  0  0
   38.1290   29.0440   41.5900 C   0  0  0  0  0  0  0  0  0  0  0  0
   37.0070   28.3400   41.8730 C   0  0  0  0  0  0  0  0  0  0  0  0
   35.8270   28.6160   41.2260 C   0  0  0  0  0  0  0  0  0  0  0  0
   35.8370   29.6160   40.2970 C   0  0  0  0  0  0  0  0  0  0  0  0
   39.0650   28.8240   42.1040 H   0  0  0  0  0  0  0  0  0  0  0  0
   34.9090   28.0770   41.4250 H   0  0  0  0  0  0  0  0  0  0  0  0
   34.9040   29.8370   39.7840 H   0  0  0  0  0  0  0  0  0  0  0  0
   36.9910   27.2450   42.8880 C   0  0  0  0  0  0  0  0  0  0  0  0
   35.8860   27.4030   43.6760 F   0  0  0  0  0  0  0  0  0  0  0  0
   38.1680   27.2160   43.6150 F   0  0  0  0  0  0  0  0  0  0  0  0
   36.9050   26.0340   42.2000 F   0  0  0  0  0  0  0  0  0  0  0  0
   41.8690   30.6670   37.7170 C   0  0  0  0  0  0  0  0  0  0  0  0
   41.6700   29.3050   37.4760 C   0  0  0  0  0  0  0  0  0  0  0  0
   41.1100   28.5230   37.9970 H   0  0  0  0  0  0  0  0  0  0  0  0
   42.3690   28.9910   36.3170 C   0  0  0  0  0  0  0  0  0  0  0  0
   42.4720   28.0310   35.7860 H   0  0  0  0  0  0  0  0  0  0  0  0
   42.9560   30.1910   35.9220 C   0  0  0  0  0  0  0  0  0  0  0  0
   43.5760   30.2980   35.0450 H   0  0  0  0  0  0  0  0  0  0  0  0
   42.6450   31.1410   36.7570 O   0  0  0  0  0  0  0  0  0  0  0  0
  1  2  1  0  0  0  0
  1  7  1  0  0  0  0
  2  8  1  0  0  0  0
  3 11  1  0  0  0  0
  3  2  2  0  0  0  0
  4  3  1  0  0  0  0
  5  4  2  0  0  0  0
  5  6  1  0  0  0  0
  6  1  2  0  0  0  0
  9 10  1  0  0  0  0
 10 15  2  0  0  0  0
 10 11  1  0  0  0  0
 11 12  2  0  0  0  0
 12 13  1  0  0  0  0
 12 16  1  0  0  0  0
 13 19  1  0  0  0  0
 14 17  1  0  0  0  0
 14 13  2  0  0  0  0
 15 14  1  0  0  0  0
 18 15  1  0  0  0  0
 19 21  1  0  0  0  0
 19 20  1  0  0  0  0
 22 19  1  0  0  0  0
 23  5  1  0  0  0  0
 24 23  2  0  0  0  0
 24 25  1  0  0  0  0
 26 24  1  0  0  0  0
 27 26  1  0  0  0  0
 28 26  2  0  0  0  0
 28 30  1  0  0  0  0
 29 28  1  0  0  0  0
 30 23  1  0  0  0  0
M  END
>  <minimizedAffinity>
-5.51129723

$$$$

 OpenBabel03242523013D

 30 32  0  0  0  0  0  0  0  0999 V2000
   34.9420   27.7500   36.2000 C   0  0  0  0  0  0  0  0  0  0  0  0
   35.7500   27.9150   37.3300 C   0  0  0  0  0  0  0  0  0  0  0  0
   35.3050   28.6250   38.4360 C   0  0  0  0  0  0  0  0  0  0  0  0
   34.0440   29.1460   38.3520 N   0  0  0  0  0  0  0  0  0  0  0  0
   33.2730   28.9810   37.2560 C   0  0  0  0  0  0  0  0  0  0  0  0
   33.7140   28.2900   36.1880 N   0  0  0  0  0  0  0  0  0  0  0  0
   35.3140   27.1910   35.3490 H   0  0  0  0  0  0  0  0  0  0  0  0
   36.7380   27.4900   37.3610 H   0  0  0  0  0  0  0  0  0  0  0  0
   36.9040   31.1380   38.4860 Cl  0  0  0  0  0  0  0  0  0  0  0  0
   36.8640   29.9340   39.7400 C   0  0  0  0  0  0  0  0  0  0  0  0
   36.1130   28.8230   39.6400 C   0  0  0  0  0  0  0  0  0  0  0  0
   36.1520   27.9270   40.6960 C   0  0  0  0  0  0  0  0  0  0  0  0
   36.9120   28.1420   41.7970 C   0  0  0  0  0  0  0  0  0  0  0  0
   37.6810   29.2750   41.9050 C   0  0  0  0  0  0  0  0  0  0  0  0
   37.6450   30.1610   40.8670 C   0  0  0  0  0  0  0  0  0  0  0  0
   35.5420   27.0270   40.6120 H   0  0  0  0  0  0  0  0  0  0  0  0
   38.3010   29.4830   42.7680 H   0  0  0  0  0  0  0  0  0  0  0  0
   38.2540   31.0590   40.9500 H   0  0  0  0  0  0  0  0  0  0  0  0
   36.9540   27.1760   42.9350 C   0  0  0  0  0  0  0  0  0  0  0  0
   35.8200   27.3360   43.6790 F   0  0  0  0  0  0  0  0  0  0  0  0
   38.1100   27.3270   43.6790 F   0  0  0  0  0  0  0  0  0  0  0  0
   36.9800   25.8890   42.3950 F   0  0  0  0  0  0  0  0  0  0  0  0
   31.9720   29.6240   37.3960 C   0  0  0  0  0  0  0  0  0  0  0  0
   31.4110   30.1290   36.2190 C   0  0  0  0  0  0  0  0  0  0  0  0
   31.7420   30.1500   35.1780 H   0  0  0  0  0  0  0  0  0  0  0  0
   30.1880   30.6940   36.5630 C   0  0  0  0  0  0  0  0  0  0  0  0
   29.4360   31.1970   35.9340 H   0  0  0  0  0  0  0  0  0  0  0  0
   30.0810   30.4970   37.9370 C   0  0  0  0  0  0  0  0  0  0  0  0
   29.2370   30.8220   38.5270 H   0  0  0  0  0  0  0  0  0  0  0  0
   31.1320   29.8740   38.3870 O   0  0  0  0  0  0  0  0  0  0  0  0
  1  2  1  0  0  0  0
  2  8  1  0  0  0  0
  2  3  2  0  0  0  0
  3 11  1  0  0  0  0
  4  3  1  0  0  0  0
  5 23  1  0  0  0  0
  5  4  2  0  0  0  0
  6  1  2  0  0  0  0
  6  5  1  0  0  0  0
  7  1  1  0  0  0  0
  9 10  1  0  0  0  0
 10 15  1  0  0  0  0
 11 10  2  0  0  0  0
 11 12  1  0  0  0  0
 12 13  2  0  0  0  0
 13 14  1  0  0  0  0
 13 19  1  0  0  0  0
 14 17  1  0  0  0  0
 15 18  1  0  0  0  0
 15 14  2  0  0  0  0
 16 12  1  0  0  0  0
 19 20  1  0  0  0  0
 19 21  1  0  0  0  0
 22 19  1  0  0  0  0
 23 30  1  0  0  0  0
 24 26  1  0  0  0  0
 24 23  2  0  0  0  0
 25 24  1  0  0  0  0
 26 28  2  0  0  0  0
 27 26  1  0  0  0  0
 28 30  1  0  0  0  0
 28 29  1  0  0  0  0
M  END
>  <minimizedAffinity>
-5.4332943

$$$$

 OpenBabel03242523013D

 30 32  0  0  0  0  0  0  0  0999 V2000
   36.9320   31.8330   39.2700 C   0  0  0  0  0  0  0  0  0  0  0  0
   36.9540   30.7530   40.1610 C   0  0  0  0  0  0  0  0  0  0  0  0
   38.0790   29.9520   40.2920 C   0  0  0  0  0  0  0  0  0  0  0  0
   39.1500   30.2790   39.5080 N   0  0  0  0  0  0  0  0  0  0  0  0
   39.1180   31.3230   38.6520 C   0  0  0  0  0  0  0  0  0  0  0  0
   38.0210   32.0940   38.5310 N   0  0  0  0  0  0  0  0  0  0  0  0
   36.0410   32.4420   39.1850 H   0  0  0  0  0  0  0  0  0  0  0  0
   36.0920   30.5260   40.7620 H   0  0  0  0  0  0  0  0  0  0  0  0
   39.4130   30.5100   42.8960 Cl  0  0  0  0  0  0  0  0  0  0  0  0
   38.7380   28.9840   42.4070 C   0  0  0  0  0  0  0  0  0  0  0  0
   38.1500   28.8140   41.2100 C   0  0  0  0  0  0  0  0  0  0  0  0
   37.6450   27.5580   40.9180 C   0  0  0  0  0  0  0  0  0  0  0  0
   37.7280   26.5260   41.7920 C   0  0  0  0  0  0  0  0  0  0  0  0
   38.3270   26.6940   43.0170 C   0  0  0  0  0  0  0  0  0  0  0  0
   38.8270   27.9300   43.3090 C   0  0  0  0  0  0  0  0  0  0  0  0
   37.1690   27.4230   39.9460 H   0  0  0  0  0  0  0  0  0  0  0  0
   38.4130   25.8940   43.7420 H   0  0  0  0  0  0  0  0  0  0  0  0
   39.3020   28.0650   44.2780 H   0  0  0  0  0  0  0  0  0  0  0  0
   37.1820   25.1720   41.4770 C   0  0  0  0  0  0  0  0  0  0  0  0
   38.2300   24.3110   41.3160 F   0  0  0  0  0  0  0  0  0  0  0  0
   36.3460   25.2110   40.3750 F   0  0  0  0  0  0  0  0  0  0  0  0
   36.4070   24.7660   42.5640 F   0  0  0  0  0  0  0  0  0  0  0  0
   40.3710   31.4780   37.9240 C   0  0  0  0  0  0  0  0  0  0  0  0
   41.0240   30.2930   37.5740 C   0  0  0  0  0  0  0  0  0  0  0  0
   40.7970   29.2350   37.7290 H   0  0  0  0  0  0  0  0  0  0  0  0
   42.1830   30.6530   36.8950 C   0  0  0  0  0  0  0  0  0  0  0  0
   42.9730   30.0240   36.4530 H   0  0  0  0  0  0  0  0  0  0  0  0
   42.1630   32.0450   36.8750 C   0  0  0  0  0  0  0  0  0  0  0  0
   42.9300   32.6510   36.4180 H   0  0  0  0  0  0  0  0  0  0  0  0
   41.0990   32.4900   37.4800 O   0  0  0  0  0  0  0  0  0  0  0  0
  1  2  1  0  0  0  0
  2  3  2  0  0  0  0
  2  8  1  0  0  0  0
  3 11  1  0  0  0  0
  4  3  1  0  0  0  0
  5  4  2  0  0  0  0
  6  5  1  0  0  0  0
  6  1  2  0  0  0  0
  7  1  1  0  0  0  0
 10  9  1  0  0  0  0
 10 15  1  0  0  0  0
 11 10  2  0  0  0  0
 12 11  1  0  0  0  0
 12 13  2  0  0  0  0
 13 14  1  0  0  0  0
 14 15  2  0  0  0  0
 14 17  1  0  0  0  0
 15 18  1  0  0  0  0
 16 12  1  0  0  0  0
 19 13  1  0  0  0  0
 19 22  1  0  0  0  0
 20 19  1  0  0  0  0
 21 19  1  0  0  0  0
 23  5  1  0  0  0  0
 24 25  1  0  0  0  0
 24 23  2  0  0  0  0
 26 24  1  0  0  0  0
 27 26  1  0  0  0  0
 28 26  2  0  0  0  0
 28 30  1  0  0  0  0
 29 28  1  0  0  0  0
 30 23  1  0  0  0  0
M  END
>  <minimizedAffinity>
-5.38124418

$$$$

 OpenBabel03242523013D

 30 32  0  0  0  0  0  0  0  0999 V2000
   39.3660   34.1590   40.3430 C   0  0  0  0  0  0  0  0  0  0  0  0
   38.4640   33.1310   40.6390 C   0  0  0  0  0  0  0  0  0  0  0  0
   38.6510   31.8460   40.1480 C   0  0  0  0  0  0  0  0  0  0  0  0
   39.7570   31.6520   39.3690 N   0  0  0  0  0  0  0  0  0  0  0  0
   40.6220   32.6510   39.0910 C   0  0  0  0  0  0  0  0  0  0  0  0
   40.4310   33.8940   39.5710 N   0  0  0  0  0  0  0  0  0  0  0  0
   39.1960   35.1530   40.7380 H   0  0  0  0  0  0  0  0  0  0  0  0
   37.6040   33.3210   41.2560 H   0  0  0  0  0  0  0  0  0  0  0  0
   39.1850   30.3810   42.6860 Cl  0  0  0  0  0  0  0  0  0  0  0  0
   37.9110   30.0270   41.5570 C   0  0  0  0  0  0  0  0  0  0  0  0
   37.7370   30.7390   40.4300 C   0  0  0  0  0  0  0  0  0  0  0  0
   36.6910   30.3740   39.5980 C   0  0  0  0  0  0  0  0  0  0  0  0
   35.8620   29.3430   39.8900 C   0  0  0  0  0  0  0  0  0  0  0  0
   36.0360   28.6120   41.0400 C   0  0  0  0  0  0  0  0  0  0  0  0
   37.0650   28.9670   41.8630 C   0  0  0  0  0  0  0  0  0  0  0  0
   36.5520   30.9540   38.6840 H   0  0  0  0  0  0  0  0  0  0  0  0
   35.3950   27.7800   41.3090 H   0  0  0  0  0  0  0  0  0  0  0  0
   37.2040   28.3890   42.7740 H   0  0  0  0  0  0  0  0  0  0  0  0
   34.7350   28.9500   38.9930 C   0  0  0  0  0  0  0  0  0  0  0  0
   33.5590   29.2250   39.6320 F   0  0  0  0  0  0  0  0  0  0  0  0
   34.8390   27.6260   38.6060 F   0  0  0  0  0  0  0  0  0  0  0  0
   34.8280   29.7230   37.8350 F   0  0  0  0  0  0  0  0  0  0  0  0
   41.7220   32.2080   38.2430 C   0  0  0  0  0  0  0  0  0  0  0  0
   41.4170   31.2040   37.3210 C   0  0  0  0  0  0  0  0  0  0  0  0
   40.5020   30.6560   37.0820 H   0  0  0  0  0  0  0  0  0  0  0  0
   42.5850   30.9280   36.6200 C   0  0  0  0  0  0  0  0  0  0  0  0
   42.7740   30.2050   35.8100 H   0  0  0  0  0  0  0  0  0  0  0  0
   43.5360   31.7870   37.1650 C   0  0  0  0  0  0  0  0  0  0  0  0
   44.5650   31.8280   36.8410 H   0  0  0  0  0  0  0  0  0  0  0  0
   43.0020   32.5140   38.1030 O   0  0  0  0  0  0  0  0  0  0  0  0
  1  2  1  0  0  0  0
  1  7  1  0  0  0  0
  2  8  1  0  0  0  0
  3 11  1  0  0  0  0
  3  2  2  0  0  0  0
  4  3  1  0  0  0  0
  5  4  2  0  0  0  0
  5  6  1  0  0  0  0
  6  1  2  0  0  0  0
 10 15  1  0  0  0  0
 10  9  1  0  0  0  0
 11 10  2  0  0  0  0
 12 13  2  0  0  0  0
 12 11  1  0  0  0  0
 13 14  1  0  0  0  0
 14 17  1  0  0  0  0
 14 15  2  0  0  0  0
 15 18  1  0  0  0  0
 16 12  1  0  0  0  0
 19 20  1  0  0  0  0
 19 13  1  0  0  0  0
 21 19  1  0  0  0  0
 22 19  1  0  0  0  0
 23  5  1  0  0  0  0
 24 23  2  0  0  0  0
 25 24  1  0  0  0  0
 26 28  2  0  0  0  0
 26 24  1  0  0  0  0
 27 26  1  0  0  0  0
 28 30  1  0  0  0  0
 29 28  1  0  0  0  0
 30 23  1  0  0  0  0
M  END
>  <minimizedAffinity>
-5.37932348

$$$$

 OpenBabel03242523013D

 30 32  0  0  0  0  0  0  0  0999 V2000
   37.5880   28.5840   43.5110 C   0  0  0  0  0  0  0  0  0  0  0  0
   37.5620   27.2530   43.0780 C   0  0  0  0  0  0  0  0  0  0  0  0
   37.5890   26.9360   41.7270 C   0  0  0  0  0  0  0  0  0  0  0  0
   37.6420   27.9910   40.8590 N   0  0  0  0  0  0  0  0  0  0  0  0
   37.6670   29.2710   41.2880 C   0  0  0  0  0  0  0  0  0  0  0  0
   37.6400   29.5690   42.6010 N   0  0  0  0  0  0  0  0  0  0  0  0
   37.5660   28.8050   44.5720 H   0  0  0  0  0  0  0  0  0  0  0  0
   37.5210   26.4490   43.7900 H   0  0  0  0  0  0  0  0  0  0  0  0
   40.0850   25.3770   42.1910 Cl  0  0  0  0  0  0  0  0  0  0  0  0
   38.6530   24.7910   41.3960 C   0  0  0  0  0  0  0  0  0  0  0  0
   37.5640   25.5610   41.2260 C   0  0  0  0  0  0  0  0  0  0  0  0
   36.4760   24.9980   40.5790 C   0  0  0  0  0  0  0  0  0  0  0  0
   36.4880   23.7210   40.1280 C   0  0  0  0  0  0  0  0  0  0  0  0
   37.5980   22.9290   40.2980 C   0  0  0  0  0  0  0  0  0  0  0  0
   38.6720   23.4800   40.9350 C   0  0  0  0  0  0  0  0  0  0  0  0
   35.5950   25.6250   40.4430 H   0  0  0  0  0  0  0  0  0  0  0  0
   37.6460   21.9040   39.9520 H   0  0  0  0  0  0  0  0  0  0  0  0
   39.5520   22.8550   41.0710 H   0  0  0  0  0  0  0  0  0  0  0  0
   35.3150   23.1130   39.4310 C   0  0  0  0  0  0  0  0  0  0  0  0
   35.6470   21.8430   39.0540 F   0  0  0  0  0  0  0  0  0  0  0  0
   34.9010   23.8970   38.3690 F   0  0  0  0  0  0  0  0  0  0  0  0
   34.2590   23.0690   40.3430 F   0  0  0  0  0  0  0  0  0  0  0  0
   37.7230   30.2210   40.1850 C   0  0  0  0  0  0  0  0  0  0  0  0
   36.9080   31.3500   40.3090 C   0  0  0  0  0  0  0  0  0  0  0  0
   36.2110   31.6920   41.0780 H   0  0  0  0  0  0  0  0  0  0  0  0
   37.1050   32.1200   39.1690 C   0  0  0  0  0  0  0  0  0  0  0  0
   36.6560   33.0830   38.8740 H   0  0  0  0  0  0  0  0  0  0  0  0
   38.0330   31.4070   38.4160 C   0  0  0  0  0  0  0  0  0  0  0  0
   38.4090   31.7330   37.4570 H   0  0  0  0  0  0  0  0  0  0  0  0
   38.3700   30.3120   39.0340 O   0  0  0  0  0  0  0  0  0  0  0  0
  1  7  1  0  0  0  0
  2  1  1  0  0  0  0
  2  8  1  0  0  0  0
  3  2  2  0  0  0  0
  4  5  2  0  0  0  0
  4  3  1  0  0  0  0
  5  6  1  0  0  0  0
  6  1  2  0  0  0  0
 10  9  1  0  0  0  0
 11 10  1  0  0  0  0
 11  3  1  0  0  0  0
 12 11  2  0  0  0  0
 13 14  2  0  0  0  0
 13 12  1  0  0  0  0
 14 15  1  0  0  0  0
 15 18  1  0  0  0  0
 15 10  2  0  0  0  0
 16 12  1  0  0  0  0
 17 14  1  0  0  0  0
 19 13  1  0  0  0  0
 19 22  1  0  0  0  0
 20 19  1  0  0  0  0
 21 19  1  0  0  0  0
 23 24  2  0  0  0  0
 23  5  1  0  0  0  0
 24 25  1  0  0  0  0
 26 24  1  0  0  0  0
 27 26  1  0  0  0  0
 28 30  1  0  0  0  0
 28 26  2  0  0  0  0
 29 28  1  0  0  0  0
 30 23  1  0  0  0  0
M  END
>  <minimizedAffinity>
-5.36408758

$$$$

 OpenBabel03242523013D

 30 32  0  0  0  0  0  0  0  0999 V2000
   39.9650   29.7670   42.9150 C   0  0  0  0  0  0  0  0  0  0  0  0
   39.5490   28.4350   42.8020 C   0  0  0  0  0  0  0  0  0  0  0  0
   38.6910   28.0330   41.7890 C   0  0  0  0  0  0  0  0  0  0  0  0
   38.2830   29.0060   40.9200 N   0  0  0  0  0  0  0  0  0  0  0  0
   38.6910   30.2880   41.0380 C   0  0  0  0  0  0  0  0  0  0  0  0
   39.5240   30.6680   42.0250 N   0  0  0  0  0  0  0  0  0  0  0  0
   40.6360   30.0550   43.7160 H   0  0  0  0  0  0  0  0  0  0  0  0
   39.8910   27.6960   43.5050 H   0  0  0  0  0  0  0  0  0  0  0  0
   36.4270   27.2470   43.5590 Cl  0  0  0  0  0  0  0  0  0  0  0  0
   37.2090   26.2200   42.3930 C   0  0  0  0  0  0  0  0  0  0  0  0
   38.2280   26.6530   41.6300 C   0  0  0  0  0  0  0  0  0  0  0  0
   38.7820   25.7550   40.7330 C   0  0  0  0  0  0  0  0  0  0  0  0
   38.3300   24.4840   40.6110 C   0  0  0  0  0  0  0  0  0  0  0  0
   37.2890   24.0360   41.3880 C   0  0  0  0  0  0  0  0  0  0  0  0
   36.7400   24.9170   42.2740 C   0  0  0  0  0  0  0  0  0  0  0  0
   39.6090   26.1100   40.1150 H   0  0  0  0  0  0  0  0  0  0  0  0
   36.8980   23.0280   41.3210 H   0  0  0  0  0  0  0  0  0  0  0  0
   35.9160   24.5650   42.8910 H   0  0  0  0  0  0  0  0  0  0  0  0
   38.9260   23.5170   39.6440 C   0  0  0  0  0  0  0  0  0  0  0  0
   38.8090   22.2590   40.1630 F   0  0  0  0  0  0  0  0  0  0  0  0
   40.2340   23.8520   39.3400 F   0  0  0  0  0  0  0  0  0  0  0  0
   38.1960   23.6010   38.4570 F   0  0  0  0  0  0  0  0  0  0  0  0
   38.1280   31.1430   40.0000 C   0  0  0  0  0  0  0  0  0  0  0  0
   37.7770   32.4360   40.3990 C   0  0  0  0  0  0  0  0  0  0  0  0
   37.8330   32.9700   41.3510 H   0  0  0  0  0  0  0  0  0  0  0  0
   37.2660   33.0810   39.2780 C   0  0  0  0  0  0  0  0  0  0  0  0
   36.8780   34.1070   39.1630 H   0  0  0  0  0  0  0  0  0  0  0  0
   37.3390   32.1340   38.2610 C   0  0  0  0  0  0  0  0  0  0  0  0
   37.0170   32.3150   37.2460 H   0  0  0  0  0  0  0  0  0  0  0  0
   37.8430   31.0220   38.7140 O   0  0  0  0  0  0  0  0  0  0  0  0
  1  7  1  0  0  0  0
  2  1  1  0  0  0  0
  2  8  1  0  0  0  0
  3  2  2  0  0  0  0
  4  5  2  0  0  0  0
  4  3  1  0  0  0  0
  5  6  1  0  0  0  0
  6  1  2  0  0  0  0
 10  9  1  0  0  0  0
 11  3  1  0  0  0  0
 11 10  2  0  0  0  0
 12 11  1  0  0  0  0
 13 12  2  0  0  0  0
 13 14  1  0  0  0  0
 14 15  2  0  0  0  0
 15 10  1  0  0  0  0
 15 18  1  0  0  0  0
 16 12  1  0  0  0  0
 17 14  1  0  0  0  0
 19 20  1  0  0  0  0
 19 13  1  0  0  0  0
 21 19  1  0  0  0  0
 22 19  1  0  0  0  0
 23 24  2  0  0  0  0
 23  5  1  0  0  0  0
 24 25  1  0  0  0  0
 26 24  1  0  0  0  0
 27 26  1  0  0  0  0
 28 30  1  0  0  0  0
 28 26  2  0  0  0  0
 29 28  1  0  0  0  0
 30 23  1  0  0  0  0
M  END
>  <minimizedAffinity>
-5.31248903

$$$$
