
 OpenBabel03242518293D

 20 21  0  0  0  0  0  0  0  0999 V2000
   37.3670   30.6360   40.3120 C   0  0  0  0  0  0  0  0  0  0  0  0
   37.1570   29.8680   39.3450 O   0  0  0  0  0  0  0  0  0  0  0  0
   38.2140   31.7880   40.3570 C   0  0  0  0  0  0  0  0  0  0  0  0
   37.5530   32.9620   40.0310 C   0  0  0  0  0  0  0  0  0  0  0  0
   38.3180   34.1420   40.0530 C   0  0  0  0  0  0  0  0  0  0  0  0
   39.6300   34.0650   40.3840 N   0  0  0  0  0  0  0  0  0  0  0  0
   40.2160   32.8850   40.6930 C   0  0  0  0  0  0  0  0  0  0  0  0
   39.5060   31.7350   40.6810 N   0  0  0  0  0  0  0  0  0  0  0  0
   36.5170   33.0420   39.7660 H   0  0  0  0  0  0  0  0  0  0  0  0
   37.9210   35.1090   39.8210 H   0  0  0  0  0  0  0  0  0  0  0  0
   41.2730   32.8170   40.9610 H   0  0  0  0  0  0  0  0  0  0  0  0
   36.6890   30.3390   41.5010 O   0  0  0  0  0  0  0  0  0  0  0  0
   37.0470   29.2150   42.2650 C   0  0  0  0  0  0  0  0  0  0  0  0
   38.0500   29.0200   43.1870 C   0  0  0  0  0  0  0  0  0  0  0  0
   38.7310   29.8170   43.4300 H   0  0  0  0  0  0  0  0  0  0  0  0
   37.9620   27.7150   43.6510 C   0  0  0  0  0  0  0  0  0  0  0  0
   38.6570   27.3410   44.3870 H   0  0  0  0  0  0  0  0  0  0  0  0
   36.8880   27.1680   42.9740 C   0  0  0  0  0  0  0  0  0  0  0  0
   36.6050   26.1450   43.1590 H   0  0  0  0  0  0  0  0  0  0  0  0
   36.3720   28.0750   42.1680 O   0  0  0  0  0  0  0  0  0  0  0  0
  1  3  1  0  0  0  0
  1 12  1  0  0  0  0
  2  1  2  0  0  0  0
  3  8  1  0  0  0  0
  4  5  1  0  0  0  0
  4  3  2  0  0  0  0
  5  6  2  0  0  0  0
  6  7  1  0  0  0  0
  7 11  1  0  0  0  0
  8  7  2  0  0  0  0
  9  4  1  0  0  0  0
 10  5  1  0  0  0  0
 12 13  1  0  0  0  0
 13 14  2  0  0  0  0
 14 15  1  0  0  0  0
 14 16  1  0  0  0  0
 16 17  1  0  0  0  0
 18 19  1  0  0  0  0
 18 16  2  0  0  0  0
 20 13  1  0  0  0  0
 20 18  1  0  0  0  0
M  END
>  <minimizedAffinity>
-4.07169485

$$$$

 OpenBabel03242518293D

 20 21  0  0  0  0  0  0  0  0999 V2000
   36.5210   29.5480   41.2800 C   0  0  0  0  0  0  0  0  0  0  0  0
   35.7290   28.5830   41.1760 O   0  0  0  0  0  0  0  0  0  0  0  0
   36.8240   30.5510   40.3060 C   0  0  0  0  0  0  0  0  0  0  0  0
   36.8520   30.0600   39.0100 C   0  0  0  0  0  0  0  0  0  0  0  0
   37.1420   30.9850   37.9920 C   0  0  0  0  0  0  0  0  0  0  0  0
   37.3740   32.2770   38.3300 N   0  0  0  0  0  0  0  0  0  0  0  0
   37.3310   32.6930   39.6160 C   0  0  0  0  0  0  0  0  0  0  0  0
   37.0540   31.8270   40.6160 N   0  0  0  0  0  0  0  0  0  0  0  0
   36.6710   29.0420   38.7240 H   0  0  0  0  0  0  0  0  0  0  0  0
   37.1930   30.7270   36.9540 H   0  0  0  0  0  0  0  0  0  0  0  0
   37.5170   33.7340   39.8940 H   0  0  0  0  0  0  0  0  0  0  0  0
   37.1990   29.6670   42.5000 O   0  0  0  0  0  0  0  0  0  0  0  0
   38.1650   28.7180   42.8760 C   0  0  0  0  0  0  0  0  0  0  0  0
   38.0620   27.5460   43.5890 C   0  0  0  0  0  0  0  0  0  0  0  0
   37.1090   27.2170   43.9670 H   0  0  0  0  0  0  0  0  0  0  0  0
   39.3280   26.9830   43.6790 C   0  0  0  0  0  0  0  0  0  0  0  0
   39.4840   26.0510   44.2010 H   0  0  0  0  0  0  0  0  0  0  0  0
   40.1550   27.8590   43.0010 C   0  0  0  0  0  0  0  0  0  0  0  0
   41.2090   27.6460   42.9240 H   0  0  0  0  0  0  0  0  0  0  0  0
   39.4420   28.8670   42.5410 O   0  0  0  0  0  0  0  0  0  0  0  0
  1 12  1  0  0  0  0
  2  1  2  0  0  0  0
  3  8  1  0  0  0  0
  3  1  1  0  0  0  0
  4  3  2  0  0  0  0
  5  6  2  0  0  0  0
  5  4  1  0  0  0  0
  6  7  1  0  0  0  0
  7 11  1  0  0  0  0
  7  8  2  0  0  0  0
  9  4  1  0  0  0  0
 10  5  1  0  0  0  0
 12 13  1  0  0  0  0
 13 14  2  0  0  0  0
 14 16  1  0  0  0  0
 14 15  1  0  0  0  0
 16 17  1  0  0  0  0
 18 16  2  0  0  0  0
 19 18  1  0  0  0  0
 20 13  1  0  0  0  0
 20 18  1  0  0  0  0
M  END
>  <minimizedAffinity>
-4.0536046

$$$$

 OpenBabel03242518293D

 20 21  0  0  0  0  0  0  0  0999 V2000
   37.5000   28.3210   43.2080 C   0  0  0  0  0  0  0  0  0  0  0  0
   36.4740   27.7670   43.6650 O   0  0  0  0  0  0  0  0  0  0  0  0
   37.5790   29.4580   42.3440 C   0  0  0  0  0  0  0  0  0  0  0  0
   38.8370   30.0370   42.3220 C   0  0  0  0  0  0  0  0  0  0  0  0
   38.9990   31.1630   41.4940 C   0  0  0  0  0  0  0  0  0  0  0  0
   37.9360   31.6070   40.7800 N   0  0  0  0  0  0  0  0  0  0  0  0
   36.7310   30.9950   40.8460 C   0  0  0  0  0  0  0  0  0  0  0  0
   36.5460   29.9110   41.6320 N   0  0  0  0  0  0  0  0  0  0  0  0
   39.6900   29.7000   42.8790 H   0  0  0  0  0  0  0  0  0  0  0  0
   39.9220   31.6960   41.3930 H   0  0  0  0  0  0  0  0  0  0  0  0
   35.8710   31.3490   40.2730 H   0  0  0  0  0  0  0  0  0  0  0  0
   38.7290   27.7630   43.5850 O   0  0  0  0  0  0  0  0  0  0  0  0
   39.0660   26.4540   43.2040 C   0  0  0  0  0  0  0  0  0  0  0  0
   40.0190   25.5830   43.6800 C   0  0  0  0  0  0  0  0  0  0  0  0
   40.6700   25.8720   44.4870 H   0  0  0  0  0  0  0  0  0  0  0  0
   39.9320   24.4060   42.9480 C   0  0  0  0  0  0  0  0  0  0  0  0
   40.5920   23.5770   43.1520 H   0  0  0  0  0  0  0  0  0  0  0  0
   38.9080   24.6240   42.0450 C   0  0  0  0  0  0  0  0  0  0  0  0
   38.6360   23.8480   41.3490 H   0  0  0  0  0  0  0  0  0  0  0  0
   38.4200   25.8360   42.2220 O   0  0  0  0  0  0  0  0  0  0  0  0
  1 12  1  0  0  0  0
  1  2  2  0  0  0  0
  3  1  1  0  0  0  0
  4  3  1  0  0  0  0
  4  9  1  0  0  0  0
  5  4  2  0  0  0  0
  6  7  2  0  0  0  0
  6  5  1  0  0  0  0
  7  8  1  0  0  0  0
  8  3  2  0  0  0  0
 10  5  1  0  0  0  0
 11  7  1  0  0  0  0
 13 12  1  0  0  0  0
 13 14  2  0  0  0  0
 14 15  1  0  0  0  0
 16 17  1  0  0  0  0
 16 14  1  0  0  0  0
 18 20  1  0  0  0  0
 18 16  2  0  0  0  0
 19 18  1  0  0  0  0
 20 13  1  0  0  0  0
M  END
>  <minimizedAffinity>
-4.03962612

$$$$

 OpenBabel03242518293D

 20 21  0  0  0  0  0  0  0  0999 V2000
   35.4110   29.2090   40.6440 C   0  0  0  0  0  0  0  0  0  0  0  0
   34.3570   29.1230   39.9730 O   0  0  0  0  0  0  0  0  0  0  0  0
   36.2460   28.1480   41.1170 C   0  0  0  0  0  0  0  0  0  0  0  0
   36.5660   27.2270   40.1320 C   0  0  0  0  0  0  0  0  0  0  0  0
   37.3860   26.1510   40.5170 C   0  0  0  0  0  0  0  0  0  0  0  0
   37.8060   26.0780   41.8030 N   0  0  0  0  0  0  0  0  0  0  0  0
   37.4580   27.0120   42.7180 C   0  0  0  0  0  0  0  0  0  0  0  0
   36.6710   28.0560   42.3770 N   0  0  0  0  0  0  0  0  0  0  0  0
   36.2430   27.2690   39.1100 H   0  0  0  0  0  0  0  0  0  0  0  0
   37.7010   25.3780   39.8470 H   0  0  0  0  0  0  0  0  0  0  0  0
   37.7940   26.9570   43.7560 H   0  0  0  0  0  0  0  0  0  0  0  0
   35.8340   30.5030   40.9760 O   0  0  0  0  0  0  0  0  0  0  0  0
   36.6240   31.2470   40.0840 C   0  0  0  0  0  0  0  0  0  0  0  0
   36.9230   31.0580   38.7550 C   0  0  0  0  0  0  0  0  0  0  0  0
   36.5240   30.2130   38.2200 H   0  0  0  0  0  0  0  0  0  0  0  0
   37.7540   32.0930   38.3470 C   0  0  0  0  0  0  0  0  0  0  0  0
   38.1160   32.1450   37.3320 H   0  0  0  0  0  0  0  0  0  0  0  0
   37.9220   32.8770   39.4730 C   0  0  0  0  0  0  0  0  0  0  0  0
   38.5350   33.7610   39.4210 H   0  0  0  0  0  0  0  0  0  0  0  0
   37.2450   32.3540   40.4760 O   0  0  0  0  0  0  0  0  0  0  0  0
  1 12  1  0  0  0  0
  1  3  1  0  0  0  0
  2  1  2  0  0  0  0
  3  8  1  0  0  0  0
  4  5  1  0  0  0  0
  4  3  2  0  0  0  0
  5  6  2  0  0  0  0
  6  7  1  0  0  0  0
  7 11  1  0  0  0  0
  8  7  2  0  0  0  0
  9  4  1  0  0  0  0
 10  5  1  0  0  0  0
 13 20  1  0  0  0  0
 13 12  1  0  0  0  0
 14 13  2  0  0  0  0
 15 14  1  0  0  0  0
 16 14  1  0  0  0  0
 16 18  2  0  0  0  0
 17 16  1  0  0  0  0
 18 20  1  0  0  0  0
 19 18  1  0  0  0  0
M  END
>  <minimizedAffinity>
-3.94519925

$$$$

 OpenBabel03242518293D

 20 21  0  0  0  0  0  0  0  0999 V2000
   37.8380   28.2110   42.8990 C   0  0  0  0  0  0  0  0  0  0  0  0
   38.3530   29.2640   43.3380 O   0  0  0  0  0  0  0  0  0  0  0  0
   38.3950   26.8940   42.8840 C   0  0  0  0  0  0  0  0  0  0  0  0
   39.5510   26.7840   43.6410 C   0  0  0  0  0  0  0  0  0  0  0  0
   40.1610   25.5170   43.6800 C   0  0  0  0  0  0  0  0  0  0  0  0
   39.5960   24.4980   42.9880 N   0  0  0  0  0  0  0  0  0  0  0  0
   38.4640   24.6710   42.2670 C   0  0  0  0  0  0  0  0  0  0  0  0
   37.8550   25.8760   42.2120 N   0  0  0  0  0  0  0  0  0  0  0  0
   40.0120   27.5790   44.1950 H   0  0  0  0  0  0  0  0  0  0  0  0
   41.0560   25.3080   44.2290 H   0  0  0  0  0  0  0  0  0  0  0  0
   38.0040   23.8530   41.7080 H   0  0  0  0  0  0  0  0  0  0  0  0
   36.5540   28.3290   42.3500 O   0  0  0  0  0  0  0  0  0  0  0  0
   36.3550   29.0110   41.1380 C   0  0  0  0  0  0  0  0  0  0  0  0
   36.0810   28.5550   39.8690 C   0  0  0  0  0  0  0  0  0  0  0  0
   35.9830   27.5000   39.6760 H   0  0  0  0  0  0  0  0  0  0  0  0
   35.9780   29.6540   39.0280 C   0  0  0  0  0  0  0  0  0  0  0  0
   35.7660   29.5290   37.9770 H   0  0  0  0  0  0  0  0  0  0  0  0
   36.1990   30.7480   39.8440 C   0  0  0  0  0  0  0  0  0  0  0  0
   36.1720   31.7400   39.4260 H   0  0  0  0  0  0  0  0  0  0  0  0
   36.4170   30.3360   41.0770 O   0  0  0  0  0  0  0  0  0  0  0  0
  1  2  2  0  0  0  0
  3  1  1  0  0  0  0
  3  4  1  0  0  0  0
  4  5  2  0  0  0  0
  4  9  1  0  0  0  0
  5 10  1  0  0  0  0
  6  5  1  0  0  0  0
  7  6  2  0  0  0  0
  8  7  1  0  0  0  0
  8  3  2  0  0  0  0
 11  7  1  0  0  0  0
 12  1  1  0  0  0  0
 13 12  1  0  0  0  0
 14 13  2  0  0  0  0
 15 14  1  0  0  0  0
 16 18  2  0  0  0  0
 16 14  1  0  0  0  0
 17 16  1  0  0  0  0
 18 20  1  0  0  0  0
 19 18  1  0  0  0  0
 20 13  1  0  0  0  0
M  END
>  <minimizedAffinity>
-3.89348745

$$$$

 OpenBabel03242518293D

 20 21  0  0  0  0  0  0  0  0999 V2000
   36.9080   31.0720   39.7100 C   0  0  0  0  0  0  0  0  0  0  0  0
   36.5080   30.4620   38.6920 O   0  0  0  0  0  0  0  0  0  0  0  0
   37.9370   32.0610   39.8010 C   0  0  0  0  0  0  0  0  0  0  0  0
   39.1690   31.6050   39.3590 C   0  0  0  0  0  0  0  0  0  0  0  0
   40.2370   32.5190   39.4150 C   0  0  0  0  0  0  0  0  0  0  0  0
   40.0040   33.7670   39.8880 N   0  0  0  0  0  0  0  0  0  0  0  0
   38.7750   34.1510   40.3040 C   0  0  0  0  0  0  0  0  0  0  0  0
   37.7310   33.2940   40.2620 N   0  0  0  0  0  0  0  0  0  0  0  0
   39.3720   30.6210   38.9820 H   0  0  0  0  0  0  0  0  0  0  0  0
   41.2340   32.2850   39.1020 H   0  0  0  0  0  0  0  0  0  0  0  0
   38.5820   35.1560   40.6860 H   0  0  0  0  0  0  0  0  0  0  0  0
   36.2720   30.7520   40.9170 O   0  0  0  0  0  0  0  0  0  0  0  0
   36.6730   29.6290   41.6600 C   0  0  0  0  0  0  0  0  0  0  0  0
   36.2160   28.3310   41.6710 C   0  0  0  0  0  0  0  0  0  0  0  0
   35.4080   28.0310   41.0260 H   0  0  0  0  0  0  0  0  0  0  0  0
   36.9640   27.6170   42.5970 C   0  0  0  0  0  0  0  0  0  0  0  0
   36.7750   26.5690   42.7720 H   0  0  0  0  0  0  0  0  0  0  0  0
   37.8590   28.5360   43.1150 C   0  0  0  0  0  0  0  0  0  0  0  0
   38.5650   28.2270   43.8670 H   0  0  0  0  0  0  0  0  0  0  0  0
   37.6620   29.7070   42.5430 O   0  0  0  0  0  0  0  0  0  0  0  0
  1  3  1  0  0  0  0
  1 12  1  0  0  0  0
  2  1  2  0  0  0  0
  3  8  1  0  0  0  0
  4  5  1  0  0  0  0
  4  3  2  0  0  0  0
  5  6  2  0  0  0  0
  6  7  1  0  0  0  0
  7 11  1  0  0  0  0
  8  7  2  0  0  0  0
  9  4  1  0  0  0  0
 10  5  1  0  0  0  0
 12 13  1  0  0  0  0
 13 14  2  0  0  0  0
 13 20  1  0  0  0  0
 14 16  1  0  0  0  0
 15 14  1  0  0  0  0
 16 17  1  0  0  0  0
 16 18  2  0  0  0  0
 18 19  1  0  0  0  0
 20 18  1  0  0  0  0
M  END
>  <minimizedAffinity>
-3.87653255

$$$$

 OpenBabel03242518293D

 20 21  0  0  0  0  0  0  0  0999 V2000
   37.2350   30.0520   41.2840 C   0  0  0  0  0  0  0  0  0  0  0  0
   36.1720   30.6970   41.4300 O   0  0  0  0  0  0  0  0  0  0  0  0
   37.6360   28.8480   41.9440 C   0  0  0  0  0  0  0  0  0  0  0  0
   38.8570   28.9620   42.5880 C   0  0  0  0  0  0  0  0  0  0  0  0
   39.3230   27.8190   43.2630 C   0  0  0  0  0  0  0  0  0  0  0  0
   38.5660   26.6950   43.2440 N   0  0  0  0  0  0  0  0  0  0  0  0
   37.3800   26.6490   42.5950 C   0  0  0  0  0  0  0  0  0  0  0  0
   36.9070   27.7310   41.9380 N   0  0  0  0  0  0  0  0  0  0  0  0
   39.4700   29.8430   42.6140 H   0  0  0  0  0  0  0  0  0  0  0  0
   40.2500   27.7840   43.7970 H   0  0  0  0  0  0  0  0  0  0  0  0
   36.7660   25.7460   42.5770 H   0  0  0  0  0  0  0  0  0  0  0  0
   38.1520   30.5670   40.3580 O   0  0  0  0  0  0  0  0  0  0  0  0
   38.4100   31.9470   40.3010 C   0  0  0  0  0  0  0  0  0  0  0  0
   37.6900   32.9870   39.7600 C   0  0  0  0  0  0  0  0  0  0  0  0
   36.7470   32.8050   39.2730 H   0  0  0  0  0  0  0  0  0  0  0  0
   38.3990   34.1610   39.9770 C   0  0  0  0  0  0  0  0  0  0  0  0
   38.0170   35.1100   39.6320 H   0  0  0  0  0  0  0  0  0  0  0  0
   39.5390   33.7680   40.6530 C   0  0  0  0  0  0  0  0  0  0  0  0
   40.2680   34.5060   40.9440 H   0  0  0  0  0  0  0  0  0  0  0  0
   39.5150   32.4620   40.8280 O   0  0  0  0  0  0  0  0  0  0  0  0
  1  2  2  0  0  0  0
  1  3  1  0  0  0  0
  3  4  1  0  0  0  0
  4  9  1  0  0  0  0
  4  5  2  0  0  0  0
  5 10  1  0  0  0  0
  6  5  1  0  0  0  0
  7  6  2  0  0  0  0
  8  3  2  0  0  0  0
  8  7  1  0  0  0  0
 11  7  1  0  0  0  0
 12  1  1  0  0  0  0
 13 12  1  0  0  0  0
 13 20  1  0  0  0  0
 14 16  1  0  0  0  0
 14 13  2  0  0  0  0
 15 14  1  0  0  0  0
 16 18  2  0  0  0  0
 17 16  1  0  0  0  0
 18 20  1  0  0  0  0
 18 19  1  0  0  0  0
M  END
>  <minimizedAffinity>
-3.84809637

$$$$

 OpenBabel03242518293D

 20 21  0  0  0  0  0  0  0  0999 V2000
   35.9370   29.9110   40.5560 C   0  0  0  0  0  0  0  0  0  0  0  0
   36.1060   30.9490   41.2370 O   0  0  0  0  0  0  0  0  0  0  0  0
   35.9980   29.7670   39.1350 C   0  0  0  0  0  0  0  0  0  0  0  0
   34.9510   29.0200   38.6190 C   0  0  0  0  0  0  0  0  0  0  0  0
   34.9390   28.8320   37.2250 C   0  0  0  0  0  0  0  0  0  0  0  0
   35.9300   29.3810   36.4820 N   0  0  0  0  0  0  0  0  0  0  0  0
   36.9250   30.1020   37.0480 C   0  0  0  0  0  0  0  0  0  0  0  0
   36.9630   30.2990   38.3850 N   0  0  0  0  0  0  0  0  0  0  0  0
   34.1580   28.5770   39.1900 H   0  0  0  0  0  0  0  0  0  0  0  0
   34.1830   28.2740   36.7090 H   0  0  0  0  0  0  0  0  0  0  0  0
   37.7270   30.5470   36.4540 H   0  0  0  0  0  0  0  0  0  0  0  0
   35.6520   28.7390   41.2690 O   0  0  0  0  0  0  0  0  0  0  0  0
   36.6630   28.0730   41.9820 C   0  0  0  0  0  0  0  0  0  0  0  0
   37.1880   28.2880   43.2360 C   0  0  0  0  0  0  0  0  0  0  0  0
   36.8180   29.0890   43.8540 H   0  0  0  0  0  0  0  0  0  0  0  0
   38.1750   27.3380   43.4590 C   0  0  0  0  0  0  0  0  0  0  0  0
   38.7260   27.3190   44.3870 H   0  0  0  0  0  0  0  0  0  0  0  0
   38.2030   26.5760   42.3060 C   0  0  0  0  0  0  0  0  0  0  0  0
   38.8970   25.7560   42.2240 H   0  0  0  0  0  0  0  0  0  0  0  0
   37.3020   27.0330   41.4590 O   0  0  0  0  0  0  0  0  0  0  0  0
  1  2  2  0  0  0  0
  1 12  1  0  0  0  0
  3  1  1  0  0  0  0
  4  3  1  0  0  0  0
  4  9  1  0  0  0  0
  5  4  2  0  0  0  0
  6  7  2  0  0  0  0
  6  5  1  0  0  0  0
  7  8  1  0  0  0  0
  8  3  2  0  0  0  0
 10  5  1  0  0  0  0
 11  7  1  0  0  0  0
 12 13  1  0  0  0  0
 13 14  2  0  0  0  0
 14 16  1  0  0  0  0
 14 15  1  0  0  0  0
 16 17  1  0  0  0  0
 18 16  2  0  0  0  0
 19 18  1  0  0  0  0
 20 13  1  0  0  0  0
 20 18  1  0  0  0  0
M  END
>  <minimizedAffinity>
-3.8197701

$$$$

 OpenBabel03242518293D

 20 21  0  0  0  0  0  0  0  0999 V2000
   39.1090   30.6710   41.7910 C   0  0  0  0  0  0  0  0  0  0  0  0
   39.6910   30.7130   42.8990 O   0  0  0  0  0  0  0  0  0  0  0  0
   38.5960   31.7620   41.0200 C   0  0  0  0  0  0  0  0  0  0  0  0
   37.5750   31.3880   40.1620 C   0  0  0  0  0  0  0  0  0  0  0  0
   37.0150   32.4050   39.3670 C   0  0  0  0  0  0  0  0  0  0  0  0
   37.4970   33.6650   39.4840 N   0  0  0  0  0  0  0  0  0  0  0  0
   38.4980   33.9660   40.3440 C   0  0  0  0  0  0  0  0  0  0  0  0
   39.0550   33.0100   41.1200 N   0  0  0  0  0  0  0  0  0  0  0  0
   37.1800   30.3960   40.0550 H   0  0  0  0  0  0  0  0  0  0  0  0
   36.2210   32.2400   38.6670 H   0  0  0  0  0  0  0  0  0  0  0  0
   38.8910   34.9810   40.4420 H   0  0  0  0  0  0  0  0  0  0  0  0
   38.9350   29.4000   41.2270 O   0  0  0  0  0  0  0  0  0  0  0  0
   38.1980   28.4140   41.9050 C   0  0  0  0  0  0  0  0  0  0  0  0
   37.0760   28.4970   42.6970 C   0  0  0  0  0  0  0  0  0  0  0  0
   36.6100   29.4490   42.8870 H   0  0  0  0  0  0  0  0  0  0  0  0
   36.7520   27.2160   43.1220 C   0  0  0  0  0  0  0  0  0  0  0  0
   35.8990   27.0440   43.7610 H   0  0  0  0  0  0  0  0  0  0  0  0
   37.7140   26.4000   42.5560 C   0  0  0  0  0  0  0  0  0  0  0  0
   37.6860   25.3380   42.7360 H   0  0  0  0  0  0  0  0  0  0  0  0
   38.5470   27.1340   41.8460 O   0  0  0  0  0  0  0  0  0  0  0  0
  1  2  2  0  0  0  0
  3  8  1  0  0  0  0
  3  1  1  0  0  0  0
  4  3  2  0  0  0  0
  5  6  2  0  0  0  0
  5  4  1  0  0  0  0
  6  7  1  0  0  0  0
  7 11  1  0  0  0  0
  7  8  2  0  0  0  0
  9  4  1  0  0  0  0
 10  5  1  0  0  0  0
 12  1  1  0  0  0  0
 12 13  1  0  0  0  0
 13 14  2  0  0  0  0
 14 15  1  0  0  0  0
 14 16  1  0  0  0  0
 16 17  1  0  0  0  0
 18 19  1  0  0  0  0
 18 16  2  0  0  0  0
 20 13  1  0  0  0  0
 20 18  1  0  0  0  0
M  END
>  <minimizedAffinity>
-3.78975368

$$$$
