REMARK  Name = 
REMARK  4 active torsions:
REMARK  status: ('A' for Active; 'I' for Inactive)
REMARK    1  A    between atoms: C_2  and  N_11
REMARK    2  A    between atoms: C_3  and  C_7
REMARK    3  A    between atoms: C_9  and  C_10
REMARK    4  A    between atoms: C_10  and  C_22
REMARK                            x       y       z     vdW  Elec       q    Type
REMARK                         _______ _______ _______ _____ _____    ______ ____
ROOT
ATOM      1  C   UNL     1      46.581  35.074  41.932  0.00  0.00    +0.000 C 
ATOM      2  C   UNL     1      48.116  35.298  41.924  0.00  0.00    +0.000 C 
ATOM      3  C   UNL     1      47.358  34.082  41.311  0.00  0.00    +0.000 C 
ATOM      4  H   UNL     1      46.068  35.888  41.398  0.00  0.00    +0.000 HD
ATOM      5  H   UNL     1      48.522  35.956  41.143  0.00  0.00    +0.000 HD
ATOM      6  H   UNL     1      48.689  35.075  42.829  0.00  0.00    +0.000 HD
ATOM      7  H   UNL     1      47.525  33.110  41.858  0.00  0.00    +0.000 HD
ENDROOT
BRANCH   1  10
ATOM      8  C   UNL     1      44.674  35.380  45.144  0.00  0.00    +0.000 A 
ATOM      9  C   UNL     1      45.135  35.687  43.837  0.00  0.00    +0.000 A 
ATOM     10  C   UNL     1      46.079  34.848  43.334  0.00  0.00    +0.000 A 
ATOM     11  N   UNL     1      46.551  33.777  44.054  0.00  0.00    +0.000 NA
ATOM     12  C   UNL     1      46.086  33.521  45.296  0.00  0.00    +0.000 A 
ATOM     13  N   UNL     1      45.144  34.326  45.841  0.00  0.00    +0.000 NA
ATOM     14  H   UNL     1      43.917  36.037  45.565  0.00  0.00    +0.000 HD
ATOM     15  H   UNL     1      46.430  32.693  45.894  0.00  0.00    +0.000 HD
BRANCH   9  16
ATOM     16  N   UNL     1      44.655  36.810  43.124  0.00  0.00    +0.000 N 
ATOM     17  H   UNL     1      43.766  37.010  42.620  0.00  0.00    +0.000 HD
ATOM     18  H   UNL     1      45.460  37.500  43.204  0.00  0.00    +0.000 HD
ENDBRANCH   9  16
ENDBRANCH   1  10
BRANCH   3  19
ATOM     19  C   UNL     1      47.380  33.905  39.811  0.00  0.00    +0.000 C 
ATOM     20  H   UNL     1      48.011  33.055  39.552  0.00  0.00    +0.000 HD
ATOM     21  H   UNL     1      47.727  34.821  39.289  0.00  0.00    +0.000 HD
BRANCH  19  22
ATOM     22  C   UNL     1      45.961  33.606  39.432  0.00  0.00    +0.000 A 
ATOM     23  C   UNL     1      45.185  32.554  39.855  0.00  0.00    +0.000 A 
ATOM     24  H   UNL     1      45.500  31.788  40.529  0.00  0.00    +0.000 HD
ATOM     25  C   UNL     1      43.952  32.703  39.236  0.00  0.00    +0.000 A 
ATOM     26  H   UNL     1      43.102  32.040  39.352  0.00  0.00    +0.000 HD
ATOM     27  C   UNL     1      44.048  33.853  38.460  0.00  0.00    +0.000 A 
ATOM     28  H   UNL     1      43.199  34.173  37.881  0.00  0.00    +0.000 HD
ATOM     29  O   UNL     1      45.249  34.352  38.606  0.00  0.00    +0.000 OA
ENDBRANCH  19  22
ENDBRANCH   3  19
TORSDOF 4
