
     RDKit          3D

 44 46  0  0  0  0  0  0  0  0999 V2000
   43.6608   34.9582   41.8809 C   0  0  0  0  0  0  0  0  0  0  0  0
   43.9080   33.6250   42.1891 C   0  0  0  0  0  0  0  0  0  0  0  0
   44.9666   33.3439   43.0123 C   0  0  0  0  0  0  0  0  0  0  0  0
   45.7523   34.3433   43.5125 C   0  0  0  0  0  0  0  0  0  0  0  0
   45.5244   35.6554   43.2207 C   0  0  0  0  0  0  0  0  0  0  0  0
   44.4463   35.9119   42.3851 C   0  0  0  0  0  0  0  0  0  0  0  0
   40.2312   35.8051   40.5258 C   0  0  0  0  0  0  0  0  0  0  0  0
   41.2636   35.5859   41.4547 C   0  0  0  0  0  0  0  0  0  0  0  0
   42.5190   35.2105   40.9978 C   0  0  0  0  0  0  0  0  0  0  0  0
   42.6813   35.0737   39.6546 N   0  0  0  0  0  0  0  0  0  0  0  0
   41.6783   35.2881   38.7727 C   0  0  0  0  0  0  0  0  0  0  0  0
   40.4655   35.6509   39.2167 N   0  0  0  0  0  0  0  0  0  0  0  0
   43.0389   32.5525   41.6328 C   0  0  0  0  0  0  0  0  0  0  0  0
   42.7090   31.5140   42.5737 N   0  0  0  0  0  0  0  0  0  0  0  0
   41.0361   31.1425   42.5578 S   0  0  0  0  0  0  0  0  0  0  0  0
   40.2059   32.3893   42.4556 O   0  0  0  0  0  0  0  0  0  0  0  0
   40.6528   30.3623   43.7654 O   0  0  0  0  0  0  0  0  0  0  0  0
   40.7562   30.1883   41.2090 O   0  0  0  0  0  0  0  0  0  0  0  0
   40.0764   29.0541   41.5865 C   0  0  0  0  0  0  0  0  0  0  0  0
   40.9225   27.8213   41.2274 C   0  0  0  0  0  0  0  0  0  0  0  0
   45.1489   32.2942   43.2457 H   0  0  0  0  0  0  0  0  0  0  0  0
   46.5941   34.1323   44.1658 H   0  0  0  0  0  0  0  0  0  0  0  0
   46.0928   36.5071   43.5707 H   0  0  0  0  0  0  0  0  0  0  0  0
   44.2048   36.9357   42.1095 H   0  0  0  0  0  0  0  0  0  0  0  0
   39.2550   36.0980   40.8959 H   0  0  0  0  0  0  0  0  0  0  0  0
   41.1207   35.6982   42.5194 H   0  0  0  0  0  0  0  0  0  0  0  0
   41.9086   35.1523   37.7145 H   0  0  0  0  0  0  0  0  0  0  0  0
   43.5086   32.1136   40.7031 H   0  0  0  0  0  0  0  0  0  0  0  0
   42.0767   33.0254   41.3270 H   0  0  0  0  0  0  0  0  0  0  0  0
   42.9086   31.8606   43.5443 H   0  0  0  0  0  0  0  0  0  0  0  0
   39.3866   32.5061   41.8903 H   0  0  0  0  0  0  0  0  0  0  0  0
   40.6303   30.8194   44.6648 H   0  0  0  0  0  0  0  0  0  0  0  0
   39.1014   28.9915   41.0959 H   0  0  0  0  0  0  0  0  0  0  0  0
   39.8971   28.9461   42.6654 H   0  0  0  0  0  0  0  0  0  0  0  0
   41.8461   27.7891   41.8013 H   0  0  0  0  0  0  0  0  0  0  0  0
   40.3055   26.9211   41.5024 H   0  0  0  0  0  0  0  0  0  0  0  0
   41.1632   27.7952   39.7741 C   0  0  0  0  0  0  0  0  0  0  0  0
   41.6172   26.7311   39.0436 C   0  0  0  0  0  0  0  0  0  0  0  0
   41.8770   25.7321   39.3988 H   0  0  0  0  0  0  0  0  0  0  0  0
   41.6866   27.1793   37.7223 C   0  0  0  0  0  0  0  0  0  0  0  0
   42.0260   26.5077   36.9307 H   0  0  0  0  0  0  0  0  0  0  0  0
   41.2634   28.5046   37.7424 C   0  0  0  0  0  0  0  0  0  0  0  0
   41.2661   28.9850   36.7742 H   0  0  0  0  0  0  0  0  0  0  0  0
   40.9627   28.8332   38.9715 O   0  0  0  0  0  0  0  0  0  0  0  0
  1  2  1  0
  1  6  2  0
  2  3  2  0
  3  4  1  0
  5  4  2  0
  6  5  1  0
  7  8  2  0
  9  8  1  0
  9  1  1  0
 10  9  2  0
 11 12  2  0
 11 10  1  0
 12  7  1  0
 13  2  1  0
 13 14  1  0
 15 14  1  0
 15 17  1  0
 16 15  1  0
 18 19  1  0
 18 15  1  0
 20 19  1  0
  3 21  1  0
  4 22  1  0
  5 23  1  0
  6 24  1  0
  7 25  1  0
  8 26  1  0
 11 27  1  0
 13 28  1  0
 13 29  1  0
 14 30  1  0
 16 31  1  0
 17 32  1  0
 19 33  1  0
 19 34  1  0
 20 35  1  0
 20 36  1  0
 37 38  2  0
 38 39  1  0
 38 40  1  0
 40 41  1  0
 40 42  2  0
 42 43  1  0
 42 44  1  0
 44 37  1  0
 20 37  1  0
M  ISO  8  21  14  22  14  23  14  24  14  25  14  26  14  27  14  28   8
M  ISO  8  29   8  30   5  31   3  32   3  33   8  34   8  35   8  36   8
M  ISO  3  39  16  41  16  43  14
M  END
>  <DihAtoms>  (1) 
18,19,36,37

>  <DihDeg>  (1) 
0.0010635573081633632

$$$$
