
 OpenBabel03252509083D

 40 43  0  0  0  0  0  0  0  0999 V2000
   47.5580   31.7740   38.9690 C   0  0  0  0  0  0  0  0  0  0  0  0
   47.1490   33.0720   38.9740 C   0  0  0  0  0  0  0  0  0  0  0  0
   47.8100   34.0120   38.1980 C   0  0  0  0  0  0  0  0  0  0  0  0
   48.8790   33.6290   37.4230 C   0  0  0  0  0  0  0  0  0  0  0  0
   49.3290   32.3100   37.3880 C   0  0  0  0  0  0  0  0  0  0  0  0
   48.6440   31.3830   38.1810 C   0  0  0  0  0  0  0  0  0  0  0  0
   47.5180   35.0510   38.1730 H   0  0  0  0  0  0  0  0  0  0  0  0
   49.4660   34.2640   36.7830 H   0  0  0  0  0  0  0  0  0  0  0  0
   50.1470   31.9440   36.8120 H   0  0  0  0  0  0  0  0  0  0  0  0
   48.9660   30.3430   38.1810 H   0  0  0  0  0  0  0  0  0  0  0  0
   45.3900   35.4490   43.2070 Cl  0  0  0  0  0  0  0  0  0  0  0  0
   45.2000   34.6560   41.6650 C   0  0  0  0  0  0  0  0  0  0  0  0
   46.2770   34.2140   40.9660 C   0  0  0  0  0  0  0  0  0  0  0  0
   46.0220   33.5790   39.7600 C   0  0  0  0  0  0  0  0  0  0  0  0
   44.7430   33.4030   39.2890 C   0  0  0  0  0  0  0  0  0  0  0  0
   43.6790   33.8520   40.0010 C   0  0  0  0  0  0  0  0  0  0  0  0
   43.9190   34.4810   41.1970 C   0  0  0  0  0  0  0  0  0  0  0  0
   44.6080   32.9040   38.3450 H   0  0  0  0  0  0  0  0  0  0  0  0
   42.6830   33.7000   39.6040 H   0  0  0  0  0  0  0  0  0  0  0  0
   43.0500   34.8320   41.7480 H   0  0  0  0  0  0  0  0  0  0  0  0
   49.5820   35.7720   41.9070 C   0  0  0  0  0  0  0  0  0  0  0  0
   48.2990   35.5930   41.3750 C   0  0  0  0  0  0  0  0  0  0  0  0
   47.6010   34.4100   41.5120 C   0  0  0  0  0  0  0  0  0  0  0  0
   48.2570   33.4410   42.2010 N   0  0  0  0  0  0  0  0  0  0  0  0
   49.4840   33.6040   42.7130 C   0  0  0  0  0  0  0  0  0  0  0  0
   50.1370   34.7600   42.5650 N   0  0  0  0  0  0  0  0  0  0  0  0
   50.0520   36.7360   41.7490 H   0  0  0  0  0  0  0  0  0  0  0  0
   47.8230   36.3990   40.8360 H   0  0  0  0  0  0  0  0  0  0  0  0
   49.8580   32.7300   43.2320 H   0  0  0  0  0  0  0  0  0  0  0  0
   46.7540   30.6000   39.8690 S   0  0  0  0  0  0  0  0  0  0  0  0
   45.4870   30.1220   39.1930 O   0  0  0  0  0  0  0  0  0  0  0  0
   47.6940   29.3420   39.7640 O   0  0  0  0  0  0  0  0  0  0  0  0
   46.3950   30.7310   41.5480 C   0  0  0  0  0  0  0  0  0  0  0  0
   47.2870   30.1790   42.5040 C   0  0  0  0  0  0  0  0  0  0  0  0
   48.2410   29.6400   42.3320 H   0  0  0  0  0  0  0  0  0  0  0  0
   46.8780   30.3550   43.8050 C   0  0  0  0  0  0  0  0  0  0  0  0
   47.3310   30.0560   44.7170 H   0  0  0  0  0  0  0  0  0  0  0  0
   45.7160   31.0290   43.6120 C   0  0  0  0  0  0  0  0  0  0  0  0
   45.0020   31.4040   44.3620 H   0  0  0  0  0  0  0  0  0  0  0  0
   45.4990   31.2070   42.3750 O   0  0  0  0  0  0  0  0  0  0  0  0
  1  2  1  0  0  0  0
  1 30  1  0  0  0  0
  2 14  1  0  0  0  0
  3  2  2  0  0  0  0
  4  3  1  0  0  0  0
  5  4  2  0  0  0  0
  5  6  1  0  0  0  0
  6 10  1  0  0  0  0
  6  1  2  0  0  0  0
  7  3  1  0  0  0  0
  8  4  1  0  0  0  0
  9  5  1  0  0  0  0
 12 11  1  0  0  0  0
 13 23  1  0  0  0  0
 13 12  2  0  0  0  0
 14 13  1  0  0  0  0
 15 14  2  0  0  0  0
 15 16  1  0  0  0  0
 16 17  2  0  0  0  0
 17 12  1  0  0  0  0
 17 20  1  0  0  0  0
 18 15  1  0  0  0  0
 19 16  1  0  0  0  0
 21 26  1  0  0  0  0
 22 23  1  0  0  0  0
 22 21  2  0  0  0  0
 23 24  2  0  0  0  0
 24 25  1  0  0  0  0
 25 29  1  0  0  0  0
 26 25  2  0  0  0  0
 27 21  1  0  0  0  0
 28 22  1  0  0  0  0
 30 33  1  0  0  0  0
 31 30  2  0  0  0  0
 32 30  2  0  0  0  0
 33 40  1  0  0  0  0
 33 34  2  0  0  0  0
 34 36  1  0  0  0  0
 35 34  1  0  0  0  0
 36 37  1  0  0  0  0
 38 36  2  0  0  0  0
 38 39  1  0  0  0  0
 40 38  1  0  0  0  0
M  END
>  <minimizedAffinity>
-4.67311239

>  <minimizedRMSD>
0.812139988

$$$$
