
 OpenBabel03252508443D

 38 40  0  0  0  0  0  0  0  0999 V2000
   37.0010   30.6780   38.5740 C   0  0  0  0  0  0  0  0  0  0  0  0
   36.0990   29.9280   39.3030 C   0  0  0  0  0  0  0  0  0  0  0  0
   35.3360   28.9870   38.6440 C   0  0  0  0  0  0  0  0  0  0  0  0
   35.4770   28.8090   37.3060 C   0  0  0  0  0  0  0  0  0  0  0  0
   36.3550   29.5290   36.5560 C   0  0  0  0  0  0  0  0  0  0  0  0
   37.1110   30.4710   37.2470 C   0  0  0  0  0  0  0  0  0  0  0  0
   34.6150   28.3700   39.1520 H   0  0  0  0  0  0  0  0  0  0  0  0
   34.8860   28.0710   36.7580 H   0  0  0  0  0  0  0  0  0  0  0  0
   36.5240   29.4420   35.4750 H   0  0  0  0  0  0  0  0  0  0  0  0
   37.8420   31.1000   36.7430 H   0  0  0  0  0  0  0  0  0  0  0  0
   38.2340   33.8550   40.1890 C   0  0  0  0  0  0  0  0  0  0  0  0
   37.4060   32.9860   39.4550 C   0  0  0  0  0  0  0  0  0  0  0  0
   37.7850   31.6610   39.3130 C   0  0  0  0  0  0  0  0  0  0  0  0
   38.9410   31.2790   39.8950 N   0  0  0  0  0  0  0  0  0  0  0  0
   39.7340   32.1110   40.5980 C   0  0  0  0  0  0  0  0  0  0  0  0
   39.3810   33.3990   40.7450 N   0  0  0  0  0  0  0  0  0  0  0  0
   37.9660   34.8970   40.3180 H   0  0  0  0  0  0  0  0  0  0  0  0
   36.4960   33.3250   39.0070 H   0  0  0  0  0  0  0  0  0  0  0  0
   40.6230   31.6260   40.9930 H   0  0  0  0  0  0  0  0  0  0  0  0
   35.9560   30.1360   40.7710 C   0  0  0  0  0  0  0  0  0  0  0  0
   36.9330   30.6110   41.0840 H   0  0  0  0  0  0  0  0  0  0  0  0
   35.2010   30.9190   41.0010 H   0  0  0  0  0  0  0  0  0  0  0  0
   35.8310   28.9400   41.5390 N   0  0  0  0  0  0  0  0  0  0  0  0
   35.1000   29.0560   42.2490 H   0  0  0  0  0  0  0  0  0  0  0  0
   37.2600   28.5810   42.4370 S   0  0  0  0  0  0  0  0  0  0  0  0
   37.3350   29.4030   43.6770 O   0  0  0  0  0  0  0  0  0  0  0  0
   37.9640   30.1570   43.7530 H   0  0  0  0  0  0  0  0  0  0  0  0
   38.4770   28.8010   41.6030 O   0  0  0  0  0  0  0  0  0  0  0  0
   39.0720   28.0640   41.3010 H   0  0  0  0  0  0  0  0  0  0  0  0
   37.1760   26.9500   42.8410 O   0  0  0  0  0  0  0  0  0  0  0  0
   37.0340   25.9570   41.8980 C   0  0  0  0  0  0  0  0  0  0  0  0
   36.9740   24.5950   42.0040 C   0  0  0  0  0  0  0  0  0  0  0  0
   37.0320   24.0530   42.9280 H   0  0  0  0  0  0  0  0  0  0  0  0
   36.8270   24.0880   40.7300 C   0  0  0  0  0  0  0  0  0  0  0  0
   36.7440   23.0560   40.4240 H   0  0  0  0  0  0  0  0  0  0  0  0
   36.8080   25.2010   39.9110 C   0  0  0  0  0  0  0  0  0  0  0  0
   36.7070   25.2400   38.8190 H   0  0  0  0  0  0  0  0  0  0  0  0
   36.9310   26.2660   40.6370 O   0  0  0  0  0  0  0  0  0  0  0  0
  1  2  1  0  0  0  0
  1 13  1  0  0  0  0
  2 20  1  0  0  0  0
  3  7  1  0  0  0  0
  3  2  2  0  0  0  0
  4  3  1  0  0  0  0
  5  6  1  0  0  0  0
  5  4  2  0  0  0  0
  6  1  2  0  0  0  0
  8  4  1  0  0  0  0
  9  5  1  0  0  0  0
 10  6  1  0  0  0  0
 11 17  1  0  0  0  0
 11 16  1  0  0  0  0
 12 11  2  0  0  0  0
 13 12  1  0  0  0  0
 13 14  2  0  0  0  0
 14 15  1  0  0  0  0
 15 16  2  0  0  0  0
 15 19  1  0  0  0  0
 18 12  1  0  0  0  0
 20 22  1  0  0  0  0
 20 21  1  0  0  0  0
 20 23  1  0  0  0  0
 23 24  1  0  0  0  0
 23 25  1  0  0  0  0
 25 30  1  0  0  0  0
 25 26  1  0  0  0  0
 26 27  1  0  0  0  0
 28 25  1  0  0  0  0
 29 28  1  0  0  0  0
 31 32  2  0  0  0  0
 31 30  1  0  0  0  0
 32 33  1  0  0  0  0
 34 32  1  0  0  0  0
 35 34  1  0  0  0  0
 36 38  1  0  0  0  0
 36 34  2  0  0  0  0
 37 36  1  0  0  0  0
 38 31  1  0  0  0  0
M  END
>  <minimizedAffinity>
-5.90950298

$$$$

 OpenBabel03252508443D

 38 40  0  0  0  0  0  0  0  0999 V2000
   36.8760   28.2970   40.9170 C   0  0  0  0  0  0  0  0  0  0  0  0
   37.2230   29.3630   41.7240 C   0  0  0  0  0  0  0  0  0  0  0  0
   37.6060   29.1100   43.0250 C   0  0  0  0  0  0  0  0  0  0  0  0
   37.6400   27.8370   43.4920 C   0  0  0  0  0  0  0  0  0  0  0  0
   37.3060   26.7630   42.7260 C   0  0  0  0  0  0  0  0  0  0  0  0
   36.9230   27.0470   41.4190 C   0  0  0  0  0  0  0  0  0  0  0  0
   37.8880   29.8940   43.7060 H   0  0  0  0  0  0  0  0  0  0  0  0
   37.9400   27.6070   44.5170 H   0  0  0  0  0  0  0  0  0  0  0  0
   37.3090   25.7090   43.0320 H   0  0  0  0  0  0  0  0  0  0  0  0
   36.6360   26.2620   40.7220 H   0  0  0  0  0  0  0  0  0  0  0  0
   34.8790   29.0980   37.8200 C   0  0  0  0  0  0  0  0  0  0  0  0
   35.1590   28.7970   39.1650 C   0  0  0  0  0  0  0  0  0  0  0  0
   36.4770   28.6130   39.5500 C   0  0  0  0  0  0  0  0  0  0  0  0
   37.4260   28.7350   38.5980 N   0  0  0  0  0  0  0  0  0  0  0  0
   37.1580   29.0240   37.3100 C   0  0  0  0  0  0  0  0  0  0  0  0
   35.8860   29.2050   36.9200 N   0  0  0  0  0  0  0  0  0  0  0  0
   33.8590   29.2480   37.4880 H   0  0  0  0  0  0  0  0  0  0  0  0
   34.3800   28.7070   39.8930 H   0  0  0  0  0  0  0  0  0  0  0  0
   38.0480   29.0820   36.6880 H   0  0  0  0  0  0  0  0  0  0  0  0
   37.1800   30.7550   41.1970 C   0  0  0  0  0  0  0  0  0  0  0  0
   36.8070   30.6420   40.1360 H   0  0  0  0  0  0  0  0  0  0  0  0
   36.3840   31.3550   41.6900 H   0  0  0  0  0  0  0  0  0  0  0  0
   38.4470   31.4030   41.1050 N   0  0  0  0  0  0  0  0  0  0  0  0
   38.8520   31.5130   42.0410 H   0  0  0  0  0  0  0  0  0  0  0  0
   38.3230   33.0110   40.4900 S   0  0  0  0  0  0  0  0  0  0  0  0
   38.8030   34.0060   41.4890 O   0  0  0  0  0  0  0  0  0  0  0  0
   38.1720   34.5790   41.9830 H   0  0  0  0  0  0  0  0  0  0  0  0
   36.9180   33.3170   40.0950 O   0  0  0  0  0  0  0  0  0  0  0  0
   36.6340   33.4600   39.1530 H   0  0  0  0  0  0  0  0  0  0  0  0
   39.2910   33.0740   39.1150 O   0  0  0  0  0  0  0  0  0  0  0  0
   40.6580   33.2220   39.1740 C   0  0  0  0  0  0  0  0  0  0  0  0
   41.5660   33.7190   38.2800 C   0  0  0  0  0  0  0  0  0  0  0  0
   41.3170   34.1040   37.3110 H   0  0  0  0  0  0  0  0  0  0  0  0
   42.8120   33.6260   38.8630 C   0  0  0  0  0  0  0  0  0  0  0  0
   43.7660   33.9210   38.4550 H   0  0  0  0  0  0  0  0  0  0  0  0
   42.5770   33.0640   40.1030 C   0  0  0  0  0  0  0  0  0  0  0  0
   43.3040   32.8190   40.8870 H   0  0  0  0  0  0  0  0  0  0  0  0
   41.3070   32.8470   40.2390 O   0  0  0  0  0  0  0  0  0  0  0  0
  1  6  2  0  0  0  0
  1  2  1  0  0  0  0
  2  3  2  0  0  0  0
  3  4  1  0  0  0  0
  3  7  1  0  0  0  0
  4  8  1  0  0  0  0
  5  9  1  0  0  0  0
  5  4  2  0  0  0  0
  6  5  1  0  0  0  0
 10  6  1  0  0  0  0
 11 12  1  0  0  0  0
 12 13  2  0  0  0  0
 12 18  1  0  0  0  0
 13  1  1  0  0  0  0
 14 13  1  0  0  0  0
 15 14  2  0  0  0  0
 16 15  1  0  0  0  0
 16 11  2  0  0  0  0
 17 11  1  0  0  0  0
 19 15  1  0  0  0  0
 20 22  1  0  0  0  0
 20  2  1  0  0  0  0
 21 20  1  0  0  0  0
 23 20  1  0  0  0  0
 23 24  1  0  0  0  0
 25 23  1  0  0  0  0
 25 26  1  0  0  0  0
 26 27  1  0  0  0  0
 28 25  1  0  0  0  0
 29 28  1  0  0  0  0
 30 31  1  0  0  0  0
 30 25  1  0  0  0  0
 31 38  1  0  0  0  0
 32 34  1  0  0  0  0
 32 31  2  0  0  0  0
 33 32  1  0  0  0  0
 34 36  2  0  0  0  0
 35 34  1  0  0  0  0
 36 38  1  0  0  0  0
 36 37  1  0  0  0  0
M  END
>  <minimizedAffinity>
-5.7086091

$$$$

 OpenBabel03252508443D

 38 40  0  0  0  0  0  0  0  0999 V2000
   36.5780   27.4110   40.1100 C   0  0  0  0  0  0  0  0  0  0  0  0
   36.1440   28.3850   40.9890 C   0  0  0  0  0  0  0  0  0  0  0  0
   36.3090   28.1760   42.3420 C   0  0  0  0  0  0  0  0  0  0  0  0
   36.8910   27.0350   42.7910 C   0  0  0  0  0  0  0  0  0  0  0  0
   37.3310   26.0560   41.9560 C   0  0  0  0  0  0  0  0  0  0  0  0
   37.1500   26.2920   40.5960 C   0  0  0  0  0  0  0  0  0  0  0  0
   35.9930   28.8930   43.0800 H   0  0  0  0  0  0  0  0  0  0  0  0
   37.0360   26.8430   43.8570 H   0  0  0  0  0  0  0  0  0  0  0  0
   37.8080   25.1100   42.2430 H   0  0  0  0  0  0  0  0  0  0  0  0
   37.4660   25.5730   39.8430 H   0  0  0  0  0  0  0  0  0  0  0  0
   35.1340   27.6360   36.6340 C   0  0  0  0  0  0  0  0  0  0  0  0
   35.2240   27.3370   38.0060 C   0  0  0  0  0  0  0  0  0  0  0  0
   36.3810   27.6760   38.6900 C   0  0  0  0  0  0  0  0  0  0  0  0
   37.3640   28.2780   37.9890 N   0  0  0  0  0  0  0  0  0  0  0  0
   37.2770   28.5640   36.6750 C   0  0  0  0  0  0  0  0  0  0  0  0
   36.1620   28.2430   35.9970 N   0  0  0  0  0  0  0  0  0  0  0  0
   34.2420   27.3840   36.0720 H   0  0  0  0  0  0  0  0  0  0  0  0
   34.4240   26.8580   38.5300 H   0  0  0  0  0  0  0  0  0  0  0  0
   38.1650   29.0510   36.2810 H   0  0  0  0  0  0  0  0  0  0  0  0
   35.5080   29.6320   40.4800 C   0  0  0  0  0  0  0  0  0  0  0  0
   35.9130   29.7460   39.4320 H   0  0  0  0  0  0  0  0  0  0  0  0
   34.4150   29.4980   40.3230 H   0  0  0  0  0  0  0  0  0  0  0  0
   35.8700   30.8210   41.1790 N   0  0  0  0  0  0  0  0  0  0  0  0
   35.0780   31.4720   41.1950 H   0  0  0  0  0  0  0  0  0  0  0  0
   37.1350   31.6900   40.3890 S   0  0  0  0  0  0  0  0  0  0  0  0
   36.7910   33.1330   40.2530 O   0  0  0  0  0  0  0  0  0  0  0  0
   36.5340   33.5170   39.3840 H   0  0  0  0  0  0  0  0  0  0  0  0
   37.4210   31.1030   39.0490 O   0  0  0  0  0  0  0  0  0  0  0  0
   38.2710   30.6370   38.8280 H   0  0  0  0  0  0  0  0  0  0  0  0
   38.5060   31.5210   41.3510 O   0  0  0  0  0  0  0  0  0  0  0  0
   39.1760   30.3270   41.4870 C   0  0  0  0  0  0  0  0  0  0  0  0
   39.6850   29.6810   42.5800 C   0  0  0  0  0  0  0  0  0  0  0  0
   39.6280   30.0490   43.5850 H   0  0  0  0  0  0  0  0  0  0  0  0
   40.2610   28.5090   42.1350 C   0  0  0  0  0  0  0  0  0  0  0  0
   40.7600   27.7460   42.7130 H   0  0  0  0  0  0  0  0  0  0  0  0
   40.0610   28.5180   40.7680 C   0  0  0  0  0  0  0  0  0  0  0  0
   40.3670   27.7650   40.0310 H   0  0  0  0  0  0  0  0  0  0  0  0
   39.4240   29.5960   40.4370 O   0  0  0  0  0  0  0  0  0  0  0  0
  1  6  2  0  0  0  0
  1  2  1  0  0  0  0
  2  3  2  0  0  0  0
  3  4  1  0  0  0  0
  3  7  1  0  0  0  0
  4  8  1  0  0  0  0
  5  9  1  0  0  0  0
  5  4  2  0  0  0  0
  6  5  1  0  0  0  0
 10  6  1  0  0  0  0
 11 12  1  0  0  0  0
 12 18  1  0  0  0  0
 12 13  2  0  0  0  0
 13  1  1  0  0  0  0
 14 13  1  0  0  0  0
 15 14  2  0  0  0  0
 16 11  2  0  0  0  0
 16 15  1  0  0  0  0
 17 11  1  0  0  0  0
 19 15  1  0  0  0  0
 20  2  1  0  0  0  0
 20 23  1  0  0  0  0
 21 20  1  0  0  0  0
 22 20  1  0  0  0  0
 23 24  1  0  0  0  0
 25 23  1  0  0  0  0
 25 30  1  0  0  0  0
 26 25  1  0  0  0  0
 27 26  1  0  0  0  0
 28 25  1  0  0  0  0
 29 28  1  0  0  0  0
 30 31  1  0  0  0  0
 31 32  2  0  0  0  0
 32 33  1  0  0  0  0
 34 32  1  0  0  0  0
 34 35  1  0  0  0  0
 36 34  2  0  0  0  0
 37 36  1  0  0  0  0
 38 36  1  0  0  0  0
 38 31  1  0  0  0  0
M  END
>  <minimizedAffinity>
-5.48522377

$$$$

 OpenBabel03252508443D

 38 40  0  0  0  0  0  0  0  0999 V2000
   36.6010   30.0550   38.1980 C   0  0  0  0  0  0  0  0  0  0  0  0
   36.5200   30.5540   39.4840 C   0  0  0  0  0  0  0  0  0  0  0  0
   37.2260   31.6970   39.7950 C   0  0  0  0  0  0  0  0  0  0  0  0
   37.9790   32.3140   38.8500 C   0  0  0  0  0  0  0  0  0  0  0  0
   38.0810   31.8520   37.5740 C   0  0  0  0  0  0  0  0  0  0  0  0
   37.3600   30.6970   37.2880 C   0  0  0  0  0  0  0  0  0  0  0  0
   37.2060   32.1380   40.7770 H   0  0  0  0  0  0  0  0  0  0  0  0
   38.5470   33.2210   39.0680 H   0  0  0  0  0  0  0  0  0  0  0  0
   38.6690   32.2940   36.7590 H   0  0  0  0  0  0  0  0  0  0  0  0
   37.3730   30.2440   36.2990 H   0  0  0  0  0  0  0  0  0  0  0  0
   33.8960   27.6320   37.1830 C   0  0  0  0  0  0  0  0  0  0  0  0
   34.5450   28.8570   37.4210 C   0  0  0  0  0  0  0  0  0  0  0  0
   35.8390   28.8440   37.9160 C   0  0  0  0  0  0  0  0  0  0  0  0
   36.4060   27.6410   38.1430 N   0  0  0  0  0  0  0  0  0  0  0  0
   35.7840   26.4680   37.9150 C   0  0  0  0  0  0  0  0  0  0  0  0
   34.5300   26.4620   37.4350 N   0  0  0  0  0  0  0  0  0  0  0  0
   32.8840   27.6090   36.7960 H   0  0  0  0  0  0  0  0  0  0  0  0
   34.0630   29.7930   37.2300 H   0  0  0  0  0  0  0  0  0  0  0  0
   36.3970   25.6030   38.1560 H   0  0  0  0  0  0  0  0  0  0  0  0
   35.6880   29.8650   40.5100 C   0  0  0  0  0  0  0  0  0  0  0  0
   34.7360   30.4720   40.5520 H   0  0  0  0  0  0  0  0  0  0  0  0
   35.3460   28.8680   40.1560 H   0  0  0  0  0  0  0  0  0  0  0  0
   36.2280   29.8790   41.8300 N   0  0  0  0  0  0  0  0  0  0  0  0
   36.9990   30.5520   41.8850 H   0  0  0  0  0  0  0  0  0  0  0  0
   36.9340   28.3670   42.2690 S   0  0  0  0  0  0  0  0  0  0  0  0
   36.9190   27.4150   41.1230 O   0  0  0  0  0  0  0  0  0  0  0  0
   36.2930   26.6550   41.0990 H   0  0  0  0  0  0  0  0  0  0  0  0
   36.2240   27.7730   43.4380 O   0  0  0  0  0  0  0  0  0  0  0  0
   36.6410   27.6700   44.3350 H   0  0  0  0  0  0  0  0  0  0  0  0
   38.5230   28.6920   42.7170 O   0  0  0  0  0  0  0  0  0  0  0  0
   39.4040   27.7050   43.0980 C   0  0  0  0  0  0  0  0  0  0  0  0
   40.7570   27.7140   43.3030 C   0  0  0  0  0  0  0  0  0  0  0  0
   41.3840   28.5750   43.1850 H   0  0  0  0  0  0  0  0  0  0  0  0
   41.1260   26.4390   43.6770 C   0  0  0  0  0  0  0  0  0  0  0  0
   42.1100   26.0700   43.9200 H   0  0  0  0  0  0  0  0  0  0  0  0
   39.9460   25.7200   43.6760 C   0  0  0  0  0  0  0  0  0  0  0  0
   39.7960   24.6590   43.9170 H   0  0  0  0  0  0  0  0  0  0  0  0
   38.9710   26.5000   43.3330 O   0  0  0  0  0  0  0  0  0  0  0  0
  1  2  1  0  0  0  0
  2  3  2  0  0  0  0
  2 20  1  0  0  0  0
  3  7  1  0  0  0  0
  4  8  1  0  0  0  0
  4  3  1  0  0  0  0
  5  4  2  0  0  0  0
  6  5  1  0  0  0  0
  6  1  2  0  0  0  0
  9  5  1  0  0  0  0
 10  6  1  0  0  0  0
 11 12  2  0  0  0  0
 11 16  1  0  0  0  0
 12 13  1  0  0  0  0
 13 14  2  0  0  0  0
 13  1  1  0  0  0  0
 15 14  1  0  0  0  0
 15 19  1  0  0  0  0
 16 15  2  0  0  0  0
 17 11  1  0  0  0  0
 18 12  1  0  0  0  0
 20 21  1  0  0  0  0
 20 23  1  0  0  0  0
 22 20  1  0  0  0  0
 23 24  1  0  0  0  0
 23 25  1  0  0  0  0
 25 30  1  0  0  0  0
 25 28  1  0  0  0  0
 26 25  1  0  0  0  0
 27 26  1  0  0  0  0
 28 29  1  0  0  0  0
 30 31  1  0  0  0  0
 31 32  2  0  0  0  0
 31 38  1  0  0  0  0
 32 34  1  0  0  0  0
 33 32  1  0  0  0  0
 34 35  1  0  0  0  0
 36 34  2  0  0  0  0
 36 37  1  0  0  0  0
 38 36  1  0  0  0  0
M  END
>  <minimizedAffinity>
-5.44374609

$$$$

 OpenBabel03252508443D

 38 40  0  0  0  0  0  0  0  0999 V2000
   36.7650   28.0160   40.0020 C   0  0  0  0  0  0  0  0  0  0  0  0
   36.6800   29.3290   39.5810 C   0  0  0  0  0  0  0  0  0  0  0  0
   36.0750   29.5980   38.3710 C   0  0  0  0  0  0  0  0  0  0  0  0
   35.5730   28.5870   37.6190 C   0  0  0  0  0  0  0  0  0  0  0  0
   35.6380   27.2830   38.0020 C   0  0  0  0  0  0  0  0  0  0  0  0
   36.2550   27.0400   39.2250 C   0  0  0  0  0  0  0  0  0  0  0  0
   35.9760   30.5980   37.9850 H   0  0  0  0  0  0  0  0  0  0  0  0
   35.0880   28.7700   36.6570 H   0  0  0  0  0  0  0  0  0  0  0  0
   35.2570   26.4140   37.4490 H   0  0  0  0  0  0  0  0  0  0  0  0
   36.3600   26.0330   39.6250 H   0  0  0  0  0  0  0  0  0  0  0  0
   37.4560   27.5480   43.6800 C   0  0  0  0  0  0  0  0  0  0  0  0
   36.7360   27.7860   42.4950 C   0  0  0  0  0  0  0  0  0  0  0  0
   37.4140   27.7810   41.2860 C   0  0  0  0  0  0  0  0  0  0  0  0
   38.7430   27.5460   41.3200 N   0  0  0  0  0  0  0  0  0  0  0  0
   39.4320   27.3170   42.4550 C   0  0  0  0  0  0  0  0  0  0  0  0
   38.7900   27.3190   43.6350 N   0  0  0  0  0  0  0  0  0  0  0  0
   36.9540   27.5450   44.6400 H   0  0  0  0  0  0  0  0  0  0  0  0
   35.6820   27.9690   42.5060 H   0  0  0  0  0  0  0  0  0  0  0  0
   40.4920   27.1480   42.2870 H   0  0  0  0  0  0  0  0  0  0  0  0
   37.2360   30.4280   40.4190 C   0  0  0  0  0  0  0  0  0  0  0  0
   37.0450   30.0950   41.4820 H   0  0  0  0  0  0  0  0  0  0  0  0
   38.3450   30.4700   40.3550 H   0  0  0  0  0  0  0  0  0  0  0  0
   36.5800   31.6870   40.2730 N   0  0  0  0  0  0  0  0  0  0  0  0
   35.7970   31.5990   39.6170 H   0  0  0  0  0  0  0  0  0  0  0  0
   37.6050   32.8870   39.5750 S   0  0  0  0  0  0  0  0  0  0  0  0
   36.8650   34.1610   39.3540 O   0  0  0  0  0  0  0  0  0  0  0  0
   36.5960   34.4450   38.4500 H   0  0  0  0  0  0  0  0  0  0  0  0
   38.1860   32.4020   38.2900 O   0  0  0  0  0  0  0  0  0  0  0  0
   39.1530   32.2080   38.1680 H   0  0  0  0  0  0  0  0  0  0  0  0
   38.8590   33.1410   40.6670 O   0  0  0  0  0  0  0  0  0  0  0  0
   40.1600   33.3550   40.2690 C   0  0  0  0  0  0  0  0  0  0  0  0
   41.3570   32.9440   40.7890 C   0  0  0  0  0  0  0  0  0  0  0  0
   41.4620   32.3350   41.6660 H   0  0  0  0  0  0  0  0  0  0  0  0
   42.3530   33.4530   39.9830 C   0  0  0  0  0  0  0  0  0  0  0  0
   43.4210   33.3360   40.0830 H   0  0  0  0  0  0  0  0  0  0  0  0
   41.6820   34.1580   39.0030 C   0  0  0  0  0  0  0  0  0  0  0  0
   42.1050   34.7190   38.1590 H   0  0  0  0  0  0  0  0  0  0  0  0
   40.4070   34.0720   39.2110 O   0  0  0  0  0  0  0  0  0  0  0  0
  1 13  1  0  0  0  0
  2  1  1  0  0  0  0
  2 20  1  0  0  0  0
  3  2  2  0  0  0  0
  4  5  2  0  0  0  0
  4  3  1  0  0  0  0
  5  6  1  0  0  0  0
  6 10  1  0  0  0  0
  6  1  2  0  0  0  0
  7  3  1  0  0  0  0
  8  4  1  0  0  0  0
  9  5  1  0  0  0  0
 11 17  1  0  0  0  0
 12 18  1  0  0  0  0
 12 11  2  0  0  0  0
 13 14  2  0  0  0  0
 13 12  1  0  0  0  0
 14 15  1  0  0  0  0
 15 16  2  0  0  0  0
 16 11  1  0  0  0  0
 19 15  1  0  0  0  0
 20 21  1  0  0  0  0
 22 20  1  0  0  0  0
 23 20  1  0  0  0  0
 24 23  1  0  0  0  0
 25 23  1  0  0  0  0
 25 30  1  0  0  0  0
 26 25  1  0  0  0  0
 27 26  1  0  0  0  0
 28 25  1  0  0  0  0
 29 28  1  0  0  0  0
 31 30  1  0  0  0  0
 31 32  2  0  0  0  0
 32 33  1  0  0  0  0
 34 35  1  0  0  0  0
 34 32  1  0  0  0  0
 36 38  1  0  0  0  0
 36 34  2  0  0  0  0
 37 36  1  0  0  0  0
 38 31  1  0  0  0  0
M  END
>  <minimizedAffinity>
-5.42999029

$$$$

 OpenBabel03252508443D

 38 40  0  0  0  0  0  0  0  0999 V2000
   36.5680   27.1560   40.2010 C   0  0  0  0  0  0  0  0  0  0  0  0
   36.1780   28.1960   41.0220 C   0  0  0  0  0  0  0  0  0  0  0  0
   35.3070   29.1410   40.5220 C   0  0  0  0  0  0  0  0  0  0  0  0
   34.8460   29.0410   39.2500 C   0  0  0  0  0  0  0  0  0  0  0  0
   35.2080   28.0310   38.4140 C   0  0  0  0  0  0  0  0  0  0  0  0
   36.0890   27.0920   38.9440 C   0  0  0  0  0  0  0  0  0  0  0  0
   34.9630   29.9760   41.1080 H   0  0  0  0  0  0  0  0  0  0  0  0
   34.1550   29.7740   38.8280 H   0  0  0  0  0  0  0  0  0  0  0  0
   34.8800   27.8840   37.3770 H   0  0  0  0  0  0  0  0  0  0  0  0
   36.4420   26.2440   38.3600 H   0  0  0  0  0  0  0  0  0  0  0  0
   38.0500   24.1970   42.0110 C   0  0  0  0  0  0  0  0  0  0  0  0
   37.0780   25.0780   41.5010 C   0  0  0  0  0  0  0  0  0  0  0  0
   37.4910   26.1820   40.7730 C   0  0  0  0  0  0  0  0  0  0  0  0
   38.8190   26.3480   40.5950 N   0  0  0  0  0  0  0  0  0  0  0  0
   39.7490   25.5040   41.0830 C   0  0  0  0  0  0  0  0  0  0  0  0
   39.3650   24.4290   41.7910 N   0  0  0  0  0  0  0  0  0  0  0  0
   37.7580   23.3250   42.5830 H   0  0  0  0  0  0  0  0  0  0  0  0
   36.0330   24.9140   41.6620 H   0  0  0  0  0  0  0  0  0  0  0  0
   40.7660   25.7990   40.8390 H   0  0  0  0  0  0  0  0  0  0  0  0
   36.6920   28.2920   42.4160 C   0  0  0  0  0  0  0  0  0  0  0  0
   35.7750   28.1660   43.0640 H   0  0  0  0  0  0  0  0  0  0  0  0
   37.3190   27.4130   42.6820 H   0  0  0  0  0  0  0  0  0  0  0  0
   37.2550   29.5560   42.7650 N   0  0  0  0  0  0  0  0  0  0  0  0
   36.8390   30.2940   42.1880 H   0  0  0  0  0  0  0  0  0  0  0  0
   38.9460   29.6390   42.4330 S   0  0  0  0  0  0  0  0  0  0  0  0
   39.6460   28.4100   42.9030 O   0  0  0  0  0  0  0  0  0  0  0  0
   40.2150   28.4230   43.7070 H   0  0  0  0  0  0  0  0  0  0  0  0
   39.5500   30.8460   43.0660 O   0  0  0  0  0  0  0  0  0  0  0  0
   39.9090   31.6130   42.5450 H   0  0  0  0  0  0  0  0  0  0  0  0
   39.1010   29.7760   40.7630 O   0  0  0  0  0  0  0  0  0  0  0  0
   38.3990   30.7020   40.0250 C   0  0  0  0  0  0  0  0  0  0  0  0
   38.1460   30.8040   38.6840 C   0  0  0  0  0  0  0  0  0  0  0  0
   38.4910   30.1080   37.9460 H   0  0  0  0  0  0  0  0  0  0  0  0
   37.3870   31.9400   38.4930 C   0  0  0  0  0  0  0  0  0  0  0  0
   37.0000   32.3390   37.5690 H   0  0  0  0  0  0  0  0  0  0  0  0
   37.2230   32.4680   39.7600 C   0  0  0  0  0  0  0  0  0  0  0  0
   36.6790   33.3740   40.0530 H   0  0  0  0  0  0  0  0  0  0  0  0
   37.8300   31.7120   40.6190 O   0  0  0  0  0  0  0  0  0  0  0  0
  1 13  1  0  0  0  0
  1  2  1  0  0  0  0
  2 20  1  0  0  0  0
  3  2  2  0  0  0  0
  3  7  1  0  0  0  0
  4  3  1  0  0  0  0
  5  6  1  0  0  0  0
  5  4  2  0  0  0  0
  6  1  2  0  0  0  0
  8  4  1  0  0  0  0
  9  5  1  0  0  0  0
 10  6  1  0  0  0  0
 11 17  1  0  0  0  0
 12 18  1  0  0  0  0
 12 11  2  0  0  0  0
 13 12  1  0  0  0  0
 14 13  2  0  0  0  0
 14 15  1  0  0  0  0
 15 16  2  0  0  0  0
 16 11  1  0  0  0  0
 19 15  1  0  0  0  0
 20 22  1  0  0  0  0
 20 23  1  0  0  0  0
 20 21  1  0  0  0  0
 24 23  1  0  0  0  0
 25 23  1  0  0  0  0
 25 26  1  0  0  0  0
 25 28  1  0  0  0  0
 26 27  1  0  0  0  0
 29 28  1  0  0  0  0
 30 25  1  0  0  0  0
 31 38  1  0  0  0  0
 31 30  1  0  0  0  0
 32 31  2  0  0  0  0
 33 32  1  0  0  0  0
 34 32  1  0  0  0  0
 34 36  2  0  0  0  0
 35 34  1  0  0  0  0
 36 37  1  0  0  0  0
 36 38  1  0  0  0  0
M  END
>  <minimizedAffinity>
-5.35537815

$$$$

 OpenBabel03252508443D

 38 40  0  0  0  0  0  0  0  0999 V2000
   36.8360   27.7320   40.3480 C   0  0  0  0  0  0  0  0  0  0  0  0
   36.0030   28.8340   40.3250 C   0  0  0  0  0  0  0  0  0  0  0  0
   35.0240   28.9030   39.3570 C   0  0  0  0  0  0  0  0  0  0  0  0
   34.8880   27.9020   38.4510 C   0  0  0  0  0  0  0  0  0  0  0  0
   35.6890   26.8020   38.4430 C   0  0  0  0  0  0  0  0  0  0  0  0
   36.6690   26.7600   39.4310 C   0  0  0  0  0  0  0  0  0  0  0  0
   34.3420   29.7320   39.2830 H   0  0  0  0  0  0  0  0  0  0  0  0
   34.1210   27.9290   37.6730 H   0  0  0  0  0  0  0  0  0  0  0  0
   35.6410   25.9560   37.7460 H   0  0  0  0  0  0  0  0  0  0  0  0
   37.3630   25.9260   39.5140 H   0  0  0  0  0  0  0  0  0  0  0  0
   38.7160   27.1370   43.5630 C   0  0  0  0  0  0  0  0  0  0  0  0
   37.6670   27.1080   42.6260 C   0  0  0  0  0  0  0  0  0  0  0  0
   37.8570   27.7050   41.3900 C   0  0  0  0  0  0  0  0  0  0  0  0
   39.0520   28.2850   41.1570 N   0  0  0  0  0  0  0  0  0  0  0  0
   40.0570   28.3120   42.0530 C   0  0  0  0  0  0  0  0  0  0  0  0
   39.8900   27.7380   43.2560 N   0  0  0  0  0  0  0  0  0  0  0  0
   38.5990   26.6790   44.5380 H   0  0  0  0  0  0  0  0  0  0  0  0
   36.7310   26.6390   42.8460 H   0  0  0  0  0  0  0  0  0  0  0  0
   40.9450   28.8230   41.6890 H   0  0  0  0  0  0  0  0  0  0  0  0
   36.1650   29.9240   41.3270 C   0  0  0  0  0  0  0  0  0  0  0  0
   35.3730   29.7110   42.1050 H   0  0  0  0  0  0  0  0  0  0  0  0
   37.1180   29.8230   41.8910 H   0  0  0  0  0  0  0  0  0  0  0  0
   35.8970   31.2370   40.8370 N   0  0  0  0  0  0  0  0  0  0  0  0
   35.2350   31.1900   40.0560 H   0  0  0  0  0  0  0  0  0  0  0  0
   37.3010   31.9940   40.1770 S   0  0  0  0  0  0  0  0  0  0  0  0
   38.5430   31.3100   40.6340 O   0  0  0  0  0  0  0  0  0  0  0  0
   39.1340   31.7210   41.3060 H   0  0  0  0  0  0  0  0  0  0  0  0
   37.3450   33.4380   40.5460 O   0  0  0  0  0  0  0  0  0  0  0  0
   37.2390   34.1730   39.8850 H   0  0  0  0  0  0  0  0  0  0  0  0
   37.1690   31.8720   38.5040 O   0  0  0  0  0  0  0  0  0  0  0  0
   37.5620   30.7530   37.8060 C   0  0  0  0  0  0  0  0  0  0  0  0
   37.0840   30.1690   36.6650 C   0  0  0  0  0  0  0  0  0  0  0  0
   36.2540   30.5380   36.0950 H   0  0  0  0  0  0  0  0  0  0  0  0
   37.8600   29.0570   36.4140 C   0  0  0  0  0  0  0  0  0  0  0  0
   37.7790   28.3530   35.6010 H   0  0  0  0  0  0  0  0  0  0  0  0
   38.7820   29.0360   37.4420 C   0  0  0  0  0  0  0  0  0  0  0  0
   39.5870   28.3110   37.6190 H   0  0  0  0  0  0  0  0  0  0  0  0
   38.5700   30.0430   38.2280 O   0  0  0  0  0  0  0  0  0  0  0  0
  1 13  1  0  0  0  0
  2  1  1  0  0  0  0
  2 20  1  0  0  0  0
  3  2  2  0  0  0  0
  4  3  1  0  0  0  0
  5  4  2  0  0  0  0
  5  6  1  0  0  0  0
  6 10  1  0  0  0  0
  6  1  2  0  0  0  0
  7  3  1  0  0  0  0
  8  4  1  0  0  0  0
  9  5  1  0  0  0  0
 11 17  1  0  0  0  0
 12 18  1  0  0  0  0
 12 11  2  0  0  0  0
 13 12  1  0  0  0  0
 14 13  2  0  0  0  0
 14 15  1  0  0  0  0
 15 16  2  0  0  0  0
 16 11  1  0  0  0  0
 19 15  1  0  0  0  0
 20 22  1  0  0  0  0
 20 21  1  0  0  0  0
 23 20  1  0  0  0  0
 24 23  1  0  0  0  0
 25 28  1  0  0  0  0
 25 26  1  0  0  0  0
 25 23  1  0  0  0  0
 26 27  1  0  0  0  0
 29 28  1  0  0  0  0
 30 25  1  0  0  0  0
 31 38  1  0  0  0  0
 31 30  1  0  0  0  0
 32 31  2  0  0  0  0
 33 32  1  0  0  0  0
 34 32  1  0  0  0  0
 34 36  2  0  0  0  0
 35 34  1  0  0  0  0
 36 37  1  0  0  0  0
 36 38  1  0  0  0  0
M  END
>  <minimizedAffinity>
-5.33400011

$$$$

 OpenBabel03252508443D

 38 40  0  0  0  0  0  0  0  0999 V2000
   36.5680   29.9810   38.1560 C   0  0  0  0  0  0  0  0  0  0  0  0
   35.5550   29.5760   39.0030 C   0  0  0  0  0  0  0  0  0  0  0  0
   34.4710   28.9120   38.4680 C   0  0  0  0  0  0  0  0  0  0  0  0
   34.4120   28.6650   37.1350 C   0  0  0  0  0  0  0  0  0  0  0  0
   35.3900   29.0480   36.2710 C   0  0  0  0  0  0  0  0  0  0  0  0
   36.4710   29.7170   36.8380 C   0  0  0  0  0  0  0  0  0  0  0  0
   33.6490   28.5700   39.0720 H   0  0  0  0  0  0  0  0  0  0  0  0
   33.5660   28.1400   36.6840 H   0  0  0  0  0  0  0  0  0  0  0  0
   35.4120   28.8850   35.1860 H   0  0  0  0  0  0  0  0  0  0  0  0
   37.3070   30.0670   36.2360 H   0  0  0  0  0  0  0  0  0  0  0  0
   38.8580   32.6300   39.5560 C   0  0  0  0  0  0  0  0  0  0  0  0
   37.7240   32.0520   38.9570 C   0  0  0  0  0  0  0  0  0  0  0  0
   37.6930   30.6800   38.7660 C   0  0  0  0  0  0  0  0  0  0  0  0
   38.7680   29.9720   39.1710 N   0  0  0  0  0  0  0  0  0  0  0  0
   39.8540   30.5260   39.7450 C   0  0  0  0  0  0  0  0  0  0  0  0
   39.9000   31.8540   39.9370 N   0  0  0  0  0  0  0  0  0  0  0  0
   38.9120   33.7000   39.7180 H   0  0  0  0  0  0  0  0  0  0  0  0
   36.8900   32.6460   38.6470 H   0  0  0  0  0  0  0  0  0  0  0  0
   40.6190   29.7990   40.0060 H   0  0  0  0  0  0  0  0  0  0  0  0
   35.6360   29.8550   40.4640 C   0  0  0  0  0  0  0  0  0  0  0  0
   36.6490   30.3370   40.6020 H   0  0  0  0  0  0  0  0  0  0  0  0
   34.9250   30.6540   40.7670 H   0  0  0  0  0  0  0  0  0  0  0  0
   35.6290   28.6980   41.2990 N   0  0  0  0  0  0  0  0  0  0  0  0
   34.8540   28.7560   41.9680 H   0  0  0  0  0  0  0  0  0  0  0  0
   37.0460   28.5830   42.2780 S   0  0  0  0  0  0  0  0  0  0  0  0
   36.7000   28.2160   43.6800 O   0  0  0  0  0  0  0  0  0  0  0  0
   36.7440   28.8780   44.4070 H   0  0  0  0  0  0  0  0  0  0  0  0
   37.8070   29.8650   42.2570 O   0  0  0  0  0  0  0  0  0  0  0  0
   38.7020   29.9610   41.8350 H   0  0  0  0  0  0  0  0  0  0  0  0
   38.0040   27.3800   41.5940 O   0  0  0  0  0  0  0  0  0  0  0  0
   38.8570   26.5970   42.3390 C   0  0  0  0  0  0  0  0  0  0  0  0
   39.8770   26.9110   43.1950 C   0  0  0  0  0  0  0  0  0  0  0  0
   40.1860   27.9100   43.4310 H   0  0  0  0  0  0  0  0  0  0  0  0
   40.3980   25.7250   43.6670 C   0  0  0  0  0  0  0  0  0  0  0  0
   41.2120   25.5800   44.3610 H   0  0  0  0  0  0  0  0  0  0  0  0
   39.6440   24.7430   43.0540 C   0  0  0  0  0  0  0  0  0  0  0  0
   39.7330   23.6540   43.1580 H   0  0  0  0  0  0  0  0  0  0  0  0
   38.7590   25.2990   42.2900 O   0  0  0  0  0  0  0  0  0  0  0  0
  1 13  1  0  0  0  0
  1  2  1  0  0  0  0
  2 20  1  0  0  0  0
  3  2  2  0  0  0  0
  3  7  1  0  0  0  0
  4  3  1  0  0  0  0
  5  6  1  0  0  0  0
  5  4  2  0  0  0  0
  6  1  2  0  0  0  0
  8  4  1  0  0  0  0
  9  5  1  0  0  0  0
 10  6  1  0  0  0  0
 11 17  1  0  0  0  0
 11 16  1  0  0  0  0
 12 11  2  0  0  0  0
 13 12  1  0  0  0  0
 13 14  2  0  0  0  0
 14 15  1  0  0  0  0
 15 16  2  0  0  0  0
 15 19  1  0  0  0  0
 18 12  1  0  0  0  0
 20 21  1  0  0  0  0
 20 22  1  0  0  0  0
 20 23  1  0  0  0  0
 23 24  1  0  0  0  0
 23 25  1  0  0  0  0
 25 26  1  0  0  0  0
 26 27  1  0  0  0  0
 28 25  1  0  0  0  0
 29 28  1  0  0  0  0
 30 25  1  0  0  0  0
 30 31  1  0  0  0  0
 31 32  2  0  0  0  0
 32 33  1  0  0  0  0
 32 34  1  0  0  0  0
 34 35  1  0  0  0  0
 36 37  1  0  0  0  0
 36 34  2  0  0  0  0
 38 31  1  0  0  0  0
 38 36  1  0  0  0  0
M  END
>  <minimizedAffinity>
-5.33058882

$$$$

 OpenBabel03252508443D

 38 40  0  0  0  0  0  0  0  0999 V2000
   36.8170   30.6550   38.9970 C   0  0  0  0  0  0  0  0  0  0  0  0
   36.1780   29.9910   40.0270 C   0  0  0  0  0  0  0  0  0  0  0  0
   35.2520   29.0190   39.7120 C   0  0  0  0  0  0  0  0  0  0  0  0
   34.9820   28.7260   38.4150 C   0  0  0  0  0  0  0  0  0  0  0  0
   35.5920   29.3580   37.3760 C   0  0  0  0  0  0  0  0  0  0  0  0
   36.5210   30.3350   37.7220 C   0  0  0  0  0  0  0  0  0  0  0  0
   34.7190   28.4650   40.4650 H   0  0  0  0  0  0  0  0  0  0  0  0
   34.2540   27.9610   38.1360 H   0  0  0  0  0  0  0  0  0  0  0  0
   35.4260   29.1780   36.3060 H   0  0  0  0  0  0  0  0  0  0  0  0
   37.0650   30.9010   36.9680 H   0  0  0  0  0  0  0  0  0  0  0  0
   38.4520   33.8860   40.0510 C   0  0  0  0  0  0  0  0  0  0  0  0
   37.4380   32.9770   39.6960 C   0  0  0  0  0  0  0  0  0  0  0  0
   37.7870   31.6740   39.3780 C   0  0  0  0  0  0  0  0  0  0  0  0
   39.0970   31.3530   39.4270 N   0  0  0  0  0  0  0  0  0  0  0  0
   40.0670   32.2230   39.7660 C   0  0  0  0  0  0  0  0  0  0  0  0
   39.7460   33.4890   40.0780 N   0  0  0  0  0  0  0  0  0  0  0  0
   38.2100   34.9100   40.3060 H   0  0  0  0  0  0  0  0  0  0  0  0
   36.4090   33.2680   39.6680 H   0  0  0  0  0  0  0  0  0  0  0  0
   41.0620   31.7850   39.7510 H   0  0  0  0  0  0  0  0  0  0  0  0
   36.4850   30.3230   41.4450 C   0  0  0  0  0  0  0  0  0  0  0  0
   37.4710   30.8740   41.3970 H   0  0  0  0  0  0  0  0  0  0  0  0
   35.7820   31.0850   41.8480 H   0  0  0  0  0  0  0  0  0  0  0  0
   36.6990   29.1980   42.2950 N   0  0  0  0  0  0  0  0  0  0  0  0
   36.8490   29.5120   43.2590 H   0  0  0  0  0  0  0  0  0  0  0  0
   38.1330   28.3280   41.8890 S   0  0  0  0  0  0  0  0  0  0  0  0
   39.1820   29.2420   41.3550 O   0  0  0  0  0  0  0  0  0  0  0  0
   39.4050   29.2580   40.3960 H   0  0  0  0  0  0  0  0  0  0  0  0
   37.8370   27.2540   40.8980 O   0  0  0  0  0  0  0  0  0  0  0  0
   37.8970   26.2850   41.1100 H   0  0  0  0  0  0  0  0  0  0  0  0
   38.6770   27.6100   43.3110 O   0  0  0  0  0  0  0  0  0  0  0  0
   39.9510   27.1060   43.4490 C   0  0  0  0  0  0  0  0  0  0  0  0
   40.4230   25.8280   43.5660 C   0  0  0  0  0  0  0  0  0  0  0  0
   39.8070   24.9500   43.5660 H   0  0  0  0  0  0  0  0  0  0  0  0
   41.7950   25.9040   43.6800 C   0  0  0  0  0  0  0  0  0  0  0  0
   42.5040   25.0980   43.7880 H   0  0  0  0  0  0  0  0  0  0  0  0
   42.0760   27.2550   43.6230 C   0  0  0  0  0  0  0  0  0  0  0  0
   43.0540   27.7490   43.6770 H   0  0  0  0  0  0  0  0  0  0  0  0
   40.9700   27.9160   43.4880 O   0  0  0  0  0  0  0  0  0  0  0  0
  1 13  1  0  0  0  0
  1  2  1  0  0  0  0
  2 20  1  0  0  0  0
  3  2  2  0  0  0  0
  3  7  1  0  0  0  0
  4  3  1  0  0  0  0
  5  6  1  0  0  0  0
  5  4  2  0  0  0  0
  6  1  2  0  0  0  0
  8  4  1  0  0  0  0
  9  5  1  0  0  0  0
 10  6  1  0  0  0  0
 11 16  1  0  0  0  0
 11 17  1  0  0  0  0
 12 11  2  0  0  0  0
 13 14  2  0  0  0  0
 13 12  1  0  0  0  0
 14 15  1  0  0  0  0
 15 16  2  0  0  0  0
 18 12  1  0  0  0  0
 19 15  1  0  0  0  0
 20 22  1  0  0  0  0
 20 23  1  0  0  0  0
 21 20  1  0  0  0  0
 23 24  1  0  0  0  0
 25 23  1  0  0  0  0
 25 30  1  0  0  0  0
 26 25  1  0  0  0  0
 27 26  1  0  0  0  0
 28 29  1  0  0  0  0
 28 25  1  0  0  0  0
 30 31  1  0  0  0  0
 31 38  1  0  0  0  0
 31 32  2  0  0  0  0
 32 33  1  0  0  0  0
 32 34  1  0  0  0  0
 34 35  1  0  0  0  0
 36 37  1  0  0  0  0
 36 34  2  0  0  0  0
 38 36  1  0  0  0  0
M  END
>  <minimizedAffinity>
-5.32372999

$$$$
