
 OpenBabel03252508593D

 44 46  0  0  1  0  0  0  0  0999 V2000
   47.2650   34.0740   42.8180 N   0  0  0  0  0  0  0  0  0  0  0  0
   46.7110   35.2630   42.2830 C   0  0  0  0  0  0  0  0  0  0  0  0
   45.2290   35.4510   42.5370 C   0  0  0  0  0  0  0  0  0  0  0  0
   44.7400   34.8770   43.8390 C   0  0  0  0  0  0  0  0  0  0  0  0
   45.8810   34.3370   44.6690 C   0  0  0  0  0  0  0  0  0  0  0  0
   46.5590   33.2880   43.7120 C   0  0  2  0  0  0  0  0  0  0  0  0
   46.8860   35.4410   41.2160 H   0  0  0  0  0  0  0  0  0  0  0  0
   47.2280   36.1140   42.8050 H   0  0  0  0  0  0  0  0  0  0  0  0
   44.6340   35.1030   41.6670 H   0  0  0  0  0  0  0  0  0  0  0  0
   45.0200   36.5490   42.5910 H   0  0  0  0  0  0  0  0  0  0  0  0
   44.2110   35.6030   44.4740 H   0  0  0  0  0  0  0  0  0  0  0  0
   44.0540   34.0420   43.6320 H   0  0  0  0  0  0  0  0  0  0  0  0
   45.4740   33.8200   45.5450 H   0  0  0  0  0  0  0  0  0  0  0  0
   46.6510   35.0710   44.9050 H   0  0  0  0  0  0  0  0  0  0  0  0
   45.7610   32.6290   43.3130 H   0  0  0  0  0  0  0  0  0  0  0  0
   48.2500   33.4510   41.9770 C   0  0  0  0  0  0  0  0  0  0  0  0
   48.8780   34.2590   41.5380 H   0  0  0  0  0  0  0  0  0  0  0  0
   48.9080   32.7760   42.5610 H   0  0  0  0  0  0  0  0  0  0  0  0
   47.5390   32.6360   40.9400 C   0  0  0  0  0  0  0  0  0  0  0  0
   46.4430   32.8810   40.9170 H   0  0  0  0  0  0  0  0  0  0  0  0
   47.6110   31.5470   41.1070 H   0  0  0  0  0  0  0  0  0  0  0  0
   49.3920   32.3680   37.6850 C   0  0  0  0  0  0  0  0  0  0  0  0
   48.8760   32.0560   38.9560 C   0  0  0  0  0  0  0  0  0  0  0  0
   48.0790   32.9760   39.5980 C   0  0  0  0  0  0  0  0  0  0  0  0
   47.8360   34.1310   38.9710 N   0  0  0  0  0  0  0  0  0  0  0  0
   48.3330   34.4220   37.7560 C   0  0  0  0  0  0  0  0  0  0  0  0
   49.1180   33.5390   37.1010 N   0  0  0  0  0  0  0  0  0  0  0  0
   50.0130   31.7100   37.1300 H   0  0  0  0  0  0  0  0  0  0  0  0
   49.1510   31.0870   39.3490 H   0  0  0  0  0  0  0  0  0  0  0  0
   48.1140   35.3750   37.2730 H   0  0  0  0  0  0  0  0  0  0  0  0
   47.4000   32.6190   44.5870 O   0  0  0  0  0  0  0  0  0  0  0  0
   46.7730   30.2620   43.5250 O   0  0  0  0  0  0  0  0  0  0  0  0
   46.9370   31.0220   44.8470 P   0  0  2  0  0  0  0  0  0  0  0  0
   45.3520   31.0930   45.4960 O   0  0  0  0  0  0  0  0  0  0  0  0
   45.3020   31.8480   46.1460 H   0  0  0  0  0  0  0  0  0  0  0  0
   47.8970   30.2290   45.9320 O   0  0  0  0  0  0  0  0  0  0  0  0
   48.0720   30.4260   47.2740 C   0  0  0  0  0  0  0  0  0  0  0  0
   49.1650   29.8680   47.9450 C   0  0  0  0  0  0  0  0  0  0  0  0
   49.9640   29.2540   47.5440 H   0  0  0  0  0  0  0  0  0  0  0  0
   49.0110   30.2750   49.2710 C   0  0  0  0  0  0  0  0  0  0  0  0
   49.7470   29.9700   50.0310 H   0  0  0  0  0  0  0  0  0  0  0  0
   47.8490   31.0470   49.3270 C   0  0  0  0  0  0  0  0  0  0  0  0
   47.5920   31.4390   50.3020 H   0  0  0  0  0  0  0  0  0  0  0  0
   47.3340   31.1040   48.1270 O   0  0  0  0  0  0  0  0  0  0  0  0
  1  6  1  0  0  0  0
  2  3  1  0  0  0  0
  2  8  1  0  0  0  0
  2  1  1  0  0  0  0
  3 10  1  0  0  0  0
  3  4  1  0  0  0  0
  4 11  1  0  0  0  0
  4  5  1  0  0  0  0
  5 14  1  0  0  0  0
  5 13  1  0  0  0  0
  6 15  1  6  0  0  0
  6 31  1  0  0  0  0
  6  5  1  0  0  0  0
  7  2  1  0  0  0  0
  9  3  1  0  0  0  0
 12  4  1  0  0  0  0
 16 18  1  0  0  0  0
 16  1  1  0  0  0  0
 17 16  1  0  0  0  0
 19 21  1  0  0  0  0
 19 16  1  0  0  0  0
 20 19  1  0  0  0  0
 22 23  1  0  0  0  0
 23 29  1  0  0  0  0
 23 24  2  0  0  0  0
 24 19  1  0  0  0  0
 25 24  1  0  0  0  0
 26 25  2  0  0  0  0
 27 22  2  0  0  0  0
 27 26  1  0  0  0  0
 28 22  1  0  0  0  0
 30 26  1  0  0  0  0
 31 33  1  0  0  0  0
 33 32  2  6  0  0  0
 33 34  1  0  0  0  0
 33 36  1  0  0  0  0
 34 35  1  0  0  0  0
 36 37  1  0  0  0  0
 37 38  2  0  0  0  0
 37 44  1  0  0  0  0
 38 40  1  0  0  0  0
 39 38  1  0  0  0  0
 40 42  2  0  0  0  0
 40 41  1  0  0  0  0
 42 43  1  0  0  0  0
 44 42  1  0  0  0  0
M  END
>  <minimizedAffinity>
-4.36586094

>  <minimizedRMSD>
1.19423318

$$$$
