
 OpenBabel03252502503D

 33 35  0  0  0  0  0  0  0  0999 V2000
   44.6530   36.5230   43.7680 C   0  0  0  0  0  0  0  0  0  0  0  0
   44.7380   35.7330   44.9310 C   0  0  0  0  0  0  0  0  0  0  0  0
   45.3480   34.4840   44.8230 C   0  0  0  0  0  0  0  0  0  0  0  0
   45.8270   34.0880   43.6230 N   0  0  0  0  0  0  0  0  0  0  0  0
   45.7290   34.8770   42.5210 C   0  0  0  0  0  0  0  0  0  0  0  0
   45.1440   36.0910   42.5900 N   0  0  0  0  0  0  0  0  0  0  0  0
   44.1880   37.4990   43.8040 H   0  0  0  0  0  0  0  0  0  0  0  0
   44.3370   36.0990   45.8680 H   0  0  0  0  0  0  0  0  0  0  0  0
   48.5330   35.6960   41.9320 Cl  0  0  0  0  0  0  0  0  0  0  0  0
   47.5430   34.7070   40.8850 C   0  0  0  0  0  0  0  0  0  0  0  0
   46.2700   34.3870   41.2470 C   0  0  0  0  0  0  0  0  0  0  0  0
   45.4440   33.5930   40.4280 C   0  0  0  0  0  0  0  0  0  0  0  0
   46.0210   33.1680   39.2420 C   0  0  0  0  0  0  0  0  0  0  0  0
   47.2990   33.4910   38.8850 C   0  0  0  0  0  0  0  0  0  0  0  0
   48.0910   34.2680   39.6950 C   0  0  0  0  0  0  0  0  0  0  0  0
   44.4470   33.3300   40.6890 H   0  0  0  0  0  0  0  0  0  0  0  0
   45.4780   32.5460   38.5270 H   0  0  0  0  0  0  0  0  0  0  0  0
   47.7560   33.1620   37.9570 H   0  0  0  0  0  0  0  0  0  0  0  0
   49.0910   34.5390   39.4460 H   0  0  0  0  0  0  0  0  0  0  0  0
   45.4330   33.6550   46.0420 C   0  0  0  0  0  0  0  0  0  0  0  0
   45.2680   34.2300   46.9620 H   0  0  0  0  0  0  0  0  0  0  0  0
   44.5910   32.9090   45.9690 H   0  0  0  0  0  0  0  0  0  0  0  0
   46.7050   32.8240   46.1080 C   0  0  0  0  0  0  0  0  0  0  0  0
   46.7770   32.1120   45.2850 H   0  0  0  0  0  0  0  0  0  0  0  0
   47.5730   33.5090   46.2190 H   0  0  0  0  0  0  0  0  0  0  0  0
   46.6310   32.0650   47.4080 C   0  0  0  0  0  0  0  0  0  0  0  0
   45.4810   31.8860   48.1800 C   0  0  0  0  0  0  0  0  0  0  0  0
   44.4790   32.2650   47.9610 H   0  0  0  0  0  0  0  0  0  0  0  0
   45.9050   31.1250   49.2730 C   0  0  0  0  0  0  0  0  0  0  0  0
   45.2450   30.8060   50.0800 H   0  0  0  0  0  0  0  0  0  0  0  0
   47.2520   30.8910   49.1080 C   0  0  0  0  0  0  0  0  0  0  0  0
   47.8910   30.3260   49.7870 H   0  0  0  0  0  0  0  0  0  0  0  0
   47.6480   31.4610   47.9950 O   0  0  0  0  0  0  0  0  0  0  0  0
  1  7  1  0  0  0  0
  1  2  1  0  0  0  0
  2  8  1  0  0  0  0
  3  2  2  0  0  0  0
  3 20  1  0  0  0  0
  4  3  1  0  0  0  0
  5  6  1  0  0  0  0
  5  4  2  0  0  0  0
  6  1  2  0  0  0  0
 10 11  1  0  0  0  0
 10  9  1  0  0  0  0
 11  5  1  0  0  0  0
 12 16  1  0  0  0  0
 12 11  2  0  0  0  0
 13 12  1  0  0  0  0
 14 13  2  0  0  0  0
 14 15  1  0  0  0  0
 15 10  2  0  0  0  0
 17 13  1  0  0  0  0
 18 14  1  0  0  0  0
 19 15  1  0  0  0  0
 20 23  1  0  0  0  0
 20 21  1  0  0  0  0
 22 20  1  0  0  0  0
 23 25  1  0  0  0  0
 23 26  1  0  0  0  0
 24 23  1  0  0  0  0
 26 33  1  0  0  0  0
 26 27  2  0  0  0  0
 27 29  1  0  0  0  0
 28 27  1  0  0  0  0
 29 30  1  0  0  0  0
 31 29  2  0  0  0  0
 31 32  1  0  0  0  0
 33 31  1  0  0  0  0
M  END
>  <minimizedAffinity>
-5.68220329

>  <minimizedRMSD>
0.437068373

$$$$
