
     RDKit          3D

 41 44  0  0  0  0  0  0  0  0999 V2000
   44.5905   34.4350   42.9347 C   0  0  0  0  0  0  0  0  0  0  0  0
   44.3206   35.6874   43.5447 C   0  0  0  0  0  0  0  0  0  0  0  0
   44.6427   35.8165   44.8873 C   0  0  0  0  0  0  0  0  0  0  0  0
   45.1910   34.7480   45.5308 N   0  0  0  0  0  0  0  0  0  0  0  0
   45.4337   33.5582   44.9017 C   0  0  0  0  0  0  0  0  0  0  0  0
   45.1277   33.4639   43.6593 N   0  0  0  0  0  0  0  0  0  0  0  0
   46.0205   32.4502   45.6842 C   0  0  1  0  0  0  0  0  0  0  0  0
   46.9569   32.7749   46.8249 C   0  0  0  0  0  0  0  0  0  0  0  0
   45.5337   32.3628   47.0854 C   0  0  1  0  0  0  0  0  0  0  0  0
   44.7472   33.4354   47.6541 N   0  0  0  0  0  0  0  0  0  0  0  0
   44.2434   34.3153   41.5467 C   0  0  0  0  0  0  0  0  0  0  0  0
   45.1203   34.1429   40.6274 O   0  0  0  0  0  0  0  0  0  0  0  0
   41.9900   33.3175   41.3159 C   0  0  0  0  0  0  0  0  0  0  0  0
   42.8021   34.4127   41.3132 C   0  0  0  0  0  0  0  0  0  0  0  0
   42.2241   35.6695   41.0683 C   0  0  0  0  0  0  0  0  0  0  0  0
   40.8810   35.8459   40.8328 C   0  0  0  0  0  0  0  0  0  0  0  0
   40.0731   34.7450   40.8378 C   0  0  0  0  0  0  0  0  0  0  0  0
   40.6257   33.5229   41.0741 C   0  0  0  0  0  0  0  0  0  0  0  0
   42.5438   31.7594   41.6491 S   0  0  0  0  0  0  0  0  0  0  0  0
   42.3866   31.0730   40.2749 O   0  0  0  0  0  0  0  0  0  0  0  0
   41.6662   31.0267   42.6058 O   0  0  0  0  0  0  0  0  0  0  0  0
   43.9025   36.5632   43.1262 H   0  0  0  0  0  0  0  0  0  0  0  0
   44.4864   36.7196   45.4663 H   0  0  0  0  0  0  0  0  0  0  0  0
   46.1450   31.4754   45.1810 H   0  0  0  0  0  0  0  0  0  0  0  0
   47.6845   31.9660   47.0801 H   0  0  0  0  0  0  0  0  0  0  0  0
   47.2959   33.8045   47.0112 H   0  0  0  0  0  0  0  0  0  0  0  0
   45.3106   31.3820   47.5586 H   0  0  0  0  0  0  0  0  0  0  0  0
   45.3198   34.0276   48.2870 H   0  0  0  0  0  0  0  0  0  0  0  0
   43.8395   33.1515   48.0479 H   0  0  0  0  0  0  0  0  0  0  0  0
   42.8005   36.5840   41.0420 H   0  0  0  0  0  0  0  0  0  0  0  0
   40.4485   36.7943   40.6484 H   0  0  0  0  0  0  0  0  0  0  0  0
   39.0100   34.7940   40.6624 H   0  0  0  0  0  0  0  0  0  0  0  0
   39.9643   32.6403   41.0760 H   0  0  0  0  0  0  0  0  0  0  0  0
   44.1594   31.2194   41.6945 C   0  0  0  0  0  0  0  0  0  0  0  0
   44.8768   31.1879   40.4699 C   0  0  0  0  0  0  0  0  0  0  0  0
   44.6093   31.4452   39.4349 H   0  0  0  0  0  0  0  0  0  0  0  0
   46.1321   30.7349   40.7421 C   0  0  0  0  0  0  0  0  0  0  0  0
   46.9657   30.5747   40.0674 H   0  0  0  0  0  0  0  0  0  0  0  0
   46.2043   30.4930   42.0697 C   0  0  0  0  0  0  0  0  0  0  0  0
   46.9456   30.1410   42.7429 H   0  0  0  0  0  0  0  0  0  0  0  0
   45.0470   30.7878   42.5679 O   0  0  0  0  0  0  0  0  0  0  0  0
  1  2  2  0
  1  6  1  0
  2  3  1  0
  3  4  2  0
  5  4  1  0
  5  7  1  0
  6  5  2  0
  7  8  1  0
  7  9  1  0
  8  9  1  0
  9 10  1  0
 11  1  1  0
 12 11  2  0
 13 19  1  0
 14 13  1  0
 14 11  1  0
 15 14  2  0
 16 17  2  0
 16 15  1  0
 17 18  1  0
 18 13  2  0
 19 21  2  0
 20 19  2  0
  2 22  1  0
  3 23  1  0
  7 24  1  6
  8 25  1  0
  8 26  1  0
  9 27  1  1
 10 28  1  0
 10 29  1  0
 15 30  1  0
 16 31  1  0
 17 32  1  0
 18 33  1  0
 34 35  2  0
 35 36  1  0
 35 37  1  0
 37 38  1  0
 37 39  2  0
 39 40  1  0
 39 41  1  0
 41 34  1  0
 19 34  1  0
M  ISO  8  22  14  23  14  24  13  25  13  26  13  27  13  28   5  29   5
M  ISO  7  30  14  31  14  32  14  33  14  36  16  38  16  40  14
M  END
>  <DihAtoms>  (1) 
12,18,33,34

>  <DihDeg>  (1) 
127.25264440878806

$$$$
