
 OpenBabel03242512103D

 32 34  0  0  1  0  0  0  0  0999 V2000
   41.0450   31.7120   39.1400 C   0  0  1  0  0  0  0  0  0  0  0  0
   40.9580   32.6670   40.3940 C   0  0  0  0  0  0  0  0  0  0  0  0
   39.7770   32.2270   39.6410 C   0  0  2  0  0  0  0  0  0  0  0  0
   41.3500   30.6860   39.4110 H   0  0  0  0  0  0  0  0  0  0  0  0
   41.3970   33.6780   40.2660 H   0  0  0  0  0  0  0  0  0  0  0  0
   41.2530   32.1810   41.3510 H   0  0  0  0  0  0  0  0  0  0  0  0
   39.2580   32.8420   38.8930 H   0  0  0  0  0  0  0  0  0  0  0  0
   41.7280   32.3710   37.9890 C   0  0  0  0  0  0  0  0  0  0  0  0
   41.3530   33.4950   37.6790 O   0  0  0  0  0  0  0  0  0  0  0  0
   44.0620   32.2300   37.2610 C   0  0  0  0  0  0  0  0  0  0  0  0
   42.7840   31.7830   37.2320 C   0  0  0  0  0  0  0  0  0  0  0  0
   42.5030   30.6640   36.3980 C   0  0  0  0  0  0  0  0  0  0  0  0
   43.4880   30.0880   35.6710 N   0  0  0  0  0  0  0  0  0  0  0  0
   44.7600   30.5810   35.7390 C   0  0  0  0  0  0  0  0  0  0  0  0
   45.0310   31.6170   36.5080 N   0  0  0  0  0  0  0  0  0  0  0  0
   44.3210   33.0780   37.8810 H   0  0  0  0  0  0  0  0  0  0  0  0
   41.5470   30.2170   36.2900 H   0  0  0  0  0  0  0  0  0  0  0  0
   45.6230   30.2060   35.2060 H   0  0  0  0  0  0  0  0  0  0  0  0
   38.9140   31.4150   40.3650 O   0  0  0  0  0  0  0  0  0  0  0  0
   37.0350   31.4600   38.5980 O   0  0  0  0  0  0  0  0  0  0  0  0
   37.3360   31.9410   40.0040 P   0  0  2  0  0  0  0  0  0  0  0  0
   37.1460   33.5880   40.1600 O   0  0  0  0  0  0  0  0  0  0  0  0
   37.0560   33.9530   39.2450 H   0  0  0  0  0  0  0  0  0  0  0  0
   36.2620   31.0750   41.0220 O   0  0  0  0  0  0  0  0  0  0  0  0
   36.5810   29.8390   41.5700 C   0  0  0  0  0  0  0  0  0  0  0  0
   36.1250   28.5850   41.1600 C   0  0  0  0  0  0  0  0  0  0  0  0
   35.4340   28.3820   40.3290 H   0  0  0  0  0  0  0  0  0  0  0  0
   36.6660   27.5900   41.9500 C   0  0  0  0  0  0  0  0  0  0  0  0
   36.5320   26.5210   41.9160 H   0  0  0  0  0  0  0  0  0  0  0  0
   37.4530   28.3240   42.8330 C   0  0  0  0  0  0  0  0  0  0  0  0
   38.0710   27.9120   43.6480 H   0  0  0  0  0  0  0  0  0  0  0  0
   37.3870   29.6080   42.5930 O   0  0  0  0  0  0  0  0  0  0  0  0
  1  4  1  1  0  0  0
  1  3  1  0  0  0  0
  1  2  1  0  0  0  0
  2  6  1  0  0  0  0
  3  7  1  6  0  0  0
  3 19  1  0  0  0  0
  3  2  1  0  0  0  0
  5  2  1  0  0  0  0
  8  1  1  0  0  0  0
  9  8  2  0  0  0  0
 10 16  1  0  0  0  0
 11 10  1  0  0  0  0
 11  8  1  0  0  0  0
 12 11  2  0  0  0  0
 13 14  2  0  0  0  0
 13 12  1  0  0  0  0
 14 15  1  0  0  0  0
 15 10  2  0  0  0  0
 17 12  1  0  0  0  0
 18 14  1  0  0  0  0
 21 20  2  6  0  0  0
 21 22  1  0  0  0  0
 21 19  1  0  0  0  0
 21 24  1  0  0  0  0
 23 22  1  0  0  0  0
 24 25  1  0  0  0  0
 25 32  1  0  0  0  0
 26 25  2  0  0  0  0
 26 28  1  0  0  0  0
 27 26  1  0  0  0  0
 28 30  2  0  0  0  0
 29 28  1  0  0  0  0
 30 31  1  0  0  0  0
 32 30  1  0  0  0  0
M  END
>  <minimizedAffinity>
-4.9859643

$$$$

 OpenBabel03242512103D

 32 34  0  0  1  0  0  0  0  0999 V2000
   38.7550   31.3270   38.7880 C   0  0  1  0  0  0  0  0  0  0  0  0
   39.0270   30.2390   39.8980 C   0  0  0  0  0  0  0  0  0  0  0  0
   37.6900   30.7690   39.6110 C   0  0  2  0  0  0  0  0  0  0  0  0
   38.9030   30.9350   37.7660 H   0  0  0  0  0  0  0  0  0  0  0  0
   39.6210   30.5750   40.7740 H   0  0  0  0  0  0  0  0  0  0  0  0
   39.3650   29.2580   39.4940 H   0  0  0  0  0  0  0  0  0  0  0  0
   37.1880   31.5400   40.2130 H   0  0  0  0  0  0  0  0  0  0  0  0
   39.3720   32.6400   39.1360 C   0  0  0  0  0  0  0  0  0  0  0  0
   38.7040   33.4170   39.8070 O   0  0  0  0  0  0  0  0  0  0  0  0
   41.2080   32.7950   37.5230 C   0  0  0  0  0  0  0  0  0  0  0  0
   40.6810   33.0460   38.7450 C   0  0  0  0  0  0  0  0  0  0  0  0
   41.4950   33.7580   39.6710 C   0  0  0  0  0  0  0  0  0  0  0  0
   42.7400   34.1560   39.3230 N   0  0  0  0  0  0  0  0  0  0  0  0
   43.2200   33.8750   38.0760 C   0  0  0  0  0  0  0  0  0  0  0  0
   42.4750   33.2170   37.2100 N   0  0  0  0  0  0  0  0  0  0  0  0
   40.6250   32.2570   36.7860 H   0  0  0  0  0  0  0  0  0  0  0  0
   41.2000   34.0200   40.6560 H   0  0  0  0  0  0  0  0  0  0  0  0
   44.1940   34.1410   37.6880 H   0  0  0  0  0  0  0  0  0  0  0  0
   36.8070   29.8300   39.0940 O   0  0  0  0  0  0  0  0  0  0  0  0
   34.3040   29.3730   39.5250 O   0  0  0  0  0  0  0  0  0  0  0  0
   35.6050   29.5910   40.2750 P   0  0  2  0  0  0  0  0  0  0  0  0
   35.5010   30.8470   41.3630 O   0  0  0  0  0  0  0  0  0  0  0  0
   34.6590   31.3280   41.1650 H   0  0  0  0  0  0  0  0  0  0  0  0
   35.9390   28.0990   41.0520 O   0  0  0  0  0  0  0  0  0  0  0  0
   36.9120   27.9670   42.0340 C   0  0  0  0  0  0  0  0  0  0  0  0
   37.6920   26.8430   42.3100 C   0  0  0  0  0  0  0  0  0  0  0  0
   37.6540   25.8770   41.7860 H   0  0  0  0  0  0  0  0  0  0  0  0
   38.5520   27.0950   43.3620 C   0  0  0  0  0  0  0  0  0  0  0  0
   39.2840   26.4600   43.8330 H   0  0  0  0  0  0  0  0  0  0  0  0
   38.2340   28.4130   43.6790 C   0  0  0  0  0  0  0  0  0  0  0  0
   38.6950   29.0170   44.4770 H   0  0  0  0  0  0  0  0  0  0  0  0
   37.2930   28.8870   42.9030 O   0  0  0  0  0  0  0  0  0  0  0  0
  1  4  1  6  0  0  0
  1  8  1  0  0  0  0
  1  3  1  0  0  0  0
  1  2  1  0  0  0  0
  2  5  1  0  0  0  0
  3  2  1  0  0  0  0
  3  7  1  1  0  0  0
  6  2  1  0  0  0  0
  8  9  2  0  0  0  0
 10 11  1  0  0  0  0
 11  8  1  0  0  0  0
 11 12  2  0  0  0  0
 12 17  1  0  0  0  0
 13 12  1  0  0  0  0
 14 13  2  0  0  0  0
 15 10  2  0  0  0  0
 15 14  1  0  0  0  0
 16 10  1  0  0  0  0
 18 14  1  0  0  0  0
 19  3  1  0  0  0  0
 19 21  1  0  0  0  0
 21 20  2  6  0  0  0
 21 24  1  0  0  0  0
 21 22  1  0  0  0  0
 23 22  1  0  0  0  0
 24 25  1  0  0  0  0
 25 26  2  0  0  0  0
 25 32  1  0  0  0  0
 26 28  1  0  0  0  0
 27 26  1  0  0  0  0
 28 30  2  0  0  0  0
 28 29  1  0  0  0  0
 30 31  1  0  0  0  0
 32 30  1  0  0  0  0
M  END
>  <minimizedAffinity>
-4.94101048

$$$$

 OpenBabel03242512103D

 32 34  0  0  1  0  0  0  0  0999 V2000
   38.8000   27.4770   43.2870 C   0  0  1  0  0  0  0  0  0  0  0  0
   39.8470   28.4110   42.5650 C   0  0  0  0  0  0  0  0  0  0  0  0
   38.4220   28.3900   42.2150 C   0  0  2  0  0  0  0  0  0  0  0  0
   38.6170   27.7760   44.3340 H   0  0  0  0  0  0  0  0  0  0  0  0
   40.6140   27.8970   41.9490 H   0  0  0  0  0  0  0  0  0  0  0  0
   40.2740   29.2010   43.2230 H   0  0  0  0  0  0  0  0  0  0  0  0
   38.0070   27.8570   41.3480 H   0  0  0  0  0  0  0  0  0  0  0  0
   39.0530   26.0350   42.9990 C   0  0  0  0  0  0  0  0  0  0  0  0
   39.8970   25.4640   43.6780 O   0  0  0  0  0  0  0  0  0  0  0  0
   37.0930   24.8720   42.1020 C   0  0  0  0  0  0  0  0  0  0  0  0
   38.3790   25.2820   41.9930 C   0  0  0  0  0  0  0  0  0  0  0  0
   39.0750   24.9340   40.8000 C   0  0  0  0  0  0  0  0  0  0  0  0
   38.4580   24.2220   39.8310 N   0  0  0  0  0  0  0  0  0  0  0  0
   37.1590   23.8350   39.9940 C   0  0  0  0  0  0  0  0  0  0  0  0
   36.5040   24.1520   41.0940 N   0  0  0  0  0  0  0  0  0  0  0  0
   36.5250   25.1150   42.9910 H   0  0  0  0  0  0  0  0  0  0  0  0
   40.0820   25.1970   40.5910 H   0  0  0  0  0  0  0  0  0  0  0  0
   36.5650   23.2650   39.2920 H   0  0  0  0  0  0  0  0  0  0  0  0
   37.7530   29.5750   42.4910 O   0  0  0  0  0  0  0  0  0  0  0  0
   37.6840   30.2400   39.9990 O   0  0  0  0  0  0  0  0  0  0  0  0
   36.7570   29.8940   41.1480 P   0  0  2  0  0  0  0  0  0  0  0  0
   35.6370   31.0910   41.4370 O   0  0  0  0  0  0  0  0  0  0  0  0
   35.9250   31.8830   40.9170 H   0  0  0  0  0  0  0  0  0  0  0  0
   36.0110   28.4150   40.7020 O   0  0  0  0  0  0  0  0  0  0  0  0
   35.5450   28.1690   39.4180 C   0  0  0  0  0  0  0  0  0  0  0  0
   34.5640   28.8750   38.7200 C   0  0  0  0  0  0  0  0  0  0  0  0
   34.0020   29.7470   39.0860 H   0  0  0  0  0  0  0  0  0  0  0  0
   34.3740   28.3300   37.4650 C   0  0  0  0  0  0  0  0  0  0  0  0
   33.7030   28.6190   36.6720 H   0  0  0  0  0  0  0  0  0  0  0  0
   35.2870   27.2790   37.4690 C   0  0  0  0  0  0  0  0  0  0  0  0
   35.4650   26.5710   36.6440 H   0  0  0  0  0  0  0  0  0  0  0  0
   35.9430   27.2100   38.5980 O   0  0  0  0  0  0  0  0  0  0  0  0
  1  4  1  1  0  0  0
  2  6  1  0  0  0  0
  2  1  1  0  0  0  0
  3  7  1  6  0  0  0
  3 19  1  0  0  0  0
  3  2  1  0  0  0  0
  3  1  1  0  0  0  0
  5  2  1  0  0  0  0
  8  1  1  0  0  0  0
  8  9  2  0  0  0  0
 10 16  1  0  0  0  0
 11 10  1  0  0  0  0
 11  8  1  0  0  0  0
 12 11  2  0  0  0  0
 13 14  2  0  0  0  0
 13 12  1  0  0  0  0
 14 15  1  0  0  0  0
 15 10  2  0  0  0  0
 17 12  1  0  0  0  0
 18 14  1  0  0  0  0
 21 20  2  6  0  0  0
 21 22  1  0  0  0  0
 21 19  1  0  0  0  0
 23 22  1  0  0  0  0
 24 21  1  0  0  0  0
 25 24  1  0  0  0  0
 26 27  1  0  0  0  0
 26 25  2  0  0  0  0
 28 30  2  0  0  0  0
 28 26  1  0  0  0  0
 29 28  1  0  0  0  0
 30 32  1  0  0  0  0
 31 30  1  0  0  0  0
 32 25  1  0  0  0  0
M  END
>  <minimizedAffinity>
-4.91783953

$$$$

 OpenBabel03242512103D

 32 34  0  0  1  0  0  0  0  0999 V2000
   36.3270   29.8920   39.2330 C   0  0  1  0  0  0  0  0  0  0  0  0
   36.9520   28.4470   39.1270 C   0  0  0  0  0  0  0  0  0  0  0  0
   36.9340   29.2190   40.3740 C   0  0  2  0  0  0  0  0  0  0  0  0
   35.2270   29.8860   39.1320 H   0  0  0  0  0  0  0  0  0  0  0  0
   37.8640   28.3570   38.5010 H   0  0  0  0  0  0  0  0  0  0  0  0
   36.2050   27.6470   38.9250 H   0  0  0  0  0  0  0  0  0  0  0  0
   37.7960   29.7750   40.7690 H   0  0  0  0  0  0  0  0  0  0  0  0
   37.1030   30.8910   38.4430 C   0  0  0  0  0  0  0  0  0  0  0  0
   37.0570   30.8040   37.2220 O   0  0  0  0  0  0  0  0  0  0  0  0
   37.3590   33.0390   39.5910 C   0  0  0  0  0  0  0  0  0  0  0  0
   37.8890   31.9360   39.0110 C   0  0  0  0  0  0  0  0  0  0  0  0
   39.3090   31.8340   38.9820 C   0  0  0  0  0  0  0  0  0  0  0  0
   40.0760   32.8110   39.5160 N   0  0  0  0  0  0  0  0  0  0  0  0
   39.4870   33.9020   40.0880 C   0  0  0  0  0  0  0  0  0  0  0  0
   38.1730   34.0070   40.1220 N   0  0  0  0  0  0  0  0  0  0  0  0
   36.2840   33.1590   39.6360 H   0  0  0  0  0  0  0  0  0  0  0  0
   39.8470   31.0220   38.5620 H   0  0  0  0  0  0  0  0  0  0  0  0
   39.9950   34.7420   40.5440 H   0  0  0  0  0  0  0  0  0  0  0  0
   36.1480   28.6620   41.3740 O   0  0  0  0  0  0  0  0  0  0  0  0
   36.3690   27.4800   43.6570 O   0  0  0  0  0  0  0  0  0  0  0  0
   37.2010   28.2420   42.6440 P   0  0  2  0  0  0  0  0  0  0  0  0
   37.9660   29.5590   43.3190 O   0  0  0  0  0  0  0  0  0  0  0  0
   37.5680   29.6910   44.2150 H   0  0  0  0  0  0  0  0  0  0  0  0
   38.3220   27.1020   42.0230 O   0  0  0  0  0  0  0  0  0  0  0  0
   37.9530   25.8180   41.6440 C   0  0  0  0  0  0  0  0  0  0  0  0
   38.7550   24.6770   41.6170 C   0  0  0  0  0  0  0  0  0  0  0  0
   39.8170   24.6190   41.8950 H   0  0  0  0  0  0  0  0  0  0  0  0
   38.0300   23.5840   41.1830 C   0  0  0  0  0  0  0  0  0  0  0  0
   38.3290   22.5580   41.0420 H   0  0  0  0  0  0  0  0  0  0  0  0
   36.7750   24.1450   40.9610 C   0  0  0  0  0  0  0  0  0  0  0  0
   35.8810   23.6110   40.6020 H   0  0  0  0  0  0  0  0  0  0  0  0
   36.7590   25.4240   41.2340 O   0  0  0  0  0  0  0  0  0  0  0  0
  1  4  1  6  0  0  0
  1  3  1  0  0  0  0
  2  1  1  0  0  0  0
  2  3  1  0  0  0  0
  3  7  1  1  0  0  0
  3 19  1  0  0  0  0
  5  2  1  0  0  0  0
  6  2  1  0  0  0  0
  8 11  1  0  0  0  0
  8  1  1  0  0  0  0
  9  8  2  0  0  0  0
 10 16  1  0  0  0  0
 10 15  1  0  0  0  0
 11 10  2  0  0  0  0
 12 11  1  0  0  0  0
 12 13  2  0  0  0  0
 13 14  1  0  0  0  0
 14 15  2  0  0  0  0
 14 18  1  0  0  0  0
 17 12  1  0  0  0  0
 19 21  1  0  0  0  0
 21 22  1  0  0  0  0
 21 20  2  1  0  0  0
 22 23  1  0  0  0  0
 24 21  1  0  0  0  0
 25 24  1  0  0  0  0
 26 25  2  0  0  0  0
 26 27  1  0  0  0  0
 28 26  1  0  0  0  0
 29 28  1  0  0  0  0
 30 28  2  0  0  0  0
 30 32  1  0  0  0  0
 31 30  1  0  0  0  0
 32 25  1  0  0  0  0
M  END
>  <minimizedAffinity>
-4.7876153

$$$$

 OpenBabel03242512103D

 32 34  0  0  1  0  0  0  0  0999 V2000
   37.3650   32.4450   39.2580 C   0  0  1  0  0  0  0  0  0  0  0  0
   37.6760   32.0910   37.7520 C   0  0  0  0  0  0  0  0  0  0  0  0
   37.3260   31.0780   38.7530 C   0  0  2  0  0  0  0  0  0  0  0  0
   36.4160   32.9980   39.3750 H   0  0  0  0  0  0  0  0  0  0  0  0
   38.7220   32.2570   37.4190 H   0  0  0  0  0  0  0  0  0  0  0  0
   36.9230   32.4840   37.0320 H   0  0  0  0  0  0  0  0  0  0  0  0
   38.0570   30.4320   39.2590 H   0  0  0  0  0  0  0  0  0  0  0  0
   38.5730   32.9550   39.9680 C   0  0  0  0  0  0  0  0  0  0  0  0
   38.7840   34.1610   39.9280 O   0  0  0  0  0  0  0  0  0  0  0  0
   40.8080   32.0460   40.3850 C   0  0  0  0  0  0  0  0  0  0  0  0
   39.4920   32.1380   40.6890 C   0  0  0  0  0  0  0  0  0  0  0  0
   39.0230   31.3700   41.7930 C   0  0  0  0  0  0  0  0  0  0  0  0
   39.8750   30.5880   42.4940 N   0  0  0  0  0  0  0  0  0  0  0  0
   41.1930   30.5340   42.1420 C   0  0  0  0  0  0  0  0  0  0  0  0
   41.6390   31.2400   41.1220 N   0  0  0  0  0  0  0  0  0  0  0  0
   41.2090   32.6110   39.5530 H   0  0  0  0  0  0  0  0  0  0  0  0
   38.0190   31.3570   42.1350 H   0  0  0  0  0  0  0  0  0  0  0  0
   41.9630   29.9470   42.6250 H   0  0  0  0  0  0  0  0  0  0  0  0
   36.1160   30.4400   38.5150 O   0  0  0  0  0  0  0  0  0  0  0  0
   34.3930   28.9160   39.6850 O   0  0  0  0  0  0  0  0  0  0  0  0
   35.6870   29.6570   39.9650 P   0  0  2  0  0  0  0  0  0  0  0  0
   35.5490   30.7010   41.2540 O   0  0  0  0  0  0  0  0  0  0  0  0
   34.5840   30.7700   41.4630 H   0  0  0  0  0  0  0  0  0  0  0  0
   36.8570   28.4370   40.2530 O   0  0  0  0  0  0  0  0  0  0  0  0
   37.2710   28.0820   41.5300 C   0  0  0  0  0  0  0  0  0  0  0  0
   38.3630   27.2860   41.8790 C   0  0  0  0  0  0  0  0  0  0  0  0
   39.0720   26.8110   41.1850 H   0  0  0  0  0  0  0  0  0  0  0  0
   38.4540   27.1600   43.2510 C   0  0  0  0  0  0  0  0  0  0  0  0
   39.1650   26.6240   43.8580 H   0  0  0  0  0  0  0  0  0  0  0  0
   37.3670   27.9180   43.6790 C   0  0  0  0  0  0  0  0  0  0  0  0
   37.0650   28.0860   44.7250 H   0  0  0  0  0  0  0  0  0  0  0  0
   36.7080   28.4340   42.6740 O   0  0  0  0  0  0  0  0  0  0  0  0
  1  4  1  1  0  0  0
  1  8  1  0  0  0  0
  2  3  1  0  0  0  0
  2  1  1  0  0  0  0
  3  1  1  0  0  0  0
  3  7  1  1  0  0  0
  5  2  1  0  0  0  0
  6  2  1  0  0  0  0
  8 11  1  0  0  0  0
  9  8  2  0  0  0  0
 10 11  2  0  0  0  0
 10 15  1  0  0  0  0
 11 12  1  0  0  0  0
 12 17  1  0  0  0  0
 12 13  2  0  0  0  0
 14 13  1  0  0  0  0
 14 18  1  0  0  0  0
 15 14  2  0  0  0  0
 16 10  1  0  0  0  0
 19  3  1  0  0  0  0
 19 21  1  0  0  0  0
 21 20  2  6  0  0  0
 21 24  1  0  0  0  0
 21 22  1  0  0  0  0
 22 23  1  0  0  0  0
 24 25  1  0  0  0  0
 25 26  2  0  0  0  0
 25 32  1  0  0  0  0
 26 28  1  0  0  0  0
 27 26  1  0  0  0  0
 28 30  2  0  0  0  0
 28 29  1  0  0  0  0
 30 31  1  0  0  0  0
 32 30  1  0  0  0  0
M  END
>  <minimizedAffinity>
-4.76298237

$$$$

 OpenBabel03242512103D

 32 34  0  0  1  0  0  0  0  0999 V2000
   37.3860   28.8590   41.1630 C   0  0  1  0  0  0  0  0  0  0  0  0
   35.8140   28.8420   41.3020 C   0  0  0  0  0  0  0  0  0  0  0  0
   36.5930   30.0810   41.1990 C   0  0  2  0  0  0  0  0  0  0  0  0
   37.7290   28.4730   40.1870 H   0  0  0  0  0  0  0  0  0  0  0  0
   35.4150   28.4730   42.2700 H   0  0  0  0  0  0  0  0  0  0  0  0
   35.2890   28.4090   40.4210 H   0  0  0  0  0  0  0  0  0  0  0  0
   36.8570   30.7180   42.0560 H   0  0  0  0  0  0  0  0  0  0  0  0
   38.0560   28.3550   42.3970 C   0  0  0  0  0  0  0  0  0  0  0  0
   38.1770   29.1360   43.3320 O   0  0  0  0  0  0  0  0  0  0  0  0
   38.1090   25.9680   41.8510 C   0  0  0  0  0  0  0  0  0  0  0  0
   38.5600   27.0310   42.5590 C   0  0  0  0  0  0  0  0  0  0  0  0
   39.5940   26.7900   43.5080 C   0  0  0  0  0  0  0  0  0  0  0  0
   40.0890   25.5440   43.6800 N   0  0  0  0  0  0  0  0  0  0  0  0
   39.5960   24.5090   42.9380 C   0  0  0  0  0  0  0  0  0  0  0  0
   38.6390   24.7190   42.0560 N   0  0  0  0  0  0  0  0  0  0  0  0
   37.3240   26.1040   41.1180 H   0  0  0  0  0  0  0  0  0  0  0  0
   40.0350   27.5360   44.1220 H   0  0  0  0  0  0  0  0  0  0  0  0
   39.9120   23.4750   42.9880 H   0  0  0  0  0  0  0  0  0  0  0  0
   36.3510   30.8080   40.0410 O   0  0  0  0  0  0  0  0  0  0  0  0
   38.4080   31.8440   41.2050 O   0  0  0  0  0  0  0  0  0  0  0  0
   37.5180   32.0470   39.9930 P   0  0  2  0  0  0  0  0  0  0  0  0
   36.8500   33.5710   39.9490 O   0  0  0  0  0  0  0  0  0  0  0  0
   37.0190   33.9820   40.8340 H   0  0  0  0  0  0  0  0  0  0  0  0
   38.5230   31.7500   38.6350 O   0  0  0  0  0  0  0  0  0  0  0  0
   38.7270   30.4780   38.1170 C   0  0  0  0  0  0  0  0  0  0  0  0
   37.9410   29.8070   37.1800 C   0  0  0  0  0  0  0  0  0  0  0  0
   37.0260   30.1880   36.7020 H   0  0  0  0  0  0  0  0  0  0  0  0
   38.4660   28.5580   36.9100 C   0  0  0  0  0  0  0  0  0  0  0  0
   38.1200   27.7830   36.2460 H   0  0  0  0  0  0  0  0  0  0  0  0
   39.5890   28.5390   37.7330 C   0  0  0  0  0  0  0  0  0  0  0  0
   40.3080   27.7090   37.8290 H   0  0  0  0  0  0  0  0  0  0  0  0
   39.7140   29.6490   38.4110 O   0  0  0  0  0  0  0  0  0  0  0  0
  1  4  1  6  0  0  0
  1  3  1  0  0  0  0
  1  2  1  0  0  0  0
  1  8  1  0  0  0  0
  2  5  1  0  0  0  0
  3  2  1  0  0  0  0
  3  7  1  1  0  0  0
  6  2  1  0  0  0  0
  8 11  1  0  0  0  0
  8  9  2  0  0  0  0
 10 15  2  0  0  0  0
 10 11  1  0  0  0  0
 11 12  2  0  0  0  0
 12 13  1  0  0  0  0
 12 17  1  0  0  0  0
 14 18  1  0  0  0  0
 14 13  2  0  0  0  0
 15 14  1  0  0  0  0
 16 10  1  0  0  0  0
 19  3  1  0  0  0  0
 21 19  1  0  0  0  0
 21 20  2  1  0  0  0
 22 21  1  0  0  0  0
 22 23  1  0  0  0  0
 24 21  1  0  0  0  0
 25 32  1  0  0  0  0
 25 24  1  0  0  0  0
 26 25  2  0  0  0  0
 27 26  1  0  0  0  0
 28 26  1  0  0  0  0
 28 30  2  0  0  0  0
 29 28  1  0  0  0  0
 30 31  1  0  0  0  0
 30 32  1  0  0  0  0
M  END
>  <minimizedAffinity>
-4.71780777

$$$$

 OpenBabel03242512103D

 32 34  0  0  1  0  0  0  0  0999 V2000
   37.0930   26.6620   42.5540 C   0  0  1  0  0  0  0  0  0  0  0  0
   38.4580   27.1360   43.1890 C   0  0  0  0  0  0  0  0  0  0  0  0
   37.7200   27.9300   42.2000 C   0  0  2  0  0  0  0  0  0  0  0  0
   36.2650   26.6600   43.2840 H   0  0  0  0  0  0  0  0  0  0  0  0
   39.3540   26.5390   42.9180 H   0  0  0  0  0  0  0  0  0  0  0  0
   38.3950   27.3570   44.2780 H   0  0  0  0  0  0  0  0  0  0  0  0
   37.9760   27.9780   41.1320 H   0  0  0  0  0  0  0  0  0  0  0  0
   37.2740   25.4610   41.6870 C   0  0  0  0  0  0  0  0  0  0  0  0
   37.3150   24.3680   42.2380 O   0  0  0  0  0  0  0  0  0  0  0  0
   36.3370   25.4770   39.4240 C   0  0  0  0  0  0  0  0  0  0  0  0
   37.3970   25.5010   40.2670 C   0  0  0  0  0  0  0  0  0  0  0  0
   38.6930   25.5730   39.6820 C   0  0  0  0  0  0  0  0  0  0  0  0
   38.8360   25.6130   38.3380 N   0  0  0  0  0  0  0  0  0  0  0  0
   37.7320   25.5870   37.5360 C   0  0  0  0  0  0  0  0  0  0  0  0
   36.5270   25.5210   38.0660 N   0  0  0  0  0  0  0  0  0  0  0  0
   35.3330   25.4240   39.8240 H   0  0  0  0  0  0  0  0  0  0  0  0
   39.6010   25.6010   40.2310 H   0  0  0  0  0  0  0  0  0  0  0  0
   37.7230   25.6130   36.4540 H   0  0  0  0  0  0  0  0  0  0  0  0
   37.2260   29.1310   42.6920 O   0  0  0  0  0  0  0  0  0  0  0  0
   38.2140   31.0480   41.2760 O   0  0  0  0  0  0  0  0  0  0  0  0
   36.9950   30.1480   41.3470 P   0  0  2  0  0  0  0  0  0  0  0  0
   35.5750   31.0150   41.4200 O   0  0  0  0  0  0  0  0  0  0  0  0
   35.8250   31.9560   41.5960 H   0  0  0  0  0  0  0  0  0  0  0  0
   37.0710   29.1650   39.9430 O   0  0  0  0  0  0  0  0  0  0  0  0
   36.0140   29.0480   39.0510 C   0  0  0  0  0  0  0  0  0  0  0  0
   36.0700   29.0780   37.6570 C   0  0  0  0  0  0  0  0  0  0  0  0
   36.9750   29.2000   37.0440 H   0  0  0  0  0  0  0  0  0  0  0  0
   34.8080   28.9280   37.1160 C   0  0  0  0  0  0  0  0  0  0  0  0
   34.4870   28.9060   36.0880 H   0  0  0  0  0  0  0  0  0  0  0  0
   34.0210   28.8120   38.2590 C   0  0  0  0  0  0  0  0  0  0  0  0
   32.9280   28.6750   38.2820 H   0  0  0  0  0  0  0  0  0  0  0  0
   34.7360   28.8830   39.3510 O   0  0  0  0  0  0  0  0  0  0  0  0
  1  2  1  0  0  0  0
  1  4  1  1  0  0  0
  2  6  1  0  0  0  0
  3  7  1  6  0  0  0
  3  1  1  0  0  0  0
  3 19  1  0  0  0  0
  3  2  1  0  0  0  0
  5  2  1  0  0  0  0
  8  9  2  0  0  0  0
  8  1  1  0  0  0  0
 10 16  1  0  0  0  0
 10 11  1  0  0  0  0
 11  8  1  0  0  0  0
 12 17  1  0  0  0  0
 12 11  2  0  0  0  0
 13 12  1  0  0  0  0
 14 15  1  0  0  0  0
 14 13  2  0  0  0  0
 15 10  2  0  0  0  0
 18 14  1  0  0  0  0
 21 20  2  6  0  0  0
 21 22  1  0  0  0  0
 21 19  1  0  0  0  0
 22 23  1  0  0  0  0
 24 21  1  0  0  0  0
 25 32  1  0  0  0  0
 25 24  1  0  0  0  0
 26 25  2  0  0  0  0
 27 26  1  0  0  0  0
 28 26  1  0  0  0  0
 28 30  2  0  0  0  0
 29 28  1  0  0  0  0
 30 31  1  0  0  0  0
 30 32  1  0  0  0  0
M  END
>  <minimizedAffinity>
-4.69470739

$$$$

 OpenBabel03242512103D

 32 34  0  0  1  0  0  0  0  0999 V2000
   37.6460   29.5000   42.4790 C   0  0  1  0  0  0  0  0  0  0  0  0
   39.1640   29.0890   42.3470 C   0  0  0  0  0  0  0  0  0  0  0  0
   38.5380   30.1120   41.5020 C   0  0  2  0  0  0  0  0  0  0  0  0
   37.4340   30.0380   43.4200 H   0  0  0  0  0  0  0  0  0  0  0  0
   39.3580   28.0590   41.9810 H   0  0  0  0  0  0  0  0  0  0  0  0
   39.7830   29.3610   43.2310 H   0  0  0  0  0  0  0  0  0  0  0  0
   38.1990   29.9400   40.4710 H   0  0  0  0  0  0  0  0  0  0  0  0
   36.7340   28.3890   42.0800 C   0  0  0  0  0  0  0  0  0  0  0  0
   36.4480   27.5590   42.9330 O   0  0  0  0  0  0  0  0  0  0  0  0
   36.5590   27.2670   39.9100 C   0  0  0  0  0  0  0  0  0  0  0  0
   36.1740   28.2330   40.7780 C   0  0  0  0  0  0  0  0  0  0  0  0
   35.1530   29.1260   40.3470 C   0  0  0  0  0  0  0  0  0  0  0  0
   34.6050   28.9970   39.1170 N   0  0  0  0  0  0  0  0  0  0  0  0
   35.0320   28.0040   38.2840 C   0  0  0  0  0  0  0  0  0  0  0  0
   35.9770   27.1710   38.6710 N   0  0  0  0  0  0  0  0  0  0  0  0
   37.3330   26.5650   40.1950 H   0  0  0  0  0  0  0  0  0  0  0  0
   34.7610   29.9200   40.9310 H   0  0  0  0  0  0  0  0  0  0  0  0
   34.6700   27.8050   37.2830 H   0  0  0  0  0  0  0  0  0  0  0  0
   39.0390   31.3930   41.6980 O   0  0  0  0  0  0  0  0  0  0  0  0
   39.2100   33.6510   40.4610 O   0  0  0  0  0  0  0  0  0  0  0  0
   38.4250   32.3530   40.4330 P   0  0  2  0  0  0  0  0  0  0  0  0
   36.7830   32.6070   40.5450 O   0  0  0  0  0  0  0  0  0  0  0  0
   36.6580   33.5550   40.8010 H   0  0  0  0  0  0  0  0  0  0  0  0
   38.8550   31.5920   38.9580 O   0  0  0  0  0  0  0  0  0  0  0  0
   40.1310   31.6710   38.4180 C   0  0  0  0  0  0  0  0  0  0  0  0
   41.2730   30.9820   38.8310 C   0  0  0  0  0  0  0  0  0  0  0  0
   41.3360   30.2620   39.6600 H   0  0  0  0  0  0  0  0  0  0  0  0
   42.3570   31.3240   38.0460 C   0  0  0  0  0  0  0  0  0  0  0  0
   43.3800   30.9880   38.0850 H   0  0  0  0  0  0  0  0  0  0  0  0
   41.7910   32.2390   37.1630 C   0  0  0  0  0  0  0  0  0  0  0  0
   42.3180   32.7680   36.3520 H   0  0  0  0  0  0  0  0  0  0  0  0
   40.5170   32.4180   37.3980 O   0  0  0  0  0  0  0  0  0  0  0  0
  1  4  1  1  0  0  0
  2  1  1  0  0  0  0
  2  6  1  0  0  0  0
  3  7  1  6  0  0  0
  3 19  1  0  0  0  0
  3  2  1  0  0  0  0
  3  1  1  0  0  0  0
  5  2  1  0  0  0  0
  8  1  1  0  0  0  0
  8  9  2  0  0  0  0
 10 16  1  0  0  0  0
 10 11  1  0  0  0  0
 11  8  1  0  0  0  0
 12 11  2  0  0  0  0
 12 17  1  0  0  0  0
 13 12  1  0  0  0  0
 14 15  1  0  0  0  0
 14 13  2  0  0  0  0
 15 10  2  0  0  0  0
 18 14  1  0  0  0  0
 21 20  2  1  0  0  0
 21 22  1  0  0  0  0
 21 19  1  0  0  0  0
 22 23  1  0  0  0  0
 24 21  1  0  0  0  0
 25 26  2  0  0  0  0
 25 24  1  0  0  0  0
 26 27  1  0  0  0  0
 28 29  1  0  0  0  0
 28 26  1  0  0  0  0
 30 32  1  0  0  0  0
 30 28  2  0  0  0  0
 31 30  1  0  0  0  0
 32 25  1  0  0  0  0
M  END
>  <minimizedAffinity>
-4.69057512

$$$$

 OpenBabel03242512103D

 32 34  0  0  1  0  0  0  0  0999 V2000
   38.3080   28.1590   43.4070 C   0  0  1  0  0  0  0  0  0  0  0  0
   39.2850   26.9200   43.4480 C   0  0  0  0  0  0  0  0  0  0  0  0
   39.4840   28.0640   42.5510 C   0  0  2  0  0  0  0  0  0  0  0  0
   38.3620   28.7710   44.3240 H   0  0  0  0  0  0  0  0  0  0  0  0
   38.8640   25.9570   43.0930 H   0  0  0  0  0  0  0  0  0  0  0  0
   39.8490   26.8230   44.4030 H   0  0  0  0  0  0  0  0  0  0  0  0
   39.2170   28.0660   41.4850 H   0  0  0  0  0  0  0  0  0  0  0  0
   36.9610   27.7840   42.8870 C   0  0  0  0  0  0  0  0  0  0  0  0
   36.1690   27.2860   43.6770 O   0  0  0  0  0  0  0  0  0  0  0  0
   35.7920   29.0250   41.1290 C   0  0  0  0  0  0  0  0  0  0  0  0
   36.5350   27.9700   41.5390 C   0  0  0  0  0  0  0  0  0  0  0  0
   36.9020   27.0090   40.5540 C   0  0  0  0  0  0  0  0  0  0  0  0
   36.5120   27.1650   39.2680 N   0  0  0  0  0  0  0  0  0  0  0  0
   35.7630   28.2490   38.9110 C   0  0  0  0  0  0  0  0  0  0  0  0
   35.4170   29.1440   39.8140 N   0  0  0  0  0  0  0  0  0  0  0  0
   35.4900   29.7800   41.8430 H   0  0  0  0  0  0  0  0  0  0  0  0
   37.4840   26.1430   40.7440 H   0  0  0  0  0  0  0  0  0  0  0  0
   35.3950   28.4760   37.9200 H   0  0  0  0  0  0  0  0  0  0  0  0
   40.6250   28.8060   42.8230 O   0  0  0  0  0  0  0  0  0  0  0  0
   41.8340   30.5310   41.3320 O   0  0  0  0  0  0  0  0  0  0  0  0
   40.4760   30.2620   41.9530 P   0  0  2  0  0  0  0  0  0  0  0  0
   39.9510   31.5320   42.8920 O   0  0  0  0  0  0  0  0  0  0  0  0
   40.7240   32.1380   43.0110 H   0  0  0  0  0  0  0  0  0  0  0  0
   39.4220   29.9640   40.6330 O   0  0  0  0  0  0  0  0  0  0  0  0
   38.5910   30.9410   40.1030 C   0  0  0  0  0  0  0  0  0  0  0  0
   38.2080   31.0990   38.7700 C   0  0  0  0  0  0  0  0  0  0  0  0
   38.5110   30.4640   37.9250 H   0  0  0  0  0  0  0  0  0  0  0  0
   37.3700   32.1880   38.6310 C   0  0  0  0  0  0  0  0  0  0  0  0
   36.8940   32.5950   37.7540 H   0  0  0  0  0  0  0  0  0  0  0  0
   37.2870   32.6520   39.9410 C   0  0  0  0  0  0  0  0  0  0  0  0
   36.7070   33.5240   40.2840 H   0  0  0  0  0  0  0  0  0  0  0  0
   37.9940   31.9200   40.7620 O   0  0  0  0  0  0  0  0  0  0  0  0
  1  2  1  0  0  0  0
  1  4  1  1  0  0  0
  2  6  1  0  0  0  0
  3  7  1  6  0  0  0
  3 19  1  0  0  0  0
  3  1  1  0  0  0  0
  3  2  1  0  0  0  0
  5  2  1  0  0  0  0
  8  1  1  0  0  0  0
  8  9  2  0  0  0  0
 10 11  1  0  0  0  0
 10 16  1  0  0  0  0
 11  8  1  0  0  0  0
 12 17  1  0  0  0  0
 12 11  2  0  0  0  0
 13 12  1  0  0  0  0
 14 13  2  0  0  0  0
 14 15  1  0  0  0  0
 15 10  2  0  0  0  0
 18 14  1  0  0  0  0
 21 20  2  6  0  0  0
 21 19  1  0  0  0  0
 21 22  1  0  0  0  0
 22 23  1  0  0  0  0
 24 21  1  0  0  0  0
 25 24  1  0  0  0  0
 25 32  1  0  0  0  0
 26 25  2  0  0  0  0
 27 26  1  0  0  0  0
 28 26  1  0  0  0  0
 28 30  2  0  0  0  0
 29 28  1  0  0  0  0
 30 31  1  0  0  0  0
 30 32  1  0  0  0  0
M  END
>  <minimizedAffinity>
-4.67625618

$$$$
