REMARK  Name = 
REMARK  4 active torsions:
REMARK  status: ('A' for Active; 'I' for Inactive)
REMARK    1  A    between atoms: C_3  and  C_14
REMARK    2  A    between atoms: C_5  and  C_9
REMARK    3  A    between atoms: C_14  and  C_15
REMARK    4  A    between atoms: C_15  and  C_26
REMARK                            x       y       z     vdW  Elec       q    Type
REMARK                         _______ _______ _______ _____ _____    ______ ____
ROOT
ATOM      1  C   UNL     1      44.620  36.202  43.978  0.00  0.00    +0.000 A 
ATOM      2  C   UNL     1      44.823  35.382  45.106  0.00  0.00    +0.000 A 
ATOM      3  C   UNL     1      45.534  34.196  44.925  0.00  0.00    +0.000 A 
ATOM      4  N   UNL     1      45.993  33.887  43.692  0.00  0.00    +0.000 NA
ATOM      5  C   UNL     1      45.779  34.702  42.626  0.00  0.00    +0.000 A 
ATOM      6  N   UNL     1      45.095  35.857  42.766  0.00  0.00    +0.000 NA
ATOM      7  H   UNL     1      44.074  37.131  44.071  0.00  0.00    +0.000 HD
ATOM      8  H   UNL     1      44.433  35.678  46.071  0.00  0.00    +0.000 HD
ENDROOT
BRANCH   5  11
ATOM      9 CL   UNL     1      48.522  35.690  42.006  0.00  0.00    +0.000 Cl
ATOM     10  C   UNL     1      47.550  34.709  40.935  0.00  0.00    +0.000 A 
ATOM     11  C   UNL     1      46.305  34.307  41.314  0.00  0.00    +0.000 A 
ATOM     12  C   UNL     1      45.495  33.516  40.476  0.00  0.00    +0.000 A 
ATOM     13  C   UNL     1      46.056  33.183  39.254  0.00  0.00    +0.000 A 
ATOM     14  C   UNL     1      47.305  33.588  38.880  0.00  0.00    +0.000 A 
ATOM     15  C   UNL     1      48.083  34.360  39.708  0.00  0.00    +0.000 A 
ATOM     16  H   UNL     1      44.520  33.191  40.750  0.00  0.00    +0.000 HD
ATOM     17  H   UNL     1      45.522  32.573  38.522  0.00  0.00    +0.000 HD
ATOM     18  H   UNL     1      47.750  33.331  37.924  0.00  0.00    +0.000 HD
ATOM     19  H   UNL     1      49.060  34.693  39.447  0.00  0.00    +0.000 HD
ENDBRANCH   5  11
BRANCH   3  20
ATOM     20  C   UNL     1      45.743  33.336  46.106  0.00  0.00    +0.000 C 
ATOM     21  H   UNL     1      45.810  33.904  47.043  0.00  0.00    +0.000 HD
ATOM     22  H   UNL     1      44.824  32.688  46.185  0.00  0.00    +0.000 HD
BRANCH  20  23
ATOM     23  C   UNL     1      46.906  32.370  45.940  0.00  0.00    +0.000 C 
ATOM     24  H   UNL     1      46.754  31.679  45.109  0.00  0.00    +0.000 HD
ATOM     25  H   UNL     1      47.851  32.952  45.905  0.00  0.00    +0.000 HD
BRANCH  23  26
ATOM     26  C   UNL     1      46.972  31.584  47.224  0.00  0.00    +0.000 A 
ATOM     27  C   UNL     1      46.555  30.261  47.389  0.00  0.00    +0.000 A 
ATOM     28  H   UNL     1      46.127  29.609  46.623  0.00  0.00    +0.000 HD
ATOM     29  C   UNL     1      46.811  29.976  48.733  0.00  0.00    +0.000 A 
ATOM     30  H   UNL     1      46.599  29.012  49.198  0.00  0.00    +0.000 HD
ATOM     31  C   UNL     1      47.354  31.110  49.294  0.00  0.00    +0.000 A 
ATOM     32  H   UNL     1      47.667  31.224  50.332  0.00  0.00    +0.000 HD
ATOM     33  O   UNL     1      47.434  32.042  48.373  0.00  0.00    +0.000 OA
ENDBRANCH  23  26
ENDBRANCH  20  23
ENDBRANCH   3  20
TORSDOF 4
