
 OpenBabel03252508463D

 44 46  0  0  0  0  0  0  0  0999 V2000
   42.9930   32.5270   41.5290 C   0  0  0  0  0  0  0  0  0  0  0  0
   43.6190   31.7360   41.0180 H   0  0  0  0  0  0  0  0  0  0  0  0
   42.3850   33.0290   40.7410 H   0  0  0  0  0  0  0  0  0  0  0  0
   43.6950   34.9030   41.8360 C   0  0  0  0  0  0  0  0  0  0  0  0
   43.8720   33.5590   42.1430 C   0  0  0  0  0  0  0  0  0  0  0  0
   44.8720   33.2290   43.0190 C   0  0  0  0  0  0  0  0  0  0  0  0
   45.6670   34.1920   43.5730 C   0  0  0  0  0  0  0  0  0  0  0  0
   45.5070   35.5140   43.2830 C   0  0  0  0  0  0  0  0  0  0  0  0
   44.4880   35.8210   42.3920 C   0  0  0  0  0  0  0  0  0  0  0  0
   45.0000   32.1710   43.2520 H   0  0  0  0  0  0  0  0  0  0  0  0
   46.4630   33.9420   44.2680 H   0  0  0  0  0  0  0  0  0  0  0  0
   46.0890   36.3400   43.6720 H   0  0  0  0  0  0  0  0  0  0  0  0
   44.3030   36.8560   42.1140 H   0  0  0  0  0  0  0  0  0  0  0  0
   40.4080   35.9780   40.2990 C   0  0  0  0  0  0  0  0  0  0  0  0
   41.3820   35.7180   41.2800 C   0  0  0  0  0  0  0  0  0  0  0  0
   42.6140   35.2090   40.8950 C   0  0  0  0  0  0  0  0  0  0  0  0
   42.8120   34.9870   39.5680 N   0  0  0  0  0  0  0  0  0  0  0  0
   41.8660   35.2420   38.6360 C   0  0  0  0  0  0  0  0  0  0  0  0
   40.6750   35.7340   39.0100 N   0  0  0  0  0  0  0  0  0  0  0  0
   39.4500   36.3750   40.6130 H   0  0  0  0  0  0  0  0  0  0  0  0
   41.2100   35.8990   42.3300 H   0  0  0  0  0  0  0  0  0  0  0  0
   42.1220   35.0290   37.5960 H   0  0  0  0  0  0  0  0  0  0  0  0
   42.0630   31.9230   42.4470 N   0  0  0  0  0  0  0  0  0  0  0  0
   42.0910   32.4520   43.3530 H   0  0  0  0  0  0  0  0  0  0  0  0
   40.4450   32.0480   41.8950 S   0  0  0  0  0  0  0  0  0  0  0  0
   39.7100   33.1410   42.6170 O   0  0  0  0  0  0  0  0  0  0  0  0
   39.0770   33.7980   42.2020 H   0  0  0  0  0  0  0  0  0  0  0  0
   39.7290   30.7540   42.0500 O   0  0  0  0  0  0  0  0  0  0  0  0
   39.4790   30.4310   42.9730 H   0  0  0  0  0  0  0  0  0  0  0  0
   40.5080   32.4190   40.2620 O   0  0  0  0  0  0  0  0  0  0  0  0
   40.0650   31.3400   39.5340 C   0  0  0  0  0  0  0  0  0  0  0  0
   39.0140   31.4510   39.2540 H   0  0  0  0  0  0  0  0  0  0  0  0
   40.1610   30.3630   40.0270 H   0  0  0  0  0  0  0  0  0  0  0  0
   40.9290   31.2020   38.2690 C   0  0  0  0  0  0  0  0  0  0  0  0
   41.3700   32.1550   37.9810 H   0  0  0  0  0  0  0  0  0  0  0  0
   41.7630   30.4930   38.5290 H   0  0  0  0  0  0  0  0  0  0  0  0
   40.1290   30.6040   37.1870 C   0  0  0  0  0  0  0  0  0  0  0  0
   38.7830   30.7580   36.9910 C   0  0  0  0  0  0  0  0  0  0  0  0
   38.0770   31.3370   37.5880 H   0  0  0  0  0  0  0  0  0  0  0  0
   38.4790   30.0100   35.8500 C   0  0  0  0  0  0  0  0  0  0  0  0
   37.4530   29.9660   35.4780 H   0  0  0  0  0  0  0  0  0  0  0  0
   39.6790   29.4470   35.4270 C   0  0  0  0  0  0  0  0  0  0  0  0
   39.5920   28.8340   34.5410 H   0  0  0  0  0  0  0  0  0  0  0  0
   40.6310   29.8210   36.2400 O   0  0  0  0  0  0  0  0  0  0  0  0
  1  5  1  0  0  0  0
  1 23  1  0  0  0  0
  2  1  1  0  0  0  0
  3  1  1  0  0  0  0
  4  5  2  0  0  0  0
  4  9  1  0  0  0  0
  5  6  1  0  0  0  0
  6 10  1  0  0  0  0
  6  7  2  0  0  0  0
  7 11  1  0  0  0  0
  8  7  1  0  0  0  0
  8 12  1  0  0  0  0
  9  8  2  0  0  0  0
 13  9  1  0  0  0  0
 14 20  1  0  0  0  0
 14 15  1  0  0  0  0
 15 21  1  0  0  0  0
 16 15  2  0  0  0  0
 16  4  1  0  0  0  0
 17 16  1  0  0  0  0
 18 19  1  0  0  0  0
 18 17  2  0  0  0  0
 19 14  2  0  0  0  0
 22 18  1  0  0  0  0
 23 24  1  0  0  0  0
 25 28  1  0  0  0  0
 25 23  1  0  0  0  0
 25 26  1  0  0  0  0
 27 26  1  0  0  0  0
 28 29  1  0  0  0  0
 30 25  1  0  0  0  0
 31 33  1  0  0  0  0
 31 30  1  0  0  0  0
 32 31  1  0  0  0  0
 34 36  1  0  0  0  0
 34 31  1  0  0  0  0
 35 34  1  0  0  0  0
 37 34  1  0  0  0  0
 38 37  2  0  0  0  0
 38 39  1  0  0  0  0
 40 38  1  0  0  0  0
 41 40  1  0  0  0  0
 42 40  2  0  0  0  0
 42 44  1  0  0  0  0
 43 42  1  0  0  0  0
 44 37  1  0  0  0  0
M  END
>  <minimizedAffinity>
-5.21158886

>  <minimizedRMSD>
2.18837714

$$$$
