
 OpenBabel03252505403D

 27 29  0  0  1  0  0  0  0  0999 V2000
   44.8200   34.1240   43.6220 C   0  0  1  0  0  0  0  0  0  0  0  0
   45.1760   35.6070   43.8020 C   0  0  0  0  0  0  0  0  0  0  0  0
   45.3020   34.9090   42.4880 C   0  0  1  0  0  0  0  0  0  0  0  0
   43.7380   33.8770   43.6950 H   0  0  0  0  0  0  0  0  0  0  0  0
   46.0530   35.8200   44.4290 H   0  0  0  0  0  0  0  0  0  0  0  0
   44.2990   36.2520   44.0050 H   0  0  0  0  0  0  0  0  0  0  0  0
   44.5180   35.2210   41.7330 H   0  0  0  0  0  0  0  0  0  0  0  0
   45.6610   33.1800   44.3840 C   0  0  0  0  0  0  0  0  0  0  0  0
   46.3940   32.2360   43.6210 C   0  0  0  0  0  0  0  0  0  0  0  0
   47.2070   31.3490   44.3070 C   0  0  0  0  0  0  0  0  0  0  0  0
   47.2520   31.4390   45.6740 N   0  0  0  0  0  0  0  0  0  0  0  0
   46.5380   32.3500   46.3550 C   0  0  0  0  0  0  0  0  0  0  0  0
   45.7450   33.2170   45.7000 N   0  0  0  0  0  0  0  0  0  0  0  0
   46.3850   32.1210   42.5450 H   0  0  0  0  0  0  0  0  0  0  0  0
   47.7860   30.6120   43.7790 H   0  0  0  0  0  0  0  0  0  0  0  0
   46.7310   32.2770   47.8370 C   0  0  0  0  0  0  0  0  0  0  0  0
   45.6940   32.8620   48.5180 F   0  0  0  0  0  0  0  0  0  0  0  0
   47.9210   32.9160   48.1960 F   0  0  0  0  0  0  0  0  0  0  0  0
   46.8930   30.9420   48.2030 F   0  0  0  0  0  0  0  0  0  0  0  0
   46.7090   34.9160   42.0020 C   0  0  0  0  0  0  0  0  0  0  0  0
   46.9940   34.4350   40.7400 C   0  0  0  0  0  0  0  0  0  0  0  0
   46.3520   34.0120   39.9510 H   0  0  0  0  0  0  0  0  0  0  0  0
   48.3600   34.5510   40.5280 C   0  0  0  0  0  0  0  0  0  0  0  0
   48.9820   34.2910   39.6770 H   0  0  0  0  0  0  0  0  0  0  0  0
   48.8350   35.1020   41.6840 C   0  0  0  0  0  0  0  0  0  0  0  0
   49.8740   35.3370   41.8740 H   0  0  0  0  0  0  0  0  0  0  0  0
   47.8550   35.2970   42.5030 O   0  0  0  0  0  0  0  0  0  0  0  0
  1  4  1  6  0  0  0
  1  2  1  0  0  0  0
  1  8  1  0  0  0  0
  2  6  1  0  0  0  0
  2  5  1  0  0  0  0
  3  7  1  6  0  0  0
  3  1  1  0  0  0  0
  3  2  1  0  0  0  0
  8 13  1  0  0  0  0
  9 10  1  0  0  0  0
  9  8  2  0  0  0  0
 10 11  2  0  0  0  0
 11 12  1  0  0  0  0
 12 16  1  0  0  0  0
 13 12  2  0  0  0  0
 14  9  1  0  0  0  0
 15 10  1  0  0  0  0
 16 18  1  0  0  0  0
 16 19  1  0  0  0  0
 16 17  1  0  0  0  0
 20  3  1  0  0  0  0
 20 27  1  0  0  0  0
 21 20  2  0  0  0  0
 22 21  1  0  0  0  0
 23 21  1  0  0  0  0
 23 25  2  0  0  0  0
 24 23  1  0  0  0  0
 25 26  1  0  0  0  0
 25 27  1  0  0  0  0
M  END
>  <minimizedAffinity>
-4.87440014

>  <minimizedRMSD>
1.29209411

$$$$
