
 OpenBabel03242520343D

 27 29  0  0  1  0  0  0  0  0999 V2000
   39.4250   28.4880   40.5010 C   0  0  0  0  0  0  0  0  0  0  0  0
   39.4970   28.1520   41.8920 C   0  0  0  0  0  0  0  0  0  0  0  0
   39.2280   29.1380   42.8230 C   0  0  0  0  0  0  0  0  0  0  0  0
   38.9080   30.3840   42.3690 N   0  0  0  0  0  0  0  0  0  0  0  0
   38.8480   30.6730   41.0710 C   0  0  0  0  0  0  0  0  0  0  0  0
   39.1030   29.7360   40.1530 N   0  0  0  0  0  0  0  0  0  0  0  0
   39.6330   27.7240   39.7660 H   0  0  0  0  0  0  0  0  0  0  0  0
   39.2840   28.8740   43.8710 H   0  0  0  0  0  0  0  0  0  0  0  0
   38.5000   32.0260   40.6470 C   0  0  0  0  0  0  0  0  0  0  0  0
   37.4220   32.2140   39.7910 C   0  0  0  0  0  0  0  0  0  0  0  0
   36.7180   31.5240   39.3230 H   0  0  0  0  0  0  0  0  0  0  0  0
   37.3220   33.5780   39.5550 C   0  0  0  0  0  0  0  0  0  0  0  0
   36.5960   34.1030   38.9330 H   0  0  0  0  0  0  0  0  0  0  0  0
   38.3490   34.1490   40.2860 C   0  0  0  0  0  0  0  0  0  0  0  0
   38.6140   35.2020   40.3700 H   0  0  0  0  0  0  0  0  0  0  0  0
   39.0230   33.2040   40.9170 O   0  0  0  0  0  0  0  0  0  0  0  0
   39.8730   26.7730   42.3380 C   0  0  1  0  0  0  0  0  0  0  0  0
   39.5630   26.3290   43.6800 C   0  0  0  0  0  0  0  0  0  0  0  0
   38.7490   25.7700   42.5720 C   0  0  1  0  0  0  0  0  0  0  0  0
   40.6860   26.3590   41.7060 H   0  0  0  0  0  0  0  0  0  0  0  0
   40.1830   25.5820   44.2200 H   0  0  0  0  0  0  0  0  0  0  0  0
   39.0800   27.0630   44.3720 H   0  0  0  0  0  0  0  0  0  0  0  0
   38.9520   24.7160   42.2410 H   0  0  0  0  0  0  0  0  0  0  0  0
   37.3290   26.1660   42.3810 C   0  0  0  0  0  0  0  0  0  0  0  0
   37.0830   26.6450   41.1090 F   0  0  0  0  0  0  0  0  0  0  0  0
   36.9330   27.1410   43.3070 F   0  0  0  0  0  0  0  0  0  0  0  0
   36.5450   25.0540   42.5560 F   0  0  0  0  0  0  0  0  0  0  0  0
  1  2  1  0  0  0  0
  2 17  1  0  0  0  0
  2  3  2  0  0  0  0
  3  8  1  0  0  0  0
  4  3  1  0  0  0  0
  5  4  2  0  0  0  0
  6  1  2  0  0  0  0
  6  5  1  0  0  0  0
  7  1  1  0  0  0  0
  9 16  1  0  0  0  0
  9  5  1  0  0  0  0
 10  9  2  0  0  0  0
 11 10  1  0  0  0  0
 12 10  1  0  0  0  0
 12 14  2  0  0  0  0
 13 12  1  0  0  0  0
 14 15  1  0  0  0  0
 14 16  1  0  0  0  0
 17 20  1  6  0  0  0
 17 19  1  0  0  0  0
 17 18  1  0  0  0  0
 18 21  1  0  0  0  0
 18 22  1  0  0  0  0
 19 23  1  6  0  0  0
 19 18  1  0  0  0  0
 24 27  1  0  0  0  0
 24 19  1  0  0  0  0
 24 26  1  0  0  0  0
 25 24  1  0  0  0  0
M  END
>  <minimizedAffinity>
-5.04667759

$$$$

 OpenBabel03242520343D

 27 29  0  0  1  0  0  0  0  0999 V2000
   37.0000   27.6910   42.8310 C   0  0  0  0  0  0  0  0  0  0  0  0
   37.0910   26.6900   41.8100 C   0  0  0  0  0  0  0  0  0  0  0  0
   37.4170   27.0860   40.5260 C   0  0  0  0  0  0  0  0  0  0  0  0
   37.6360   28.4140   40.2960 N   0  0  0  0  0  0  0  0  0  0  0  0
   37.5470   29.3250   41.2620 C   0  0  0  0  0  0  0  0  0  0  0  0
   37.2330   28.9660   42.5100 N   0  0  0  0  0  0  0  0  0  0  0  0
   36.7470   27.3900   43.8380 H   0  0  0  0  0  0  0  0  0  0  0  0
   37.4840   26.3230   39.7610 H   0  0  0  0  0  0  0  0  0  0  0  0
   37.7920   30.7320   40.9550 C   0  0  0  0  0  0  0  0  0  0  0  0
   36.8950   31.4180   40.1480 C   0  0  0  0  0  0  0  0  0  0  0  0
   35.9710   31.1210   39.6480 H   0  0  0  0  0  0  0  0  0  0  0  0
   37.3690   32.7160   40.0230 C   0  0  0  0  0  0  0  0  0  0  0  0
   36.9290   33.5430   39.4640 H   0  0  0  0  0  0  0  0  0  0  0  0
   38.5350   32.7490   40.7670 C   0  0  0  0  0  0  0  0  0  0  0  0
   39.2110   33.5890   40.9250 H   0  0  0  0  0  0  0  0  0  0  0  0
   38.7540   31.5620   41.3020 O   0  0  0  0  0  0  0  0  0  0  0  0
   36.8210   25.2480   42.1100 C   0  0  1  0  0  0  0  0  0  0  0  0
   37.3350   24.2120   41.2420 C   0  0  0  0  0  0  0  0  0  0  0  0
   37.9930   24.3840   42.5600 C   0  0  1  0  0  0  0  0  0  0  0  0
   35.9350   25.1400   42.7700 H   0  0  0  0  0  0  0  0  0  0  0  0
   36.8220   23.2360   41.1050 H   0  0  0  0  0  0  0  0  0  0  0  0
   37.8960   24.5300   40.3270 H   0  0  0  0  0  0  0  0  0  0  0  0
   37.7710   23.6350   43.3680 H   0  0  0  0  0  0  0  0  0  0  0  0
   39.3590   24.9600   42.6740 C   0  0  0  0  0  0  0  0  0  0  0  0
   39.4180   25.9960   43.5860 F   0  0  0  0  0  0  0  0  0  0  0  0
   39.8290   25.4280   41.4390 F   0  0  0  0  0  0  0  0  0  0  0  0
   40.2050   23.9760   43.1190 F   0  0  0  0  0  0  0  0  0  0  0  0
  1  7  1  0  0  0  0
  2 17  1  0  0  0  0
  2  1  2  0  0  0  0
  3  2  1  0  0  0  0
  4  3  2  0  0  0  0
  4  5  1  0  0  0  0
  5  6  2  0  0  0  0
  6  1  1  0  0  0  0
  8  3  1  0  0  0  0
  9  5  1  0  0  0  0
  9 16  1  0  0  0  0
 10  9  2  0  0  0  0
 11 10  1  0  0  0  0
 12 10  1  0  0  0  0
 12 14  2  0  0  0  0
 13 12  1  0  0  0  0
 14 15  1  0  0  0  0
 14 16  1  0  0  0  0
 17 19  1  0  0  0  0
 17 20  1  1  0  0  0
 18 17  1  0  0  0  0
 18 19  1  0  0  0  0
 19 24  1  0  0  0  0
 19 23  1  1  0  0  0
 21 18  1  0  0  0  0
 22 18  1  0  0  0  0
 24 27  1  0  0  0  0
 24 25  1  0  0  0  0
 26 24  1  0  0  0  0
M  END
>  <minimizedAffinity>
-5.00680161

$$$$

 OpenBabel03242520343D

 27 29  0  0  1  0  0  0  0  0999 V2000
   37.3130   27.0930   40.4920 C   0  0  0  0  0  0  0  0  0  0  0  0
   37.0210   26.6700   41.8290 C   0  0  0  0  0  0  0  0  0  0  0  0
   36.9890   27.6230   42.8300 C   0  0  0  0  0  0  0  0  0  0  0  0
   37.2390   28.9220   42.4930 N   0  0  0  0  0  0  0  0  0  0  0  0
   37.5080   29.2910   41.2430 C   0  0  0  0  0  0  0  0  0  0  0  0
   37.5440   28.3870   40.2590 N   0  0  0  0  0  0  0  0  0  0  0  0
   37.3380   26.3550   39.7030 H   0  0  0  0  0  0  0  0  0  0  0  0
   36.7660   27.2940   43.8370 H   0  0  0  0  0  0  0  0  0  0  0  0
   37.7670   30.6970   40.9440 C   0  0  0  0  0  0  0  0  0  0  0  0
   36.8900   31.3890   40.1200 C   0  0  0  0  0  0  0  0  0  0  0  0
   35.9750   31.0990   39.6010 H   0  0  0  0  0  0  0  0  0  0  0  0
   37.3740   32.6860   40.0070 C   0  0  0  0  0  0  0  0  0  0  0  0
   36.9500   33.5160   39.4420 H   0  0  0  0  0  0  0  0  0  0  0  0
   38.5250   32.7100   40.7750 C   0  0  0  0  0  0  0  0  0  0  0  0
   39.2030   33.5460   40.9490 H   0  0  0  0  0  0  0  0  0  0  0  0
   38.7270   31.5200   41.3120 O   0  0  0  0  0  0  0  0  0  0  0  0
   36.7730   25.2280   42.1500 C   0  0  1  0  0  0  0  0  0  0  0  0
   37.2360   24.1900   41.2560 C   0  0  0  0  0  0  0  0  0  0  0  0
   37.9720   24.3680   42.5330 C   0  0  1  0  0  0  0  0  0  0  0  0
   35.9280   25.1210   42.8620 H   0  0  0  0  0  0  0  0  0  0  0  0
   36.7170   23.2130   41.1550 H   0  0  0  0  0  0  0  0  0  0  0  0
   37.7400   24.5050   40.3090 H   0  0  0  0  0  0  0  0  0  0  0  0
   37.8000   23.6220   43.3550 H   0  0  0  0  0  0  0  0  0  0  0  0
   39.3400   24.9470   42.5620 C   0  0  0  0  0  0  0  0  0  0  0  0
   40.2840   24.0450   43.0140 F   0  0  0  0  0  0  0  0  0  0  0  0
   39.4000   26.0940   43.3670 F   0  0  0  0  0  0  0  0  0  0  0  0
   39.6880   25.2940   41.2810 F   0  0  0  0  0  0  0  0  0  0  0  0
  1  2  1  0  0  0  0
  2 17  1  0  0  0  0
  2  3  2  0  0  0  0
  3  8  1  0  0  0  0
  4  3  1  0  0  0  0
  5  4  2  0  0  0  0
  6  1  2  0  0  0  0
  6  5  1  0  0  0  0
  7  1  1  0  0  0  0
  9  5  1  0  0  0  0
  9 16  1  0  0  0  0
 10  9  2  0  0  0  0
 11 10  1  0  0  0  0
 12 10  1  0  0  0  0
 12 14  2  0  0  0  0
 13 12  1  0  0  0  0
 14 15  1  0  0  0  0
 14 16  1  0  0  0  0
 17 19  1  0  0  0  0
 17 20  1  1  0  0  0
 18 17  1  0  0  0  0
 18 19  1  0  0  0  0
 19 24  1  0  0  0  0
 19 23  1  1  0  0  0
 21 18  1  0  0  0  0
 22 18  1  0  0  0  0
 24 25  1  0  0  0  0
 24 26  1  0  0  0  0
 27 24  1  0  0  0  0
M  END
>  <minimizedAffinity>
-4.95381927

$$$$

 OpenBabel03242520343D

 27 29  0  0  1  0  0  0  0  0999 V2000
   38.1330   29.7970   40.7350 C   0  0  0  0  0  0  0  0  0  0  0  0
   36.9290   30.5170   40.4450 C   0  0  0  0  0  0  0  0  0  0  0  0
   35.7420   29.8110   40.3630 C   0  0  0  0  0  0  0  0  0  0  0  0
   35.7800   28.4610   40.5620 N   0  0  0  0  0  0  0  0  0  0  0  0
   36.9120   27.8150   40.8300 C   0  0  0  0  0  0  0  0  0  0  0  0
   38.0700   28.4760   40.9140 N   0  0  0  0  0  0  0  0  0  0  0  0
   39.0650   30.3410   40.8020 H   0  0  0  0  0  0  0  0  0  0  0  0
   34.8380   30.3630   40.1450 H   0  0  0  0  0  0  0  0  0  0  0  0
   36.8880   26.3680   41.0320 C   0  0  0  0  0  0  0  0  0  0  0  0
   37.2140   25.8520   42.2790 C   0  0  0  0  0  0  0  0  0  0  0  0
   37.5080   26.3180   43.2210 H   0  0  0  0  0  0  0  0  0  0  0  0
   37.1110   24.4700   42.1880 C   0  0  0  0  0  0  0  0  0  0  0  0
   37.2910   23.7280   42.9660 H   0  0  0  0  0  0  0  0  0  0  0  0
   36.7260   24.2220   40.8820 C   0  0  0  0  0  0  0  0  0  0  0  0
   36.5370   23.2600   40.4050 H   0  0  0  0  0  0  0  0  0  0  0  0
   36.6040   25.3640   40.2290 O   0  0  0  0  0  0  0  0  0  0  0  0
   36.9440   31.9970   40.2160 C   0  0  1  0  0  0  0  0  0  0  0  0
   38.1890   32.6820   39.9450 C   0  0  0  0  0  0  0  0  0  0  0  0
   37.2530   32.4950   38.8090 C   0  0  1  0  0  0  0  0  0  0  0  0
   36.0390   32.4740   40.6460 H   0  0  0  0  0  0  0  0  0  0  0  0
   38.3630   33.7410   40.2310 H   0  0  0  0  0  0  0  0  0  0  0  0
   39.1300   32.0760   39.9580 H   0  0  0  0  0  0  0  0  0  0  0  0
   36.6580   33.3810   38.4590 H   0  0  0  0  0  0  0  0  0  0  0  0
   37.5480   31.5350   37.7130 C   0  0  0  0  0  0  0  0  0  0  0  0
   36.5690   30.5710   37.5800 F   0  0  0  0  0  0  0  0  0  0  0  0
   38.7800   30.8930   37.9040 F   0  0  0  0  0  0  0  0  0  0  0  0
   37.5980   32.2320   36.5330 F   0  0  0  0  0  0  0  0  0  0  0  0
  1  7  1  0  0  0  0
  1  6  1  0  0  0  0
  2  1  2  0  0  0  0
  3  2  1  0  0  0  0
  3  4  2  0  0  0  0
  4  5  1  0  0  0  0
  5  6  2  0  0  0  0
  5  9  1  0  0  0  0
  8  3  1  0  0  0  0
  9 10  2  0  0  0  0
 10 11  1  0  0  0  0
 12 10  1  0  0  0  0
 12 13  1  0  0  0  0
 14 12  2  0  0  0  0
 15 14  1  0  0  0  0
 16 14  1  0  0  0  0
 16  9  1  0  0  0  0
 17  2  1  0  0  0  0
 17 20  1  1  0  0  0
 18 22  1  0  0  0  0
 18 17  1  0  0  0  0
 18 21  1  0  0  0  0
 19 23  1  6  0  0  0
 19 18  1  0  0  0  0
 19 17  1  0  0  0  0
 24 26  1  0  0  0  0
 24 19  1  0  0  0  0
 25 24  1  0  0  0  0
 27 24  1  0  0  0  0
M  END
>  <minimizedAffinity>
-4.83434582

$$$$

 OpenBabel03242520343D

 27 29  0  0  1  0  0  0  0  0999 V2000
   36.7520   28.2650   41.2920 C   0  0  0  0  0  0  0  0  0  0  0  0
   37.5570   27.8420   42.3990 C   0  0  0  0  0  0  0  0  0  0  0  0
   38.4550   28.7420   42.9440 C   0  0  0  0  0  0  0  0  0  0  0  0
   38.5290   29.9900   42.3970 N   0  0  0  0  0  0  0  0  0  0  0  0
   37.7690   30.3610   41.3690 C   0  0  0  0  0  0  0  0  0  0  0  0
   36.8950   29.5080   40.8260 N   0  0  0  0  0  0  0  0  0  0  0  0
   36.0470   27.5690   40.8610 H   0  0  0  0  0  0  0  0  0  0  0  0
   39.0580   28.4140   43.7800 H   0  0  0  0  0  0  0  0  0  0  0  0
   37.8940   31.7120   40.8270 C   0  0  0  0  0  0  0  0  0  0  0  0
   36.9700   32.1560   39.8900 C   0  0  0  0  0  0  0  0  0  0  0  0
   36.1010   31.6860   39.4270 H   0  0  0  0  0  0  0  0  0  0  0  0
   37.3240   33.4550   39.5530 C   0  0  0  0  0  0  0  0  0  0  0  0
   36.8320   34.1250   38.8480 H   0  0  0  0  0  0  0  0  0  0  0  0
   38.4500   33.7310   40.3090 C   0  0  0  0  0  0  0  0  0  0  0  0
   39.0360   34.6490   40.3360 H   0  0  0  0  0  0  0  0  0  0  0  0
   38.7580   32.6810   41.0480 O   0  0  0  0  0  0  0  0  0  0  0  0
   37.4520   26.4530   42.9490 C   0  0  1  0  0  0  0  0  0  0  0  0
   36.9370   25.3790   42.1290 C   0  0  0  0  0  0  0  0  0  0  0  0
   38.3970   25.3940   42.3930 C   0  0  1  0  0  0  0  0  0  0  0  0
   37.4360   26.4670   44.0590 H   0  0  0  0  0  0  0  0  0  0  0  0
   36.3990   24.5060   42.5570 H   0  0  0  0  0  0  0  0  0  0  0  0
   36.5840   25.6340   41.0990 H   0  0  0  0  0  0  0  0  0  0  0  0
   38.8110   24.6630   43.1390 H   0  0  0  0  0  0  0  0  0  0  0  0
   39.3720   25.7350   41.3240 C   0  0  0  0  0  0  0  0  0  0  0  0
   40.2790   26.6960   41.7270 F   0  0  0  0  0  0  0  0  0  0  0  0
   38.7310   26.1890   40.1630 F   0  0  0  0  0  0  0  0  0  0  0  0
   40.0850   24.6050   41.0160 F   0  0  0  0  0  0  0  0  0  0  0  0
  1  2  1  0  0  0  0
  2  3  2  0  0  0  0
  2 17  1  0  0  0  0
  3  8  1  0  0  0  0
  4  3  1  0  0  0  0
  5  4  2  0  0  0  0
  6  1  2  0  0  0  0
  6  5  1  0  0  0  0
  7  1  1  0  0  0  0
  9 16  1  0  0  0  0
  9  5  1  0  0  0  0
 10  9  2  0  0  0  0
 11 10  1  0  0  0  0
 12 10  1  0  0  0  0
 12 14  2  0  0  0  0
 13 12  1  0  0  0  0
 14 15  1  0  0  0  0
 14 16  1  0  0  0  0
 17 20  1  1  0  0  0
 18 19  1  0  0  0  0
 18 21  1  0  0  0  0
 18 17  1  0  0  0  0
 19 17  1  0  0  0  0
 19 23  1  1  0  0  0
 22 18  1  0  0  0  0
 24 25  1  0  0  0  0
 24 19  1  0  0  0  0
 26 24  1  0  0  0  0
 27 24  1  0  0  0  0
M  END
>  <minimizedAffinity>
-4.72574186

$$$$

 OpenBabel03242520343D

 27 29  0  0  1  0  0  0  0  0999 V2000
   39.7120   28.9450   42.4870 C   0  0  0  0  0  0  0  0  0  0  0  0
   38.3020   28.8160   42.7050 C   0  0  0  0  0  0  0  0  0  0  0  0
   37.4580   29.7490   42.1310 C   0  0  0  0  0  0  0  0  0  0  0  0
   38.0120   30.7480   41.3860 N   0  0  0  0  0  0  0  0  0  0  0  0
   39.3260   30.8470   41.1970 C   0  0  0  0  0  0  0  0  0  0  0  0
   40.1610   29.9570   41.7410 N   0  0  0  0  0  0  0  0  0  0  0  0
   40.3790   28.2200   42.9300 H   0  0  0  0  0  0  0  0  0  0  0  0
   36.3940   29.6430   42.3010 H   0  0  0  0  0  0  0  0  0  0  0  0
   39.8610   31.9390   40.3880 C   0  0  0  0  0  0  0  0  0  0  0  0
   40.2150   31.6970   39.0670 C   0  0  0  0  0  0  0  0  0  0  0  0
   40.1830   30.8020   38.4440 H   0  0  0  0  0  0  0  0  0  0  0  0
   40.6860   32.8940   38.5450 C   0  0  0  0  0  0  0  0  0  0  0  0
   41.0540   33.0910   37.5380 H   0  0  0  0  0  0  0  0  0  0  0  0
   40.5910   33.8040   39.5830 C   0  0  0  0  0  0  0  0  0  0  0  0
   40.8620   34.8600   39.5820 H   0  0  0  0  0  0  0  0  0  0  0  0
   40.1010   33.2070   40.6540 O   0  0  0  0  0  0  0  0  0  0  0  0
   37.7450   27.7120   43.5490 C   0  0  1  0  0  0  0  0  0  0  0  0
   36.3250   27.4360   43.5500 C   0  0  0  0  0  0  0  0  0  0  0  0
   37.2050   26.4760   42.8380 C   0  0  1  0  0  0  0  0  0  0  0  0
   38.4400   27.4560   44.3760 H   0  0  0  0  0  0  0  0  0  0  0  0
   35.7980   27.0140   44.4320 H   0  0  0  0  0  0  0  0  0  0  0  0
   35.6660   28.1010   42.9370 H   0  0  0  0  0  0  0  0  0  0  0  0
   37.4240   25.4900   43.3300 H   0  0  0  0  0  0  0  0  0  0  0  0
   37.2170   26.3910   41.3550 C   0  0  0  0  0  0  0  0  0  0  0  0
   38.4780   26.5870   40.8260 F   0  0  0  0  0  0  0  0  0  0  0  0
   36.3430   27.3210   40.7750 F   0  0  0  0  0  0  0  0  0  0  0  0
   36.8150   25.1300   40.9940 F   0  0  0  0  0  0  0  0  0  0  0  0
  1  2  1  0  0  0  0
  1  7  1  0  0  0  0
  2 17  1  0  0  0  0
  3  8  1  0  0  0  0
  3  2  2  0  0  0  0
  4  3  1  0  0  0  0
  5  4  2  0  0  0  0
  5  6  1  0  0  0  0
  6  1  2  0  0  0  0
  9 16  1  0  0  0  0
  9  5  1  0  0  0  0
 10  9  2  0  0  0  0
 11 10  1  0  0  0  0
 12 10  1  0  0  0  0
 12 14  2  0  0  0  0
 13 12  1  0  0  0  0
 14 16  1  0  0  0  0
 15 14  1  0  0  0  0
 17 18  1  0  0  0  0
 17 20  1  1  0  0  0
 18 21  1  0  0  0  0
 19 23  1  1  0  0  0
 19 17  1  0  0  0  0
 19 18  1  0  0  0  0
 22 18  1  0  0  0  0
 24 19  1  0  0  0  0
 25 24  1  0  0  0  0
 26 24  1  0  0  0  0
 27 24  1  0  0  0  0
M  END
>  <minimizedAffinity>
-4.69455576

$$$$

 OpenBabel03242520343D

 27 29  0  0  1  0  0  0  0  0999 V2000
   39.2840   29.4660   40.2780 C   0  0  0  0  0  0  0  0  0  0  0  0
   38.9240   30.2980   41.3880 C   0  0  0  0  0  0  0  0  0  0  0  0
   38.0580   29.7910   42.3390 C   0  0  0  0  0  0  0  0  0  0  0  0
   37.5880   28.5210   42.1720 N   0  0  0  0  0  0  0  0  0  0  0  0
   37.9370   27.7660   41.1320 C   0  0  0  0  0  0  0  0  0  0  0  0
   38.7730   28.2350   40.2010 N   0  0  0  0  0  0  0  0  0  0  0  0
   39.9610   29.8530   39.5310 H   0  0  0  0  0  0  0  0  0  0  0  0
   37.7940   30.4260   43.1740 H   0  0  0  0  0  0  0  0  0  0  0  0
   37.4000   26.4130   41.0070 C   0  0  0  0  0  0  0  0  0  0  0  0
   37.3360   25.6010   42.1320 C   0  0  0  0  0  0  0  0  0  0  0  0
   37.6200   25.7550   43.1740 H   0  0  0  0  0  0  0  0  0  0  0  0
   36.7940   24.3890   41.7290 C   0  0  0  0  0  0  0  0  0  0  0  0
   36.5920   23.5060   42.3360 H   0  0  0  0  0  0  0  0  0  0  0  0
   36.5550   24.5320   40.3730 C   0  0  0  0  0  0  0  0  0  0  0  0
   36.1310   23.8040   39.6820 H   0  0  0  0  0  0  0  0  0  0  0  0
   36.9250   25.7380   39.9810 O   0  0  0  0  0  0  0  0  0  0  0  0
   39.4530   31.6930   41.5150 C   0  0  1  0  0  0  0  0  0  0  0  0
   40.0300   32.3640   40.3700 C   0  0  0  0  0  0  0  0  0  0  0  0
   38.6870   32.8110   40.8160 C   0  0  1  0  0  0  0  0  0  0  0  0
   39.6840   31.9340   42.5730 H   0  0  0  0  0  0  0  0  0  0  0  0
   40.8270   33.1310   40.4660 H   0  0  0  0  0  0  0  0  0  0  0  0
   40.1040   31.7890   39.4130 H   0  0  0  0  0  0  0  0  0  0  0  0
   38.6080   33.7800   41.3790 H   0  0  0  0  0  0  0  0  0  0  0  0
   37.4680   32.5100   40.0200 C   0  0  0  0  0  0  0  0  0  0  0  0
   36.4930   31.8800   40.7680 F   0  0  0  0  0  0  0  0  0  0  0  0
   37.7610   31.7100   38.9070 F   0  0  0  0  0  0  0  0  0  0  0  0
   36.9400   33.6970   39.5780 F   0  0  0  0  0  0  0  0  0  0  0  0
  1  2  1  0  0  0  0
  2 17  1  0  0  0  0
  2  3  2  0  0  0  0
  3  8  1  0  0  0  0
  4  3  1  0  0  0  0
  5  4  2  0  0  0  0
  6  1  2  0  0  0  0
  6  5  1  0  0  0  0
  7  1  1  0  0  0  0
  9  5  1  0  0  0  0
  9 10  2  0  0  0  0
 10 11  1  0  0  0  0
 12 10  1  0  0  0  0
 12 13  1  0  0  0  0
 14 12  2  0  0  0  0
 15 14  1  0  0  0  0
 16 14  1  0  0  0  0
 16  9  1  0  0  0  0
 17 20  1  1  0  0  0
 18 21  1  0  0  0  0
 18 19  1  0  0  0  0
 18 17  1  0  0  0  0
 19 23  1  1  0  0  0
 19 17  1  0  0  0  0
 22 18  1  0  0  0  0
 24 25  1  0  0  0  0
 24 19  1  0  0  0  0
 26 24  1  0  0  0  0
 27 24  1  0  0  0  0
M  END
>  <minimizedAffinity>
-4.59786892

$$$$

 OpenBabel03242520343D

 27 29  0  0  1  0  0  0  0  0999 V2000
   38.2090   30.0770   39.2160 C   0  0  0  0  0  0  0  0  0  0  0  0
   37.0360   30.5030   39.9190 C   0  0  0  0  0  0  0  0  0  0  0  0
   37.0580   31.7310   40.5550 C   0  0  0  0  0  0  0  0  0  0  0  0
   38.1990   32.4750   40.4810 N   0  0  0  0  0  0  0  0  0  0  0  0
   39.2760   32.0580   39.8210 C   0  0  0  0  0  0  0  0  0  0  0  0
   39.2790   30.8750   39.1990 N   0  0  0  0  0  0  0  0  0  0  0  0
   38.2000   29.1190   38.7150 H   0  0  0  0  0  0  0  0  0  0  0  0
   36.1660   32.0440   41.0830 H   0  0  0  0  0  0  0  0  0  0  0  0
   40.4690   32.9000   39.7780 C   0  0  0  0  0  0  0  0  0  0  0  0
   41.0370   33.2110   38.5490 C   0  0  0  0  0  0  0  0  0  0  0  0
   40.7740   32.9470   37.5230 H   0  0  0  0  0  0  0  0  0  0  0  0
   42.1430   34.0120   38.8020 C   0  0  0  0  0  0  0  0  0  0  0  0
   42.8360   34.4500   38.0830 H   0  0  0  0  0  0  0  0  0  0  0  0
   42.1850   34.1450   40.1790 C   0  0  0  0  0  0  0  0  0  0  0  0
   42.9050   34.7000   40.7810 H   0  0  0  0  0  0  0  0  0  0  0  0
   41.1840   33.4760   40.7220 O   0  0  0  0  0  0  0  0  0  0  0  0
   35.8140   29.6390   39.9870 C   0  0  1  0  0  0  0  0  0  0  0  0
   35.8990   28.2270   39.6840 C   0  0  0  0  0  0  0  0  0  0  0  0
   35.7330   28.6090   41.1080 C   0  0  1  0  0  0  0  0  0  0  0  0
   34.8920   30.2500   39.9040 H   0  0  0  0  0  0  0  0  0  0  0  0
   35.0490   27.6550   39.2560 H   0  0  0  0  0  0  0  0  0  0  0  0
   36.8910   27.8240   39.3580 H   0  0  0  0  0  0  0  0  0  0  0  0
   34.7220   28.4750   41.5800 H   0  0  0  0  0  0  0  0  0  0  0  0
   36.8440   28.4620   42.0830 C   0  0  0  0  0  0  0  0  0  0  0  0
   37.1450   29.6490   42.7220 F   0  0  0  0  0  0  0  0  0  0  0  0
   38.0100   27.9790   41.4720 F   0  0  0  0  0  0  0  0  0  0  0  0
   36.4550   27.5670   43.0480 F   0  0  0  0  0  0  0  0  0  0  0  0
  1  2  1  0  0  0  0
  2 17  1  0  0  0  0
  2  3  2  0  0  0  0
  3  8  1  0  0  0  0
  4  3  1  0  0  0  0
  5  4  2  0  0  0  0
  6  1  2  0  0  0  0
  6  5  1  0  0  0  0
  7  1  1  0  0  0  0
  9  5  1  0  0  0  0
  9 16  1  0  0  0  0
 10 12  1  0  0  0  0
 10  9  2  0  0  0  0
 11 10  1  0  0  0  0
 12 14  2  0  0  0  0
 13 12  1  0  0  0  0
 14 16  1  0  0  0  0
 14 15  1  0  0  0  0
 17 20  1  6  0  0  0
 17 19  1  0  0  0  0
 18 17  1  0  0  0  0
 18 19  1  0  0  0  0
 19 23  1  1  0  0  0
 19 24  1  0  0  0  0
 21 18  1  0  0  0  0
 22 18  1  0  0  0  0
 24 25  1  0  0  0  0
 24 27  1  0  0  0  0
 26 24  1  0  0  0  0
M  END
>  <minimizedAffinity>
-4.51434851

$$$$

 OpenBabel03242520343D

 27 29  0  0  1  0  0  0  0  0999 V2000
   38.0760   32.3560   40.4410 C   0  0  0  0  0  0  0  0  0  0  0  0
   39.4210   32.6910   40.8020 C   0  0  0  0  0  0  0  0  0  0  0  0
   40.1100   31.8350   41.6430 C   0  0  0  0  0  0  0  0  0  0  0  0
   39.4710   30.7150   42.0870 N   0  0  0  0  0  0  0  0  0  0  0  0
   38.2200   30.4250   41.7370 C   0  0  0  0  0  0  0  0  0  0  0  0
   37.5350   31.2360   40.9260 N   0  0  0  0  0  0  0  0  0  0  0  0
   37.5300   33.0180   39.7830 H   0  0  0  0  0  0  0  0  0  0  0  0
   41.1260   32.0960   41.9090 H   0  0  0  0  0  0  0  0  0  0  0  0
   37.5890   29.2100   42.2460 C   0  0  0  0  0  0  0  0  0  0  0  0
   38.0380   28.6600   43.4400 C   0  0  0  0  0  0  0  0  0  0  0  0
   38.8200   28.9520   44.1420 H   0  0  0  0  0  0  0  0  0  0  0  0
   37.2730   27.5270   43.6800 C   0  0  0  0  0  0  0  0  0  0  0  0
   37.3360   26.8370   44.5220 H   0  0  0  0  0  0  0  0  0  0  0  0
   36.3950   27.4510   42.6130 C   0  0  0  0  0  0  0  0  0  0  0  0
   35.6240   26.7030   42.4250 H   0  0  0  0  0  0  0  0  0  0  0  0
   36.6100   28.4590   41.7870 O   0  0  0  0  0  0  0  0  0  0  0  0
   40.0700   33.9440   40.3020 C   0  0  1  0  0  0  0  0  0  0  0  0
   41.5110   34.0690   40.2950 C   0  0  0  0  0  0  0  0  0  0  0  0
   40.8380   33.8720   38.9870 C   0  0  1  0  0  0  0  0  0  0  0  0
   39.3610   34.7970   40.3340 H   0  0  0  0  0  0  0  0  0  0  0  0
   42.0280   35.0450   40.4060 H   0  0  0  0  0  0  0  0  0  0  0  0
   42.1090   33.2200   40.7130 H   0  0  0  0  0  0  0  0  0  0  0  0
   40.7300   34.7590   38.3060 H   0  0  0  0  0  0  0  0  0  0  0  0
   40.9490   32.5900   38.2450 C   0  0  0  0  0  0  0  0  0  0  0  0
   39.7170   32.0940   37.8620 F   0  0  0  0  0  0  0  0  0  0  0  0
   41.6070   31.6090   39.0000 F   0  0  0  0  0  0  0  0  0  0  0  0
   41.6700   32.8170   37.1000 F   0  0  0  0  0  0  0  0  0  0  0  0
  1  2  2  0  0  0  0
  1  6  1  0  0  0  0
  2  3  1  0  0  0  0
  3  8  1  0  0  0  0
  3  4  2  0  0  0  0
  5  4  1  0  0  0  0
  5  9  1  0  0  0  0
  6  5  2  0  0  0  0
  7  1  1  0  0  0  0
  9 10  2  0  0  0  0
 10 12  1  0  0  0  0
 10 11  1  0  0  0  0
 12 13  1  0  0  0  0
 14 12  2  0  0  0  0
 15 14  1  0  0  0  0
 16  9  1  0  0  0  0
 16 14  1  0  0  0  0
 17 20  1  1  0  0  0
 17  2  1  0  0  0  0
 18 17  1  0  0  0  0
 18 21  1  0  0  0  0
 18 22  1  0  0  0  0
 19 23  1  6  0  0  0
 19 18  1  0  0  0  0
 19 17  1  0  0  0  0
 24 19  1  0  0  0  0
 24 26  1  0  0  0  0
 25 24  1  0  0  0  0
 27 24  1  0  0  0  0
M  END
>  <minimizedAffinity>
-4.48133707

$$$$
