
 OpenBabel03252504293D

 26 27  0  0  0  0  0  0  0  0999 V2000
   43.7780   35.2300   40.8540 O   0  0  0  0  0  0  0  0  0  0  0  0
   44.3860   34.1140   41.3820 C   0  0  0  0  0  0  0  0  0  0  0  0
   45.4230   34.0110   40.9090 H   0  0  0  0  0  0  0  0  0  0  0  0
   43.7880   33.2120   41.1880 H   0  0  0  0  0  0  0  0  0  0  0  0
   44.3630   35.4450   43.3670 C   0  0  0  0  0  0  0  0  0  0  0  0
   44.6750   34.1860   42.8270 C   0  0  0  0  0  0  0  0  0  0  0  0
   45.1970   33.2570   43.6860 C   0  0  0  0  0  0  0  0  0  0  0  0
   45.3650   33.6140   44.9550 N   0  0  0  0  0  0  0  0  0  0  0  0
   45.0700   34.8040   45.4650 C   0  0  0  0  0  0  0  0  0  0  0  0
   44.5370   35.8050   44.6670 N   0  0  0  0  0  0  0  0  0  0  0  0
   43.9380   36.2900   42.8040 H   0  0  0  0  0  0  0  0  0  0  0  0
   45.4090   32.3160   43.1970 H   0  0  0  0  0  0  0  0  0  0  0  0
   45.2780   34.8920   46.5040 H   0  0  0  0  0  0  0  0  0  0  0  0
   42.5470   35.3010   40.2250 C   0  0  0  0  0  3  0  0  0  0  0  0
   41.5340   35.8260   40.9560 C   0  0  0  0  0  3  0  0  0  0  0  0
   40.1210   36.0570   40.4590 C   0  0  0  0  0  0  0  0  0  0  0  0
   40.1600   36.6400   39.5230 H   0  0  0  0  0  0  0  0  0  0  0  0
   39.6160   36.6480   41.2210 H   0  0  0  0  0  0  0  0  0  0  0  0
   39.5030   34.7160   40.2600 C   0  0  0  0  0  0  0  0  0  0  0  0
   38.9180   34.1940   39.1290 C   0  0  0  0  0  0  0  0  0  0  0  0
   38.8150   34.7000   38.1780 H   0  0  0  0  0  0  0  0  0  0  0  0
   38.5090   32.9140   39.4920 C   0  0  0  0  0  0  0  0  0  0  0  0
   38.0000   32.2070   38.8260 H   0  0  0  0  0  0  0  0  0  0  0  0
   38.8720   32.7340   40.8260 C   0  0  0  0  0  0  0  0  0  0  0  0
   38.6860   31.8320   41.3980 H   0  0  0  0  0  0  0  0  0  0  0  0
   39.4650   33.8360   41.2540 O   0  0  0  0  0  0  0  0  0  0  0  0
  1  2  1  0  0  0  0
  2  6  1  0  0  0  0
  3  2  1  0  0  0  0
  4  2  1  0  0  0  0
  5 10  1  0  0  0  0
  6  5  2  0  0  0  0
  6  7  1  0  0  0  0
  7  8  2  0  0  0  0
  8  9  1  0  0  0  0
  9 13  1  0  0  0  0
 10  9  2  0  0  0  0
 11  5  1  0  0  0  0
 12  7  1  0  0  0  0
 14  1  1  0  0  0  0
 14 15  2  0  0  0  0
 16 15  1  0  0  0  0
 16 18  1  0  0  0  0
 17 16  1  0  0  0  0
 19 16  1  0  0  0  0
 19 26  1  0  0  0  0
 20 22  1  0  0  0  0
 20 19  2  0  0  0  0
 21 20  1  0  0  0  0
 22 24  2  0  0  0  0
 23 22  1  0  0  0  0
 24 26  1  0  0  0  0
 24 25  1  0  0  0  0
M  END
>  <minimizedAffinity>
-4.67279768

>  <minimizedRMSD>
1.48979163

$$$$
