
 OpenBabel03252503343D

 21 22  0  0  0  0  0  0  0  0999 V2000
   46.8250   33.5410   41.0980 C   0  0  0  0  0  0  0  0  0  0  0  0
   45.6690   33.0500   41.2060 O   0  0  0  0  0  0  0  0  0  0  0  0
   47.2140   34.4220   42.1420 N   0  0  0  0  0  0  0  0  0  0  0  0
   48.1820   34.8500   42.1040 H   0  0  0  0  0  0  0  0  0  0  0  0
   44.6290   36.0670   44.2750 C   0  0  0  0  0  0  0  0  0  0  0  0
   45.4750   35.8320   43.1750 C   0  0  0  0  0  0  0  0  0  0  0  0
   46.3280   34.7280   43.2150 C   0  0  0  0  0  0  0  0  0  0  0  0
   46.3130   33.9200   44.3110 N   0  0  0  0  0  0  0  0  0  0  0  0
   45.4720   34.1860   45.3620 C   0  0  0  0  0  0  0  0  0  0  0  0
   44.6530   35.2410   45.3320 N   0  0  0  0  0  0  0  0  0  0  0  0
   44.0110   36.9510   44.1360 H   0  0  0  0  0  0  0  0  0  0  0  0
   45.4920   36.4700   42.2990 H   0  0  0  0  0  0  0  0  0  0  0  0
   45.4870   33.5170   46.2250 H   0  0  0  0  0  0  0  0  0  0  0  0
   47.6940   33.2180   39.9710 C   0  0  0  0  0  0  0  0  0  0  0  0
   47.7140   33.9480   38.8040 C   0  0  0  0  0  0  0  0  0  0  0  0
   47.1730   34.8200   38.4680 H   0  0  0  0  0  0  0  0  0  0  0  0
   48.6660   33.3090   38.0120 C   0  0  0  0  0  0  0  0  0  0  0  0
   49.0340   33.5140   37.0050 H   0  0  0  0  0  0  0  0  0  0  0  0
   49.1660   32.2280   38.7470 C   0  0  0  0  0  0  0  0  0  0  0  0
   49.9210   31.4680   38.5090 H   0  0  0  0  0  0  0  0  0  0  0  0
   48.5350   32.2390   39.9100 O   0  0  0  0  0  0  0  0  0  0  0  0
  1  2  2  0  0  0  0
  1  3  1  0  0  0  0
  3  7  1  0  0  0  0
  4  3  1  0  0  0  0
  5 10  1  0  0  0  0
  6  7  1  0  0  0  0
  6  5  2  0  0  0  0
  7  8  2  0  0  0  0
  8  9  1  0  0  0  0
  9 13  1  0  0  0  0
 10  9  2  0  0  0  0
 11  5  1  0  0  0  0
 12  6  1  0  0  0  0
 14  1  1  0  0  0  0
 15 14  2  0  0  0  0
 16 15  1  0  0  0  0
 17 19  2  0  0  0  0
 17 15  1  0  0  0  0
 18 17  1  0  0  0  0
 19 21  1  0  0  0  0
 20 19  1  0  0  0  0
 21 14  1  0  0  0  0
M  END
>  <minimizedAffinity>
-3.80807352

>  <minimizedRMSD>
0.920187771

$$$$
