
 OpenBabel03252509003D

 44 46  0  0  1  0  0  0  0  0999 V2000
   47.2560   33.8390   42.9490 N   0  0  0  0  0  0  0  0  0  0  0  0
   46.9470   35.1710   42.5740 C   0  0  0  0  0  0  0  0  0  0  0  0
   45.5170   35.5960   42.8410 C   0  0  0  0  0  0  0  0  0  0  0  0
   44.8900   34.9570   44.0500 C   0  0  0  0  0  0  0  0  0  0  0  0
   45.8850   34.1110   44.8070 C   0  0  0  0  0  0  0  0  0  0  0  0
   46.3890   33.0880   43.7230 C   0  0  2  0  0  0  0  0  0  0  0  0
   47.1860   35.4510   41.5420 H   0  0  0  0  0  0  0  0  0  0  0  0
   47.5940   35.8350   43.2100 H   0  0  0  0  0  0  0  0  0  0  0  0
   44.8980   35.4810   41.9270 H   0  0  0  0  0  0  0  0  0  0  0  0
   45.5110   36.6970   43.0400 H   0  0  0  0  0  0  0  0  0  0  0  0
   44.4820   35.6800   44.7720 H   0  0  0  0  0  0  0  0  0  0  0  0
   44.0690   34.2990   43.7270 H   0  0  0  0  0  0  0  0  0  0  0  0
   45.3620   33.5680   45.6030 H   0  0  0  0  0  0  0  0  0  0  0  0
   46.7680   34.6520   45.1460 H   0  0  0  0  0  0  0  0  0  0  0  0
   45.4980   32.6470   43.2330 H   0  0  0  0  0  0  0  0  0  0  0  0
   48.1370   33.1600   42.0390 C   0  0  0  0  0  0  0  0  0  0  0  0
   48.8860   33.9010   41.6770 H   0  0  0  0  0  0  0  0  0  0  0  0
   48.6790   32.3350   42.5450 H   0  0  0  0  0  0  0  0  0  0  0  0
   47.3140   32.5740   40.9320 C   0  0  0  0  0  0  0  0  0  0  0  0
   46.2770   33.0070   40.9290 H   0  0  0  0  0  0  0  0  0  0  0  0
   47.1930   31.4790   41.0030 H   0  0  0  0  0  0  0  0  0  0  0  0
   49.3080   32.3250   37.7600 C   0  0  0  0  0  0  0  0  0  0  0  0
   48.7220   31.9980   38.9970 C   0  0  0  0  0  0  0  0  0  0  0  0
   47.9280   32.9300   39.6270 C   0  0  0  0  0  0  0  0  0  0  0  0
   47.7550   34.1080   39.0220 N   0  0  0  0  0  0  0  0  0  0  0  0
   48.3180   34.4140   37.8400 C   0  0  0  0  0  0  0  0  0  0  0  0
   49.1030   33.5200   37.1970 N   0  0  0  0  0  0  0  0  0  0  0  0
   49.9310   31.6610   37.2160 H   0  0  0  0  0  0  0  0  0  0  0  0
   48.9450   31.0110   39.3750 H   0  0  0  0  0  0  0  0  0  0  0  0
   48.1550   35.3860   37.3740 H   0  0  0  0  0  0  0  0  0  0  0  0
   47.0650   32.1660   44.5070 O   0  0  0  0  0  0  0  0  0  0  0  0
   46.8770   29.6480   43.6710 O   0  0  0  0  0  0  0  0  0  0  0  0
   46.2650   30.6900   44.6150 P   0  0  2  0  0  0  0  0  0  0  0  0
   44.6930   30.9620   43.9870 O   0  0  0  0  0  0  0  0  0  0  0  0
   44.3660   31.8480   44.3060 H   0  0  0  0  0  0  0  0  0  0  0  0
   46.1070   30.1410   46.1650 O   0  0  0  0  0  0  0  0  0  0  0  0
   45.8920   30.8220   47.3320 C   0  0  0  0  0  0  0  0  0  0  0  0
   45.1660   30.2420   48.3770 C   0  0  0  0  0  0  0  0  0  0  0  0
   44.7080   29.2610   48.4210 H   0  0  0  0  0  0  0  0  0  0  0  0
   45.1540   31.2130   49.3800 C   0  0  0  0  0  0  0  0  0  0  0  0
   44.6400   31.0150   50.3340 H   0  0  0  0  0  0  0  0  0  0  0  0
   45.8650   32.3120   48.8910 C   0  0  0  0  0  0  0  0  0  0  0  0
   45.9430   33.1570   49.5620 H   0  0  0  0  0  0  0  0  0  0  0  0
   46.2770   32.0310   47.6820 O   0  0  0  0  0  0  0  0  0  0  0  0
  1  6  1  0  0  0  0
  2  3  1  0  0  0  0
  2  1  1  0  0  0  0
  2  8  1  0  0  0  0
  3 10  1  0  0  0  0
  3  4  1  0  0  0  0
  4 11  1  0  0  0  0
  4  5  1  0  0  0  0
  5 14  1  0  0  0  0
  5 13  1  0  0  0  0
  6 15  1  6  0  0  0
  6 31  1  0  0  0  0
  6  5  1  0  0  0  0
  7  2  1  0  0  0  0
  9  3  1  0  0  0  0
 12  4  1  0  0  0  0
 16 18  1  0  0  0  0
 16  1  1  0  0  0  0
 17 16  1  0  0  0  0
 19 21  1  0  0  0  0
 19 16  1  0  0  0  0
 20 19  1  0  0  0  0
 22 23  1  0  0  0  0
 23 29  1  0  0  0  0
 23 24  2  0  0  0  0
 24 19  1  0  0  0  0
 25 24  1  0  0  0  0
 26 25  2  0  0  0  0
 27 22  2  0  0  0  0
 27 26  1  0  0  0  0
 28 22  1  0  0  0  0
 30 26  1  0  0  0  0
 31 33  1  0  0  0  0
 33 32  2  6  0  0  0
 33 36  1  0  0  0  0
 34 35  1  0  0  0  0
 34 33  1  0  0  0  0
 36 37  1  0  0  0  0
 37 44  1  0  0  0  0
 37 38  2  0  0  0  0
 38 39  1  0  0  0  0
 38 40  1  0  0  0  0
 40 41  1  0  0  0  0
 42 40  2  0  0  0  0
 42 43  1  0  0  0  0
 44 42  1  0  0  0  0
M  END
>  <minimizedAffinity>
-4.88139248

>  <minimizedRMSD>
2.31782317

$$$$
