
 OpenBabel03252508503D

 27 29  0  0  0  0  0  0  0  0999 V2000
   45.9110   34.1960   41.0240 C   0  0  0  0  0  0  0  0  0  0  0  0
   46.5110   34.7970   42.1230 C   0  0  0  0  0  0  0  0  0  0  0  0
   47.8690   35.1370   41.9900 C   0  0  0  0  0  0  0  0  0  0  0  0
   48.4920   34.8580   40.8160 N   0  0  0  0  0  0  0  0  0  0  0  0
   47.8750   34.2810   39.7920 C   0  0  0  0  0  0  0  0  0  0  0  0
   46.5770   33.9450   39.8880 N   0  0  0  0  0  0  0  0  0  0  0  0
   48.3570   35.6000   42.8190 H   0  0  0  0  0  0  0  0  0  0  0  0
   48.3370   34.0420   38.8370 H   0  0  0  0  0  0  0  0  0  0  0  0
   45.7430   35.0470   43.3270 C   0  0  0  0  0  0  0  0  0  0  0  0
   45.0830   36.2320   43.5710 C   0  0  0  0  0  0  0  0  0  0  0  0
   44.5000   36.0400   44.8010 C   0  0  0  0  0  0  0  0  0  0  0  0
   44.7850   34.8120   45.2810 N   0  0  0  0  0  0  0  0  0  0  0  0
   45.5370   34.2330   44.3710 N   0  0  0  0  0  0  0  0  0  0  0  0
   44.9880   37.1440   42.9970 H   0  0  0  0  0  0  0  0  0  0  0  0
   43.8750   36.7010   45.4100 H   0  0  0  0  0  0  0  0  0  0  0  0
   44.5540   34.2780   46.1460 H   0  0  0  0  0  0  0  0  0  0  0  0
   44.5760   33.8490   41.1170 O   0  0  0  0  0  0  0  0  0  0  0  0
   43.5060   34.5030   40.5770 C   0  0  0  0  0  0  0  0  0  0  0  0
   43.1410   35.7120   40.8140 O   0  0  0  0  0  0  0  0  0  0  0  0
   42.5710   33.8730   39.5960 C   0  0  0  0  0  0  0  0  0  0  0  0
   42.7000   32.6360   38.9530 C   0  0  0  0  0  0  0  0  0  0  0  0
   43.5720   31.9890   39.1420 H   0  0  0  0  0  0  0  0  0  0  0  0
   41.6380   32.3890   38.1140 C   0  0  0  0  0  0  0  0  0  0  0  0
   41.4930   31.5100   37.5010 H   0  0  0  0  0  0  0  0  0  0  0  0
   40.8750   33.5230   38.2820 C   0  0  0  0  0  0  0  0  0  0  0  0
   39.9210   33.7100   37.7700 H   0  0  0  0  0  0  0  0  0  0  0  0
   41.4380   34.3200   39.1190 O   0  0  0  0  0  0  0  0  0  0  0  0
  1 17  1  0  0  0  0
  1  2  1  0  0  0  0
  2  9  1  0  0  0  0
  3  2  2  0  0  0  0
  3  7  1  0  0  0  0
  4  3  1  0  0  0  0
  5  6  1  0  0  0  0
  5  4  2  0  0  0  0
  6  1  2  0  0  0  0
  8  5  1  0  0  0  0
  9 10  1  0  0  0  0
  9 13  2  0  0  0  0
 10 11  2  0  0  0  0
 11 12  1  0  0  0  0
 11 15  1  0  0  0  0
 12 16  1  0  0  0  0
 13 12  1  0  0  0  0
 14 10  1  0  0  0  0
 18 19  2  0  0  0  0
 18 17  1  0  0  0  0
 20 18  1  0  0  0  0
 21 22  1  0  0  0  0
 21 20  2  0  0  0  0
 23 25  2  0  0  0  0
 23 21  1  0  0  0  0
 24 23  1  0  0  0  0
 25 27  1  0  0  0  0
 26 25  1  0  0  0  0
 27 20  1  0  0  0  0
M  END
>  <minimizedAffinity>
-5.06541681

>  <minimizedRMSD>
0.5490942

$$$$
