
 OpenBabel03252504283D

 26 27  0  0  0  0  0  0  0  0999 V2000
   43.2960   35.7430   41.4880 O   0  0  0  0  0  0  0  0  0  0  0  0
   44.4720   35.0500   41.6560 C   0  0  0  0  0  0  0  0  0  0  0  0
   45.3420   35.7460   41.3930 H   0  0  0  0  0  0  0  0  0  0  0  0
   44.4960   34.1540   41.0190 H   0  0  0  0  0  0  0  0  0  0  0  0
   44.4450   35.6590   43.9670 C   0  0  0  0  0  0  0  0  0  0  0  0
   44.7650   34.6480   43.0460 C   0  0  0  0  0  0  0  0  0  0  0  0
   45.2960   33.4930   43.5540 C   0  0  0  0  0  0  0  0  0  0  0  0
   45.4660   33.4170   44.8700 N   0  0  0  0  0  0  0  0  0  0  0  0
   45.1630   34.3740   45.7410 C   0  0  0  0  0  0  0  0  0  0  0  0
   44.6200   35.5760   45.3130 N   0  0  0  0  0  0  0  0  0  0  0  0
   44.0130   36.6380   43.7110 H   0  0  0  0  0  0  0  0  0  0  0  0
   45.5140   32.7660   42.7850 H   0  0  0  0  0  0  0  0  0  0  0  0
   45.3740   34.1190   46.7510 H   0  0  0  0  0  0  0  0  0  0  0  0
   42.0250   35.2180   41.3230 C   0  0  0  0  0  3  0  0  0  0  0  0
   41.0820   36.0770   40.8650 C   0  0  0  0  0  3  0  0  0  0  0  0
   39.6430   35.7140   40.5530 C   0  0  0  0  0  0  0  0  0  0  0  0
   39.1310   36.6000   40.1390 H   0  0  0  0  0  0  0  0  0  0  0  0
   39.1770   35.4500   41.5010 H   0  0  0  0  0  0  0  0  0  0  0  0
   39.6780   34.5820   39.5860 C   0  0  0  0  0  0  0  0  0  0  0  0
   39.9970   34.5990   38.2480 C   0  0  0  0  0  0  0  0  0  0  0  0
   40.2810   35.4730   37.6750 H   0  0  0  0  0  0  0  0  0  0  0  0
   39.8690   33.2760   37.8300 C   0  0  0  0  0  0  0  0  0  0  0  0
   40.0510   32.9230   36.8090 H   0  0  0  0  0  0  0  0  0  0  0  0
   39.4800   32.5340   38.9430 C   0  0  0  0  0  0  0  0  0  0  0  0
   39.2980   31.4650   38.9380 H   0  0  0  0  0  0  0  0  0  0  0  0
   39.3740   33.3500   39.9800 O   0  0  0  0  0  0  0  0  0  0  0  0
  1  2  1  0  0  0  0
  2  6  1  0  0  0  0
  3  2  1  0  0  0  0
  4  2  1  0  0  0  0
  5 10  1  0  0  0  0
  6  7  1  0  0  0  0
  6  5  2  0  0  0  0
  7  8  2  0  0  0  0
  8  9  1  0  0  0  0
  9 13  1  0  0  0  0
 10  9  2  0  0  0  0
 11  5  1  0  0  0  0
 12  7  1  0  0  0  0
 14  1  1  0  0  0  0
 15 14  2  0  0  0  0
 16 15  1  0  0  0  0
 16 18  1  0  0  0  0
 17 16  1  0  0  0  0
 19 26  1  0  0  0  0
 19 16  1  0  0  0  0
 20 19  2  0  0  0  0
 21 20  1  0  0  0  0
 22 20  1  0  0  0  0
 22 24  2  0  0  0  0
 23 22  1  0  0  0  0
 24 26  1  0  0  0  0
 25 24  1  0  0  0  0
M  END
>  <minimizedAffinity>
-4.34816313

>  <minimizedRMSD>
0.82240361

$$$$
