
 OpenBabel03252504143D

 34 36  0  0  0  0  0  0  0  0999 V2000
   47.6280   30.0390   44.8810 F   0  0  0  0  0  0  0  0  0  0  0  0
   47.5110   30.7960   46.0190 C   0  0  0  0  0  0  0  0  0  0  0  0
   46.9390   32.0430   45.9490 C   0  0  0  0  0  0  0  0  0  0  0  0
   46.8610   32.7410   47.1540 C   0  0  0  0  0  0  0  0  0  0  0  0
   47.3290   32.2070   48.3320 C   0  0  0  0  0  0  0  0  0  0  0  0
   47.8930   30.9420   48.3220 C   0  0  0  0  0  0  0  0  0  0  0  0
   48.0010   30.1980   47.1630 C   0  0  0  0  0  0  0  0  0  0  0  0
   46.4150   33.7380   47.1520 H   0  0  0  0  0  0  0  0  0  0  0  0
   47.2670   32.7480   49.2590 H   0  0  0  0  0  0  0  0  0  0  0  0
   48.2690   30.5000   49.2360 H   0  0  0  0  0  0  0  0  0  0  0  0
   48.5940   28.8640   47.1430 C   0  0  0  0  0  0  0  0  0  0  0  0
   47.8860   27.7130   47.4190 C   0  0  0  0  0  0  0  0  0  0  0  0
   46.8520   27.6550   47.6720 H   0  0  0  0  0  0  0  0  0  0  0  0
   48.8510   26.7160   47.2790 C   0  0  0  0  0  0  0  0  0  0  0  0
   48.6610   25.6510   47.4220 H   0  0  0  0  0  0  0  0  0  0  0  0
   50.0610   27.2990   46.9340 C   0  0  0  0  0  0  0  0  0  0  0  0
   51.0120   26.8160   46.7510 H   0  0  0  0  0  0  0  0  0  0  0  0
   49.8270   28.5950   46.8710 O   0  0  0  0  0  0  0  0  0  0  0  0
   46.7540   34.1470   42.9900 C   0  0  0  0  0  0  0  0  0  0  0  0
   45.5930   33.7280   42.3380 C   0  0  0  0  0  0  0  0  0  0  0  0
   44.8640   32.6910   42.9490 C   0  0  0  0  0  0  0  0  0  0  0  0
   45.3070   32.1530   44.1140 N   0  0  0  0  0  0  0  0  0  0  0  0
   46.4430   32.6050   44.6980 C   0  0  0  0  0  0  0  0  0  0  0  0
   47.1650   33.6000   44.1360 N   0  0  0  0  0  0  0  0  0  0  0  0
   43.9600   32.3430   42.4670 H   0  0  0  0  0  0  0  0  0  0  0  0
   45.1810   34.3660   41.0730 C   0  0  0  0  0  0  0  0  0  0  0  0
   44.8930   35.6930   41.2900 F   0  0  0  0  0  0  0  0  0  0  0  0
   46.2630   34.3180   40.2020 F   0  0  0  0  0  0  0  0  0  0  0  0
   44.1180   33.7880   40.4690 F   0  0  0  0  0  0  0  0  0  0  0  0
   47.4580   35.1530   42.3980 O   0  0  0  0  0  0  0  0  0  0  0  0
   48.7740   35.0700   41.8880 C   0  0  0  0  0  0  0  0  0  0  0  0
   49.6310   35.3260   42.9630 F   0  0  0  0  0  0  0  0  0  0  0  0
   48.9900   33.8470   41.3100 F   0  0  0  0  0  0  0  0  0  0  0  0
   49.0020   36.1120   41.0170 F   0  0  0  0  0  0  0  0  0  0  0  0
  1  2  1  0  0  0  0
  2  7  1  0  0  0  0
  3  2  2  0  0  0  0
  3  4  1  0  0  0  0
  4  5  2  0  0  0  0
  5  9  1  0  0  0  0
  6  5  1  0  0  0  0
  6 10  1  0  0  0  0
  7  6  2  0  0  0  0
  8  4  1  0  0  0  0
 11  7  1  0  0  0  0
 11 12  2  0  0  0  0
 12 13  1  0  0  0  0
 14 12  1  0  0  0  0
 14 15  1  0  0  0  0
 16 14  2  0  0  0  0
 17 16  1  0  0  0  0
 18 16  1  0  0  0  0
 18 11  1  0  0  0  0
 19 24  1  0  0  0  0
 20 21  1  0  0  0  0
 20 19  2  0  0  0  0
 21 22  2  0  0  0  0
 22 23  1  0  0  0  0
 23  3  1  0  0  0  0
 24 23  2  0  0  0  0
 25 21  1  0  0  0  0
 26 27  1  0  0  0  0
 26 20  1  0  0  0  0
 28 26  1  0  0  0  0
 29 26  1  0  0  0  0
 30 19  1  0  0  0  0
 31 30  1  0  0  0  0
 31 32  1  0  0  0  0
 33 31  1  0  0  0  0
 34 31  1  0  0  0  0
M  END
>  <minimizedAffinity>
-5.50710392

>  <minimizedRMSD>
0.484545648

$$$$
