
     RDKit          3D

 26 28  0  0  0  0  0  0  0  0999 V2000
   45.6217   33.9540   45.4453 C   0  0  0  0  0  0  0  0  0  0  0  0
   44.7141   34.9974   45.6927 C   0  0  0  0  0  0  0  0  0  0  0  0
   44.5279   35.9486   44.6903 C   0  0  0  0  0  0  0  0  0  0  0  0
   45.2328   35.8249   43.5170 N   0  0  0  0  0  0  0  0  0  0  0  0
   46.0960   34.7990   43.3295 C   0  0  0  0  0  0  0  0  0  0  0  0
   46.2958   33.8681   44.2770 N   0  0  0  0  0  0  0  0  0  0  0  0
   46.8161   34.7131   42.0730 C   0  0  0  0  0  0  0  0  0  0  0  0
   48.0065   35.4081   41.9016 C   0  0  0  0  0  0  0  0  0  0  0  0
   48.7751   35.4019   40.7553 C   0  0  0  0  0  0  0  0  0  0  0  0
   48.2563   34.6165   39.7314 C   0  0  0  0  0  0  0  0  0  0  0  0
   47.0693   33.9157   39.8843 C   0  0  0  0  0  0  0  0  0  0  0  0
   46.3674   33.9738   41.0507 N   0  0  0  0  0  0  0  0  0  0  0  0
   44.1933   35.0271   46.6477 H   0  0  0  0  0  0  0  0  0  0  0  0
   43.8340   36.7630   44.8556 H   0  0  0  0  0  0  0  0  0  0  0  0
   48.3416   35.9960   42.7467 H   0  0  0  0  0  0  0  0  0  0  0  0
   49.6929   35.9694   40.6954 H   0  0  0  0  0  0  0  0  0  0  0  0
   48.8084   34.5661   38.8033 H   0  0  0  0  0  0  0  0  0  0  0  0
   46.7395   33.3292   39.0350 H   0  0  0  0  0  0  0  0  0  0  0  0
   45.8492   32.9352   46.4653 C   0  0  0  0  0  0  0  0  0  0  0  0
   44.8573   32.2994   47.1986 C   0  0  0  0  0  0  0  0  0  0  0  0
   43.7817   32.4387   47.1485 H   0  0  0  0  0  0  0  0  0  0  0  0
   45.4579   31.4029   48.0620 C   0  0  0  0  0  0  0  0  0  0  0  0
   45.0489   30.7241   48.7895 H   0  0  0  0  0  0  0  0  0  0  0  0
   46.7949   31.5262   47.8220 C   0  0  0  0  0  0  0  0  0  0  0  0
   47.6684   31.0584   48.2245 H   0  0  0  0  0  0  0  0  0  0  0  0
   46.9905   32.4163   46.8971 O   0  0  0  0  0  0  0  0  0  0  0  0
  1  2  2  0
  3  2  1  0
  4  3  2  0
  5  4  1  0
  5  6  2  0
  6  1  1  0
  7  5  1  0
  8  7  2  0
  9  8  1  0
 10 11  1  0
 10  9  2  0
 11 12  2  0
 12  7  1  0
  2 13  1  0
  3 14  1  0
  8 15  1  0
  9 16  1  0
 10 17  1  0
 11 18  1  0
 19 20  2  0
 20 21  1  0
 20 22  1  0
 22 23  1  0
 22 24  2  0
 24 25  1  0
 24 26  1  0
 26 19  1  0
  1 19  1  0
M  ISO  8  13  14  14  14  15  14  16  14  17  14  18  14  21  16  23  16
M  ISO  1  25  14
M  END
>  <DihAtoms>  (1) 
1,0,18,19

>  <DihDeg>  (1) 
-0.00034912750529736815

$$$$
