
 OpenBabel03252501263D

 34 37  0  0  0  0  0  0  0  0999 V2000
   37.5850   27.8640   39.7230 F   0  0  0  0  0  0  0  0  0  0  0  0
   37.5150   27.9250   41.0500 C   0  0  0  0  0  0  0  0  0  0  0  0
   37.6080   29.1470   41.6740 C   0  0  0  0  0  0  0  0  0  0  0  0
   37.5370   29.2450   43.0660 C   0  0  0  0  0  0  0  0  0  0  0  0
   37.3750   28.1320   43.8560 C   0  0  0  0  0  0  0  0  0  0  0  0
   37.2860   26.9370   43.2170 C   0  0  0  0  0  0  0  0  0  0  0  0
   37.3520   26.8020   41.8270 C   0  0  0  0  0  0  0  0  0  0  0  0
   37.6090   30.2030   43.5720 H   0  0  0  0  0  0  0  0  0  0  0  0
   37.3200   28.1940   44.9340 H   0  0  0  0  0  0  0  0  0  0  0  0
   37.1580   26.0460   43.8230 H   0  0  0  0  0  0  0  0  0  0  0  0
   37.2450   25.4650   41.2550 C   0  0  0  0  0  0  0  0  0  0  0  0
   37.9400   24.3230   41.5920 C   0  0  0  0  0  0  0  0  0  0  0  0
   38.6920   24.2010   42.3410 H   0  0  0  0  0  0  0  0  0  0  0  0
   37.5240   23.2700   40.7960 C   0  0  0  0  0  0  0  0  0  0  0  0
   37.8130   22.2250   40.7410 H   0  0  0  0  0  0  0  0  0  0  0  0
   36.5640   23.8380   39.9830 C   0  0  0  0  0  0  0  0  0  0  0  0
   36.0040   23.3210   39.2190 H   0  0  0  0  0  0  0  0  0  0  0  0
   36.4400   25.1030   40.2870 O   0  0  0  0  0  0  0  0  0  0  0  0
   38.8600   31.9880   40.0030 C   0  0  0  0  0  0  0  0  0  0  0  0
   37.5090   32.2710   39.9990 C   0  0  0  0  0  0  0  0  0  0  0  0
   36.8460   31.2640   40.6160 C   0  0  0  0  0  0  0  0  0  0  0  0
   37.7750   30.3670   40.9970 N   0  0  0  0  0  0  0  0  0  0  0  0
   38.9900   30.8100   40.6240 N   0  0  0  0  0  0  0  0  0  0  0  0
   37.0180   33.1520   39.5780 H   0  0  0  0  0  0  0  0  0  0  0  0
   35.7800   31.1840   40.7760 H   0  0  0  0  0  0  0  0  0  0  0  0
   41.2090   34.7600   39.5410 C   0  0  0  0  0  0  0  0  0  0  0  0
   41.8660   34.4020   38.3390 C   0  0  0  0  0  0  0  0  0  0  0  0
   41.4910   33.2180   37.7090 C   0  0  0  0  0  0  0  0  0  0  0  0
   40.5170   32.4840   38.2940 N   0  0  0  0  0  0  0  0  0  0  0  0
   39.8990   32.8290   39.4350 C   0  0  0  0  0  0  0  0  0  0  0  0
   40.2440   33.9700   40.0630 N   0  0  0  0  0  0  0  0  0  0  0  0
   41.4780   35.6670   40.0480 H   0  0  0  0  0  0  0  0  0  0  0  0
   42.6300   35.0380   37.9370 H   0  0  0  0  0  0  0  0  0  0  0  0
   41.9690   32.9080   36.7870 H   0  0  0  0  0  0  0  0  0  0  0  0
  1  2  1  0  0  0  0
  2  3  2  0  0  0  0
  2  7  1  0  0  0  0
  3  4  1  0  0  0  0
  4  8  1  0  0  0  0
  4  5  2  0  0  0  0
  5  9  1  0  0  0  0
  6 10  1  0  0  0  0
  6  5  1  0  0  0  0
  7  6  2  0  0  0  0
 11 12  2  0  0  0  0
 11  7  1  0  0  0  0
 12 13  1  0  0  0  0
 14 12  1  0  0  0  0
 15 14  1  0  0  0  0
 16 18  1  0  0  0  0
 16 14  2  0  0  0  0
 17 16  1  0  0  0  0
 18 11  1  0  0  0  0
 19 23  2  0  0  0  0
 20 19  1  0  0  0  0
 20 21  2  0  0  0  0
 21 25  1  0  0  0  0
 21 22  1  0  0  0  0
 22  3  1  0  0  0  0
 23 22  1  0  0  0  0
 24 20  1  0  0  0  0
 26 32  1  0  0  0  0
 26 31  1  0  0  0  0
 27 26  2  0  0  0  0
 28 29  2  0  0  0  0
 28 27  1  0  0  0  0
 29 30  1  0  0  0  0
 30 19  1  0  0  0  0
 30 31  2  0  0  0  0
 33 27  1  0  0  0  0
 34 28  1  0  0  0  0
M  END
>  <minimizedAffinity>
-6.06779528

$$$$

 OpenBabel03252501263D

 34 37  0  0  0  0  0  0  0  0999 V2000
   37.8010   27.8170   39.7330 F   0  0  0  0  0  0  0  0  0  0  0  0
   37.6010   27.7950   41.0480 C   0  0  0  0  0  0  0  0  0  0  0  0
   37.5330   28.9810   41.7400 C   0  0  0  0  0  0  0  0  0  0  0  0
   37.3230   28.9900   43.1210 C   0  0  0  0  0  0  0  0  0  0  0  0
   37.1790   27.8240   43.8330 C   0  0  0  0  0  0  0  0  0  0  0  0
   37.2490   26.6650   43.1280 C   0  0  0  0  0  0  0  0  0  0  0  0
   37.4580   26.6190   41.7460 C   0  0  0  0  0  0  0  0  0  0  0  0
   37.2670   29.9200   43.6810 H   0  0  0  0  0  0  0  0  0  0  0  0
   37.0170   27.8180   44.9020 H   0  0  0  0  0  0  0  0  0  0  0  0
   37.1370   25.7330   43.6720 H   0  0  0  0  0  0  0  0  0  0  0  0
   37.5150   25.3130   41.0990 C   0  0  0  0  0  0  0  0  0  0  0  0
   36.5820   24.2990   41.1160 C   0  0  0  0  0  0  0  0  0  0  0  0
   35.6340   24.2770   41.6090 H   0  0  0  0  0  0  0  0  0  0  0  0
   37.0400   23.2290   40.3660 C   0  0  0  0  0  0  0  0  0  0  0  0
   36.6180   22.2560   40.1310 H   0  0  0  0  0  0  0  0  0  0  0  0
   38.2720   23.6540   39.9130 C   0  0  0  0  0  0  0  0  0  0  0  0
   38.9410   23.0840   39.2870 H   0  0  0  0  0  0  0  0  0  0  0  0
   38.4990   24.8610   40.3620 O   0  0  0  0  0  0  0  0  0  0  0  0
   38.6990   31.9640   40.2660 C   0  0  0  0  0  0  0  0  0  0  0  0
   37.3390   32.2050   40.2770 C   0  0  0  0  0  0  0  0  0  0  0  0
   36.7070   31.1400   40.8240 C   0  0  0  0  0  0  0  0  0  0  0  0
   37.6630   30.2480   41.1460 N   0  0  0  0  0  0  0  0  0  0  0  0
   38.8640   30.7510   40.8070 N   0  0  0  0  0  0  0  0  0  0  0  0
   36.8210   33.0970   39.9150 H   0  0  0  0  0  0  0  0  0  0  0  0
   35.6440   31.0160   40.9750 H   0  0  0  0  0  0  0  0  0  0  0  0
   41.3200   33.4000   38.1480 C   0  0  0  0  0  0  0  0  0  0  0  0
   41.6210   34.6090   38.8190 C   0  0  0  0  0  0  0  0  0  0  0  0
   40.9210   34.9100   39.9860 C   0  0  0  0  0  0  0  0  0  0  0  0
   39.9920   34.0190   40.4000 N   0  0  0  0  0  0  0  0  0  0  0  0
   39.7110   32.8730   39.7580 C   0  0  0  0  0  0  0  0  0  0  0  0
   40.3750   32.5600   38.6290 N   0  0  0  0  0  0  0  0  0  0  0  0
   41.8440   33.1430   37.2480 H   0  0  0  0  0  0  0  0  0  0  0  0
   42.3730   35.2650   38.4270 H   0  0  0  0  0  0  0  0  0  0  0  0
   41.1220   35.8250   40.5290 H   0  0  0  0  0  0  0  0  0  0  0  0
  1  2  1  0  0  0  0
  2  3  2  0  0  0  0
  2  7  1  0  0  0  0
  3  4  1  0  0  0  0
  4  8  1  0  0  0  0
  4  5  2  0  0  0  0
  5  9  1  0  0  0  0
  6 10  1  0  0  0  0
  6  5  1  0  0  0  0
  7  6  2  0  0  0  0
 11 12  2  0  0  0  0
 11  7  1  0  0  0  0
 12 13  1  0  0  0  0
 14 12  1  0  0  0  0
 15 14  1  0  0  0  0
 16 18  1  0  0  0  0
 16 14  2  0  0  0  0
 17 16  1  0  0  0  0
 18 11  1  0  0  0  0
 19 20  1  0  0  0  0
 19 23  2  0  0  0  0
 20 21  2  0  0  0  0
 21 25  1  0  0  0  0
 21 22  1  0  0  0  0
 22  3  1  0  0  0  0
 23 22  1  0  0  0  0
 24 20  1  0  0  0  0
 26 31  2  0  0  0  0
 26 27  1  0  0  0  0
 27 28  2  0  0  0  0
 28 29  1  0  0  0  0
 28 34  1  0  0  0  0
 30 19  1  0  0  0  0
 30 29  2  0  0  0  0
 31 30  1  0  0  0  0
 32 26  1  0  0  0  0
 33 27  1  0  0  0  0
M  END
>  <minimizedAffinity>
-6.0121274

$$$$

 OpenBabel03252501263D

 34 37  0  0  0  0  0  0  0  0999 V2000
   39.3030   26.8620   40.7900 F   0  0  0  0  0  0  0  0  0  0  0  0
   38.3950   27.0470   41.7450 C   0  0  0  0  0  0  0  0  0  0  0  0
   38.4130   28.2110   42.4750 C   0  0  0  0  0  0  0  0  0  0  0  0
   37.4720   28.4350   43.4840 C   0  0  0  0  0  0  0  0  0  0  0  0
   36.5040   27.5070   43.7810 C   0  0  0  0  0  0  0  0  0  0  0  0
   36.5060   26.3640   43.0460 C   0  0  0  0  0  0  0  0  0  0  0  0
   37.4310   26.1080   42.0290 C   0  0  0  0  0  0  0  0  0  0  0  0
   37.4740   29.3500   44.0700 H   0  0  0  0  0  0  0  0  0  0  0  0
   35.7700   27.6670   44.5600 H   0  0  0  0  0  0  0  0  0  0  0  0
   35.7490   25.6180   43.2640 H   0  0  0  0  0  0  0  0  0  0  0  0
   37.3340   24.8440   41.3080 C   0  0  0  0  0  0  0  0  0  0  0  0
   38.1880   23.7630   41.3410 C   0  0  0  0  0  0  0  0  0  0  0  0
   39.0890   23.6450   41.9040 H   0  0  0  0  0  0  0  0  0  0  0  0
   37.7170   22.7680   40.5010 C   0  0  0  0  0  0  0  0  0  0  0  0
   38.0860   21.7800   40.2460 H   0  0  0  0  0  0  0  0  0  0  0  0
   36.5600   23.3070   39.9780 C   0  0  0  0  0  0  0  0  0  0  0  0
   35.9040   22.8200   39.2730 H   0  0  0  0  0  0  0  0  0  0  0  0
   36.3830   24.5040   40.4740 O   0  0  0  0  0  0  0  0  0  0  0  0
   40.0960   31.1690   41.5530 C   0  0  0  0  0  0  0  0  0  0  0  0
   41.0850   30.5330   42.2760 C   0  0  0  0  0  0  0  0  0  0  0  0
   40.6110   29.3460   42.7240 C   0  0  0  0  0  0  0  0  0  0  0  0
   39.3420   29.2470   42.2840 N   0  0  0  0  0  0  0  0  0  0  0  0
   39.0360   30.3510   41.5770 N   0  0  0  0  0  0  0  0  0  0  0  0
   42.0970   30.8950   42.4750 H   0  0  0  0  0  0  0  0  0  0  0  0
   41.1370   28.6130   43.3190 H   0  0  0  0  0  0  0  0  0  0  0  0
   39.2660   34.4970   40.2700 C   0  0  0  0  0  0  0  0  0  0  0  0
   40.4890   34.9110   39.6900 C   0  0  0  0  0  0  0  0  0  0  0  0
   41.5760   34.0400   39.7480 C   0  0  0  0  0  0  0  0  0  0  0  0
   41.3860   32.8500   40.3620 N   0  0  0  0  0  0  0  0  0  0  0  0
   40.2220   32.4650   40.9110 C   0  0  0  0  0  0  0  0  0  0  0  0
   39.1580   33.2880   40.8660 N   0  0  0  0  0  0  0  0  0  0  0  0
   38.4130   35.1470   40.2390 H   0  0  0  0  0  0  0  0  0  0  0  0
   40.5600   35.8720   39.2200 H   0  0  0  0  0  0  0  0  0  0  0  0
   42.5290   34.3190   39.3160 H   0  0  0  0  0  0  0  0  0  0  0  0
  1  2  1  0  0  0  0
  2  7  2  0  0  0  0
  2  3  1  0  0  0  0
  3  4  2  0  0  0  0
  4  5  1  0  0  0  0
  4  8  1  0  0  0  0
  5  9  1  0  0  0  0
  6 10  1  0  0  0  0
  6  5  2  0  0  0  0
  7  6  1  0  0  0  0
 11 12  2  0  0  0  0
 11  7  1  0  0  0  0
 12 13  1  0  0  0  0
 14 12  1  0  0  0  0
 15 14  1  0  0  0  0
 16 18  1  0  0  0  0
 16 14  2  0  0  0  0
 17 16  1  0  0  0  0
 18 11  1  0  0  0  0
 19 23  2  0  0  0  0
 19 20  1  0  0  0  0
 20 24  1  0  0  0  0
 20 21  2  0  0  0  0
 21 25  1  0  0  0  0
 22  3  1  0  0  0  0
 22 21  1  0  0  0  0
 23 22  1  0  0  0  0
 26 31  1  0  0  0  0
 27 28  1  0  0  0  0
 27 26  2  0  0  0  0
 28 29  2  0  0  0  0
 29 30  1  0  0  0  0
 30 19  1  0  0  0  0
 31 30  2  0  0  0  0
 32 26  1  0  0  0  0
 33 27  1  0  0  0  0
 34 28  1  0  0  0  0
M  END
>  <minimizedAffinity>
-5.76961327

$$$$

 OpenBabel03252501263D

 34 37  0  0  0  0  0  0  0  0999 V2000
   37.6900   26.9560   39.0520 F   0  0  0  0  0  0  0  0  0  0  0  0
   37.3900   26.9120   40.3470 C   0  0  0  0  0  0  0  0  0  0  0  0
   37.1280   28.0830   41.0180 C   0  0  0  0  0  0  0  0  0  0  0  0
   36.8090   28.0690   42.3780 C   0  0  0  0  0  0  0  0  0  0  0  0
   36.7460   26.8950   43.0890 C   0  0  0  0  0  0  0  0  0  0  0  0
   37.0080   25.7510   42.4040 C   0  0  0  0  0  0  0  0  0  0  0  0
   37.3300   25.7280   41.0440 C   0  0  0  0  0  0  0  0  0  0  0  0
   36.6000   28.9870   42.9220 H   0  0  0  0  0  0  0  0  0  0  0  0
   36.5010   26.8710   44.1420 H   0  0  0  0  0  0  0  0  0  0  0  0
   36.9630   24.8130   42.9480 H   0  0  0  0  0  0  0  0  0  0  0  0
   37.5920   24.4370   40.4170 C   0  0  0  0  0  0  0  0  0  0  0  0
   36.7630   23.3400   40.3210 C   0  0  0  0  0  0  0  0  0  0  0  0
   35.7660   23.2270   40.6890 H   0  0  0  0  0  0  0  0  0  0  0  0
   37.4110   22.3220   39.6430 C   0  0  0  0  0  0  0  0  0  0  0  0
   37.1160   21.3160   39.3620 H   0  0  0  0  0  0  0  0  0  0  0  0
   38.6460   22.8640   39.3480 C   0  0  0  0  0  0  0  0  0  0  0  0
   39.4400   22.3630   38.8160 H   0  0  0  0  0  0  0  0  0  0  0  0
   38.6990   24.0840   39.8150 O   0  0  0  0  0  0  0  0  0  0  0  0
   37.9320   31.3510   39.9690 C   0  0  0  0  0  0  0  0  0  0  0  0
   36.7450   31.1550   39.2910 C   0  0  0  0  0  0  0  0  0  0  0  0
   36.2710   29.9200   39.5780 C   0  0  0  0  0  0  0  0  0  0  0  0
   37.1550   29.3550   40.4230 N   0  0  0  0  0  0  0  0  0  0  0  0
   38.1560   30.2250   40.6560 N   0  0  0  0  0  0  0  0  0  0  0  0
   36.2390   31.8590   38.6240 H   0  0  0  0  0  0  0  0  0  0  0  0
   35.3640   29.4640   39.2070 H   0  0  0  0  0  0  0  0  0  0  0  0
   40.7960   33.5830   39.4910 C   0  0  0  0  0  0  0  0  0  0  0  0
   40.2540   34.8470   39.8290 C   0  0  0  0  0  0  0  0  0  0  0  0
   38.9170   34.9100   40.2160 C   0  0  0  0  0  0  0  0  0  0  0  0
   38.2220   33.7500   40.2410 N   0  0  0  0  0  0  0  0  0  0  0  0
   38.7430   32.5550   39.9170 C   0  0  0  0  0  0  0  0  0  0  0  0
   40.0330   32.4680   39.5410 N   0  0  0  0  0  0  0  0  0  0  0  0
   41.8230   33.5050   39.1900 H   0  0  0  0  0  0  0  0  0  0  0  0
   40.8710   35.7220   39.7850 H   0  0  0  0  0  0  0  0  0  0  0  0
   38.4650   35.8570   40.4840 H   0  0  0  0  0  0  0  0  0  0  0  0
  1  2  1  0  0  0  0
  2  3  2  0  0  0  0
  2  7  1  0  0  0  0
  3  4  1  0  0  0  0
  4  8  1  0  0  0  0
  4  5  2  0  0  0  0
  5  9  1  0  0  0  0
  6 10  1  0  0  0  0
  6  5  1  0  0  0  0
  7  6  2  0  0  0  0
 11  7  1  0  0  0  0
 12 11  2  0  0  0  0
 12 13  1  0  0  0  0
 14 12  1  0  0  0  0
 15 14  1  0  0  0  0
 16 14  2  0  0  0  0
 16 18  1  0  0  0  0
 17 16  1  0  0  0  0
 18 11  1  0  0  0  0
 19 23  2  0  0  0  0
 20 21  2  0  0  0  0
 20 19  1  0  0  0  0
 21 22  1  0  0  0  0
 22 23  1  0  0  0  0
 22  3  1  0  0  0  0
 24 20  1  0  0  0  0
 25 21  1  0  0  0  0
 26 31  2  0  0  0  0
 26 27  1  0  0  0  0
 27 28  2  0  0  0  0
 28 29  1  0  0  0  0
 28 34  1  0  0  0  0
 30 19  1  0  0  0  0
 30 29  2  0  0  0  0
 31 30  1  0  0  0  0
 32 26  1  0  0  0  0
 33 27  1  0  0  0  0
M  END
>  <minimizedAffinity>
-5.60684061

$$$$

 OpenBabel03252501263D

 34 37  0  0  0  0  0  0  0  0999 V2000
   40.4750   30.8250   41.2320 F   0  0  0  0  0  0  0  0  0  0  0  0
   39.3690   31.4190   40.7910 C   0  0  0  0  0  0  0  0  0  0  0  0
   38.1540   30.8030   40.9800 C   0  0  0  0  0  0  0  0  0  0  0  0
   36.9740   31.4010   40.5300 C   0  0  0  0  0  0  0  0  0  0  0  0
   36.9850   32.6160   39.8870 C   0  0  0  0  0  0  0  0  0  0  0  0
   38.1970   33.2040   39.7130 C   0  0  0  0  0  0  0  0  0  0  0  0
   39.3970   32.6350   40.1500 C   0  0  0  0  0  0  0  0  0  0  0  0
   36.0070   30.9270   40.6720 H   0  0  0  0  0  0  0  0  0  0  0  0
   36.0790   33.0890   39.5330 H   0  0  0  0  0  0  0  0  0  0  0  0
   38.2270   34.1640   39.2070 H   0  0  0  0  0  0  0  0  0  0  0  0
   40.6370   33.3620   39.9050 C   0  0  0  0  0  0  0  0  0  0  0  0
   41.2140   33.7030   38.7010 C   0  0  0  0  0  0  0  0  0  0  0  0
   40.8600   33.5000   37.7140 H   0  0  0  0  0  0  0  0  0  0  0  0
   42.3930   34.3930   38.9260 C   0  0  0  0  0  0  0  0  0  0  0  0
   43.1330   34.8290   38.2620 H   0  0  0  0  0  0  0  0  0  0  0  0
   42.4830   34.4410   40.3020 C   0  0  0  0  0  0  0  0  0  0  0  0
   43.2790   34.9060   40.8630 H   0  0  0  0  0  0  0  0  0  0  0  0
   41.4470   33.8330   40.8200 O   0  0  0  0  0  0  0  0  0  0  0  0
   37.8500   27.3850   41.7860 C   0  0  0  0  0  0  0  0  0  0  0  0
   37.6830   27.9520   43.0330 C   0  0  0  0  0  0  0  0  0  0  0  0
   37.7700   29.2980   42.9220 C   0  0  0  0  0  0  0  0  0  0  0  0
   37.9890   29.5640   41.6200 N   0  0  0  0  0  0  0  0  0  0  0  0
   38.0360   28.4040   40.9380 N   0  0  0  0  0  0  0  0  0  0  0  0
   37.5070   27.4320   43.9790 H   0  0  0  0  0  0  0  0  0  0  0  0
   37.6840   30.0280   43.7140 H   0  0  0  0  0  0  0  0  0  0  0  0
   38.8620   23.8720   41.5600 C   0  0  0  0  0  0  0  0  0  0  0  0
   37.7410   23.2740   40.9360 C   0  0  0  0  0  0  0  0  0  0  0  0
   36.6590   24.0860   40.6030 C   0  0  0  0  0  0  0  0  0  0  0  0
   36.7540   25.4020   40.9030 N   0  0  0  0  0  0  0  0  0  0  0  0
   37.8210   25.9620   41.4960 C   0  0  0  0  0  0  0  0  0  0  0  0
   38.8790   25.1980   41.8270 N   0  0  0  0  0  0  0  0  0  0  0  0
   39.7100   23.2700   41.8270 H   0  0  0  0  0  0  0  0  0  0  0  0
   37.7410   22.2220   40.7310 H   0  0  0  0  0  0  0  0  0  0  0  0
   35.7820   23.6680   40.1250 H   0  0  0  0  0  0  0  0  0  0  0  0
  2  3  1  0  0  0  0
  2  1  1  0  0  0  0
  3 22  1  0  0  0  0
  4  8  1  0  0  0  0
  4  3  2  0  0  0  0
  5  4  1  0  0  0  0
  6  5  2  0  0  0  0
  6  7  1  0  0  0  0
  7  2  2  0  0  0  0
  9  5  1  0  0  0  0
 10  6  1  0  0  0  0
 11  7  1  0  0  0  0
 11 18  1  0  0  0  0
 12 14  1  0  0  0  0
 12 11  2  0  0  0  0
 13 12  1  0  0  0  0
 14 16  2  0  0  0  0
 15 14  1  0  0  0  0
 16 18  1  0  0  0  0
 16 17  1  0  0  0  0
 19 20  1  0  0  0  0
 20 24  1  0  0  0  0
 21 20  2  0  0  0  0
 21 25  1  0  0  0  0
 22 21  1  0  0  0  0
 23 22  1  0  0  0  0
 23 19  2  0  0  0  0
 26 31  1  0  0  0  0
 26 32  1  0  0  0  0
 27 26  2  0  0  0  0
 28 29  2  0  0  0  0
 28 27  1  0  0  0  0
 29 30  1  0  0  0  0
 30 19  1  0  0  0  0
 30 31  2  0  0  0  0
 33 27  1  0  0  0  0
 34 28  1  0  0  0  0
M  END
>  <minimizedAffinity>
-5.44957638

$$$$

 OpenBabel03252501263D

 34 37  0  0  0  0  0  0  0  0999 V2000
   32.9860   29.1780   38.8750 F   0  0  0  0  0  0  0  0  0  0  0  0
   33.2200   28.9590   37.5840 C   0  0  0  0  0  0  0  0  0  0  0  0
   34.2770   28.1590   37.2180 C   0  0  0  0  0  0  0  0  0  0  0  0
   34.5490   27.9090   35.8700 C   0  0  0  0  0  0  0  0  0  0  0  0
   33.7760   28.4490   34.8700 C   0  0  0  0  0  0  0  0  0  0  0  0
   32.7380   29.2350   35.2570 C   0  0  0  0  0  0  0  0  0  0  0  0
   32.4370   29.5060   36.5950 C   0  0  0  0  0  0  0  0  0  0  0  0
   35.3800   27.2790   35.5660 H   0  0  0  0  0  0  0  0  0  0  0  0
   33.9760   28.2640   33.8230 H   0  0  0  0  0  0  0  0  0  0  0  0
   32.1150   29.6710   34.4820 H   0  0  0  0  0  0  0  0  0  0  0  0
   31.2960   30.3660   36.8870 C   0  0  0  0  0  0  0  0  0  0  0  0
   30.8320   31.4540   36.1810 C   0  0  0  0  0  0  0  0  0  0  0  0
   31.2220   31.8760   35.2800 H   0  0  0  0  0  0  0  0  0  0  0  0
   29.7180   31.9810   36.8120 C   0  0  0  0  0  0  0  0  0  0  0  0
   29.0690   32.8220   36.5860 H   0  0  0  0  0  0  0  0  0  0  0  0
   29.5500   31.1640   37.9110 C   0  0  0  0  0  0  0  0  0  0  0  0
   28.7730   31.2620   38.6530 H   0  0  0  0  0  0  0  0  0  0  0  0
   30.4840   30.2480   37.9080 O   0  0  0  0  0  0  0  0  0  0  0  0
   36.3970   27.3600   39.9190 C   0  0  0  0  0  0  0  0  0  0  0  0
   36.4620   26.1870   39.1940 C   0  0  0  0  0  0  0  0  0  0  0  0
   35.6900   26.3080   38.0880 C   0  0  0  0  0  0  0  0  0  0  0  0
   35.1510   27.5410   38.1280 N   0  0  0  0  0  0  0  0  0  0  0  0
   35.5810   28.1720   39.2360 N   0  0  0  0  0  0  0  0  0  0  0  0
   37.0330   25.2870   39.4390 H   0  0  0  0  0  0  0  0  0  0  0  0
   35.5280   25.5670   37.3180 H   0  0  0  0  0  0  0  0  0  0  0  0
   38.3170   26.8270   42.9920 C   0  0  0  0  0  0  0  0  0  0  0  0
   38.3960   28.1340   43.5290 C   0  0  0  0  0  0  0  0  0  0  0  0
   37.7890   29.1740   42.8290 C   0  0  0  0  0  0  0  0  0  0  0  0
   37.1610   28.8610   41.6720 N   0  0  0  0  0  0  0  0  0  0  0  0
   37.0910   27.6180   41.1680 C   0  0  0  0  0  0  0  0  0  0  0  0
   37.6690   26.5960   41.8270 N   0  0  0  0  0  0  0  0  0  0  0  0
   38.7750   26.0070   43.5110 H   0  0  0  0  0  0  0  0  0  0  0  0
   38.9120   28.3020   44.4540 H   0  0  0  0  0  0  0  0  0  0  0  0
   37.8260   30.1890   43.2060 H   0  0  0  0  0  0  0  0  0  0  0  0
  2  1  1  0  0  0  0
  3  2  1  0  0  0  0
  3 22  1  0  0  0  0
  4  3  2  0  0  0  0
  5  6  2  0  0  0  0
  5  4  1  0  0  0  0
  6  7  1  0  0  0  0
  7 11  1  0  0  0  0
  7  2  2  0  0  0  0
  8  4  1  0  0  0  0
  9  5  1  0  0  0  0
 10  6  1  0  0  0  0
 11 18  1  0  0  0  0
 12 14  1  0  0  0  0
 12 11  2  0  0  0  0
 13 12  1  0  0  0  0
 14 16  2  0  0  0  0
 15 14  1  0  0  0  0
 16 17  1  0  0  0  0
 18 16  1  0  0  0  0
 19 30  1  0  0  0  0
 20 24  1  0  0  0  0
 20 19  1  0  0  0  0
 21 22  1  0  0  0  0
 21 20  2  0  0  0  0
 22 23  1  0  0  0  0
 23 19  2  0  0  0  0
 25 21  1  0  0  0  0
 26 32  1  0  0  0  0
 26 27  1  0  0  0  0
 27 33  1  0  0  0  0
 28 34  1  0  0  0  0
 28 27  2  0  0  0  0
 29 28  1  0  0  0  0
 30 29  2  0  0  0  0
 30 31  1  0  0  0  0
 31 26  2  0  0  0  0
M  END
>  <minimizedAffinity>
-5.44815874

$$$$

 OpenBabel03252501263D

 34 37  0  0  0  0  0  0  0  0999 V2000
   40.5830   31.4160   38.7690 F   0  0  0  0  0  0  0  0  0  0  0  0
   40.0620   32.5490   39.2320 C   0  0  0  0  0  0  0  0  0  0  0  0
   38.7660   32.5560   39.6920 C   0  0  0  0  0  0  0  0  0  0  0  0
   38.1920   33.7300   40.1850 C   0  0  0  0  0  0  0  0  0  0  0  0
   38.8940   34.9100   40.2290 C   0  0  0  0  0  0  0  0  0  0  0  0
   40.1720   34.8780   39.7700 C   0  0  0  0  0  0  0  0  0  0  0  0
   40.7790   33.7220   39.2700 C   0  0  0  0  0  0  0  0  0  0  0  0
   37.1690   33.7510   40.5520 H   0  0  0  0  0  0  0  0  0  0  0  0
   38.4600   35.8250   40.6080 H   0  0  0  0  0  0  0  0  0  0  0  0
   40.7440   35.8000   39.7960 H   0  0  0  0  0  0  0  0  0  0  0  0
   42.1590   33.8110   38.8050 C   0  0  0  0  0  0  0  0  0  0  0  0
   42.6540   33.6260   37.5320 C   0  0  0  0  0  0  0  0  0  0  0  0
   42.1190   33.3820   36.6400 H   0  0  0  0  0  0  0  0  0  0  0  0
   44.0270   33.8070   37.5350 C   0  0  0  0  0  0  0  0  0  0  0  0
   44.7810   33.7530   36.7550 H   0  0  0  0  0  0  0  0  0  0  0  0
   44.3130   34.1010   38.8520 C   0  0  0  0  0  0  0  0  0  0  0  0
   45.2950   34.3080   39.2490 H   0  0  0  0  0  0  0  0  0  0  0  0
   43.2030   34.0920   39.5430 O   0  0  0  0  0  0  0  0  0  0  0  0
   37.2470   29.4340   40.3020 C   0  0  0  0  0  0  0  0  0  0  0  0
   36.3630   29.9680   39.3860 C   0  0  0  0  0  0  0  0  0  0  0  0
   36.7930   31.2000   39.0240 C   0  0  0  0  0  0  0  0  0  0  0  0
   37.9300   31.4280   39.7090 N   0  0  0  0  0  0  0  0  0  0  0  0
   38.2000   30.3570   40.4790 N   0  0  0  0  0  0  0  0  0  0  0  0
   35.4550   29.5030   38.9930 H   0  0  0  0  0  0  0  0  0  0  0  0
   36.3230   31.8780   38.3250 H   0  0  0  0  0  0  0  0  0  0  0  0
   37.0200   25.8020   40.7220 C   0  0  0  0  0  0  0  0  0  0  0  0
   36.9040   25.6680   42.1260 C   0  0  0  0  0  0  0  0  0  0  0  0
   36.9050   26.8240   42.9040 C   0  0  0  0  0  0  0  0  0  0  0  0
   37.0190   28.0070   42.2570 N   0  0  0  0  0  0  0  0  0  0  0  0
   37.1290   28.1270   40.9240 C   0  0  0  0  0  0  0  0  0  0  0  0
   37.1300   27.0240   40.1520 N   0  0  0  0  0  0  0  0  0  0  0  0
   37.0210   24.9290   40.0990 H   0  0  0  0  0  0  0  0  0  0  0  0
   36.8170   24.6930   42.5650 H   0  0  0  0  0  0  0  0  0  0  0  0
   36.8190   26.7640   43.9810 H   0  0  0  0  0  0  0  0  0  0  0  0
  1  2  1  0  0  0  0
  2  7  2  0  0  0  0
  2  3  1  0  0  0  0
  3 22  1  0  0  0  0
  3  4  2  0  0  0  0
  4  5  1  0  0  0  0
  4  8  1  0  0  0  0
  5  9  1  0  0  0  0
  6 10  1  0  0  0  0
  6  5  2  0  0  0  0
  7  6  1  0  0  0  0
 11  7  1  0  0  0  0
 11 18  1  0  0  0  0
 12 14  1  0  0  0  0
 12 11  2  0  0  0  0
 13 12  1  0  0  0  0
 14 16  2  0  0  0  0
 15 14  1  0  0  0  0
 16 17  1  0  0  0  0
 16 18  1  0  0  0  0
 19 23  2  0  0  0  0
 19 30  1  0  0  0  0
 20 19  1  0  0  0  0
 21 20  2  0  0  0  0
 21 22  1  0  0  0  0
 22 23  1  0  0  0  0
 24 20  1  0  0  0  0
 25 21  1  0  0  0  0
 26 27  1  0  0  0  0
 27 33  1  0  0  0  0
 27 28  2  0  0  0  0
 28 34  1  0  0  0  0
 29 28  1  0  0  0  0
 30 29  2  0  0  0  0
 31 26  2  0  0  0  0
 31 30  1  0  0  0  0
 32 26  1  0  0  0  0
M  END
>  <minimizedAffinity>
-5.44756222

$$$$

 OpenBabel03252501263D

 34 37  0  0  0  0  0  0  0  0999 V2000
   37.9370   30.7710   41.0210 F   0  0  0  0  0  0  0  0  0  0  0  0
   39.1410   30.5960   41.5570 C   0  0  0  0  0  0  0  0  0  0  0  0
   39.4510   29.3890   42.1390 C   0  0  0  0  0  0  0  0  0  0  0  0
   40.7080   29.1740   42.7090 C   0  0  0  0  0  0  0  0  0  0  0  0
   41.6720   30.1530   42.7100 C   0  0  0  0  0  0  0  0  0  0  0  0
   41.3440   31.3360   42.1290 C   0  0  0  0  0  0  0  0  0  0  0  0
   40.0960   31.5850   41.5490 C   0  0  0  0  0  0  0  0  0  0  0  0
   40.9670   28.2260   43.1730 H   0  0  0  0  0  0  0  0  0  0  0  0
   42.6490   29.9990   43.1490 H   0  0  0  0  0  0  0  0  0  0  0  0
   42.0920   32.1220   42.1200 H   0  0  0  0  0  0  0  0  0  0  0  0
   39.8590   32.8960   40.9550 C   0  0  0  0  0  0  0  0  0  0  0  0
   40.7000   33.6520   40.1670 C   0  0  0  0  0  0  0  0  0  0  0  0
   41.6900   33.4190   39.8390 H   0  0  0  0  0  0  0  0  0  0  0  0
   40.0750   34.8370   39.8180 C   0  0  0  0  0  0  0  0  0  0  0  0
   40.3850   35.6880   39.2200 H   0  0  0  0  0  0  0  0  0  0  0  0
   38.8420   34.7450   40.4300 C   0  0  0  0  0  0  0  0  0  0  0  0
   38.0630   35.4910   40.3860 H   0  0  0  0  0  0  0  0  0  0  0  0
   38.7670   33.6090   41.0720 O   0  0  0  0  0  0  0  0  0  0  0  0
   37.6420   26.4110   41.6020 C   0  0  0  0  0  0  0  0  0  0  0  0
   37.0360   26.8680   42.7540 C   0  0  0  0  0  0  0  0  0  0  0  0
   37.6130   28.0360   43.1240 C   0  0  0  0  0  0  0  0  0  0  0  0
   38.5670   28.3000   42.2110 N   0  0  0  0  0  0  0  0  0  0  0  0
   38.5810   27.3140   41.2940 N   0  0  0  0  0  0  0  0  0  0  0  0
   36.2200   26.3940   43.3070 H   0  0  0  0  0  0  0  0  0  0  0  0
   37.3660   28.6460   43.9810 H   0  0  0  0  0  0  0  0  0  0  0  0
   37.5530   22.8820   40.6250 C   0  0  0  0  0  0  0  0  0  0  0  0
   36.6350   22.8900   39.5480 C   0  0  0  0  0  0  0  0  0  0  0  0
   36.0630   24.1050   39.1750 C   0  0  0  0  0  0  0  0  0  0  0  0
   36.4280   25.2030   39.8760 N   0  0  0  0  0  0  0  0  0  0  0  0
   37.3000   25.1880   40.8970 C   0  0  0  0  0  0  0  0  0  0  0  0
   37.8660   24.0260   41.2750 N   0  0  0  0  0  0  0  0  0  0  0  0
   38.0090   21.9610   40.9320 H   0  0  0  0  0  0  0  0  0  0  0  0
   36.3970   21.9760   39.0410 H   0  0  0  0  0  0  0  0  0  0  0  0
   35.3560   24.1540   38.3570 H   0  0  0  0  0  0  0  0  0  0  0  0
  1  2  1  0  0  0  0
  2  3  1  0  0  0  0
  3 22  1  0  0  0  0
  3  4  2  0  0  0  0
  4  5  1  0  0  0  0
  4  8  1  0  0  0  0
  5  9  1  0  0  0  0
  6  5  2  0  0  0  0
  7  2  2  0  0  0  0
  7  6  1  0  0  0  0
 10  6  1  0  0  0  0
 11 18  1  0  0  0  0
 11  7  1  0  0  0  0
 12 11  2  0  0  0  0
 13 12  1  0  0  0  0
 14 12  1  0  0  0  0
 14 16  2  0  0  0  0
 15 14  1  0  0  0  0
 16 18  1  0  0  0  0
 17 16  1  0  0  0  0
 19 20  1  0  0  0  0
 20 21  2  0  0  0  0
 20 24  1  0  0  0  0
 21 25  1  0  0  0  0
 22 21  1  0  0  0  0
 23 19  2  0  0  0  0
 23 22  1  0  0  0  0
 26 32  1  0  0  0  0
 26 31  1  0  0  0  0
 27 26  2  0  0  0  0
 28 27  1  0  0  0  0
 28 29  2  0  0  0  0
 29 30  1  0  0  0  0
 30 31  2  0  0  0  0
 30 19  1  0  0  0  0
 33 27  1  0  0  0  0
 34 28  1  0  0  0  0
M  END
>  <minimizedAffinity>
-5.39242077

$$$$

 OpenBabel03252501263D

 34 37  0  0  0  0  0  0  0  0999 V2000
   37.8920   26.8830   40.4210 F   0  0  0  0  0  0  0  0  0  0  0  0
   38.5270   26.2560   41.4080 C   0  0  0  0  0  0  0  0  0  0  0  0
   39.3360   26.9780   42.2540 C   0  0  0  0  0  0  0  0  0  0  0  0
   40.0150   26.3480   43.3000 C   0  0  0  0  0  0  0  0  0  0  0  0
   39.9020   24.9960   43.5190 C   0  0  0  0  0  0  0  0  0  0  0  0
   39.0970   24.3050   42.6700 C   0  0  0  0  0  0  0  0  0  0  0  0
   38.4020   24.9020   41.6130 C   0  0  0  0  0  0  0  0  0  0  0  0
   40.6570   26.9050   43.9770 H   0  0  0  0  0  0  0  0  0  0  0  0
   40.4230   24.4960   44.3240 H   0  0  0  0  0  0  0  0  0  0  0  0
   38.9940   23.2360   42.8250 H   0  0  0  0  0  0  0  0  0  0  0  0
   37.5690   24.0560   40.7680 C   0  0  0  0  0  0  0  0  0  0  0  0
   37.9360   22.9690   40.0040 C   0  0  0  0  0  0  0  0  0  0  0  0
   38.9060   22.5370   39.8870 H   0  0  0  0  0  0  0  0  0  0  0  0
   36.8250   22.4560   39.3570 C   0  0  0  0  0  0  0  0  0  0  0  0
   36.6860   21.6210   38.6760 H   0  0  0  0  0  0  0  0  0  0  0  0
   35.7990   23.2810   39.7680 C   0  0  0  0  0  0  0  0  0  0  0  0
   34.7660   23.1940   39.4690 H   0  0  0  0  0  0  0  0  0  0  0  0
   36.2790   24.1860   40.5810 O   0  0  0  0  0  0  0  0  0  0  0  0
   39.1770   30.4130   41.4810 C   0  0  0  0  0  0  0  0  0  0  0  0
   40.2730   30.3960   42.3200 C   0  0  0  0  0  0  0  0  0  0  0  0
   40.4950   29.1250   42.7300 C   0  0  0  0  0  0  0  0  0  0  0  0
   39.5470   28.3620   42.1530 N   0  0  0  0  0  0  0  0  0  0  0  0
   38.7530   29.1460   41.3990 N   0  0  0  0  0  0  0  0  0  0  0  0
   40.8860   31.2470   42.6260 H   0  0  0  0  0  0  0  0  0  0  0  0
   41.2750   28.7770   43.3920 H   0  0  0  0  0  0  0  0  0  0  0  0
   38.6200   33.9110   40.5470 C   0  0  0  0  0  0  0  0  0  0  0  0
   37.5680   33.8080   39.6060 C   0  0  0  0  0  0  0  0  0  0  0  0
   37.0670   32.5420   39.3100 C   0  0  0  0  0  0  0  0  0  0  0  0
   37.6270   31.4880   39.9460 N   0  0  0  0  0  0  0  0  0  0  0  0
   38.6270   31.5930   40.8370 C   0  0  0  0  0  0  0  0  0  0  0  0
   39.1270   32.8060   41.1410 N   0  0  0  0  0  0  0  0  0  0  0  0
   39.0240   34.8740   40.7940 H   0  0  0  0  0  0  0  0  0  0  0  0
   37.1760   34.6930   39.1430 H   0  0  0  0  0  0  0  0  0  0  0  0
   36.2620   32.4210   38.5950 H   0  0  0  0  0  0  0  0  0  0  0  0
  1  2  1  0  0  0  0
  2  7  2  0  0  0  0
  2  3  1  0  0  0  0
  3  4  2  0  0  0  0
  4  5  1  0  0  0  0
  4  8  1  0  0  0  0
  5  9  1  0  0  0  0
  6 10  1  0  0  0  0
  6  5  2  0  0  0  0
  7  6  1  0  0  0  0
 11  7  1  0  0  0  0
 12 11  2  0  0  0  0
 13 12  1  0  0  0  0
 14 16  2  0  0  0  0
 14 12  1  0  0  0  0
 15 14  1  0  0  0  0
 16 18  1  0  0  0  0
 17 16  1  0  0  0  0
 18 11  1  0  0  0  0
 19 20  1  0  0  0  0
 20 24  1  0  0  0  0
 20 21  2  0  0  0  0
 21 25  1  0  0  0  0
 22  3  1  0  0  0  0
 22 21  1  0  0  0  0
 23 19  2  0  0  0  0
 23 22  1  0  0  0  0
 26 32  1  0  0  0  0
 26 31  1  0  0  0  0
 27 26  2  0  0  0  0
 28 27  1  0  0  0  0
 28 29  2  0  0  0  0
 29 30  1  0  0  0  0
 30 31  2  0  0  0  0
 30 19  1  0  0  0  0
 33 27  1  0  0  0  0
 34 28  1  0  0  0  0
M  END
>  <minimizedAffinity>
-5.33821774

$$$$
