
 OpenBabel03252508543D

 42 45  0  0  1  0  0  0  0  0999 V2000
   43.3420   34.4320   40.7490 C   0  0  0  0  0  0  0  0  0  0  0  0
   43.2720   35.6350   40.3680 O   0  0  0  0  0  0  0  0  0  0  0  0
   41.9870   34.0090   40.4830 N   0  0  0  0  0  0  0  0  0  0  0  0
   41.5620   34.0990   39.1030 C   0  0  0  0  0  0  0  0  0  0  0  0
   40.7440   35.4040   39.0260 C   0  0  0  0  0  0  0  0  0  0  0  0
   39.9880   35.5040   40.3420 C   0  0  0  0  0  0  0  0  0  0  0  0
   39.6670   34.1200   40.9160 C   0  0  0  0  0  0  0  0  0  0  0  0
   40.9660   33.5000   41.3980 C   0  0  1  0  0  0  0  0  0  0  0  0
   40.9120   33.2300   38.8520 H   0  0  0  0  0  0  0  0  0  0  0  0
   42.3900   34.1890   38.3970 H   0  0  0  0  0  0  0  0  0  0  0  0
   41.4510   36.2570   38.9330 H   0  0  0  0  0  0  0  0  0  0  0  0
   40.0140   35.3460   38.2010 H   0  0  0  0  0  0  0  0  0  0  0  0
   39.0880   36.1130   40.2510 H   0  0  0  0  0  0  0  0  0  0  0  0
   40.6370   36.0120   41.1090 H   0  0  0  0  0  0  0  0  0  0  0  0
   39.2480   33.4880   40.1370 H   0  0  0  0  0  0  0  0  0  0  0  0
   38.9970   34.3260   41.7760 H   0  0  0  0  0  0  0  0  0  0  0  0
   41.1900   33.9780   42.3790 H   0  0  0  0  0  0  0  0  0  0  0  0
   40.9440   32.0400   41.4500 C   0  0  0  0  0  0  0  0  0  0  0  0
   40.1590   31.2160   42.2400 C   0  0  0  0  0  0  0  0  0  0  0  0
   39.4230   31.5290   42.9590 H   0  0  0  0  0  0  0  0  0  0  0  0
   40.5350   29.9330   41.8940 C   0  0  0  0  0  0  0  0  0  0  0  0
   40.1480   29.0040   42.2940 H   0  0  0  0  0  0  0  0  0  0  0  0
   41.5260   30.0650   40.9150 C   0  0  0  0  0  0  0  0  0  0  0  0
   42.0320   29.2330   40.4320 H   0  0  0  0  0  0  0  0  0  0  0  0
   41.7560   31.3500   40.6620 O   0  0  0  0  0  0  0  0  0  0  0  0
   44.4230   33.7580   41.2640 O   0  0  0  0  0  0  0  0  0  0  0  0
   45.7470   34.1090   41.1060 C   0  0  0  0  0  0  0  0  0  0  0  0
   46.3840   34.7490   42.1800 C   0  0  0  0  0  0  0  0  0  0  0  0
   47.7370   35.0910   41.9790 C   0  0  0  0  0  0  0  0  0  0  0  0
   48.3290   34.7840   40.7800 N   0  0  0  0  0  0  0  0  0  0  0  0
   47.6680   34.1780   39.8080 C   0  0  0  0  0  0  0  0  0  0  0  0
   46.3740   33.8310   39.9500 N   0  0  0  0  0  0  0  0  0  0  0  0
   48.2590   35.5840   42.7820 H   0  0  0  0  0  0  0  0  0  0  0  0
   48.1190   33.9280   38.8530 H   0  0  0  0  0  0  0  0  0  0  0  0
   45.6610   35.0220   43.3980 C   0  0  0  0  0  0  0  0  0  0  0  0
   45.0060   36.2310   43.6190 C   0  0  0  0  0  0  0  0  0  0  0  0
   44.4590   36.0720   44.8760 C   0  0  0  0  0  0  0  0  0  0  0  0
   44.7620   34.8520   45.3750 N   0  0  0  0  0  0  0  0  0  0  0  0
   45.4890   34.2340   44.4640 N   0  0  0  0  0  0  0  0  0  0  0  0
   44.9310   37.0990   42.9820 H   0  0  0  0  0  0  0  0  0  0  0  0
   43.8550   36.8160   45.4190 H   0  0  0  0  0  0  0  0  0  0  0  0
   44.5130   34.4010   46.2890 H   0  0  0  0  0  0  0  0  0  0  0  0
  1 26  1  0  0  0  0
  2  1  2  0  0  0  0
  3  1  1  0  0  0  0
  3  8  1  0  0  0  0
  4  3  1  0  0  0  0
  5  4  1  0  0  0  0
  5  6  1  0  0  0  0
  6  7  1  0  0  0  0
  6 14  1  0  0  0  0
  7  8  1  0  0  0  0
  7 16  1  0  0  0  0
  8 18  1  0  0  0  0
  8 17  1  1  0  0  0
  9  4  1  0  0  0  0
 10  4  1  0  0  0  0
 11  5  1  0  0  0  0
 12  5  1  0  0  0  0
 13  6  1  0  0  0  0
 15  7  1  0  0  0  0
 18 19  2  0  0  0  0
 19 20  1  0  0  0  0
 21 19  1  0  0  0  0
 21 22  1  0  0  0  0
 23 21  2  0  0  0  0
 24 23  1  0  0  0  0
 25 23  1  0  0  0  0
 25 18  1  0  0  0  0
 27 26  1  0  0  0  0
 27 28  1  0  0  0  0
 28 35  1  0  0  0  0
 29 28  2  0  0  0  0
 29 33  1  0  0  0  0
 30 29  1  0  0  0  0
 31 32  1  0  0  0  0
 31 30  2  0  0  0  0
 32 27  2  0  0  0  0
 34 31  1  0  0  0  0
 35 36  1  0  0  0  0
 35 39  2  0  0  0  0
 36 37  2  0  0  0  0
 37 38  1  0  0  0  0
 37 41  1  0  0  0  0
 38 42  1  0  0  0  0
 39 38  1  0  0  0  0
 40 36  1  0  0  0  0
M  END
>  <minimizedAffinity>
-6.51977968

>  <minimizedRMSD>
0.335377067

$$$$
