
 OpenBabel03252504153D

 34 36  0  0  0  0  0  0  0  0999 V2000
   47.6460   30.0270   44.9270 F   0  0  0  0  0  0  0  0  0  0  0  0
   47.5130   30.8040   46.0500 C   0  0  0  0  0  0  0  0  0  0  0  0
   46.9370   32.0480   45.9490 C   0  0  0  0  0  0  0  0  0  0  0  0
   46.8420   32.7690   47.1400 C   0  0  0  0  0  0  0  0  0  0  0  0
   47.2970   32.2580   48.3330 C   0  0  0  0  0  0  0  0  0  0  0  0
   47.8660   30.9960   48.3540 C   0  0  0  0  0  0  0  0  0  0  0  0
   47.9910   30.2300   47.2100 C   0  0  0  0  0  0  0  0  0  0  0  0
   46.3920   33.7630   47.1130 H   0  0  0  0  0  0  0  0  0  0  0  0
   47.2220   32.8170   49.2490 H   0  0  0  0  0  0  0  0  0  0  0  0
   48.2320   30.5730   49.2800 H   0  0  0  0  0  0  0  0  0  0  0  0
   48.5880   28.8990   47.2240 C   0  0  0  0  0  0  0  0  0  0  0  0
   49.9290   28.6650   47.0010 C   0  0  0  0  0  0  0  0  0  0  0  0
   50.6710   29.4010   46.7970 H   0  0  0  0  0  0  0  0  0  0  0  0
   50.0230   27.2770   47.1120 C   0  0  0  0  0  0  0  0  0  0  0  0
   50.9490   26.7120   46.9950 H   0  0  0  0  0  0  0  0  0  0  0  0
   48.7680   26.7570   47.3890 C   0  0  0  0  0  0  0  0  0  0  0  0
   48.4860   25.7230   47.5360 H   0  0  0  0  0  0  0  0  0  0  0  0
   47.9560   27.7950   47.4410 O   0  0  0  0  0  0  0  0  0  0  0  0
   46.7670   34.1130   42.9620 C   0  0  0  0  0  0  0  0  0  0  0  0
   45.6280   33.6600   42.2920 C   0  0  0  0  0  0  0  0  0  0  0  0
   44.9100   32.6150   42.9000 C   0  0  0  0  0  0  0  0  0  0  0  0
   45.3400   32.1010   44.0810 N   0  0  0  0  0  0  0  0  0  0  0  0
   46.4550   32.5840   44.6810 C   0  0  0  0  0  0  0  0  0  0  0  0
   47.1660   33.5890   44.1220 N   0  0  0  0  0  0  0  0  0  0  0  0
   44.0230   32.2420   42.4050 H   0  0  0  0  0  0  0  0  0  0  0  0
   45.2280   34.2740   41.0110 C   0  0  0  0  0  0  0  0  0  0  0  0
   44.9140   35.5990   41.2050 F   0  0  0  0  0  0  0  0  0  0  0  0
   46.3260   34.2340   40.1600 F   0  0  0  0  0  0  0  0  0  0  0  0
   44.1860   33.6700   40.3960 F   0  0  0  0  0  0  0  0  0  0  0  0
   47.4610   35.1260   42.3720 O   0  0  0  0  0  0  0  0  0  0  0  0
   48.7780   35.0580   41.8630 C   0  0  0  0  0  0  0  0  0  0  0  0
   49.6290   35.3750   42.9280 F   0  0  0  0  0  0  0  0  0  0  0  0
   49.0250   33.8210   41.3300 F   0  0  0  0  0  0  0  0  0  0  0  0
   48.9800   36.0730   40.9550 F   0  0  0  0  0  0  0  0  0  0  0  0
  1  2  1  0  0  0  0
  2  7  1  0  0  0  0
  3  2  2  0  0  0  0
  3  4  1  0  0  0  0
  4  5  2  0  0  0  0
  5  6  1  0  0  0  0
  5  9  1  0  0  0  0
  6 10  1  0  0  0  0
  7 11  1  0  0  0  0
  7  6  2  0  0  0  0
  8  4  1  0  0  0  0
 11 18  1  0  0  0  0
 12 14  1  0  0  0  0
 12 11  2  0  0  0  0
 13 12  1  0  0  0  0
 14 16  2  0  0  0  0
 15 14  1  0  0  0  0
 16 18  1  0  0  0  0
 16 17  1  0  0  0  0
 19 24  1  0  0  0  0
 20 21  1  0  0  0  0
 20 19  2  0  0  0  0
 21 22  2  0  0  0  0
 22 23  1  0  0  0  0
 23  3  1  0  0  0  0
 24 23  2  0  0  0  0
 25 21  1  0  0  0  0
 26 27  1  0  0  0  0
 26 20  1  0  0  0  0
 28 26  1  0  0  0  0
 29 26  1  0  0  0  0
 30 19  1  0  0  0  0
 31 30  1  0  0  0  0
 31 32  1  0  0  0  0
 33 31  1  0  0  0  0
 34 31  1  0  0  0  0
M  END
>  <minimizedAffinity>
-5.52456999

>  <minimizedRMSD>
0.425833493

$$$$
