
 OpenBabel03252506573D

 37 41  0  0  0  0  0  0  0  0999 V2000
   47.2140   31.2960   45.1740 C   0  0  0  0  0  0  0  0  0  0  0  0
   46.8920   32.6460   45.1210 C   0  0  0  0  0  0  0  0  0  0  0  0
   46.3150   33.3190   46.1710 C   0  0  0  0  0  0  0  0  0  0  0  0
   46.0260   32.6480   47.3580 C   0  0  0  0  0  0  0  0  0  0  0  0
   45.4770   32.9670   48.5680 N   0  0  0  0  0  0  0  0  0  0  0  0
   45.4610   31.8540   49.3410 C   0  0  0  0  0  0  0  0  0  0  0  0
   46.0000   30.8550   48.6030 N   0  0  0  0  0  0  0  0  0  0  0  0
   46.3540   31.3160   47.3820 C   0  0  0  0  0  0  0  0  0  0  0  0
   46.9270   30.6150   46.3630 C   0  0  0  0  0  0  0  0  0  0  0  0
   47.6670   30.7910   44.3350 H   0  0  0  0  0  0  0  0  0  0  0  0
   46.0590   34.3760   46.1370 H   0  0  0  0  0  0  0  0  0  0  0  0
   45.1470   33.9350   48.7850 H   0  0  0  0  0  0  0  0  0  0  0  0
   45.0720   31.8580   50.3460 H   0  0  0  0  0  0  0  0  0  0  0  0
   46.6300   35.1110   42.3930 C   0  0  0  0  0  0  0  0  0  0  0  0
   47.7260   34.7760   41.5910 C   0  0  0  0  0  0  0  0  0  0  0  0
   48.5440   33.7180   41.9830 C   0  0  0  0  0  0  0  0  0  0  0  0
   48.2360   33.0480   43.1430 N   0  0  0  0  0  0  0  0  0  0  0  0
   47.1770   33.3910   43.8940 C   0  0  0  0  0  0  0  0  0  0  0  0
   46.3700   34.4150   43.5310 N   0  0  0  0  0  0  0  0  0  0  0  0
   46.0110   35.9370   42.0640 H   0  0  0  0  0  0  0  0  0  0  0  0
   47.9910   35.2840   40.6780 H   0  0  0  0  0  0  0  0  0  0  0  0
   49.4100   33.3800   41.4400 H   0  0  0  0  0  0  0  0  0  0  0  0
   47.2380   29.1890   46.4960 C   0  0  0  0  0  0  0  0  0  0  0  0
   48.4880   28.6440   46.3220 C   0  0  0  0  0  0  0  0  0  0  0  0
   48.3150   27.2750   46.5440 C   0  0  0  0  0  0  0  0  0  0  0  0
   46.9850   27.0730   46.8370 C   0  0  0  0  0  0  0  0  0  0  0  0
   46.3810   28.2620   46.7940 O   0  0  0  0  0  0  0  0  0  0  0  0
   49.4370   29.1020   46.0690 H   0  0  0  0  0  0  0  0  0  0  0  0
   49.0330   26.4700   46.5100 H   0  0  0  0  0  0  0  0  0  0  0  0
   46.2440   25.8540   47.1520 C   0  0  0  0  0  0  0  0  0  0  0  0
   44.9090   25.7130   46.7620 C   0  0  0  0  0  0  0  0  0  0  0  0
   44.2830   26.4310   46.2140 H   0  0  0  0  0  0  0  0  0  0  0  0
   44.4370   24.4830   47.1720 C   0  0  0  0  0  0  0  0  0  0  0  0
   43.4870   23.9900   47.0790 H   0  0  0  0  0  0  0  0  0  0  0  0
   45.5290   23.9280   47.8040 C   0  0  0  0  0  0  0  0  0  0  0  0
   45.6890   22.9860   48.2970 H   0  0  0  0  0  0  0  0  0  0  0  0
   46.5690   24.7470   47.7770 O   0  0  0  0  0  0  0  0  0  0  0  0
  1  9  1  0  0  0  0
  2  1  2  0  0  0  0
  2  3  1  0  0  0  0
  3  4  2  0  0  0  0
  4  8  1  0  0  0  0
  4  5  1  0  0  0  0
  5 12  1  0  0  0  0
  5  6  1  0  0  0  0
  6 13  1  0  0  0  0
  7  6  2  0  0  0  0
  8  7  1  0  0  0  0
  9 23  1  0  0  0  0
  9  8  2  0  0  0  0
 10  1  1  0  0  0  0
 11  3  1  0  0  0  0
 14 19  1  0  0  0  0
 15 16  1  0  0  0  0
 15 14  2  0  0  0  0
 16 17  2  0  0  0  0
 17 18  1  0  0  0  0
 18  2  1  0  0  0  0
 19 18  2  0  0  0  0
 20 14  1  0  0  0  0
 21 15  1  0  0  0  0
 22 16  1  0  0  0  0
 23 27  1  0  0  0  0
 24 23  2  0  0  0  0
 24 25  1  0  0  0  0
 25 26  2  0  0  0  0
 26 30  1  0  0  0  0
 27 26  1  0  0  0  0
 28 24  1  0  0  0  0
 29 25  1  0  0  0  0
 30 37  1  0  0  0  0
 31 30  2  0  0  0  0
 31 33  1  0  0  0  0
 32 31  1  0  0  0  0
 33 35  2  0  0  0  0
 34 33  1  0  0  0  0
 35 36  1  0  0  0  0
 37 35  1  0  0  0  0
M  END
>  <minimizedAffinity>
-5.52979565

>  <minimizedRMSD>
0.632407844

$$$$
