REMARK  Name = 
REMARK  2 active torsions:
REMARK  status: ('A' for Active; 'I' for Inactive)
REMARK    1  A    between atoms: C_2  and  C_14
REMARK    2  A    between atoms: C_3  and  C_23
REMARK                            x       y       z     vdW  Elec       q    Type
REMARK                         _______ _______ _______ _____ _____    ______ ____
ROOT
ATOM      1  C   UNL     1      47.228  31.371  45.092  0.00  0.00    +0.000 A 
ATOM      2  C   UNL     1      46.884  32.712  45.099  0.00  0.00    +0.000 A 
ATOM      3  C   UNL     1      46.281  33.313  46.186  0.00  0.00    +0.000 A 
ATOM      4  C   UNL     1      45.999  32.563  47.324  0.00  0.00    +0.000 A 
ATOM      5  N   UNL     1      45.435  32.803  48.536  0.00  0.00    +0.000 N 
ATOM      6  C   UNL     1      45.429  31.655  49.254  0.00  0.00    +0.000 A 
ATOM      7  N   UNL     1      45.993  30.714  48.473  0.00  0.00    +0.000 NA
ATOM      8  C   UNL     1      46.353  31.236  47.284  0.00  0.00    +0.000 A 
ATOM      9  C   UNL     1      46.956  30.599  46.222  0.00  0.00    +0.000 A 
ATOM     10  H   UNL     1      47.702  30.932  44.219  0.00  0.00    +0.000 HD
ATOM     11  H   UNL     1      45.097  33.754  48.768  0.00  0.00    +0.000 HD
ATOM     12  H   UNL     1      45.026  31.596  50.259  0.00  0.00    +0.000 HD
ATOM     13  H   UNL     1      47.205  29.549  46.266  0.00  0.00    +0.000 HD
ENDROOT
BRANCH   2  18
ATOM     14  C   UNL     1      46.529  35.203  42.425  0.00  0.00    +0.000 A 
ATOM     15  C   UNL     1      47.715  35.052  41.705  0.00  0.00    +0.000 A 
ATOM     16  C   UNL     1      48.640  34.088  42.142  0.00  0.00    +0.000 A 
ATOM     17  N   UNL     1      48.300  33.367  43.252  0.00  0.00    +0.000 NA
ATOM     18  C   UNL     1      47.160  33.527  43.928  0.00  0.00    +0.000 A 
ATOM     19  N   UNL     1      46.262  34.449  43.521  0.00  0.00    +0.000 NA
ATOM     20  H   UNL     1      45.821  35.953  42.078  0.00  0.00    +0.000 HD
ATOM     21  H   UNL     1      47.929  35.650  40.836  0.00  0.00    +0.000 HD
ATOM     22  H   UNL     1      49.575  33.927  41.623  0.00  0.00    +0.000 HD
ENDBRANCH   2  18
BRANCH   3  23
ATOM     23  C   UNL     1      45.907  34.724  46.222  0.00  0.00    +0.000 A 
ATOM     24  C   UNL     1      44.532  34.941  46.357  0.00  0.00    +0.000 A 
ATOM     25  H   UNL     1      43.645  34.332  46.444  0.00  0.00    +0.000 HD
ATOM     26  C   UNL     1      44.344  36.328  46.375  0.00  0.00    +0.000 A 
ATOM     27  H   UNL     1      43.420  36.916  46.465  0.00  0.00    +0.000 HD
ATOM     28  C   UNL     1      45.629  36.861  46.249  0.00  0.00    +0.000 A 
ATOM     29  H   UNL     1      45.931  37.904  46.219  0.00  0.00    +0.000 HD
ATOM     30  O   UNL     1      46.502  35.882  46.163  0.00  0.00    +0.000 OA
ENDBRANCH   3  23
TORSDOF 2
