
 OpenBabel03252507263D

 26 28  0  0  0  0  0  0  0  0999 V2000
   45.5960   34.0740   45.5100 C   0  0  0  0  0  0  0  0  0  0  0  0
   44.6590   35.1020   45.7090 C   0  0  0  0  0  0  0  0  0  0  0  0
   44.4360   35.9920   44.6580 C   0  0  0  0  0  0  0  0  0  0  0  0
   45.1350   35.8250   43.4870 N   0  0  0  0  0  0  0  0  0  0  0  0
   46.0270   34.8160   43.3470 C   0  0  0  0  0  0  0  0  0  0  0  0
   46.2620   33.9440   44.3420 N   0  0  0  0  0  0  0  0  0  0  0  0
   44.1450   35.1680   46.6660 H   0  0  0  0  0  0  0  0  0  0  0  0
   43.7190   36.7930   44.7860 H   0  0  0  0  0  0  0  0  0  0  0  0
   46.7390   34.6830   42.0900 C   0  0  0  0  0  0  0  0  0  0  0  0
   47.9520   35.3350   41.9020 C   0  0  0  0  0  0  0  0  0  0  0  0
   48.7150   35.2820   40.7530 C   0  0  0  0  0  0  0  0  0  0  0  0
   48.1670   34.4960   39.7460 C   0  0  0  0  0  0  0  0  0  0  0  0
   46.9580   33.8370   39.9160 C   0  0  0  0  0  0  0  0  0  0  0  0
   46.2620   33.9400   41.0830 N   0  0  0  0  0  0  0  0  0  0  0  0
   48.3090   35.9270   42.7350 H   0  0  0  0  0  0  0  0  0  0  0  0
   49.6510   35.8170   40.6800 H   0  0  0  0  0  0  0  0  0  0  0  0
   48.7130   34.4090   38.8170 H   0  0  0  0  0  0  0  0  0  0  0  0
   46.6060   33.2460   39.0790 H   0  0  0  0  0  0  0  0  0  0  0  0
   45.8610   33.1190   46.5810 C   0  0  0  0  0  0  0  0  0  0  0  0
   46.9560   32.2690   46.6440 C   0  0  0  0  0  0  0  0  0  0  0  0
   47.7760   32.1650   45.9380 H   0  0  0  0  0  0  0  0  0  0  0  0
   46.8620   31.5190   47.8000 C   0  0  0  0  0  0  0  0  0  0  0  0
   47.5000   30.7570   48.2140 H   0  0  0  0  0  0  0  0  0  0  0  0
   45.7130   31.9410   48.4000 C   0  0  0  0  0  0  0  0  0  0  0  0
   45.2050   31.6760   49.3040 H   0  0  0  0  0  0  0  0  0  0  0  0
   45.1570   32.8630   47.6750 O   0  0  0  0  0  0  0  0  0  0  0  0
  1  2  1  0  0  0  0
  1 19  1  0  0  0  0
  2  7  1  0  0  0  0
  3  8  1  0  0  0  0
  3  2  2  0  0  0  0
  4  3  1  0  0  0  0
  5  4  2  0  0  0  0
  5  6  1  0  0  0  0
  6  1  2  0  0  0  0
  9  5  1  0  0  0  0
 10  9  1  0  0  0  0
 10 15  1  0  0  0  0
 11 10  2  0  0  0  0
 12 13  2  0  0  0  0
 12 11  1  0  0  0  0
 13 14  1  0  0  0  0
 14  9  2  0  0  0  0
 16 11  1  0  0  0  0
 17 12  1  0  0  0  0
 18 13  1  0  0  0  0
 19 20  2  0  0  0  0
 19 26  1  0  0  0  0
 20 22  1  0  0  0  0
 21 20  1  0  0  0  0
 22 23  1  0  0  0  0
 22 24  2  0  0  0  0
 24 25  1  0  0  0  0
 26 24  1  0  0  0  0
M  END
>  <minimizedAffinity>
-5.91763735

>  <minimizedRMSD>
0.367710114

$$$$
