
     RDKit          3D

 34 36  0  0  0  0  0  0  0  0999 V2000
   46.8106   34.1023   43.0684 C   0  0  0  0  0  0  0  0  0  0  0  0
   45.6325   33.7111   42.4275 C   0  0  0  0  0  0  0  0  0  0  0  0
   44.9115   32.6588   43.0199 C   0  0  0  0  0  0  0  0  0  0  0  0
   45.3741   32.0807   44.1576 N   0  0  0  0  0  0  0  0  0  0  0  0
   46.5262   32.5073   44.7309 C   0  0  0  0  0  0  0  0  0  0  0  0
   47.2419   33.5155   44.1870 N   0  0  0  0  0  0  0  0  0  0  0  0
   47.6618   29.9139   44.8126 F   0  0  0  0  0  0  0  0  0  0  0  0
   47.5919   30.6416   45.9742 C   0  0  0  0  0  0  0  0  0  0  0  0
   47.0437   31.9024   45.9531 C   0  0  0  0  0  0  0  0  0  0  0  0
   47.0136   32.5687   47.1776 C   0  0  0  0  0  0  0  0  0  0  0  0
   47.5031   31.9935   48.3272 C   0  0  0  0  0  0  0  0  0  0  0  0
   48.0404   30.7186   48.2677 C   0  0  0  0  0  0  0  0  0  0  0  0
   48.1006   30.0041   47.0869 C   0  0  0  0  0  0  0  0  0  0  0  0
   45.1991   34.3925   41.1925 C   0  0  0  0  0  0  0  0  0  0  0  0
   44.9039   35.7082   41.4630 F   0  0  0  0  0  0  0  0  0  0  0  0
   46.2690   34.3864   40.3064 F   0  0  0  0  0  0  0  0  0  0  0  0
   44.1324   33.8275   40.5816 F   0  0  0  0  0  0  0  0  0  0  0  0
   47.5087   35.1222   42.4936 O   0  0  0  0  0  0  0  0  0  0  0  0
   48.8118   35.0467   41.9505 C   0  0  0  0  0  0  0  0  0  0  0  0
   49.6948   35.2906   43.0070 F   0  0  0  0  0  0  0  0  0  0  0  0
   49.0141   33.8320   41.3518 F   0  0  0  0  0  0  0  0  0  0  0  0
   49.0172   36.1005   41.0872 F   0  0  0  0  0  0  0  0  0  0  0  0
   43.9944   32.3328   42.5471 H   0  0  0  0  0  0  0  0  0  0  0  0
   46.5876   33.5744   47.2143 H   0  0  0  0  0  0  0  0  0  0  0  0
   47.4780   32.5113   49.2705 H   0  0  0  0  0  0  0  0  0  0  0  0
   48.4318   30.2450   49.1586 H   0  0  0  0  0  0  0  0  0  0  0  0
   48.6654   28.6599   47.0161 C   0  0  0  0  0  0  0  0  0  0  0  0
   49.9043   28.3826   46.4765 C   0  0  0  0  0  0  0  0  0  0  0  0
   50.5808   29.0914   46.0581 H   0  0  0  0  0  0  0  0  0  0  0  0
   50.0044   26.9995   46.6287 C   0  0  0  0  0  0  0  0  0  0  0  0
   50.8648   26.4077   46.3114 H   0  0  0  0  0  0  0  0  0  0  0  0
   48.8529   26.5240   47.2356 C   0  0  0  0  0  0  0  0  0  0  0  0
   48.6043   25.5046   47.4985 H   0  0  0  0  0  0  0  0  0  0  0  0
   48.0935   27.5829   47.4385 O   0  0  0  0  0  0  0  0  0  0  0  0
  1  6  2  0
  2  3  2  0
  2  1  1  0
  3  4  1  0
  4  5  2  0
  5  9  1  0
  6  5  1  0
  7  8  1  0
  8 13  2  0
  9  8  1  0
  9 10  2  0
 10 11  1  0
 12 11  2  0
 13 12  1  0
 14 15  1  0
 14  2  1  0
 16 14  1  0
 17 14  1  0
 18  1  1  0
 19 18  1  0
 19 20  1  0
 21 19  1  0
 22 19  1  0
  3 23  1  0
 10 24  1  0
 11 25  1  0
 12 26  1  0
 27 28  2  0
 28 29  1  0
 28 30  1  0
 30 31  1  0
 30 32  2  0
 32 33  1  0
 32 34  1  0
 34 27  1  0
 13 27  1  0
M  ISO  7  23  14  24  14  25  14  26  14  29  16  31  16  33  14
M  END
>  <DihAtoms>  (1) 
7,12,26,27

>  <DihDeg>  (1) 
179.99684737986394

$$$$
