REMARK  Name = 
REMARK  2 active torsions:
REMARK  status: ('A' for Active; 'I' for Inactive)
REMARK    1  A    between atoms: C_1  and  C_19
REMARK    2  A    between atoms: C_5  and  C_7
REMARK                            x       y       z     vdW  Elec       q    Type
REMARK                         _______ _______ _______ _____ _____    ______ ____
ROOT
ATOM      1  C   UNL     1      45.622  33.954  45.445  0.00  0.00    +0.000 A 
ATOM      2  C   UNL     1      44.714  34.997  45.693  0.00  0.00    +0.000 A 
ATOM      3  C   UNL     1      44.528  35.949  44.690  0.00  0.00    +0.000 A 
ATOM      4  N   UNL     1      45.233  35.825  43.517  0.00  0.00    +0.000 NA
ATOM      5  C   UNL     1      46.096  34.799  43.330  0.00  0.00    +0.000 A 
ATOM      6  N   UNL     1      46.296  33.868  44.277  0.00  0.00    +0.000 NA
ATOM      7  H   UNL     1      44.193  35.027  46.648  0.00  0.00    +0.000 HD
ATOM      8  H   UNL     1      43.834  36.763  44.856  0.00  0.00    +0.000 HD
ENDROOT
BRANCH   5   9
ATOM      9  C   UNL     1      46.816  34.713  42.073  0.00  0.00    +0.000 A 
ATOM     10  C   UNL     1      48.007  35.408  41.902  0.00  0.00    +0.000 A 
ATOM     11  C   UNL     1      48.775  35.402  40.755  0.00  0.00    +0.000 A 
ATOM     12  C   UNL     1      48.256  34.617  39.731  0.00  0.00    +0.000 A 
ATOM     13  C   UNL     1      47.069  33.916  39.884  0.00  0.00    +0.000 A 
ATOM     14  N   UNL     1      46.367  33.974  41.051  0.00  0.00    +0.000 NA
ATOM     15  H   UNL     1      48.342  35.996  42.747  0.00  0.00    +0.000 HD
ATOM     16  H   UNL     1      49.693  35.969  40.695  0.00  0.00    +0.000 HD
ATOM     17  H   UNL     1      48.808  34.566  38.803  0.00  0.00    +0.000 HD
ATOM     18  H   UNL     1      46.739  33.329  39.035  0.00  0.00    +0.000 HD
ENDBRANCH   5   9
BRANCH   1  19
ATOM     19  C   UNL     1      45.849  32.935  46.465  0.00  0.00    +0.000 A 
ATOM     20  C   UNL     1      45.041  32.713  47.571  0.00  0.00    +0.000 A 
ATOM     21  H   UNL     1      44.134  33.234  47.864  0.00  0.00    +0.000 HD
ATOM     22  C   UNL     1      45.577  31.671  48.303  0.00  0.00    +0.000 A 
ATOM     23  H   UNL     1      45.258  31.197  49.215  0.00  0.00    +0.000 HD
ATOM     24  C   UNL     1      46.693  31.296  47.615  0.00  0.00    +0.000 A 
ATOM     25  H   UNL     1      47.442  30.547  47.764  0.00  0.00    +0.000 HD
ATOM     26  O   UNL     1      46.825  32.042  46.560  0.00  0.00    +0.000 OA
ENDBRANCH   1  19
TORSDOF 2
