
 OpenBabel03252506053D

 42 46  0  0  0  0  0  0  0  0999 V2000
   44.8180   35.9960   43.3330 Cl  0  0  0  0  0  0  0  0  0  0  0  0
   45.5630   34.7490   44.2710 C   0  0  0  0  0  0  0  0  0  0  0  0
   46.6720   34.0880   43.8020 C   0  0  0  0  0  0  0  0  0  0  0  0
   47.1980   33.1070   44.6210 C   0  0  0  0  0  0  0  0  0  0  0  0
   46.6730   32.7680   45.8600 C   0  0  0  0  0  0  0  0  0  0  0  0
   45.5670   33.4470   46.2970 C   0  0  0  0  0  0  0  0  0  0  0  0
   44.9440   32.9790   47.8660 Cl  0  0  0  0  0  0  0  0  0  0  0  0
   45.0160   34.4280   45.5120 C   0  0  0  0  0  0  0  0  0  0  0  0
   48.0740   32.5930   44.2390 H   0  0  0  0  0  0  0  0  0  0  0  0
   44.1490   34.9330   45.8980 H   0  0  0  0  0  0  0  0  0  0  0  0
   47.3670   31.7000   46.5870 C   0  0  0  0  0  0  0  0  0  0  0  0
   47.4760   30.4160   46.1040 C   0  0  0  0  0  0  0  0  0  0  0  0
   48.1250   29.3890   46.7690 C   0  0  0  0  0  0  0  0  0  0  0  0
   48.7040   29.6550   47.9950 C   0  0  0  0  0  0  0  0  0  0  0  0
   49.3270   28.6490   48.6220 N   0  0  0  0  0  0  0  0  0  0  0  0
   49.9200   28.8050   49.8170 C   0  0  0  0  0  0  0  0  0  0  0  0
   49.8530   30.0760   50.3750 C   0  0  0  0  0  0  0  0  0  0  0  0
   49.2160   31.1030   49.7300 C   0  0  0  0  0  0  0  0  0  0  0  0
   48.6160   30.9150   48.5070 C   0  0  0  0  0  0  0  0  0  0  0  0
   47.9630   31.9290   47.8260 C   0  0  0  0  0  0  0  0  0  0  0  0
   47.0180   30.2320   45.1470 H   0  0  0  0  0  0  0  0  0  0  0  0
   48.1950   28.3840   46.3610 H   0  0  0  0  0  0  0  0  0  0  0  0
   50.4000   27.9370   50.2500 H   0  0  0  0  0  0  0  0  0  0  0  0
   50.3350   30.1860   51.3350 H   0  0  0  0  0  0  0  0  0  0  0  0
   49.1700   32.0990   50.1790 H   0  0  0  0  0  0  0  0  0  0  0  0
   47.9120   32.9030   48.2540 H   0  0  0  0  0  0  0  0  0  0  0  0
   48.8920   35.5530   41.3060 C   0  0  0  0  0  0  0  0  0  0  0  0
   48.4360   35.0270   40.1110 C   0  0  0  0  0  0  0  0  0  0  0  0
   47.3350   34.1430   40.1540 C   0  0  0  0  0  0  0  0  0  0  0  0
   46.7990   33.8690   41.3610 N   0  0  0  0  0  0  0  0  0  0  0  0
   47.2670   34.4000   42.5130 C   0  0  0  0  0  0  0  0  0  0  0  0
   48.3190   35.2450   42.4880 N   0  0  0  0  0  0  0  0  0  0  0  0
   49.7190   36.2200   41.2930 H   0  0  0  0  0  0  0  0  0  0  0  0
   48.8640   35.2470   39.1620 H   0  0  0  0  0  0  0  0  0  0  0  0
   46.7880   33.5430   38.9440 C   0  0  0  0  0  0  0  0  0  0  0  0
   47.4180   33.5400   37.7160 C   0  0  0  0  0  0  0  0  0  0  0  0
   48.3800   33.9710   37.4840 H   0  0  0  0  0  0  0  0  0  0  0  0
   46.5970   32.8770   36.8010 C   0  0  0  0  0  0  0  0  0  0  0  0
   46.7380   32.6740   35.7640 H   0  0  0  0  0  0  0  0  0  0  0  0
   45.4870   32.5120   37.5700 C   0  0  0  0  0  0  0  0  0  0  0  0
   44.6130   31.9750   37.2330 H   0  0  0  0  0  0  0  0  0  0  0  0
   45.6270   32.9140   38.8180 O   0  0  0  0  0  0  0  0  0  0  0  0
  1  2  1  0  0  0  0
  2  8  1  0  0  0  0
  3  2  2  0  0  0  0
  3  4  1  0  0  0  0
  4  5  2  0  0  0  0
  5  6  1  0  0  0  0
  5 11  1  0  0  0  0
  6  7  1  0  0  0  0
  8 10  1  0  0  0  0
  8  6  2  0  0  0  0
  9  4  1  0  0  0  0
 11 20  1  0  0  0  0
 12 11  2  0  0  0  0
 12 13  1  0  0  0  0
 13 14  2  0  0  0  0
 14 19  1  0  0  0  0
 14 15  1  0  0  0  0
 15 16  2  0  0  0  0
 16 23  1  0  0  0  0
 16 17  1  0  0  0  0
 17 24  1  0  0  0  0
 18 25  1  0  0  0  0
 18 17  2  0  0  0  0
 19 18  1  0  0  0  0
 20 26  1  0  0  0  0
 20 19  2  0  0  0  0
 21 12  1  0  0  0  0
 22 13  1  0  0  0  0
 27 32  1  0  0  0  0
 28 29  1  0  0  0  0
 28 27  2  0  0  0  0
 29 30  2  0  0  0  0
 30 31  1  0  0  0  0
 31  3  1  0  0  0  0
 32 31  2  0  0  0  0
 33 27  1  0  0  0  0
 34 28  1  0  0  0  0
 35 29  1  0  0  0  0
 36 35  2  0  0  0  0
 37 36  1  0  0  0  0
 38 40  2  0  0  0  0
 38 36  1  0  0  0  0
 39 38  1  0  0  0  0
 40 42  1  0  0  0  0
 41 40  1  0  0  0  0
 42 35  1  0  0  0  0
M  END
>  <minimizedAffinity>
-7.06671953

>  <minimizedRMSD>
0.240209952

$$$$
