
 OpenBabel03252506523D

 30 33  0  0  0  0  0  0  0  0999 V2000
   47.2650   31.3890   45.1480 C   0  0  0  0  0  0  0  0  0  0  0  0
   46.8730   32.7190   45.1340 C   0  0  0  0  0  0  0  0  0  0  0  0
   46.2390   33.3270   46.2010 C   0  0  0  0  0  0  0  0  0  0  0  0
   45.9680   32.5970   47.3560 C   0  0  0  0  0  0  0  0  0  0  0  0
   45.3830   32.8490   48.5590 N   0  0  0  0  0  0  0  0  0  0  0  0
   45.4130   31.7070   49.2960 C   0  0  0  0  0  0  0  0  0  0  0  0
   46.0170   30.7620   48.5360 N   0  0  0  0  0  0  0  0  0  0  0  0
   46.3660   31.2810   47.3450 C   0  0  0  0  0  0  0  0  0  0  0  0
   46.9950   30.6510   46.3060 C   0  0  0  0  0  0  0  0  0  0  0  0
   47.7590   30.9390   44.2990 H   0  0  0  0  0  0  0  0  0  0  0  0
   45.9400   34.3650   46.1730 H   0  0  0  0  0  0  0  0  0  0  0  0
   44.9860   33.7990   48.8270 H   0  0  0  0  0  0  0  0  0  0  0  0
   45.0200   31.5950   50.3030 H   0  0  0  0  0  0  0  0  0  0  0  0
   46.4800   35.1880   42.4310 C   0  0  0  0  0  0  0  0  0  0  0  0
   47.6560   35.0220   41.6990 C   0  0  0  0  0  0  0  0  0  0  0  0
   48.5790   34.0650   42.1340 C   0  0  0  0  0  0  0  0  0  0  0  0
   48.2860   33.3360   43.2580 N   0  0  0  0  0  0  0  0  0  0  0  0
   47.1360   33.5230   43.9430 C   0  0  0  0  0  0  0  0  0  0  0  0
   46.2380   34.4410   43.5360 N   0  0  0  0  0  0  0  0  0  0  0  0
   45.7970   35.9390   42.0580 H   0  0  0  0  0  0  0  0  0  0  0  0
   47.9040   35.5870   40.8120 H   0  0  0  0  0  0  0  0  0  0  0  0
   49.5250   33.8480   41.6470 H   0  0  0  0  0  0  0  0  0  0  0  0
   47.3800   29.2370   46.3960 C   0  0  0  0  0  0  0  0  0  0  0  0
   48.6740   28.7940   46.6120 C   0  0  0  0  0  0  0  0  0  0  0  0
   49.5490   29.4050   46.7360 H   0  0  0  0  0  0  0  0  0  0  0  0
   48.5500   27.3990   46.6210 C   0  0  0  0  0  0  0  0  0  0  0  0
   49.4030   26.7510   46.7700 H   0  0  0  0  0  0  0  0  0  0  0  0
   47.2160   27.0830   46.4170 C   0  0  0  0  0  0  0  0  0  0  0  0
   46.9330   26.0580   46.3930 H   0  0  0  0  0  0  0  0  0  0  0  0
   46.5570   28.2270   46.2880 O   0  0  0  0  0  0  0  0  0  0  0  0
  1  9  1  0  0  0  0
  2  1  2  0  0  0  0
  2  3  1  0  0  0  0
  3  4  2  0  0  0  0
  4  5  1  0  0  0  0
  5 12  1  0  0  0  0
  5  6  1  0  0  0  0
  6 13  1  0  0  0  0
  7  6  2  0  0  0  0
  8  4  1  0  0  0  0
  8  7  1  0  0  0  0
  9 23  1  0  0  0  0
  9  8  2  0  0  0  0
 10  1  1  0  0  0  0
 11  3  1  0  0  0  0
 14 19  1  0  0  0  0
 15 16  1  0  0  0  0
 15 14  2  0  0  0  0
 16 17  2  0  0  0  0
 17 18  1  0  0  0  0
 18  2  1  0  0  0  0
 19 18  2  0  0  0  0
 20 14  1  0  0  0  0
 21 15  1  0  0  0  0
 22 16  1  0  0  0  0
 23 24  2  0  0  0  0
 24 26  1  0  0  0  0
 24 25  1  0  0  0  0
 26 27  1  0  0  0  0
 28 26  2  0  0  0  0
 29 28  1  0  0  0  0
 30 23  1  0  0  0  0
 30 28  1  0  0  0  0
M  END
>  <minimizedAffinity>
-5.1822567

>  <minimizedRMSD>
0.329013437

$$$$
