
 OpenBabel03252502473D

 44 47  0  0  1  0  0  0  0  0999 V2000
   48.9430   34.7530   41.5130 C   0  0  1  0  0  0  0  0  0  0  0  0
   50.0310   34.8540   42.5150 C   0  0  0  0  0  0  0  0  0  0  0  0
   49.3420   33.5670   42.2650 C   0  0  2  0  0  0  0  0  0  0  0  0
   49.2100   34.8880   40.4690 H   0  0  0  0  0  0  0  0  0  0  0  0
   51.0820   35.0300   42.1820 H   0  0  0  0  0  0  0  0  0  0  0  0
   49.8020   35.4630   43.4300 H   0  0  0  0  0  0  0  0  0  0  0  0
   48.8210   33.1630   43.1310 H   0  0  0  0  0  0  0  0  0  0  0  0
   50.1470   32.6370   41.5010 N   0  0  0  0  0  0  0  0  0  0  0  0
   49.5560   32.1980   40.2930 C   0  0  0  0  0  0  0  0  0  0  0  0
   50.5640   31.2490   39.6620 C   0  0  0  0  0  0  0  0  0  0  0  0
   50.7680   30.0940   40.4790 N   0  0  0  0  0  0  0  0  0  0  0  0
   50.5630   30.3250   41.8870 C   0  0  0  0  0  0  0  0  0  0  0  0
   50.9420   31.7530   42.2410 C   0  0  0  0  0  0  0  0  0  0  0  0
   48.6470   31.5770   40.4990 H   0  0  0  0  0  0  0  0  0  0  0  0
   49.3710   33.0550   39.6350 H   0  0  0  0  0  0  0  0  0  0  0  0
   50.1870   31.0050   38.6510 H   0  0  0  0  0  0  0  0  0  0  0  0
   51.5130   31.8060   39.5670 H   0  0  0  0  0  0  0  0  0  0  0  0
   51.6270   29.5830   40.2460 H   0  0  0  0  0  0  0  0  0  0  0  0
   51.2150   29.5900   42.4150 H   0  0  0  0  0  0  0  0  0  0  0  0
   49.5060   30.1820   42.1230 H   0  0  0  0  0  0  0  0  0  0  0  0
   50.8510   31.8400   43.3440 H   0  0  0  0  0  0  0  0  0  0  0  0
   52.0280   31.8670   41.9600 H   0  0  0  0  0  0  0  0  0  0  0  0
   47.6200   35.3750   41.8610 C   0  0  0  0  0  0  0  0  0  0  0  0
   47.7300   36.0120   42.7820 H   0  0  0  0  0  0  0  0  0  0  0  0
   47.2390   36.0620   41.0800 H   0  0  0  0  0  0  0  0  0  0  0  0
   46.6670   34.2480   42.1110 C   0  0  0  0  0  0  0  0  0  0  0  0
   47.0430   33.2430   41.9850 H   0  0  0  0  0  0  0  0  0  0  0  0
   45.8200   34.3300   41.3660 H   0  0  0  0  0  0  0  0  0  0  0  0
   44.4730   35.7880   44.7360 C   0  0  0  0  0  0  0  0  0  0  0  0
   45.1160   35.5500   43.5000 C   0  0  0  0  0  0  0  0  0  0  0  0
   45.9850   34.4980   43.4260 C   0  0  0  0  0  0  0  0  0  0  0  0
   46.2000   33.7290   44.5220 N   0  0  0  0  0  0  0  0  0  0  0  0
   45.5960   33.9590   45.6710 C   0  0  0  0  0  0  0  0  0  0  0  0
   44.7380   34.9750   45.7890 N   0  0  0  0  0  0  0  0  0  0  0  0
   43.7860   36.6110   44.8100 H   0  0  0  0  0  0  0  0  0  0  0  0
   44.9050   36.1970   42.6600 H   0  0  0  0  0  0  0  0  0  0  0  0
   45.8400   33.1180   46.8420 C   0  0  0  0  0  0  0  0  0  0  0  0
   45.1350   32.5780   47.8980 C   0  0  0  0  0  0  0  0  0  0  0  0
   44.0800   32.8100   47.9230 H   0  0  0  0  0  0  0  0  0  0  0  0
   46.0460   31.8610   48.6490 C   0  0  0  0  0  0  0  0  0  0  0  0
   45.6870   31.3520   49.5370 H   0  0  0  0  0  0  0  0  0  0  0  0
   47.2690   31.9920   48.0220 C   0  0  0  0  0  0  0  0  0  0  0  0
   48.1410   31.5170   48.4250 H   0  0  0  0  0  0  0  0  0  0  0  0
   47.1000   32.7430   46.9580 O   0  0  0  0  0  0  0  0  0  0  0  0
  1  4  1  6  0  0  0
  1 23  1  0  0  0  0
  1  3  1  0  0  0  0
  1  2  1  0  0  0  0
  2  6  1  0  0  0  0
  3  2  1  0  0  0  0
  3  7  1  1  0  0  0
  5  2  1  0  0  0  0
  8 13  1  0  0  0  0
  8  3  1  0  0  0  0
  9 14  1  0  0  0  0
  9  8  1  0  0  0  0
 10  9  1  0  0  0  0
 10 11  1  0  0  0  0
 11 12  1  0  0  0  0
 12 20  1  0  0  0  0
 12 13  1  0  0  0  0
 12 19  1  0  0  0  0
 13 21  1  0  0  0  0
 15  9  1  0  0  0  0
 16 10  1  0  0  0  0
 17 10  1  0  0  0  0
 18 11  1  0  0  0  0
 22 13  1  0  0  0  0
 23 26  1  0  0  0  0
 23 24  1  0  0  0  0
 25 23  1  0  0  0  0
 26 31  1  0  0  0  0
 27 26  1  0  0  0  0
 28 26  1  0  0  0  0
 29 35  1  0  0  0  0
 29 34  1  0  0  0  0
 30 29  2  0  0  0  0
 31 30  1  0  0  0  0
 31 32  2  0  0  0  0
 32 33  1  0  0  0  0
 33 34  2  0  0  0  0
 33 37  1  0  0  0  0
 36 30  1  0  0  0  0
 37 44  1  0  0  0  0
 37 38  2  0  0  0  0
 38 39  1  0  0  0  0
 38 40  1  0  0  0  0
 40 41  1  0  0  0  0
 42 43  1  0  0  0  0
 42 40  2  0  0  0  0
 44 42  1  0  0  0  0
M  END
>  <minimizedAffinity>
-5.8108387

>  <minimizedRMSD>
0.250621676

$$$$
