
 OpenBabel03252506073D

 42 46  0  0  0  0  0  0  0  0999 V2000
   36.7070   26.0980   38.6300 Cl  0  0  0  0  0  0  0  0  0  0  0  0
   35.3940   27.0870   38.0940 C   0  0  0  0  0  0  0  0  0  0  0  0
   35.1180   28.2810   38.7130 C   0  0  0  0  0  0  0  0  0  0  0  0
   34.0490   29.0020   38.2150 C   0  0  0  0  0  0  0  0  0  0  0  0
   33.2640   28.5870   37.1480 C   0  0  0  0  0  0  0  0  0  0  0  0
   33.5670   27.3920   36.5530 C   0  0  0  0  0  0  0  0  0  0  0  0
   32.5450   26.9150   35.2130 Cl  0  0  0  0  0  0  0  0  0  0  0  0
   34.6220   26.6480   37.0200 C   0  0  0  0  0  0  0  0  0  0  0  0
   33.8420   29.9430   38.7130 H   0  0  0  0  0  0  0  0  0  0  0  0
   34.8200   25.7160   36.5210 H   0  0  0  0  0  0  0  0  0  0  0  0
   32.1720   29.4860   36.7600 C   0  0  0  0  0  0  0  0  0  0  0  0
   31.0990   29.7560   37.5790 C   0  0  0  0  0  0  0  0  0  0  0  0
   30.0560   30.6000   37.2370 C   0  0  0  0  0  0  0  0  0  0  0  0
   30.0790   31.2170   36.0010 C   0  0  0  0  0  0  0  0  0  0  0  0
   29.0610   32.0290   35.6900 N   0  0  0  0  0  0  0  0  0  0  0  0
   28.9910   32.6740   34.5150 C   0  0  0  0  0  0  0  0  0  0  0  0
   30.0380   32.4540   33.6290 C   0  0  0  0  0  0  0  0  0  0  0  0
   31.0780   31.6230   33.9500 C   0  0  0  0  0  0  0  0  0  0  0  0
   31.1250   30.9740   35.1620 C   0  0  0  0  0  0  0  0  0  0  0  0
   32.1600   30.1270   35.5210 C   0  0  0  0  0  0  0  0  0  0  0  0
   31.1030   29.2650   38.5370 H   0  0  0  0  0  0  0  0  0  0  0  0
   29.2210   30.7940   37.9060 H   0  0  0  0  0  0  0  0  0  0  0  0
   28.1320   33.3110   34.3480 H   0  0  0  0  0  0  0  0  0  0  0  0
   29.9690   32.9800   32.6880 H   0  0  0  0  0  0  0  0  0  0  0  0
   31.8980   31.4570   33.2450 H   0  0  0  0  0  0  0  0  0  0  0  0
   32.9630   29.9580   34.8430 H   0  0  0  0  0  0  0  0  0  0  0  0
   36.5310   30.5560   41.1880 C   0  0  0  0  0  0  0  0  0  0  0  0
   37.3640   29.7470   41.9410 C   0  0  0  0  0  0  0  0  0  0  0  0
   37.4470   28.3800   41.5960 C   0  0  0  0  0  0  0  0  0  0  0  0
   36.7090   27.9510   40.5530 N   0  0  0  0  0  0  0  0  0  0  0  0
   35.9040   28.7680   39.8340 C   0  0  0  0  0  0  0  0  0  0  0  0
   35.8140   30.0760   40.1520 N   0  0  0  0  0  0  0  0  0  0  0  0
   36.4560   31.5870   41.4330 H   0  0  0  0  0  0  0  0  0  0  0  0
   37.9440   30.0930   42.7640 H   0  0  0  0  0  0  0  0  0  0  0  0
   38.2990   27.4560   42.3350 C   0  0  0  0  0  0  0  0  0  0  0  0
   39.1870   27.8270   43.3230 C   0  0  0  0  0  0  0  0  0  0  0  0
   39.3720   28.8280   43.6810 H   0  0  0  0  0  0  0  0  0  0  0  0
   39.8220   26.6780   43.7990 C   0  0  0  0  0  0  0  0  0  0  0  0
   40.5640   26.5590   44.5550 H   0  0  0  0  0  0  0  0  0  0  0  0
   39.2510   25.6550   43.0350 C   0  0  0  0  0  0  0  0  0  0  0  0
   39.4730   24.5990   43.0940 H   0  0  0  0  0  0  0  0  0  0  0  0
   38.3640   26.1390   42.1880 O   0  0  0  0  0  0  0  0  0  0  0  0
  2  1  1  0  0  0  0
  2  3  1  0  0  0  0
  3 31  1  0  0  0  0
  4  9  1  0  0  0  0
  4  3  2  0  0  0  0
  5  4  1  0  0  0  0
  6  8  1  0  0  0  0
  6  5  2  0  0  0  0
  7  6  1  0  0  0  0
  8  2  2  0  0  0  0
 10  8  1  0  0  0  0
 11  5  1  0  0  0  0
 11 12  1  0  0  0  0
 12 21  1  0  0  0  0
 13 12  2  0  0  0  0
 13 22  1  0  0  0  0
 14 13  1  0  0  0  0
 15 14  1  0  0  0  0
 16 15  2  0  0  0  0
 17 18  2  0  0  0  0
 17 16  1  0  0  0  0
 18 19  1  0  0  0  0
 19 20  1  0  0  0  0
 19 14  2  0  0  0  0
 20 11  2  0  0  0  0
 23 16  1  0  0  0  0
 24 17  1  0  0  0  0
 25 18  1  0  0  0  0
 26 20  1  0  0  0  0
 27 33  1  0  0  0  0
 27 28  1  0  0  0  0
 28 34  1  0  0  0  0
 29 28  2  0  0  0  0
 29 35  1  0  0  0  0
 30 29  1  0  0  0  0
 31 32  1  0  0  0  0
 31 30  2  0  0  0  0
 32 27  2  0  0  0  0
 35 36  2  0  0  0  0
 36 37  1  0  0  0  0
 36 38  1  0  0  0  0
 38 39  1  0  0  0  0
 40 41  1  0  0  0  0
 40 38  2  0  0  0  0
 42 35  1  0  0  0  0
 42 40  1  0  0  0  0
M  END
>  <minimizedAffinity>
-7.10250139

$$$$

 OpenBabel03252506073D

 42 46  0  0  0  0  0  0  0  0999 V2000
   36.6050   26.3860   38.5810 Cl  0  0  0  0  0  0  0  0  0  0  0  0
   35.2650   27.3430   38.0570 C   0  0  0  0  0  0  0  0  0  0  0  0
   34.9940   28.5530   38.6480 C   0  0  0  0  0  0  0  0  0  0  0  0
   33.9030   29.2480   38.1620 C   0  0  0  0  0  0  0  0  0  0  0  0
   33.0900   28.7920   37.1340 C   0  0  0  0  0  0  0  0  0  0  0  0
   33.3880   27.5830   36.5660 C   0  0  0  0  0  0  0  0  0  0  0  0
   32.3300   27.0540   35.2730 Cl  0  0  0  0  0  0  0  0  0  0  0  0
   34.4650   26.8640   37.0220 C   0  0  0  0  0  0  0  0  0  0  0  0
   33.7010   30.2010   38.6390 H   0  0  0  0  0  0  0  0  0  0  0  0
   34.6580   25.9200   36.5450 H   0  0  0  0  0  0  0  0  0  0  0  0
   31.9760   29.6670   36.7530 C   0  0  0  0  0  0  0  0  0  0  0  0
   30.8830   29.8800   37.5610 C   0  0  0  0  0  0  0  0  0  0  0  0
   29.8180   30.7010   37.2270 C   0  0  0  0  0  0  0  0  0  0  0  0
   29.8420   31.3530   36.0090 C   0  0  0  0  0  0  0  0  0  0  0  0
   28.8030   32.1420   35.7040 N   0  0  0  0  0  0  0  0  0  0  0  0
   28.7310   32.8180   34.5460 C   0  0  0  0  0  0  0  0  0  0  0  0
   29.7990   32.6560   33.6720 C   0  0  0  0  0  0  0  0  0  0  0  0
   30.8590   31.8490   33.9870 C   0  0  0  0  0  0  0  0  0  0  0  0
   30.9080   31.1670   35.1810 C   0  0  0  0  0  0  0  0  0  0  0  0
   31.9630   30.3430   35.5330 C   0  0  0  0  0  0  0  0  0  0  0  0
   30.8870   29.3620   38.5050 H   0  0  0  0  0  0  0  0  0  0  0  0
   28.9680   30.8490   37.8870 H   0  0  0  0  0  0  0  0  0  0  0  0
   27.8550   33.4320   34.3830 H   0  0  0  0  0  0  0  0  0  0  0  0
   29.7270   33.2060   32.7450 H   0  0  0  0  0  0  0  0  0  0  0  0
   31.6950   31.7290   33.2910 H   0  0  0  0  0  0  0  0  0  0  0  0
   32.7810   30.2190   34.8630 H   0  0  0  0  0  0  0  0  0  0  0  0
   36.7110   28.7930   41.8580 C   0  0  0  0  0  0  0  0  0  0  0  0
   37.3390   30.0240   41.8040 C   0  0  0  0  0  0  0  0  0  0  0  0
   37.1740   30.8010   40.6360 C   0  0  0  0  0  0  0  0  0  0  0  0
   36.4130   30.2900   39.6460 N   0  0  0  0  0  0  0  0  0  0  0  0
   35.8100   29.0820   39.7290 C   0  0  0  0  0  0  0  0  0  0  0  0
   35.9590   28.3290   40.8380 N   0  0  0  0  0  0  0  0  0  0  0  0
   36.8230   28.1950   42.7290 H   0  0  0  0  0  0  0  0  0  0  0  0
   37.9380   30.4210   42.5890 H   0  0  0  0  0  0  0  0  0  0  0  0
   37.7990   32.1100   40.4930 C   0  0  0  0  0  0  0  0  0  0  0  0
   37.3230   33.1230   39.6870 C   0  0  0  0  0  0  0  0  0  0  0  0
   36.4420   33.0910   39.0640 H   0  0  0  0  0  0  0  0  0  0  0  0
   38.1770   34.2210   39.8080 C   0  0  0  0  0  0  0  0  0  0  0  0
   38.1420   35.1810   39.3460 H   0  0  0  0  0  0  0  0  0  0  0  0
   39.1470   33.7760   40.7130 C   0  0  0  0  0  0  0  0  0  0  0  0
   39.9980   34.3330   41.0770 H   0  0  0  0  0  0  0  0  0  0  0  0
   38.9000   32.5390   41.0960 O   0  0  0  0  0  0  0  0  0  0  0  0
  2  1  1  0  0  0  0
  2  3  1  0  0  0  0
  3 31  1  0  0  0  0
  4  9  1  0  0  0  0
  4  3  2  0  0  0  0
  5  4  1  0  0  0  0
  6  8  1  0  0  0  0
  6  5  2  0  0  0  0
  7  6  1  0  0  0  0
  8  2  2  0  0  0  0
 10  8  1  0  0  0  0
 11  5  1  0  0  0  0
 11 12  1  0  0  0  0
 12 21  1  0  0  0  0
 13 12  2  0  0  0  0
 13 22  1  0  0  0  0
 14 13  1  0  0  0  0
 15 14  1  0  0  0  0
 16 15  2  0  0  0  0
 17 18  2  0  0  0  0
 17 16  1  0  0  0  0
 18 19  1  0  0  0  0
 19 20  1  0  0  0  0
 19 14  2  0  0  0  0
 20 11  2  0  0  0  0
 23 16  1  0  0  0  0
 24 17  1  0  0  0  0
 25 18  1  0  0  0  0
 26 20  1  0  0  0  0
 27 33  1  0  0  0  0
 28 27  1  0  0  0  0
 28 34  1  0  0  0  0
 29 28  2  0  0  0  0
 30 31  2  0  0  0  0
 30 29  1  0  0  0  0
 31 32  1  0  0  0  0
 32 27  2  0  0  0  0
 35 29  1  0  0  0  0
 35 42  1  0  0  0  0
 36 38  1  0  0  0  0
 36 35  2  0  0  0  0
 37 36  1  0  0  0  0
 38 40  2  0  0  0  0
 39 38  1  0  0  0  0
 40 41  1  0  0  0  0
 40 42  1  0  0  0  0
M  END
>  <minimizedAffinity>
-7.07560349

$$$$

 OpenBabel03252506073D

 42 46  0  0  0  0  0  0  0  0999 V2000
   39.0050   34.9830   39.8510 Cl  0  0  0  0  0  0  0  0  0  0  0  0
   38.9530   33.2850   40.1750 C   0  0  0  0  0  0  0  0  0  0  0  0
   40.1020   32.5320   40.1520 C   0  0  0  0  0  0  0  0  0  0  0  0
   39.9620   31.1850   40.4230 C   0  0  0  0  0  0  0  0  0  0  0  0
   38.7500   30.5730   40.7090 C   0  0  0  0  0  0  0  0  0  0  0  0
   37.6250   31.3520   40.7240 C   0  0  0  0  0  0  0  0  0  0  0  0
   36.1210   30.5320   41.0900 Cl  0  0  0  0  0  0  0  0  0  0  0  0
   37.7230   32.6960   40.4600 C   0  0  0  0  0  0  0  0  0  0  0  0
   40.8770   30.6020   40.4010 H   0  0  0  0  0  0  0  0  0  0  0  0
   36.8120   33.2660   40.4830 H   0  0  0  0  0  0  0  0  0  0  0  0
   38.7980   29.1300   40.9710 C   0  0  0  0  0  0  0  0  0  0  0  0
   38.2910   28.1950   40.0970 C   0  0  0  0  0  0  0  0  0  0  0  0
   38.3230   26.8280   40.3200 C   0  0  0  0  0  0  0  0  0  0  0  0
   38.8970   26.3600   41.4860 C   0  0  0  0  0  0  0  0  0  0  0  0
   38.9180   25.0350   41.6820 N   0  0  0  0  0  0  0  0  0  0  0  0
   39.4520   24.4810   42.7820 C   0  0  0  0  0  0  0  0  0  0  0  0
   39.9860   25.3610   43.7160 C   0  0  0  0  0  0  0  0  0  0  0  0
   39.9630   26.7150   43.5120 C   0  0  0  0  0  0  0  0  0  0  0  0
   39.4100   27.2560   42.3760 C   0  0  0  0  0  0  0  0  0  0  0  0
   39.3680   28.6190   42.1360 C   0  0  0  0  0  0  0  0  0  0  0  0
   37.8490   28.5840   39.1960 H   0  0  0  0  0  0  0  0  0  0  0  0
   37.9140   26.1140   39.6110 H   0  0  0  0  0  0  0  0  0  0  0  0
   39.4260   23.4020   42.8570 H   0  0  0  0  0  0  0  0  0  0  0  0
   40.4130   24.9000   44.5950 H   0  0  0  0  0  0  0  0  0  0  0  0
   40.3870   27.3970   44.2540 H   0  0  0  0  0  0  0  0  0  0  0  0
   39.7780   29.2930   42.8510 H   0  0  0  0  0  0  0  0  0  0  0  0
   43.0350   33.6250   38.2790 C   0  0  0  0  0  0  0  0  0  0  0  0
   43.8430   34.2040   39.2410 C   0  0  0  0  0  0  0  0  0  0  0  0
   43.3740   34.2250   40.5730 C   0  0  0  0  0  0  0  0  0  0  0  0
   42.1670   33.6770   40.8220 N   0  0  0  0  0  0  0  0  0  0  0  0
   41.4000   33.1170   39.8590 C   0  0  0  0  0  0  0  0  0  0  0  0
   41.8340   33.0900   38.5810 N   0  0  0  0  0  0  0  0  0  0  0  0
   43.3710   33.6000   37.2710 H   0  0  0  0  0  0  0  0  0  0  0  0
   44.7950   34.6350   39.0380 H   0  0  0  0  0  0  0  0  0  0  0  0
   44.1590   34.8150   41.6500 C   0  0  0  0  0  0  0  0  0  0  0  0
   45.5050   35.1070   41.5710 C   0  0  0  0  0  0  0  0  0  0  0  0
   46.1510   34.9440   40.7220 H   0  0  0  0  0  0  0  0  0  0  0  0
   45.9100   35.6580   42.7890 C   0  0  0  0  0  0  0  0  0  0  0  0
   46.8650   36.0060   43.1090 H   0  0  0  0  0  0  0  0  0  0  0  0
   44.7330   35.6610   43.5470 C   0  0  0  0  0  0  0  0  0  0  0  0
   44.6170   36.0120   44.5620 H   0  0  0  0  0  0  0  0  0  0  0  0
   43.7280   35.1620   42.8560 O   0  0  0  0  0  0  0  0  0  0  0  0
  1  2  1  0  0  0  0
  2  8  1  0  0  0  0
  3  2  2  0  0  0  0
  3  4  1  0  0  0  0
  4  5  2  0  0  0  0
  5  6  1  0  0  0  0
  5 11  1  0  0  0  0
  6  7  1  0  0  0  0
  8 10  1  0  0  0  0
  8  6  2  0  0  0  0
  9  4  1  0  0  0  0
 11 20  1  0  0  0  0
 12 13  1  0  0  0  0
 12 11  2  0  0  0  0
 13 14  2  0  0  0  0
 14 15  1  0  0  0  0
 14 19  1  0  0  0  0
 15 16  2  0  0  0  0
 16 23  1  0  0  0  0
 16 17  1  0  0  0  0
 17 24  1  0  0  0  0
 18 17  2  0  0  0  0
 18 25  1  0  0  0  0
 19 18  1  0  0  0  0
 20 19  2  0  0  0  0
 20 26  1  0  0  0  0
 21 12  1  0  0  0  0
 22 13  1  0  0  0  0
 27 32  2  0  0  0  0
 27 28  1  0  0  0  0
 28 29  2  0  0  0  0
 29 30  1  0  0  0  0
 29 35  1  0  0  0  0
 31  3  1  0  0  0  0
 31 30  2  0  0  0  0
 32 31  1  0  0  0  0
 33 27  1  0  0  0  0
 34 28  1  0  0  0  0
 35 42  1  0  0  0  0
 36 35  2  0  0  0  0
 36 38  1  0  0  0  0
 37 36  1  0  0  0  0
 38 39  1  0  0  0  0
 38 40  2  0  0  0  0
 40 41  1  0  0  0  0
 42 40  1  0  0  0  0
M  END
>  <minimizedAffinity>
-6.89072514

$$$$

 OpenBabel03252506073D

 42 46  0  0  0  0  0  0  0  0999 V2000
   36.9870   33.9860   39.1990 Cl  0  0  0  0  0  0  0  0  0  0  0  0
   37.4140   32.4820   39.9370 C   0  0  0  0  0  0  0  0  0  0  0  0
   38.7030   32.2440   40.3480 C   0  0  0  0  0  0  0  0  0  0  0  0
   38.9490   31.0140   40.9260 C   0  0  0  0  0  0  0  0  0  0  0  0
   37.9820   30.0340   41.1070 C   0  0  0  0  0  0  0  0  0  0  0  0
   36.7080   30.3040   40.6870 C   0  0  0  0  0  0  0  0  0  0  0  0
   35.5270   29.0350   40.9370 Cl  0  0  0  0  0  0  0  0  0  0  0  0
   36.4240   31.5160   40.1080 C   0  0  0  0  0  0  0  0  0  0  0  0
   39.9710   30.8390   41.2450 H   0  0  0  0  0  0  0  0  0  0  0  0
   35.4100   31.6810   39.7930 H   0  0  0  0  0  0  0  0  0  0  0  0
   38.4310   28.7900   41.7400 C   0  0  0  0  0  0  0  0  0  0  0  0
   38.9330   28.7420   43.0210 C   0  0  0  0  0  0  0  0  0  0  0  0
   39.3640   27.5810   43.6430 C   0  0  0  0  0  0  0  0  0  0  0  0
   39.2910   26.3900   42.9450 C   0  0  0  0  0  0  0  0  0  0  0  0
   39.7120   25.2790   43.5640 N   0  0  0  0  0  0  0  0  0  0  0  0
   39.6830   24.0740   42.9730 C   0  0  0  0  0  0  0  0  0  0  0  0
   39.1890   24.0380   41.6750 C   0  0  0  0  0  0  0  0  0  0  0  0
   38.7590   25.1750   41.0460 C   0  0  0  0  0  0  0  0  0  0  0  0
   38.8000   26.3980   41.6750 C   0  0  0  0  0  0  0  0  0  0  0  0
   38.3740   27.5690   41.0700 C   0  0  0  0  0  0  0  0  0  0  0  0
   38.9800   29.6810   43.5440 H   0  0  0  0  0  0  0  0  0  0  0  0
   39.7560   27.5750   44.6560 H   0  0  0  0  0  0  0  0  0  0  0  0
   40.0430   23.2300   43.5480 H   0  0  0  0  0  0  0  0  0  0  0  0
   39.1710   23.0610   41.2130 H   0  0  0  0  0  0  0  0  0  0  0  0
   38.3720   25.1340   40.0240 H   0  0  0  0  0  0  0  0  0  0  0  0
   37.9950   27.5400   40.0750 H   0  0  0  0  0  0  0  0  0  0  0  0
   40.5360   35.3870   40.5980 C   0  0  0  0  0  0  0  0  0  0  0  0
   41.7130   35.1370   39.9150 C   0  0  0  0  0  0  0  0  0  0  0  0
   41.8900   33.8550   39.3490 C   0  0  0  0  0  0  0  0  0  0  0  0
   40.8990   32.9560   39.5120 N   0  0  0  0  0  0  0  0  0  0  0  0
   39.7580   33.2310   40.1850 C   0  0  0  0  0  0  0  0  0  0  0  0
   39.5740   34.4510   40.7310 N   0  0  0  0  0  0  0  0  0  0  0  0
   40.3850   36.3460   41.0300 H   0  0  0  0  0  0  0  0  0  0  0  0
   42.4920   35.8510   39.7900 H   0  0  0  0  0  0  0  0  0  0  0  0
   43.0980   33.5050   38.6130 C   0  0  0  0  0  0  0  0  0  0  0  0
   43.2270   32.3990   37.7980 C   0  0  0  0  0  0  0  0  0  0  0  0
   42.4710   31.6550   37.5960 H   0  0  0  0  0  0  0  0  0  0  0  0
   44.5180   32.3930   37.2640 C   0  0  0  0  0  0  0  0  0  0  0  0
   44.9890   31.7070   36.5980 H   0  0  0  0  0  0  0  0  0  0  0  0
   45.0990   33.5400   37.8150 C   0  0  0  0  0  0  0  0  0  0  0  0
   46.1040   33.9000   37.6510 H   0  0  0  0  0  0  0  0  0  0  0  0
   44.2460   34.1700   38.5980 O   0  0  0  0  0  0  0  0  0  0  0  0
  1  2  1  0  0  0  0
  2  8  2  0  0  0  0
  2  3  1  0  0  0  0
  3  4  2  0  0  0  0
  4  5  1  0  0  0  0
  4  9  1  0  0  0  0
  5 11  1  0  0  0  0
  6  7  1  0  0  0  0
  6  5  2  0  0  0  0
  8  6  1  0  0  0  0
 10  8  1  0  0  0  0
 11 12  1  0  0  0  0
 12 21  1  0  0  0  0
 12 13  2  0  0  0  0
 13 22  1  0  0  0  0
 14 15  1  0  0  0  0
 14 13  1  0  0  0  0
 16 23  1  0  0  0  0
 16 15  2  0  0  0  0
 17 16  1  0  0  0  0
 18 17  2  0  0  0  0
 18 19  1  0  0  0  0
 19 14  2  0  0  0  0
 20 19  1  0  0  0  0
 20 11  2  0  0  0  0
 24 17  1  0  0  0  0
 25 18  1  0  0  0  0
 26 20  1  0  0  0  0
 27 32  1  0  0  0  0
 27 33  1  0  0  0  0
 28 27  2  0  0  0  0
 29 30  2  0  0  0  0
 29 28  1  0  0  0  0
 30 31  1  0  0  0  0
 31  3  1  0  0  0  0
 31 32  2  0  0  0  0
 34 28  1  0  0  0  0
 35 29  1  0  0  0  0
 36 35  2  0  0  0  0
 37 36  1  0  0  0  0
 38 36  1  0  0  0  0
 38 40  2  0  0  0  0
 39 38  1  0  0  0  0
 40 42  1  0  0  0  0
 41 40  1  0  0  0  0
 42 35  1  0  0  0  0
M  END
>  <minimizedAffinity>
-6.86152267

$$$$

 OpenBabel03252506073D

 42 46  0  0  0  0  0  0  0  0999 V2000
   40.4430   31.1720   43.0480 Cl  0  0  0  0  0  0  0  0  0  0  0  0
   39.1730   30.7110   41.9700 C   0  0  0  0  0  0  0  0  0  0  0  0
   38.8070   31.5280   40.9280 C   0  0  0  0  0  0  0  0  0  0  0  0
   37.7820   31.0760   40.1190 C   0  0  0  0  0  0  0  0  0  0  0  0
   37.1230   29.8680   40.3040 C   0  0  0  0  0  0  0  0  0  0  0  0
   37.5130   29.0780   41.3520 C   0  0  0  0  0  0  0  0  0  0  0  0
   36.6490   27.5660   41.5420 Cl  0  0  0  0  0  0  0  0  0  0  0  0
   38.5280   29.4930   42.1770 C   0  0  0  0  0  0  0  0  0  0  0  0
   37.5030   31.7310   39.3000 H   0  0  0  0  0  0  0  0  0  0  0  0
   38.7980   28.8390   42.9860 H   0  0  0  0  0  0  0  0  0  0  0  0
   36.0600   29.5560   39.3440 C   0  0  0  0  0  0  0  0  0  0  0  0
   34.7540   29.3360   39.7200 C   0  0  0  0  0  0  0  0  0  0  0  0
   33.7310   29.0400   38.8350 C   0  0  0  0  0  0  0  0  0  0  0  0
   34.0240   28.9590   37.4870 C   0  0  0  0  0  0  0  0  0  0  0  0
   33.0200   28.6720   36.6470 N   0  0  0  0  0  0  0  0  0  0  0  0
   33.2020   28.5700   35.3210 C   0  0  0  0  0  0  0  0  0  0  0  0
   34.4960   28.7780   34.8590 C   0  0  0  0  0  0  0  0  0  0  0  0
   35.5190   29.0720   35.7210 C   0  0  0  0  0  0  0  0  0  0  0  0
   35.3060   29.1710   37.0760 C   0  0  0  0  0  0  0  0  0  0  0  0
   36.3150   29.4660   37.9760 C   0  0  0  0  0  0  0  0  0  0  0  0
   34.5490   29.4060   40.7750 H   0  0  0  0  0  0  0  0  0  0  0  0
   32.7090   28.8710   39.1620 H   0  0  0  0  0  0  0  0  0  0  0  0
   32.3340   28.3350   34.7170 H   0  0  0  0  0  0  0  0  0  0  0  0
   34.6260   28.6940   33.7900 H   0  0  0  0  0  0  0  0  0  0  0  0
   36.5340   29.2340   35.3460 H   0  0  0  0  0  0  0  0  0  0  0  0
   37.3070   29.6250   37.6230 H   0  0  0  0  0  0  0  0  0  0  0  0
   39.3030   35.1250   40.5870 C   0  0  0  0  0  0  0  0  0  0  0  0
   40.6360   35.2420   40.2350 C   0  0  0  0  0  0  0  0  0  0  0  0
   41.3930   34.0570   40.1100 C   0  0  0  0  0  0  0  0  0  0  0  0
   40.7670   32.8850   40.3410 N   0  0  0  0  0  0  0  0  0  0  0  0
   39.4600   32.8030   40.6830 C   0  0  0  0  0  0  0  0  0  0  0  0
   38.7240   33.9270   40.8070 N   0  0  0  0  0  0  0  0  0  0  0  0
   38.7170   36.0060   40.6850 H   0  0  0  0  0  0  0  0  0  0  0  0
   41.1240   36.1700   40.0540 H   0  0  0  0  0  0  0  0  0  0  0  0
   42.8040   34.0860   39.7430 C   0  0  0  0  0  0  0  0  0  0  0  0
   43.8480   34.0980   40.6440 C   0  0  0  0  0  0  0  0  0  0  0  0
   43.7710   34.0890   41.7210 H   0  0  0  0  0  0  0  0  0  0  0  0
   45.0480   34.1260   39.9280 C   0  0  0  0  0  0  0  0  0  0  0  0
   46.0570   34.1420   40.2690 H   0  0  0  0  0  0  0  0  0  0  0  0
   44.6260   34.1280   38.5940 C   0  0  0  0  0  0  0  0  0  0  0  0
   45.2540   34.1460   37.7160 H   0  0  0  0  0  0  0  0  0  0  0  0
   43.3100   34.1040   38.5170 O   0  0  0  0  0  0  0  0  0  0  0  0
  2  8  1  0  0  0  0
  2  1  1  0  0  0  0
  3  2  2  0  0  0  0
  4  5  2  0  0  0  0
  4  3  1  0  0  0  0
  5  6  1  0  0  0  0
  6  7  1  0  0  0  0
  6  8  2  0  0  0  0
  8 10  1  0  0  0  0
  9  4  1  0  0  0  0
 11 12  1  0  0  0  0
 11  5  1  0  0  0  0
 12 21  1  0  0  0  0
 13 22  1  0  0  0  0
 13 12  2  0  0  0  0
 14 13  1  0  0  0  0
 15 14  2  0  0  0  0
 16 15  1  0  0  0  0
 17 16  2  0  0  0  0
 17 18  1  0  0  0  0
 18 19  2  0  0  0  0
 19 14  1  0  0  0  0
 19 20  1  0  0  0  0
 20 11  2  0  0  0  0
 23 16  1  0  0  0  0
 24 17  1  0  0  0  0
 25 18  1  0  0  0  0
 26 20  1  0  0  0  0
 27 33  1  0  0  0  0
 27 32  1  0  0  0  0
 28 27  2  0  0  0  0
 29 28  1  0  0  0  0
 29 30  2  0  0  0  0
 30 31  1  0  0  0  0
 31 32  2  0  0  0  0
 31  3  1  0  0  0  0
 34 28  1  0  0  0  0
 35 29  1  0  0  0  0
 35 36  2  0  0  0  0
 36 37  1  0  0  0  0
 38 39  1  0  0  0  0
 38 36  1  0  0  0  0
 40 38  2  0  0  0  0
 41 40  1  0  0  0  0
 42 40  1  0  0  0  0
 42 35  1  0  0  0  0
M  END
>  <minimizedAffinity>
-6.8174572

$$$$

 OpenBabel03252506073D

 42 46  0  0  0  0  0  0  0  0999 V2000
   38.2040   30.6910   37.1660 Cl  0  0  0  0  0  0  0  0  0  0  0  0
   39.2890   31.5430   38.2090 C   0  0  0  0  0  0  0  0  0  0  0  0
   39.1790   31.4340   39.5730 C   0  0  0  0  0  0  0  0  0  0  0  0
   40.0900   32.1510   40.3250 C   0  0  0  0  0  0  0  0  0  0  0  0
   41.0830   32.9540   39.7810 C   0  0  0  0  0  0  0  0  0  0  0  0
   41.1650   33.0400   38.4170 C   0  0  0  0  0  0  0  0  0  0  0  0
   42.4340   34.0670   37.7820 Cl  0  0  0  0  0  0  0  0  0  0  0  0
   40.2770   32.3420   37.6370 C   0  0  0  0  0  0  0  0  0  0  0  0
   39.9920   32.0560   41.4010 H   0  0  0  0  0  0  0  0  0  0  0  0
   40.3810   32.4410   36.5720 H   0  0  0  0  0  0  0  0  0  0  0  0
   41.9580   33.6400   40.7380 C   0  0  0  0  0  0  0  0  0  0  0  0
   41.8650   34.9880   41.0020 C   0  0  0  0  0  0  0  0  0  0  0  0
   42.6780   35.6600   41.9000 C   0  0  0  0  0  0  0  0  0  0  0  0
   43.6460   34.9460   42.5800 C   0  0  0  0  0  0  0  0  0  0  0  0
   44.4220   35.6150   43.4440 N   0  0  0  0  0  0  0  0  0  0  0  0
   45.3900   35.0130   44.1530 C   0  0  0  0  0  0  0  0  0  0  0  0
   45.5490   33.6490   43.9420 C   0  0  0  0  0  0  0  0  0  0  0  0
   44.7540   32.9680   43.0590 C   0  0  0  0  0  0  0  0  0  0  0  0
   43.7680   33.6100   42.3450 C   0  0  0  0  0  0  0  0  0  0  0  0
   42.9460   32.9550   41.4430 C   0  0  0  0  0  0  0  0  0  0  0  0
   41.1030   35.5230   40.4610 H   0  0  0  0  0  0  0  0  0  0  0  0
   42.5810   36.7260   42.0870 H   0  0  0  0  0  0  0  0  0  0  0  0
   45.9680   35.6310   44.8280 H   0  0  0  0  0  0  0  0  0  0  0  0
   46.3310   33.1780   44.5200 H   0  0  0  0  0  0  0  0  0  0  0  0
   44.8880   31.8940   42.9010 H   0  0  0  0  0  0  0  0  0  0  0  0
   43.0680   31.9100   41.2820 H   0  0  0  0  0  0  0  0  0  0  0  0
   35.9590   30.3880   40.9310 C   0  0  0  0  0  0  0  0  0  0  0  0
   36.1940   29.1000   41.3770 C   0  0  0  0  0  0  0  0  0  0  0  0
   37.4910   28.5670   41.2110 C   0  0  0  0  0  0  0  0  0  0  0  0
   38.4200   29.3510   40.6270 N   0  0  0  0  0  0  0  0  0  0  0  0
   38.1610   30.6080   40.2010 C   0  0  0  0  0  0  0  0  0  0  0  0
   36.9260   31.1310   40.3520 N   0  0  0  0  0  0  0  0  0  0  0  0
   34.9890   30.8050   41.0470 H   0  0  0  0  0  0  0  0  0  0  0  0
   35.4550   28.4860   41.8380 H   0  0  0  0  0  0  0  0  0  0  0  0
   37.8260   27.2190   41.6530 C   0  0  0  0  0  0  0  0  0  0  0  0
   39.1070   26.7690   41.8970 C   0  0  0  0  0  0  0  0  0  0  0  0
   40.0200   27.3380   41.7980 H   0  0  0  0  0  0  0  0  0  0  0  0
   39.0370   25.4340   42.3010 C   0  0  0  0  0  0  0  0  0  0  0  0
   39.8080   24.7520   42.5750 H   0  0  0  0  0  0  0  0  0  0  0  0
   37.6650   25.1620   42.2710 C   0  0  0  0  0  0  0  0  0  0  0  0
   37.1850   24.2260   42.5180 H   0  0  0  0  0  0  0  0  0  0  0  0
   36.9830   26.2230   41.8890 O   0  0  0  0  0  0  0  0  0  0  0  0
  1  2  1  0  0  0  0
  2  3  1  0  0  0  0
  3 31  1  0  0  0  0
  3  4  2  0  0  0  0
  4  9  1  0  0  0  0
  5  4  1  0  0  0  0
  5 11  1  0  0  0  0
  6  5  2  0  0  0  0
  7  6  1  0  0  0  0
  8  2  2  0  0  0  0
  8  6  1  0  0  0  0
 10  8  1  0  0  0  0
 11 12  2  0  0  0  0
 11 20  1  0  0  0  0
 12 13  1  0  0  0  0
 13 22  1  0  0  0  0
 13 14  2  0  0  0  0
 14 15  1  0  0  0  0
 15 16  2  0  0  0  0
 16 23  1  0  0  0  0
 17 16  1  0  0  0  0
 17 24  1  0  0  0  0
 18 17  2  0  0  0  0
 19 14  1  0  0  0  0
 19 18  1  0  0  0  0
 20 19  2  0  0  0  0
 21 12  1  0  0  0  0
 25 18  1  0  0  0  0
 26 20  1  0  0  0  0
 27 33  1  0  0  0  0
 27 28  1  0  0  0  0
 28 34  1  0  0  0  0
 29 28  2  0  0  0  0
 29 35  1  0  0  0  0
 30 29  1  0  0  0  0
 31 32  1  0  0  0  0
 31 30  2  0  0  0  0
 32 27  2  0  0  0  0
 35 42  1  0  0  0  0
 35 36  2  0  0  0  0
 36 38  1  0  0  0  0
 37 36  1  0  0  0  0
 38 39  1  0  0  0  0
 40 38  2  0  0  0  0
 40 41  1  0  0  0  0
 42 40  1  0  0  0  0
M  END
>  <minimizedAffinity>
-6.48145628

$$$$

 OpenBabel03252506073D

 42 46  0  0  0  0  0  0  0  0999 V2000
   37.0290   25.9220   39.3200 Cl  0  0  0  0  0  0  0  0  0  0  0  0
   35.8190   26.8730   38.5310 C   0  0  0  0  0  0  0  0  0  0  0  0
   35.6250   28.1880   38.8780 C   0  0  0  0  0  0  0  0  0  0  0  0
   34.6370   28.8680   38.1940 C   0  0  0  0  0  0  0  0  0  0  0  0
   33.8520   28.3010   37.1990 C   0  0  0  0  0  0  0  0  0  0  0  0
   34.0720   26.9890   36.8770 C   0  0  0  0  0  0  0  0  0  0  0  0
   33.0560   26.3210   35.6160 Cl  0  0  0  0  0  0  0  0  0  0  0  0
   35.0460   26.2800   37.5350 C   0  0  0  0  0  0  0  0  0  0  0  0
   34.4940   29.9050   38.4780 H   0  0  0  0  0  0  0  0  0  0  0  0
   35.1810   25.2530   37.2480 H   0  0  0  0  0  0  0  0  0  0  0  0
   32.8510   29.1790   36.5830 C   0  0  0  0  0  0  0  0  0  0  0  0
   32.9130   29.5740   35.2660 C   0  0  0  0  0  0  0  0  0  0  0  0
   31.9820   30.4020   34.6600 C   0  0  0  0  0  0  0  0  0  0  0  0
   30.9210   30.8670   35.4130 C   0  0  0  0  0  0  0  0  0  0  0  0
   30.0310   31.6660   34.8080 N   0  0  0  0  0  0  0  0  0  0  0  0
   28.9660   32.1700   35.4520 C   0  0  0  0  0  0  0  0  0  0  0  0
   28.8320   31.8180   36.7890 C   0  0  0  0  0  0  0  0  0  0  0  0
   29.7430   31.0000   37.4030 C   0  0  0  0  0  0  0  0  0  0  0  0
   30.8260   30.4970   36.7210 C   0  0  0  0  0  0  0  0  0  0  0  0
   31.7660   29.6680   37.3090 C   0  0  0  0  0  0  0  0  0  0  0  0
   33.7480   29.1990   34.7000 H   0  0  0  0  0  0  0  0  0  0  0  0
   32.0580   30.6970   33.6170 H   0  0  0  0  0  0  0  0  0  0  0  0
   28.2990   32.8070   34.8850 H   0  0  0  0  0  0  0  0  0  0  0  0
   27.9700   32.2300   37.2930 H   0  0  0  0  0  0  0  0  0  0  0  0
   29.6270   30.7290   38.4570 H   0  0  0  0  0  0  0  0  0  0  0  0
   31.6630   29.3980   38.3330 H   0  0  0  0  0  0  0  0  0  0  0  0
   37.0320   28.9550   42.1550 C   0  0  0  0  0  0  0  0  0  0  0  0
   37.8830   30.0180   41.9070 C   0  0  0  0  0  0  0  0  0  0  0  0
   37.9820   30.4900   40.5800 C   0  0  0  0  0  0  0  0  0  0  0  0
   37.2400   29.8740   39.6380 N   0  0  0  0  0  0  0  0  0  0  0  0
   36.4160   28.8360   39.9120 C   0  0  0  0  0  0  0  0  0  0  0  0
   36.3100   28.3740   41.1750 N   0  0  0  0  0  0  0  0  0  0  0  0
   36.9440   28.5860   43.1480 H   0  0  0  0  0  0  0  0  0  0  0  0
   38.4660   30.5000   42.6560 H   0  0  0  0  0  0  0  0  0  0  0  0
   38.8530   31.6050   40.2290 C   0  0  0  0  0  0  0  0  0  0  0  0
   39.5370   31.7210   39.0360 C   0  0  0  0  0  0  0  0  0  0  0  0
   39.5240   31.0200   38.2150 H   0  0  0  0  0  0  0  0  0  0  0  0
   40.2630   32.9140   39.0590 C   0  0  0  0  0  0  0  0  0  0  0  0
   40.9060   33.3470   38.3280 H   0  0  0  0  0  0  0  0  0  0  0  0
   39.9550   33.4550   40.3110 C   0  0  0  0  0  0  0  0  0  0  0  0
   40.3190   34.3850   40.7230 H   0  0  0  0  0  0  0  0  0  0  0  0
   39.1280   32.6690   40.9720 O   0  0  0  0  0  0  0  0  0  0  0  0
  2  3  1  0  0  0  0
  2  1  1  0  0  0  0
  3 31  1  0  0  0  0
  4  9  1  0  0  0  0
  4  3  2  0  0  0  0
  5  4  1  0  0  0  0
  6  5  2  0  0  0  0
  6  8  1  0  0  0  0
  7  6  1  0  0  0  0
  8  2  2  0  0  0  0
 10  8  1  0  0  0  0
 11  5  1  0  0  0  0
 11 20  1  0  0  0  0
 12 11  2  0  0  0  0
 13 12  1  0  0  0  0
 13 14  2  0  0  0  0
 14 19  1  0  0  0  0
 15 14  1  0  0  0  0
 15 16  2  0  0  0  0
 16 17  1  0  0  0  0
 17 24  1  0  0  0  0
 17 18  2  0  0  0  0
 18 25  1  0  0  0  0
 19 20  2  0  0  0  0
 19 18  1  0  0  0  0
 20 26  1  0  0  0  0
 21 12  1  0  0  0  0
 22 13  1  0  0  0  0
 23 16  1  0  0  0  0
 27 33  1  0  0  0  0
 28 27  1  0  0  0  0
 28 34  1  0  0  0  0
 29 28  2  0  0  0  0
 30 31  2  0  0  0  0
 30 29  1  0  0  0  0
 31 32  1  0  0  0  0
 32 27  2  0  0  0  0
 35 29  1  0  0  0  0
 35 42  1  0  0  0  0
 36 38  1  0  0  0  0
 36 35  2  0  0  0  0
 37 36  1  0  0  0  0
 38 40  2  0  0  0  0
 39 38  1  0  0  0  0
 40 41  1  0  0  0  0
 40 42  1  0  0  0  0
M  END
>  <minimizedAffinity>
-6.39423084

$$$$

 OpenBabel03252506073D

 42 46  0  0  0  0  0  0  0  0999 V2000
   38.4970   25.8900   41.2870 Cl  0  0  0  0  0  0  0  0  0  0  0  0
   37.3730   26.5840   40.1730 C   0  0  0  0  0  0  0  0  0  0  0  0
   37.1770   27.9420   40.1300 C   0  0  0  0  0  0  0  0  0  0  0  0
   36.2590   28.4050   39.2070 C   0  0  0  0  0  0  0  0  0  0  0  0
   35.5450   27.5840   38.3450 C   0  0  0  0  0  0  0  0  0  0  0  0
   35.7640   26.2350   38.4140 C   0  0  0  0  0  0  0  0  0  0  0  0
   34.8370   25.2440   37.3060 Cl  0  0  0  0  0  0  0  0  0  0  0  0
   36.6690   25.7370   39.3180 C   0  0  0  0  0  0  0  0  0  0  0  0
   36.1140   29.4800   39.1840 H   0  0  0  0  0  0  0  0  0  0  0  0
   36.8070   24.6710   39.3350 H   0  0  0  0  0  0  0  0  0  0  0  0
   34.6130   28.2560   37.4330 C   0  0  0  0  0  0  0  0  0  0  0  0
   34.8950   28.4750   36.1040 C   0  0  0  0  0  0  0  0  0  0  0  0
   34.0330   29.1070   35.2220 C   0  0  0  0  0  0  0  0  0  0  0  0
   32.8120   29.5500   35.6920 C   0  0  0  0  0  0  0  0  0  0  0  0
   31.9930   30.1580   34.8230 N   0  0  0  0  0  0  0  0  0  0  0  0
   30.7860   30.6240   35.1810 C   0  0  0  0  0  0  0  0  0  0  0  0
   30.4260   30.4420   36.5100 C   0  0  0  0  0  0  0  0  0  0  0  0
   31.2650   29.8200   37.3960 C   0  0  0  0  0  0  0  0  0  0  0  0
   32.4970   29.3510   37.0030 C   0  0  0  0  0  0  0  0  0  0  0  0
   33.3710   28.7170   37.8690 C   0  0  0  0  0  0  0  0  0  0  0  0
   35.8520   28.1210   35.7610 H   0  0  0  0  0  0  0  0  0  0  0  0
   34.2840   29.2650   34.1770 H   0  0  0  0  0  0  0  0  0  0  0  0
   30.1910   31.1020   34.4130 H   0  0  0  0  0  0  0  0  0  0  0  0
   29.4520   30.8220   36.7830 H   0  0  0  0  0  0  0  0  0  0  0  0
   30.9700   29.6820   38.4400 H   0  0  0  0  0  0  0  0  0  0  0  0
   33.0950   28.5780   38.8880 H   0  0  0  0  0  0  0  0  0  0  0  0
   38.8710   29.2470   43.0850 C   0  0  0  0  0  0  0  0  0  0  0  0
   39.2530   30.5230   42.7090 C   0  0  0  0  0  0  0  0  0  0  0  0
   38.9230   30.9550   41.4050 C   0  0  0  0  0  0  0  0  0  0  0  0
   38.2560   30.0950   40.6100 N   0  0  0  0  0  0  0  0  0  0  0  0
   37.8960   28.8520   41.0060 C   0  0  0  0  0  0  0  0  0  0  0  0
   38.2040   28.4250   42.2490 N   0  0  0  0  0  0  0  0  0  0  0  0
   39.1100   28.9050   44.0620 H   0  0  0  0  0  0  0  0  0  0  0  0
   39.7790   31.1970   43.3420 H   0  0  0  0  0  0  0  0  0  0  0  0
   39.2850   32.2830   40.9260 C   0  0  0  0  0  0  0  0  0  0  0  0
   38.3920   33.2050   40.4200 C   0  0  0  0  0  0  0  0  0  0  0  0
   37.3260   33.0770   40.3120 H   0  0  0  0  0  0  0  0  0  0  0  0
   39.1000   34.3560   40.0650 C   0  0  0  0  0  0  0  0  0  0  0  0
   38.7620   35.2750   39.6450 H   0  0  0  0  0  0  0  0  0  0  0  0
   40.4220   34.0340   40.3930 C   0  0  0  0  0  0  0  0  0  0  0  0
   41.2910   34.6630   40.2710 H   0  0  0  0  0  0  0  0  0  0  0  0
   40.4990   32.8180   40.8940 O   0  0  0  0  0  0  0  0  0  0  0  0
  2  1  1  0  0  0  0
  3  2  1  0  0  0  0
  3 31  1  0  0  0  0
  4  3  2  0  0  0  0
  5  6  2  0  0  0  0
  5  4  1  0  0  0  0
  6  8  1  0  0  0  0
  7  6  1  0  0  0  0
  8 10  1  0  0  0  0
  8  2  2  0  0  0  0
  9  4  1  0  0  0  0
 11 20  1  0  0  0  0
 11  5  1  0  0  0  0
 12 11  2  0  0  0  0
 13 14  2  0  0  0  0
 13 12  1  0  0  0  0
 14 19  1  0  0  0  0
 15 16  2  0  0  0  0
 15 14  1  0  0  0  0
 16 17  1  0  0  0  0
 17 24  1  0  0  0  0
 17 18  2  0  0  0  0
 18 25  1  0  0  0  0
 19 18  1  0  0  0  0
 19 20  2  0  0  0  0
 20 26  1  0  0  0  0
 21 12  1  0  0  0  0
 22 13  1  0  0  0  0
 23 16  1  0  0  0  0
 27 33  1  0  0  0  0
 28 27  1  0  0  0  0
 28 34  1  0  0  0  0
 29 28  2  0  0  0  0
 30 31  2  0  0  0  0
 30 29  1  0  0  0  0
 31 32  1  0  0  0  0
 32 27  2  0  0  0  0
 35 29  1  0  0  0  0
 36 35  2  0  0  0  0
 37 36  1  0  0  0  0
 38 40  2  0  0  0  0
 38 36  1  0  0  0  0
 39 38  1  0  0  0  0
 40 42  1  0  0  0  0
 41 40  1  0  0  0  0
 42 35  1  0  0  0  0
M  END
>  <minimizedAffinity>
-6.35493755

$$$$

 OpenBabel03252506073D

 42 46  0  0  0  0  0  0  0  0999 V2000
   35.0250   26.0680   37.9230 Cl  0  0  0  0  0  0  0  0  0  0  0  0
   35.8580   27.5320   38.3130 C   0  0  0  0  0  0  0  0  0  0  0  0
   35.4290   28.7370   37.8130 C   0  0  0  0  0  0  0  0  0  0  0  0
   36.1570   29.8530   38.1790 C   0  0  0  0  0  0  0  0  0  0  0  0
   37.2730   29.8130   39.0050 C   0  0  0  0  0  0  0  0  0  0  0  0
   37.6740   28.5960   39.4860 C   0  0  0  0  0  0  0  0  0  0  0  0
   39.0860   28.6020   40.5230 Cl  0  0  0  0  0  0  0  0  0  0  0  0
   36.9740   27.4650   39.1450 C   0  0  0  0  0  0  0  0  0  0  0  0
   35.8070   30.7980   37.7770 H   0  0  0  0  0  0  0  0  0  0  0  0
   37.3280   26.5330   39.5460 H   0  0  0  0  0  0  0  0  0  0  0  0
   37.9180   31.1010   39.2830 C   0  0  0  0  0  0  0  0  0  0  0  0
   37.3600   32.0550   40.1040 C   0  0  0  0  0  0  0  0  0  0  0  0
   37.9480   33.2770   40.3840 C   0  0  0  0  0  0  0  0  0  0  0  0
   39.1700   33.5710   39.8100 C   0  0  0  0  0  0  0  0  0  0  0  0
   39.7220   34.7590   40.0930 N   0  0  0  0  0  0  0  0  0  0  0  0
   40.9060   35.1390   39.5860 C   0  0  0  0  0  0  0  0  0  0  0  0
   41.5350   34.2290   38.7450 C   0  0  0  0  0  0  0  0  0  0  0  0
   40.9690   33.0160   38.4580 C   0  0  0  0  0  0  0  0  0  0  0  0
   39.7540   32.6510   38.9910 C   0  0  0  0  0  0  0  0  0  0  0  0
   39.1510   31.4340   38.7240 C   0  0  0  0  0  0  0  0  0  0  0  0
   36.4090   31.8030   40.5400 H   0  0  0  0  0  0  0  0  0  0  0  0
   37.4830   34.0110   41.0360 H   0  0  0  0  0  0  0  0  0  0  0  0
   41.2760   36.1160   39.8690 H   0  0  0  0  0  0  0  0  0  0  0  0
   42.4870   34.5490   38.3450 H   0  0  0  0  0  0  0  0  0  0  0  0
   41.4730   32.3080   37.7950 H   0  0  0  0  0  0  0  0  0  0  0  0
   39.6330   30.7370   38.0800 H   0  0  0  0  0  0  0  0  0  0  0  0
   33.3440   28.5480   34.8260 C   0  0  0  0  0  0  0  0  0  0  0  0
   32.1130   29.0130   35.2540 C   0  0  0  0  0  0  0  0  0  0  0  0
   31.9860   29.4040   36.6050 C   0  0  0  0  0  0  0  0  0  0  0  0
   33.0760   29.2990   37.3930 N   0  0  0  0  0  0  0  0  0  0  0  0
   34.2680   28.8410   36.9440 C   0  0  0  0  0  0  0  0  0  0  0  0
   34.4040   28.4640   35.6560 N   0  0  0  0  0  0  0  0  0  0  0  0
   33.4580   28.2500   33.8130 H   0  0  0  0  0  0  0  0  0  0  0  0
   31.2570   29.0930   34.6270 H   0  0  0  0  0  0  0  0  0  0  0  0
   30.7270   29.9060   37.1410 C   0  0  0  0  0  0  0  0  0  0  0  0
   30.4600   30.0810   38.4830 C   0  0  0  0  0  0  0  0  0  0  0  0
   31.1290   29.8760   39.3060 H   0  0  0  0  0  0  0  0  0  0  0  0
   29.1600   30.5750   38.6140 C   0  0  0  0  0  0  0  0  0  0  0  0
   28.6010   30.8340   39.4830 H   0  0  0  0  0  0  0  0  0  0  0  0
   28.7180   30.6680   37.2890 C   0  0  0  0  0  0  0  0  0  0  0  0
   27.7510   31.0110   36.9520 H   0  0  0  0  0  0  0  0  0  0  0  0
   29.6540   30.2700   36.4510 O   0  0  0  0  0  0  0  0  0  0  0  0
  1  2  1  0  0  0  0
  2  8  1  0  0  0  0
  3  4  1  0  0  0  0
  3  2  2  0  0  0  0
  4  5  2  0  0  0  0
  5 11  1  0  0  0  0
  5  6  1  0  0  0  0
  6  7  1  0  0  0  0
  8  6  2  0  0  0  0
  8 10  1  0  0  0  0
  9  4  1  0  0  0  0
 11 12  1  0  0  0  0
 12 13  2  0  0  0  0
 12 21  1  0  0  0  0
 13 22  1  0  0  0  0
 14 15  1  0  0  0  0
 14 13  1  0  0  0  0
 16 23  1  0  0  0  0
 16 15  2  0  0  0  0
 17 16  1  0  0  0  0
 18 17  2  0  0  0  0
 18 19  1  0  0  0  0
 19 14  2  0  0  0  0
 20 19  1  0  0  0  0
 20 11  2  0  0  0  0
 24 17  1  0  0  0  0
 25 18  1  0  0  0  0
 26 20  1  0  0  0  0
 27 28  2  0  0  0  0
 27 32  1  0  0  0  0
 28 29  1  0  0  0  0
 29 35  1  0  0  0  0
 29 30  2  0  0  0  0
 31 30  1  0  0  0  0
 31  3  1  0  0  0  0
 32 31  2  0  0  0  0
 33 27  1  0  0  0  0
 34 28  1  0  0  0  0
 35 36  2  0  0  0  0
 36 38  1  0  0  0  0
 36 37  1  0  0  0  0
 38 39  1  0  0  0  0
 40 38  2  0  0  0  0
 41 40  1  0  0  0  0
 42 35  1  0  0  0  0
 42 40  1  0  0  0  0
M  END
>  <minimizedAffinity>
-6.32392263

$$$$
