
 OpenBabel03252503583D

 19 20  0  0  0  0  0  0  0  0999 V2000
   37.8240   32.2920   39.8700 C   0  0  0  0  0  0  0  0  0  0  0  0
   37.3490   31.9780   38.5950 C   0  0  0  0  0  0  0  0  0  0  0  0
   36.8230   30.6960   38.4050 C   0  0  0  0  0  0  0  0  0  0  0  0
   36.8060   29.8410   39.4640 N   0  0  0  0  0  0  0  0  0  0  0  0
   37.2770   30.1890   40.6720 C   0  0  0  0  0  0  0  0  0  0  0  0
   37.7880   31.4120   40.8870 N   0  0  0  0  0  0  0  0  0  0  0  0
   37.3760   32.6800   37.7780 H   0  0  0  0  0  0  0  0  0  0  0  0
   36.4410   30.3890   37.4560 H   0  0  0  0  0  0  0  0  0  0  0  0
   37.2710   29.2900   41.8230 C   0  0  0  0  0  0  0  0  0  0  0  0
   36.4290   28.1900   41.7610 C   0  0  0  0  0  0  0  0  0  0  0  0
   35.7440   27.8360   41.0100 H   0  0  0  0  0  0  0  0  0  0  0  0
   36.5990   27.4920   42.9620 C   0  0  0  0  0  0  0  0  0  0  0  0
   36.0880   26.5680   43.2550 H   0  0  0  0  0  0  0  0  0  0  0  0
   37.5470   28.2310   43.6800 C   0  0  0  0  0  0  0  0  0  0  0  0
   37.8950   27.9460   44.6630 H   0  0  0  0  0  0  0  0  0  0  0  0
   37.9120   29.2780   42.9710 O   0  0  0  0  0  0  0  0  0  0  0  0
   38.3550   33.6260   40.0080 C   0  0  0  0  0  0  0  0  0  0  0  0
   38.8190   34.1450   41.0620 O   0  0  0  0  0  0  0  0  0  0  0  0
   38.3380   34.2200   39.0850 H   0  0  0  0  0  0  0  0  0  0  0  0
  1 17  1  0  0  0  0
  1  6  1  0  0  0  0
  2  1  2  0  0  0  0
  3  2  1  0  0  0  0
  3  4  2  0  0  0  0
  4  5  1  0  0  0  0
  5  6  2  0  0  0  0
  5  9  1  0  0  0  0
  7  2  1  0  0  0  0
  8  3  1  0  0  0  0
  9 16  1  0  0  0  0
 10  9  2  0  0  0  0
 10 12  1  0  0  0  0
 11 10  1  0  0  0  0
 12 13  1  0  0  0  0
 12 14  2  0  0  0  0
 14 15  1  0  0  0  0
 16 14  1  0  0  0  0
 17 18  2  0  0  0  0
 19 17  1  0  0  0  0
M  END
>  <minimizedAffinity>
-4.05596304

$$$$

 OpenBabel03252503583D

 19 20  0  0  0  0  0  0  0  0999 V2000
   37.3270   28.7720   42.3370 C   0  0  0  0  0  0  0  0  0  0  0  0
   36.2180   28.1870   41.7200 C   0  0  0  0  0  0  0  0  0  0  0  0
   35.5820   28.9240   40.7160 C   0  0  0  0  0  0  0  0  0  0  0  0
   36.0760   30.1540   40.4040 N   0  0  0  0  0  0  0  0  0  0  0  0
   37.1460   30.6730   41.0270 C   0  0  0  0  0  0  0  0  0  0  0  0
   37.7790   29.9920   41.9950 N   0  0  0  0  0  0  0  0  0  0  0  0
   35.8530   27.2110   41.9910 H   0  0  0  0  0  0  0  0  0  0  0  0
   34.7290   28.5380   40.2020 H   0  0  0  0  0  0  0  0  0  0  0  0
   37.6950   31.9890   40.7110 C   0  0  0  0  0  0  0  0  0  0  0  0
   37.0340   32.7340   39.7470 C   0  0  0  0  0  0  0  0  0  0  0  0
   36.1590   32.5440   39.1490 H   0  0  0  0  0  0  0  0  0  0  0  0
   37.7390   33.9370   39.6230 C   0  0  0  0  0  0  0  0  0  0  0  0
   37.4970   34.7650   38.9470 H   0  0  0  0  0  0  0  0  0  0  0  0
   38.7950   33.8340   40.5360 C   0  0  0  0  0  0  0  0  0  0  0  0
   39.5290   34.6150   40.6780 H   0  0  0  0  0  0  0  0  0  0  0  0
   38.7280   32.6740   41.1520 O   0  0  0  0  0  0  0  0  0  0  0  0
   37.9430   27.9680   43.3640 C   0  0  0  0  0  0  0  0  0  0  0  0
   39.0020   27.2880   43.2530 O   0  0  0  0  0  0  0  0  0  0  0  0
   37.4110   27.9710   44.3250 H   0  0  0  0  0  0  0  0  0  0  0  0
  1 17  1  0  0  0  0
  2  7  1  0  0  0  0
  2  1  2  0  0  0  0
  3  2  1  0  0  0  0
  4  3  2  0  0  0  0
  4  5  1  0  0  0  0
  5  6  2  0  0  0  0
  6  1  1  0  0  0  0
  8  3  1  0  0  0  0
  9  5  1  0  0  0  0
  9 16  1  0  0  0  0
 10  9  2  0  0  0  0
 11 10  1  0  0  0  0
 12 10  1  0  0  0  0
 12 14  2  0  0  0  0
 13 12  1  0  0  0  0
 14 15  1  0  0  0  0
 14 16  1  0  0  0  0
 17 19  1  0  0  0  0
 18 17  2  0  0  0  0
M  END
>  <minimizedAffinity>
-4.04601097

$$$$

 OpenBabel03252503583D

 19 20  0  0  0  0  0  0  0  0999 V2000
   38.4590   25.6100   42.4520 C   0  0  0  0  0  0  0  0  0  0  0  0
   39.5490   25.8310   43.2980 C   0  0  0  0  0  0  0  0  0  0  0  0
   39.8560   27.1590   43.6120 C   0  0  0  0  0  0  0  0  0  0  0  0
   39.0830   28.1450   43.0800 N   0  0  0  0  0  0  0  0  0  0  0  0
   38.0450   27.8820   42.2710 C   0  0  0  0  0  0  0  0  0  0  0  0
   37.7230   26.6190   41.9500 N   0  0  0  0  0  0  0  0  0  0  0  0
   40.1400   25.0260   43.7020 H   0  0  0  0  0  0  0  0  0  0  0  0
   40.6760   27.4000   44.2520 H   0  0  0  0  0  0  0  0  0  0  0  0
   37.2010   28.9210   41.6880 C   0  0  0  0  0  0  0  0  0  0  0  0
   36.1240   28.5040   40.9210 C   0  0  0  0  0  0  0  0  0  0  0  0
   35.7560   27.5300   40.6470 H   0  0  0  0  0  0  0  0  0  0  0  0
   35.4780   29.6640   40.4800 C   0  0  0  0  0  0  0  0  0  0  0  0
   34.5840   29.7090   39.8470 H   0  0  0  0  0  0  0  0  0  0  0  0
   36.2210   30.7200   41.0190 C   0  0  0  0  0  0  0  0  0  0  0  0
   35.9720   31.7600   40.8560 H   0  0  0  0  0  0  0  0  0  0  0  0
   37.2230   30.2360   41.7210 O   0  0  0  0  0  0  0  0  0  0  0  0
   38.1870   24.2230   42.1620 C   0  0  0  0  0  0  0  0  0  0  0  0
   37.2690   23.7770   41.4190 O   0  0  0  0  0  0  0  0  0  0  0  0
   38.8670   23.5150   42.6540 H   0  0  0  0  0  0  0  0  0  0  0  0
  1  2  1  0  0  0  0
  2  3  2  0  0  0  0
  2  7  1  0  0  0  0
  3  8  1  0  0  0  0
  4  3  1  0  0  0  0
  5  4  2  0  0  0  0
  6  5  1  0  0  0  0
  6  1  2  0  0  0  0
  9 16  1  0  0  0  0
  9  5  1  0  0  0  0
 10  9  2  0  0  0  0
 11 10  1  0  0  0  0
 12 10  1  0  0  0  0
 12 14  2  0  0  0  0
 13 12  1  0  0  0  0
 14 16  1  0  0  0  0
 15 14  1  0  0  0  0
 17  1  1  0  0  0  0
 17 19  1  0  0  0  0
 18 17  2  0  0  0  0
M  END
>  <minimizedAffinity>
-3.89028597

$$$$

 OpenBabel03252503583D

 19 20  0  0  0  0  0  0  0  0999 V2000
   37.1970   30.5550   38.4320 C   0  0  0  0  0  0  0  0  0  0  0  0
   37.3020   31.9440   38.5510 C   0  0  0  0  0  0  0  0  0  0  0  0
   37.3970   32.4700   39.8430 C   0  0  0  0  0  0  0  0  0  0  0  0
   37.3810   31.6070   40.8960 N   0  0  0  0  0  0  0  0  0  0  0  0
   37.2770   30.2800   40.7300 C   0  0  0  0  0  0  0  0  0  0  0  0
   37.1840   29.7420   39.5040 N   0  0  0  0  0  0  0  0  0  0  0  0
   37.3130   32.5980   37.6950 H   0  0  0  0  0  0  0  0  0  0  0  0
   37.4810   33.5220   40.0070 H   0  0  0  0  0  0  0  0  0  0  0  0
   37.2570   29.3330   41.8430 C   0  0  0  0  0  0  0  0  0  0  0  0
   36.5050   28.1800   41.6780 C   0  0  0  0  0  0  0  0  0  0  0  0
   35.9010   27.8120   40.8670 H   0  0  0  0  0  0  0  0  0  0  0  0
   36.6420   27.4450   42.8610 C   0  0  0  0  0  0  0  0  0  0  0  0
   36.1800   26.4760   43.0800 H   0  0  0  0  0  0  0  0  0  0  0  0
   37.4820   28.2170   43.6730 C   0  0  0  0  0  0  0  0  0  0  0  0
   37.7810   27.9140   44.6660 H   0  0  0  0  0  0  0  0  0  0  0  0
   37.8180   29.3160   43.0330 O   0  0  0  0  0  0  0  0  0  0  0  0
   37.1020   30.0680   37.0780 C   0  0  0  0  0  0  0  0  0  0  0  0
   36.1140   29.4740   36.5610 O   0  0  0  0  0  0  0  0  0  0  0  0
   37.9950   30.2470   36.4660 H   0  0  0  0  0  0  0  0  0  0  0  0
  1  2  2  0  0  0  0
  1  6  1  0  0  0  0
  2  3  1  0  0  0  0
  3  8  1  0  0  0  0
  3  4  2  0  0  0  0
  5  4  1  0  0  0  0
  5  9  1  0  0  0  0
  6  5  2  0  0  0  0
  7  2  1  0  0  0  0
  9 16  1  0  0  0  0
 10  9  2  0  0  0  0
 10 12  1  0  0  0  0
 11 10  1  0  0  0  0
 12 13  1  0  0  0  0
 12 14  2  0  0  0  0
 14 15  1  0  0  0  0
 16 14  1  0  0  0  0
 17  1  1  0  0  0  0
 18 17  2  0  0  0  0
 19 17  1  0  0  0  0
M  END
>  <minimizedAffinity>
-3.88817644

$$$$

 OpenBabel03252503583D

 19 20  0  0  0  0  0  0  0  0999 V2000
   37.7680   28.7720   42.4220 C   0  0  0  0  0  0  0  0  0  0  0  0
   39.0270   28.3540   42.8600 C   0  0  0  0  0  0  0  0  0  0  0  0
   40.1060   29.2100   42.6180 C   0  0  0  0  0  0  0  0  0  0  0  0
   39.8660   30.3870   41.9760 N   0  0  0  0  0  0  0  0  0  0  0  0
   38.6370   30.7440   41.5730 C   0  0  0  0  0  0  0  0  0  0  0  0
   37.5800   29.9450   41.7910 N   0  0  0  0  0  0  0  0  0  0  0  0
   39.1820   27.4150   43.3660 H   0  0  0  0  0  0  0  0  0  0  0  0
   41.0960   28.9540   42.9260 H   0  0  0  0  0  0  0  0  0  0  0  0
   38.3530   31.9990   40.8830 C   0  0  0  0  0  0  0  0  0  0  0  0
   37.2970   32.0020   39.9850 C   0  0  0  0  0  0  0  0  0  0  0  0
   36.6040   31.2410   39.6700 H   0  0  0  0  0  0  0  0  0  0  0  0
   37.2260   33.2980   39.4610 C   0  0  0  0  0  0  0  0  0  0  0  0
   36.5050   33.6600   38.7190 H   0  0  0  0  0  0  0  0  0  0  0  0
   38.2610   34.0000   40.0880 C   0  0  0  0  0  0  0  0  0  0  0  0
   38.4690   35.0430   39.8910 H   0  0  0  0  0  0  0  0  0  0  0  0
   38.8960   33.1970   40.9150 O   0  0  0  0  0  0  0  0  0  0  0  0
   36.6930   27.8500   42.6980 C   0  0  0  0  0  0  0  0  0  0  0  0
   36.7960   26.6010   42.8560 O   0  0  0  0  0  0  0  0  0  0  0  0
   35.7020   28.3170   42.7700 H   0  0  0  0  0  0  0  0  0  0  0  0
  1 17  1  0  0  0  0
  1  2  1  0  0  0  0
  2  7  1  0  0  0  0
  3  2  2  0  0  0  0
  3  8  1  0  0  0  0
  4  3  1  0  0  0  0
  5  6  1  0  0  0  0
  5  4  2  0  0  0  0
  6  1  2  0  0  0  0
  9 16  1  0  0  0  0
  9  5  1  0  0  0  0
 10  9  2  0  0  0  0
 11 10  1  0  0  0  0
 12 10  1  0  0  0  0
 12 14  2  0  0  0  0
 13 12  1  0  0  0  0
 14 16  1  0  0  0  0
 15 14  1  0  0  0  0
 17 19  1  0  0  0  0
 17 18  2  0  0  0  0
M  END
>  <minimizedAffinity>
-3.86590219

$$$$

 OpenBabel03252503583D

 19 20  0  0  0  0  0  0  0  0999 V2000
   37.1030   27.1900   41.2820 C   0  0  0  0  0  0  0  0  0  0  0  0
   37.0560   26.8590   42.6390 C   0  0  0  0  0  0  0  0  0  0  0  0
   37.2740   27.8920   43.5560 C   0  0  0  0  0  0  0  0  0  0  0  0
   37.5170   29.1430   43.0770 N   0  0  0  0  0  0  0  0  0  0  0  0
   37.5530   29.4100   41.7620 C   0  0  0  0  0  0  0  0  0  0  0  0
   37.3480   28.4420   40.8550 N   0  0  0  0  0  0  0  0  0  0  0  0
   36.8600   25.8580   42.9840 H   0  0  0  0  0  0  0  0  0  0  0  0
   37.2520   27.7110   44.6090 H   0  0  0  0  0  0  0  0  0  0  0  0
   37.8120   30.7430   41.2230 C   0  0  0  0  0  0  0  0  0  0  0  0
   36.8310   31.2990   40.4170 C   0  0  0  0  0  0  0  0  0  0  0  0
   35.8710   30.9440   40.0840 H   0  0  0  0  0  0  0  0  0  0  0  0
   37.3040   32.5580   40.0290 C   0  0  0  0  0  0  0  0  0  0  0  0
   36.7840   33.2770   39.3860 H   0  0  0  0  0  0  0  0  0  0  0  0
   38.5580   32.6780   40.6380 C   0  0  0  0  0  0  0  0  0  0  0  0
   39.1850   33.5520   40.5280 H   0  0  0  0  0  0  0  0  0  0  0  0
   38.8140   31.5880   41.3290 O   0  0  0  0  0  0  0  0  0  0  0  0
   36.8710   26.0870   40.3810 C   0  0  0  0  0  0  0  0  0  0  0  0
   36.2720   26.1370   39.2700 O   0  0  0  0  0  0  0  0  0  0  0  0
   37.2680   25.1240   40.7290 H   0  0  0  0  0  0  0  0  0  0  0  0
  1  2  1  0  0  0  0
  2  7  1  0  0  0  0
  2  3  2  0  0  0  0
  3  8  1  0  0  0  0
  4  3  1  0  0  0  0
  5  4  2  0  0  0  0
  6  1  2  0  0  0  0
  6  5  1  0  0  0  0
  9 16  1  0  0  0  0
  9  5  1  0  0  0  0
 10  9  2  0  0  0  0
 11 10  1  0  0  0  0
 12 10  1  0  0  0  0
 12 14  2  0  0  0  0
 13 12  1  0  0  0  0
 14 16  1  0  0  0  0
 15 14  1  0  0  0  0
 17 19  1  0  0  0  0
 17  1  1  0  0  0  0
 18 17  2  0  0  0  0
M  END
>  <minimizedAffinity>
-3.86183882

$$$$

 OpenBabel03252503583D

 19 20  0  0  0  0  0  0  0  0999 V2000
   37.4270   26.9810   41.8790 C   0  0  0  0  0  0  0  0  0  0  0  0
   37.5820   27.3070   43.2290 C   0  0  0  0  0  0  0  0  0  0  0  0
   37.6490   28.6650   43.5560 C   0  0  0  0  0  0  0  0  0  0  0  0
   37.5590   29.5770   42.5490 N   0  0  0  0  0  0  0  0  0  0  0  0
   37.4120   29.2140   41.2660 C   0  0  0  0  0  0  0  0  0  0  0  0
   37.3440   27.9190   40.9190 N   0  0  0  0  0  0  0  0  0  0  0  0
   37.6490   26.5580   44.0010 H   0  0  0  0  0  0  0  0  0  0  0  0
   37.7660   28.9860   44.5680 H   0  0  0  0  0  0  0  0  0  0  0  0
   37.3140   30.1730   40.1680 C   0  0  0  0  0  0  0  0  0  0  0  0
   37.0820   31.4970   40.5060 C   0  0  0  0  0  0  0  0  0  0  0  0
   36.9510   31.9990   41.4500 H   0  0  0  0  0  0  0  0  0  0  0  0
   37.0300   32.2100   39.3030 C   0  0  0  0  0  0  0  0  0  0  0  0
   36.8610   33.2870   39.1930 H   0  0  0  0  0  0  0  0  0  0  0  0
   37.2380   31.2510   38.3040 C   0  0  0  0  0  0  0  0  0  0  0  0
   37.2540   31.4930   37.2510 H   0  0  0  0  0  0  0  0  0  0  0  0
   37.4000   30.0700   38.8600 O   0  0  0  0  0  0  0  0  0  0  0  0
   37.3650   25.5670   41.6000 C   0  0  0  0  0  0  0  0  0  0  0  0
   36.6810   24.7070   42.2240 O   0  0  0  0  0  0  0  0  0  0  0  0
   37.9880   25.2420   40.7560 H   0  0  0  0  0  0  0  0  0  0  0  0
  1  2  1  0  0  0  0
  2  3  2  0  0  0  0
  2  7  1  0  0  0  0
  3  8  1  0  0  0  0
  4  3  1  0  0  0  0
  5  4  2  0  0  0  0
  6  5  1  0  0  0  0
  6  1  2  0  0  0  0
  9 10  2  0  0  0  0
  9  5  1  0  0  0  0
 10 11  1  0  0  0  0
 12 10  1  0  0  0  0
 13 12  1  0  0  0  0
 14 16  1  0  0  0  0
 14 12  2  0  0  0  0
 15 14  1  0  0  0  0
 16  9  1  0  0  0  0
 17  1  1  0  0  0  0
 17 18  2  0  0  0  0
 19 17  1  0  0  0  0
M  END
>  <minimizedAffinity>
-3.77133918

$$$$

 OpenBabel03252503583D

 19 20  0  0  0  0  0  0  0  0999 V2000
   35.5740   29.4200   40.2800 C   0  0  0  0  0  0  0  0  0  0  0  0
   35.9470   28.4570   41.2220 C   0  0  0  0  0  0  0  0  0  0  0  0
   37.0580   28.7420   42.0230 C   0  0  0  0  0  0  0  0  0  0  0  0
   37.7030   29.9260   41.8370 N   0  0  0  0  0  0  0  0  0  0  0  0
   37.3060   30.8190   40.9170 C   0  0  0  0  0  0  0  0  0  0  0  0
   36.2440   30.5770   40.1330 N   0  0  0  0  0  0  0  0  0  0  0  0
   35.4130   27.5290   41.3440 H   0  0  0  0  0  0  0  0  0  0  0  0
   37.3980   28.0510   42.7630 H   0  0  0  0  0  0  0  0  0  0  0  0
   37.9810   32.0960   40.6980 C   0  0  0  0  0  0  0  0  0  0  0  0
   37.3130   33.0400   39.9330 C   0  0  0  0  0  0  0  0  0  0  0  0
   36.3560   33.0370   39.4400 H   0  0  0  0  0  0  0  0  0  0  0  0
   38.1490   34.1610   39.8680 C   0  0  0  0  0  0  0  0  0  0  0  0
   37.9380   35.0990   39.3410 H   0  0  0  0  0  0  0  0  0  0  0  0
   39.2830   33.8110   40.6100 C   0  0  0  0  0  0  0  0  0  0  0  0
   40.1240   34.4760   40.7490 H   0  0  0  0  0  0  0  0  0  0  0  0
   39.1390   32.5900   41.0780 O   0  0  0  0  0  0  0  0  0  0  0  0
   34.4230   29.0740   39.4830 C   0  0  0  0  0  0  0  0  0  0  0  0
   34.3780   28.9920   38.2230 O   0  0  0  0  0  0  0  0  0  0  0  0
   33.5130   28.8700   40.0630 H   0  0  0  0  0  0  0  0  0  0  0  0
  1  2  1  0  0  0  0
  2  7  1  0  0  0  0
  2  3  2  0  0  0  0
  3  8  1  0  0  0  0
  4  3  1  0  0  0  0
  5  4  2  0  0  0  0
  6  1  2  0  0  0  0
  6  5  1  0  0  0  0
  9  5  1  0  0  0  0
  9 16  1  0  0  0  0
 10  9  2  0  0  0  0
 11 10  1  0  0  0  0
 12 10  1  0  0  0  0
 12 14  2  0  0  0  0
 13 12  1  0  0  0  0
 14 15  1  0  0  0  0
 14 16  1  0  0  0  0
 17 19  1  0  0  0  0
 17  1  1  0  0  0  0
 18 17  2  0  0  0  0
M  END
>  <minimizedAffinity>
-3.76463652

$$$$

 OpenBabel03252503583D

 19 20  0  0  0  0  0  0  0  0999 V2000
   37.5360   30.8010   40.9060 C   0  0  0  0  0  0  0  0  0  0  0  0
   36.2020   30.7370   40.4940 C   0  0  0  0  0  0  0  0  0  0  0  0
   35.5320   29.5230   40.6790 C   0  0  0  0  0  0  0  0  0  0  0  0
   36.2130   28.4880   41.2430 N   0  0  0  0  0  0  0  0  0  0  0  0
   37.4960   28.5990   41.6220 C   0  0  0  0  0  0  0  0  0  0  0  0
   38.1680   29.7490   41.4580 N   0  0  0  0  0  0  0  0  0  0  0  0
   35.6920   31.5770   40.0520 H   0  0  0  0  0  0  0  0  0  0  0  0
   34.5110   29.4050   40.3880 H   0  0  0  0  0  0  0  0  0  0  0  0
   38.2490   27.5030   42.2280 C   0  0  0  0  0  0  0  0  0  0  0  0
   39.1030   27.8260   43.2720 C   0  0  0  0  0  0  0  0  0  0  0  0
   39.3440   28.7560   43.7570 H   0  0  0  0  0  0  0  0  0  0  0  0
   39.7000   26.6280   43.6800 C   0  0  0  0  0  0  0  0  0  0  0  0
   40.4340   26.5100   44.4850 H   0  0  0  0  0  0  0  0  0  0  0  0
   39.1580   25.6480   42.8410 C   0  0  0  0  0  0  0  0  0  0  0  0
   39.4250   24.6030   42.9070 H   0  0  0  0  0  0  0  0  0  0  0  0
   38.3110   26.2090   42.0050 O   0  0  0  0  0  0  0  0  0  0  0  0
   38.1760   32.0750   40.6910 C   0  0  0  0  0  0  0  0  0  0  0  0
   37.6780   33.0780   40.1080 O   0  0  0  0  0  0  0  0  0  0  0  0
   39.1980   32.1420   41.0870 H   0  0  0  0  0  0  0  0  0  0  0  0
  1  6  1  0  0  0  0
  2  3  1  0  0  0  0
  2  1  2  0  0  0  0
  3  4  2  0  0  0  0
  4  5  1  0  0  0  0
  5  9  1  0  0  0  0
  6  5  2  0  0  0  0
  7  2  1  0  0  0  0
  8  3  1  0  0  0  0
  9 10  2  0  0  0  0
 10 12  1  0  0  0  0
 10 11  1  0  0  0  0
 12 13  1  0  0  0  0
 14 15  1  0  0  0  0
 14 12  2  0  0  0  0
 16  9  1  0  0  0  0
 16 14  1  0  0  0  0
 17  1  1  0  0  0  0
 17 19  1  0  0  0  0
 18 17  2  0  0  0  0
M  END
>  <minimizedAffinity>
-3.74980569

$$$$
