
 OpenBabel03252509113D

 30 33  0  0  0  0  0  0  0  0999 V2000
   42.7020   28.4180   42.9800 C   0  0  0  0  0  0  0  0  0  0  0  0
   43.7430   28.6660   43.8580 C   0  0  0  0  0  0  0  0  0  0  0  0
   43.8070   28.0850   45.1090 C   0  0  0  0  0  0  0  0  0  0  0  0
   42.7990   27.2180   45.5230 C   0  0  0  0  0  0  0  0  0  0  0  0
   42.5340   26.4910   46.6380 N   0  0  0  0  0  0  0  0  0  0  0  0
   41.3730   25.8170   46.4600 C   0  0  0  0  0  0  0  0  0  0  0  0
   40.9320   26.1380   45.2290 N   0  0  0  0  0  0  0  0  0  0  0  0
   41.7810   26.9950   44.6280 C   0  0  0  0  0  0  0  0  0  0  0  0
   41.6800   27.5520   43.3720 C   0  0  0  0  0  0  0  0  0  0  0  0
   42.6860   28.8920   42.0030 H   0  0  0  0  0  0  0  0  0  0  0  0
   43.1880   26.5210   47.4410 H   0  0  0  0  0  0  0  0  0  0  0  0
   40.9520   25.1660   47.2180 H   0  0  0  0  0  0  0  0  0  0  0  0
   40.8470   27.3270   42.7230 H   0  0  0  0  0  0  0  0  0  0  0  0
   45.6370   31.7340   43.1660 C   0  0  0  0  0  0  0  0  0  0  0  0
   46.8600   31.2440   42.7060 C   0  0  0  0  0  0  0  0  0  0  0  0
   47.0320   29.8510   42.6340 C   0  0  0  0  0  0  0  0  0  0  0  0
   45.9750   29.0780   43.0250 N   0  0  0  0  0  0  0  0  0  0  0  0
   44.8130   29.5670   43.4640 C   0  0  0  0  0  0  0  0  0  0  0  0
   44.6320   30.9020   43.5390 N   0  0  0  0  0  0  0  0  0  0  0  0
   45.5150   32.8140   43.2190 H   0  0  0  0  0  0  0  0  0  0  0  0
   47.6580   31.9020   42.4110 H   0  0  0  0  0  0  0  0  0  0  0  0
   47.9580   29.4140   42.2850 H   0  0  0  0  0  0  0  0  0  0  0  0
   44.8920   28.3270   46.0560 C   0  0  0  0  0  0  0  0  0  0  0  0
   44.6390   29.3730   46.9500 C   0  0  0  0  0  0  0  0  0  0  0  0
   43.8370   30.0700   47.1370 H   0  0  0  0  0  0  0  0  0  0  0  0
   45.7610   29.4730   47.7780 C   0  0  0  0  0  0  0  0  0  0  0  0
   45.9680   30.1620   48.6100 H   0  0  0  0  0  0  0  0  0  0  0  0
   46.6270   28.4730   47.3270 C   0  0  0  0  0  0  0  0  0  0  0  0
   47.6110   28.2100   47.6990 H   0  0  0  0  0  0  0  0  0  0  0  0
   46.0690   27.8360   46.3210 O   0  0  0  0  0  0  0  0  0  0  0  0
  1  9  2  0  0  0  0
  1  2  1  0  0  0  0
  2  3  2  0  0  0  0
  3  4  1  0  0  0  0
  3 23  1  0  0  0  0
  4  5  1  0  0  0  0
  5 11  1  0  0  0  0
  6  5  1  0  0  0  0
  6 12  1  0  0  0  0
  7  6  2  0  0  0  0
  8  7  1  0  0  0  0
  8  4  2  0  0  0  0
  9  8  1  0  0  0  0
 10  1  1  0  0  0  0
 13  9  1  0  0  0  0
 14 20  1  0  0  0  0
 14 19  1  0  0  0  0
 15 14  2  0  0  0  0
 16 15  1  0  0  0  0
 16 17  2  0  0  0  0
 17 18  1  0  0  0  0
 18 19  2  0  0  0  0
 18  2  1  0  0  0  0
 21 15  1  0  0  0  0
 22 16  1  0  0  0  0
 23 30  1  0  0  0  0
 23 24  2  0  0  0  0
 24 25  1  0  0  0  0
 24 26  1  0  0  0  0
 26 27  1  0  0  0  0
 28 29  1  0  0  0  0
 28 26  2  0  0  0  0
 30 28  1  0  0  0  0
M  END
>  <minimizedAffinity>
-2.67585564

>  <minimizedRMSD>
6.20701599

$$$$
