
 OpenBabel03252509113D

 30 33  0  0  0  0  0  0  0  0999 V2000
   46.9040   33.0850   46.6260 C   0  0  0  0  0  0  0  0  0  0  0  0
   46.5030   32.6920   45.3610 C   0  0  0  0  0  0  0  0  0  0  0  0
   45.8180   31.5150   45.1370 C   0  0  0  0  0  0  0  0  0  0  0  0
   45.5100   30.6780   46.2060 C   0  0  0  0  0  0  0  0  0  0  0  0
   44.8750   29.4880   46.3630 N   0  0  0  0  0  0  0  0  0  0  0  0
   44.8810   29.1550   47.6750 C   0  0  0  0  0  0  0  0  0  0  0  0
   45.5230   30.1490   48.3180 N   0  0  0  0  0  0  0  0  0  0  0  0
   45.9230   31.0980   47.4480 C   0  0  0  0  0  0  0  0  0  0  0  0
   46.6060   32.2640   47.7140 C   0  0  0  0  0  0  0  0  0  0  0  0
   47.4410   34.0190   46.7650 H   0  0  0  0  0  0  0  0  0  0  0  0
   44.4840   29.0000   45.5380 H   0  0  0  0  0  0  0  0  0  0  0  0
   44.4310   28.2420   48.0490 H   0  0  0  0  0  0  0  0  0  0  0  0
   46.8970   32.5260   48.7200 H   0  0  0  0  0  0  0  0  0  0  0  0
   48.2590   34.1930   42.5070 C   0  0  0  0  0  0  0  0  0  0  0  0
   47.3540   35.1580   42.0620 C   0  0  0  0  0  0  0  0  0  0  0  0
   46.1340   35.2910   42.7480 C   0  0  0  0  0  0  0  0  0  0  0  0
   45.9290   34.4550   43.8090 N   0  0  0  0  0  0  0  0  0  0  0  0
   46.8080   33.5380   44.2190 C   0  0  0  0  0  0  0  0  0  0  0  0
   47.9830   33.3970   43.5700 N   0  0  0  0  0  0  0  0  0  0  0  0
   49.1990   34.0980   41.9680 H   0  0  0  0  0  0  0  0  0  0  0  0
   47.5700   35.7890   41.2180 H   0  0  0  0  0  0  0  0  0  0  0  0
   45.3950   36.0220   42.4480 H   0  0  0  0  0  0  0  0  0  0  0  0
   45.3820   31.0740   43.8150 C   0  0  0  0  0  0  0  0  0  0  0  0
   46.2550   30.1690   43.2050 C   0  0  0  0  0  0  0  0  0  0  0  0
   47.1920   29.6910   43.4520 H   0  0  0  0  0  0  0  0  0  0  0  0
   45.7000   29.8500   41.9600 C   0  0  0  0  0  0  0  0  0  0  0  0
   46.0670   29.1780   41.1720 H   0  0  0  0  0  0  0  0  0  0  0  0
   44.5170   30.5920   41.9010 C   0  0  0  0  0  0  0  0  0  0  0  0
   43.7840   30.6350   41.1020 H   0  0  0  0  0  0  0  0  0  0  0  0
   44.3820   31.2870   43.0080 O   0  0  0  0  0  0  0  0  0  0  0  0
  1 10  1  0  0  0  0
  1  9  1  0  0  0  0
  2  1  2  0  0  0  0
  3  2  1  0  0  0  0
  3  4  2  0  0  0  0
  4  5  1  0  0  0  0
  4  8  1  0  0  0  0
  5  6  1  0  0  0  0
  6 12  1  0  0  0  0
  6  7  2  0  0  0  0
  8  9  2  0  0  0  0
  8  7  1  0  0  0  0
  9 13  1  0  0  0  0
 11  5  1  0  0  0  0
 14 19  1  0  0  0  0
 15 14  2  0  0  0  0
 15 16  1  0  0  0  0
 16 17  2  0  0  0  0
 17 18  1  0  0  0  0
 18  2  1  0  0  0  0
 19 18  2  0  0  0  0
 20 14  1  0  0  0  0
 21 15  1  0  0  0  0
 22 16  1  0  0  0  0
 23  3  1  0  0  0  0
 24 25  1  0  0  0  0
 24 23  2  0  0  0  0
 26 24  1  0  0  0  0
 27 26  1  0  0  0  0
 28 26  2  0  0  0  0
 28 30  1  0  0  0  0
 29 28  1  0  0  0  0
 30 23  1  0  0  0  0
M  END
>  <minimizedAffinity>
-4.23612213

>  <minimizedRMSD>
3.70383835

$$$$
