
 OpenBabel03252508543D

 42 45  0  0  1  0  0  0  0  0999 V2000
   43.3020   34.4340   40.7560 C   0  0  0  0  0  0  0  0  0  0  0  0
   43.2360   35.6370   40.3760 O   0  0  0  0  0  0  0  0  0  0  0  0
   41.9530   34.0090   40.4650 N   0  0  0  0  0  0  0  0  0  0  0  0
   41.5520   34.1000   39.0780 C   0  0  0  0  0  0  0  0  0  0  0  0
   40.7330   35.4030   38.9880 C   0  0  0  0  0  0  0  0  0  0  0  0
   39.9530   35.5000   40.2900 C   0  0  0  0  0  0  0  0  0  0  0  0
   39.6250   34.1150   40.8560 C   0  0  0  0  0  0  0  0  0  0  0  0
   40.9160   33.4970   41.3620 C   0  0  1  0  0  0  0  0  0  0  0  0
   40.9090   33.2290   38.8150 H   0  0  0  0  0  0  0  0  0  0  0  0
   42.3930   34.1910   38.3870 H   0  0  0  0  0  0  0  0  0  0  0  0
   41.4400   36.2570   38.9080 H   0  0  0  0  0  0  0  0  0  0  0  0
   40.0180   35.3440   38.1490 H   0  0  0  0  0  0  0  0  0  0  0  0
   39.0540   36.1070   40.1830 H   0  0  0  0  0  0  0  0  0  0  0  0
   40.5870   36.0090   41.0680 H   0  0  0  0  0  0  0  0  0  0  0  0
   39.2210   33.4830   40.0700 H   0  0  0  0  0  0  0  0  0  0  0  0
   38.9390   34.3190   41.7050 H   0  0  0  0  0  0  0  0  0  0  0  0
   41.1210   33.9750   42.3470 H   0  0  0  0  0  0  0  0  0  0  0  0
   40.8950   32.0370   41.4120 C   0  0  0  0  0  0  0  0  0  0  0  0
   41.7250   31.1850   42.1230 C   0  0  0  0  0  0  0  0  0  0  0  0
   42.5370   31.4720   42.7660 H   0  0  0  0  0  0  0  0  0  0  0  0
   41.2740   29.9160   41.8160 C   0  0  0  0  0  0  0  0  0  0  0  0
   41.6680   28.9730   42.1770 H   0  0  0  0  0  0  0  0  0  0  0  0
   40.1990   30.0830   40.9380 C   0  0  0  0  0  0  0  0  0  0  0  0
   39.6190   29.2700   40.5070 H   0  0  0  0  0  0  0  0  0  0  0  0
   39.9870   31.3760   40.7070 O   0  0  0  0  0  0  0  0  0  0  0  0
   44.3740   33.7620   41.2900 O   0  0  0  0  0  0  0  0  0  0  0  0
   45.7020   34.0970   41.1290 C   0  0  0  0  0  0  0  0  0  0  0  0
   46.3480   34.7340   42.2000 C   0  0  0  0  0  0  0  0  0  0  0  0
   47.7040   35.0600   41.9970 C   0  0  0  0  0  0  0  0  0  0  0  0
   48.2910   34.7420   40.7990 N   0  0  0  0  0  0  0  0  0  0  0  0
   47.6220   34.1400   39.8300 C   0  0  0  0  0  0  0  0  0  0  0  0
   46.3250   33.8080   39.9730 N   0  0  0  0  0  0  0  0  0  0  0  0
   48.2320   35.5490   42.7970 H   0  0  0  0  0  0  0  0  0  0  0  0
   48.0690   33.8810   38.8740 H   0  0  0  0  0  0  0  0  0  0  0  0
   45.6290   35.0190   43.4180 C   0  0  0  0  0  0  0  0  0  0  0  0
   45.0000   36.2410   43.6420 C   0  0  0  0  0  0  0  0  0  0  0  0
   44.4470   36.0900   44.8970 C   0  0  0  0  0  0  0  0  0  0  0  0
   44.7240   34.8630   45.3940 N   0  0  0  0  0  0  0  0  0  0  0  0
   45.4390   34.2320   44.4820 N   0  0  0  0  0  0  0  0  0  0  0  0
   44.9430   37.1110   43.0060 H   0  0  0  0  0  0  0  0  0  0  0  0
   43.8580   36.8450   45.4420 H   0  0  0  0  0  0  0  0  0  0  0  0
   44.4650   34.4150   46.3060 H   0  0  0  0  0  0  0  0  0  0  0  0
  1 26  1  0  0  0  0
  2  1  2  0  0  0  0
  3  1  1  0  0  0  0
  3  8  1  0  0  0  0
  4  3  1  0  0  0  0
  5  4  1  0  0  0  0
  5  6  1  0  0  0  0
  6  7  1  0  0  0  0
  6 14  1  0  0  0  0
  7  8  1  0  0  0  0
  7 16  1  0  0  0  0
  8 18  1  0  0  0  0
  8 17  1  1  0  0  0
  9  4  1  0  0  0  0
 10  4  1  0  0  0  0
 11  5  1  0  0  0  0
 12  5  1  0  0  0  0
 13  6  1  0  0  0  0
 15  7  1  0  0  0  0
 18 19  2  0  0  0  0
 19 20  1  0  0  0  0
 21 19  1  0  0  0  0
 21 22  1  0  0  0  0
 23 21  2  0  0  0  0
 24 23  1  0  0  0  0
 25 23  1  0  0  0  0
 25 18  1  0  0  0  0
 27 26  1  0  0  0  0
 27 28  1  0  0  0  0
 28 35  1  0  0  0  0
 29 28  2  0  0  0  0
 29 33  1  0  0  0  0
 30 29  1  0  0  0  0
 31 32  1  0  0  0  0
 31 30  2  0  0  0  0
 32 27  2  0  0  0  0
 34 31  1  0  0  0  0
 35 36  1  0  0  0  0
 35 39  2  0  0  0  0
 36 37  2  0  0  0  0
 37 38  1  0  0  0  0
 37 41  1  0  0  0  0
 38 42  1  0  0  0  0
 39 38  1  0  0  0  0
 40 36  1  0  0  0  0
M  END
>  <minimizedAffinity>
-6.52773476

>  <minimizedRMSD>
0.34150672

$$$$
