
 OpenBabel03252507323D

 48 51  0  0  1  0  0  0  0  0999 V2000
   46.9850   32.2150   45.2300 C   0  0  0  0  0  0  0  0  0  0  0  0
   45.9220   32.8540   45.8590 C   0  0  0  0  0  0  0  0  0  0  0  0
   45.4200   34.0590   45.3180 C   0  0  0  0  0  0  0  0  0  0  0  0
   46.0440   34.5330   44.1660 N   0  0  0  0  0  0  0  0  0  0  0  0
   47.0630   33.8680   43.6140 C   0  0  0  0  0  0  0  0  0  0  0  0
   47.5250   32.7310   44.1330 N   0  0  0  0  0  0  0  0  0  0  0  0
   45.3360   32.6980   46.7380 H   0  0  0  0  0  0  0  0  0  0  0  0
   44.6290   34.6770   45.6500 H   0  0  0  0  0  0  0  0  0  0  0  0
   47.4510   30.9690   45.8070 C   0  0  2  0  0  0  0  0  0  0  0  0
   46.6700   29.7500   45.2320 C   0  0  0  0  0  0  0  0  0  0  0  0
   47.2740   28.4860   45.7370 C   0  0  0  0  0  0  0  0  0  0  0  0
   47.6410   28.4600   47.1810 C   0  0  0  0  0  0  0  0  0  0  0  0
   48.1470   29.7070   47.6970 C   0  0  0  0  0  0  0  0  0  0  0  0
   47.3340   30.9430   47.2510 C   0  0  2  0  0  0  0  0  0  0  0  0
   48.4840   30.7910   45.4500 H   0  0  0  0  0  0  0  0  0  0  0  0
   46.8090   29.8410   44.1360 H   0  0  0  0  0  0  0  0  0  0  0  0
   45.6030   29.8220   45.4070 H   0  0  0  0  0  0  0  0  0  0  0  0
   46.4870   27.6850   45.6070 H   0  0  0  0  0  0  0  0  0  0  0  0
   48.0570   28.1970   45.0120 H   0  0  0  0  0  0  0  0  0  0  0  0
   47.1790   27.7010   47.8170 H   0  0  0  0  0  0  0  0  0  0  0  0
   48.6420   27.8740   47.1030 H   0  0  0  0  0  0  0  0  0  0  0  0
   49.2070   29.9930   47.4710 H   0  0  0  0  0  0  0  0  0  0  0  0
   48.1190   29.7020   48.8260 H   0  0  0  0  0  0  0  0  0  0  0  0
   47.8460   31.7370   47.7980 H   0  0  0  0  0  0  0  0  0  0  0  0
   45.9370   30.7470   47.6400 N   0  0  0  0  0  0  0  0  0  0  0  0
   45.3320   30.5670   48.8970 C   0  0  0  0  0  0  0  0  0  0  0  0
   45.1270   31.5320   49.7170 O   0  0  0  0  0  0  0  0  0  0  0  0
   44.9560   29.2210   49.1910 N   0  0  0  0  0  0  0  0  0  0  0  0
   45.1450   30.6460   46.8980 H   0  0  0  0  0  0  0  0  0  0  0  0
   44.3880   28.5550   48.6430 H   0  0  0  0  0  0  0  0  0  0  0  0
   45.2270   28.6980   50.0660 H   0  0  0  0  0  0  0  0  0  0  0  0
   47.6870   34.4320   42.4130 C   0  0  0  0  0  0  0  0  0  0  0  0
   48.5580   35.4950   42.4970 C   0  0  0  0  0  0  0  0  0  0  0  0
   49.1890   36.0900   41.4350 C   0  0  0  0  0  0  0  0  0  0  0  0
   48.8840   35.5330   40.2190 C   0  0  0  0  0  0  0  0  0  0  0  0
   48.0100   34.4610   40.0950 C   0  0  0  0  0  0  0  0  0  0  0  0
   47.4130   33.9140   41.2060 N   0  0  0  0  0  0  0  0  0  0  0  0
   48.7510   35.8840   43.5080 H   0  0  0  0  0  0  0  0  0  0  0  0
   49.8700   36.9250   41.5280 H   0  0  0  0  0  0  0  0  0  0  0  0
   49.3220   35.9190   39.3030 H   0  0  0  0  0  0  0  0  0  0  0  0
   47.6940   33.8790   38.7950 C   0  0  0  0  0  0  0  0  0  0  0  0
   48.3960   34.1540   37.6340 C   0  0  0  0  0  0  0  0  0  0  0  0
   49.2540   34.8070   37.4750 H   0  0  0  0  0  0  0  0  0  0  0  0
   47.8380   33.4360   36.5720 C   0  0  0  0  0  0  0  0  0  0  0  0
   48.1780   33.4530   35.5460 H   0  0  0  0  0  0  0  0  0  0  0  0
   46.7900   32.7420   37.1820 C   0  0  0  0  0  0  0  0  0  0  0  0
   46.1560   32.0850   36.6030 H   0  0  0  0  0  0  0  0  0  0  0  0
   46.7520   33.0320   38.4580 O   0  0  0  0  0  0  0  0  0  0  0  0
  1  9  1  0  0  0  0
  1  2  1  0  0  0  0
  2  7  1  0  0  0  0
  3  8  1  0  0  0  0
  3  2  2  0  0  0  0
  4  3  1  0  0  0  0
  5  6  1  0  0  0  0
  5  4  2  0  0  0  0
  6  1  2  0  0  0  0
  9 15  1  6  0  0  0
  9 14  1  0  0  0  0
 10 17  1  0  0  0  0
 10 11  1  0  0  0  0
 10  9  1  0  0  0  0
 11 12  1  0  0  0  0
 12 13  1  0  0  0  0
 12 20  1  0  0  0  0
 13 23  1  0  0  0  0
 14 25  1  0  0  0  0
 14 13  1  0  0  0  0
 14 24  1  1  0  0  0
 16 10  1  0  0  0  0
 18 11  1  0  0  0  0
 19 11  1  0  0  0  0
 21 12  1  0  0  0  0
 22 13  1  0  0  0  0
 25 26  1  0  0  0  0
 26 28  1  0  0  0  0
 26 27  2  0  0  0  0
 28 31  1  0  0  0  0
 29 25  1  0  0  0  0
 30 28  1  0  0  0  0
 32 33  1  0  0  0  0
 32  5  1  0  0  0  0
 33 38  1  0  0  0  0
 34 39  1  0  0  0  0
 34 33  2  0  0  0  0
 35 34  1  0  0  0  0
 36 35  2  0  0  0  0
 36 37  1  0  0  0  0
 37 32  2  0  0  0  0
 40 35  1  0  0  0  0
 41 36  1  0  0  0  0
 42 41  2  0  0  0  0
 43 42  1  0  0  0  0
 44 46  2  0  0  0  0
 44 42  1  0  0  0  0
 45 44  1  0  0  0  0
 46 48  1  0  0  0  0
 47 46  1  0  0  0  0
 48 41  1  0  0  0  0
M  END
>  <minimizedAffinity>
-6.3452282

>  <minimizedRMSD>
1.24431777

$$$$
