REMARK  Name = 
REMARK  5 active torsions:
REMARK  status: ('A' for Active; 'I' for Inactive)
REMARK    1  A    between atoms: C_1  and  O_18
REMARK    2  A    between atoms: C_2  and  C_14
REMARK    3  A    between atoms: C_5  and  C_9
REMARK    4  A    between atoms: C_13  and  C_27
REMARK    5  A    between atoms: O_18  and  C_19
REMARK                            x       y       z     vdW  Elec       q    Type
REMARK                         _______ _______ _______ _____ _____    ______ ____
ROOT
ATOM      1  F   UNL     1      47.662  29.914  44.813  0.00  0.00    +0.000 F 
ATOM      2  C   UNL     1      47.592  30.642  45.974  0.00  0.00    +0.000 A 
ATOM      3  C   UNL     1      47.044  31.902  45.953  0.00  0.00    +0.000 A 
ATOM      4  C   UNL     1      47.014  32.569  47.178  0.00  0.00    +0.000 A 
ATOM      5  C   UNL     1      47.503  31.994  48.327  0.00  0.00    +0.000 A 
ATOM      6  C   UNL     1      48.040  30.719  48.268  0.00  0.00    +0.000 A 
ATOM      7  C   UNL     1      48.101  30.004  47.087  0.00  0.00    +0.000 A 
ATOM      8  H   UNL     1      46.588  33.574  47.214  0.00  0.00    +0.000 HD
ATOM      9  H   UNL     1      47.478  32.511  49.270  0.00  0.00    +0.000 HD
ATOM     10  H   UNL     1      48.432  30.245  49.159  0.00  0.00    +0.000 HD
ENDROOT
BRANCH   7  11
ATOM     11  C   UNL     1      48.665  28.660  47.016  0.00  0.00    +0.000 A 
ATOM     12  C   UNL     1      50.019  28.400  47.061  0.00  0.00    +0.000 A 
ATOM     13  H   UNL     1      50.796  29.124  47.149  0.00  0.00    +0.000 HD
ATOM     14  C   UNL     1      50.070  27.010  46.962  0.00  0.00    +0.000 A 
ATOM     15  H   UNL     1      50.993  26.427  46.964  0.00  0.00    +0.000 HD
ATOM     16  C   UNL     1      48.780  26.513  46.866  0.00  0.00    +0.000 A 
ATOM     17  H   UNL     1      48.462  25.483  46.777  0.00  0.00    +0.000 HD
ATOM     18  O   UNL     1      47.988  27.567  46.905  0.00  0.00    +0.000 OA
ENDBRANCH   7  11
BRANCH   3  23
ATOM     19  C   UNL     1      46.811  34.102  43.068  0.00  0.00    +0.000 A 
ATOM     20  C   UNL     1      45.633  33.711  42.428  0.00  0.00    +0.000 A 
ATOM     21  C   UNL     1      44.911  32.659  43.020  0.00  0.00    +0.000 A 
ATOM     22  N   UNL     1      45.374  32.081  44.158  0.00  0.00    +0.000 NA
ATOM     23  C   UNL     1      46.526  32.507  44.731  0.00  0.00    +0.000 A 
ATOM     24  N   UNL     1      47.242  33.516  44.187  0.00  0.00    +0.000 NA
ATOM     25  H   UNL     1      43.994  32.333  42.547  0.00  0.00    +0.000 HD
BRANCH  20  26
ATOM     26  C   UNL     1      45.199  34.392  41.193  0.00  0.00    +0.000 C 
ATOM     27  F   UNL     1      44.904  35.708  41.463  0.00  0.00    +0.000 F 
ATOM     28  F   UNL     1      46.269  34.386  40.306  0.00  0.00    +0.000 F 
ATOM     29  F   UNL     1      44.132  33.828  40.582  0.00  0.00    +0.000 F 
ENDBRANCH  20  26
BRANCH  19  30
ATOM     30  O   UNL     1      47.509  35.122  42.494  0.00  0.00    +0.000 OA
BRANCH  30  31
ATOM     31  C   UNL     1      48.812  35.047  41.950  0.00  0.00    +0.000 C 
ATOM     32  F   UNL     1      49.695  35.291  43.007  0.00  0.00    +0.000 F 
ATOM     33  F   UNL     1      49.014  33.832  41.352  0.00  0.00    +0.000 F 
ATOM     34  F   UNL     1      49.017  36.100  41.087  0.00  0.00    +0.000 F 
ENDBRANCH  30  31
ENDBRANCH  19  30
ENDBRANCH   3  23
TORSDOF 5
