
 OpenBabel03242515443D

 37 40  0  0  0  0  0  0  0  0999 V2000
   36.5770   30.4080   39.0660 C   0  0  0  0  0  0  0  0  0  0  0  0
   37.4280   31.3410   38.5950 C   0  0  0  0  0  0  0  0  0  0  0  0
   37.6230   31.3250   37.1990 C   0  0  0  0  0  0  0  0  0  0  0  0
   36.9890   30.4150   36.4230 N   0  0  0  0  0  0  0  0  0  0  0  0
   36.1490   29.4950   36.9510 C   0  0  0  0  0  0  0  0  0  0  0  0
   35.9830   29.5370   38.2500 N   0  0  0  0  0  0  0  0  0  0  0  0
   38.3780   32.2600   39.2090 C   0  0  0  0  0  0  0  0  0  0  0  0
   38.1110   33.4460   39.8510 C   0  0  0  0  0  0  0  0  0  0  0  0
   37.2310   33.9980   40.0860 H   0  0  0  0  0  0  0  0  0  0  0  0
   39.2760   34.0160   40.3000 C   0  0  0  0  0  0  0  0  0  0  0  0
   39.5240   34.9160   40.8360 H   0  0  0  0  0  0  0  0  0  0  0  0
   40.2600   33.1400   39.9120 C   0  0  0  0  0  0  0  0  0  0  0  0
   41.3530   33.1480   40.0360 H   0  0  0  0  0  0  0  0  0  0  0  0
   39.6610   32.1650   39.2970 O   0  0  0  0  0  0  0  0  0  0  0  0
   38.5010   32.2610   36.5770 N   0  0  0  0  0  0  0  0  0  0  0  0
   39.5290   32.1730   36.8080 H   0  0  0  0  0  0  0  0  0  0  0  0
   37.8470   32.8570   35.9880 H   0  0  0  0  0  0  0  0  0  0  0  0
   36.2610   30.4600   40.8550 S   0  0  0  0  0  0  0  0  0  0  0  0
   36.5650   28.2240   42.2300 C   0  0  0  0  0  0  0  0  0  0  0  0
   37.2800   29.2770   41.6990 C   0  0  0  0  0  0  0  0  0  0  0  0
   38.6410   29.3030   41.8280 C   0  0  0  0  0  0  0  0  0  0  0  0
   39.3410   28.3150   42.4710 C   0  0  0  0  0  0  0  0  0  0  0  0
   38.6210   27.2560   43.0040 C   0  0  0  0  0  0  0  0  0  0  0  0
   37.2540   27.1940   42.8940 C   0  0  0  0  0  0  0  0  0  0  0  0
   39.5550   26.3760   43.6060 O   0  0  0  0  0  0  0  0  0  0  0  0
   40.7610   27.0500   43.6790 C   0  0  0  0  0  0  0  0  0  0  0  0
   40.6970   28.0970   42.7430 O   0  0  0  0  0  0  0  0  0  0  0  0
   35.4840   28.1020   42.1900 H   0  0  0  0  0  0  0  0  0  0  0  0
   39.1380   30.1560   41.3900 H   0  0  0  0  0  0  0  0  0  0  0  0
   36.6820   26.3540   43.3170 H   0  0  0  0  0  0  0  0  0  0  0  0
   41.0630   27.3610   44.6870 H   0  0  0  0  0  0  0  0  0  0  0  0
   41.5580   26.3590   43.3230 H   0  0  0  0  0  0  0  0  0  0  0  0
   35.4920   28.5530   36.2250 O   0  0  0  0  0  0  0  0  0  0  0  0
   34.2180   28.8590   35.7060 C   0  0  0  0  0  0  0  0  0  0  0  0
   33.3770   29.3230   36.6840 F   0  0  0  0  0  0  0  0  0  0  0  0
   34.4110   29.8110   34.6980 F   0  0  0  0  0  0  0  0  0  0  0  0
   33.6690   27.6890   35.2080 F   0  0  0  0  0  0  0  0  0  0  0  0
  1 18  1  0  0  0  0
  2  1  1  0  0  0  0
  2  7  1  0  0  0  0
  3  2  2  0  0  0  0
  4  5  2  0  0  0  0
  4  3  1  0  0  0  0
  5  6  1  0  0  0  0
  6  1  2  0  0  0  0
  7 14  1  0  0  0  0
  7  8  2  0  0  0  0
  8  9  1  0  0  0  0
  8 10  1  0  0  0  0
 10 11  1  0  0  0  0
 12 13  1  0  0  0  0
 12 10  2  0  0  0  0
 14 12  1  0  0  0  0
 15 16  1  0  0  0  0
 15  3  1  0  0  0  0
 17 15  1  0  0  0  0
 18 20  1  0  0  0  0
 19 24  1  0  0  0  0
 20 21  1  0  0  0  0
 20 19  2  0  0  0  0
 21 22  2  0  0  0  0
 22 27  1  0  0  0  0
 22 23  1  0  0  0  0
 23 25  1  0  0  0  0
 24 23  2  0  0  0  0
 24 30  1  0  0  0  0
 25 26  1  0  0  0  0
 26 31  1  0  0  0  0
 27 26  1  0  0  0  0
 28 19  1  0  0  0  0
 29 21  1  0  0  0  0
 32 26  1  0  0  0  0
 33  5  1  0  0  0  0
 34 33  1  0  0  0  0
 34 35  1  0  0  0  0
 36 34  1  0  0  0  0
 37 34  1  0  0  0  0
M  END
>  <minimizedAffinity>
-6.33250475

$$$$

 OpenBabel03242515443D

 37 40  0  0  0  0  0  0  0  0999 V2000
   36.4510   30.2570   38.8970 C   0  0  0  0  0  0  0  0  0  0  0  0
   37.2870   31.2330   38.4920 C   0  0  0  0  0  0  0  0  0  0  0  0
   37.5320   31.2770   37.1040 C   0  0  0  0  0  0  0  0  0  0  0  0
   36.9530   30.3800   36.2720 N   0  0  0  0  0  0  0  0  0  0  0  0
   36.1250   29.4150   36.7340 C   0  0  0  0  0  0  0  0  0  0  0  0
   35.9130   29.4010   38.0280 N   0  0  0  0  0  0  0  0  0  0  0  0
   38.1860   32.1560   39.1750 C   0  0  0  0  0  0  0  0  0  0  0  0
   37.8720   33.3500   39.7780 C   0  0  0  0  0  0  0  0  0  0  0  0
   36.9780   33.9080   39.9310 H   0  0  0  0  0  0  0  0  0  0  0  0
   38.9970   33.9200   40.3180 C   0  0  0  0  0  0  0  0  0  0  0  0
   39.2030   34.8260   40.8630 H   0  0  0  0  0  0  0  0  0  0  0  0
   40.0070   33.0360   40.0240 C   0  0  0  0  0  0  0  0  0  0  0  0
   41.0850   33.0420   40.2400 H   0  0  0  0  0  0  0  0  0  0  0  0
   39.4570   32.0570   39.3710 O   0  0  0  0  0  0  0  0  0  0  0  0
   38.4010   32.2620   36.5500 N   0  0  0  0  0  0  0  0  0  0  0  0
   39.4220   32.1960   36.8150 H   0  0  0  0  0  0  0  0  0  0  0  0
   37.7490   32.8610   35.9610 H   0  0  0  0  0  0  0  0  0  0  0  0
   36.0710   30.2310   40.6740 S   0  0  0  0  0  0  0  0  0  0  0  0
   38.2150   29.8710   42.1760 C   0  0  0  0  0  0  0  0  0  0  0  0
   37.2110   29.1760   41.5350 C   0  0  0  0  0  0  0  0  0  0  0  0
   37.1590   27.8140   41.6370 C   0  0  0  0  0  0  0  0  0  0  0  0
   38.0740   27.0920   42.3610 C   0  0  0  0  0  0  0  0  0  0  0  0
   39.0820   27.7920   43.0070 C   0  0  0  0  0  0  0  0  0  0  0  0
   39.1670   29.1600   42.9280 C   0  0  0  0  0  0  0  0  0  0  0  0
   39.8860   26.8390   43.6800 O   0  0  0  0  0  0  0  0  0  0  0  0
   39.5290   25.5920   43.2000 C   0  0  0  0  0  0  0  0  0  0  0  0
   38.2540   25.7300   42.6250 O   0  0  0  0  0  0  0  0  0  0  0  0
   38.3550   30.9510   42.1610 H   0  0  0  0  0  0  0  0  0  0  0  0
   36.3490   27.3340   41.1090 H   0  0  0  0  0  0  0  0  0  0  0  0
   39.9680   29.7150   43.4400 H   0  0  0  0  0  0  0  0  0  0  0  0
   40.2700   25.1110   42.5480 H   0  0  0  0  0  0  0  0  0  0  0  0
   39.4090   24.9130   44.0740 H   0  0  0  0  0  0  0  0  0  0  0  0
   35.5230   28.4820   35.9510 O   0  0  0  0  0  0  0  0  0  0  0  0
   34.3030   28.8050   35.3230 C   0  0  0  0  0  0  0  0  0  0  0  0
   33.7580   27.7130   34.6990 F   0  0  0  0  0  0  0  0  0  0  0  0
   33.4570   29.3070   36.3180 F   0  0  0  0  0  0  0  0  0  0  0  0
   34.5650   29.7530   34.3480 F   0  0  0  0  0  0  0  0  0  0  0  0
  1 18  1  0  0  0  0
  2  1  1  0  0  0  0
  2  7  1  0  0  0  0
  3  2  2  0  0  0  0
  4  5  2  0  0  0  0
  4  3  1  0  0  0  0
  5  6  1  0  0  0  0
  6  1  2  0  0  0  0
  7 14  1  0  0  0  0
  7  8  2  0  0  0  0
  8  9  1  0  0  0  0
  8 10  1  0  0  0  0
 10 11  1  0  0  0  0
 12 13  1  0  0  0  0
 12 10  2  0  0  0  0
 14 12  1  0  0  0  0
 15 16  1  0  0  0  0
 15  3  1  0  0  0  0
 17 15  1  0  0  0  0
 18 20  1  0  0  0  0
 19 24  1  0  0  0  0
 20 21  1  0  0  0  0
 20 19  2  0  0  0  0
 21 22  2  0  0  0  0
 22 27  1  0  0  0  0
 22 23  1  0  0  0  0
 23 25  1  0  0  0  0
 24 23  2  0  0  0  0
 24 30  1  0  0  0  0
 26 25  1  0  0  0  0
 26 32  1  0  0  0  0
 27 26  1  0  0  0  0
 28 19  1  0  0  0  0
 29 21  1  0  0  0  0
 31 26  1  0  0  0  0
 33  5  1  0  0  0  0
 34 33  1  0  0  0  0
 34 36  1  0  0  0  0
 35 34  1  0  0  0  0
 37 34  1  0  0  0  0
M  END
>  <minimizedAffinity>
-6.25133944

$$$$

 OpenBabel03242515443D

 37 40  0  0  0  0  0  0  0  0999 V2000
   38.3660   29.1750   39.6810 C   0  0  0  0  0  0  0  0  0  0  0  0
   37.6650   30.2140   40.1760 C   0  0  0  0  0  0  0  0  0  0  0  0
   36.5660   29.8660   40.9870 C   0  0  0  0  0  0  0  0  0  0  0  0
   36.2650   28.5670   41.2210 N   0  0  0  0  0  0  0  0  0  0  0  0
   36.9990   27.5620   40.6920 C   0  0  0  0  0  0  0  0  0  0  0  0
   38.0180   27.9150   39.9460 N   0  0  0  0  0  0  0  0  0  0  0  0
   37.6400   31.6470   39.9110 C   0  0  0  0  0  0  0  0  0  0  0  0
   37.1610   32.2920   38.7950 C   0  0  0  0  0  0  0  0  0  0  0  0
   36.7010   31.9860   37.8840 H   0  0  0  0  0  0  0  0  0  0  0  0
   37.3090   33.6490   38.9300 C   0  0  0  0  0  0  0  0  0  0  0  0
   37.0780   34.5030   38.3160 H   0  0  0  0  0  0  0  0  0  0  0  0
   37.8930   33.8120   40.1620 C   0  0  0  0  0  0  0  0  0  0  0  0
   38.2100   34.7040   40.7220 H   0  0  0  0  0  0  0  0  0  0  0  0
   38.0460   32.6200   40.6550 O   0  0  0  0  0  0  0  0  0  0  0  0
   35.7430   30.8740   41.5680 N   0  0  0  0  0  0  0  0  0  0  0  0
   35.1740   31.4650   40.9020 H   0  0  0  0  0  0  0  0  0  0  0  0
   35.9240   30.7660   42.6110 H   0  0  0  0  0  0  0  0  0  0  0  0
   39.8270   29.6080   38.6910 S   0  0  0  0  0  0  0  0  0  0  0  0
   40.9460   32.0020   38.7460 C   0  0  0  0  0  0  0  0  0  0  0  0
   40.7770   30.8660   39.5090 C   0  0  0  0  0  0  0  0  0  0  0  0
   41.2960   30.8170   40.7730 C   0  0  0  0  0  0  0  0  0  0  0  0
   41.9870   31.8630   41.3290 C   0  0  0  0  0  0  0  0  0  0  0  0
   42.1550   33.0060   40.5610 C   0  0  0  0  0  0  0  0  0  0  0  0
   41.6490   33.0920   39.2880 C   0  0  0  0  0  0  0  0  0  0  0  0
   42.8880   33.9310   41.3440 O   0  0  0  0  0  0  0  0  0  0  0  0
   43.3880   33.2390   42.4330 C   0  0  0  0  0  0  0  0  0  0  0  0
   42.6100   32.0760   42.5640 O   0  0  0  0  0  0  0  0  0  0  0  0
   40.5810   32.1490   37.7310 H   0  0  0  0  0  0  0  0  0  0  0  0
   41.1280   29.8980   41.3150 H   0  0  0  0  0  0  0  0  0  0  0  0
   41.7830   33.9990   38.6780 H   0  0  0  0  0  0  0  0  0  0  0  0
   44.4710   33.0610   42.4160 H   0  0  0  0  0  0  0  0  0  0  0  0
   43.1960   33.8510   43.3420 H   0  0  0  0  0  0  0  0  0  0  0  0
   36.7410   26.2410   40.8830 O   0  0  0  0  0  0  0  0  0  0  0  0
   37.0550   25.6590   42.1280 C   0  0  0  0  0  0  0  0  0  0  0  0
   36.5440   26.3940   43.1660 F   0  0  0  0  0  0  0  0  0  0  0  0
   36.5340   24.3600   42.1090 F   0  0  0  0  0  0  0  0  0  0  0  0
   38.4340   25.6560   42.2600 F   0  0  0  0  0  0  0  0  0  0  0  0
  1  6  2  0  0  0  0
  1  2  1  0  0  0  0
  2  3  2  0  0  0  0
  3  4  1  0  0  0  0
  3 15  1  0  0  0  0
  5 33  1  0  0  0  0
  5  4  2  0  0  0  0
  6  5  1  0  0  0  0
  7  2  1  0  0  0  0
  7 14  1  0  0  0  0
  8 10  1  0  0  0  0
  8  7  2  0  0  0  0
  9  8  1  0  0  0  0
 10 12  2  0  0  0  0
 11 10  1  0  0  0  0
 12 14  1  0  0  0  0
 12 13  1  0  0  0  0
 15 17  1  0  0  0  0
 16 15  1  0  0  0  0
 18 20  1  0  0  0  0
 18  1  1  0  0  0  0
 19 24  2  0  0  0  0
 19 20  1  0  0  0  0
 20 21  2  0  0  0  0
 21 29  1  0  0  0  0
 21 22  1  0  0  0  0
 22 27  1  0  0  0  0
 23 22  2  0  0  0  0
 23 25  1  0  0  0  0
 24 23  1  0  0  0  0
 25 26  1  0  0  0  0
 26 27  1  0  0  0  0
 26 32  1  0  0  0  0
 28 19  1  0  0  0  0
 30 24  1  0  0  0  0
 31 26  1  0  0  0  0
 33 34  1  0  0  0  0
 34 37  1  0  0  0  0
 34 35  1  0  0  0  0
 36 34  1  0  0  0  0
M  END
>  <minimizedAffinity>
-5.94004726

$$$$

 OpenBabel03242515443D

 37 40  0  0  0  0  0  0  0  0999 V2000
   39.0840   29.5950   41.6730 C   0  0  0  0  0  0  0  0  0  0  0  0
   38.0760   30.4300   41.3520 C   0  0  0  0  0  0  0  0  0  0  0  0
   36.7810   29.9350   41.6090 C   0  0  0  0  0  0  0  0  0  0  0  0
   36.6060   28.7000   42.1340 N   0  0  0  0  0  0  0  0  0  0  0  0
   37.6550   27.9000   42.4310 C   0  0  0  0  0  0  0  0  0  0  0  0
   38.8470   28.3880   42.1870 N   0  0  0  0  0  0  0  0  0  0  0  0
   37.9820   31.6740   40.5980 C   0  0  0  0  0  0  0  0  0  0  0  0
   38.5200   32.8980   40.9170 C   0  0  0  0  0  0  0  0  0  0  0  0
   39.1150   33.2780   41.7140 H   0  0  0  0  0  0  0  0  0  0  0  0
   38.2140   33.8190   39.9460 C   0  0  0  0  0  0  0  0  0  0  0  0
   38.4260   34.8640   39.7970 H   0  0  0  0  0  0  0  0  0  0  0  0
   37.4740   33.1170   39.0260 C   0  0  0  0  0  0  0  0  0  0  0  0
   37.0010   33.4070   38.0770 H   0  0  0  0  0  0  0  0  0  0  0  0
   37.3900   31.9010   39.4740 O   0  0  0  0  0  0  0  0  0  0  0  0
   35.6300   30.7220   41.3110 N   0  0  0  0  0  0  0  0  0  0  0  0
   35.4440   30.9230   40.2900 H   0  0  0  0  0  0  0  0  0  0  0  0
   35.2150   30.9220   42.2700 H   0  0  0  0  0  0  0  0  0  0  0  0
   40.7610   30.2460   41.4140 S   0  0  0  0  0  0  0  0  0  0  0  0
   41.3340   28.4670   39.5450 C   0  0  0  0  0  0  0  0  0  0  0  0
   41.3440   29.8240   39.7900 C   0  0  0  0  0  0  0  0  0  0  0  0
   41.7460   30.6850   38.8080 C   0  0  0  0  0  0  0  0  0  0  0  0
   42.1460   30.2570   37.5680 C   0  0  0  0  0  0  0  0  0  0  0  0
   42.1340   28.8920   37.3220 C   0  0  0  0  0  0  0  0  0  0  0  0
   41.7360   27.9960   38.2830 C   0  0  0  0  0  0  0  0  0  0  0  0
   42.5800   28.7040   35.9900 O   0  0  0  0  0  0  0  0  0  0  0  0
   43.1170   29.9070   35.5660 C   0  0  0  0  0  0  0  0  0  0  0  0
   42.5970   30.9020   36.4110 O   0  0  0  0  0  0  0  0  0  0  0  0
   41.0370   27.6920   40.2510 H   0  0  0  0  0  0  0  0  0  0  0  0
   41.7310   31.7330   39.0670 H   0  0  0  0  0  0  0  0  0  0  0  0
   41.7270   26.9120   38.0870 H   0  0  0  0  0  0  0  0  0  0  0  0
   44.2100   29.9210   35.4680 H   0  0  0  0  0  0  0  0  0  0  0  0
   42.7180   30.1170   34.5480 H   0  0  0  0  0  0  0  0  0  0  0  0
   37.5420   26.6490   42.9510 O   0  0  0  0  0  0  0  0  0  0  0  0
   37.4710   25.5500   42.0720 C   0  0  0  0  0  0  0  0  0  0  0  0
   37.1490   25.9470   40.8000 F   0  0  0  0  0  0  0  0  0  0  0  0
   38.7190   24.9180   42.1140 F   0  0  0  0  0  0  0  0  0  0  0  0
   36.4580   24.7150   42.5160 F   0  0  0  0  0  0  0  0  0  0  0  0
  1  6  1  0  0  0  0
  2  3  1  0  0  0  0
  2  1  2  0  0  0  0
  3  4  2  0  0  0  0
  4  5  1  0  0  0  0
  5 33  1  0  0  0  0
  6  5  2  0  0  0  0
  7  8  2  0  0  0  0
  7  2  1  0  0  0  0
  8  9  1  0  0  0  0
 10  8  1  0  0  0  0
 11 10  1  0  0  0  0
 12 14  1  0  0  0  0
 12 10  2  0  0  0  0
 13 12  1  0  0  0  0
 14  7  1  0  0  0  0
 15  3  1  0  0  0  0
 15 17  1  0  0  0  0
 16 15  1  0  0  0  0
 18  1  1  0  0  0  0
 19 20  1  0  0  0  0
 19 28  1  0  0  0  0
 20 18  1  0  0  0  0
 21 29  1  0  0  0  0
 21 20  2  0  0  0  0
 22 21  1  0  0  0  0
 23 22  2  0  0  0  0
 23 24  1  0  0  0  0
 24 19  2  0  0  0  0
 25 23  1  0  0  0  0
 26 25  1  0  0  0  0
 26 27  1  0  0  0  0
 27 22  1  0  0  0  0
 30 24  1  0  0  0  0
 31 26  1  0  0  0  0
 32 26  1  0  0  0  0
 34 36  1  0  0  0  0
 34 37  1  0  0  0  0
 34 33  1  0  0  0  0
 35 34  1  0  0  0  0
M  END
>  <minimizedAffinity>
-5.84579039

$$$$

 OpenBabel03242515443D

 37 40  0  0  0  0  0  0  0  0999 V2000
   36.3400   30.0980   39.4400 C   0  0  0  0  0  0  0  0  0  0  0  0
   36.2730   29.6770   38.1610 C   0  0  0  0  0  0  0  0  0  0  0  0
   36.9440   30.4910   37.2250 C   0  0  0  0  0  0  0  0  0  0  0  0
   37.5900   31.6120   37.6230 N   0  0  0  0  0  0  0  0  0  0  0  0
   37.6190   31.9920   38.9210 C   0  0  0  0  0  0  0  0  0  0  0  0
   36.9920   31.2130   39.7690 N   0  0  0  0  0  0  0  0  0  0  0  0
   35.4900   28.6700   37.4570 C   0  0  0  0  0  0  0  0  0  0  0  0
   34.1310   28.6490   37.2500 C   0  0  0  0  0  0  0  0  0  0  0  0
   33.3180   29.2910   37.4990 H   0  0  0  0  0  0  0  0  0  0  0  0
   33.7760   27.5340   36.5350 C   0  0  0  0  0  0  0  0  0  0  0  0
   32.8470   27.1330   36.1640 H   0  0  0  0  0  0  0  0  0  0  0  0
   34.9600   26.8760   36.3120 C   0  0  0  0  0  0  0  0  0  0  0  0
   35.2020   25.9390   35.7880 H   0  0  0  0  0  0  0  0  0  0  0  0
   35.8880   27.5920   36.8700 O   0  0  0  0  0  0  0  0  0  0  0  0
   36.9450   30.1560   35.8390 N   0  0  0  0  0  0  0  0  0  0  0  0
   36.0150   30.1990   35.3390 H   0  0  0  0  0  0  0  0  0  0  0  0
   37.9670   29.9310   35.6430 H   0  0  0  0  0  0  0  0  0  0  0  0
   35.5410   29.0220   40.6670 S   0  0  0  0  0  0  0  0  0  0  0  0
   37.4310   28.7590   42.4960 C   0  0  0  0  0  0  0  0  0  0  0  0
   36.7570   28.0510   41.5230 C   0  0  0  0  0  0  0  0  0  0  0  0
   37.0390   26.7270   41.3320 C   0  0  0  0  0  0  0  0  0  0  0  0
   37.9770   26.0570   42.0760 C   0  0  0  0  0  0  0  0  0  0  0  0
   38.6520   26.7690   43.0550 C   0  0  0  0  0  0  0  0  0  0  0  0
   38.3960   28.1000   43.2770 C   0  0  0  0  0  0  0  0  0  0  0  0
   39.5530   25.8710   43.6790 O   0  0  0  0  0  0  0  0  0  0  0  0
   39.6100   24.7360   42.8890 C   0  0  0  0  0  0  0  0  0  0  0  0
   38.4540   24.7410   42.0900 O   0  0  0  0  0  0  0  0  0  0  0  0
   37.2900   29.8130   42.7320 H   0  0  0  0  0  0  0  0  0  0  0  0
   36.4760   26.2340   40.5530 H   0  0  0  0  0  0  0  0  0  0  0  0
   38.9330   28.6650   44.0540 H   0  0  0  0  0  0  0  0  0  0  0  0
   40.5460   24.6010   42.3320 H   0  0  0  0  0  0  0  0  0  0  0  0
   39.5260   23.8510   43.5590 H   0  0  0  0  0  0  0  0  0  0  0  0
   38.2430   33.1090   39.3790 O   0  0  0  0  0  0  0  0  0  0  0  0
   39.4440   32.9700   40.1040 C   0  0  0  0  0  0  0  0  0  0  0  0
   39.2010   32.7520   41.4350 F   0  0  0  0  0  0  0  0  0  0  0  0
   40.1430   31.9050   39.5250 F   0  0  0  0  0  0  0  0  0  0  0  0
   40.1440   34.1610   39.9980 F   0  0  0  0  0  0  0  0  0  0  0  0
  1  6  1  0  0  0  0
  1 18  1  0  0  0  0
  2  1  2  0  0  0  0
  3  4  2  0  0  0  0
  3  2  1  0  0  0  0
  4  5  1  0  0  0  0
  5 33  1  0  0  0  0
  5  6  2  0  0  0  0
  7  2  1  0  0  0  0
  8  7  2  0  0  0  0
  8  9  1  0  0  0  0
 10  8  1  0  0  0  0
 11 10  1  0  0  0  0
 12 10  2  0  0  0  0
 12 14  1  0  0  0  0
 13 12  1  0  0  0  0
 14  7  1  0  0  0  0
 15  3  1  0  0  0  0
 16 15  1  0  0  0  0
 17 15  1  0  0  0  0
 18 20  1  0  0  0  0
 19 28  1  0  0  0  0
 19 24  1  0  0  0  0
 20 19  2  0  0  0  0
 21 20  1  0  0  0  0
 21 22  2  0  0  0  0
 22 27  1  0  0  0  0
 22 23  1  0  0  0  0
 23 24  2  0  0  0  0
 23 25  1  0  0  0  0
 24 30  1  0  0  0  0
 26 32  1  0  0  0  0
 26 25  1  0  0  0  0
 27 26  1  0  0  0  0
 29 21  1  0  0  0  0
 31 26  1  0  0  0  0
 33 34  1  0  0  0  0
 34 35  1  0  0  0  0
 36 34  1  0  0  0  0
 37 34  1  0  0  0  0
M  END
>  <minimizedAffinity>
-5.83425951

$$$$

 OpenBabel03242515443D

 37 40  0  0  0  0  0  0  0  0999 V2000
   36.6230   28.2180   40.0370 C   0  0  0  0  0  0  0  0  0  0  0  0
   37.1620   27.6410   41.1300 C   0  0  0  0  0  0  0  0  0  0  0  0
   37.5180   28.5310   42.1650 C   0  0  0  0  0  0  0  0  0  0  0  0
   37.3230   29.8630   42.0280 N   0  0  0  0  0  0  0  0  0  0  0  0
   36.7830   30.3890   40.9050 C   0  0  0  0  0  0  0  0  0  0  0  0
   36.4570   29.5390   39.9620 N   0  0  0  0  0  0  0  0  0  0  0  0
   37.6680   26.3090   41.4360 C   0  0  0  0  0  0  0  0  0  0  0  0
   36.9520   25.2010   41.8210 C   0  0  0  0  0  0  0  0  0  0  0  0
   35.9210   24.9860   41.9860 H   0  0  0  0  0  0  0  0  0  0  0  0
   37.7920   24.1330   42.0090 C   0  0  0  0  0  0  0  0  0  0  0  0
   37.6600   23.1050   42.3020 H   0  0  0  0  0  0  0  0  0  0  0  0
   39.0430   24.6250   41.7260 C   0  0  0  0  0  0  0  0  0  0  0  0
   40.0410   24.1630   41.7310 H   0  0  0  0  0  0  0  0  0  0  0  0
   38.8820   25.8740   41.4070 O   0  0  0  0  0  0  0  0  0  0  0  0
   38.1000   28.0450   43.3720 N   0  0  0  0  0  0  0  0  0  0  0  0
   39.0620   27.6140   43.2950 H   0  0  0  0  0  0  0  0  0  0  0  0
   37.3600   28.2590   44.1050 H   0  0  0  0  0  0  0  0  0  0  0  0
   36.0940   27.0800   38.7240 S   0  0  0  0  0  0  0  0  0  0  0  0
   35.5410   27.9800   36.3010 C   0  0  0  0  0  0  0  0  0  0  0  0
   35.0230   27.9120   37.5780 C   0  0  0  0  0  0  0  0  0  0  0  0
   33.7850   28.4310   37.8330 C   0  0  0  0  0  0  0  0  0  0  0  0
   33.0180   29.0250   36.8630 C   0  0  0  0  0  0  0  0  0  0  0  0
   33.5390   29.0910   35.5800 C   0  0  0  0  0  0  0  0  0  0  0  0
   34.7790   28.5810   35.2840 C   0  0  0  0  0  0  0  0  0  0  0  0
   32.5730   29.7360   34.7700 O   0  0  0  0  0  0  0  0  0  0  0  0
   31.6340   30.2950   35.6200 C   0  0  0  0  0  0  0  0  0  0  0  0
   31.7530   29.6240   36.8490 O   0  0  0  0  0  0  0  0  0  0  0  0
   36.5130   27.6040   35.9860 H   0  0  0  0  0  0  0  0  0  0  0  0
   33.4410   28.3450   38.8530 H   0  0  0  0  0  0  0  0  0  0  0  0
   35.1930   28.6340   34.2650 H   0  0  0  0  0  0  0  0  0  0  0  0
   31.6650   31.3890   35.6960 H   0  0  0  0  0  0  0  0  0  0  0  0
   30.6250   30.0470   35.2220 H   0  0  0  0  0  0  0  0  0  0  0  0
   36.5710   31.7170   40.7060 O   0  0  0  0  0  0  0  0  0  0  0  0
   37.3500   32.3950   39.7470 C   0  0  0  0  0  0  0  0  0  0  0  0
   36.8770   32.1810   38.4780 F   0  0  0  0  0  0  0  0  0  0  0  0
   37.3180   33.7520   40.0870 F   0  0  0  0  0  0  0  0  0  0  0  0
   38.6350   31.8820   39.8040 F   0  0  0  0  0  0  0  0  0  0  0  0
  1  2  1  0  0  0  0
  2  7  1  0  0  0  0
  2  3  2  0  0  0  0
  3 15  1  0  0  0  0
  4  3  1  0  0  0  0
  5  4  2  0  0  0  0
  6  1  2  0  0  0  0
  6  5  1  0  0  0  0
  7  8  2  0  0  0  0
  8  9  1  0  0  0  0
  8 10  1  0  0  0  0
 10 11  1  0  0  0  0
 12 13  1  0  0  0  0
 12 10  2  0  0  0  0
 14  7  1  0  0  0  0
 14 12  1  0  0  0  0
 15 17  1  0  0  0  0
 16 15  1  0  0  0  0
 18  1  1  0  0  0  0
 19 20  1  0  0  0  0
 20 21  2  0  0  0  0
 20 18  1  0  0  0  0
 21 29  1  0  0  0  0
 22 21  1  0  0  0  0
 23 22  2  0  0  0  0
 24 23  1  0  0  0  0
 24 19  2  0  0  0  0
 25 23  1  0  0  0  0
 25 26  1  0  0  0  0
 26 31  1  0  0  0  0
 26 27  1  0  0  0  0
 27 22  1  0  0  0  0
 28 19  1  0  0  0  0
 30 24  1  0  0  0  0
 32 26  1  0  0  0  0
 33  5  1  0  0  0  0
 34 37  1  0  0  0  0
 34 36  1  0  0  0  0
 34 33  1  0  0  0  0
 35 34  1  0  0  0  0
M  END
>  <minimizedAffinity>
-5.6869216

$$$$

 OpenBabel03242515443D

 37 40  0  0  0  0  0  0  0  0999 V2000
   37.0470   29.6040   41.0120 C   0  0  0  0  0  0  0  0  0  0  0  0
   37.8390   28.6370   41.5160 C   0  0  0  0  0  0  0  0  0  0  0  0
   39.1150   29.0650   41.9390 C   0  0  0  0  0  0  0  0  0  0  0  0
   39.4820   30.3620   41.8210 N   0  0  0  0  0  0  0  0  0  0  0  0
   38.6480   31.2910   41.3000 C   0  0  0  0  0  0  0  0  0  0  0  0
   37.4680   30.8660   40.9210 N   0  0  0  0  0  0  0  0  0  0  0  0
   37.7780   27.1810   41.5500 C   0  0  0  0  0  0  0  0  0  0  0  0
   37.0770   26.3850   42.4240 C   0  0  0  0  0  0  0  0  0  0  0  0
   36.4250   26.5590   43.2490 H   0  0  0  0  0  0  0  0  0  0  0  0
   37.2700   25.0610   42.1220 C   0  0  0  0  0  0  0  0  0  0  0  0
   36.9230   24.1290   42.5340 H   0  0  0  0  0  0  0  0  0  0  0  0
   38.1110   25.0750   41.0350 C   0  0  0  0  0  0  0  0  0  0  0  0
   38.5540   24.2720   40.4300 H   0  0  0  0  0  0  0  0  0  0  0  0
   38.3500   26.3250   40.7740 O   0  0  0  0  0  0  0  0  0  0  0  0
   40.0480   28.1370   42.4880 N   0  0  0  0  0  0  0  0  0  0  0  0
   40.4190   27.3940   41.8350 H   0  0  0  0  0  0  0  0  0  0  0  0
   40.1440   28.4550   43.4990 H   0  0  0  0  0  0  0  0  0  0  0  0
   35.3760   29.0820   40.5290 S   0  0  0  0  0  0  0  0  0  0  0  0
   33.9460   28.7590   38.3300 C   0  0  0  0  0  0  0  0  0  0  0  0
   35.2210   29.0610   38.7600 C   0  0  0  0  0  0  0  0  0  0  0  0
   36.1970   29.3360   37.8430 C   0  0  0  0  0  0  0  0  0  0  0  0
   35.9640   29.3290   36.4920 C   0  0  0  0  0  0  0  0  0  0  0  0
   34.6810   29.0270   36.0600 C   0  0  0  0  0  0  0  0  0  0  0  0
   33.6740   28.7440   36.9500 C   0  0  0  0  0  0  0  0  0  0  0  0
   34.6920   29.0840   34.6440 O   0  0  0  0  0  0  0  0  0  0  0  0
   36.0170   29.1320   34.2480 C   0  0  0  0  0  0  0  0  0  0  0  0
   36.7570   29.5640   35.3630 O   0  0  0  0  0  0  0  0  0  0  0  0
   33.0960   28.5210   38.9680 H   0  0  0  0  0  0  0  0  0  0  0  0
   37.1720   29.5630   38.2480 H   0  0  0  0  0  0  0  0  0  0  0  0
   32.6560   28.5040   36.6080 H   0  0  0  0  0  0  0  0  0  0  0  0
   36.3980   28.2160   33.7790 H   0  0  0  0  0  0  0  0  0  0  0  0
   36.1130   29.9300   33.4780 H   0  0  0  0  0  0  0  0  0  0  0  0
   38.9630   32.6050   41.1490 O   0  0  0  0  0  0  0  0  0  0  0  0
   39.1700   33.1100   39.8490 C   0  0  0  0  0  0  0  0  0  0  0  0
   39.5860   32.1260   38.9910 F   0  0  0  0  0  0  0  0  0  0  0  0
   37.9570   33.6750   39.4380 F   0  0  0  0  0  0  0  0  0  0  0  0
   40.1790   34.0570   39.9180 F   0  0  0  0  0  0  0  0  0  0  0  0
  1  2  1  0  0  0  0
  2  7  1  0  0  0  0
  2  3  2  0  0  0  0
  3 15  1  0  0  0  0
  4  3  1  0  0  0  0
  5  4  2  0  0  0  0
  6  1  2  0  0  0  0
  6  5  1  0  0  0  0
  7  8  2  0  0  0  0
  8  9  1  0  0  0  0
 10  8  1  0  0  0  0
 10 11  1  0  0  0  0
 12 10  2  0  0  0  0
 13 12  1  0  0  0  0
 14 12  1  0  0  0  0
 14  7  1  0  0  0  0
 15 17  1  0  0  0  0
 16 15  1  0  0  0  0
 18  1  1  0  0  0  0
 19 20  1  0  0  0  0
 19 28  1  0  0  0  0
 20 18  1  0  0  0  0
 21 29  1  0  0  0  0
 21 20  2  0  0  0  0
 22 21  1  0  0  0  0
 23 22  2  0  0  0  0
 23 24  1  0  0  0  0
 24 19  2  0  0  0  0
 25 23  1  0  0  0  0
 26 25  1  0  0  0  0
 26 27  1  0  0  0  0
 27 22  1  0  0  0  0
 30 24  1  0  0  0  0
 31 26  1  0  0  0  0
 32 26  1  0  0  0  0
 33  5  1  0  0  0  0
 34 37  1  0  0  0  0
 34 33  1  0  0  0  0
 35 34  1  0  0  0  0
 36 34  1  0  0  0  0
M  END
>  <minimizedAffinity>
-5.60138941

$$$$

 OpenBabel03242515443D

 37 40  0  0  0  0  0  0  0  0999 V2000
   36.4610   29.9580   39.6460 C   0  0  0  0  0  0  0  0  0  0  0  0
   36.7220   28.7720   40.2310 C   0  0  0  0  0  0  0  0  0  0  0  0
   36.4370   27.6380   39.4440 C   0  0  0  0  0  0  0  0  0  0  0  0
   35.9310   27.7730   38.1950 N   0  0  0  0  0  0  0  0  0  0  0  0
   35.6820   28.9900   37.6590 C   0  0  0  0  0  0  0  0  0  0  0  0
   35.9610   30.0260   38.4110 N   0  0  0  0  0  0  0  0  0  0  0  0
   37.0460   28.3540   41.5890 C   0  0  0  0  0  0  0  0  0  0  0  0
   38.2610   28.4250   42.2280 C   0  0  0  0  0  0  0  0  0  0  0  0
   39.2320   28.7780   41.9690 H   0  0  0  0  0  0  0  0  0  0  0  0
   38.1560   27.9370   43.5060 C   0  0  0  0  0  0  0  0  0  0  0  0
   38.8380   27.8090   44.3290 H   0  0  0  0  0  0  0  0  0  0  0  0
   36.8380   27.5660   43.6260 C   0  0  0  0  0  0  0  0  0  0  0  0
   36.2640   27.1240   44.4530 H   0  0  0  0  0  0  0  0  0  0  0  0
   36.2760   27.8390   42.4870 O   0  0  0  0  0  0  0  0  0  0  0  0
   36.6670   26.3250   39.9510 N   0  0  0  0  0  0  0  0  0  0  0  0
   36.0650   26.0180   40.7630 H   0  0  0  0  0  0  0  0  0  0  0  0
   37.4480   25.9560   39.3300 H   0  0  0  0  0  0  0  0  0  0  0  0
   36.8880   31.4300   40.6210 S   0  0  0  0  0  0  0  0  0  0  0  0
   38.6950   33.3590   40.6350 C   0  0  0  0  0  0  0  0  0  0  0  0
   38.3360   32.2140   39.9560 C   0  0  0  0  0  0  0  0  0  0  0  0
   39.1010   31.7810   38.9080 C   0  0  0  0  0  0  0  0  0  0  0  0
   40.2290   32.4430   38.4950 C   0  0  0  0  0  0  0  0  0  0  0  0
   40.5900   33.5940   39.1800 C   0  0  0  0  0  0  0  0  0  0  0  0
   39.8470   34.0590   40.2370 C   0  0  0  0  0  0  0  0  0  0  0  0
   41.7720   34.0870   38.5750 O   0  0  0  0  0  0  0  0  0  0  0  0
   41.9350   33.4040   37.3820 C   0  0  0  0  0  0  0  0  0  0  0  0
   41.1690   32.2300   37.4800 O   0  0  0  0  0  0  0  0  0  0  0  0
   38.1610   33.7950   41.4780 H   0  0  0  0  0  0  0  0  0  0  0  0
   38.7630   30.8790   38.4210 H   0  0  0  0  0  0  0  0  0  0  0  0
   40.1330   34.9730   40.7800 H   0  0  0  0  0  0  0  0  0  0  0  0
   41.7470   33.9950   36.4760 H   0  0  0  0  0  0  0  0  0  0  0  0
   42.9990   33.0820   37.3180 H   0  0  0  0  0  0  0  0  0  0  0  0
   35.1670   29.1880   36.4170 O   0  0  0  0  0  0  0  0  0  0  0  0
   36.0090   29.0310   35.2970 C   0  0  0  0  0  0  0  0  0  0  0  0
   35.9660   27.7480   34.8160 F   0  0  0  0  0  0  0  0  0  0  0  0
   35.5820   29.9560   34.3380 F   0  0  0  0  0  0  0  0  0  0  0  0
   37.3090   29.2790   35.7060 F   0  0  0  0  0  0  0  0  0  0  0  0
  1  2  1  0  0  0  0
  1 18  1  0  0  0  0
  2  7  1  0  0  0  0
  3 15  1  0  0  0  0
  3  2  2  0  0  0  0
  4  3  1  0  0  0  0
  5  4  2  0  0  0  0
  5  6  1  0  0  0  0
  6  1  2  0  0  0  0
  7  8  2  0  0  0  0
  7 14  1  0  0  0  0
  8 10  1  0  0  0  0
  9  8  1  0  0  0  0
 10 12  2  0  0  0  0
 10 11  1  0  0  0  0
 12 13  1  0  0  0  0
 14 12  1  0  0  0  0
 15 16  1  0  0  0  0
 17 15  1  0  0  0  0
 19 28  1  0  0  0  0
 20 18  1  0  0  0  0
 20 19  2  0  0  0  0
 21 20  1  0  0  0  0
 22 21  2  0  0  0  0
 22 23  1  0  0  0  0
 23 24  2  0  0  0  0
 24 19  1  0  0  0  0
 24 30  1  0  0  0  0
 25 23  1  0  0  0  0
 26 27  1  0  0  0  0
 26 25  1  0  0  0  0
 27 22  1  0  0  0  0
 29 21  1  0  0  0  0
 31 26  1  0  0  0  0
 32 26  1  0  0  0  0
 33  5  1  0  0  0  0
 34 37  1  0  0  0  0
 34 33  1  0  0  0  0
 35 34  1  0  0  0  0
 36 34  1  0  0  0  0
M  END
>  <minimizedAffinity>
-5.57255888

$$$$

 OpenBabel03242515443D

 37 40  0  0  0  0  0  0  0  0999 V2000
   34.8740   28.7540   37.4640 C   0  0  0  0  0  0  0  0  0  0  0  0
   35.9210   29.2540   36.7780 C   0  0  0  0  0  0  0  0  0  0  0  0
   36.9950   29.7090   37.5700 C   0  0  0  0  0  0  0  0  0  0  0  0
   36.9360   29.6390   38.9210 N   0  0  0  0  0  0  0  0  0  0  0  0
   35.8550   29.1330   39.5580 C   0  0  0  0  0  0  0  0  0  0  0  0
   34.8750   28.7120   38.7970 N   0  0  0  0  0  0  0  0  0  0  0  0
   36.1430   29.6370   35.3900 C   0  0  0  0  0  0  0  0  0  0  0  0
   36.3840   28.8150   34.3150 C   0  0  0  0  0  0  0  0  0  0  0  0
   36.4650   27.7620   34.1700 H   0  0  0  0  0  0  0  0  0  0  0  0
   36.5320   29.5580   33.1710 C   0  0  0  0  0  0  0  0  0  0  0  0
   36.7270   29.3300   32.1370 H   0  0  0  0  0  0  0  0  0  0  0  0
   36.3730   30.8590   33.5830 C   0  0  0  0  0  0  0  0  0  0  0  0
   36.4010   31.8170   33.0430 H   0  0  0  0  0  0  0  0  0  0  0  0
   36.1530   30.8140   34.8620 O   0  0  0  0  0  0  0  0  0  0  0  0
   38.1610   30.2630   36.9640 N   0  0  0  0  0  0  0  0  0  0  0  0
   38.0390   31.1790   36.4500 H   0  0  0  0  0  0  0  0  0  0  0  0
   38.9200   29.5580   37.2050 H   0  0  0  0  0  0  0  0  0  0  0  0
   33.5120   28.0980   36.4560 S   0  0  0  0  0  0  0  0  0  0  0  0
   31.5710   29.7430   37.1740 C   0  0  0  0  0  0  0  0  0  0  0  0
   32.3410   29.3810   36.0880 C   0  0  0  0  0  0  0  0  0  0  0  0
   32.1730   30.0280   34.8950 C   0  0  0  0  0  0  0  0  0  0  0  0
   31.2600   31.0370   34.7240 C   0  0  0  0  0  0  0  0  0  0  0  0
   30.4880   31.4010   35.8170 C   0  0  0  0  0  0  0  0  0  0  0  0
   30.6280   30.7750   37.0310 C   0  0  0  0  0  0  0  0  0  0  0  0
   29.6360   32.4510   35.3950 O   0  0  0  0  0  0  0  0  0  0  0  0
   29.7030   32.5010   34.0140 C   0  0  0  0  0  0  0  0  0  0  0  0
   30.8890   31.8450   33.6420 O   0  0  0  0  0  0  0  0  0  0  0  0
   31.6180   29.2970   38.1660 H   0  0  0  0  0  0  0  0  0  0  0  0
   32.8070   29.6940   34.0860 H   0  0  0  0  0  0  0  0  0  0  0  0
   30.0140   31.0640   37.8980 H   0  0  0  0  0  0  0  0  0  0  0  0
   28.8060   32.1490   33.4890 H   0  0  0  0  0  0  0  0  0  0  0  0
   29.8280   33.5680   33.7180 H   0  0  0  0  0  0  0  0  0  0  0  0
   35.7350   29.0440   40.9090 O   0  0  0  0  0  0  0  0  0  0  0  0
   36.5190   28.1000   41.6020 C   0  0  0  0  0  0  0  0  0  0  0  0
   35.9580   27.7760   42.8100 F   0  0  0  0  0  0  0  0  0  0  0  0
   36.6340   26.9810   40.7700 F   0  0  0  0  0  0  0  0  0  0  0  0
   37.7520   28.6780   41.8580 F   0  0  0  0  0  0  0  0  0  0  0  0
  1  6  1  0  0  0  0
  2  1  2  0  0  0  0
  2  3  1  0  0  0  0
  3  4  2  0  0  0  0
  4  5  1  0  0  0  0
  5 33  1  0  0  0  0
  6  5  2  0  0  0  0
  7  2  1  0  0  0  0
  8  7  2  0  0  0  0
  9  8  1  0  0  0  0
 10 12  2  0  0  0  0
 10  8  1  0  0  0  0
 11 10  1  0  0  0  0
 12 14  1  0  0  0  0
 13 12  1  0  0  0  0
 14  7  1  0  0  0  0
 15 17  1  0  0  0  0
 15  3  1  0  0  0  0
 16 15  1  0  0  0  0
 18  1  1  0  0  0  0
 19 28  1  0  0  0  0
 20 18  1  0  0  0  0
 20 19  2  0  0  0  0
 21 20  1  0  0  0  0
 22 21  2  0  0  0  0
 22 23  1  0  0  0  0
 23 24  2  0  0  0  0
 24 19  1  0  0  0  0
 24 30  1  0  0  0  0
 25 23  1  0  0  0  0
 26 25  1  0  0  0  0
 27 26  1  0  0  0  0
 27 22  1  0  0  0  0
 29 21  1  0  0  0  0
 31 26  1  0  0  0  0
 32 26  1  0  0  0  0
 33 34  1  0  0  0  0
 34 37  1  0  0  0  0
 34 35  1  0  0  0  0
 36 34  1  0  0  0  0
M  END
>  <minimizedAffinity>
-5.53563166

$$$$
