
 OpenBabel03252507343D

 48 51  0  0  1  0  0  0  0  0999 V2000
   38.2490   31.6580   40.9270 C   0  0  0  0  0  0  0  0  0  0  0  0
   36.9430   31.7870   40.4670 C   0  0  0  0  0  0  0  0  0  0  0  0
   36.0750   30.6720   40.5230 C   0  0  0  0  0  0  0  0  0  0  0  0
   36.6070   29.4950   41.0460 N   0  0  0  0  0  0  0  0  0  0  0  0
   37.8730   29.4420   41.4690 C   0  0  0  0  0  0  0  0  0  0  0  0
   38.6790   30.5000   41.4130 N   0  0  0  0  0  0  0  0  0  0  0  0
   36.3550   32.5520   40.0100 H   0  0  0  0  0  0  0  0  0  0  0  0
   35.0640   30.5810   40.2270 H   0  0  0  0  0  0  0  0  0  0  0  0
   39.0950   32.8340   40.8710 C   0  0  2  0  0  0  0  0  0  0  0  0
   38.3120   34.0720   40.3410 C   0  0  0  0  0  0  0  0  0  0  0  0
   39.1680   35.2850   40.4380 C   0  0  0  0  0  0  0  0  0  0  0  0
   40.5890   35.1270   40.0150 C   0  0  0  0  0  0  0  0  0  0  0  0
   41.1760   33.8530   40.3440 C   0  0  0  0  0  0  0  0  0  0  0  0
   40.2640   32.6450   40.0360 C   0  0  2  0  0  0  0  0  0  0  0  0
   39.3440   33.1270   41.9100 H   0  0  0  0  0  0  0  0  0  0  0  0
   37.4430   34.1490   41.0270 H   0  0  0  0  0  0  0  0  0  0  0  0
   37.8990   33.9090   39.3520 H   0  0  0  0  0  0  0  0  0  0  0  0
   38.7220   36.0460   39.7300 H   0  0  0  0  0  0  0  0  0  0  0  0
   38.9850   35.7250   41.4360 H   0  0  0  0  0  0  0  0  0  0  0  0
   40.9580   35.7550   39.2020 H   0  0  0  0  0  0  0  0  0  0  0  0
   41.0950   35.7800   40.8320 H   0  0  0  0  0  0  0  0  0  0  0  0
   41.5090   33.6700   41.3990 H   0  0  0  0  0  0  0  0  0  0  0  0
   42.1220   33.6930   39.7480 H   0  0  0  0  0  0  0  0  0  0  0  0
   40.9220   31.8140   40.2970 H   0  0  0  0  0  0  0  0  0  0  0  0
   39.8860   32.6950   38.6230 N   0  0  0  0  0  0  0  0  0  0  0  0
   39.8860   31.7090   37.6200 C   0  0  0  0  0  0  0  0  0  0  0  0
   38.9830   30.8010   37.5350 O   0  0  0  0  0  0  0  0  0  0  0  0
   40.9690   31.7980   36.6940 N   0  0  0  0  0  0  0  0  0  0  0  0
   39.5960   33.6270   38.1410 H   0  0  0  0  0  0  0  0  0  0  0  0
   41.2980   32.6000   36.1320 H   0  0  0  0  0  0  0  0  0  0  0  0
   41.6180   31.0030   36.4480 H   0  0  0  0  0  0  0  0  0  0  0  0
   38.3740   28.1660   41.9910 C   0  0  0  0  0  0  0  0  0  0  0  0
   39.2090   28.1240   43.0840 C   0  0  0  0  0  0  0  0  0  0  0  0
   39.7290   26.9840   43.6430 C   0  0  0  0  0  0  0  0  0  0  0  0
   39.3450   25.8270   43.0130 C   0  0  0  0  0  0  0  0  0  0  0  0
   38.5040   25.8310   41.9070 C   0  0  0  0  0  0  0  0  0  0  0  0
   38.0200   27.0130   41.4010 N   0  0  0  0  0  0  0  0  0  0  0  0
   39.4700   29.0940   43.5320 H   0  0  0  0  0  0  0  0  0  0  0  0
   40.3830   26.9780   44.5030 H   0  0  0  0  0  0  0  0  0  0  0  0
   39.6920   24.8600   43.3640 H   0  0  0  0  0  0  0  0  0  0  0  0
   38.1050   24.5920   41.2470 C   0  0  0  0  0  0  0  0  0  0  0  0
   36.8630   24.3910   40.6680 C   0  0  0  0  0  0  0  0  0  0  0  0
   36.0080   25.0630   40.5970 H   0  0  0  0  0  0  0  0  0  0  0  0
   36.8070   23.1030   40.1240 C   0  0  0  0  0  0  0  0  0  0  0  0
   35.9630   22.6670   39.6100 H   0  0  0  0  0  0  0  0  0  0  0  0
   38.0700   22.5850   40.4210 C   0  0  0  0  0  0  0  0  0  0  0  0
   38.3350   21.5810   40.1210 H   0  0  0  0  0  0  0  0  0  0  0  0
   38.7750   23.4810   41.0650 O   0  0  0  0  0  0  0  0  0  0  0  0
  1  6  1  0  0  0  0
  2  3  1  0  0  0  0
  2  1  2  0  0  0  0
  3  4  2  0  0  0  0
  4  5  1  0  0  0  0
  5 32  1  0  0  0  0
  6  5  2  0  0  0  0
  7  2  1  0  0  0  0
  8  3  1  0  0  0  0
  9  1  1  0  0  0  0
  9 15  1  1  0  0  0
 10 11  1  0  0  0  0
 10  9  1  0  0  0  0
 10 16  1  0  0  0  0
 11 19  1  0  0  0  0
 12 13  1  0  0  0  0
 12 11  1  0  0  0  0
 12 21  1  0  0  0  0
 13 22  1  0  0  0  0
 14 24  1  1  0  0  0
 14 13  1  0  0  0  0
 14  9  1  0  0  0  0
 17 10  1  0  0  0  0
 18 11  1  0  0  0  0
 20 12  1  0  0  0  0
 23 13  1  0  0  0  0
 25 14  1  0  0  0  0
 26 25  1  0  0  0  0
 27 26  2  0  0  0  0
 28 26  1  0  0  0  0
 29 25  1  0  0  0  0
 30 28  1  0  0  0  0
 31 28  1  0  0  0  0
 32 33  1  0  0  0  0
 33 38  1  0  0  0  0
 33 34  2  0  0  0  0
 34 39  1  0  0  0  0
 35 40  1  0  0  0  0
 35 34  1  0  0  0  0
 36 35  2  0  0  0  0
 37 36  1  0  0  0  0
 37 32  2  0  0  0  0
 41 36  1  0  0  0  0
 42 41  2  0  0  0  0
 43 42  1  0  0  0  0
 44 46  2  0  0  0  0
 44 42  1  0  0  0  0
 45 44  1  0  0  0  0
 46 48  1  0  0  0  0
 47 46  1  0  0  0  0
 48 41  1  0  0  0  0
M  END
>  <minimizedAffinity>
-7.00775385

$$$$

 OpenBabel03252507343D

 48 51  0  0  1  0  0  0  0  0999 V2000
   37.4370   30.5380   40.8550 C   0  0  0  0  0  0  0  0  0  0  0  0
   36.1010   30.6130   40.4790 C   0  0  0  0  0  0  0  0  0  0  0  0
   35.2970   29.4510   40.5430 C   0  0  0  0  0  0  0  0  0  0  0  0
   35.9200   28.2870   40.9860 N   0  0  0  0  0  0  0  0  0  0  0  0
   37.2110   28.2870   41.3310 C   0  0  0  0  0  0  0  0  0  0  0  0
   37.9560   29.3890   41.2680 N   0  0  0  0  0  0  0  0  0  0  0  0
   35.4470   31.3610   40.0880 H   0  0  0  0  0  0  0  0  0  0  0  0
   34.2760   29.3160   40.3030 H   0  0  0  0  0  0  0  0  0  0  0  0
   38.2160   31.7600   40.7960 C   0  0  2  0  0  0  0  0  0  0  0  0
   37.4580   32.8800   40.0220 C   0  0  0  0  0  0  0  0  0  0  0  0
   38.2210   34.1540   40.1100 C   0  0  0  0  0  0  0  0  0  0  0  0
   39.6960   34.0540   39.9230 C   0  0  0  0  0  0  0  0  0  0  0  0
   40.2950   32.8650   40.4740 C   0  0  0  0  0  0  0  0  0  0  0  0
   39.5090   31.5710   40.1690 C   0  0  2  0  0  0  0  0  0  0  0  0
   38.2850   32.1730   41.8210 H   0  0  0  0  0  0  0  0  0  0  0  0
   36.4910   32.9630   40.5590 H   0  0  0  0  0  0  0  0  0  0  0  0
   37.2130   32.5890   39.0070 H   0  0  0  0  0  0  0  0  0  0  0  0
   37.8490   34.8060   39.2640 H   0  0  0  0  0  0  0  0  0  0  0  0
   37.8620   34.6780   41.0150 H   0  0  0  0  0  0  0  0  0  0  0  0
   40.1520   34.6230   39.1080 H   0  0  0  0  0  0  0  0  0  0  0  0
   40.0340   34.8210   40.7280 H   0  0  0  0  0  0  0  0  0  0  0  0
   40.4700   32.8130   41.5800 H   0  0  0  0  0  0  0  0  0  0  0  0
   41.3290   32.7140   40.0450 H   0  0  0  0  0  0  0  0  0  0  0  0
   40.1630   30.8190   40.6150 H   0  0  0  0  0  0  0  0  0  0  0  0
   39.3520   31.4510   38.7190 N   0  0  0  0  0  0  0  0  0  0  0  0
   40.2930   31.2780   37.6880 C   0  0  0  0  0  0  0  0  0  0  0  0
   40.8490   30.1490   37.4340 O   0  0  0  0  0  0  0  0  0  0  0  0
   40.5800   32.4570   36.9360 N   0  0  0  0  0  0  0  0  0  0  0  0
   38.3820   31.5620   38.2370 H   0  0  0  0  0  0  0  0  0  0  0  0
   39.9400   33.1140   36.4610 H   0  0  0  0  0  0  0  0  0  0  0  0
   41.5480   32.8360   36.7560 H   0  0  0  0  0  0  0  0  0  0  0  0
   37.8080   27.0210   41.7710 C   0  0  0  0  0  0  0  0  0  0  0  0
   37.1010   25.8420   41.7090 C   0  0  0  0  0  0  0  0  0  0  0  0
   37.5720   24.6130   42.0960 C   0  0  0  0  0  0  0  0  0  0  0  0
   38.8580   24.6320   42.5740 C   0  0  0  0  0  0  0  0  0  0  0  0
   39.6020   25.8030   42.6510 C   0  0  0  0  0  0  0  0  0  0  0  0
   39.0640   27.0000   42.2440 N   0  0  0  0  0  0  0  0  0  0  0  0
   36.0770   25.9110   41.3140 H   0  0  0  0  0  0  0  0  0  0  0  0
   36.9960   23.7010   42.0370 H   0  0  0  0  0  0  0  0  0  0  0  0
   39.3410   23.7190   42.9110 H   0  0  0  0  0  0  0  0  0  0  0  0
   40.9680   25.8080   43.1620 C   0  0  0  0  0  0  0  0  0  0  0  0
   41.4140   26.6480   44.1690 C   0  0  0  0  0  0  0  0  0  0  0  0
   40.8750   27.4090   44.7330 H   0  0  0  0  0  0  0  0  0  0  0  0
   42.7660   26.3960   44.4190 C   0  0  0  0  0  0  0  0  0  0  0  0
   43.3810   26.9000   45.1520 H   0  0  0  0  0  0  0  0  0  0  0  0
   43.0670   25.3790   43.5110 C   0  0  0  0  0  0  0  0  0  0  0  0
   44.0640   24.9630   43.4630 H   0  0  0  0  0  0  0  0  0  0  0  0
   42.0000   25.0780   42.8140 O   0  0  0  0  0  0  0  0  0  0  0  0
  1  6  1  0  0  0  0
  2  3  1  0  0  0  0
  2  1  2  0  0  0  0
  3  4  2  0  0  0  0
  4  5  1  0  0  0  0
  5 32  1  0  0  0  0
  6  5  2  0  0  0  0
  7  2  1  0  0  0  0
  8  3  1  0  0  0  0
  9  1  1  0  0  0  0
  9 15  1  1  0  0  0
 10 11  1  0  0  0  0
 10 16  1  0  0  0  0
 10  9  1  0  0  0  0
 11 19  1  0  0  0  0
 12 11  1  0  0  0  0
 12 13  1  0  0  0  0
 12 21  1  0  0  0  0
 13 22  1  0  0  0  0
 14 13  1  0  0  0  0
 14 24  1  1  0  0  0
 14  9  1  0  0  0  0
 17 10  1  0  0  0  0
 18 11  1  0  0  0  0
 20 12  1  0  0  0  0
 23 13  1  0  0  0  0
 25 14  1  0  0  0  0
 26 25  1  0  0  0  0
 27 26  2  0  0  0  0
 28 26  1  0  0  0  0
 29 25  1  0  0  0  0
 30 28  1  0  0  0  0
 31 28  1  0  0  0  0
 32 37  1  0  0  0  0
 33 32  2  0  0  0  0
 33 34  1  0  0  0  0
 34 35  2  0  0  0  0
 35 36  1  0  0  0  0
 35 40  1  0  0  0  0
 36 41  1  0  0  0  0
 37 36  2  0  0  0  0
 38 33  1  0  0  0  0
 39 34  1  0  0  0  0
 41 42  2  0  0  0  0
 42 44  1  0  0  0  0
 42 43  1  0  0  0  0
 44 45  1  0  0  0  0
 46 44  2  0  0  0  0
 47 46  1  0  0  0  0
 48 41  1  0  0  0  0
 48 46  1  0  0  0  0
M  END
>  <minimizedAffinity>
-6.99087715

$$$$

 OpenBabel03252507343D

 48 51  0  0  1  0  0  0  0  0999 V2000
   37.7990   27.0350   41.7200 C   0  0  0  0  0  0  0  0  0  0  0  0
   37.4340   26.9840   43.0610 C   0  0  0  0  0  0  0  0  0  0  0  0
   37.2210   28.1890   43.7680 C   0  0  0  0  0  0  0  0  0  0  0  0
   37.4020   29.3710   43.0530 N   0  0  0  0  0  0  0  0  0  0  0  0
   37.7550   29.3470   41.7650 C   0  0  0  0  0  0  0  0  0  0  0  0
   37.9500   28.2040   41.1090 N   0  0  0  0  0  0  0  0  0  0  0  0
   37.2800   26.2220   43.7930 H   0  0  0  0  0  0  0  0  0  0  0  0
   36.9420   28.3470   44.7760 H   0  0  0  0  0  0  0  0  0  0  0  0
   37.9820   25.7740   41.0300 C   0  0  2  0  0  0  0  0  0  0  0  0
   37.2390   24.6140   41.7590 C   0  0  0  0  0  0  0  0  0  0  0  0
   37.3280   23.3720   40.9450 C   0  0  0  0  0  0  0  0  0  0  0  0
   38.6560   23.0750   40.3360 C   0  0  0  0  0  0  0  0  0  0  0  0
   39.3870   24.2340   39.8890 C   0  0  0  0  0  0  0  0  0  0  0  0
   39.3770   25.4060   40.8950 C   0  0  2  0  0  0  0  0  0  0  0  0
   37.4510   25.8330   40.0590 H   0  0  0  0  0  0  0  0  0  0  0  0
   36.1910   24.9700   41.8200 H   0  0  0  0  0  0  0  0  0  0  0  0
   37.5730   24.4880   42.7830 H   0  0  0  0  0  0  0  0  0  0  0  0
   37.1170   22.5140   41.6500 H   0  0  0  0  0  0  0  0  0  0  0  0
   36.4520   23.3710   40.2690 H   0  0  0  0  0  0  0  0  0  0  0  0
   39.1440   22.1330   40.5970 H   0  0  0  0  0  0  0  0  0  0  0  0
   38.2980   22.6740   39.3050 H   0  0  0  0  0  0  0  0  0  0  0  0
   39.0930   24.7150   38.9200 H   0  0  0  0  0  0  0  0  0  0  0  0
   40.4730   23.9700   39.7230 H   0  0  0  0  0  0  0  0  0  0  0  0
   40.0250   26.1220   40.3870 H   0  0  0  0  0  0  0  0  0  0  0  0
   39.8960   24.9240   42.1760 N   0  0  0  0  0  0  0  0  0  0  0  0
   40.8960   25.4280   43.0280 C   0  0  0  0  0  0  0  0  0  0  0  0
   40.7080   26.4310   43.8060 O   0  0  0  0  0  0  0  0  0  0  0  0
   42.1400   24.7300   42.9670 N   0  0  0  0  0  0  0  0  0  0  0  0
   39.5630   23.9830   42.6120 H   0  0  0  0  0  0  0  0  0  0  0  0
   42.3410   23.7210   43.0610 H   0  0  0  0  0  0  0  0  0  0  0  0
   43.0780   25.1850   42.8080 H   0  0  0  0  0  0  0  0  0  0  0  0
   37.9480   30.6280   41.0770 C   0  0  0  0  0  0  0  0  0  0  0  0
   36.9520   31.1720   40.2970 C   0  0  0  0  0  0  0  0  0  0  0  0
   37.0370   32.3600   39.6160 C   0  0  0  0  0  0  0  0  0  0  0  0
   38.2370   33.0070   39.7670 C   0  0  0  0  0  0  0  0  0  0  0  0
   39.2640   32.4880   40.5450 C   0  0  0  0  0  0  0  0  0  0  0  0
   39.1090   31.2900   41.2000 N   0  0  0  0  0  0  0  0  0  0  0  0
   36.0200   30.5920   40.2270 H   0  0  0  0  0  0  0  0  0  0  0  0
   36.2400   32.7660   39.0100 H   0  0  0  0  0  0  0  0  0  0  0  0
   38.4240   33.9570   39.2760 H   0  0  0  0  0  0  0  0  0  0  0  0
   40.5360   33.1870   40.6960 C   0  0  0  0  0  0  0  0  0  0  0  0
   40.7270   34.5220   40.3820 C   0  0  0  0  0  0  0  0  0  0  0  0
   40.0210   35.2550   39.9920 H   0  0  0  0  0  0  0  0  0  0  0  0
   42.0540   34.8760   40.6430 C   0  0  0  0  0  0  0  0  0  0  0  0
   42.4920   35.8530   40.4930 H   0  0  0  0  0  0  0  0  0  0  0  0
   42.6070   33.6840   41.1170 C   0  0  0  0  0  0  0  0  0  0  0  0
   43.6470   33.6400   41.4080 H   0  0  0  0  0  0  0  0  0  0  0  0
   41.6930   32.7460   41.1280 O   0  0  0  0  0  0  0  0  0  0  0  0
  1  2  1  0  0  0  0
  2  3  2  0  0  0  0
  2  7  1  0  0  0  0
  3  8  1  0  0  0  0
  4  3  1  0  0  0  0
  5  4  2  0  0  0  0
  6  1  2  0  0  0  0
  6  5  1  0  0  0  0
  9 15  1  6  0  0  0
  9  1  1  0  0  0  0
  9 10  1  0  0  0  0
 10 16  1  0  0  0  0
 10 17  1  0  0  0  0
 11 18  1  0  0  0  0
 11 10  1  0  0  0  0
 12 20  1  0  0  0  0
 12 11  1  0  0  0  0
 13 12  1  0  0  0  0
 13 14  1  0  0  0  0
 14 24  1  6  0  0  0
 14  9  1  0  0  0  0
 14 25  1  0  0  0  0
 19 11  1  0  0  0  0
 21 12  1  0  0  0  0
 22 13  1  0  0  0  0
 23 13  1  0  0  0  0
 25 29  1  0  0  0  0
 25 26  1  0  0  0  0
 26 27  2  0  0  0  0
 28 26  1  0  0  0  0
 28 30  1  0  0  0  0
 31 28  1  0  0  0  0
 32 37  1  0  0  0  0
 32  5  1  0  0  0  0
 33 32  2  0  0  0  0
 34 35  2  0  0  0  0
 34 33  1  0  0  0  0
 35 36  1  0  0  0  0
 36 41  1  0  0  0  0
 36 37  2  0  0  0  0
 38 33  1  0  0  0  0
 39 34  1  0  0  0  0
 40 35  1  0  0  0  0
 41 48  1  0  0  0  0
 42 44  1  0  0  0  0
 42 41  2  0  0  0  0
 43 42  1  0  0  0  0
 44 46  2  0  0  0  0
 45 44  1  0  0  0  0
 46 48  1  0  0  0  0
 46 47  1  0  0  0  0
M  END
>  <minimizedAffinity>
-6.77289343

$$$$

 OpenBabel03252507343D

 48 51  0  0  1  0  0  0  0  0999 V2000
   38.4130   31.4450   40.4960 C   0  0  0  0  0  0  0  0  0  0  0  0
   38.6920   30.5180   41.4940 C   0  0  0  0  0  0  0  0  0  0  0  0
   38.1200   29.2270   41.4190 C   0  0  0  0  0  0  0  0  0  0  0  0
   37.2950   28.9730   40.3250 N   0  0  0  0  0  0  0  0  0  0  0  0
   37.0700   29.9130   39.4020 C   0  0  0  0  0  0  0  0  0  0  0  0
   37.6170   31.1250   39.4840 N   0  0  0  0  0  0  0  0  0  0  0  0
   39.2440   30.5050   42.4070 H   0  0  0  0  0  0  0  0  0  0  0  0
   38.2160   28.4010   42.0720 H   0  0  0  0  0  0  0  0  0  0  0  0
   39.0410   32.7480   40.6020 C   0  0  2  0  0  0  0  0  0  0  0  0
   38.1680   33.8550   39.9390 C   0  0  0  0  0  0  0  0  0  0  0  0
   38.7720   35.1900   40.1960 C   0  0  0  0  0  0  0  0  0  0  0  0
   40.2520   35.2860   40.0460 C   0  0  0  0  0  0  0  0  0  0  0  0
   40.9780   34.1180   40.4760 C   0  0  0  0  0  0  0  0  0  0  0  0
   40.3580   32.7860   40.0000 C   0  0  2  0  0  0  0  0  0  0  0  0
   39.0420   33.0420   41.6700 H   0  0  0  0  0  0  0  0  0  0  0  0
   37.1890   33.7610   40.4510 H   0  0  0  0  0  0  0  0  0  0  0  0
   37.9780   33.6590   38.8900 H   0  0  0  0  0  0  0  0  0  0  0  0
   38.3400   35.8900   39.4200 H   0  0  0  0  0  0  0  0  0  0  0  0
   38.3370   35.5580   41.1440 H   0  0  0  0  0  0  0  0  0  0  0  0
   40.6510   35.9960   39.3170 H   0  0  0  0  0  0  0  0  0  0  0  0
   40.4810   35.9870   40.9450 H   0  0  0  0  0  0  0  0  0  0  0  0
   41.1390   33.9570   41.5730 H   0  0  0  0  0  0  0  0  0  0  0  0
   42.0300   34.1400   40.0650 H   0  0  0  0  0  0  0  0  0  0  0  0
   41.0890   32.0690   40.3760 H   0  0  0  0  0  0  0  0  0  0  0  0
   40.2430   32.8200   38.5410 N   0  0  0  0  0  0  0  0  0  0  0  0
   41.1270   32.4180   37.5230 C   0  0  0  0  0  0  0  0  0  0  0  0
   41.3000   31.1900   37.1950 O   0  0  0  0  0  0  0  0  0  0  0  0
   41.8170   33.4870   36.8750 N   0  0  0  0  0  0  0  0  0  0  0  0
   39.3860   33.2740   38.0450 H   0  0  0  0  0  0  0  0  0  0  0  0
   41.4480   34.3470   36.4370 H   0  0  0  0  0  0  0  0  0  0  0  0
   42.8630   33.5400   36.7490 H   0  0  0  0  0  0  0  0  0  0  0  0
   36.1760   29.5860   38.2860 C   0  0  0  0  0  0  0  0  0  0  0  0
   34.9620   28.9730   38.5040 C   0  0  0  0  0  0  0  0  0  0  0  0
   34.0610   28.6280   37.5290 C   0  0  0  0  0  0  0  0  0  0  0  0
   34.4650   28.9470   36.2570 C   0  0  0  0  0  0  0  0  0  0  0  0
   35.6820   29.5650   35.9990 C   0  0  0  0  0  0  0  0  0  0  0  0
   36.5360   29.8820   37.0280 N   0  0  0  0  0  0  0  0  0  0  0  0
   34.7130   28.7510   39.5520 H   0  0  0  0  0  0  0  0  0  0  0  0
   33.1140   28.1480   37.7260 H   0  0  0  0  0  0  0  0  0  0  0  0
   33.8360   28.7230   35.4000 H   0  0  0  0  0  0  0  0  0  0  0  0
   36.0970   29.8970   34.6410 C   0  0  0  0  0  0  0  0  0  0  0  0
   36.2970   31.1910   34.1880 C   0  0  0  0  0  0  0  0  0  0  0  0
   36.1910   32.1390   34.7150 H   0  0  0  0  0  0  0  0  0  0  0  0
   36.6900   31.1590   32.8460 C   0  0  0  0  0  0  0  0  0  0  0  0
   36.9150   32.0170   32.2300 H   0  0  0  0  0  0  0  0  0  0  0  0
   36.7040   29.7920   32.5590 C   0  0  0  0  0  0  0  0  0  0  0  0
   36.9750   29.4410   31.5730 H   0  0  0  0  0  0  0  0  0  0  0  0
   36.3570   29.1120   33.6230 O   0  0  0  0  0  0  0  0  0  0  0  0
  1  9  1  0  0  0  0
  1  2  1  0  0  0  0
  2  7  1  0  0  0  0
  3  2  2  0  0  0  0
  3  8  1  0  0  0  0
  4  3  1  0  0  0  0
  5  6  1  0  0  0  0
  5  4  2  0  0  0  0
  6  1  2  0  0  0  0
  9 15  1  1  0  0  0
 10 11  1  0  0  0  0
 10 16  1  0  0  0  0
 10  9  1  0  0  0  0
 11 19  1  0  0  0  0
 12 11  1  0  0  0  0
 12 13  1  0  0  0  0
 12 21  1  0  0  0  0
 13 22  1  0  0  0  0
 14 24  1  1  0  0  0
 14 13  1  0  0  0  0
 14  9  1  0  0  0  0
 17 10  1  0  0  0  0
 18 11  1  0  0  0  0
 20 12  1  0  0  0  0
 23 13  1  0  0  0  0
 25 14  1  0  0  0  0
 26 25  1  0  0  0  0
 27 26  2  0  0  0  0
 28 26  1  0  0  0  0
 29 25  1  0  0  0  0
 30 28  1  0  0  0  0
 31 28  1  0  0  0  0
 32 33  1  0  0  0  0
 32  5  1  0  0  0  0
 33 38  1  0  0  0  0
 34 39  1  0  0  0  0
 34 33  2  0  0  0  0
 35 34  1  0  0  0  0
 36 35  2  0  0  0  0
 36 37  1  0  0  0  0
 37 32  2  0  0  0  0
 40 35  1  0  0  0  0
 41 36  1  0  0  0  0
 42 41  2  0  0  0  0
 42 43  1  0  0  0  0
 44 42  1  0  0  0  0
 45 44  1  0  0  0  0
 46 44  2  0  0  0  0
 46 48  1  0  0  0  0
 47 46  1  0  0  0  0
 48 41  1  0  0  0  0
M  END
>  <minimizedAffinity>
-6.65249348

$$$$

 OpenBabel03252507343D

 48 51  0  0  1  0  0  0  0  0999 V2000
   38.1220   27.7250   39.0410 C   0  0  0  0  0  0  0  0  0  0  0  0
   38.0790   27.4400   37.6800 C   0  0  0  0  0  0  0  0  0  0  0  0
   38.1380   28.5010   36.7480 C   0  0  0  0  0  0  0  0  0  0  0  0
   38.2340   29.7880   37.2730 N   0  0  0  0  0  0  0  0  0  0  0  0
   38.2690   29.9890   38.5930 C   0  0  0  0  0  0  0  0  0  0  0  0
   38.2150   28.9800   39.4610 N   0  0  0  0  0  0  0  0  0  0  0  0
   37.9740   26.5660   37.0750 H   0  0  0  0  0  0  0  0  0  0  0  0
   38.1200   28.4790   35.6900 H   0  0  0  0  0  0  0  0  0  0  0  0
   38.0830   26.6040   39.9590 C   0  0  2  0  0  0  0  0  0  0  0  0
   36.6860   25.9140   39.9540 C   0  0  0  0  0  0  0  0  0  0  0  0
   36.7310   24.6860   40.7930 C   0  0  0  0  0  0  0  0  0  0  0  0
   37.4460   24.8020   42.0960 C   0  0  0  0  0  0  0  0  0  0  0  0
   38.6110   25.6500   42.0700 C   0  0  0  0  0  0  0  0  0  0  0  0
   38.3970   26.9840   41.3210 C   0  0  2  0  0  0  0  0  0  0  0  0
   38.7490   25.8130   39.5630 H   0  0  0  0  0  0  0  0  0  0  0  0
   36.5230   25.6560   38.8870 H   0  0  0  0  0  0  0  0  0  0  0  0
   35.8870   26.5950   40.2220 H   0  0  0  0  0  0  0  0  0  0  0  0
   35.6580   24.4400   41.0540 H   0  0  0  0  0  0  0  0  0  0  0  0
   37.0300   23.8560   40.1260 H   0  0  0  0  0  0  0  0  0  0  0  0
   36.8870   24.5920   43.0110 H   0  0  0  0  0  0  0  0  0  0  0  0
   37.9720   23.7660   42.1070 H   0  0  0  0  0  0  0  0  0  0  0  0
   39.5590   25.2480   41.6290 H   0  0  0  0  0  0  0  0  0  0  0  0
   38.9160   25.9250   43.1230 H   0  0  0  0  0  0  0  0  0  0  0  0
   39.3590   27.4710   41.4840 H   0  0  0  0  0  0  0  0  0  0  0  0
   37.2590   27.6800   41.9240 N   0  0  0  0  0  0  0  0  0  0  0  0
   37.1870   28.8270   42.7340 C   0  0  0  0  0  0  0  0  0  0  0  0
   37.3020   30.0170   42.2680 O   0  0  0  0  0  0  0  0  0  0  0  0
   36.9680   28.5670   44.1210 N   0  0  0  0  0  0  0  0  0  0  0  0
   36.2440   27.2910   41.8470 H   0  0  0  0  0  0  0  0  0  0  0  0
   36.2410   27.9980   44.5830 H   0  0  0  0  0  0  0  0  0  0  0  0
   37.5610   28.9480   44.9060 H   0  0  0  0  0  0  0  0  0  0  0  0
   38.3510   31.3710   39.0800 C   0  0  0  0  0  0  0  0  0  0  0  0
   37.2520   32.2000   39.0540 C   0  0  0  0  0  0  0  0  0  0  0  0
   37.2290   33.5010   39.4840 C   0  0  0  0  0  0  0  0  0  0  0  0
   38.4320   33.9520   39.9670 C   0  0  0  0  0  0  0  0  0  0  0  0
   39.5620   33.1450   40.0080 C   0  0  0  0  0  0  0  0  0  0  0  0
   39.5110   31.8470   39.5590 N   0  0  0  0  0  0  0  0  0  0  0  0
   36.3250   31.7630   38.6520 H   0  0  0  0  0  0  0  0  0  0  0  0
   36.3530   34.1320   39.4530 H   0  0  0  0  0  0  0  0  0  0  0  0
   38.5390   34.9670   40.3370 H   0  0  0  0  0  0  0  0  0  0  0  0
   40.8350   33.6370   40.5240 C   0  0  0  0  0  0  0  0  0  0  0  0
   41.8920   32.8180   40.8840 C   0  0  0  0  0  0  0  0  0  0  0  0
   41.9750   31.7320   40.8560 H   0  0  0  0  0  0  0  0  0  0  0  0
   42.9560   33.6050   41.3350 C   0  0  0  0  0  0  0  0  0  0  0  0
   43.9130   33.2400   41.6830 H   0  0  0  0  0  0  0  0  0  0  0  0
   42.4570   34.9040   41.2150 C   0  0  0  0  0  0  0  0  0  0  0  0
   43.0640   35.7530   41.4950 H   0  0  0  0  0  0  0  0  0  0  0  0
   41.2350   34.8660   40.7440 O   0  0  0  0  0  0  0  0  0  0  0  0
  1  6  1  0  0  0  0
  1  9  1  0  0  0  0
  2  1  2  0  0  0  0
  3  4  2  0  0  0  0
  3  2  1  0  0  0  0
  4  5  1  0  0  0  0
  5 32  1  0  0  0  0
  5  6  2  0  0  0  0
  7  2  1  0  0  0  0
  8  3  1  0  0  0  0
  9 15  1  6  0  0  0
  9 14  1  0  0  0  0
 10  9  1  0  0  0  0
 10 17  1  0  0  0  0
 10 11  1  0  0  0  0
 11 18  1  0  0  0  0
 11 12  1  0  0  0  0
 12 21  1  0  0  0  0
 12 20  1  0  0  0  0
 13 12  1  0  0  0  0
 13 23  1  0  0  0  0
 14 24  1  1  0  0  0
 14 25  1  0  0  0  0
 14 13  1  0  0  0  0
 16 10  1  0  0  0  0
 19 11  1  0  0  0  0
 22 13  1  0  0  0  0
 25 26  1  0  0  0  0
 26 28  1  0  0  0  0
 27 26  2  0  0  0  0
 28 30  1  0  0  0  0
 28 31  1  0  0  0  0
 29 25  1  0  0  0  0
 32 37  1  0  0  0  0
 33 32  2  0  0  0  0
 33 34  1  0  0  0  0
 34 35  2  0  0  0  0
 35 36  1  0  0  0  0
 35 40  1  0  0  0  0
 36 41  1  0  0  0  0
 37 36  2  0  0  0  0
 38 33  1  0  0  0  0
 39 34  1  0  0  0  0
 41 48  1  0  0  0  0
 41 42  2  0  0  0  0
 42 44  1  0  0  0  0
 43 42  1  0  0  0  0
 44 45  1  0  0  0  0
 46 44  2  0  0  0  0
 46 47  1  0  0  0  0
 48 46  1  0  0  0  0
M  END
>  <minimizedAffinity>
-6.51804543

$$$$

 OpenBabel03252507343D

 48 51  0  0  1  0  0  0  0  0999 V2000
   40.7720   31.6670   41.0830 C   0  0  0  0  0  0  0  0  0  0  0  0
   41.9310   32.3960   41.3310 C   0  0  0  0  0  0  0  0  0  0  0  0
   42.9550   31.8220   42.1200 C   0  0  0  0  0  0  0  0  0  0  0  0
   42.7210   30.5380   42.6060 N   0  0  0  0  0  0  0  0  0  0  0  0
   41.5820   29.8960   42.3300 C   0  0  0  0  0  0  0  0  0  0  0  0
   40.6260   30.4460   41.5830 N   0  0  0  0  0  0  0  0  0  0  0  0
   42.2950   33.3720   41.1000 H   0  0  0  0  0  0  0  0  0  0  0  0
   43.8920   32.2170   42.4100 H   0  0  0  0  0  0  0  0  0  0  0  0
   39.7610   32.2870   40.2500 C   0  0  2  0  0  0  0  0  0  0  0  0
   39.1400   33.5360   40.9430 C   0  0  0  0  0  0  0  0  0  0  0  0
   38.2170   34.2250   40.0010 C   0  0  0  0  0  0  0  0  0  0  0  0
   37.3120   33.3490   39.2040 C   0  0  0  0  0  0  0  0  0  0  0  0
   37.8940   32.0980   38.7910 C   0  0  0  0  0  0  0  0  0  0  0  0
   38.6860   31.3780   39.9050 C   0  0  2  0  0  0  0  0  0  0  0  0
   40.2640   32.7210   39.3650 H   0  0  0  0  0  0  0  0  0  0  0  0
   40.0180   34.1740   41.1710 H   0  0  0  0  0  0  0  0  0  0  0  0
   38.6870   33.2970   41.8990 H   0  0  0  0  0  0  0  0  0  0  0  0
   37.5380   34.8690   40.6360 H   0  0  0  0  0  0  0  0  0  0  0  0
   38.8240   34.9630   39.4440 H   0  0  0  0  0  0  0  0  0  0  0  0
   36.2340   33.4950   39.3040 H   0  0  0  0  0  0  0  0  0  0  0  0
   37.3560   33.9170   38.1910 H   0  0  0  0  0  0  0  0  0  0  0  0
   38.6010   32.0940   37.9210 H   0  0  0  0  0  0  0  0  0  0  0  0
   37.0860   31.3800   38.4640 H   0  0  0  0  0  0  0  0  0  0  0  0
   38.9690   30.4550   39.3970 H   0  0  0  0  0  0  0  0  0  0  0  0
   37.8010   31.1860   41.0550 N   0  0  0  0  0  0  0  0  0  0  0  0
   36.8360   30.2020   41.3390 C   0  0  0  0  0  0  0  0  0  0  0  0
   37.1420   29.0220   41.7380 O   0  0  0  0  0  0  0  0  0  0  0  0
   35.4840   30.6210   41.1540 N   0  0  0  0  0  0  0  0  0  0  0  0
   37.7540   31.9090   41.8690 H   0  0  0  0  0  0  0  0  0  0  0  0
   34.9870   31.4460   41.5280 H   0  0  0  0  0  0  0  0  0  0  0  0
   34.7690   30.1070   40.5740 H   0  0  0  0  0  0  0  0  0  0  0  0
   41.3930   28.5530   42.8900 C   0  0  0  0  0  0  0  0  0  0  0  0
   42.2630   28.0450   43.8270 C   0  0  0  0  0  0  0  0  0  0  0  0
   42.1710   26.8050   44.4070 C   0  0  0  0  0  0  0  0  0  0  0  0
   41.1000   26.0640   43.9730 C   0  0  0  0  0  0  0  0  0  0  0  0
   40.2020   26.5440   43.0290 C   0  0  0  0  0  0  0  0  0  0  0  0
   40.3570   27.7980   42.4900 N   0  0  0  0  0  0  0  0  0  0  0  0
   43.0950   28.7010   44.1220 H   0  0  0  0  0  0  0  0  0  0  0  0
   42.8680   26.4290   45.1410 H   0  0  0  0  0  0  0  0  0  0  0  0
   40.9210   25.0650   44.3600 H   0  0  0  0  0  0  0  0  0  0  0  0
   39.0690   25.7440   42.5760 C   0  0  0  0  0  0  0  0  0  0  0  0
   39.1900   24.5010   41.9770 C   0  0  0  0  0  0  0  0  0  0  0  0
   40.0840   23.9230   41.7440 H   0  0  0  0  0  0  0  0  0  0  0  0
   37.9190   24.0080   41.6670 C   0  0  0  0  0  0  0  0  0  0  0  0
   37.7030   23.0610   41.1930 H   0  0  0  0  0  0  0  0  0  0  0  0
   37.0730   25.0250   42.1170 C   0  0  0  0  0  0  0  0  0  0  0  0
   36.0010   24.9320   42.0130 H   0  0  0  0  0  0  0  0  0  0  0  0
   37.7840   25.9970   42.6310 O   0  0  0  0  0  0  0  0  0  0  0  0
  1  2  2  0  0  0  0
  1  6  1  0  0  0  0
  2  3  1  0  0  0  0
  3  8  1  0  0  0  0
  3  4  2  0  0  0  0
  5  4  1  0  0  0  0
  5 32  1  0  0  0  0
  6  5  2  0  0  0  0
  7  2  1  0  0  0  0
  9 15  1  6  0  0  0
  9 10  1  0  0  0  0
  9  1  1  0  0  0  0
 10 16  1  0  0  0  0
 10 17  1  0  0  0  0
 11 18  1  0  0  0  0
 11 10  1  0  0  0  0
 12 20  1  0  0  0  0
 12 11  1  0  0  0  0
 13 12  1  0  0  0  0
 13 14  1  0  0  0  0
 14 24  1  6  0  0  0
 14  9  1  0  0  0  0
 14 25  1  0  0  0  0
 19 11  1  0  0  0  0
 21 12  1  0  0  0  0
 22 13  1  0  0  0  0
 23 13  1  0  0  0  0
 25 26  1  0  0  0  0
 25 29  1  0  0  0  0
 26 27  2  0  0  0  0
 28 26  1  0  0  0  0
 28 30  1  0  0  0  0
 31 28  1  0  0  0  0
 32 33  1  0  0  0  0
 33 38  1  0  0  0  0
 33 34  2  0  0  0  0
 34 39  1  0  0  0  0
 35 40  1  0  0  0  0
 35 34  1  0  0  0  0
 36 35  2  0  0  0  0
 37 32  2  0  0  0  0
 37 36  1  0  0  0  0
 41 48  1  0  0  0  0
 41 36  1  0  0  0  0
 42 41  2  0  0  0  0
 43 42  1  0  0  0  0
 44 42  1  0  0  0  0
 44 46  2  0  0  0  0
 45 44  1  0  0  0  0
 46 48  1  0  0  0  0
 47 46  1  0  0  0  0
M  END
>  <minimizedAffinity>
-6.4713378

$$$$

 OpenBabel03252507343D

 48 51  0  0  1  0  0  0  0  0999 V2000
   37.3440   30.6240   39.3940 C   0  0  0  0  0  0  0  0  0  0  0  0
   36.7060   30.6780   38.1600 C   0  0  0  0  0  0  0  0  0  0  0  0
   36.0870   29.5150   37.6480 C   0  0  0  0  0  0  0  0  0  0  0  0
   36.1670   28.3690   38.4360 N   0  0  0  0  0  0  0  0  0  0  0  0
   36.7990   28.3870   39.6130 C   0  0  0  0  0  0  0  0  0  0  0  0
   37.3750   29.4910   40.0850 N   0  0  0  0  0  0  0  0  0  0  0  0
   36.5570   31.4100   37.3970 H   0  0  0  0  0  0  0  0  0  0  0  0
   35.5600   29.3660   36.7430 H   0  0  0  0  0  0  0  0  0  0  0  0
   37.9430   31.8480   39.8900 C   0  0  2  0  0  0  0  0  0  0  0  0
   37.2880   33.1040   39.2410 C   0  0  0  0  0  0  0  0  0  0  0  0
   37.8250   34.3350   39.8810 C   0  0  0  0  0  0  0  0  0  0  0  0
   39.2950   34.3650   40.1260 C   0  0  0  0  0  0  0  0  0  0  0  0
   39.8690   33.0980   40.5040 C   0  0  0  0  0  0  0  0  0  0  0  0
   39.3710   31.9080   39.6530 C   0  0  2  0  0  0  0  0  0  0  0  0
   37.6740   31.9540   40.9590 H   0  0  0  0  0  0  0  0  0  0  0  0
   36.2080   32.9830   39.4660 H   0  0  0  0  0  0  0  0  0  0  0  0
   37.3710   33.1030   38.1610 H   0  0  0  0  0  0  0  0  0  0  0  0
   37.6190   35.1830   39.1620 H   0  0  0  0  0  0  0  0  0  0  0  0
   37.1660   34.5610   40.7400 H   0  0  0  0  0  0  0  0  0  0  0  0
   39.8790   35.1630   39.6620 H   0  0  0  0  0  0  0  0  0  0  0  0
   39.2960   34.8850   41.1650 H   0  0  0  0  0  0  0  0  0  0  0  0
   39.7380   32.7410   41.5590 H   0  0  0  0  0  0  0  0  0  0  0  0
   40.9910   33.1260   40.3810 H   0  0  0  0  0  0  0  0  0  0  0  0
   39.9700   31.0930   40.0640 H   0  0  0  0  0  0  0  0  0  0  0  0
   39.6370   32.2000   38.2440 N   0  0  0  0  0  0  0  0  0  0  0  0
   40.8240   32.1740   37.4910 C   0  0  0  0  0  0  0  0  0  0  0  0
   41.3590   31.0860   37.0710 O   0  0  0  0  0  0  0  0  0  0  0  0
   41.3890   33.4570   37.2210 N   0  0  0  0  0  0  0  0  0  0  0  0
   38.8570   32.5710   37.5800 H   0  0  0  0  0  0  0  0  0  0  0  0
   40.9560   34.3000   36.8100 H   0  0  0  0  0  0  0  0  0  0  0  0
   42.3880   33.7280   37.4200 H   0  0  0  0  0  0  0  0  0  0  0  0
   36.8630   27.1400   40.3830 C   0  0  0  0  0  0  0  0  0  0  0  0
   37.2210   27.1440   41.7130 C   0  0  0  0  0  0  0  0  0  0  0  0
   37.3100   26.0340   42.5130 C   0  0  0  0  0  0  0  0  0  0  0  0
   37.0030   24.8580   41.8760 C   0  0  0  0  0  0  0  0  0  0  0  0
   36.6380   24.8160   40.5360 C   0  0  0  0  0  0  0  0  0  0  0  0
   36.5700   25.9710   39.7940 N   0  0  0  0  0  0  0  0  0  0  0  0
   37.4510   28.1260   42.1500 H   0  0  0  0  0  0  0  0  0  0  0  0
   37.5930   26.0630   43.5550 H   0  0  0  0  0  0  0  0  0  0  0  0
   37.0380   23.9110   42.4060 H   0  0  0  0  0  0  0  0  0  0  0  0
   36.3160   23.5580   39.8710 C   0  0  0  0  0  0  0  0  0  0  0  0
   35.0730   23.2620   39.3370 C   0  0  0  0  0  0  0  0  0  0  0  0
   34.1640   23.8630   39.3100 H   0  0  0  0  0  0  0  0  0  0  0  0
   35.1020   21.9820   38.7750 C   0  0  0  0  0  0  0  0  0  0  0  0
   34.2760   21.4850   38.2860 H   0  0  0  0  0  0  0  0  0  0  0  0
   36.4140   21.5660   39.0140 C   0  0  0  0  0  0  0  0  0  0  0  0
   36.7480   20.5910   38.6880 H   0  0  0  0  0  0  0  0  0  0  0  0
   37.0680   22.5080   39.6460 O   0  0  0  0  0  0  0  0  0  0  0  0
  1  9  1  0  0  0  0
  1  6  1  0  0  0  0
  2  1  2  0  0  0  0
  3  2  1  0  0  0  0
  3  4  2  0  0  0  0
  4  5  1  0  0  0  0
  5  6  2  0  0  0  0
  5 32  1  0  0  0  0
  7  2  1  0  0  0  0
  8  3  1  0  0  0  0
  9 15  1  1  0  0  0
 10 16  1  0  0  0  0
 10 11  1  0  0  0  0
 10  9  1  0  0  0  0
 11 12  1  0  0  0  0
 11 19  1  0  0  0  0
 12 13  1  0  0  0  0
 12 21  1  0  0  0  0
 13 22  1  0  0  0  0
 14  9  1  0  0  0  0
 14 24  1  1  0  0  0
 14 13  1  0  0  0  0
 17 10  1  0  0  0  0
 18 11  1  0  0  0  0
 20 12  1  0  0  0  0
 23 13  1  0  0  0  0
 25 14  1  0  0  0  0
 26 25  1  0  0  0  0
 27 26  2  0  0  0  0
 28 31  1  0  0  0  0
 28 26  1  0  0  0  0
 29 25  1  0  0  0  0
 30 28  1  0  0  0  0
 32 33  1  0  0  0  0
 33 38  1  0  0  0  0
 33 34  2  0  0  0  0
 34 39  1  0  0  0  0
 35 40  1  0  0  0  0
 35 34  1  0  0  0  0
 36 35  2  0  0  0  0
 37 32  2  0  0  0  0
 37 36  1  0  0  0  0
 41 36  1  0  0  0  0
 42 41  2  0  0  0  0
 43 42  1  0  0  0  0
 44 46  2  0  0  0  0
 44 42  1  0  0  0  0
 45 44  1  0  0  0  0
 46 48  1  0  0  0  0
 47 46  1  0  0  0  0
 48 41  1  0  0  0  0
M  END
>  <minimizedAffinity>
-6.43905449

$$$$

 OpenBabel03252507343D

 48 51  0  0  1  0  0  0  0  0999 V2000
   39.8250   30.6370   41.8560 C   0  0  0  0  0  0  0  0  0  0  0  0
   41.0510   31.0130   42.3950 C   0  0  0  0  0  0  0  0  0  0  0  0
   41.8950   30.0250   42.9520 C   0  0  0  0  0  0  0  0  0  0  0  0
   41.4230   28.7140   42.9240 N   0  0  0  0  0  0  0  0  0  0  0  0
   40.2330   28.4240   42.3910 C   0  0  0  0  0  0  0  0  0  0  0  0
   39.4480   29.3640   41.8670 N   0  0  0  0  0  0  0  0  0  0  0  0
   41.5800   31.9270   42.5520 H   0  0  0  0  0  0  0  0  0  0  0  0
   42.8490   30.1180   43.3990 H   0  0  0  0  0  0  0  0  0  0  0  0
   39.0040   31.6810   41.2740 C   0  0  2  0  0  0  0  0  0  0  0  0
   37.7170   31.0940   40.6220 C   0  0  0  0  0  0  0  0  0  0  0  0
   36.8350   32.2030   40.1690 C   0  0  0  0  0  0  0  0  0  0  0  0
   37.5060   33.3420   39.4810 C   0  0  0  0  0  0  0  0  0  0  0  0
   38.8070   33.6790   40.0030 C   0  0  0  0  0  0  0  0  0  0  0  0
   39.7090   32.4540   40.2720 C   0  0  2  0  0  0  0  0  0  0  0  0
   38.6020   32.3010   42.0990 H   0  0  0  0  0  0  0  0  0  0  0  0
   37.2400   30.5240   41.4460 H   0  0  0  0  0  0  0  0  0  0  0  0
   37.9390   30.3700   39.8470 H   0  0  0  0  0  0  0  0  0  0  0  0
   36.1310   31.7570   39.4050 H   0  0  0  0  0  0  0  0  0  0  0  0
   36.1700   32.4480   41.0180 H   0  0  0  0  0  0  0  0  0  0  0  0
   37.1980   33.5820   38.4610 H   0  0  0  0  0  0  0  0  0  0  0  0
   36.8920   34.2170   39.9380 H   0  0  0  0  0  0  0  0  0  0  0  0
   38.8690   34.2670   40.9550 H   0  0  0  0  0  0  0  0  0  0  0  0
   39.3660   34.3270   39.2670 H   0  0  0  0  0  0  0  0  0  0  0  0
   40.6320   32.9410   40.5890 H   0  0  0  0  0  0  0  0  0  0  0  0
   39.8280   31.6830   39.0330 N   0  0  0  0  0  0  0  0  0  0  0  0
   40.4970   31.9510   37.8250 C   0  0  0  0  0  0  0  0  0  0  0  0
   41.7670   31.8260   37.6890 O   0  0  0  0  0  0  0  0  0  0  0  0
   39.6510   32.3680   36.7540 N   0  0  0  0  0  0  0  0  0  0  0  0
   39.2930   30.7450   38.8900 H   0  0  0  0  0  0  0  0  0  0  0  0
   38.7980   31.9290   36.3720 H   0  0  0  0  0  0  0  0  0  0  0  0
   39.7970   33.2370   36.1750 H   0  0  0  0  0  0  0  0  0  0  0  0
   39.7890   27.0270   42.4110 C   0  0  0  0  0  0  0  0  0  0  0  0
   40.3090   26.1280   43.3160 C   0  0  0  0  0  0  0  0  0  0  0  0
   39.9600   24.8060   43.4120 C   0  0  0  0  0  0  0  0  0  0  0  0
   39.0090   24.4110   42.5040 C   0  0  0  0  0  0  0  0  0  0  0  0
   38.4610   25.2890   41.5770 C   0  0  0  0  0  0  0  0  0  0  0  0
   38.8610   26.6040   41.5390 N   0  0  0  0  0  0  0  0  0  0  0  0
   41.0660   26.5230   44.0090 H   0  0  0  0  0  0  0  0  0  0  0  0
   40.3830   24.1210   44.1310 H   0  0  0  0  0  0  0  0  0  0  0  0
   38.6510   23.3860   42.4820 H   0  0  0  0  0  0  0  0  0  0  0  0
   37.4520   24.8550   40.6170 C   0  0  0  0  0  0  0  0  0  0  0  0
   36.4750   23.9130   40.8950 C   0  0  0  0  0  0  0  0  0  0  0  0
   36.2840   23.3560   41.8110 H   0  0  0  0  0  0  0  0  0  0  0  0
   35.6730   23.7290   39.7640 C   0  0  0  0  0  0  0  0  0  0  0  0
   34.8320   23.0540   39.6860 H   0  0  0  0  0  0  0  0  0  0  0  0
   36.2380   24.6050   38.8350 C   0  0  0  0  0  0  0  0  0  0  0  0
   35.8260   24.6890   37.8400 H   0  0  0  0  0  0  0  0  0  0  0  0
   37.2550   25.2280   39.3760 O   0  0  0  0  0  0  0  0  0  0  0  0
  1  6  2  0  0  0  0
  1  2  1  0  0  0  0
  2  7  1  0  0  0  0
  2  3  2  0  0  0  0
  3  8  1  0  0  0  0
  4  3  1  0  0  0  0
  5 32  1  0  0  0  0
  5  4  2  0  0  0  0
  6  5  1  0  0  0  0
  9  1  1  0  0  0  0
  9 15  1  1  0  0  0
 10  9  1  0  0  0  0
 10 16  1  0  0  0  0
 11 10  1  0  0  0  0
 11 19  1  0  0  0  0
 12 21  1  0  0  0  0
 12 13  1  0  0  0  0
 12 11  1  0  0  0  0
 13 14  1  0  0  0  0
 13 22  1  0  0  0  0
 14 24  1  1  0  0  0
 14  9  1  0  0  0  0
 17 10  1  0  0  0  0
 18 11  1  0  0  0  0
 20 12  1  0  0  0  0
 23 13  1  0  0  0  0
 25 14  1  0  0  0  0
 26 25  1  0  0  0  0
 27 26  2  0  0  0  0
 28 26  1  0  0  0  0
 29 25  1  0  0  0  0
 30 28  1  0  0  0  0
 31 28  1  0  0  0  0
 32 33  1  0  0  0  0
 33 34  2  0  0  0  0
 33 38  1  0  0  0  0
 34 39  1  0  0  0  0
 35 34  1  0  0  0  0
 36 35  2  0  0  0  0
 37 36  1  0  0  0  0
 37 32  2  0  0  0  0
 40 35  1  0  0  0  0
 41 42  2  0  0  0  0
 41 36  1  0  0  0  0
 42 43  1  0  0  0  0
 44 42  1  0  0  0  0
 45 44  1  0  0  0  0
 46 48  1  0  0  0  0
 46 44  2  0  0  0  0
 47 46  1  0  0  0  0
 48 41  1  0  0  0  0
M  END
>  <minimizedAffinity>
-6.34605789

$$$$

 OpenBabel03252507343D

 48 51  0  0  1  0  0  0  0  0999 V2000
   40.9310   34.0950   40.1030 C   0  0  0  0  0  0  0  0  0  0  0  0
   40.2230   35.2800   39.9310 C   0  0  0  0  0  0  0  0  0  0  0  0
   38.8240   35.2860   40.1320 C   0  0  0  0  0  0  0  0  0  0  0  0
   38.2410   34.0730   40.4930 N   0  0  0  0  0  0  0  0  0  0  0  0
   38.9830   32.9710   40.6400 C   0  0  0  0  0  0  0  0  0  0  0  0
   40.3010   32.9800   40.4500 N   0  0  0  0  0  0  0  0  0  0  0  0
   40.4480   36.2800   39.6330 H   0  0  0  0  0  0  0  0  0  0  0  0
   38.1280   36.0780   40.0510 H   0  0  0  0  0  0  0  0  0  0  0  0
   42.3670   34.1430   39.9100 C   0  0  2  0  0  0  0  0  0  0  0  0
   42.8210   33.1700   38.7810 C   0  0  0  0  0  0  0  0  0  0  0  0
   44.2730   33.3550   38.5140 C   0  0  0  0  0  0  0  0  0  0  0  0
   45.1520   33.4930   39.7090 C   0  0  0  0  0  0  0  0  0  0  0  0
   44.5660   34.2180   40.8080 C   0  0  0  0  0  0  0  0  0  0  0  0
   43.1060   33.8170   41.1130 C   0  0  2  0  0  0  0  0  0  0  0  0
   42.6250   35.1370   39.4960 H   0  0  0  0  0  0  0  0  0  0  0  0
   42.2170   33.4830   37.9040 H   0  0  0  0  0  0  0  0  0  0  0  0
   42.5440   32.1420   38.9840 H   0  0  0  0  0  0  0  0  0  0  0  0
   44.6210   32.4180   37.9850 H   0  0  0  0  0  0  0  0  0  0  0  0
   44.3560   34.1350   37.7340 H   0  0  0  0  0  0  0  0  0  0  0  0
   45.9580   32.7670   39.8430 H   0  0  0  0  0  0  0  0  0  0  0  0
   45.8740   34.3120   39.3110 H   0  0  0  0  0  0  0  0  0  0  0  0
   44.5270   35.3370   40.7550 H   0  0  0  0  0  0  0  0  0  0  0  0
   45.1500   34.0280   41.7560 H   0  0  0  0  0  0  0  0  0  0  0  0
   42.9010   34.4290   41.9930 H   0  0  0  0  0  0  0  0  0  0  0  0
   43.0590   32.3750   41.3570 N   0  0  0  0  0  0  0  0  0  0  0  0
   42.9740   31.6300   42.5480 C   0  0  0  0  0  0  0  0  0  0  0  0
   41.8810   31.4880   43.2040 O   0  0  0  0  0  0  0  0  0  0  0  0
   44.2020   31.0350   42.9690 N   0  0  0  0  0  0  0  0  0  0  0  0
   43.1630   31.6540   40.5470 H   0  0  0  0  0  0  0  0  0  0  0  0
   44.8610   30.4340   42.4490 H   0  0  0  0  0  0  0  0  0  0  0  0
   44.6220   31.1400   43.9310 H   0  0  0  0  0  0  0  0  0  0  0  0
   38.3030   31.7240   41.0020 C   0  0  0  0  0  0  0  0  0  0  0  0
   36.9790   31.5160   40.6830 C   0  0  0  0  0  0  0  0  0  0  0  0
   36.2590   30.3880   40.9790 C   0  0  0  0  0  0  0  0  0  0  0  0
   36.9750   29.4270   41.6480 C   0  0  0  0  0  0  0  0  0  0  0  0
   38.3100   29.6010   41.9870 C   0  0  0  0  0  0  0  0  0  0  0  0
   38.9700   30.7610   41.6570 N   0  0  0  0  0  0  0  0  0  0  0  0
   36.4770   32.3350   40.1470 H   0  0  0  0  0  0  0  0  0  0  0  0
   35.2200   30.2490   40.7160 H   0  0  0  0  0  0  0  0  0  0  0  0
   36.5120   28.4880   41.9370 H   0  0  0  0  0  0  0  0  0  0  0  0
   39.0580   28.5700   42.6990 C   0  0  0  0  0  0  0  0  0  0  0  0
   38.4680   27.5270   43.3920 C   0  0  0  0  0  0  0  0  0  0  0  0
   37.4140   27.2880   43.5310 H   0  0  0  0  0  0  0  0  0  0  0  0
   39.4630   26.7220   43.9570 C   0  0  0  0  0  0  0  0  0  0  0  0
   39.3010   25.8350   44.5530 H   0  0  0  0  0  0  0  0  0  0  0  0
   40.6410   27.3560   43.5540 C   0  0  0  0  0  0  0  0  0  0  0  0
   41.6040   26.9580   43.8430 H   0  0  0  0  0  0  0  0  0  0  0  0
   40.3520   28.4110   42.8340 O   0  0  0  0  0  0  0  0  0  0  0  0
  1  6  1  0  0  0  0
  2  1  2  0  0  0  0
  2  3  1  0  0  0  0
  3  4  2  0  0  0  0
  4  5  1  0  0  0  0
  5 32  1  0  0  0  0
  6  5  2  0  0  0  0
  7  2  1  0  0  0  0
  8  3  1  0  0  0  0
  9 15  1  6  0  0  0
  9  1  1  0  0  0  0
  9 14  1  0  0  0  0
 10 17  1  0  0  0  0
 10  9  1  0  0  0  0
 11 10  1  0  0  0  0
 11 12  1  0  0  0  0
 12 20  1  0  0  0  0
 12 13  1  0  0  0  0
 13 14  1  0  0  0  0
 13 23  1  0  0  0  0
 14 25  1  0  0  0  0
 14 24  1  1  0  0  0
 16 10  1  0  0  0  0
 18 11  1  0  0  0  0
 19 11  1  0  0  0  0
 21 12  1  0  0  0  0
 22 13  1  0  0  0  0
 25 26  1  0  0  0  0
 26 28  1  0  0  0  0
 26 27  2  0  0  0  0
 28 31  1  0  0  0  0
 29 25  1  0  0  0  0
 30 28  1  0  0  0  0
 32 37  1  0  0  0  0
 33 34  1  0  0  0  0
 33 32  2  0  0  0  0
 34 35  2  0  0  0  0
 35 40  1  0  0  0  0
 35 36  1  0  0  0  0
 36 41  1  0  0  0  0
 37 36  2  0  0  0  0
 38 33  1  0  0  0  0
 39 34  1  0  0  0  0
 41 48  1  0  0  0  0
 41 42  2  0  0  0  0
 42 43  1  0  0  0  0
 42 44  1  0  0  0  0
 44 45  1  0  0  0  0
 46 47  1  0  0  0  0
 46 44  2  0  0  0  0
 48 46  1  0  0  0  0
M  END
>  <minimizedAffinity>
-6.28866148

$$$$
