
 OpenBabel03252500003D

 20 21  0  0  0  0  0  0  0  0999 V2000
   35.4780   29.2180   39.8750 C   0  0  0  0  0  0  0  0  0  0  0  0
   36.1220   30.4560   39.7300 C   0  0  0  0  0  0  0  0  0  0  0  0
   37.1060   30.7830   40.6700 C   0  0  0  0  0  0  0  0  0  0  0  0
   37.3870   29.9000   41.6640 N   0  0  0  0  0  0  0  0  0  0  0  0
   36.7380   28.7140   41.7650 C   0  0  0  0  0  0  0  0  0  0  0  0
   35.7820   28.3790   40.8640 N   0  0  0  0  0  0  0  0  0  0  0  0
   34.7200   28.9340   39.1740 H   0  0  0  0  0  0  0  0  0  0  0  0
   35.8870   31.1460   38.9340 H   0  0  0  0  0  0  0  0  0  0  0  0
   37.8400   32.0450   40.6140 C   0  0  0  0  0  0  0  0  0  0  0  0
   37.4150   33.1340   39.8670 C   0  0  0  0  0  0  0  0  0  0  0  0
   36.5440   33.2540   39.2410 H   0  0  0  0  0  0  0  0  0  0  0  0
   38.3500   34.1610   40.0430 C   0  0  0  0  0  0  0  0  0  0  0  0
   38.3010   35.1430   39.5900 H   0  0  0  0  0  0  0  0  0  0  0  0
   39.2870   33.6320   40.8880 C   0  0  0  0  0  0  0  0  0  0  0  0
   40.1760   34.1450   41.2530 H   0  0  0  0  0  0  0  0  0  0  0  0
   38.9590   32.4010   41.1980 O   0  0  0  0  0  0  0  0  0  0  0  0
   37.1890   27.8880   42.9220 C   0  0  0  0  0  0  0  0  0  0  0  0
   38.1240   28.5350   43.6750 F   0  0  0  0  0  0  0  0  0  0  0  0
   37.7180   26.6830   42.4580 F   0  0  0  0  0  0  0  0  0  0  0  0
   36.0830   27.5310   43.6800 F   0  0  0  0  0  0  0  0  0  0  0  0
  1  6  1  0  0  0  0
  2  1  2  0  0  0  0
  2  3  1  0  0  0  0
  3  4  2  0  0  0  0
  4  5  1  0  0  0  0
  5 17  1  0  0  0  0
  6  5  2  0  0  0  0
  7  1  1  0  0  0  0
  8  2  1  0  0  0  0
  9  3  1  0  0  0  0
  9 16  1  0  0  0  0
 10 12  1  0  0  0  0
 10  9  2  0  0  0  0
 11 10  1  0  0  0  0
 12 14  2  0  0  0  0
 13 12  1  0  0  0  0
 14 16  1  0  0  0  0
 14 15  1  0  0  0  0
 17 18  1  0  0  0  0
 17 20  1  0  0  0  0
 19 17  1  0  0  0  0
M  END
>  <minimizedAffinity>
-4.78163671

$$$$

 OpenBabel03252500003D

 20 21  0  0  0  0  0  0  0  0999 V2000
   40.0410   29.0290   42.8590 C   0  0  0  0  0  0  0  0  0  0  0  0
   39.9220   30.2700   42.2160 C   0  0  0  0  0  0  0  0  0  0  0  0
   38.6770   30.5900   41.6600 C   0  0  0  0  0  0  0  0  0  0  0  0
   37.6590   29.6980   41.7690 N   0  0  0  0  0  0  0  0  0  0  0  0
   37.8200   28.5090   42.4000 C   0  0  0  0  0  0  0  0  0  0  0  0
   39.0170   28.1800   42.9440 N   0  0  0  0  0  0  0  0  0  0  0  0
   40.9780   28.7500   43.2950 H   0  0  0  0  0  0  0  0  0  0  0  0
   40.7410   30.9680   42.1380 H   0  0  0  0  0  0  0  0  0  0  0  0
   38.4420   31.8550   40.9690 C   0  0  0  0  0  0  0  0  0  0  0  0
   37.3870   32.0490   40.0880 C   0  0  0  0  0  0  0  0  0  0  0  0
   36.6090   31.3720   39.7700 H   0  0  0  0  0  0  0  0  0  0  0  0
   37.4660   33.3650   39.6140 C   0  0  0  0  0  0  0  0  0  0  0  0
   36.7850   33.8220   38.9090 H   0  0  0  0  0  0  0  0  0  0  0  0
   38.5650   33.8890   40.2380 C   0  0  0  0  0  0  0  0  0  0  0  0
   38.9430   34.9030   40.1130 H   0  0  0  0  0  0  0  0  0  0  0  0
   39.1070   32.9840   41.0170 O   0  0  0  0  0  0  0  0  0  0  0  0
   36.5850   27.6710   42.4120 C   0  0  0  0  0  0  0  0  0  0  0  0
   36.1350   27.4490   43.6800 F   0  0  0  0  0  0  0  0  0  0  0  0
   36.8430   26.4500   41.7880 F   0  0  0  0  0  0  0  0  0  0  0  0
   35.6190   28.2830   41.6270 F   0  0  0  0  0  0  0  0  0  0  0  0
  1  6  1  0  0  0  0
  1  7  1  0  0  0  0
  2  1  2  0  0  0  0
  3  4  2  0  0  0  0
  3  2  1  0  0  0  0
  4  5  1  0  0  0  0
  5 17  1  0  0  0  0
  5  6  2  0  0  0  0
  8  2  1  0  0  0  0
  9 16  1  0  0  0  0
  9  3  1  0  0  0  0
 10  9  2  0  0  0  0
 11 10  1  0  0  0  0
 12 10  1  0  0  0  0
 12 14  2  0  0  0  0
 13 12  1  0  0  0  0
 14 16  1  0  0  0  0
 15 14  1  0  0  0  0
 17 18  1  0  0  0  0
 19 17  1  0  0  0  0
 20 17  1  0  0  0  0
M  END
>  <minimizedAffinity>
-4.7477293

$$$$

 OpenBabel03252500003D

 20 21  0  0  0  0  0  0  0  0999 V2000
   36.4540   27.8700   39.3190 C   0  0  0  0  0  0  0  0  0  0  0  0
   36.8170   29.2210   39.2050 C   0  0  0  0  0  0  0  0  0  0  0  0
   37.2780   29.8620   40.3610 C   0  0  0  0  0  0  0  0  0  0  0  0
   37.3510   29.1580   41.5200 N   0  0  0  0  0  0  0  0  0  0  0  0
   36.9880   27.8530   41.5830 C   0  0  0  0  0  0  0  0  0  0  0  0
   36.5400   27.2140   40.4750 N   0  0  0  0  0  0  0  0  0  0  0  0
   36.0970   27.3470   38.4550 H   0  0  0  0  0  0  0  0  0  0  0  0
   36.7530   29.7660   38.2760 H   0  0  0  0  0  0  0  0  0  0  0  0
   37.6830   31.2660   40.3570 C   0  0  0  0  0  0  0  0  0  0  0  0
   37.0930   32.2200   39.5410 C   0  0  0  0  0  0  0  0  0  0  0  0
   36.2960   32.1260   38.8190 H   0  0  0  0  0  0  0  0  0  0  0  0
   37.7220   33.4450   39.7960 C   0  0  0  0  0  0  0  0  0  0  0  0
   37.4870   34.3860   39.3170 H   0  0  0  0  0  0  0  0  0  0  0  0
   38.6570   33.1580   40.7540 C   0  0  0  0  0  0  0  0  0  0  0  0
   39.3460   33.8720   41.2030 H   0  0  0  0  0  0  0  0  0  0  0  0
   38.6060   31.8830   41.0550 O   0  0  0  0  0  0  0  0  0  0  0  0
   37.1410   27.2590   42.9430 C   0  0  0  0  0  0  0  0  0  0  0  0
   37.5090   25.9470   42.8870 F   0  0  0  0  0  0  0  0  0  0  0  0
   35.9380   27.3760   43.6410 F   0  0  0  0  0  0  0  0  0  0  0  0
   38.0540   28.0140   43.6640 F   0  0  0  0  0  0  0  0  0  0  0  0
  1  6  1  0  0  0  0
  2  1  2  0  0  0  0
  2  3  1  0  0  0  0
  3  4  2  0  0  0  0
  4  5  1  0  0  0  0
  5 17  1  0  0  0  0
  6  5  2  0  0  0  0
  7  1  1  0  0  0  0
  8  2  1  0  0  0  0
  9  3  1  0  0  0  0
  9 16  1  0  0  0  0
 10 12  1  0  0  0  0
 10  9  2  0  0  0  0
 11 10  1  0  0  0  0
 12 14  2  0  0  0  0
 13 12  1  0  0  0  0
 14 16  1  0  0  0  0
 14 15  1  0  0  0  0
 17 19  1  0  0  0  0
 17 20  1  0  0  0  0
 18 17  1  0  0  0  0
M  END
>  <minimizedAffinity>
-4.5513134

$$$$

 OpenBabel03252500003D

 20 21  0  0  0  0  0  0  0  0999 V2000
   36.5650   27.7320   39.3080 C   0  0  0  0  0  0  0  0  0  0  0  0
   36.8910   29.0910   39.1720 C   0  0  0  0  0  0  0  0  0  0  0  0
   37.2520   29.7840   40.3330 C   0  0  0  0  0  0  0  0  0  0  0  0
   37.2710   29.1200   41.5180 N   0  0  0  0  0  0  0  0  0  0  0  0
   36.9480   27.8060   41.6010 C   0  0  0  0  0  0  0  0  0  0  0  0
   36.5950   27.1170   40.4890 N   0  0  0  0  0  0  0  0  0  0  0  0
   36.2830   27.1700   38.4410 H   0  0  0  0  0  0  0  0  0  0  0  0
   36.8710   29.6030   38.2230 H   0  0  0  0  0  0  0  0  0  0  0  0
   37.6110   31.2000   40.3080 C   0  0  0  0  0  0  0  0  0  0  0  0
   37.0050   32.1180   39.4630 C   0  0  0  0  0  0  0  0  0  0  0  0
   36.2240   31.9830   38.7290 H   0  0  0  0  0  0  0  0  0  0  0  0
   37.5890   33.3680   39.7040 C   0  0  0  0  0  0  0  0  0  0  0  0
   37.3310   34.2910   39.2020 H   0  0  0  0  0  0  0  0  0  0  0  0
   38.5150   33.1310   40.6830 C   0  0  0  0  0  0  0  0  0  0  0  0
   39.1720   33.8770   41.1300 H   0  0  0  0  0  0  0  0  0  0  0  0
   38.5010   31.8610   41.0090 O   0  0  0  0  0  0  0  0  0  0  0  0
   37.0290   27.2610   42.9890 C   0  0  0  0  0  0  0  0  0  0  0  0
   35.8570   27.4250   43.6670 F   0  0  0  0  0  0  0  0  0  0  0  0
   38.0610   27.8970   43.6800 F   0  0  0  0  0  0  0  0  0  0  0  0
   37.4000   25.9260   42.9270 F   0  0  0  0  0  0  0  0  0  0  0  0
  1  6  1  0  0  0  0
  2  1  2  0  0  0  0
  2  3  1  0  0  0  0
  3  4  2  0  0  0  0
  4  5  1  0  0  0  0
  5 17  1  0  0  0  0
  6  5  2  0  0  0  0
  7  1  1  0  0  0  0
  8  2  1  0  0  0  0
  9  3  1  0  0  0  0
  9 16  1  0  0  0  0
 10 12  1  0  0  0  0
 10  9  2  0  0  0  0
 11 10  1  0  0  0  0
 12 14  2  0  0  0  0
 13 12  1  0  0  0  0
 14 16  1  0  0  0  0
 14 15  1  0  0  0  0
 17 18  1  0  0  0  0
 17 19  1  0  0  0  0
 20 17  1  0  0  0  0
M  END
>  <minimizedAffinity>
-4.54960585

$$$$

 OpenBabel03252500003D

 20 21  0  0  0  0  0  0  0  0999 V2000
   38.0610   28.3410   43.3920 C   0  0  0  0  0  0  0  0  0  0  0  0
   38.1070   26.9990   42.9850 C   0  0  0  0  0  0  0  0  0  0  0  0
   37.4050   26.6550   41.8240 C   0  0  0  0  0  0  0  0  0  0  0  0
   36.7210   27.6210   41.1570 N   0  0  0  0  0  0  0  0  0  0  0  0
   36.7050   28.9060   41.5890 C   0  0  0  0  0  0  0  0  0  0  0  0
   37.3790   29.2590   42.7100 N   0  0  0  0  0  0  0  0  0  0  0  0
   38.5870   28.6410   44.2760 H   0  0  0  0  0  0  0  0  0  0  0  0
   38.6550   26.2430   43.5260 H   0  0  0  0  0  0  0  0  0  0  0  0
   37.3850   25.2880   41.3090 C   0  0  0  0  0  0  0  0  0  0  0  0
   36.6120   24.9010   40.2230 C   0  0  0  0  0  0  0  0  0  0  0  0
   35.9400   25.4750   39.6040 H   0  0  0  0  0  0  0  0  0  0  0  0
   36.8360   23.5350   40.0080 C   0  0  0  0  0  0  0  0  0  0  0  0
   36.3770   22.9370   39.2320 H   0  0  0  0  0  0  0  0  0  0  0  0
   37.7320   23.1770   40.9780 C   0  0  0  0  0  0  0  0  0  0  0  0
   38.1430   22.1790   41.1250 H   0  0  0  0  0  0  0  0  0  0  0  0
   38.0280   24.2200   41.7150 O   0  0  0  0  0  0  0  0  0  0  0  0
   35.8990   29.8130   40.7200 C   0  0  0  0  0  0  0  0  0  0  0  0
   34.6440   29.3260   40.5030 F   0  0  0  0  0  0  0  0  0  0  0  0
   36.5490   29.9890   39.4980 F   0  0  0  0  0  0  0  0  0  0  0  0
   35.8630   31.0750   41.2970 F   0  0  0  0  0  0  0  0  0  0  0  0
  1  7  1  0  0  0  0
  2  1  1  0  0  0  0
  2  8  1  0  0  0  0
  3  2  2  0  0  0  0
  4  5  2  0  0  0  0
  4  3  1  0  0  0  0
  5  6  1  0  0  0  0
  6  1  2  0  0  0  0
  9 16  1  0  0  0  0
  9  3  1  0  0  0  0
 10  9  2  0  0  0  0
 11 10  1  0  0  0  0
 12 10  1  0  0  0  0
 12 14  2  0  0  0  0
 13 12  1  0  0  0  0
 14 15  1  0  0  0  0
 14 16  1  0  0  0  0
 17 20  1  0  0  0  0
 17  5  1  0  0  0  0
 18 17  1  0  0  0  0
 19 17  1  0  0  0  0
M  END
>  <minimizedAffinity>
-4.3951335

$$$$

 OpenBabel03252500003D

 20 21  0  0  0  0  0  0  0  0999 V2000
   37.0550   30.1120   38.2300 C   0  0  0  0  0  0  0  0  0  0  0  0
   37.0130   29.2280   39.3190 C   0  0  0  0  0  0  0  0  0  0  0  0
   37.3590   29.7380   40.5750 C   0  0  0  0  0  0  0  0  0  0  0  0
   37.7130   31.0450   40.6810 N   0  0  0  0  0  0  0  0  0  0  0  0
   37.7400   31.8630   39.6000 C   0  0  0  0  0  0  0  0  0  0  0  0
   37.4080   31.3880   38.3750 N   0  0  0  0  0  0  0  0  0  0  0  0
   36.7970   29.7570   37.2530 H   0  0  0  0  0  0  0  0  0  0  0  0
   36.7290   28.1920   39.2180 H   0  0  0  0  0  0  0  0  0  0  0  0
   37.3490   28.9070   41.7770 C   0  0  0  0  0  0  0  0  0  0  0  0
   36.3700   27.9570   42.0310 C   0  0  0  0  0  0  0  0  0  0  0  0
   35.5070   27.6710   41.4490 H   0  0  0  0  0  0  0  0  0  0  0  0
   36.6710   27.3550   43.2590 C   0  0  0  0  0  0  0  0  0  0  0  0
   36.0940   26.5720   43.7340 H   0  0  0  0  0  0  0  0  0  0  0  0
   37.8160   27.9760   43.6750 C   0  0  0  0  0  0  0  0  0  0  0  0
   38.3520   27.7680   44.6010 H   0  0  0  0  0  0  0  0  0  0  0  0
   38.1810   28.8730   42.7900 O   0  0  0  0  0  0  0  0  0  0  0  0
   38.1550   33.2600   39.9230 C   0  0  0  0  0  0  0  0  0  0  0  0
   37.1700   34.1600   39.6410 F   0  0  0  0  0  0  0  0  0  0  0  0
   39.3040   33.5840   39.2020 F   0  0  0  0  0  0  0  0  0  0  0  0
   38.5330   33.3200   41.2570 F   0  0  0  0  0  0  0  0  0  0  0  0
  1  6  2  0  0  0  0
  1  2  1  0  0  0  0
  2  3  2  0  0  0  0
  3  4  1  0  0  0  0
  3  9  1  0  0  0  0
  5 17  1  0  0  0  0
  5  4  2  0  0  0  0
  6  5  1  0  0  0  0
  7  1  1  0  0  0  0
  8  2  1  0  0  0  0
  9 10  2  0  0  0  0
  9 16  1  0  0  0  0
 10 12  1  0  0  0  0
 11 10  1  0  0  0  0
 12 14  2  0  0  0  0
 12 13  1  0  0  0  0
 14 15  1  0  0  0  0
 16 14  1  0  0  0  0
 17 20  1  0  0  0  0
 18 17  1  0  0  0  0
 19 17  1  0  0  0  0
M  END
>  <minimizedAffinity>
-4.39369631

$$$$

 OpenBabel03252500003D

 20 21  0  0  0  0  0  0  0  0999 V2000
   39.8480   27.1650   43.5250 C   0  0  0  0  0  0  0  0  0  0  0  0
   39.4140   28.3990   43.0160 C   0  0  0  0  0  0  0  0  0  0  0  0
   38.3290   28.3840   42.1320 C   0  0  0  0  0  0  0  0  0  0  0  0
   37.7550   27.1950   41.8140 N   0  0  0  0  0  0  0  0  0  0  0  0
   38.2080   26.0260   42.3320 C   0  0  0  0  0  0  0  0  0  0  0  0
   39.2580   26.0200   43.1890 N   0  0  0  0  0  0  0  0  0  0  0  0
   40.6760   27.1380   44.2040 H   0  0  0  0  0  0  0  0  0  0  0  0
   39.8810   29.3350   43.2790 H   0  0  0  0  0  0  0  0  0  0  0  0
   37.7950   29.6090   41.5420 C   0  0  0  0  0  0  0  0  0  0  0  0
   36.4610   29.7600   41.1900 C   0  0  0  0  0  0  0  0  0  0  0  0
   35.6340   29.0700   41.2740 H   0  0  0  0  0  0  0  0  0  0  0  0
   36.3040   31.0450   40.6590 C   0  0  0  0  0  0  0  0  0  0  0  0
   35.3770   31.4670   40.2920 H   0  0  0  0  0  0  0  0  0  0  0  0
   37.5540   31.5980   40.7220 C   0  0  0  0  0  0  0  0  0  0  0  0
   37.8230   32.6020   40.3930 H   0  0  0  0  0  0  0  0  0  0  0  0
   38.3950   30.7350   41.2400 O   0  0  0  0  0  0  0  0  0  0  0  0
   37.4460   24.8330   41.8600 C   0  0  0  0  0  0  0  0  0  0  0  0
   36.3300   24.6130   42.6130 F   0  0  0  0  0  0  0  0  0  0  0  0
   38.2680   23.7070   41.9040 F   0  0  0  0  0  0  0  0  0  0  0  0
   37.1300   25.0010   40.5200 F   0  0  0  0  0  0  0  0  0  0  0  0
  1  7  1  0  0  0  0
  2  8  1  0  0  0  0
  2  1  2  0  0  0  0
  3  2  1  0  0  0  0
  4  3  2  0  0  0  0
  4  5  1  0  0  0  0
  5  6  2  0  0  0  0
  6  1  1  0  0  0  0
  9  3  1  0  0  0  0
 10 11  1  0  0  0  0
 10  9  2  0  0  0  0
 12 14  2  0  0  0  0
 12 10  1  0  0  0  0
 13 12  1  0  0  0  0
 14 16  1  0  0  0  0
 15 14  1  0  0  0  0
 16  9  1  0  0  0  0
 17 19  1  0  0  0  0
 17  5  1  0  0  0  0
 17 18  1  0  0  0  0
 20 17  1  0  0  0  0
M  END
>  <minimizedAffinity>
-4.32451105

$$$$

 OpenBabel03252500003D

 20 21  0  0  0  0  0  0  0  0999 V2000
   40.8560   31.2320   42.1140 C   0  0  0  0  0  0  0  0  0  0  0  0
   40.1870   30.0720   42.5330 C   0  0  0  0  0  0  0  0  0  0  0  0
   38.8760   29.8850   42.0790 C   0  0  0  0  0  0  0  0  0  0  0  0
   38.3210   30.8220   41.2670 N   0  0  0  0  0  0  0  0  0  0  0  0
   39.0060   31.9290   40.8870 C   0  0  0  0  0  0  0  0  0  0  0  0
   40.2770   32.1270   41.3160 N   0  0  0  0  0  0  0  0  0  0  0  0
   41.8600   31.4080   42.4410 H   0  0  0  0  0  0  0  0  0  0  0  0
   40.6430   29.3370   43.1790 H   0  0  0  0  0  0  0  0  0  0  0  0
   38.0880   28.7140   42.4530 C   0  0  0  0  0  0  0  0  0  0  0  0
   37.3510   28.6420   43.6270 C   0  0  0  0  0  0  0  0  0  0  0  0
   37.2260   29.3650   44.4190 H   0  0  0  0  0  0  0  0  0  0  0  0
   36.7280   27.3890   43.6610 C   0  0  0  0  0  0  0  0  0  0  0  0
   36.0820   27.0280   44.4510 H   0  0  0  0  0  0  0  0  0  0  0  0
   37.1240   26.7760   42.5040 C   0  0  0  0  0  0  0  0  0  0  0  0
   36.8350   25.7760   42.1830 H   0  0  0  0  0  0  0  0  0  0  0  0
   37.9140   27.5750   41.8270 O   0  0  0  0  0  0  0  0  0  0  0  0
   38.2230   32.8340   39.9950 C   0  0  0  0  0  0  0  0  0  0  0  0
   38.2370   34.1230   40.4410 F   0  0  0  0  0  0  0  0  0  0  0  0
   36.9060   32.3820   39.9130 F   0  0  0  0  0  0  0  0  0  0  0  0
   38.7230   32.7360   38.7050 F   0  0  0  0  0  0  0  0  0  0  0  0
  1  7  1  0  0  0  0
  1  2  1  0  0  0  0
  2  8  1  0  0  0  0
  3  9  1  0  0  0  0
  3  2  2  0  0  0  0
  4  3  1  0  0  0  0
  5  4  2  0  0  0  0
  5  6  1  0  0  0  0
  6  1  2  0  0  0  0
  9 10  2  0  0  0  0
 10 12  1  0  0  0  0
 10 11  1  0  0  0  0
 12 13  1  0  0  0  0
 14 12  2  0  0  0  0
 15 14  1  0  0  0  0
 16  9  1  0  0  0  0
 16 14  1  0  0  0  0
 17 18  1  0  0  0  0
 17  5  1  0  0  0  0
 19 17  1  0  0  0  0
 20 17  1  0  0  0  0
M  END
>  <minimizedAffinity>
-4.26947117

$$$$

 OpenBabel03252500003D

 20 21  0  0  0  0  0  0  0  0999 V2000
   36.4990   28.2490   37.8340 C   0  0  0  0  0  0  0  0  0  0  0  0
   36.5690   27.9040   39.1920 C   0  0  0  0  0  0  0  0  0  0  0  0
   37.0350   28.8810   40.0800 C   0  0  0  0  0  0  0  0  0  0  0  0
   37.3910   30.0980   39.5930 N   0  0  0  0  0  0  0  0  0  0  0  0
   37.3070   30.3860   38.2710 C   0  0  0  0  0  0  0  0  0  0  0  0
   36.8580   29.4540   37.3950 N   0  0  0  0  0  0  0  0  0  0  0  0
   36.1480   27.5270   37.1250 H   0  0  0  0  0  0  0  0  0  0  0  0
   36.2820   26.9320   39.5630 H   0  0  0  0  0  0  0  0  0  0  0  0
   37.1480   28.6310   41.5150 C   0  0  0  0  0  0  0  0  0  0  0  0
   36.6040   27.5140   42.1330 C   0  0  0  0  0  0  0  0  0  0  0  0
   36.0430   26.6900   41.7180 H   0  0  0  0  0  0  0  0  0  0  0  0
   36.9000   27.5970   43.4990 C   0  0  0  0  0  0  0  0  0  0  0  0
   36.6110   26.8750   44.2510 H   0  0  0  0  0  0  0  0  0  0  0  0
   37.6080   28.7610   43.6270 C   0  0  0  0  0  0  0  0  0  0  0  0
   38.0110   29.1610   44.5560 H   0  0  0  0  0  0  0  0  0  0  0  0
   37.7330   29.3350   42.4540 O   0  0  0  0  0  0  0  0  0  0  0  0
   37.7440   31.7730   37.9370 C   0  0  0  0  0  0  0  0  0  0  0  0
   39.0530   31.9840   38.2560 F   0  0  0  0  0  0  0  0  0  0  0  0
   36.9440   32.6910   38.6180 F   0  0  0  0  0  0  0  0  0  0  0  0
   37.5040   32.0100   36.5910 F   0  0  0  0  0  0  0  0  0  0  0  0
  1  2  1  0  0  0  0
  2  8  1  0  0  0  0
  2  3  2  0  0  0  0
  3  9  1  0  0  0  0
  4  3  1  0  0  0  0
  5  4  2  0  0  0  0
  6  1  2  0  0  0  0
  6  5  1  0  0  0  0
  7  1  1  0  0  0  0
  9 10  2  0  0  0  0
  9 16  1  0  0  0  0
 10 12  1  0  0  0  0
 11 10  1  0  0  0  0
 12 14  2  0  0  0  0
 12 13  1  0  0  0  0
 14 15  1  0  0  0  0
 16 14  1  0  0  0  0
 17 18  1  0  0  0  0
 17  5  1  0  0  0  0
 17 19  1  0  0  0  0
 20 17  1  0  0  0  0
M  END
>  <minimizedAffinity>
-4.10649443

$$$$
