
 OpenBabel03242518203D

 29 31  0  0  0  0  0  0  0  0999 V2000
   36.8060   28.4740   42.1280 C   0  0  0  0  0  0  0  0  0  0  0  0
   36.0290   28.4390   40.9980 C   0  0  0  0  0  0  0  0  0  0  0  0
   36.2410   29.6400   40.3150 C   0  0  0  0  0  0  0  0  0  0  0  0
   37.1510   30.3350   41.0910 C   0  0  0  0  0  0  0  0  0  0  0  0
   37.4350   29.6090   42.1210 O   0  0  0  0  0  0  0  0  0  0  0  0
   35.3560   27.6730   40.6330 H   0  0  0  0  0  0  0  0  0  0  0  0
   35.7630   29.9170   39.3700 H   0  0  0  0  0  0  0  0  0  0  0  0
   37.6450   31.6580   40.7290 C   0  0  0  0  0  0  0  0  0  0  0  0
   37.1150   32.5790   39.8480 C   0  0  0  0  0  0  0  0  0  0  0  0
   36.1970   32.3630   39.3090 H   0  0  0  0  0  0  0  0  0  0  0  0
   37.9420   33.7080   39.8290 C   0  0  0  0  0  0  0  0  0  0  0  0
   37.7180   34.5460   39.2140 H   0  0  0  0  0  0  0  0  0  0  0  0
   38.9440   33.3870   40.7210 C   0  0  0  0  0  0  0  0  0  0  0  0
   39.7560   34.0920   40.9200 H   0  0  0  0  0  0  0  0  0  0  0  0
   38.7530   32.1920   41.2320 O   0  0  0  0  0  0  0  0  0  0  0  0
   36.8690   27.3580   43.1500 C   0  0  0  0  0  0  0  0  0  0  0  0
   36.7180   27.7400   44.1650 H   0  0  0  0  0  0  0  0  0  0  0  0
   36.0500   26.6140   42.9380 H   0  0  0  0  0  0  0  0  0  0  0  0
   40.3970   26.5130   43.6060 C   0  0  0  0  0  0  0  0  0  0  0  0
   40.5580   25.3130   42.8810 C   0  0  0  0  0  0  0  0  0  0  0  0
   39.4340   24.8060   42.2380 C   0  0  0  0  0  0  0  0  0  0  0  0
   38.2710   25.4750   42.3380 N   0  0  0  0  0  0  0  0  0  0  0  0
   38.1500   26.6250   43.0420 C   0  0  0  0  0  0  0  0  0  0  0  0
   39.2260   27.1430   43.6800 N   0  0  0  0  0  0  0  0  0  0  0  0
   41.2430   26.9560   44.1300 H   0  0  0  0  0  0  0  0  0  0  0  0
   39.5700   23.8950   41.6910 H   0  0  0  0  0  0  0  0  0  0  0  0
   41.8440   24.7520   42.8840 N   0  0  0  0  0  0  0  0  0  0  0  0
   42.6590   25.4010   42.7240 H   0  0  0  0  0  0  0  0  0  0  0  0
   41.8670   23.7130   43.0510 H   0  0  0  0  0  0  0  0  0  0  0  0
  1 16  1  0  0  0  0
  2  1  2  0  0  0  0
  3  2  1  0  0  0  0
  3  4  2  0  0  0  0
  4  5  1  0  0  0  0
  5  1  1  0  0  0  0
  6  2  1  0  0  0  0
  7  3  1  0  0  0  0
  8  4  1  0  0  0  0
  8 15  1  0  0  0  0
  9  8  2  0  0  0  0
 10  9  1  0  0  0  0
 11  9  1  0  0  0  0
 11 13  2  0  0  0  0
 12 11  1  0  0  0  0
 13 14  1  0  0  0  0
 13 15  1  0  0  0  0
 16 17  1  0  0  0  0
 18 16  1  0  0  0  0
 19 24  1  0  0  0  0
 19 25  1  0  0  0  0
 20 27  1  0  0  0  0
 20 19  2  0  0  0  0
 21 22  2  0  0  0  0
 21 20  1  0  0  0  0
 22 23  1  0  0  0  0
 23 16  1  0  0  0  0
 23 24  2  0  0  0  0
 26 21  1  0  0  0  0
 27 29  1  0  0  0  0
 28 27  1  0  0  0  0
M  END
>  <minimizedAffinity>
-5.40970325

$$$$

 OpenBabel03242518203D

 29 31  0  0  0  0  0  0  0  0999 V2000
   38.4280   28.6270   42.5730 C   0  0  0  0  0  0  0  0  0  0  0  0
   37.4420   28.3490   43.4840 C   0  0  0  0  0  0  0  0  0  0  0  0
   36.9250   27.0920   43.1610 C   0  0  0  0  0  0  0  0  0  0  0  0
   37.6480   26.6840   42.0530 C   0  0  0  0  0  0  0  0  0  0  0  0
   38.4970   27.6140   41.7660 O   0  0  0  0  0  0  0  0  0  0  0  0
   37.0730   28.9320   44.3190 H   0  0  0  0  0  0  0  0  0  0  0  0
   36.1210   26.5850   43.7030 H   0  0  0  0  0  0  0  0  0  0  0  0
   37.4180   25.4050   41.3910 C   0  0  0  0  0  0  0  0  0  0  0  0
   36.6110   25.1130   40.3110 C   0  0  0  0  0  0  0  0  0  0  0  0
   36.0310   25.8930   39.8260 H   0  0  0  0  0  0  0  0  0  0  0  0
   36.7140   23.7450   40.0330 C   0  0  0  0  0  0  0  0  0  0  0  0
   36.1700   23.3030   39.2320 H   0  0  0  0  0  0  0  0  0  0  0  0
   37.5980   23.2890   40.9870 C   0  0  0  0  0  0  0  0  0  0  0  0
   37.8790   22.2320   41.0220 H   0  0  0  0  0  0  0  0  0  0  0  0
   37.9950   24.2690   41.7660 O   0  0  0  0  0  0  0  0  0  0  0  0
   39.2470   29.9020   42.5700 C   0  0  0  0  0  0  0  0  0  0  0  0
   39.3840   30.2890   43.5850 H   0  0  0  0  0  0  0  0  0  0  0  0
   40.2680   29.6860   42.1440 H   0  0  0  0  0  0  0  0  0  0  0  0
   38.7820   33.0080   40.6960 C   0  0  0  0  0  0  0  0  0  0  0  0
   37.5260   32.8460   40.0730 C   0  0  0  0  0  0  0  0  0  0  0  0
   36.8500   31.6540   40.3100 C   0  0  0  0  0  0  0  0  0  0  0  0
   37.4190   30.7330   41.1080 N   0  0  0  0  0  0  0  0  0  0  0  0
   38.6250   30.9180   41.6920 C   0  0  0  0  0  0  0  0  0  0  0  0
   39.3080   32.0680   41.4800 N   0  0  0  0  0  0  0  0  0  0  0  0
   39.3570   33.9200   40.5470 H   0  0  0  0  0  0  0  0  0  0  0  0
   35.8980   31.5450   39.8300 H   0  0  0  0  0  0  0  0  0  0  0  0
   37.0880   33.9120   39.2730 N   0  0  0  0  0  0  0  0  0  0  0  0
   37.1940   34.8880   39.6600 H   0  0  0  0  0  0  0  0  0  0  0  0
   36.6870   33.6250   38.3430 H   0  0  0  0  0  0  0  0  0  0  0  0
  1  2  2  0  0  0  0
  2  6  1  0  0  0  0
  3  2  1  0  0  0  0
  3  7  1  0  0  0  0
  4  3  2  0  0  0  0
  5  4  1  0  0  0  0
  5  1  1  0  0  0  0
  8 15  1  0  0  0  0
  8  4  1  0  0  0  0
  9  8  2  0  0  0  0
 10  9  1  0  0  0  0
 11  9  1  0  0  0  0
 11 13  2  0  0  0  0
 12 11  1  0  0  0  0
 13 14  1  0  0  0  0
 13 15  1  0  0  0  0
 16  1  1  0  0  0  0
 16 17  1  0  0  0  0
 18 16  1  0  0  0  0
 19 24  1  0  0  0  0
 20 21  1  0  0  0  0
 20 19  2  0  0  0  0
 21 22  2  0  0  0  0
 22 23  1  0  0  0  0
 23 16  1  0  0  0  0
 24 23  2  0  0  0  0
 25 19  1  0  0  0  0
 26 21  1  0  0  0  0
 27 28  1  0  0  0  0
 27 20  1  0  0  0  0
 29 27  1  0  0  0  0
M  END
>  <minimizedAffinity>
-5.36222172

$$$$

 OpenBabel03242518203D

 29 31  0  0  0  0  0  0  0  0999 V2000
   37.0670   29.3300   41.7470 C   0  0  0  0  0  0  0  0  0  0  0  0
   37.6310   29.2230   42.9920 C   0  0  0  0  0  0  0  0  0  0  0  0
   38.0060   27.8880   43.1620 C   0  0  0  0  0  0  0  0  0  0  0  0
   37.6370   27.2620   41.9840 C   0  0  0  0  0  0  0  0  0  0  0  0
   37.1020   28.1490   41.2120 O   0  0  0  0  0  0  0  0  0  0  0  0
   37.7920   29.9740   43.7560 H   0  0  0  0  0  0  0  0  0  0  0  0
   38.4870   27.4800   44.0560 H   0  0  0  0  0  0  0  0  0  0  0  0
   37.8550   25.8400   41.7470 C   0  0  0  0  0  0  0  0  0  0  0  0
   36.9310   24.8350   41.5510 C   0  0  0  0  0  0  0  0  0  0  0  0
   35.8670   25.0520   41.5590 H   0  0  0  0  0  0  0  0  0  0  0  0
   37.6150   23.6280   41.3630 C   0  0  0  0  0  0  0  0  0  0  0  0
   37.0920   22.7180   41.1940 H   0  0  0  0  0  0  0  0  0  0  0  0
   38.9420   23.9920   41.4620 C   0  0  0  0  0  0  0  0  0  0  0  0
   39.7310   23.2430   41.3560 H   0  0  0  0  0  0  0  0  0  0  0  0
   39.0590   25.2820   41.6850 O   0  0  0  0  0  0  0  0  0  0  0  0
   36.5250   30.6200   41.1680 C   0  0  0  0  0  0  0  0  0  0  0  0
   35.4650   30.5260   40.9110 H   0  0  0  0  0  0  0  0  0  0  0  0
   36.6200   31.4400   41.9350 H   0  0  0  0  0  0  0  0  0  0  0  0
   39.3560   31.7990   39.1760 C   0  0  0  0  0  0  0  0  0  0  0  0
   38.8560   31.8310   37.8560 C   0  0  0  0  0  0  0  0  0  0  0  0
   37.5340   31.4400   37.6700 C   0  0  0  0  0  0  0  0  0  0  0  0
   36.8130   31.0590   38.7400 N   0  0  0  0  0  0  0  0  0  0  0  0
   37.3220   31.0400   39.9930 C   0  0  0  0  0  0  0  0  0  0  0  0
   38.6060   31.4140   40.2070 N   0  0  0  0  0  0  0  0  0  0  0  0
   40.3840   32.0930   39.3820 H   0  0  0  0  0  0  0  0  0  0  0  0
   37.1680   31.4690   36.6640 H   0  0  0  0  0  0  0  0  0  0  0  0
   39.7510   32.2560   36.8640 N   0  0  0  0  0  0  0  0  0  0  0  0
   40.3340   33.1110   37.0660 H   0  0  0  0  0  0  0  0  0  0  0  0
   39.7510   31.6640   35.9930 H   0  0  0  0  0  0  0  0  0  0  0  0
  1  2  2  0  0  0  0
  2  3  1  0  0  0  0
  2  6  1  0  0  0  0
  3  7  1  0  0  0  0
  4  3  2  0  0  0  0
  5  1  1  0  0  0  0
  5  4  1  0  0  0  0
  8  4  1  0  0  0  0
  9 10  1  0  0  0  0
  9  8  2  0  0  0  0
 11 13  2  0  0  0  0
 11  9  1  0  0  0  0
 12 11  1  0  0  0  0
 13 15  1  0  0  0  0
 14 13  1  0  0  0  0
 15  8  1  0  0  0  0
 16  1  1  0  0  0  0
 16 18  1  0  0  0  0
 17 16  1  0  0  0  0
 19 25  1  0  0  0  0
 19 24  1  0  0  0  0
 20 19  2  0  0  0  0
 21 20  1  0  0  0  0
 21 22  2  0  0  0  0
 22 23  1  0  0  0  0
 23 24  2  0  0  0  0
 23 16  1  0  0  0  0
 26 21  1  0  0  0  0
 27 28  1  0  0  0  0
 27 20  1  0  0  0  0
 29 27  1  0  0  0  0
M  END
>  <minimizedAffinity>
-5.28174257

$$$$

 OpenBabel03242518203D

 29 31  0  0  0  0  0  0  0  0999 V2000
   38.4350   29.1460   42.3000 C   0  0  0  0  0  0  0  0  0  0  0  0
   37.6140   28.8660   43.3610 C   0  0  0  0  0  0  0  0  0  0  0  0
   36.9710   27.6580   43.0770 C   0  0  0  0  0  0  0  0  0  0  0  0
   37.4570   27.2780   41.8390 C   0  0  0  0  0  0  0  0  0  0  0  0
   38.2960   28.1790   41.4460 O   0  0  0  0  0  0  0  0  0  0  0  0
   37.4370   29.4180   44.2770 H   0  0  0  0  0  0  0  0  0  0  0  0
   36.2480   27.1630   43.7320 H   0  0  0  0  0  0  0  0  0  0  0  0
   37.0340   26.0540   41.1690 C   0  0  0  0  0  0  0  0  0  0  0  0
   36.9440   24.7710   41.6680 C   0  0  0  0  0  0  0  0  0  0  0  0
   37.2070   24.5590   42.7000 H   0  0  0  0  0  0  0  0  0  0  0  0
   36.4890   23.9260   40.6490 C   0  0  0  0  0  0  0  0  0  0  0  0
   36.3460   22.8850   40.8180 H   0  0  0  0  0  0  0  0  0  0  0  0
   36.3300   24.7750   39.5740 C   0  0  0  0  0  0  0  0  0  0  0  0
   35.9780   24.3920   38.6120 H   0  0  0  0  0  0  0  0  0  0  0  0
   36.6520   26.0070   39.8970 O   0  0  0  0  0  0  0  0  0  0  0  0
   39.3160   30.3740   42.2080 C   0  0  0  0  0  0  0  0  0  0  0  0
   38.9450   31.1790   42.8520 H   0  0  0  0  0  0  0  0  0  0  0  0
   40.3570   30.1110   42.5530 H   0  0  0  0  0  0  0  0  0  0  0  0
   38.4400   31.8910   38.9980 C   0  0  0  0  0  0  0  0  0  0  0  0
   39.5890   31.6930   38.2020 C   0  0  0  0  0  0  0  0  0  0  0  0
   40.6620   31.0320   38.7900 C   0  0  0  0  0  0  0  0  0  0  0  0
   40.5510   30.6220   40.0670 N   0  0  0  0  0  0  0  0  0  0  0  0
   39.4350   30.8280   40.8040 C   0  0  0  0  0  0  0  0  0  0  0  0
   38.3730   31.4680   40.2600 N   0  0  0  0  0  0  0  0  0  0  0  0
   37.5700   32.4030   38.5910 H   0  0  0  0  0  0  0  0  0  0  0  0
   41.5260   30.8890   38.1740 H   0  0  0  0  0  0  0  0  0  0  0  0
   39.5280   32.1880   36.8910 N   0  0  0  0  0  0  0  0  0  0  0  0
   38.6500   31.9990   36.3380 H   0  0  0  0  0  0  0  0  0  0  0  0
   40.3870   32.7110   36.5810 H   0  0  0  0  0  0  0  0  0  0  0  0
  1  2  2  0  0  0  0
  2  6  1  0  0  0  0
  3  2  1  0  0  0  0
  3  7  1  0  0  0  0
  4  3  2  0  0  0  0
  5  4  1  0  0  0  0
  5  1  1  0  0  0  0
  8  9  2  0  0  0  0
  8  4  1  0  0  0  0
  9 10  1  0  0  0  0
 11 12  1  0  0  0  0
 11  9  1  0  0  0  0
 13 15  1  0  0  0  0
 13 11  2  0  0  0  0
 14 13  1  0  0  0  0
 15  8  1  0  0  0  0
 16  1  1  0  0  0  0
 16 18  1  0  0  0  0
 16 17  1  0  0  0  0
 19 24  1  0  0  0  0
 20 21  1  0  0  0  0
 20 19  2  0  0  0  0
 21 22  2  0  0  0  0
 22 23  1  0  0  0  0
 23 16  1  0  0  0  0
 24 23  2  0  0  0  0
 25 19  1  0  0  0  0
 26 21  1  0  0  0  0
 27 20  1  0  0  0  0
 28 27  1  0  0  0  0
 29 27  1  0  0  0  0
M  END
>  <minimizedAffinity>
-4.99556684

$$$$

 OpenBabel03242518203D

 29 31  0  0  0  0  0  0  0  0999 V2000
   37.6990   29.3880   42.4180 C   0  0  0  0  0  0  0  0  0  0  0  0
   36.7250   29.5210   41.4620 C   0  0  0  0  0  0  0  0  0  0  0  0
   37.1050   30.5760   40.6290 C   0  0  0  0  0  0  0  0  0  0  0  0
   38.3090   31.0210   41.1460 C   0  0  0  0  0  0  0  0  0  0  0  0
   38.5950   30.2950   42.1760 O   0  0  0  0  0  0  0  0  0  0  0  0
   35.8100   28.9610   41.3100 H   0  0  0  0  0  0  0  0  0  0  0  0
   36.5350   30.9320   39.7660 H   0  0  0  0  0  0  0  0  0  0  0  0
   39.0550   32.1300   40.5610 C   0  0  0  0  0  0  0  0  0  0  0  0
   38.8550   33.4880   40.6990 C   0  0  0  0  0  0  0  0  0  0  0  0
   38.0470   33.8680   41.3170 H   0  0  0  0  0  0  0  0  0  0  0  0
   39.8250   34.1610   39.9470 C   0  0  0  0  0  0  0  0  0  0  0  0
   39.8550   35.2240   39.9110 H   0  0  0  0  0  0  0  0  0  0  0  0
   40.5650   33.1410   39.3880 C   0  0  0  0  0  0  0  0  0  0  0  0
   41.4120   33.3640   38.7340 H   0  0  0  0  0  0  0  0  0  0  0  0
   40.1010   31.9680   39.7570 O   0  0  0  0  0  0  0  0  0  0  0  0
   37.6710   28.3520   43.5220 C   0  0  0  0  0  0  0  0  0  0  0  0
   38.4260   28.5650   44.2860 H   0  0  0  0  0  0  0  0  0  0  0  0
   36.6610   28.3710   44.0230 H   0  0  0  0  0  0  0  0  0  0  0  0
   39.3080   25.3370   42.2560 C   0  0  0  0  0  0  0  0  0  0  0  0
   38.2370   24.4770   41.9330 C   0  0  0  0  0  0  0  0  0  0  0  0
   36.9500   24.9540   42.1590 C   0  0  0  0  0  0  0  0  0  0  0  0
   36.7960   26.1910   42.6660 N   0  0  0  0  0  0  0  0  0  0  0  0
   37.8450   26.9920   42.9650 C   0  0  0  0  0  0  0  0  0  0  0  0
   39.1090   26.5560   42.7570 N   0  0  0  0  0  0  0  0  0  0  0  0
   40.3370   25.0170   42.1010 H   0  0  0  0  0  0  0  0  0  0  0  0
   36.1470   24.2910   41.9090 H   0  0  0  0  0  0  0  0  0  0  0  0
   38.5840   23.2210   41.4130 N   0  0  0  0  0  0  0  0  0  0  0  0
   39.3300   23.1910   40.6680 H   0  0  0  0  0  0  0  0  0  0  0  0
   38.0520   22.4140   41.8290 H   0  0  0  0  0  0  0  0  0  0  0  0
  1 16  1  0  0  0  0
  2  1  2  0  0  0  0
  3  4  2  0  0  0  0
  3  2  1  0  0  0  0
  4  5  1  0  0  0  0
  5  1  1  0  0  0  0
  6  2  1  0  0  0  0
  7  3  1  0  0  0  0
  8  9  2  0  0  0  0
  8  4  1  0  0  0  0
  9 10  1  0  0  0  0
 11  9  1  0  0  0  0
 12 11  1  0  0  0  0
 13 15  1  0  0  0  0
 13 11  2  0  0  0  0
 14 13  1  0  0  0  0
 15  8  1  0  0  0  0
 16 18  1  0  0  0  0
 16 17  1  0  0  0  0
 19 24  1  0  0  0  0
 20 21  1  0  0  0  0
 20 19  2  0  0  0  0
 21 22  2  0  0  0  0
 22 23  1  0  0  0  0
 23 16  1  0  0  0  0
 24 23  2  0  0  0  0
 25 19  1  0  0  0  0
 26 21  1  0  0  0  0
 27 29  1  0  0  0  0
 27 20  1  0  0  0  0
 28 27  1  0  0  0  0
M  END
>  <minimizedAffinity>
-4.81762028

$$$$

 OpenBabel03242518203D

 29 31  0  0  0  0  0  0  0  0999 V2000
   36.5390   28.2410   40.2960 C   0  0  0  0  0  0  0  0  0  0  0  0
   35.9750   28.5280   41.5120 C   0  0  0  0  0  0  0  0  0  0  0  0
   36.6430   27.7590   42.4690 C   0  0  0  0  0  0  0  0  0  0  0  0
   37.5870   27.0430   41.7530 C   0  0  0  0  0  0  0  0  0  0  0  0
   37.4740   27.3670   40.5080 O   0  0  0  0  0  0  0  0  0  0  0  0
   35.1680   29.2040   41.7700 H   0  0  0  0  0  0  0  0  0  0  0  0
   36.4250   27.7620   43.5410 H   0  0  0  0  0  0  0  0  0  0  0  0
   38.5080   26.1050   42.3850 C   0  0  0  0  0  0  0  0  0  0  0  0
   38.5970   24.7360   42.2400 C   0  0  0  0  0  0  0  0  0  0  0  0
   37.9200   24.2050   41.5780 H   0  0  0  0  0  0  0  0  0  0  0  0
   39.6380   24.2680   43.0500 C   0  0  0  0  0  0  0  0  0  0  0  0
   39.8820   23.2330   43.0910 H   0  0  0  0  0  0  0  0  0  0  0  0
   40.1220   25.4130   43.6470 C   0  0  0  0  0  0  0  0  0  0  0  0
   40.9570   25.3610   44.3500 H   0  0  0  0  0  0  0  0  0  0  0  0
   39.4510   26.4700   43.2470 O   0  0  0  0  0  0  0  0  0  0  0  0
   36.1020   28.8680   38.9880 C   0  0  0  0  0  0  0  0  0  0  0  0
   35.8750   28.1030   38.2380 H   0  0  0  0  0  0  0  0  0  0  0  0
   35.1650   29.4700   39.1590 H   0  0  0  0  0  0  0  0  0  0  0  0
   37.7860   31.3060   36.8450 C   0  0  0  0  0  0  0  0  0  0  0  0
   38.9980   31.5730   37.5180 C   0  0  0  0  0  0  0  0  0  0  0  0
   39.2190   30.9020   38.7150 C   0  0  0  0  0  0  0  0  0  0  0  0
   38.2820   30.0450   39.1620 N   0  0  0  0  0  0  0  0  0  0  0  0
   37.1300   29.8110   38.4930 C   0  0  0  0  0  0  0  0  0  0  0  0
   36.8850   30.4490   37.3240 N   0  0  0  0  0  0  0  0  0  0  0  0
   37.5580   31.8030   35.9030 H   0  0  0  0  0  0  0  0  0  0  0  0
   40.1420   31.1140   39.2150 H   0  0  0  0  0  0  0  0  0  0  0  0
   39.8580   32.4960   36.9040 N   0  0  0  0  0  0  0  0  0  0  0  0
   40.0170   32.3990   35.8660 H   0  0  0  0  0  0  0  0  0  0  0  0
   40.2700   33.2110   37.5580 H   0  0  0  0  0  0  0  0  0  0  0  0
  1  5  1  0  0  0  0
  1  2  2  0  0  0  0
  2  6  1  0  0  0  0
  2  3  1  0  0  0  0
  3  7  1  0  0  0  0
  4  8  1  0  0  0  0
  4  3  2  0  0  0  0
  5  4  1  0  0  0  0
  8 15  1  0  0  0  0
  9  8  2  0  0  0  0
  9 11  1  0  0  0  0
 10  9  1  0  0  0  0
 11 12  1  0  0  0  0
 11 13  2  0  0  0  0
 13 14  1  0  0  0  0
 15 13  1  0  0  0  0
 16 18  1  0  0  0  0
 16  1  1  0  0  0  0
 17 16  1  0  0  0  0
 19 24  2  0  0  0  0
 19 20  1  0  0  0  0
 20 21  2  0  0  0  0
 21 22  1  0  0  0  0
 21 26  1  0  0  0  0
 23 16  1  0  0  0  0
 23 22  2  0  0  0  0
 24 23  1  0  0  0  0
 25 19  1  0  0  0  0
 27 20  1  0  0  0  0
 27 29  1  0  0  0  0
 28 27  1  0  0  0  0
M  END
>  <minimizedAffinity>
-4.79260445

$$$$

 OpenBabel03242518203D

 29 31  0  0  0  0  0  0  0  0999 V2000
   37.2330   28.9720   41.6940 C   0  0  0  0  0  0  0  0  0  0  0  0
   36.4810   28.0040   42.3070 C   0  0  0  0  0  0  0  0  0  0  0  0
   37.3380   26.9400   42.6000 C   0  0  0  0  0  0  0  0  0  0  0  0
   38.5780   27.3430   42.1360 C   0  0  0  0  0  0  0  0  0  0  0  0
   38.4480   28.5230   41.6250 O   0  0  0  0  0  0  0  0  0  0  0  0
   35.4260   27.9850   42.5540 H   0  0  0  0  0  0  0  0  0  0  0  0
   37.0390   26.0100   43.0930 H   0  0  0  0  0  0  0  0  0  0  0  0
   39.7690   26.5100   42.2470 C   0  0  0  0  0  0  0  0  0  0  0  0
   40.1150   25.6060   43.2310 C   0  0  0  0  0  0  0  0  0  0  0  0
   39.4580   25.4320   44.0780 H   0  0  0  0  0  0  0  0  0  0  0  0
   41.3560   25.0450   42.9060 C   0  0  0  0  0  0  0  0  0  0  0  0
   41.8130   24.3180   43.5330 H   0  0  0  0  0  0  0  0  0  0  0  0
   41.6870   25.6620   41.7190 C   0  0  0  0  0  0  0  0  0  0  0  0
   42.6250   25.4210   41.2110 H   0  0  0  0  0  0  0  0  0  0  0  0
   40.7520   26.5100   41.3530 O   0  0  0  0  0  0  0  0  0  0  0  0
   36.6820   30.2990   41.2130 C   0  0  0  0  0  0  0  0  0  0  0  0
   35.6070   30.2340   41.0140 H   0  0  0  0  0  0  0  0  0  0  0  0
   36.8360   31.0770   42.0140 H   0  0  0  0  0  0  0  0  0  0  0  0
   39.0090   32.2050   39.1340 C   0  0  0  0  0  0  0  0  0  0  0  0
   38.8180   31.6800   37.8380 C   0  0  0  0  0  0  0  0  0  0  0  0
   37.8790   30.6640   37.6980 C   0  0  0  0  0  0  0  0  0  0  0  0
   37.2120   30.2410   38.7870 N   0  0  0  0  0  0  0  0  0  0  0  0
   37.4180   30.7660   40.0170 C   0  0  0  0  0  0  0  0  0  0  0  0
   38.3260   31.7570   40.1860 N   0  0  0  0  0  0  0  0  0  0  0  0
   39.7310   33.0020   39.3040 H   0  0  0  0  0  0  0  0  0  0  0  0
   37.7440   30.2750   36.7090 H   0  0  0  0  0  0  0  0  0  0  0  0
   39.6010   32.2420   36.8190 N   0  0  0  0  0  0  0  0  0  0  0  0
   39.6850   33.2930   36.7910 H   0  0  0  0  0  0  0  0  0  0  0  0
   40.0380   31.5410   36.1660 H   0  0  0  0  0  0  0  0  0  0  0  0
  1  2  2  0  0  0  0
  2  6  1  0  0  0  0
  2  3  1  0  0  0  0
  3  7  1  0  0  0  0
  4  8  1  0  0  0  0
  4  3  2  0  0  0  0
  5  1  1  0  0  0  0
  5  4  1  0  0  0  0
  8  9  2  0  0  0  0
  9 10  1  0  0  0  0
 11  9  1  0  0  0  0
 11 12  1  0  0  0  0
 13 11  2  0  0  0  0
 14 13  1  0  0  0  0
 15 13  1  0  0  0  0
 15  8  1  0  0  0  0
 16  1  1  0  0  0  0
 16 18  1  0  0  0  0
 17 16  1  0  0  0  0
 19 25  1  0  0  0  0
 19 24  1  0  0  0  0
 20 19  2  0  0  0  0
 21 20  1  0  0  0  0
 21 22  2  0  0  0  0
 22 23  1  0  0  0  0
 23 24  2  0  0  0  0
 23 16  1  0  0  0  0
 26 21  1  0  0  0  0
 27 20  1  0  0  0  0
 28 27  1  0  0  0  0
 29 27  1  0  0  0  0
M  END
>  <minimizedAffinity>
-4.79045677

$$$$

 OpenBabel03242518203D

 29 31  0  0  0  0  0  0  0  0999 V2000
   36.0760   28.2390   40.8830 C   0  0  0  0  0  0  0  0  0  0  0  0
   36.4890   28.0440   42.1750 C   0  0  0  0  0  0  0  0  0  0  0  0
   37.0900   26.7840   42.2300 C   0  0  0  0  0  0  0  0  0  0  0  0
   37.0000   26.2900   40.9410 C   0  0  0  0  0  0  0  0  0  0  0  0
   36.4050   27.1770   40.2140 O   0  0  0  0  0  0  0  0  0  0  0  0
   36.4050   28.6870   43.0440 H   0  0  0  0  0  0  0  0  0  0  0  0
   37.5240   26.3340   43.1290 H   0  0  0  0  0  0  0  0  0  0  0  0
   37.5160   24.9800   40.5620 C   0  0  0  0  0  0  0  0  0  0  0  0
   37.8580   23.9100   41.3640 C   0  0  0  0  0  0  0  0  0  0  0  0
   37.7550   23.9720   42.4430 H   0  0  0  0  0  0  0  0  0  0  0  0
   38.3070   22.8650   40.5470 C   0  0  0  0  0  0  0  0  0  0  0  0
   38.6230   21.9380   40.9620 H   0  0  0  0  0  0  0  0  0  0  0  0
   38.2060   23.3860   39.2740 C   0  0  0  0  0  0  0  0  0  0  0  0
   38.4940   22.7860   38.4060 H   0  0  0  0  0  0  0  0  0  0  0  0
   37.7450   24.6150   39.3050 O   0  0  0  0  0  0  0  0  0  0  0  0
   35.3730   29.4890   40.3950 C   0  0  0  0  0  0  0  0  0  0  0  0
   34.6570   29.2570   39.5990 H   0  0  0  0  0  0  0  0  0  0  0  0
   34.7990   29.9490   41.2490 H   0  0  0  0  0  0  0  0  0  0  0  0
   37.7250   32.2860   40.5140 C   0  0  0  0  0  0  0  0  0  0  0  0
   38.1850   32.4030   39.1840 C   0  0  0  0  0  0  0  0  0  0  0  0
   37.6720   31.5040   38.2550 C   0  0  0  0  0  0  0  0  0  0  0  0
   36.7780   30.5860   38.6650 N   0  0  0  0  0  0  0  0  0  0  0  0
   36.3570   30.5000   39.9480 C   0  0  0  0  0  0  0  0  0  0  0  0
   36.8380   31.3610   40.8760 N   0  0  0  0  0  0  0  0  0  0  0  0
   38.0930   32.9620   41.2840 H   0  0  0  0  0  0  0  0  0  0  0  0
   38.0290   31.6040   37.2500 H   0  0  0  0  0  0  0  0  0  0  0  0
   39.1190   33.4190   38.9380 N   0  0  0  0  0  0  0  0  0  0  0  0
   38.9280   34.3690   39.3550 H   0  0  0  0  0  0  0  0  0  0  0  0
   39.9380   33.1260   38.3450 H   0  0  0  0  0  0  0  0  0  0  0  0
  1  2  2  0  0  0  0
  2  3  1  0  0  0  0
  2  6  1  0  0  0  0
  3  7  1  0  0  0  0
  4  3  2  0  0  0  0
  5  1  1  0  0  0  0
  5  4  1  0  0  0  0
  8  4  1  0  0  0  0
  8  9  2  0  0  0  0
  9 10  1  0  0  0  0
 11 12  1  0  0  0  0
 11  9  1  0  0  0  0
 13 15  1  0  0  0  0
 13 11  2  0  0  0  0
 14 13  1  0  0  0  0
 15  8  1  0  0  0  0
 16  1  1  0  0  0  0
 16 18  1  0  0  0  0
 17 16  1  0  0  0  0
 19 24  1  0  0  0  0
 19 25  1  0  0  0  0
 20 19  2  0  0  0  0
 21 22  2  0  0  0  0
 21 20  1  0  0  0  0
 22 23  1  0  0  0  0
 23 16  1  0  0  0  0
 23 24  2  0  0  0  0
 26 21  1  0  0  0  0
 27 20  1  0  0  0  0
 27 28  1  0  0  0  0
 29 27  1  0  0  0  0
M  END
>  <minimizedAffinity>
-4.76680326

$$$$

 OpenBabel03242518203D

 29 31  0  0  0  0  0  0  0  0999 V2000
   36.1490   28.9360   40.8730 C   0  0  0  0  0  0  0  0  0  0  0  0
   36.6530   29.8500   41.7610 C   0  0  0  0  0  0  0  0  0  0  0  0
   37.6140   29.1900   42.5320 C   0  0  0  0  0  0  0  0  0  0  0  0
   37.6280   27.8930   42.0480 C   0  0  0  0  0  0  0  0  0  0  0  0
   36.7610   27.8140   41.0940 O   0  0  0  0  0  0  0  0  0  0  0  0
   36.4110   30.8960   41.9060 H   0  0  0  0  0  0  0  0  0  0  0  0
   38.2000   29.6490   43.3330 H   0  0  0  0  0  0  0  0  0  0  0  0
   38.5060   26.8620   42.5880 C   0  0  0  0  0  0  0  0  0  0  0  0
   39.5840   26.9890   43.4400 C   0  0  0  0  0  0  0  0  0  0  0  0
   39.8860   27.9650   43.8080 H   0  0  0  0  0  0  0  0  0  0  0  0
   40.1170   25.7170   43.6800 C   0  0  0  0  0  0  0  0  0  0  0  0
   40.9600   25.5830   44.3150 H   0  0  0  0  0  0  0  0  0  0  0  0
   39.3070   24.8840   42.9380 C   0  0  0  0  0  0  0  0  0  0  0  0
   39.4840   23.8050   42.9270 H   0  0  0  0  0  0  0  0  0  0  0  0
   38.3770   25.5680   42.3110 O   0  0  0  0  0  0  0  0  0  0  0  0
   35.0770   29.2480   39.8490 C   0  0  0  0  0  0  0  0  0  0  0  0
   34.1890   28.6270   40.0020 H   0  0  0  0  0  0  0  0  0  0  0  0
   34.7660   30.3260   39.9550 H   0  0  0  0  0  0  0  0  0  0  0  0
   37.1710   29.7430   36.8920 C   0  0  0  0  0  0  0  0  0  0  0  0
   36.6360   28.8480   35.9410 C   0  0  0  0  0  0  0  0  0  0  0  0
   35.5490   28.0770   36.3370 C   0  0  0  0  0  0  0  0  0  0  0  0
   35.0710   28.2230   37.5870 N   0  0  0  0  0  0  0  0  0  0  0  0
   35.6070   29.0910   38.4760 C   0  0  0  0  0  0  0  0  0  0  0  0
   36.6660   29.8550   38.1190 N   0  0  0  0  0  0  0  0  0  0  0  0
   38.0230   30.3710   36.6380 H   0  0  0  0  0  0  0  0  0  0  0  0
   35.1530   27.4030   35.6050 H   0  0  0  0  0  0  0  0  0  0  0  0
   37.2620   28.8290   34.6860 N   0  0  0  0  0  0  0  0  0  0  0  0
   37.4930   29.7570   34.2410 H   0  0  0  0  0  0  0  0  0  0  0  0
   37.4430   27.8650   34.3020 H   0  0  0  0  0  0  0  0  0  0  0  0
  1  5  1  0  0  0  0
  1  2  2  0  0  0  0
  2  6  1  0  0  0  0
  2  3  1  0  0  0  0
  3  7  1  0  0  0  0
  4  3  2  0  0  0  0
  4  8  1  0  0  0  0
  5  4  1  0  0  0  0
  8  9  2  0  0  0  0
  9 11  1  0  0  0  0
  9 10  1  0  0  0  0
 11 12  1  0  0  0  0
 13 11  2  0  0  0  0
 14 13  1  0  0  0  0
 15  8  1  0  0  0  0
 15 13  1  0  0  0  0
 16 18  1  0  0  0  0
 16 17  1  0  0  0  0
 16  1  1  0  0  0  0
 19 24  1  0  0  0  0
 20 21  1  0  0  0  0
 20 19  2  0  0  0  0
 21 22  2  0  0  0  0
 22 23  1  0  0  0  0
 23 16  1  0  0  0  0
 24 23  2  0  0  0  0
 25 19  1  0  0  0  0
 26 21  1  0  0  0  0
 27 20  1  0  0  0  0
 28 27  1  0  0  0  0
 29 27  1  0  0  0  0
M  END
>  <minimizedAffinity>
-4.72158384

$$$$
