
 OpenBabel03252508543D

 42 45  0  0  1  0  0  0  0  0999 V2000
   43.3270   34.4450   40.7160 C   0  0  0  0  0  0  0  0  0  0  0  0
   43.2740   35.6290   40.2770 O   0  0  0  0  0  0  0  0  0  0  0  0
   41.9690   34.0260   40.4580 N   0  0  0  0  0  0  0  0  0  0  0  0
   41.5560   34.0540   39.0730 C   0  0  0  0  0  0  0  0  0  0  0  0
   40.7540   35.3630   38.9260 C   0  0  0  0  0  0  0  0  0  0  0  0
   39.9890   35.5350   40.2280 C   0  0  0  0  0  0  0  0  0  0  0  0
   39.6470   34.1850   40.8660 C   0  0  0  0  0  0  0  0  0  0  0  0
   40.9340   33.5730   41.3880 C   0  0  1  0  0  0  0  0  0  0  0  0
   40.8980   33.1810   38.8580 H   0  0  0  0  0  0  0  0  0  0  0  0
   42.3910   34.0990   38.3690 H   0  0  0  0  0  0  0  0  0  0  0  0
   41.4730   36.2020   38.7970 H   0  0  0  0  0  0  0  0  0  0  0  0
   40.0300   35.2740   38.0980 H   0  0  0  0  0  0  0  0  0  0  0  0
   39.0980   36.1490   40.1000 H   0  0  0  0  0  0  0  0  0  0  0  0
   40.6370   36.0720   40.9750 H   0  0  0  0  0  0  0  0  0  0  0  0
   39.2260   33.5200   40.1150 H   0  0  0  0  0  0  0  0  0  0  0  0
   38.9730   34.4400   41.7090 H   0  0  0  0  0  0  0  0  0  0  0  0
   41.1560   34.0960   42.3470 H   0  0  0  0  0  0  0  0  0  0  0  0
   40.8940   32.1180   41.5100 C   0  0  0  0  0  0  0  0  0  0  0  0
   41.4590   31.1660   40.6770 C   0  0  0  0  0  0  0  0  0  0  0  0
   42.0320   31.3530   39.7860 H   0  0  0  0  0  0  0  0  0  0  0  0
   41.1210   29.9540   41.2470 C   0  0  0  0  0  0  0  0  0  0  0  0
   41.3790   28.9640   40.8890 H   0  0  0  0  0  0  0  0  0  0  0  0
   40.3710   30.2520   42.3900 C   0  0  0  0  0  0  0  0  0  0  0  0
   39.9530   29.5110   43.0660 H   0  0  0  0  0  0  0  0  0  0  0  0
   40.2470   31.5690   42.5290 O   0  0  0  0  0  0  0  0  0  0  0  0
   44.3950   33.7840   41.2720 O   0  0  0  0  0  0  0  0  0  0  0  0
   45.7240   34.1180   41.1160 C   0  0  0  0  0  0  0  0  0  0  0  0
   46.3680   34.7480   42.1920 C   0  0  0  0  0  0  0  0  0  0  0  0
   47.7250   35.0720   41.9950 C   0  0  0  0  0  0  0  0  0  0  0  0
   48.3150   34.7590   40.7970 N   0  0  0  0  0  0  0  0  0  0  0  0
   47.6480   34.1640   39.8220 C   0  0  0  0  0  0  0  0  0  0  0  0
   46.3500   33.8340   39.9610 N   0  0  0  0  0  0  0  0  0  0  0  0
   48.2520   35.5570   42.7990 H   0  0  0  0  0  0  0  0  0  0  0  0
   48.0970   33.9090   38.8670 H   0  0  0  0  0  0  0  0  0  0  0  0
   45.6460   35.0280   43.4100 C   0  0  0  0  0  0  0  0  0  0  0  0
   45.0030   36.2430   43.6300 C   0  0  0  0  0  0  0  0  0  0  0  0
   44.4530   36.0890   44.8870 C   0  0  0  0  0  0  0  0  0  0  0  0
   44.7440   34.8670   45.3860 N   0  0  0  0  0  0  0  0  0  0  0  0
   45.4660   34.2420   44.4760 N   0  0  0  0  0  0  0  0  0  0  0  0
   44.9360   37.1110   42.9930 H   0  0  0  0  0  0  0  0  0  0  0  0
   43.8550   36.8400   45.4290 H   0  0  0  0  0  0  0  0  0  0  0  0
   44.4900   34.4190   46.3000 H   0  0  0  0  0  0  0  0  0  0  0  0
  1 26  1  0  0  0  0
  2  1  2  0  0  0  0
  3  1  1  0  0  0  0
  3  8  1  0  0  0  0
  4  3  1  0  0  0  0
  5  4  1  0  0  0  0
  5  6  1  0  0  0  0
  6  7  1  0  0  0  0
  6 14  1  0  0  0  0
  7  8  1  0  0  0  0
  7 16  1  0  0  0  0
  8 18  1  0  0  0  0
  8 17  1  1  0  0  0
  9  4  1  0  0  0  0
 10  4  1  0  0  0  0
 11  5  1  0  0  0  0
 12  5  1  0  0  0  0
 13  6  1  0  0  0  0
 15  7  1  0  0  0  0
 18 25  1  0  0  0  0
 19 21  1  0  0  0  0
 19 18  2  0  0  0  0
 20 19  1  0  0  0  0
 21 23  2  0  0  0  0
 22 21  1  0  0  0  0
 23 25  1  0  0  0  0
 23 24  1  0  0  0  0
 27 26  1  0  0  0  0
 27 28  1  0  0  0  0
 28 35  1  0  0  0  0
 29 28  2  0  0  0  0
 29 33  1  0  0  0  0
 30 29  1  0  0  0  0
 31 32  1  0  0  0  0
 31 30  2  0  0  0  0
 32 27  2  0  0  0  0
 34 31  1  0  0  0  0
 35 36  1  0  0  0  0
 35 39  2  0  0  0  0
 36 37  2  0  0  0  0
 37 38  1  0  0  0  0
 37 41  1  0  0  0  0
 38 42  1  0  0  0  0
 39 38  1  0  0  0  0
 40 36  1  0  0  0  0
M  END
>  <minimizedAffinity>
-6.59689379

>  <minimizedRMSD>
0.370248646

$$$$
