REMARK  Name = 
REMARK  3 active torsions:
REMARK  status: ('A' for Active; 'I' for Inactive)
REMARK    1  A    between atoms: C_2  and  C_14
REMARK    2  A    between atoms: C_9  and  C_16
REMARK    3  A    between atoms: C_19  and  C_30
REMARK                            x       y       z     vdW  Elec       q    Type
REMARK                         _______ _______ _______ _____ _____    ______ ____
ROOT
ATOM      1  C   UNL     1      47.265  31.388  45.148  0.00  0.00    +0.000 A 
ATOM      2  C   UNL     1      46.874  32.720  45.136  0.00  0.00    +0.000 A 
ATOM      3  C   UNL     1      46.244  33.325  46.198  0.00  0.00    +0.000 A 
ATOM      4  C   UNL     1      45.970  32.598  47.355  0.00  0.00    +0.000 A 
ATOM      5  N   UNL     1      45.384  32.845  48.564  0.00  0.00    +0.000 N 
ATOM      6  C   UNL     1      45.412  31.705  49.298  0.00  0.00    +0.000 A 
ATOM      7  N   UNL     1      46.016  30.762  48.536  0.00  0.00    +0.000 NA
ATOM      8  C   UNL     1      46.367  31.284  47.339  0.00  0.00    +0.000 A 
ATOM      9  C   UNL     1      46.993  30.651  46.307  0.00  0.00    +0.000 A 
ATOM     10  H   UNL     1      47.758  30.937  44.301  0.00  0.00    +0.000 HD
ATOM     11  H   UNL     1      45.934  34.368  46.195  0.00  0.00    +0.000 HD
ATOM     12  H   UNL     1      45.000  33.786  48.808  0.00  0.00    +0.000 HD
ATOM     13  H   UNL     1      45.006  31.653  50.294  0.00  0.00    +0.000 HD
ENDROOT
BRANCH   2  18
ATOM     14  C   UNL     1      46.476  35.188  42.427  0.00  0.00    +0.000 A 
ATOM     15  C   UNL     1      47.659  35.017  41.700  0.00  0.00    +0.000 A 
ATOM     16  C   UNL     1      48.580  34.066  42.136  0.00  0.00    +0.000 A 
ATOM     17  N   UNL     1      48.285  33.337  43.263  0.00  0.00    +0.000 NA
ATOM     18  C   UNL     1      47.141  33.522  43.942  0.00  0.00    +0.000 A 
ATOM     19  N   UNL     1      46.233  34.440  43.536  0.00  0.00    +0.000 NA
ATOM     20  H   UNL     1      45.778  35.934  42.066  0.00  0.00    +0.000 HD
ATOM     21  H   UNL     1      47.916  35.574  40.815  0.00  0.00    +0.000 HD
ATOM     22  H   UNL     1      49.518  33.856  41.651  0.00  0.00    +0.000 HD
ENDBRANCH   2  18
BRANCH   9  23
ATOM     23  C   UNL     1      47.376  29.239  46.397  0.00  0.00    +0.000 A 
ATOM     24  C   UNL     1      48.658  28.791  46.606  0.00  0.00    +0.000 A 
ATOM     25  C   UNL     1      48.552  27.397  46.619  0.00  0.00    +0.000 A 
ATOM     26  C   UNL     1      47.226  27.086  46.419  0.00  0.00    +0.000 A 
ATOM     27  O   UNL     1      46.560  28.236  46.291  0.00  0.00    +0.000 OA
ATOM     28  H   UNL     1      49.589  29.329  46.739  0.00  0.00    +0.000 HD
ATOM     29  H   UNL     1      49.313  26.644  46.753  0.00  0.00    +0.000 HD
BRANCH  26  30
ATOM     30  C   UNL     1      46.541  25.798  46.340  0.00  0.00    +0.000 A 
ATOM     31  C   UNL     1      47.080  24.753  45.584  0.00  0.00    +0.000 A 
ATOM     32  H   UNL     1      48.008  24.749  44.995  0.00  0.00    +0.000 HD
ATOM     33  C   UNL     1      46.253  23.650  45.668  0.00  0.00    +0.000 A 
ATOM     34  H   UNL     1      46.298  22.663  45.248  0.00  0.00    +0.000 HD
ATOM     35  C   UNL     1      45.235  24.089  46.487  0.00  0.00    +0.000 A 
ATOM     36  H   UNL     1      44.345  23.619  46.863  0.00  0.00    +0.000 HD
ATOM     37  O   UNL     1      45.427  25.344  46.864  0.00  0.00    +0.000 OA
ENDBRANCH  26  30
ENDBRANCH   9  23
TORSDOF 3
