
 OpenBabel03252506573D

 37 41  0  0  0  0  0  0  0  0999 V2000
   46.2290   31.2910   45.0280 C   0  0  0  0  0  0  0  0  0  0  0  0
   46.3900   32.6520   45.2520 C   0  0  0  0  0  0  0  0  0  0  0  0
   46.2130   33.2340   46.4850 C   0  0  0  0  0  0  0  0  0  0  0  0
   45.8560   32.4530   47.5820 C   0  0  0  0  0  0  0  0  0  0  0  0
   45.6030   32.6650   48.9080 N   0  0  0  0  0  0  0  0  0  0  0  0
   45.2960   31.4770   49.4840 C   0  0  0  0  0  0  0  0  0  0  0  0
   45.3620   30.5390   48.5090 N   0  0  0  0  0  0  0  0  0  0  0  0
   45.7040   31.1120   47.3330 C   0  0  0  0  0  0  0  0  0  0  0  0
   45.8700   30.5000   46.1260 C   0  0  0  0  0  0  0  0  0  0  0  0
   46.3730   30.8590   44.0510 H   0  0  0  0  0  0  0  0  0  0  0  0
   46.3370   34.3000   46.6660 H   0  0  0  0  0  0  0  0  0  0  0  0
   45.6570   33.6190   49.3330 H   0  0  0  0  0  0  0  0  0  0  0  0
   45.0570   31.3900   50.5300 H   0  0  0  0  0  0  0  0  0  0  0  0
   46.2490   35.2680   42.6580 C   0  0  0  0  0  0  0  0  0  0  0  0
   47.4830   35.1120   42.0190 C   0  0  0  0  0  0  0  0  0  0  0  0
   48.3510   34.1210   42.4740 C   0  0  0  0  0  0  0  0  0  0  0  0
   47.9560   33.3390   43.5320 N   0  0  0  0  0  0  0  0  0  0  0  0
   46.7640   33.5110   44.1280 C   0  0  0  0  0  0  0  0  0  0  0  0
   45.9060   34.4670   43.7020 N   0  0  0  0  0  0  0  0  0  0  0  0
   45.5940   36.0460   42.2850 H   0  0  0  0  0  0  0  0  0  0  0  0
   47.8190   35.7100   41.1890 H   0  0  0  0  0  0  0  0  0  0  0  0
   49.3220   33.9190   42.0540 H   0  0  0  0  0  0  0  0  0  0  0  0
   45.6820   29.0540   45.9710 C   0  0  0  0  0  0  0  0  0  0  0  0
   46.6960   28.1580   45.7340 C   0  0  0  0  0  0  0  0  0  0  0  0
   46.0630   26.9140   45.6590 C   0  0  0  0  0  0  0  0  0  0  0  0
   44.7170   27.1280   45.8530 C   0  0  0  0  0  0  0  0  0  0  0  0
   44.5420   28.4390   46.0370 O   0  0  0  0  0  0  0  0  0  0  0  0
   47.7640   28.3020   45.6180 H   0  0  0  0  0  0  0  0  0  0  0  0
   46.4770   25.9330   45.4850 H   0  0  0  0  0  0  0  0  0  0  0  0
   43.5890   26.2000   45.8790 C   0  0  0  0  0  0  0  0  0  0  0  0
   42.3210   26.6320   46.2780 C   0  0  0  0  0  0  0  0  0  0  0  0
   42.0170   27.6380   46.6000 H   0  0  0  0  0  0  0  0  0  0  0  0
   41.4340   25.5760   46.2170 C   0  0  0  0  0  0  0  0  0  0  0  0
   40.3870   25.4800   46.4330 H   0  0  0  0  0  0  0  0  0  0  0  0
   42.2230   24.5350   45.7750 C   0  0  0  0  0  0  0  0  0  0  0  0
   42.0180   23.5010   45.5640 H   0  0  0  0  0  0  0  0  0  0  0  0
   43.4740   24.9250   45.5860 O   0  0  0  0  0  0  0  0  0  0  0  0
  1  2  2  0  0  0  0
  1  9  1  0  0  0  0
  2  3  1  0  0  0  0
  3 11  1  0  0  0  0
  3  4  2  0  0  0  0
  4  5  1  0  0  0  0
  5 12  1  0  0  0  0
  5  6  1  0  0  0  0
  6 13  1  0  0  0  0
  7  6  2  0  0  0  0
  8  4  1  0  0  0  0
  8  7  1  0  0  0  0
  9  8  2  0  0  0  0
 10  1  1  0  0  0  0
 14 19  1  0  0  0  0
 15 16  1  0  0  0  0
 15 14  2  0  0  0  0
 16 17  2  0  0  0  0
 17 18  1  0  0  0  0
 18  2  1  0  0  0  0
 19 18  2  0  0  0  0
 20 14  1  0  0  0  0
 21 15  1  0  0  0  0
 22 16  1  0  0  0  0
 23 27  1  0  0  0  0
 23  9  1  0  0  0  0
 24 23  2  0  0  0  0
 25 24  1  0  0  0  0
 25 26  2  0  0  0  0
 26 30  1  0  0  0  0
 26 27  1  0  0  0  0
 28 24  1  0  0  0  0
 29 25  1  0  0  0  0
 30 31  2  0  0  0  0
 31 32  1  0  0  0  0
 33 31  1  0  0  0  0
 33 34  1  0  0  0  0
 35 33  2  0  0  0  0
 36 35  1  0  0  0  0
 37 35  1  0  0  0  0
 37 30  1  0  0  0  0
M  END
>  <minimizedAffinity>
-5.77880669

>  <minimizedRMSD>
1.88822424

$$$$
