
 OpenBabel03242516513D

 42 45  0  0  1  0  0  0  0  0999 V2000
   36.6220   30.5140   39.2130 C   0  0  1  0  0  0  0  0  0  0  0  0
   36.8050   29.5960   38.0710 C   0  0  0  0  0  0  0  0  0  0  0  0
   35.4040   29.3840   37.4870 C   0  0  0  0  0  0  0  0  0  0  0  0
   34.6520   28.5400   38.5040 C   0  0  0  0  0  0  0  0  0  0  0  0
   34.6080   29.1520   39.8710 C   0  0  0  0  0  0  0  0  0  0  0  0
   35.7930   29.8980   40.3220 C   0  0  1  0  0  0  0  0  0  0  0  0
   35.9870   31.3880   38.8740 H   0  0  0  0  0  0  0  0  0  0  0  0
   37.2180   28.6170   38.3320 H   0  0  0  0  0  0  0  0  0  0  0  0
   37.4410   30.1160   37.3080 H   0  0  0  0  0  0  0  0  0  0  0  0
   34.9130   30.3330   37.2790 H   0  0  0  0  0  0  0  0  0  0  0  0
   35.5490   28.7400   36.5910 H   0  0  0  0  0  0  0  0  0  0  0  0
   33.6180   28.3580   38.1540 H   0  0  0  0  0  0  0  0  0  0  0  0
   35.1570   27.5500   38.5110 H   0  0  0  0  0  0  0  0  0  0  0  0
   33.6830   29.7840   39.9070 H   0  0  0  0  0  0  0  0  0  0  0  0
   34.4060   28.3160   40.5990 H   0  0  0  0  0  0  0  0  0  0  0  0
   35.4430   30.7820   40.9380 H   0  0  0  0  0  0  0  0  0  0  0  0
   38.9510   32.9310   40.9440 C   0  0  0  0  0  0  0  0  0  0  0  0
   37.8180   32.3220   40.4110 C   0  0  0  0  0  0  0  0  0  0  0  0
   37.8400   31.0990   39.7570 C   0  0  0  0  0  0  0  0  0  0  0  0
   39.0450   30.5150   39.6600 N   0  0  0  0  0  0  0  0  0  0  0  0
   40.1580   31.0930   40.1710 C   0  0  0  0  0  0  0  0  0  0  0  0
   40.1250   32.2650   40.7970 N   0  0  0  0  0  0  0  0  0  0  0  0
   38.9070   33.8750   41.4450 H   0  0  0  0  0  0  0  0  0  0  0  0
   36.8820   32.8540   40.5300 H   0  0  0  0  0  0  0  0  0  0  0  0
   41.0460   30.4880   40.0060 H   0  0  0  0  0  0  0  0  0  0  0  0
   36.6380   29.1330   41.2550 C   0  0  0  0  0  0  0  0  0  0  0  0
   37.2280   29.6050   42.4330 C   0  0  0  0  0  0  0  0  0  0  0  0
   37.9710   28.6640   43.1630 C   0  0  0  0  0  0  0  0  0  0  0  0
   38.0580   27.3830   42.6760 C   0  0  0  0  0  0  0  0  0  0  0  0
   37.4730   26.9340   41.5150 C   0  0  0  0  0  0  0  0  0  0  0  0
   36.7590   27.8390   40.8130 N   0  0  0  0  0  0  0  0  0  0  0  0
   37.0490   30.6330   42.6500 H   0  0  0  0  0  0  0  0  0  0  0  0
   38.4090   29.0410   44.0520 H   0  0  0  0  0  0  0  0  0  0  0  0
   38.6540   26.7200   43.3070 H   0  0  0  0  0  0  0  0  0  0  0  0
   37.6290   25.5420   41.0820 C   0  0  0  0  0  0  0  0  0  0  0  0
   36.9190   24.4780   41.6030 C   0  0  0  0  0  0  0  0  0  0  0  0
   36.1600   24.4410   42.3760 H   0  0  0  0  0  0  0  0  0  0  0  0
   37.4210   23.3970   40.8780 C   0  0  0  0  0  0  0  0  0  0  0  0
   37.1410   22.3550   40.9620 H   0  0  0  0  0  0  0  0  0  0  0  0
   38.3850   23.8530   39.9770 C   0  0  0  0  0  0  0  0  0  0  0  0
   38.9860   23.3170   39.2550 H   0  0  0  0  0  0  0  0  0  0  0  0
   38.4520   25.1570   40.1630 O   0  0  0  0  0  0  0  0  0  0  0  0
  1  7  1  6  0  0  0
  1 19  1  0  0  0  0
  1  6  1  0  0  0  0
  2  8  1  0  0  0  0
  2  1  1  0  0  0  0
  3  2  1  0  0  0  0
  3  4  1  0  0  0  0
  4 13  1  0  0  0  0
  4  5  1  0  0  0  0
  5 14  1  0  0  0  0
  5  6  1  0  0  0  0
  5 15  1  0  0  0  0
  6 16  1  1  0  0  0
  6 26  1  0  0  0  0
  9  2  1  0  0  0  0
 10  3  1  0  0  0  0
 11  3  1  0  0  0  0
 12  4  1  0  0  0  0
 17 23  1  0  0  0  0
 18 24  1  0  0  0  0
 18 17  2  0  0  0  0
 19 18  1  0  0  0  0
 20 19  2  0  0  0  0
 20 21  1  0  0  0  0
 21 22  2  0  0  0  0
 22 17  1  0  0  0  0
 25 21  1  0  0  0  0
 26 27  1  0  0  0  0
 27 32  1  0  0  0  0
 27 28  2  0  0  0  0
 28 33  1  0  0  0  0
 29 28  1  0  0  0  0
 29 34  1  0  0  0  0
 30 29  2  0  0  0  0
 31 26  2  0  0  0  0
 31 30  1  0  0  0  0
 35 30  1  0  0  0  0
 35 36  2  0  0  0  0
 36 37  1  0  0  0  0
 38 39  1  0  0  0  0
 38 36  1  0  0  0  0
 40 42  1  0  0  0  0
 40 38  2  0  0  0  0
 41 40  1  0  0  0  0
 42 35  1  0  0  0  0
M  END
>  <minimizedAffinity>
-6.11039543

$$$$

 OpenBabel03242516513D

 42 45  0  0  1  0  0  0  0  0999 V2000
   38.3540   26.6110   41.3800 C   0  0  1  0  0  0  0  0  0  0  0  0
   39.3230   27.5020   42.0500 C   0  0  0  0  0  0  0  0  0  0  0  0
   38.9620   27.4520   43.5390 C   0  0  0  0  0  0  0  0  0  0  0  0
   37.6430   28.1970   43.6730 C   0  0  0  0  0  0  0  0  0  0  0  0
   36.5530   27.6410   42.8080 C   0  0  0  0  0  0  0  0  0  0  0  0
   36.9310   27.1220   41.4850 C   0  0  1  0  0  0  0  0  0  0  0  0
   38.3170   25.6310   41.9450 H   0  0  0  0  0  0  0  0  0  0  0  0
   39.2870   28.5460   41.7240 H   0  0  0  0  0  0  0  0  0  0  0  0
   40.3460   27.0660   41.9100 H   0  0  0  0  0  0  0  0  0  0  0  0
   38.9070   26.4260   43.9000 H   0  0  0  0  0  0  0  0  0  0  0  0
   39.7280   28.0760   44.0520 H   0  0  0  0  0  0  0  0  0  0  0  0
   37.3100   28.1890   44.7290 H   0  0  0  0  0  0  0  0  0  0  0  0
   37.8660   29.2580   43.4250 H   0  0  0  0  0  0  0  0  0  0  0  0
   36.0270   26.8650   43.4220 H   0  0  0  0  0  0  0  0  0  0  0  0
   35.7900   28.4580   42.6740 H   0  0  0  0  0  0  0  0  0  0  0  0
   36.2880   26.2170   41.2610 H   0  0  0  0  0  0  0  0  0  0  0  0
   38.4560   24.7030   38.1220 C   0  0  0  0  0  0  0  0  0  0  0  0
   38.1850   25.0910   39.4320 C   0  0  0  0  0  0  0  0  0  0  0  0
   38.6650   26.2600   40.0010 C   0  0  0  0  0  0  0  0  0  0  0  0
   39.4290   27.0230   39.2010 N   0  0  0  0  0  0  0  0  0  0  0  0
   39.7040   26.6600   37.9250 C   0  0  0  0  0  0  0  0  0  0  0  0
   39.2370   25.5370   37.3910 N   0  0  0  0  0  0  0  0  0  0  0  0
   38.0720   23.7950   37.7080 H   0  0  0  0  0  0  0  0  0  0  0  0
   37.5610   24.4240   40.0140 H   0  0  0  0  0  0  0  0  0  0  0  0
   40.3340   27.3880   37.4210 H   0  0  0  0  0  0  0  0  0  0  0  0
   36.6190   28.0550   40.3880 C   0  0  0  0  0  0  0  0  0  0  0  0
   35.8600   27.7810   39.2440 C   0  0  0  0  0  0  0  0  0  0  0  0
   35.6860   28.8540   38.3560 C   0  0  0  0  0  0  0  0  0  0  0  0
   36.2620   30.0600   38.6710 C   0  0  0  0  0  0  0  0  0  0  0  0
   37.0060   30.3140   39.8000 C   0  0  0  0  0  0  0  0  0  0  0  0
   37.1730   29.2820   40.6530 N   0  0  0  0  0  0  0  0  0  0  0  0
   35.4940   26.7830   39.1710 H   0  0  0  0  0  0  0  0  0  0  0  0
   35.1080   28.6260   37.4970 H   0  0  0  0  0  0  0  0  0  0  0  0
   36.0750   30.8360   37.9250 H   0  0  0  0  0  0  0  0  0  0  0  0
   37.5780   31.6410   40.0420 C   0  0  0  0  0  0  0  0  0  0  0  0
   37.1980   32.7890   39.3740 C   0  0  0  0  0  0  0  0  0  0  0  0
   36.4610   32.9460   38.5950 H   0  0  0  0  0  0  0  0  0  0  0  0
   38.0170   33.7590   39.9520 C   0  0  0  0  0  0  0  0  0  0  0  0
   38.0540   34.8170   39.7250 H   0  0  0  0  0  0  0  0  0  0  0  0
   38.8300   33.1620   40.9170 C   0  0  0  0  0  0  0  0  0  0  0  0
   39.5840   33.5870   41.5660 H   0  0  0  0  0  0  0  0  0  0  0  0
   38.5050   31.8840   40.9100 O   0  0  0  0  0  0  0  0  0  0  0  0
  1  6  1  0  0  0  0
  1  7  1  1  0  0  0
  1  2  1  0  0  0  0
  2  3  1  0  0  0  0
  3  4  1  0  0  0  0
  3 10  1  0  0  0  0
  3 11  1  0  0  0  0
  4 12  1  0  0  0  0
  5 14  1  0  0  0  0
  5  4  1  0  0  0  0
  6 16  1  6  0  0  0
  6  5  1  0  0  0  0
  8  2  1  0  0  0  0
  9  2  1  0  0  0  0
 13  4  1  0  0  0  0
 15  5  1  0  0  0  0
 17 18  1  0  0  0  0
 18 19  2  0  0  0  0
 18 24  1  0  0  0  0
 19  1  1  0  0  0  0
 20 19  1  0  0  0  0
 21 20  2  0  0  0  0
 22 21  1  0  0  0  0
 22 17  2  0  0  0  0
 23 17  1  0  0  0  0
 25 21  1  0  0  0  0
 26 31  1  0  0  0  0
 26  6  1  0  0  0  0
 27 26  2  0  0  0  0
 28 29  2  0  0  0  0
 28 27  1  0  0  0  0
 29 30  1  0  0  0  0
 30 35  1  0  0  0  0
 30 31  2  0  0  0  0
 32 27  1  0  0  0  0
 33 28  1  0  0  0  0
 34 29  1  0  0  0  0
 35 42  1  0  0  0  0
 36 38  1  0  0  0  0
 36 35  2  0  0  0  0
 37 36  1  0  0  0  0
 38 40  2  0  0  0  0
 39 38  1  0  0  0  0
 40 41  1  0  0  0  0
 42 40  1  0  0  0  0
M  END
>  <minimizedAffinity>
-5.57608986

$$$$

 OpenBabel03242516513D

 42 45  0  0  1  0  0  0  0  0999 V2000
   38.1750   30.5110   39.9560 C   0  0  1  0  0  0  0  0  0  0  0  0
   37.8890   31.7570   40.6950 C   0  0  0  0  0  0  0  0  0  0  0  0
   39.2350   32.4830   40.8090 C   0  0  0  0  0  0  0  0  0  0  0  0
   40.0650   31.6700   41.7900 C   0  0  0  0  0  0  0  0  0  0  0  0
   40.2280   30.2360   41.3880 C   0  0  0  0  0  0  0  0  0  0  0  0
   39.0900   29.5800   40.7250 C   0  0  1  0  0  0  0  0  0  0  0  0
   38.7840   30.7690   39.0380 H   0  0  0  0  0  0  0  0  0  0  0  0
   37.4940   31.6110   41.7050 H   0  0  0  0  0  0  0  0  0  0  0  0
   37.1940   32.3770   40.0710 H   0  0  0  0  0  0  0  0  0  0  0  0
   39.7120   32.5880   39.8350 H   0  0  0  0  0  0  0  0  0  0  0  0
   39.0100   33.4500   41.3120 H   0  0  0  0  0  0  0  0  0  0  0  0
   41.0640   32.1300   41.9110 H   0  0  0  0  0  0  0  0  0  0  0  0
   39.5560   31.7680   42.7730 H   0  0  0  0  0  0  0  0  0  0  0  0
   41.1560   30.1850   40.7630 H   0  0  0  0  0  0  0  0  0  0  0  0
   40.4860   29.6600   42.3210 H   0  0  0  0  0  0  0  0  0  0  0  0
   39.4970   28.8710   39.9400 H   0  0  0  0  0  0  0  0  0  0  0  0
   34.6330   29.2310   39.6660 C   0  0  0  0  0  0  0  0  0  0  0  0
   35.7770   29.9050   40.0870 C   0  0  0  0  0  0  0  0  0  0  0  0
   37.0100   29.7850   39.4660 C   0  0  0  0  0  0  0  0  0  0  0  0
   37.0490   28.9610   38.4070 N   0  0  0  0  0  0  0  0  0  0  0  0
   35.9460   28.2960   37.9840 C   0  0  0  0  0  0  0  0  0  0  0  0
   34.7690   28.4200   38.5860 N   0  0  0  0  0  0  0  0  0  0  0  0
   33.6930   29.3420   40.1630 H   0  0  0  0  0  0  0  0  0  0  0  0
   35.6660   30.5520   40.9490 H   0  0  0  0  0  0  0  0  0  0  0  0
   36.1530   27.6740   37.1170 H   0  0  0  0  0  0  0  0  0  0  0  0
   38.3220   28.7040   41.6260 C   0  0  0  0  0  0  0  0  0  0  0  0
   37.7720   29.0520   42.8650 C   0  0  0  0  0  0  0  0  0  0  0  0
   37.0580   28.0360   43.5220 C   0  0  0  0  0  0  0  0  0  0  0  0
   36.9590   26.8110   42.9120 C   0  0  0  0  0  0  0  0  0  0  0  0
   37.5060   26.4840   41.6920 C   0  0  0  0  0  0  0  0  0  0  0  0
   38.1920   27.4600   41.0620 N   0  0  0  0  0  0  0  0  0  0  0  0
   37.9540   30.0540   43.1790 H   0  0  0  0  0  0  0  0  0  0  0  0
   36.6490   28.3190   44.4590 H   0  0  0  0  0  0  0  0  0  0  0  0
   36.3870   26.0830   43.4930 H   0  0  0  0  0  0  0  0  0  0  0  0
   37.3410   25.1420   41.1280 C   0  0  0  0  0  0  0  0  0  0  0  0
   38.1070   24.0480   41.4780 C   0  0  0  0  0  0  0  0  0  0  0  0
   38.9250   23.9490   42.1820 H   0  0  0  0  0  0  0  0  0  0  0  0
   37.5700   23.0360   40.6810 C   0  0  0  0  0  0  0  0  0  0  0  0
   37.8740   21.9980   40.6320 H   0  0  0  0  0  0  0  0  0  0  0  0
   36.5310   23.5580   39.9090 C   0  0  0  0  0  0  0  0  0  0  0  0
   35.8850   23.0860   39.1810 H   0  0  0  0  0  0  0  0  0  0  0  0
   36.4560   24.8340   40.2370 O   0  0  0  0  0  0  0  0  0  0  0  0
  1  7  1  6  0  0  0
  1  2  1  0  0  0  0
  1  6  1  0  0  0  0
  2  3  1  0  0  0  0
  2  8  1  0  0  0  0
  3 11  1  0  0  0  0
  3  4  1  0  0  0  0
  4 12  1  0  0  0  0
  4 13  1  0  0  0  0
  5  4  1  0  0  0  0
  5 15  1  0  0  0  0
  6 16  1  6  0  0  0
  6  5  1  0  0  0  0
  6 26  1  0  0  0  0
  9  2  1  0  0  0  0
 10  3  1  0  0  0  0
 14  5  1  0  0  0  0
 17 18  1  0  0  0  0
 17 23  1  0  0  0  0
 18 24  1  0  0  0  0
 19  1  1  0  0  0  0
 19 18  2  0  0  0  0
 20 19  1  0  0  0  0
 21 20  2  0  0  0  0
 21 22  1  0  0  0  0
 22 17  2  0  0  0  0
 25 21  1  0  0  0  0
 26 27  1  0  0  0  0
 27 32  1  0  0  0  0
 27 28  2  0  0  0  0
 28 33  1  0  0  0  0
 29 34  1  0  0  0  0
 29 28  1  0  0  0  0
 30 29  2  0  0  0  0
 31 26  2  0  0  0  0
 31 30  1  0  0  0  0
 35 36  2  0  0  0  0
 35 30  1  0  0  0  0
 36 37  1  0  0  0  0
 38 36  1  0  0  0  0
 39 38  1  0  0  0  0
 40 42  1  0  0  0  0
 40 38  2  0  0  0  0
 41 40  1  0  0  0  0
 42 35  1  0  0  0  0
M  END
>  <minimizedAffinity>
-5.51875257

$$$$

 OpenBabel03242516513D

 42 45  0  0  1  0  0  0  0  0999 V2000
   37.3640   30.3710   38.7260 C   0  0  1  0  0  0  0  0  0  0  0  0
   36.9490   28.9570   38.6370 C   0  0  0  0  0  0  0  0  0  0  0  0
   35.4380   28.9560   38.8980 C   0  0  0  0  0  0  0  0  0  0  0  0
   35.2700   29.2850   40.3730 C   0  0  0  0  0  0  0  0  0  0  0  0
   35.9120   30.5780   40.7730 C   0  0  0  0  0  0  0  0  0  0  0  0
   37.1770   30.9430   40.1170 C   0  0  1  0  0  0  0  0  0  0  0  0
   36.6570   30.9930   38.0960 H   0  0  0  0  0  0  0  0  0  0  0  0
   37.4220   28.2940   39.3680 H   0  0  0  0  0  0  0  0  0  0  0  0
   37.1370   28.6070   37.5890 H   0  0  0  0  0  0  0  0  0  0  0  0
   34.9230   29.6600   38.2450 H   0  0  0  0  0  0  0  0  0  0  0  0
   35.1150   27.8980   38.7720 H   0  0  0  0  0  0  0  0  0  0  0  0
   34.1940   29.3170   40.6320 H   0  0  0  0  0  0  0  0  0  0  0  0
   35.6970   28.4220   40.9280 H   0  0  0  0  0  0  0  0  0  0  0  0
   35.1330   31.3730   40.6410 H   0  0  0  0  0  0  0  0  0  0  0  0
   36.0800   30.5310   41.8860 H   0  0  0  0  0  0  0  0  0  0  0  0
   37.1870   32.0650   39.9650 H   0  0  0  0  0  0  0  0  0  0  0  0
   40.9410   29.9010   37.6090 C   0  0  0  0  0  0  0  0  0  0  0  0
   39.6470   29.6710   38.0720 C   0  0  0  0  0  0  0  0  0  0  0  0
   38.7010   30.6710   38.2310 C   0  0  0  0  0  0  0  0  0  0  0  0
   39.1050   31.9100   37.9070 N   0  0  0  0  0  0  0  0  0  0  0  0
   40.3600   32.1520   37.4560 C   0  0  0  0  0  0  0  0  0  0  0  0
   41.2590   31.1850   37.3070 N   0  0  0  0  0  0  0  0  0  0  0  0
   41.6520   29.1100   37.4950 H   0  0  0  0  0  0  0  0  0  0  0  0
   39.3950   28.6450   38.3120 H   0  0  0  0  0  0  0  0  0  0  0  0
   40.5210   33.2050   37.2410 H   0  0  0  0  0  0  0  0  0  0  0  0
   38.3590   30.6900   40.9580 C   0  0  0  0  0  0  0  0  0  0  0  0
   39.3320   31.6210   41.3380 C   0  0  0  0  0  0  0  0  0  0  0  0
   40.3520   31.1320   42.1710 C   0  0  0  0  0  0  0  0  0  0  0  0
   40.3150   29.8100   42.5380 C   0  0  0  0  0  0  0  0  0  0  0  0
   39.3510   28.9060   42.1550 C   0  0  0  0  0  0  0  0  0  0  0  0
   38.3710   29.3760   41.3550 N   0  0  0  0  0  0  0  0  0  0  0  0
   39.1940   32.6050   40.9540 H   0  0  0  0  0  0  0  0  0  0  0  0
   41.0790   31.8530   42.4480 H   0  0  0  0  0  0  0  0  0  0  0  0
   41.1450   29.5180   43.1850 H   0  0  0  0  0  0  0  0  0  0  0  0
   39.4050   27.5120   42.6050 C   0  0  0  0  0  0  0  0  0  0  0  0
   40.1890   27.0570   43.6460 C   0  0  0  0  0  0  0  0  0  0  0  0
   40.8750   27.5820   44.3010 H   0  0  0  0  0  0  0  0  0  0  0  0
   39.8910   25.6950   43.6750 C   0  0  0  0  0  0  0  0  0  0  0  0
   40.2870   24.9430   44.3460 H   0  0  0  0  0  0  0  0  0  0  0  0
   38.9630   25.4030   42.6740 C   0  0  0  0  0  0  0  0  0  0  0  0
   38.5000   24.4670   42.3910 H   0  0  0  0  0  0  0  0  0  0  0  0
   38.7210   26.5520   42.0730 O   0  0  0  0  0  0  0  0  0  0  0  0
  1  7  1  6  0  0  0
  1  6  1  0  0  0  0
  2  1  1  0  0  0  0
  2  3  1  0  0  0  0
  2  8  1  0  0  0  0
  3  4  1  0  0  0  0
  4 12  1  0  0  0  0
  4  5  1  0  0  0  0
  4 13  1  0  0  0  0
  5 15  1  0  0  0  0
  6 16  1  6  0  0  0
  6  5  1  0  0  0  0
  6 26  1  0  0  0  0
  9  2  1  0  0  0  0
 10  3  1  0  0  0  0
 11  3  1  0  0  0  0
 14  5  1  0  0  0  0
 17 18  1  0  0  0  0
 18 19  2  0  0  0  0
 18 24  1  0  0  0  0
 19  1  1  0  0  0  0
 20 19  1  0  0  0  0
 21 20  2  0  0  0  0
 22 21  1  0  0  0  0
 22 17  2  0  0  0  0
 23 17  1  0  0  0  0
 25 21  1  0  0  0  0
 26 27  2  0  0  0  0
 26 31  1  0  0  0  0
 27 28  1  0  0  0  0
 28 33  1  0  0  0  0
 28 29  2  0  0  0  0
 29 34  1  0  0  0  0
 30 29  1  0  0  0  0
 30 35  1  0  0  0  0
 31 30  2  0  0  0  0
 32 27  1  0  0  0  0
 35 36  2  0  0  0  0
 36 38  1  0  0  0  0
 36 37  1  0  0  0  0
 38 39  1  0  0  0  0
 40 38  2  0  0  0  0
 41 40  1  0  0  0  0
 42 35  1  0  0  0  0
 42 40  1  0  0  0  0
M  END
>  <minimizedAffinity>
-5.49857044

$$$$

 OpenBabel03242516513D

 42 45  0  0  1  0  0  0  0  0999 V2000
   38.5890   25.3750   42.0390 C   0  0  1  0  0  0  0  0  0  0  0  0
   39.6080   26.4120   42.2990 C   0  0  0  0  0  0  0  0  0  0  0  0
   39.2590   26.9920   43.6740 C   0  0  0  0  0  0  0  0  0  0  0  0
   37.9810   27.7920   43.4770 C   0  0  0  0  0  0  0  0  0  0  0  0
   36.8560   26.9860   42.9010 C   0  0  0  0  0  0  0  0  0  0  0  0
   37.1950   25.9540   41.9090 C   0  0  1  0  0  0  0  0  0  0  0  0
   38.5070   24.7130   42.9540 H   0  0  0  0  0  0  0  0  0  0  0  0
   39.6220   27.2320   41.5750 H   0  0  0  0  0  0  0  0  0  0  0  0
   40.6070   25.9060   42.3610 H   0  0  0  0  0  0  0  0  0  0  0  0
   39.1560   26.2070   44.4210 H   0  0  0  0  0  0  0  0  0  0  0  0
   40.0610   27.7310   43.8970 H   0  0  0  0  0  0  0  0  0  0  0  0
   37.6580   28.2320   44.4390 H   0  0  0  0  0  0  0  0  0  0  0  0
   38.2540   28.6460   42.8210 H   0  0  0  0  0  0  0  0  0  0  0  0
   36.2970   26.5550   43.7710 H   0  0  0  0  0  0  0  0  0  0  0  0
   36.1340   27.7150   42.4360 H   0  0  0  0  0  0  0  0  0  0  0  0
   36.5050   25.0700   42.0660 H   0  0  0  0  0  0  0  0  0  0  0  0
   38.5330   22.3150   39.8250 C   0  0  0  0  0  0  0  0  0  0  0  0
   38.2950   23.2160   40.8600 C   0  0  0  0  0  0  0  0  0  0  0  0
   38.8690   24.4760   40.9260 C   0  0  0  0  0  0  0  0  0  0  0  0
   39.6900   24.7940   39.9120 N   0  0  0  0  0  0  0  0  0  0  0  0
   39.9330   23.9290   38.8980 C   0  0  0  0  0  0  0  0  0  0  0  0
   39.3770   22.7240   38.8450 N   0  0  0  0  0  0  0  0  0  0  0  0
   38.0760   21.3480   39.7980 H   0  0  0  0  0  0  0  0  0  0  0  0
   37.6210   22.8880   41.6420 H   0  0  0  0  0  0  0  0  0  0  0  0
   40.6190   24.3440   38.1630 H   0  0  0  0  0  0  0  0  0  0  0  0
   36.9200   26.3720   40.5240 C   0  0  0  0  0  0  0  0  0  0  0  0
   36.3220   25.6040   39.5180 C   0  0  0  0  0  0  0  0  0  0  0  0
   36.1470   26.2450   38.2820 C   0  0  0  0  0  0  0  0  0  0  0  0
   36.5670   27.5460   38.1580 C   0  0  0  0  0  0  0  0  0  0  0  0
   37.1550   28.2890   39.1560 C   0  0  0  0  0  0  0  0  0  0  0  0
   37.3230   27.6720   40.3440 N   0  0  0  0  0  0  0  0  0  0  0  0
   36.0610   24.6100   39.8010 H   0  0  0  0  0  0  0  0  0  0  0  0
   35.6920   25.6460   37.5340 H   0  0  0  0  0  0  0  0  0  0  0  0
   36.3920   27.9650   37.1640 H   0  0  0  0  0  0  0  0  0  0  0  0
   37.5680   29.6750   38.9190 C   0  0  0  0  0  0  0  0  0  0  0  0
   36.7950   30.6220   38.2770 C   0  0  0  0  0  0  0  0  0  0  0  0
   35.8030   30.5550   37.8450 H   0  0  0  0  0  0  0  0  0  0  0  0
   37.6150   31.7500   38.3030 C   0  0  0  0  0  0  0  0  0  0  0  0
   37.4040   32.7340   37.9050 H   0  0  0  0  0  0  0  0  0  0  0  0
   38.8140   31.4350   38.9460 C   0  0  0  0  0  0  0  0  0  0  0  0
   39.6850   32.0420   39.1550 H   0  0  0  0  0  0  0  0  0  0  0  0
   38.7070   30.1650   39.2870 O   0  0  0  0  0  0  0  0  0  0  0  0
  1  2  1  0  0  0  0
  1  7  1  1  0  0  0
  2  9  1  0  0  0  0
  2  3  1  0  0  0  0
  3 11  1  0  0  0  0
  3 10  1  0  0  0  0
  4  3  1  0  0  0  0
  4 12  1  0  0  0  0
  5  4  1  0  0  0  0
  5 14  1  0  0  0  0
  6  1  1  0  0  0  0
  6 16  1  1  0  0  0
  6  5  1  0  0  0  0
  8  2  1  0  0  0  0
 13  4  1  0  0  0  0
 15  5  1  0  0  0  0
 17 18  1  0  0  0  0
 18 19  2  0  0  0  0
 18 24  1  0  0  0  0
 19  1  1  0  0  0  0
 20 19  1  0  0  0  0
 21 20  2  0  0  0  0
 22 21  1  0  0  0  0
 22 17  2  0  0  0  0
 23 17  1  0  0  0  0
 25 21  1  0  0  0  0
 26  6  1  0  0  0  0
 27 32  1  0  0  0  0
 27 26  2  0  0  0  0
 28 27  1  0  0  0  0
 29 28  2  0  0  0  0
 29 30  1  0  0  0  0
 30 31  2  0  0  0  0
 31 26  1  0  0  0  0
 33 28  1  0  0  0  0
 34 29  1  0  0  0  0
 35 30  1  0  0  0  0
 35 42  1  0  0  0  0
 36 38  1  0  0  0  0
 36 35  2  0  0  0  0
 37 36  1  0  0  0  0
 38 40  2  0  0  0  0
 39 38  1  0  0  0  0
 40 41  1  0  0  0  0
 40 42  1  0  0  0  0
M  END
>  <minimizedAffinity>
-5.41378164

$$$$

 OpenBabel03242516513D

 42 45  0  0  1  0  0  0  0  0999 V2000
   39.7090   32.3020   38.4500 C   0  0  1  0  0  0  0  0  0  0  0  0
   38.5770   31.3550   38.3890 C   0  0  0  0  0  0  0  0  0  0  0  0
   37.3150   32.2230   38.4450 C   0  0  0  0  0  0  0  0  0  0  0  0
   37.2470   32.7670   39.8630 C   0  0  0  0  0  0  0  0  0  0  0  0
   38.4730   33.5260   40.2700 C   0  0  0  0  0  0  0  0  0  0  0  0
   39.7700   33.0470   39.7680 C   0  0  1  0  0  0  0  0  0  0  0  0
   39.5280   33.1280   37.6970 H   0  0  0  0  0  0  0  0  0  0  0  0
   38.5360   30.6370   39.2140 H   0  0  0  0  0  0  0  0  0  0  0  0
   38.6160   30.8340   37.3970 H   0  0  0  0  0  0  0  0  0  0  0  0
   37.3390   33.0070   37.6910 H   0  0  0  0  0  0  0  0  0  0  0  0
   36.4620   31.5150   38.3390 H   0  0  0  0  0  0  0  0  0  0  0  0
   36.3600   33.4210   39.9750 H   0  0  0  0  0  0  0  0  0  0  0  0
   37.0690   31.8880   40.5190 H   0  0  0  0  0  0  0  0  0  0  0  0
   38.2910   34.5960   39.9900 H   0  0  0  0  0  0  0  0  0  0  0  0
   38.4990   33.5310   41.3960 H   0  0  0  0  0  0  0  0  0  0  0  0
   40.4230   33.9470   39.5550 H   0  0  0  0  0  0  0  0  0  0  0  0
   43.2800   32.0660   37.2420 C   0  0  0  0  0  0  0  0  0  0  0  0
   42.0170   32.5430   37.5820 C   0  0  0  0  0  0  0  0  0  0  0  0
   41.0160   31.7480   38.1210 C   0  0  0  0  0  0  0  0  0  0  0  0
   41.3360   30.4570   38.3050 N   0  0  0  0  0  0  0  0  0  0  0  0
   42.5600   29.9760   37.9800 C   0  0  0  0  0  0  0  0  0  0  0  0
   43.5120   30.7470   37.4640 N   0  0  0  0  0  0  0  0  0  0  0  0
   44.0350   32.7010   36.8280 H   0  0  0  0  0  0  0  0  0  0  0  0
   41.8340   33.5960   37.4050 H   0  0  0  0  0  0  0  0  0  0  0  0
   42.6510   28.9140   38.1920 H   0  0  0  0  0  0  0  0  0  0  0  0
   40.5330   32.2870   40.7720 C   0  0  0  0  0  0  0  0  0  0  0  0
   41.8370   32.5510   41.2100 C   0  0  0  0  0  0  0  0  0  0  0  0
   42.3330   31.6890   42.2020 C   0  0  0  0  0  0  0  0  0  0  0  0
   41.5210   30.6790   42.6530 C   0  0  0  0  0  0  0  0  0  0  0  0
   40.2410   30.4320   42.2120 C   0  0  0  0  0  0  0  0  0  0  0  0
   39.7640   31.2600   41.2590 N   0  0  0  0  0  0  0  0  0  0  0  0
   42.3140   33.3810   40.7430 H   0  0  0  0  0  0  0  0  0  0  0  0
   43.3210   31.9060   42.5200 H   0  0  0  0  0  0  0  0  0  0  0  0
   41.9880   30.0590   43.4220 H   0  0  0  0  0  0  0  0  0  0  0  0
   39.4560   29.3230   42.7610 C   0  0  0  0  0  0  0  0  0  0  0  0
   38.0930   29.3640   42.9790 C   0  0  0  0  0  0  0  0  0  0  0  0
   37.3690   30.1530   42.8080 H   0  0  0  0  0  0  0  0  0  0  0  0
   37.8320   28.0960   43.4990 C   0  0  0  0  0  0  0  0  0  0  0  0
   36.8790   27.6910   43.8140 H   0  0  0  0  0  0  0  0  0  0  0  0
   39.0230   27.3710   43.5670 C   0  0  0  0  0  0  0  0  0  0  0  0
   39.2190   26.3640   43.9110 H   0  0  0  0  0  0  0  0  0  0  0  0
   39.9560   28.1810   43.1040 O   0  0  0  0  0  0  0  0  0  0  0  0
  1  7  1  6  0  0  0
  1  6  1  0  0  0  0
  2  3  1  0  0  0  0
  2  1  1  0  0  0  0
  2  8  1  0  0  0  0
  3  4  1  0  0  0  0
  4 12  1  0  0  0  0
  4  5  1  0  0  0  0
  4 13  1  0  0  0  0
  5 15  1  0  0  0  0
  6 16  1  6  0  0  0
  6  5  1  0  0  0  0
  6 26  1  0  0  0  0
  9  2  1  0  0  0  0
 10  3  1  0  0  0  0
 11  3  1  0  0  0  0
 14  5  1  0  0  0  0
 17 22  2  0  0  0  0
 17 18  1  0  0  0  0
 18 19  2  0  0  0  0
 19 20  1  0  0  0  0
 19  1  1  0  0  0  0
 21 25  1  0  0  0  0
 21 20  2  0  0  0  0
 22 21  1  0  0  0  0
 23 17  1  0  0  0  0
 24 18  1  0  0  0  0
 26 27  2  0  0  0  0
 26 31  1  0  0  0  0
 27 28  1  0  0  0  0
 28 33  1  0  0  0  0
 28 29  2  0  0  0  0
 29 34  1  0  0  0  0
 30 29  1  0  0  0  0
 30 35  1  0  0  0  0
 31 30  2  0  0  0  0
 32 27  1  0  0  0  0
 35 36  2  0  0  0  0
 35 42  1  0  0  0  0
 36 38  1  0  0  0  0
 37 36  1  0  0  0  0
 38 40  2  0  0  0  0
 38 39  1  0  0  0  0
 40 41  1  0  0  0  0
 42 40  1  0  0  0  0
M  END
>  <minimizedAffinity>
-5.34918594

$$$$

 OpenBabel03242516513D

 42 45  0  0  1  0  0  0  0  0999 V2000
   38.7490   30.3650   40.7030 C   0  0  1  0  0  0  0  0  0  0  0  0
   39.6800   30.0840   39.5910 C   0  0  0  0  0  0  0  0  0  0  0  0
   40.2530   31.4470   39.1840 C   0  0  0  0  0  0  0  0  0  0  0  0
   39.1120   32.1950   38.5140 C   0  0  0  0  0  0  0  0  0  0  0  0
   37.8960   32.3290   39.3790 C   0  0  0  0  0  0  0  0  0  0  0  0
   37.5660   31.2060   40.2700 C   0  0  1  0  0  0  0  0  0  0  0  0
   39.2760   31.0290   41.4530 H   0  0  0  0  0  0  0  0  0  0  0  0
   39.2160   29.6320   38.7090 H   0  0  0  0  0  0  0  0  0  0  0  0
   40.5110   29.4450   39.9880 H   0  0  0  0  0  0  0  0  0  0  0  0
   40.6610   31.9770   40.0430 H   0  0  0  0  0  0  0  0  0  0  0  0
   40.9980   31.2300   38.3860 H   0  0  0  0  0  0  0  0  0  0  0  0
   39.4510   33.2020   38.2040 H   0  0  0  0  0  0  0  0  0  0  0  0
   38.8920   31.6400   37.5760 H   0  0  0  0  0  0  0  0  0  0  0  0
   38.0160   33.2870   39.9490 H   0  0  0  0  0  0  0  0  0  0  0  0
   37.0230   32.5180   38.6930 H   0  0  0  0  0  0  0  0  0  0  0  0
   37.1500   31.6280   41.2350 H   0  0  0  0  0  0  0  0  0  0  0  0
   37.4850   28.2370   43.5560 C   0  0  0  0  0  0  0  0  0  0  0  0
   37.9190   29.3130   42.7870 C   0  0  0  0  0  0  0  0  0  0  0  0
   38.2960   29.2030   41.4570 C   0  0  0  0  0  0  0  0  0  0  0  0
   38.2180   27.9690   40.9320 N   0  0  0  0  0  0  0  0  0  0  0  0
   37.7990   26.9110   41.6660 C   0  0  0  0  0  0  0  0  0  0  0  0
   37.4390   27.0290   42.9400 N   0  0  0  0  0  0  0  0  0  0  0  0
   37.1990   28.3500   44.5810 H   0  0  0  0  0  0  0  0  0  0  0  0
   37.9540   30.2770   43.2800 H   0  0  0  0  0  0  0  0  0  0  0  0
   37.7960   25.9890   41.0900 H   0  0  0  0  0  0  0  0  0  0  0  0
   36.4740   30.3620   39.7560 C   0  0  0  0  0  0  0  0  0  0  0  0
   35.4050   29.8350   40.4890 C   0  0  0  0  0  0  0  0  0  0  0  0
   34.4760   29.0780   39.7560 C   0  0  0  0  0  0  0  0  0  0  0  0
   34.6860   28.9180   38.4090 C   0  0  0  0  0  0  0  0  0  0  0  0
   35.7430   29.4420   37.7020 C   0  0  0  0  0  0  0  0  0  0  0  0
   36.6350   30.1690   38.4060 N   0  0  0  0  0  0  0  0  0  0  0  0
   35.4100   30.0660   41.5290 H   0  0  0  0  0  0  0  0  0  0  0  0
   33.6740   28.6890   40.3300 H   0  0  0  0  0  0  0  0  0  0  0  0
   33.9150   28.3170   37.9200 H   0  0  0  0  0  0  0  0  0  0  0  0
   35.8740   29.2100   36.2600 C   0  0  0  0  0  0  0  0  0  0  0  0
   35.3840   28.1010   35.6000 C   0  0  0  0  0  0  0  0  0  0  0  0
   34.8450   27.2350   35.9690 H   0  0  0  0  0  0  0  0  0  0  0  0
   35.7560   28.3470   34.2780 C   0  0  0  0  0  0  0  0  0  0  0  0
   35.5710   27.7270   33.4100 H   0  0  0  0  0  0  0  0  0  0  0  0
   36.4350   29.5650   34.2090 C   0  0  0  0  0  0  0  0  0  0  0  0
   36.8700   30.0840   33.3660 H   0  0  0  0  0  0  0  0  0  0  0  0
   36.4640   30.0230   35.4460 O   0  0  0  0  0  0  0  0  0  0  0  0
  1  7  1  1  0  0  0
  1 19  1  0  0  0  0
  2  9  1  0  0  0  0
  2  1  1  0  0  0  0
  3  2  1  0  0  0  0
  3 10  1  0  0  0  0
  4  3  1  0  0  0  0
  4  5  1  0  0  0  0
  5 14  1  0  0  0  0
  5  6  1  0  0  0  0
  6  1  1  0  0  0  0
  6 16  1  1  0  0  0
  8  2  1  0  0  0  0
 11  3  1  0  0  0  0
 12  4  1  0  0  0  0
 13  4  1  0  0  0  0
 15  5  1  0  0  0  0
 17 23  1  0  0  0  0
 18 24  1  0  0  0  0
 18 17  2  0  0  0  0
 19 18  1  0  0  0  0
 20 19  2  0  0  0  0
 20 21  1  0  0  0  0
 21 22  2  0  0  0  0
 22 17  1  0  0  0  0
 25 21  1  0  0  0  0
 26  6  1  0  0  0  0
 26 27  1  0  0  0  0
 27 32  1  0  0  0  0
 28 33  1  0  0  0  0
 28 27  2  0  0  0  0
 29 28  1  0  0  0  0
 30 31  1  0  0  0  0
 30 29  2  0  0  0  0
 31 26  2  0  0  0  0
 34 29  1  0  0  0  0
 35 30  1  0  0  0  0
 36 37  1  0  0  0  0
 36 35  2  0  0  0  0
 38 36  1  0  0  0  0
 39 38  1  0  0  0  0
 40 38  2  0  0  0  0
 40 42  1  0  0  0  0
 41 40  1  0  0  0  0
 42 35  1  0  0  0  0
M  END
>  <minimizedAffinity>
-5.34548283

$$$$

 OpenBabel03242516513D

 42 45  0  0  1  0  0  0  0  0999 V2000
   36.4220   27.4230   40.2420 C   0  0  1  0  0  0  0  0  0  0  0  0
   37.6590   26.6290   40.3890 C   0  0  0  0  0  0  0  0  0  0  0  0
   37.4480   25.7720   41.6430 C   0  0  0  0  0  0  0  0  0  0  0  0
   37.5010   26.7340   42.8190 C   0  0  0  0  0  0  0  0  0  0  0  0
   36.5060   27.8500   42.7220 C   0  0  0  0  0  0  0  0  0  0  0  0
   36.2200   28.3960   41.3870 C   0  0  1  0  0  0  0  0  0  0  0  0
   35.5340   26.7270   40.3370 H   0  0  0  0  0  0  0  0  0  0  0  0
   38.5690   27.2200   40.5280 H   0  0  0  0  0  0  0  0  0  0  0  0
   37.7430   25.9540   39.4980 H   0  0  0  0  0  0  0  0  0  0  0  0
   36.5120   25.2180   41.5910 H   0  0  0  0  0  0  0  0  0  0  0  0
   38.3540   25.1300   41.7200 H   0  0  0  0  0  0  0  0  0  0  0  0
   37.3400   26.1830   43.7650 H   0  0  0  0  0  0  0  0  0  0  0  0
   38.5450   27.1140   42.8540 H   0  0  0  0  0  0  0  0  0  0  0  0
   35.5740   27.4890   43.2290 H   0  0  0  0  0  0  0  0  0  0  0  0
   36.8800   28.6830   43.3820 H   0  0  0  0  0  0  0  0  0  0  0  0
   35.1210   28.6630   41.3400 H   0  0  0  0  0  0  0  0  0  0  0  0
   34.7760   29.0720   37.2690 C   0  0  0  0  0  0  0  0  0  0  0  0
   34.9950   28.4290   38.4850 C   0  0  0  0  0  0  0  0  0  0  0  0
   36.2550   28.1030   38.9650 C   0  0  0  0  0  0  0  0  0  0  0  0
   37.2840   28.4500   38.1740 N   0  0  0  0  0  0  0  0  0  0  0  0
   37.0890   29.0750   36.9880 C   0  0  0  0  0  0  0  0  0  0  0  0
   35.8770   29.3830   36.5390 N   0  0  0  0  0  0  0  0  0  0  0  0
   33.7930   29.3120   36.9230 H   0  0  0  0  0  0  0  0  0  0  0  0
   34.1150   28.1830   39.0660 H   0  0  0  0  0  0  0  0  0  0  0  0
   38.0260   29.2820   36.4770 H   0  0  0  0  0  0  0  0  0  0  0  0
   36.9050   29.6730   41.1250 C   0  0  0  0  0  0  0  0  0  0  0  0
   36.3210   30.8580   40.6620 C   0  0  0  0  0  0  0  0  0  0  0  0
   37.1910   31.9510   40.5180 C   0  0  0  0  0  0  0  0  0  0  0  0
   38.5150   31.7760   40.8360 C   0  0  0  0  0  0  0  0  0  0  0  0
   39.0740   30.6040   41.2900 C   0  0  0  0  0  0  0  0  0  0  0  0
   38.2380   29.5540   41.4280 N   0  0  0  0  0  0  0  0  0  0  0  0
   35.2750   30.8030   40.4670 H   0  0  0  0  0  0  0  0  0  0  0  0
   36.7290   32.8380   40.1660 H   0  0  0  0  0  0  0  0  0  0  0  0
   39.1160   32.6770   40.6940 H   0  0  0  0  0  0  0  0  0  0  0  0
   40.5040   30.5230   41.6020 C   0  0  0  0  0  0  0  0  0  0  0  0
   41.0900   31.0660   42.7280 C   0  0  0  0  0  0  0  0  0  0  0  0
   40.6610   31.6220   43.5540 H   0  0  0  0  0  0  0  0  0  0  0  0
   42.4330   30.7270   42.5630 C   0  0  0  0  0  0  0  0  0  0  0  0
   43.2610   30.9560   43.2220 H   0  0  0  0  0  0  0  0  0  0  0  0
   42.5860   30.0120   41.3740 C   0  0  0  0  0  0  0  0  0  0  0  0
   43.4680   29.5870   40.9140 H   0  0  0  0  0  0  0  0  0  0  0  0
   41.3770   29.9320   40.8530 O   0  0  0  0  0  0  0  0  0  0  0  0
  1  7  1  1  0  0  0
  1  2  1  0  0  0  0
  1  6  1  0  0  0  0
  2  8  1  0  0  0  0
  2  3  1  0  0  0  0
  3 11  1  0  0  0  0
  3  4  1  0  0  0  0
  4 13  1  0  0  0  0
  4 12  1  0  0  0  0
  5  4  1  0  0  0  0
  5 14  1  0  0  0  0
  5 15  1  0  0  0  0
  6 16  1  1  0  0  0
  6  5  1  0  0  0  0
  9  2  1  0  0  0  0
 10  3  1  0  0  0  0
 17 18  1  0  0  0  0
 18 19  2  0  0  0  0
 18 24  1  0  0  0  0
 19  1  1  0  0  0  0
 20 19  1  0  0  0  0
 21 20  2  0  0  0  0
 22 21  1  0  0  0  0
 22 17  2  0  0  0  0
 23 17  1  0  0  0  0
 25 21  1  0  0  0  0
 26  6  1  0  0  0  0
 26 31  1  0  0  0  0
 27 26  2  0  0  0  0
 28 27  1  0  0  0  0
 28 29  2  0  0  0  0
 29 30  1  0  0  0  0
 30 31  2  0  0  0  0
 30 35  1  0  0  0  0
 32 27  1  0  0  0  0
 33 28  1  0  0  0  0
 34 29  1  0  0  0  0
 35 36  2  0  0  0  0
 36 37  1  0  0  0  0
 38 36  1  0  0  0  0
 38 39  1  0  0  0  0
 40 38  2  0  0  0  0
 41 40  1  0  0  0  0
 42 40  1  0  0  0  0
 42 35  1  0  0  0  0
M  END
>  <minimizedAffinity>
-5.32432985

$$$$

 OpenBabel03242516513D

 42 45  0  0  1  0  0  0  0  0999 V2000
   38.5630   25.3560   41.0870 C   0  0  1  0  0  0  0  0  0  0  0  0
   37.6850   24.1720   41.1660 C   0  0  0  0  0  0  0  0  0  0  0  0
   38.4200   23.0660   40.3990 C   0  0  0  0  0  0  0  0  0  0  0  0
   38.3530   23.4610   38.9330 C   0  0  0  0  0  0  0  0  0  0  0  0
   38.9250   24.8180   38.6540 C   0  0  0  0  0  0  0  0  0  0  0  0
   38.7240   25.8640   39.6690 C   0  0  1  0  0  0  0  0  0  0  0  0
   39.6140   25.0440   41.3690 H   0  0  0  0  0  0  0  0  0  0  0  0
   36.6980   24.3030   40.7130 H   0  0  0  0  0  0  0  0  0  0  0  0
   37.6030   23.8730   42.2440 H   0  0  0  0  0  0  0  0  0  0  0  0
   39.4400   22.9450   40.7600 H   0  0  0  0  0  0  0  0  0  0  0  0
   37.7870   22.1570   40.5090 H   0  0  0  0  0  0  0  0  0  0  0  0
   38.8820   22.7100   38.3150 H   0  0  0  0  0  0  0  0  0  0  0  0
   37.2810   23.3990   38.6480 H   0  0  0  0  0  0  0  0  0  0  0  0
   40.0120   24.6640   38.4280 H   0  0  0  0  0  0  0  0  0  0  0  0
   38.4820   25.1680   37.6790 H   0  0  0  0  0  0  0  0  0  0  0  0
   39.6540   26.5090   39.7030 H   0  0  0  0  0  0  0  0  0  0  0  0
   36.5850   27.5890   43.4030 C   0  0  0  0  0  0  0  0  0  0  0  0
   36.9640   26.5590   42.5470 C   0  0  0  0  0  0  0  0  0  0  0  0
   38.2260   26.4550   41.9830 C   0  0  0  0  0  0  0  0  0  0  0  0
   39.0910   27.4270   42.3140 N   0  0  0  0  0  0  0  0  0  0  0  0
   38.7390   28.4380   43.1450 C   0  0  0  0  0  0  0  0  0  0  0  0
   37.5270   28.5270   43.6800 N   0  0  0  0  0  0  0  0  0  0  0  0
   35.6040   27.6450   43.8250 H   0  0  0  0  0  0  0  0  0  0  0  0
   36.2110   25.8110   42.3280 H   0  0  0  0  0  0  0  0  0  0  0  0
   39.5560   29.1370   43.3060 H   0  0  0  0  0  0  0  0  0  0  0  0
   37.6510   26.8110   39.3190 C   0  0  0  0  0  0  0  0  0  0  0  0
   36.3540   26.4910   38.9000 C   0  0  0  0  0  0  0  0  0  0  0  0
   35.5070   27.5830   38.6510 C   0  0  0  0  0  0  0  0  0  0  0  0
   36.0070   28.8490   38.8320 C   0  0  0  0  0  0  0  0  0  0  0  0
   37.2850   29.1470   39.2440 C   0  0  0  0  0  0  0  0  0  0  0  0
   38.0990   28.0980   39.4830 N   0  0  0  0  0  0  0  0  0  0  0  0
   36.1470   25.4490   38.8160 H   0  0  0  0  0  0  0  0  0  0  0  0
   34.5300   27.3200   38.3350 H   0  0  0  0  0  0  0  0  0  0  0  0
   35.2800   29.6360   38.6150 H   0  0  0  0  0  0  0  0  0  0  0  0
   37.7190   30.5380   39.4060 C   0  0  0  0  0  0  0  0  0  0  0  0
   36.8900   31.5750   39.7840 C   0  0  0  0  0  0  0  0  0  0  0  0
   35.8320   31.5890   40.0200 H   0  0  0  0  0  0  0  0  0  0  0  0
   37.7580   32.6670   39.7930 C   0  0  0  0  0  0  0  0  0  0  0  0
   37.5280   33.6970   40.0360 H   0  0  0  0  0  0  0  0  0  0  0  0
   39.0380   32.2430   39.4300 C   0  0  0  0  0  0  0  0  0  0  0  0
   39.9630   32.7950   39.3270 H   0  0  0  0  0  0  0  0  0  0  0  0
   38.9300   30.9460   39.2130 O   0  0  0  0  0  0  0  0  0  0  0  0
  1  2  1  0  0  0  0
  1  7  1  1  0  0  0
  1 19  1  0  0  0  0
  2  9  1  0  0  0  0
  3 11  1  0  0  0  0
  3 10  1  0  0  0  0
  3  2  1  0  0  0  0
  4  3  1  0  0  0  0
  5  4  1  0  0  0  0
  5  6  1  0  0  0  0
  6 16  1  1  0  0  0
  6  1  1  0  0  0  0
  8  2  1  0  0  0  0
 12  4  1  0  0  0  0
 13  4  1  0  0  0  0
 14  5  1  0  0  0  0
 15  5  1  0  0  0  0
 17 22  1  0  0  0  0
 17 23  1  0  0  0  0
 18 17  2  0  0  0  0
 19 20  2  0  0  0  0
 19 18  1  0  0  0  0
 20 21  1  0  0  0  0
 21 25  1  0  0  0  0
 21 22  2  0  0  0  0
 24 18  1  0  0  0  0
 26 31  1  0  0  0  0
 26  6  1  0  0  0  0
 27 26  2  0  0  0  0
 28 29  2  0  0  0  0
 28 27  1  0  0  0  0
 29 30  1  0  0  0  0
 30 35  1  0  0  0  0
 30 31  2  0  0  0  0
 32 27  1  0  0  0  0
 33 28  1  0  0  0  0
 34 29  1  0  0  0  0
 35 36  2  0  0  0  0
 36 38  1  0  0  0  0
 36 37  1  0  0  0  0
 38 39  1  0  0  0  0
 40 38  2  0  0  0  0
 41 40  1  0  0  0  0
 42 35  1  0  0  0  0
 42 40  1  0  0  0  0
M  END
>  <minimizedAffinity>
-5.32131767

$$$$
