
 OpenBabel03242511223D

 38 41  0  0  1  0  0  0  0  0999 V2000
   35.3130   28.9030   38.4190 C   0  0  0  0  0  0  0  0  0  0  0  0
   34.3980   28.4310   37.9550 H   0  0  0  0  0  0  0  0  0  0  0  0
   34.9740   29.8640   38.7970 H   0  0  0  0  0  0  0  0  0  0  0  0
   35.8810   27.9740   39.3750 C   0  0  0  0  0  0  0  0  0  0  0  0
   36.2080   28.3660   40.5600 C   0  0  0  0  0  0  0  0  0  0  0  0
   36.7640   27.4700   41.4970 N   0  0  0  0  0  0  0  0  0  0  0  0
   36.7560   26.9590   42.8500 C   0  0  0  0  0  0  0  0  0  0  0  0
   36.4510   27.4270   43.9830 O   0  0  0  0  0  0  0  0  0  0  0  0
   37.2620   25.6750   42.2400 C   0  0  0  0  0  0  0  0  0  0  0  0
   37.8640   26.5420   41.1520 C   0  0  1  0  0  0  0  0  0  0  0  0
   37.6500   25.9710   39.4760 S   0  0  0  0  0  0  0  0  0  0  0  0
   36.0430   26.5910   38.8820 C   0  0  0  0  0  0  0  0  0  0  0  0
   36.4650   25.0120   41.8840 H   0  0  0  0  0  0  0  0  0  0  0  0
   38.0680   25.1860   42.8070 H   0  0  0  0  0  0  0  0  0  0  0  0
   38.8700   26.9180   41.4110 H   0  0  0  0  0  0  0  0  0  0  0  0
   36.0560   26.4830   37.8010 H   0  0  0  0  0  0  0  0  0  0  0  0
   35.2230   25.9820   39.3490 H   0  0  0  0  0  0  0  0  0  0  0  0
   36.0000   29.7680   40.9490 C   0  0  0  0  0  0  0  0  0  0  0  0
   36.8990   30.5040   41.4710 O   0  0  0  0  0  0  0  0  0  0  0  0
   35.5160   31.0050   41.1960 O   0  0  0  0  0  0  0  0  0  0  0  0
   34.5540   31.2520   41.4770 H   0  0  0  0  0  0  0  0  0  0  0  0
   36.4470   29.1300   36.9860 S   0  0  0  0  0  0  0  0  0  0  0  0
   40.3360   29.7340   37.9510 C   0  0  0  0  0  0  0  0  0  0  0  0
   39.1580   29.1380   37.4430 C   0  0  0  0  0  0  0  0  0  0  0  0
   37.9470   29.8340   37.6020 C   0  0  0  0  0  0  0  0  0  0  0  0
   37.9910   31.0220   38.2260 N   0  0  0  0  0  0  0  0  0  0  0  0
   39.1170   31.5760   38.7020 C   0  0  0  0  0  0  0  0  0  0  0  0
   40.2970   30.9290   38.5640 N   0  0  0  0  0  0  0  0  0  0  0  0
   41.2290   29.1430   37.7940 H   0  0  0  0  0  0  0  0  0  0  0  0
   39.1180   28.1920   36.9470 H   0  0  0  0  0  0  0  0  0  0  0  0
   39.1580   32.8700   39.3800 C   0  0  0  0  0  0  0  0  0  0  0  0
   38.2100   33.5280   40.1440 C   0  0  0  0  0  0  0  0  0  0  0  0
   37.2290   33.1170   40.3460 H   0  0  0  0  0  0  0  0  0  0  0  0
   38.8430   34.7200   40.5110 C   0  0  0  0  0  0  0  0  0  0  0  0
   38.3320   35.4610   41.1300 H   0  0  0  0  0  0  0  0  0  0  0  0
   40.1090   34.7220   39.9650 C   0  0  0  0  0  0  0  0  0  0  0  0
   40.8070   35.5300   40.0970 H   0  0  0  0  0  0  0  0  0  0  0  0
   40.2610   33.6090   39.3010 O   0  0  0  0  0  0  0  0  0  0  0  0
  1  3  1  0  0  0  0
  1  4  1  0  0  0  0
  2  1  1  0  0  0  0
  4  5  2  0  0  0  0
  5 18  1  0  0  0  0
  5  6  1  0  0  0  0
  6  7  1  0  0  0  0
  7  8  2  0  0  0  0
  9 14  1  0  0  0  0
  9  7  1  0  0  0  0
 10 15  1  1  0  0  0
 10  6  1  0  0  0  0
 10  9  1  0  0  0  0
 11 10  1  0  0  0  0
 12 17  1  0  0  0  0
 12  4  1  0  0  0  0
 12 11  1  0  0  0  0
 13  9  1  0  0  0  0
 16 12  1  0  0  0  0
 18 20  1  0  0  0  0
 18 19  2  0  0  0  0
 20 21  1  0  0  0  0
 22 25  1  0  0  0  0
 22  1  1  0  0  0  0
 23 28  1  0  0  0  0
 24 25  1  0  0  0  0
 24 23  2  0  0  0  0
 25 26  2  0  0  0  0
 26 27  1  0  0  0  0
 27 31  1  0  0  0  0
 28 27  2  0  0  0  0
 29 23  1  0  0  0  0
 30 24  1  0  0  0  0
 31 32  2  0  0  0  0
 32 33  1  0  0  0  0
 32 34  1  0  0  0  0
 34 35  1  0  0  0  0
 36 37  1  0  0  0  0
 36 34  2  0  0  0  0
 38 31  1  0  0  0  0
 38 36  1  0  0  0  0
M  END
>  <minimizedAffinity>
-5.9967103

$$$$

 OpenBabel03242511223D

 38 41  0  0  1  0  0  0  0  0999 V2000
   36.5700   29.2910   38.3540 C   0  0  0  0  0  0  0  0  0  0  0  0
   36.1460   28.7520   37.4560 H   0  0  0  0  0  0  0  0  0  0  0  0
   35.8120   30.0180   38.6320 H   0  0  0  0  0  0  0  0  0  0  0  0
   36.9470   28.3080   39.3500 C   0  0  0  0  0  0  0  0  0  0  0  0
   36.8340   28.5690   40.6090 C   0  0  0  0  0  0  0  0  0  0  0  0
   37.2010   27.6200   41.5860 N   0  0  0  0  0  0  0  0  0  0  0  0
   36.8530   26.9330   42.8110 C   0  0  0  0  0  0  0  0  0  0  0  0
   36.1510   27.2080   43.8240 O   0  0  0  0  0  0  0  0  0  0  0  0
   37.7020   25.8050   42.2770 C   0  0  0  0  0  0  0  0  0  0  0  0
   38.4760   26.8710   41.5280 C   0  0  1  0  0  0  0  0  0  0  0  0
   38.8700   26.5120   39.8250 S   0  0  0  0  0  0  0  0  0  0  0  0
   37.4500   27.0290   38.8080 C   0  0  0  0  0  0  0  0  0  0  0  0
   37.1580   25.1140   41.6240 H   0  0  0  0  0  0  0  0  0  0  0  0
   38.3570   25.3340   43.0250 H   0  0  0  0  0  0  0  0  0  0  0  0
   39.2890   27.3150   42.1290 H   0  0  0  0  0  0  0  0  0  0  0  0
   37.8090   27.0700   37.7830 H   0  0  0  0  0  0  0  0  0  0  0  0
   36.6250   26.2780   38.9270 H   0  0  0  0  0  0  0  0  0  0  0  0
   36.3160   29.8750   41.0400 C   0  0  0  0  0  0  0  0  0  0  0  0
   36.9830   30.7140   41.7300 O   0  0  0  0  0  0  0  0  0  0  0  0
   35.5800   30.9810   41.2820 O   0  0  0  0  0  0  0  0  0  0  0  0
   34.5610   31.0300   41.4290 H   0  0  0  0  0  0  0  0  0  0  0  0
   38.0630   30.1310   37.6800 S   0  0  0  0  0  0  0  0  0  0  0  0
   37.4920   33.6790   39.5530 C   0  0  0  0  0  0  0  0  0  0  0  0
   37.2500   32.5090   38.7950 C   0  0  0  0  0  0  0  0  0  0  0  0
   38.3140   31.6060   38.6200 C   0  0  0  0  0  0  0  0  0  0  0  0
   39.4910   31.9160   39.1880 N   0  0  0  0  0  0  0  0  0  0  0  0
   39.7050   33.0300   39.9060 C   0  0  0  0  0  0  0  0  0  0  0  0
   38.7000   33.9170   40.0900 N   0  0  0  0  0  0  0  0  0  0  0  0
   36.6300   34.3260   39.6450 H   0  0  0  0  0  0  0  0  0  0  0  0
   36.3160   32.2580   38.3410 H   0  0  0  0  0  0  0  0  0  0  0  0
   40.9880   33.3610   40.5210 C   0  0  0  0  0  0  0  0  0  0  0  0
   41.7380   34.5250   40.4960 C   0  0  0  0  0  0  0  0  0  0  0  0
   41.4250   35.4140   39.9610 H   0  0  0  0  0  0  0  0  0  0  0  0
   42.8610   34.2190   41.2700 C   0  0  0  0  0  0  0  0  0  0  0  0
   43.6490   34.9570   41.4350 H   0  0  0  0  0  0  0  0  0  0  0  0
   42.7380   32.9190   41.7130 C   0  0  0  0  0  0  0  0  0  0  0  0
   43.4720   32.4350   42.3330 H   0  0  0  0  0  0  0  0  0  0  0  0
   41.6150   32.4410   41.2500 O   0  0  0  0  0  0  0  0  0  0  0  0
  1  3  1  0  0  0  0
  1  4  1  0  0  0  0
  2  1  1  0  0  0  0
  4  5  2  0  0  0  0
  5 18  1  0  0  0  0
  5  6  1  0  0  0  0
  6  7  1  0  0  0  0
  7  8  2  0  0  0  0
  9  7  1  0  0  0  0
  9 14  1  0  0  0  0
 10  6  1  0  0  0  0
 10 15  1  1  0  0  0
 10  9  1  0  0  0  0
 11 10  1  0  0  0  0
 12 17  1  0  0  0  0
 12  4  1  0  0  0  0
 12 11  1  0  0  0  0
 13  9  1  0  0  0  0
 16 12  1  0  0  0  0
 18 20  1  0  0  0  0
 18 19  2  0  0  0  0
 20 21  1  0  0  0  0
 22  1  1  0  0  0  0
 22 25  1  0  0  0  0
 23 29  1  0  0  0  0
 23 28  1  0  0  0  0
 24 23  2  0  0  0  0
 25 24  1  0  0  0  0
 25 26  2  0  0  0  0
 26 27  1  0  0  0  0
 27 28  2  0  0  0  0
 27 31  1  0  0  0  0
 30 24  1  0  0  0  0
 31 38  1  0  0  0  0
 32 31  2  0  0  0  0
 32 34  1  0  0  0  0
 33 32  1  0  0  0  0
 34 35  1  0  0  0  0
 34 36  2  0  0  0  0
 36 37  1  0  0  0  0
 38 36  1  0  0  0  0
M  END
>  <minimizedAffinity>
-5.93961096

$$$$

 OpenBabel03242511223D

 38 41  0  0  1  0  0  0  0  0999 V2000
   41.0800   32.1530   39.0020 C   0  0  0  0  0  0  0  0  0  0  0  0
   41.0520   31.7190   40.0440 H   0  0  0  0  0  0  0  0  0  0  0  0
   41.3750   33.1910   39.1350 H   0  0  0  0  0  0  0  0  0  0  0  0
   41.9310   31.3210   38.1760 C   0  0  0  0  0  0  0  0  0  0  0  0
   42.7240   31.8490   37.3050 C   0  0  0  0  0  0  0  0  0  0  0  0
   43.5540   31.0470   36.4940 N   0  0  0  0  0  0  0  0  0  0  0  0
   44.8750   30.8180   35.9490 C   0  0  0  0  0  0  0  0  0  0  0  0
   45.8600   31.5510   35.6520 O   0  0  0  0  0  0  0  0  0  0  0  0
   44.4820   29.3620   35.9270 C   0  0  0  0  0  0  0  0  0  0  0  0
   43.0540   29.8480   35.7840 C   0  0  1  0  0  0  0  0  0  0  0  0
   41.8350   29.0300   36.7980 S   0  0  0  0  0  0  0  0  0  0  0  0
   41.8090   29.8680   38.4160 C   0  0  0  0  0  0  0  0  0  0  0  0
   44.6770   28.8380   36.8690 H   0  0  0  0  0  0  0  0  0  0  0  0
   44.7780   28.8230   35.0140 H   0  0  0  0  0  0  0  0  0  0  0  0
   42.7650   30.0320   34.7350 H   0  0  0  0  0  0  0  0  0  0  0  0
   40.8910   29.5560   38.9050 H   0  0  0  0  0  0  0  0  0  0  0  0
   42.7150   29.5580   39.0000 H   0  0  0  0  0  0  0  0  0  0  0  0
   42.7700   33.3100   37.1500 C   0  0  0  0  0  0  0  0  0  0  0  0
   43.6450   34.0570   37.6960 O   0  0  0  0  0  0  0  0  0  0  0  0
   42.5560   34.6030   36.8270 O   0  0  0  0  0  0  0  0  0  0  0  0
   41.6460   35.0640   36.6730 H   0  0  0  0  0  0  0  0  0  0  0  0
   39.3290   32.0380   38.4460 S   0  0  0  0  0  0  0  0  0  0  0  0
   36.3700   30.9160   40.9780 C   0  0  0  0  0  0  0  0  0  0  0  0
   37.0660   31.5770   39.9390 C   0  0  0  0  0  0  0  0  0  0  0  0
   38.4150   31.2390   39.7310 C   0  0  0  0  0  0  0  0  0  0  0  0
   38.9520   30.3070   40.5350 N   0  0  0  0  0  0  0  0  0  0  0  0
   38.2790   29.6860   41.5160 C   0  0  0  0  0  0  0  0  0  0  0  0
   36.9800   29.9930   41.7390 N   0  0  0  0  0  0  0  0  0  0  0  0
   35.3390   31.2260   41.0810 H   0  0  0  0  0  0  0  0  0  0  0  0
   36.6440   32.3200   39.2980 H   0  0  0  0  0  0  0  0  0  0  0  0
   38.8690   28.6730   42.3860 C   0  0  0  0  0  0  0  0  0  0  0  0
   38.2850   27.7290   43.2140 C   0  0  0  0  0  0  0  0  0  0  0  0
   37.2120   27.6260   43.3220 H   0  0  0  0  0  0  0  0  0  0  0  0
   39.3740   27.0580   43.7800 C   0  0  0  0  0  0  0  0  0  0  0  0
   39.2230   26.2430   44.4910 H   0  0  0  0  0  0  0  0  0  0  0  0
   40.5310   27.6140   43.2790 C   0  0  0  0  0  0  0  0  0  0  0  0
   41.5150   27.2770   43.5550 H   0  0  0  0  0  0  0  0  0  0  0  0
   40.1940   28.5680   42.4550 O   0  0  0  0  0  0  0  0  0  0  0  0
  1  3  1  0  0  0  0
  1  2  1  0  0  0  0
  4 12  1  0  0  0  0
  4  1  1  0  0  0  0
  5  4  2  0  0  0  0
  6  5  1  0  0  0  0
  7  6  1  0  0  0  0
  8  7  2  0  0  0  0
  9  7  1  0  0  0  0
  9 13  1  0  0  0  0
 10 15  1  6  0  0  0
 10  9  1  0  0  0  0
 10  6  1  0  0  0  0
 10 11  1  0  0  0  0
 11 12  1  0  0  0  0
 12 16  1  0  0  0  0
 12 17  1  0  0  0  0
 14  9  1  0  0  0  0
 18  5  1  0  0  0  0
 18 19  2  0  0  0  0
 20 18  1  0  0  0  0
 21 20  1  0  0  0  0
 22  1  1  0  0  0  0
 22 25  1  0  0  0  0
 23 29  1  0  0  0  0
 23 28  1  0  0  0  0
 24 23  2  0  0  0  0
 25 24  1  0  0  0  0
 25 26  2  0  0  0  0
 26 27  1  0  0  0  0
 27 28  2  0  0  0  0
 27 31  1  0  0  0  0
 30 24  1  0  0  0  0
 31 38  1  0  0  0  0
 31 32  2  0  0  0  0
 32 33  1  0  0  0  0
 32 34  1  0  0  0  0
 34 35  1  0  0  0  0
 36 37  1  0  0  0  0
 36 34  2  0  0  0  0
 38 36  1  0  0  0  0
M  END
>  <minimizedAffinity>
-5.81793165

$$$$

 OpenBabel03242511223D

 38 41  0  0  1  0  0  0  0  0999 V2000
   36.5560   31.3080   40.7740 C   0  0  0  0  0  0  0  0  0  0  0  0
   35.4460   31.2460   40.5730 H   0  0  0  0  0  0  0  0  0  0  0  0
   36.6690   32.1200   41.4880 H   0  0  0  0  0  0  0  0  0  0  0  0
   37.0300   29.9990   41.1740 C   0  0  0  0  0  0  0  0  0  0  0  0
   36.3290   28.9420   40.9330 C   0  0  0  0  0  0  0  0  0  0  0  0
   36.7800   27.6630   41.3220 N   0  0  0  0  0  0  0  0  0  0  0  0
   36.9910   26.2800   40.9540 C   0  0  0  0  0  0  0  0  0  0  0  0
   36.4470   25.4750   40.1470 O   0  0  0  0  0  0  0  0  0  0  0  0
   38.1140   26.3100   41.9610 C   0  0  0  0  0  0  0  0  0  0  0  0
   37.3190   27.3870   42.6720 C   0  0  1  0  0  0  0  0  0  0  0  0
   38.2410   28.8060   43.2390 S   0  0  0  0  0  0  0  0  0  0  0  0
   38.3400   29.9890   41.8570 C   0  0  0  0  0  0  0  0  0  0  0  0
   39.0660   26.6630   41.5500 H   0  0  0  0  0  0  0  0  0  0  0  0
   38.1760   25.4170   42.6020 H   0  0  0  0  0  0  0  0  0  0  0  0
   36.5780   26.9780   43.3800 H   0  0  0  0  0  0  0  0  0  0  0  0
   38.6430   30.9380   42.2900 H   0  0  0  0  0  0  0  0  0  0  0  0
   39.0920   29.6160   41.1120 H   0  0  0  0  0  0  0  0  0  0  0  0
   35.0370   29.0650   40.2420 C   0  0  0  0  0  0  0  0  0  0  0  0
   34.8590   28.7960   39.0100 O   0  0  0  0  0  0  0  0  0  0  0  0
   33.7490   29.2740   39.8930 O   0  0  0  0  0  0  0  0  0  0  0  0
   33.1140   29.9980   40.2610 H   0  0  0  0  0  0  0  0  0  0  0  0
   37.2580   31.7760   39.1380 S   0  0  0  0  0  0  0  0  0  0  0  0
   39.6740   34.7230   40.5170 C   0  0  0  0  0  0  0  0  0  0  0  0
   38.5330   33.9140   40.3060 C   0  0  0  0  0  0  0  0  0  0  0  0
   38.6560   32.8160   39.4370 C   0  0  0  0  0  0  0  0  0  0  0  0
   39.8530   32.6080   38.8650 N   0  0  0  0  0  0  0  0  0  0  0  0
   40.9280   33.3840   39.0770 C   0  0  0  0  0  0  0  0  0  0  0  0
   40.8390   34.4480   39.9080 N   0  0  0  0  0  0  0  0  0  0  0  0
   39.5060   35.5490   41.1970 H   0  0  0  0  0  0  0  0  0  0  0  0
   37.5780   34.0760   40.7570 H   0  0  0  0  0  0  0  0  0  0  0  0
   42.2280   33.1520   38.4520 C   0  0  0  0  0  0  0  0  0  0  0  0
   42.6170   32.2720   37.4570 C   0  0  0  0  0  0  0  0  0  0  0  0
   41.9300   31.5830   36.9800 H   0  0  0  0  0  0  0  0  0  0  0  0
   43.9830   32.5260   37.2970 C   0  0  0  0  0  0  0  0  0  0  0  0
   44.5770   31.9730   36.5660 H   0  0  0  0  0  0  0  0  0  0  0  0
   44.3420   33.5220   38.1800 C   0  0  0  0  0  0  0  0  0  0  0  0
   45.3440   33.9070   38.2600 H   0  0  0  0  0  0  0  0  0  0  0  0
   43.2760   33.8700   38.8490 O   0  0  0  0  0  0  0  0  0  0  0  0
  1  4  1  0  0  0  0
  1  3  1  0  0  0  0
  2  1  1  0  0  0  0
  4 12  1  0  0  0  0
  5  4  2  0  0  0  0
  5  6  1  0  0  0  0
  6 10  1  0  0  0  0
  7  6  1  0  0  0  0
  7  9  1  0  0  0  0
  8  7  2  0  0  0  0
  9 14  1  0  0  0  0
  9 10  1  0  0  0  0
 10 11  1  0  0  0  0
 10 15  1  1  0  0  0
 12 16  1  0  0  0  0
 12 11  1  0  0  0  0
 13  9  1  0  0  0  0
 17 12  1  0  0  0  0
 18  5  1  0  0  0  0
 19 18  2  0  0  0  0
 20 18  1  0  0  0  0
 20 21  1  0  0  0  0
 22 25  1  0  0  0  0
 22  1  1  0  0  0  0
 23 29  1  0  0  0  0
 24 23  1  0  0  0  0
 24 30  1  0  0  0  0
 25 24  2  0  0  0  0
 26 27  2  0  0  0  0
 26 25  1  0  0  0  0
 27 28  1  0  0  0  0
 28 23  2  0  0  0  0
 31 38  1  0  0  0  0
 31 27  1  0  0  0  0
 32 31  2  0  0  0  0
 33 32  1  0  0  0  0
 34 32  1  0  0  0  0
 34 36  2  0  0  0  0
 35 34  1  0  0  0  0
 36 37  1  0  0  0  0
 36 38  1  0  0  0  0
M  END
>  <minimizedAffinity>
-5.67533922

$$$$

 OpenBabel03242511223D

 38 41  0  0  1  0  0  0  0  0999 V2000
   38.6740   31.3470   39.9020 C   0  0  0  0  0  0  0  0  0  0  0  0
   39.3030   32.1480   39.4140 H   0  0  0  0  0  0  0  0  0  0  0  0
   38.0200   31.8800   40.5880 H   0  0  0  0  0  0  0  0  0  0  0  0
   38.0460   30.5540   38.8650 C   0  0  0  0  0  0  0  0  0  0  0  0
   36.8490   30.0960   39.0190 C   0  0  0  0  0  0  0  0  0  0  0  0
   36.2310   29.3190   38.0170 N   0  0  0  0  0  0  0  0  0  0  0  0
   35.0500   29.0760   37.2180 C   0  0  0  0  0  0  0  0  0  0  0  0
   33.8090   29.2550   37.3740 O   0  0  0  0  0  0  0  0  0  0  0  0
   36.0080   28.5400   36.1830 C   0  0  0  0  0  0  0  0  0  0  0  0
   36.9190   28.1950   37.3450 C   0  0  1  0  0  0  0  0  0  0  0  0
   38.6450   28.5970   37.1430 S   0  0  0  0  0  0  0  0  0  0  0  0
   38.8740   30.3280   37.6630 C   0  0  0  0  0  0  0  0  0  0  0  0
   36.4150   29.3090   35.5180 H   0  0  0  0  0  0  0  0  0  0  0  0
   35.6770   27.6140   35.6900 H   0  0  0  0  0  0  0  0  0  0  0  0
   36.7000   27.2050   37.7830 H   0  0  0  0  0  0  0  0  0  0  0  0
   39.9420   30.4640   37.8040 H   0  0  0  0  0  0  0  0  0  0  0  0
   38.4730   31.0040   36.8610 H   0  0  0  0  0  0  0  0  0  0  0  0
   36.1120   30.3840   40.2580 C   0  0  0  0  0  0  0  0  0  0  0  0
   35.4980   29.5020   40.9430 O   0  0  0  0  0  0  0  0  0  0  0  0
   35.5300   30.9450   41.3390 O   0  0  0  0  0  0  0  0  0  0  0  0
   35.1220   31.8900   41.4060 H   0  0  0  0  0  0  0  0  0  0  0  0
   39.9090   30.3420   40.8260 S   0  0  0  0  0  0  0  0  0  0  0  0
   37.7200   28.5090   43.7030 C   0  0  0  0  0  0  0  0  0  0  0  0
   38.4220   29.5040   42.9830 C   0  0  0  0  0  0  0  0  0  0  0  0
   39.0180   29.1360   41.7640 C   0  0  0  0  0  0  0  0  0  0  0  0
   38.8790   27.8610   41.3640 N   0  0  0  0  0  0  0  0  0  0  0  0
   38.2080   26.9290   42.0590 C   0  0  0  0  0  0  0  0  0  0  0  0
   37.6250   27.2540   43.2350 N   0  0  0  0  0  0  0  0  0  0  0  0
   37.2890   28.8640   44.6310 H   0  0  0  0  0  0  0  0  0  0  0  0
   38.5370   30.5190   43.2960 H   0  0  0  0  0  0  0  0  0  0  0  0
   38.0600   25.5440   41.6180 C   0  0  0  0  0  0  0  0  0  0  0  0
   37.0170   24.6460   41.7680 C   0  0  0  0  0  0  0  0  0  0  0  0
   36.0980   24.8940   42.2840 H   0  0  0  0  0  0  0  0  0  0  0  0
   37.4760   23.4880   41.1320 C   0  0  0  0  0  0  0  0  0  0  0  0
   36.8570   22.5890   41.0870 H   0  0  0  0  0  0  0  0  0  0  0  0
   38.7400   23.7370   40.6420 C   0  0  0  0  0  0  0  0  0  0  0  0
   39.3200   23.0060   40.1060 H   0  0  0  0  0  0  0  0  0  0  0  0
   39.0540   24.9660   40.9480 O   0  0  0  0  0  0  0  0  0  0  0  0
  1  3  1  0  0  0  0
  1 22  1  0  0  0  0
  2  1  1  0  0  0  0
  4  5  2  0  0  0  0
  4  1  1  0  0  0  0
  5 18  1  0  0  0  0
  6  5  1  0  0  0  0
  7  8  2  0  0  0  0
  7  6  1  0  0  0  0
  9  7  1  0  0  0  0
  9 10  1  0  0  0  0
 10 15  1  1  0  0  0
 10  6  1  0  0  0  0
 11 10  1  0  0  0  0
 11 12  1  0  0  0  0
 12 16  1  0  0  0  0
 12  4  1  0  0  0  0
 13  9  1  0  0  0  0
 14  9  1  0  0  0  0
 17 12  1  0  0  0  0
 18 19  2  0  0  0  0
 18 20  1  0  0  0  0
 20 21  1  0  0  0  0
 22 25  1  0  0  0  0
 23 29  1  0  0  0  0
 24 30  1  0  0  0  0
 24 23  2  0  0  0  0
 25 24  1  0  0  0  0
 26 25  2  0  0  0  0
 26 27  1  0  0  0  0
 27 28  2  0  0  0  0
 28 23  1  0  0  0  0
 31 32  2  0  0  0  0
 31 27  1  0  0  0  0
 32 33  1  0  0  0  0
 34 32  1  0  0  0  0
 35 34  1  0  0  0  0
 36 38  1  0  0  0  0
 36 34  2  0  0  0  0
 37 36  1  0  0  0  0
 38 31  1  0  0  0  0
M  END
>  <minimizedAffinity>
-5.6382947

$$$$

 OpenBabel03242511223D

 38 41  0  0  1  0  0  0  0  0999 V2000
   40.6010   29.4890   42.7310 C   0  0  0  0  0  0  0  0  0  0  0  0
   39.6620   29.9980   43.0960 H   0  0  0  0  0  0  0  0  0  0  0  0
   41.3810   29.8080   43.4180 H   0  0  0  0  0  0  0  0  0  0  0  0
   40.3480   28.0660   42.6280 C   0  0  0  0  0  0  0  0  0  0  0  0
   39.1510   27.5980   42.7540 C   0  0  0  0  0  0  0  0  0  0  0  0
   38.8950   26.2150   42.6590 N   0  0  0  0  0  0  0  0  0  0  0  0
   38.0760   25.1620   42.0990 C   0  0  0  0  0  0  0  0  0  0  0  0
   36.8780   25.0700   41.7090 O   0  0  0  0  0  0  0  0  0  0  0  0
   39.3100   24.3030   42.2180 C   0  0  0  0  0  0  0  0  0  0  0  0
   39.7090   25.2040   43.3700 C   0  0  1  0  0  0  0  0  0  0  0  0
   41.4110   25.7370   43.4040 S   0  0  0  0  0  0  0  0  0  0  0  0
   41.5420   27.2340   42.3730 C   0  0  0  0  0  0  0  0  0  0  0  0
   39.9800   24.3700   41.3540 H   0  0  0  0  0  0  0  0  0  0  0  0
   39.1250   23.2860   42.5960 H   0  0  0  0  0  0  0  0  0  0  0  0
   39.2840   24.8800   44.3360 H   0  0  0  0  0  0  0  0  0  0  0  0
   42.4910   27.6970   42.6280 H   0  0  0  0  0  0  0  0  0  0  0  0
   41.5060   26.9350   41.2920 H   0  0  0  0  0  0  0  0  0  0  0  0
   38.0320   28.5180   43.0030 C   0  0  0  0  0  0  0  0  0  0  0  0
   37.3090   28.4930   44.0520 O   0  0  0  0  0  0  0  0  0  0  0  0
   37.0850   29.4790   42.9480 O   0  0  0  0  0  0  0  0  0  0  0  0
   36.5960   29.8240   42.1080 H   0  0  0  0  0  0  0  0  0  0  0  0
   40.8620   30.2210   41.0630 S   0  0  0  0  0  0  0  0  0  0  0  0
   37.9070   32.8810   40.2750 C   0  0  0  0  0  0  0  0  0  0  0  0
   39.1460   32.3370   40.6890 C   0  0  0  0  0  0  0  0  0  0  0  0
   39.3330   30.9500   40.5570 C   0  0  0  0  0  0  0  0  0  0  0  0
   38.3190   30.2330   40.0450 N   0  0  0  0  0  0  0  0  0  0  0  0
   37.1500   30.7640   39.6540 C   0  0  0  0  0  0  0  0  0  0  0  0
   36.9420   32.0960   39.7700 N   0  0  0  0  0  0  0  0  0  0  0  0
   37.8350   33.9530   40.4060 H   0  0  0  0  0  0  0  0  0  0  0  0
   39.9550   32.9020   41.0990 H   0  0  0  0  0  0  0  0  0  0  0  0
   36.0510   29.9780   39.0970 C   0  0  0  0  0  0  0  0  0  0  0  0
   34.9920   29.3300   39.7080 C   0  0  0  0  0  0  0  0  0  0  0  0
   34.8420   29.3320   40.7810 H   0  0  0  0  0  0  0  0  0  0  0  0
   34.2870   28.7590   38.6440 C   0  0  0  0  0  0  0  0  0  0  0  0
   33.3830   28.1720   38.8190 H   0  0  0  0  0  0  0  0  0  0  0  0
   34.9390   29.0810   37.4730 C   0  0  0  0  0  0  0  0  0  0  0  0
   34.6000   28.7640   36.5020 H   0  0  0  0  0  0  0  0  0  0  0  0
   35.9800   29.8060   37.7790 O   0  0  0  0  0  0  0  0  0  0  0  0
  1  2  1  0  0  0  0
  1  3  1  0  0  0  0
  4  1  1  0  0  0  0
  4  5  2  0  0  0  0
  5 18  1  0  0  0  0
  6  5  1  0  0  0  0
  6 10  1  0  0  0  0
  7  9  1  0  0  0  0
  7  6  1  0  0  0  0
  8  7  2  0  0  0  0
  9 14  1  0  0  0  0
  9 10  1  0  0  0  0
 10 11  1  0  0  0  0
 10 15  1  1  0  0  0
 12 16  1  0  0  0  0
 12  4  1  0  0  0  0
 12 11  1  0  0  0  0
 13  9  1  0  0  0  0
 17 12  1  0  0  0  0
 18 19  2  0  0  0  0
 20 18  1  0  0  0  0
 21 20  1  0  0  0  0
 22  1  1  0  0  0  0
 23 29  1  0  0  0  0
 23 24  1  0  0  0  0
 24 30  1  0  0  0  0
 25 24  2  0  0  0  0
 25 22  1  0  0  0  0
 26 25  1  0  0  0  0
 27 28  1  0  0  0  0
 27 26  2  0  0  0  0
 28 23  2  0  0  0  0
 31 27  1  0  0  0  0
 31 32  2  0  0  0  0
 32 33  1  0  0  0  0
 34 35  1  0  0  0  0
 34 32  1  0  0  0  0
 36 38  1  0  0  0  0
 36 34  2  0  0  0  0
 37 36  1  0  0  0  0
 38 31  1  0  0  0  0
M  END
>  <minimizedAffinity>
-5.63140583

$$$$

 OpenBabel03242511223D

 38 41  0  0  1  0  0  0  0  0999 V2000
   38.3790   30.6270   39.1210 C   0  0  0  0  0  0  0  0  0  0  0  0
   39.0510   30.3840   38.2450 H   0  0  0  0  0  0  0  0  0  0  0  0
   37.3720   30.6270   38.7130 H   0  0  0  0  0  0  0  0  0  0  0  0
   38.6620   29.6950   40.1940 C   0  0  0  0  0  0  0  0  0  0  0  0
   37.8130   29.5120   41.1490 C   0  0  0  0  0  0  0  0  0  0  0  0
   38.0810   28.6100   42.2000 N   0  0  0  0  0  0  0  0  0  0  0  0
   37.5980   27.5300   43.0320 C   0  0  0  0  0  0  0  0  0  0  0  0
   36.4660   27.1560   43.4480 O   0  0  0  0  0  0  0  0  0  0  0  0
   39.0470   27.1200   43.1310 C   0  0  0  0  0  0  0  0  0  0  0  0
   39.3760   28.5840   42.9150 C   0  0  1  0  0  0  0  0  0  0  0  0
   40.6910   28.9380   41.7630 S   0  0  0  0  0  0  0  0  0  0  0  0
   39.9630   29.0020   40.0940 C   0  0  0  0  0  0  0  0  0  0  0  0
   39.3790   26.4690   42.3140 H   0  0  0  0  0  0  0  0  0  0  0  0
   39.3690   26.8170   44.1390 H   0  0  0  0  0  0  0  0  0  0  0  0
   39.3850   29.1650   43.8530 H   0  0  0  0  0  0  0  0  0  0  0  0
   40.6990   29.4870   39.4590 H   0  0  0  0  0  0  0  0  0  0  0  0
   39.7470   27.9550   39.7510 H   0  0  0  0  0  0  0  0  0  0  0  0
   36.5440   30.2530   41.1480 C   0  0  0  0  0  0  0  0  0  0  0  0
   35.4650   29.8190   40.6270 O   0  0  0  0  0  0  0  0  0  0  0  0
   35.5480   31.1520   41.3030 O   0  0  0  0  0  0  0  0  0  0  0  0
   35.6320   32.1800   41.3020 H   0  0  0  0  0  0  0  0  0  0  0  0
   38.8940   32.3300   39.5920 S   0  0  0  0  0  0  0  0  0  0  0  0
   42.8070   33.3500   39.8540 C   0  0  0  0  0  0  0  0  0  0  0  0
   41.4220   33.2690   40.1290 C   0  0  0  0  0  0  0  0  0  0  0  0
   40.6310   32.4630   39.2920 C   0  0  0  0  0  0  0  0  0  0  0  0
   41.2470   31.8220   38.2840 N   0  0  0  0  0  0  0  0  0  0  0  0
   42.5630   31.9080   38.0370 C   0  0  0  0  0  0  0  0  0  0  0  0
   43.3490   32.6760   38.8260 N   0  0  0  0  0  0  0  0  0  0  0  0
   43.3530   33.9880   40.5380 H   0  0  0  0  0  0  0  0  0  0  0  0
   40.9270   33.7770   40.9280 H   0  0  0  0  0  0  0  0  0  0  0  0
   43.2270   31.2070   36.9400 C   0  0  0  0  0  0  0  0  0  0  0  0
   44.5340   31.2550   36.4860 C   0  0  0  0  0  0  0  0  0  0  0  0
   45.2910   31.8830   36.9400 H   0  0  0  0  0  0  0  0  0  0  0  0
   44.5490   30.3610   35.4110 C   0  0  0  0  0  0  0  0  0  0  0  0
   45.4640   30.1840   34.8400 H   0  0  0  0  0  0  0  0  0  0  0  0
   43.2840   29.8310   35.2720 C   0  0  0  0  0  0  0  0  0  0  0  0
   43.0250   29.1120   34.5140 H   0  0  0  0  0  0  0  0  0  0  0  0
   42.5260   30.3550   36.1960 O   0  0  0  0  0  0  0  0  0  0  0  0
  1 22  1  0  0  0  0
  1  4  1  0  0  0  0
  2  1  1  0  0  0  0
  3  1  1  0  0  0  0
  4  5  2  0  0  0  0
  5  6  1  0  0  0  0
  6 10  1  0  0  0  0
  6  7  1  0  0  0  0
  7  9  1  0  0  0  0
  7  8  2  0  0  0  0
  9 14  1  0  0  0  0
 10  9  1  0  0  0  0
 10 15  1  1  0  0  0
 11 10  1  0  0  0  0
 12  4  1  0  0  0  0
 12 11  1  0  0  0  0
 13  9  1  0  0  0  0
 16 12  1  0  0  0  0
 17 12  1  0  0  0  0
 18  5  1  0  0  0  0
 18 20  1  0  0  0  0
 19 18  2  0  0  0  0
 21 20  1  0  0  0  0
 23 24  1  0  0  0  0
 23 29  1  0  0  0  0
 24 30  1  0  0  0  0
 25 22  1  0  0  0  0
 25 24  2  0  0  0  0
 26 25  1  0  0  0  0
 27 26  2  0  0  0  0
 27 28  1  0  0  0  0
 28 23  2  0  0  0  0
 31 27  1  0  0  0  0
 32 33  1  0  0  0  0
 32 31  2  0  0  0  0
 34 32  1  0  0  0  0
 35 34  1  0  0  0  0
 36 34  2  0  0  0  0
 36 38  1  0  0  0  0
 37 36  1  0  0  0  0
 38 31  1  0  0  0  0
M  END
>  <minimizedAffinity>
-5.62708569

$$$$

 OpenBabel03242511223D

 38 41  0  0  1  0  0  0  0  0999 V2000
   36.6250   27.6880   42.6960 C   0  0  0  0  0  0  0  0  0  0  0  0
   36.2270   28.7410   42.5980 H   0  0  0  0  0  0  0  0  0  0  0  0
   35.9030   27.1700   43.3220 H   0  0  0  0  0  0  0  0  0  0  0  0
   36.8590   27.1550   41.3700 C   0  0  0  0  0  0  0  0  0  0  0  0
   36.3810   27.7470   40.3270 C   0  0  0  0  0  0  0  0  0  0  0  0
   36.6010   27.2340   39.0320 N   0  0  0  0  0  0  0  0  0  0  0  0
   36.9840   27.5010   37.6630 C   0  0  0  0  0  0  0  0  0  0  0  0
   36.9170   28.5000   36.8920 O   0  0  0  0  0  0  0  0  0  0  0  0
   37.4690   26.0730   37.6470 C   0  0  0  0  0  0  0  0  0  0  0  0
   36.4140   25.8040   38.7010 C   0  0  1  0  0  0  0  0  0  0  0  0
   36.9210   24.8070   40.0910 S   0  0  0  0  0  0  0  0  0  0  0  0
   37.6670   25.9190   41.3260 C   0  0  0  0  0  0  0  0  0  0  0  0
   38.4960   25.9510   38.0100 H   0  0  0  0  0  0  0  0  0  0  0  0
   37.2220   25.5160   36.7300 H   0  0  0  0  0  0  0  0  0  0  0  0
   35.4260   25.5650   38.2690 H   0  0  0  0  0  0  0  0  0  0  0  0
   37.7060   25.3580   42.2560 H   0  0  0  0  0  0  0  0  0  0  0  0
   38.6930   26.2130   40.9770 H   0  0  0  0  0  0  0  0  0  0  0  0
   35.5910   28.9770   40.4850 C   0  0  0  0  0  0  0  0  0  0  0  0
   34.4670   29.1800   39.9200 O   0  0  0  0  0  0  0  0  0  0  0  0
   35.1070   30.1930   40.8160 O   0  0  0  0  0  0  0  0  0  0  0  0
   35.6500   31.0520   40.9940 H   0  0  0  0  0  0  0  0  0  0  0  0
   38.2170   27.9170   43.5910 S   0  0  0  0  0  0  0  0  0  0  0  0
   41.2620   29.9950   41.9070 C   0  0  0  0  0  0  0  0  0  0  0  0
   40.5500   29.0030   42.6190 C   0  0  0  0  0  0  0  0  0  0  0  0
   39.1530   29.1310   42.7090 C   0  0  0  0  0  0  0  0  0  0  0  0
   38.5870   30.1910   42.1090 N   0  0  0  0  0  0  0  0  0  0  0  0
   39.2760   31.1250   41.4340 C   0  0  0  0  0  0  0  0  0  0  0  0
   40.6220   31.0270   41.3330 N   0  0  0  0  0  0  0  0  0  0  0  0
   42.3310   29.8320   41.8790 H   0  0  0  0  0  0  0  0  0  0  0  0
   40.9950   28.1580   43.0990 H   0  0  0  0  0  0  0  0  0  0  0  0
   38.6540   32.2750   40.7830 C   0  0  0  0  0  0  0  0  0  0  0  0
   37.4990   32.3820   40.0280 C   0  0  0  0  0  0  0  0  0  0  0  0
   36.8590   31.5350   39.8110 H   0  0  0  0  0  0  0  0  0  0  0  0
   37.4420   33.7370   39.6890 C   0  0  0  0  0  0  0  0  0  0  0  0
   36.6230   34.1300   39.0820 H   0  0  0  0  0  0  0  0  0  0  0  0
   38.5370   34.3660   40.2410 C   0  0  0  0  0  0  0  0  0  0  0  0
   38.7310   35.4180   40.1300 H   0  0  0  0  0  0  0  0  0  0  0  0
   39.2340   33.4690   40.8840 O   0  0  0  0  0  0  0  0  0  0  0  0
  1  3  1  0  0  0  0
  1 22  1  0  0  0  0
  2  1  1  0  0  0  0
  4  1  1  0  0  0  0
  5 18  1  0  0  0  0
  5  4  2  0  0  0  0
  6  5  1  0  0  0  0
  7  6  1  0  0  0  0
  8  7  2  0  0  0  0
  9  7  1  0  0  0  0
  9 13  1  0  0  0  0
  9 10  1  0  0  0  0
 10 15  1  6  0  0  0
 10  6  1  0  0  0  0
 10 11  1  0  0  0  0
 11 12  1  0  0  0  0
 12  4  1  0  0  0  0
 12 16  1  0  0  0  0
 14  9  1  0  0  0  0
 17 12  1  0  0  0  0
 18 20  1  0  0  0  0
 19 18  2  0  0  0  0
 20 21  1  0  0  0  0
 23 24  1  0  0  0  0
 24 25  2  0  0  0  0
 24 30  1  0  0  0  0
 25 22  1  0  0  0  0
 26 25  1  0  0  0  0
 27 26  2  0  0  0  0
 28 27  1  0  0  0  0
 28 23  2  0  0  0  0
 29 23  1  0  0  0  0
 31 38  1  0  0  0  0
 31 27  1  0  0  0  0
 32 31  2  0  0  0  0
 33 32  1  0  0  0  0
 34 32  1  0  0  0  0
 34 36  2  0  0  0  0
 35 34  1  0  0  0  0
 36 38  1  0  0  0  0
 37 36  1  0  0  0  0
M  END
>  <minimizedAffinity>
-5.60924053

$$$$

 OpenBabel03242511223D

 38 41  0  0  1  0  0  0  0  0999 V2000
   35.4470   29.0830   38.4810 C   0  0  0  0  0  0  0  0  0  0  0  0
   35.7130   30.1280   38.8150 H   0  0  0  0  0  0  0  0  0  0  0  0
   35.8040   29.0140   37.4570 H   0  0  0  0  0  0  0  0  0  0  0  0
   35.9860   28.1380   39.4380 C   0  0  0  0  0  0  0  0  0  0  0  0
   36.3090   28.5180   40.6290 C   0  0  0  0  0  0  0  0  0  0  0  0
   36.8370   27.6060   41.5670 N   0  0  0  0  0  0  0  0  0  0  0  0
   36.8050   27.0900   42.9180 C   0  0  0  0  0  0  0  0  0  0  0  0
   36.4980   27.5590   44.0490 O   0  0  0  0  0  0  0  0  0  0  0  0
   37.2900   25.7990   42.3070 C   0  0  0  0  0  0  0  0  0  0  0  0
   37.9210   26.6580   41.2290 C   0  0  1  0  0  0  0  0  0  0  0  0
   37.7120   26.0980   39.5480 S   0  0  0  0  0  0  0  0  0  0  0  0
   36.1240   26.7540   38.9410 C   0  0  0  0  0  0  0  0  0  0  0  0
   36.4840   25.1530   41.9400 H   0  0  0  0  0  0  0  0  0  0  0  0
   38.0800   25.2910   42.8800 H   0  0  0  0  0  0  0  0  0  0  0  0
   38.9320   27.0120   41.4990 H   0  0  0  0  0  0  0  0  0  0  0  0
   36.1460   26.6500   37.8600 H   0  0  0  0  0  0  0  0  0  0  0  0
   35.2880   26.1600   39.3970 H   0  0  0  0  0  0  0  0  0  0  0  0
   36.1250   29.9230   41.0210 C   0  0  0  0  0  0  0  0  0  0  0  0
   37.0810   30.7520   41.1680 O   0  0  0  0  0  0  0  0  0  0  0  0
   35.6510   31.1330   41.3850 O   0  0  0  0  0  0  0  0  0  0  0  0
   34.8300   31.3270   41.9800 H   0  0  0  0  0  0  0  0  0  0  0  0
   33.6070   29.0750   38.5320 S   0  0  0  0  0  0  0  0  0  0  0  0
   32.8070   27.4670   34.8990 C   0  0  0  0  0  0  0  0  0  0  0  0
   33.2830   27.6190   36.2220 C   0  0  0  0  0  0  0  0  0  0  0  0
   33.0300   28.8360   36.8780 C   0  0  0  0  0  0  0  0  0  0  0  0
   32.3490   29.7750   36.2020 N   0  0  0  0  0  0  0  0  0  0  0  0
   31.9010   29.6170   34.9460 C   0  0  0  0  0  0  0  0  0  0  0  0
   32.1310   28.4560   34.2910 N   0  0  0  0  0  0  0  0  0  0  0  0
   33.0380   26.5070   34.4580 H   0  0  0  0  0  0  0  0  0  0  0  0
   33.8260   26.8750   36.7640 H   0  0  0  0  0  0  0  0  0  0  0  0
   31.1600   30.6430   34.2160 C   0  0  0  0  0  0  0  0  0  0  0  0
   31.0000   31.9960   34.4570 C   0  0  0  0  0  0  0  0  0  0  0  0
   31.4510   32.5000   35.3030 H   0  0  0  0  0  0  0  0  0  0  0  0
   30.1840   32.4310   33.4080 C   0  0  0  0  0  0  0  0  0  0  0  0
   29.8790   33.4770   33.3290 H   0  0  0  0  0  0  0  0  0  0  0  0
   29.9000   31.3470   32.6060 C   0  0  0  0  0  0  0  0  0  0  0  0
   29.2870   31.4100   31.7230 H   0  0  0  0  0  0  0  0  0  0  0  0
   30.4960   30.3030   33.1150 O   0  0  0  0  0  0  0  0  0  0  0  0
  1 22  1  0  0  0  0
  1  2  1  0  0  0  0
  1  4  1  0  0  0  0
  3  1  1  0  0  0  0
  4  5  2  0  0  0  0
  5 18  1  0  0  0  0
  5  6  1  0  0  0  0
  6  7  1  0  0  0  0
  7  8  2  0  0  0  0
  9 14  1  0  0  0  0
  9  7  1  0  0  0  0
 10 15  1  1  0  0  0
 10  6  1  0  0  0  0
 10  9  1  0  0  0  0
 11 10  1  0  0  0  0
 12 17  1  0  0  0  0
 12  4  1  0  0  0  0
 12 11  1  0  0  0  0
 13  9  1  0  0  0  0
 16 12  1  0  0  0  0
 18 19  2  0  0  0  0
 18 20  1  0  0  0  0
 20 21  1  0  0  0  0
 23 24  1  0  0  0  0
 24 30  1  0  0  0  0
 24 25  2  0  0  0  0
 25 22  1  0  0  0  0
 26 25  1  0  0  0  0
 27 26  2  0  0  0  0
 28 23  2  0  0  0  0
 28 27  1  0  0  0  0
 29 23  1  0  0  0  0
 31 32  2  0  0  0  0
 31 27  1  0  0  0  0
 32 33  1  0  0  0  0
 34 32  1  0  0  0  0
 35 34  1  0  0  0  0
 36 38  1  0  0  0  0
 36 34  2  0  0  0  0
 37 36  1  0  0  0  0
 38 31  1  0  0  0  0
M  END
>  <minimizedAffinity>
-5.52522516

$$$$
