
 OpenBabel03252508543D

 42 45  0  0  1  0  0  0  0  0999 V2000
   43.3550   34.5000   40.7690 C   0  0  0  0  0  0  0  0  0  0  0  0
   43.3040   35.7170   40.4370 O   0  0  0  0  0  0  0  0  0  0  0  0
   41.9990   34.1040   40.4710 N   0  0  0  0  0  0  0  0  0  0  0  0
   41.5900   34.2550   39.0920 C   0  0  0  0  0  0  0  0  0  0  0  0
   40.7880   35.5720   39.0590 C   0  0  0  0  0  0  0  0  0  0  0  0
   40.0190   35.6270   40.3690 C   0  0  0  0  0  0  0  0  0  0  0  0
   39.6750   34.2260   40.8830 C   0  0  0  0  0  0  0  0  0  0  0  0
   40.9610   33.5700   41.3540 C   0  0  1  0  0  0  0  0  0  0  0  0
   40.9330   33.4050   38.7990 H   0  0  0  0  0  0  0  0  0  0  0  0
   42.4280   34.3630   38.3980 H   0  0  0  0  0  0  0  0  0  0  0  0
   41.5060   36.4190   39.0080 H   0  0  0  0  0  0  0  0  0  0  0  0
   40.0670   35.5560   38.2240 H   0  0  0  0  0  0  0  0  0  0  0  0
   39.1270   36.2500   40.2930 H   0  0  0  0  0  0  0  0  0  0  0  0
   40.6640   36.0970   41.1630 H   0  0  0  0  0  0  0  0  0  0  0  0
   39.2570   33.6300   40.0750 H   0  0  0  0  0  0  0  0  0  0  0  0
   38.9980   34.4050   41.7430 H   0  0  0  0  0  0  0  0  0  0  0  0
   41.1790   34.0060   42.3560 H   0  0  0  0  0  0  0  0  0  0  0  0
   40.9210   32.1110   41.3460 C   0  0  0  0  0  0  0  0  0  0  0  0
   41.7520   31.2200   42.0060 C   0  0  0  0  0  0  0  0  0  0  0  0
   42.5800   31.4700   42.6450 H   0  0  0  0  0  0  0  0  0  0  0  0
   41.2780   29.9710   41.6580 C   0  0  0  0  0  0  0  0  0  0  0  0
   41.6650   29.0090   41.9730 H   0  0  0  0  0  0  0  0  0  0  0  0
   40.1880   30.1870   40.8080 C   0  0  0  0  0  0  0  0  0  0  0  0
   39.5910   29.3990   40.3550 H   0  0  0  0  0  0  0  0  0  0  0  0
   39.9910   31.4900   40.6330 O   0  0  0  0  0  0  0  0  0  0  0  0
   44.4220   33.7930   41.2680 O   0  0  0  0  0  0  0  0  0  0  0  0
   45.7530   34.1230   41.1220 C   0  0  0  0  0  0  0  0  0  0  0  0
   46.3920   34.7480   42.2040 C   0  0  0  0  0  0  0  0  0  0  0  0
   47.7510   35.0690   42.0150 C   0  0  0  0  0  0  0  0  0  0  0  0
   48.3480   34.7590   40.8190 N   0  0  0  0  0  0  0  0  0  0  0  0
   47.6840   34.1680   39.8390 C   0  0  0  0  0  0  0  0  0  0  0  0
   46.3850   33.8410   39.9690 N   0  0  0  0  0  0  0  0  0  0  0  0
   48.2750   35.5500   42.8240 H   0  0  0  0  0  0  0  0  0  0  0  0
   48.1390   33.9150   38.8860 H   0  0  0  0  0  0  0  0  0  0  0  0
   45.6640   35.0270   43.4170 C   0  0  0  0  0  0  0  0  0  0  0  0
   45.0230   36.2430   43.6380 C   0  0  0  0  0  0  0  0  0  0  0  0
   44.4640   36.0870   44.8900 C   0  0  0  0  0  0  0  0  0  0  0  0
   44.7490   34.8620   45.3880 N   0  0  0  0  0  0  0  0  0  0  0  0
   45.4750   34.2380   44.4800 N   0  0  0  0  0  0  0  0  0  0  0  0
   44.9620   37.1130   43.0030 H   0  0  0  0  0  0  0  0  0  0  0  0
   43.8660   36.8370   45.4320 H   0  0  0  0  0  0  0  0  0  0  0  0
   44.4880   34.4110   46.2990 H   0  0  0  0  0  0  0  0  0  0  0  0
  1 26  1  0  0  0  0
  2  1  2  0  0  0  0
  3  1  1  0  0  0  0
  3  8  1  0  0  0  0
  4  3  1  0  0  0  0
  5  4  1  0  0  0  0
  5  6  1  0  0  0  0
  6  7  1  0  0  0  0
  6 14  1  0  0  0  0
  7  8  1  0  0  0  0
  7 16  1  0  0  0  0
  8 17  1  1  0  0  0
  9  4  1  0  0  0  0
 10  4  1  0  0  0  0
 11  5  1  0  0  0  0
 12  5  1  0  0  0  0
 13  6  1  0  0  0  0
 15  7  1  0  0  0  0
 18  8  1  0  0  0  0
 18 19  2  0  0  0  0
 19 20  1  0  0  0  0
 21 22  1  0  0  0  0
 21 19  1  0  0  0  0
 23 21  2  0  0  0  0
 24 23  1  0  0  0  0
 25 23  1  0  0  0  0
 25 18  1  0  0  0  0
 27 26  1  0  0  0  0
 27 28  1  0  0  0  0
 28 35  1  0  0  0  0
 29 28  2  0  0  0  0
 29 33  1  0  0  0  0
 30 29  1  0  0  0  0
 31 32  1  0  0  0  0
 31 30  2  0  0  0  0
 32 27  2  0  0  0  0
 34 31  1  0  0  0  0
 35 36  1  0  0  0  0
 35 39  2  0  0  0  0
 36 37  2  0  0  0  0
 37 38  1  0  0  0  0
 37 41  1  0  0  0  0
 38 42  1  0  0  0  0
 39 38  1  0  0  0  0
 40 36  1  0  0  0  0
M  END
>  <minimizedAffinity>
-6.54202414

>  <minimizedRMSD>
0.24702175

$$$$
