
     RDKit          3D

 42 45  0  0  0  0  0  0  0  0999 V2000
   45.7943   34.1227   41.0844 C   0  0  0  0  0  0  0  0  0  0  0  0
   46.4224   34.7592   42.1662 C   0  0  0  0  0  0  0  0  0  0  0  0
   47.7771   35.0998   41.9788 C   0  0  0  0  0  0  0  0  0  0  0  0
   48.3795   34.7964   40.7847 N   0  0  0  0  0  0  0  0  0  0  0  0
   47.7275   34.1945   39.8052 C   0  0  0  0  0  0  0  0  0  0  0  0
   46.4318   33.8477   39.9330 N   0  0  0  0  0  0  0  0  0  0  0  0
   45.6875   35.0290   43.3780 C   0  0  0  0  0  0  0  0  0  0  0  0
   45.0443   36.2432   43.6032 C   0  0  0  0  0  0  0  0  0  0  0  0
   44.4798   36.0778   44.8520 C   0  0  0  0  0  0  0  0  0  0  0  0
   44.7640   34.8507   45.3425 N   0  0  0  0  0  0  0  0  0  0  0  0
   45.4954   34.2329   44.4348 N   0  0  0  0  0  0  0  0  0  0  0  0
   44.4682   33.7735   41.2292 O   0  0  0  0  0  0  0  0  0  0  0  0
   43.3904   34.4866   40.7658 C   0  0  0  0  0  0  0  0  0  0  0  0
   43.3021   35.7276   40.5477 O   0  0  0  0  0  0  0  0  0  0  0  0
   42.0579   34.0750   40.3901 N   0  0  0  0  0  0  0  0  0  0  0  0
   41.6820   34.3416   39.0189 C   0  0  0  0  0  0  0  0  0  0  0  0
   40.8331   35.6274   39.0847 C   0  0  0  0  0  0  0  0  0  0  0  0
   40.0264   35.5314   40.3702 C   0  0  0  0  0  0  0  0  0  0  0  0
   39.7214   34.0762   40.7393 C   0  0  0  0  0  0  0  0  0  0  0  0
   41.0169   33.4238   41.1862 C   0  0  1  0  0  0  0  0  0  0  0  0
   48.2920   35.5898   42.7881 H   0  0  0  0  0  0  0  0  0  0  0  0
   48.1869   33.9461   38.8529 H   0  0  0  0  0  0  0  0  0  0  0  0
   44.9849   37.1174   42.9730 H   0  0  0  0  0  0  0  0  0  0  0  0
   43.8783   36.8241   45.3951 H   0  0  0  0  0  0  0  0  0  0  0  0
   44.4999   34.3944   46.2504 H   0  0  0  0  0  0  0  0  0  0  0  0
   41.0658   33.5012   38.6274 H   0  0  0  0  0  0  0  0  0  0  0  0
   42.5343   34.5442   38.3647 H   0  0  0  0  0  0  0  0  0  0  0  0
   41.5198   36.5000   39.1358 H   0  0  0  0  0  0  0  0  0  0  0  0
   40.1365   35.6656   38.2295 H   0  0  0  0  0  0  0  0  0  0  0  0
   39.1141   36.1265   40.3253 H   0  0  0  0  0  0  0  0  0  0  0  0
   40.6306   35.9449   41.2236 H   0  0  0  0  0  0  0  0  0  0  0  0
   39.3477   33.5462   39.8656 H   0  0  0  0  0  0  0  0  0  0  0  0
   39.0135   34.1490   41.5910 H   0  0  0  0  0  0  0  0  0  0  0  0
   41.1912   33.7698   42.2310 H   0  0  0  0  0  0  0  0  0  0  0  0
   41.0315   31.9712   41.0398 C   0  0  0  0  0  0  0  0  0  0  0  0
   42.0271   31.1658   40.5102 C   0  0  0  0  0  0  0  0  0  0  0  0
   42.9716   31.4933   40.1128 H   0  0  0  0  0  0  0  0  0  0  0  0
   41.5333   29.8809   40.6109 C   0  0  0  0  0  0  0  0  0  0  0  0
   42.0190   28.9629   40.3020 H   0  0  0  0  0  0  0  0  0  0  0  0
   40.2675   29.9909   41.1962 C   0  0  0  0  0  0  0  0  0  0  0  0
   39.6108   29.1523   41.4138 H   0  0  0  0  0  0  0  0  0  0  0  0
   39.9850   31.2660   41.4471 O   0  0  0  0  0  0  0  0  0  0  0  0
  1 12  1  0
  1  2  1  0
  2  7  1  0
  3  2  2  0
  4  3  1  0
  5  6  1  0
  5  4  2  0
  6  1  2  0
  7  8  1  0
  7 11  2  0
  8  9  2  0
  9 10  1  0
 11 10  1  0
 13 12  1  0
 14 13  2  0
 15 13  1  0
 15 20  1  0
 16 17  1  0
 16 15  1  0
 17 18  1  0
 18 19  1  0
 19 20  1  0
  3 21  1  0
  5 22  1  0
  8 23  1  0
  9 24  1  0
 10 25  1  0
 16 26  1  0
 16 27  1  0
 17 28  1  0
 17 29  1  0
 18 30  1  0
 18 31  1  0
 19 32  1  0
 19 33  1  0
 20 34  1  1
 35 36  2  0
 36 37  1  0
 36 38  1  0
 38 39  1  0
 38 40  2  0
 40 41  1  0
 40 42  1  0
 42 35  1  0
 20 35  1  0
M  ISO  8  21  14  22  14  23  14  24  14  25   9  26  13  27  13  28  13
M  ISO  8  29  13  30  13  31  13  32  13  33  13  34  13  37  16  39  16
M  ISO  1  41  14
M  END
>  <DihAtoms>  (1) 
14,19,34,35

>  <DihDeg>  (1) 
-134.99978309866654

$$$$
