
 OpenBabel03252501093D

 39 42  0  0  1  0  0  0  0  0999 V2000
   35.0140   28.8130   40.4490 O   0  0  0  0  0  0  0  0  0  0  0  0
   36.2390   29.5570   40.9810 P   0  0  2  0  0  0  0  0  0  0  0  0
   35.6890   31.1230   41.3300 O   0  0  0  0  0  0  0  0  0  0  0  0
   34.7560   31.1350   41.6180 H   0  0  0  0  0  0  0  0  0  0  0  0
   37.5080   29.4890   39.9550 O   0  0  0  0  0  0  0  0  0  0  0  0
   37.4780   30.6760   37.8480 C   0  0  1  0  0  0  0  0  0  0  0  0
   38.4430   29.5880   37.6360 C   0  0  0  0  0  0  0  0  0  0  0  0
   37.2730   29.4580   38.6290 C   0  0  1  0  0  0  0  0  0  0  0  0
   36.8140   30.9380   36.9960 H   0  0  0  0  0  0  0  0  0  0  0  0
   39.4240   29.5610   38.1690 H   0  0  0  0  0  0  0  0  0  0  0  0
   38.4560   28.9790   36.7260 H   0  0  0  0  0  0  0  0  0  0  0  0
   36.5800   28.6690   38.2810 H   0  0  0  0  0  0  0  0  0  0  0  0
   39.8940   33.1330   39.4250 C   0  0  0  0  0  0  0  0  0  0  0  0
   39.4160   32.0340   38.7180 C   0  0  0  0  0  0  0  0  0  0  0  0
   38.0240   31.8620   38.5940 C   0  0  0  0  0  0  0  0  0  0  0  0
   37.1900   32.7720   39.1650 N   0  0  0  0  0  0  0  0  0  0  0  0
   37.6810   33.8350   39.8500 C   0  0  0  0  0  0  0  0  0  0  0  0
   39.0320   34.0150   39.9780 N   0  0  0  0  0  0  0  0  0  0  0  0
   40.9590   33.2610   39.5170 H   0  0  0  0  0  0  0  0  0  0  0  0
   40.1040   31.3400   38.2830 H   0  0  0  0  0  0  0  0  0  0  0  0
   36.9560   34.5230   40.2810 H   0  0  0  0  0  0  0  0  0  0  0  0
   36.5980   28.8130   42.4420 O   0  0  0  0  0  0  0  0  0  0  0  0
   37.5490   27.8120   42.5900 C   0  0  0  0  0  0  0  0  0  0  0  0
   38.7110   27.8290   43.3280 C   0  0  0  0  0  0  0  0  0  0  0  0
   39.5490   26.7640   43.3760 C   0  0  0  0  0  0  0  0  0  0  0  0
   39.2500   25.6260   42.6740 C   0  0  0  0  0  0  0  0  0  0  0  0
   38.0740   25.6250   41.9320 C   0  0  0  0  0  0  0  0  0  0  0  0
   37.2440   26.7040   41.8970 N   0  0  0  0  0  0  0  0  0  0  0  0
   38.8770   28.7650   43.8560 H   0  0  0  0  0  0  0  0  0  0  0  0
   40.4530   26.8390   43.9770 H   0  0  0  0  0  0  0  0  0  0  0  0
   39.8890   24.7530   42.6810 H   0  0  0  0  0  0  0  0  0  0  0  0
   37.7020   24.4210   41.1540 C   0  0  0  0  0  0  0  0  0  0  0  0
   36.5730   24.2890   40.3950 C   0  0  0  0  0  0  0  0  0  0  0  0
   35.7940   25.0140   40.2430 H   0  0  0  0  0  0  0  0  0  0  0  0
   36.6040   23.0270   39.8400 C   0  0  0  0  0  0  0  0  0  0  0  0
   35.8390   22.6270   39.1840 H   0  0  0  0  0  0  0  0  0  0  0  0
   37.7710   22.4450   40.2970 C   0  0  0  0  0  0  0  0  0  0  0  0
   38.0050   21.4380   39.9830 H   0  0  0  0  0  0  0  0  0  0  0  0
   38.3810   23.2900   41.0590 O   0  0  0  0  0  0  0  0  0  0  0  0
  2  1  2  6  0  0  0
  2  3  1  0  0  0  0
  2 22  1  0  0  0  0
  3  4  1  0  0  0  0
  5  2  1  0  0  0  0
  6  9  1  6  0  0  0
  6 15  1  0  0  0  0
  6  8  1  0  0  0  0
  7  6  1  0  0  0  0
  7 10  1  0  0  0  0
  7  8  1  0  0  0  0
  8 12  1  6  0  0  0
  8  5  1  0  0  0  0
 11  7  1  0  0  0  0
 13 19  1  0  0  0  0
 13 18  1  0  0  0  0
 14 13  2  0  0  0  0
 15 14  1  0  0  0  0
 15 16  2  0  0  0  0
 16 17  1  0  0  0  0
 17 18  2  0  0  0  0
 17 21  1  0  0  0  0
 20 14  1  0  0  0  0
 22 23  1  0  0  0  0
 23 24  1  0  0  0  0
 24 25  2  0  0  0  0
 24 29  1  0  0  0  0
 25 30  1  0  0  0  0
 26 31  1  0  0  0  0
 26 25  1  0  0  0  0
 27 26  2  0  0  0  0
 28 27  1  0  0  0  0
 28 23  2  0  0  0  0
 32 27  1  0  0  0  0
 33 32  2  0  0  0  0
 34 33  1  0  0  0  0
 35 37  2  0  0  0  0
 35 33  1  0  0  0  0
 36 35  1  0  0  0  0
 37 39  1  0  0  0  0
 38 37  1  0  0  0  0
 39 32  1  0  0  0  0
M  END
>  <minimizedAffinity>
-5.98662663

$$$$

 OpenBabel03252501093D

 39 42  0  0  1  0  0  0  0  0999 V2000
   34.4260   29.2260   39.8870 O   0  0  0  0  0  0  0  0  0  0  0  0
   35.7700   29.4860   40.5670 P   0  0  2  0  0  0  0  0  0  0  0  0
   35.5710   30.9530   41.3960 O   0  0  0  0  0  0  0  0  0  0  0  0
   34.6560   31.0810   41.7130 H   0  0  0  0  0  0  0  0  0  0  0  0
   37.0210   29.4580   39.5160 O   0  0  0  0  0  0  0  0  0  0  0  0
   37.2060   30.9380   37.6120 C   0  0  1  0  0  0  0  0  0  0  0  0
   37.9460   29.7350   37.2080 C   0  0  0  0  0  0  0  0  0  0  0  0
   36.7780   29.6750   38.2090 C   0  0  1  0  0  0  0  0  0  0  0  0
   36.5990   31.4460   36.8310 H   0  0  0  0  0  0  0  0  0  0  0  0
   38.9070   29.4430   37.6980 H   0  0  0  0  0  0  0  0  0  0  0  0
   37.8390   29.2800   36.2170 H   0  0  0  0  0  0  0  0  0  0  0  0
   35.9460   29.0920   37.7700 H   0  0  0  0  0  0  0  0  0  0  0  0
   38.0300   33.7710   39.9900 C   0  0  0  0  0  0  0  0  0  0  0  0
   37.2960   32.9130   39.1770 C   0  0  0  0  0  0  0  0  0  0  0  0
   37.9700   31.8730   38.5080 C   0  0  0  0  0  0  0  0  0  0  0  0
   39.3130   31.7380   38.6750 N   0  0  0  0  0  0  0  0  0  0  0  0
   40.0060   32.5890   39.4730 C   0  0  0  0  0  0  0  0  0  0  0  0
   39.3640   33.6040   40.1290 N   0  0  0  0  0  0  0  0  0  0  0  0
   37.5100   34.5650   40.4990 H   0  0  0  0  0  0  0  0  0  0  0  0
   36.2410   33.0510   39.0710 H   0  0  0  0  0  0  0  0  0  0  0  0
   41.0780   32.4230   39.5600 H   0  0  0  0  0  0  0  0  0  0  0  0
   35.9170   28.2740   41.7190 O   0  0  0  0  0  0  0  0  0  0  0  0
   37.1250   27.6950   42.0860 C   0  0  0  0  0  0  0  0  0  0  0  0
   37.4080   26.3680   42.3200 C   0  0  0  0  0  0  0  0  0  0  0  0
   38.6480   25.9480   42.6750 C   0  0  0  0  0  0  0  0  0  0  0  0
   39.6640   26.8570   42.8110 C   0  0  0  0  0  0  0  0  0  0  0  0
   39.3620   28.1930   42.5720 C   0  0  0  0  0  0  0  0  0  0  0  0
   38.1110   28.5950   42.2160 N   0  0  0  0  0  0  0  0  0  0  0  0
   36.5510   25.7110   42.1910 H   0  0  0  0  0  0  0  0  0  0  0  0
   38.8090   24.8860   42.8460 H   0  0  0  0  0  0  0  0  0  0  0  0
   40.6680   26.5680   43.0920 H   0  0  0  0  0  0  0  0  0  0  0  0
   40.4240   29.2170   42.7050 C   0  0  0  0  0  0  0  0  0  0  0  0
   41.7430   28.9580   42.9540 C   0  0  0  0  0  0  0  0  0  0  0  0
   42.2110   28.0010   43.0910 H   0  0  0  0  0  0  0  0  0  0  0  0
   42.3910   30.1750   43.0020 C   0  0  0  0  0  0  0  0  0  0  0  0
   43.4520   30.2970   43.1850 H   0  0  0  0  0  0  0  0  0  0  0  0
   41.4160   31.1280   42.7770 C   0  0  0  0  0  0  0  0  0  0  0  0
   41.7030   32.1710   42.7700 H   0  0  0  0  0  0  0  0  0  0  0  0
   40.2850   30.5290   42.6080 O   0  0  0  0  0  0  0  0  0  0  0  0
  2  1  2  6  0  0  0
  2  3  1  0  0  0  0
  2 22  1  0  0  0  0
  3  4  1  0  0  0  0
  5  2  1  0  0  0  0
  6  9  1  6  0  0  0
  6  8  1  0  0  0  0
  6 15  1  0  0  0  0
  7  6  1  0  0  0  0
  7 10  1  0  0  0  0
  7  8  1  0  0  0  0
  8 12  1  6  0  0  0
  8  5  1  0  0  0  0
 11  7  1  0  0  0  0
 13 18  1  0  0  0  0
 13 19  1  0  0  0  0
 14 13  2  0  0  0  0
 15 16  2  0  0  0  0
 15 14  1  0  0  0  0
 16 17  1  0  0  0  0
 17 21  1  0  0  0  0
 17 18  2  0  0  0  0
 20 14  1  0  0  0  0
 22 23  1  0  0  0  0
 23 28  2  0  0  0  0
 23 24  1  0  0  0  0
 24 25  2  0  0  0  0
 25 26  1  0  0  0  0
 25 30  1  0  0  0  0
 26 31  1  0  0  0  0
 27 32  1  0  0  0  0
 27 26  2  0  0  0  0
 28 27  1  0  0  0  0
 29 24  1  0  0  0  0
 32 33  2  0  0  0  0
 33 35  1  0  0  0  0
 33 34  1  0  0  0  0
 35 36  1  0  0  0  0
 37 35  2  0  0  0  0
 38 37  1  0  0  0  0
 39 32  1  0  0  0  0
 39 37  1  0  0  0  0
M  END
>  <minimizedAffinity>
-5.97348738

$$$$

 OpenBabel03252501093D

 39 42  0  0  1  0  0  0  0  0999 V2000
   36.5470   30.6930   39.0800 O   0  0  0  0  0  0  0  0  0  0  0  0
   36.2990   29.9450   40.3900 P   0  0  2  0  0  0  0  0  0  0  0  0
   35.5520   31.0750   41.4110 O   0  0  0  0  0  0  0  0  0  0  0  0
   34.9970   31.7110   40.9210 H   0  0  0  0  0  0  0  0  0  0  0  0
   37.6580   29.2690   40.9940 O   0  0  0  0  0  0  0  0  0  0  0  0
   38.3260   28.4640   43.1740 C   0  0  1  0  0  0  0  0  0  0  0  0
   39.4640   29.2800   42.7270 C   0  0  0  0  0  0  0  0  0  0  0  0
   38.0240   29.5610   42.2570 C   0  0  1  0  0  0  0  0  0  0  0  0
   38.0570   28.5180   44.2520 H   0  0  0  0  0  0  0  0  0  0  0  0
   40.1090   28.9670   41.8700 H   0  0  0  0  0  0  0  0  0  0  0  0
   39.9730   29.9940   43.3820 H   0  0  0  0  0  0  0  0  0  0  0  0
   37.6990   30.5480   42.6370 H   0  0  0  0  0  0  0  0  0  0  0  0
   37.0670   25.0600   42.0860 C   0  0  0  0  0  0  0  0  0  0  0  0
   37.0780   26.3460   42.6180 C   0  0  0  0  0  0  0  0  0  0  0  0
   38.2800   27.0790   42.5940 C   0  0  0  0  0  0  0  0  0  0  0  0
   39.3910   26.5110   42.0530 N   0  0  0  0  0  0  0  0  0  0  0  0
   39.3550   25.2550   41.5410 C   0  0  0  0  0  0  0  0  0  0  0  0
   38.1930   24.5320   41.5580 N   0  0  0  0  0  0  0  0  0  0  0  0
   36.1450   24.5040   42.1070 H   0  0  0  0  0  0  0  0  0  0  0  0
   36.1830   26.7580   43.0350 H   0  0  0  0  0  0  0  0  0  0  0  0
   40.2810   24.8640   41.1250 H   0  0  0  0  0  0  0  0  0  0  0  0
   35.1550   28.7760   40.0130 O   0  0  0  0  0  0  0  0  0  0  0  0
   34.6290   28.5860   38.7420 C   0  0  0  0  0  0  0  0  0  0  0  0
   35.1540   27.8680   37.6910 C   0  0  0  0  0  0  0  0  0  0  0  0
   34.5190   27.7720   36.4960 C   0  0  0  0  0  0  0  0  0  0  0  0
   33.3190   28.4030   36.3070 C   0  0  0  0  0  0  0  0  0  0  0  0
   32.8020   29.1260   37.3780 C   0  0  0  0  0  0  0  0  0  0  0  0
   33.4540   29.2090   38.5710 N   0  0  0  0  0  0  0  0  0  0  0  0
   36.1070   27.3970   37.9190 H   0  0  0  0  0  0  0  0  0  0  0  0
   34.9850   27.1900   35.7040 H   0  0  0  0  0  0  0  0  0  0  0  0
   32.7770   28.3550   35.3720 H   0  0  0  0  0  0  0  0  0  0  0  0
   31.5070   29.8270   37.2290 C   0  0  0  0  0  0  0  0  0  0  0  0
   30.6570   30.1420   38.2530 C   0  0  0  0  0  0  0  0  0  0  0  0
   30.7850   29.9390   39.3000 H   0  0  0  0  0  0  0  0  0  0  0  0
   29.5730   30.7860   37.6940 C   0  0  0  0  0  0  0  0  0  0  0  0
   28.7250   31.1590   38.2570 H   0  0  0  0  0  0  0  0  0  0  0  0
   29.8220   30.8310   36.3350 C   0  0  0  0  0  0  0  0  0  0  0  0
   29.0930   31.3000   35.6900 H   0  0  0  0  0  0  0  0  0  0  0  0
   30.9590   30.2620   36.1070 O   0  0  0  0  0  0  0  0  0  0  0  0
  2  1  2  6  0  0  0
  2  5  1  0  0  0  0
  2  3  1  0  0  0  0
  4  3  1  0  0  0  0
  5  8  1  0  0  0  0
  6  9  1  1  0  0  0
  7  6  1  0  0  0  0
  7 11  1  0  0  0  0
  8 12  1  1  0  0  0
  8  7  1  0  0  0  0
  8  6  1  0  0  0  0
 10  7  1  0  0  0  0
 13 19  1  0  0  0  0
 13 14  1  0  0  0  0
 14 20  1  0  0  0  0
 15 14  2  0  0  0  0
 15  6  1  0  0  0  0
 16 15  1  0  0  0  0
 17 18  1  0  0  0  0
 17 16  2  0  0  0  0
 18 13  2  0  0  0  0
 21 17  1  0  0  0  0
 22  2  1  0  0  0  0
 23 22  1  0  0  0  0
 24 29  1  0  0  0  0
 24 23  2  0  0  0  0
 25 24  1  0  0  0  0
 26 25  2  0  0  0  0
 26 27  1  0  0  0  0
 27 28  2  0  0  0  0
 28 23  1  0  0  0  0
 30 25  1  0  0  0  0
 31 26  1  0  0  0  0
 32 27  1  0  0  0  0
 32 33  2  0  0  0  0
 33 34  1  0  0  0  0
 35 33  1  0  0  0  0
 35 36  1  0  0  0  0
 37 35  2  0  0  0  0
 38 37  1  0  0  0  0
 39 37  1  0  0  0  0
 39 32  1  0  0  0  0
M  END
>  <minimizedAffinity>
-5.5765419

$$$$

 OpenBabel03252501093D

 39 42  0  0  1  0  0  0  0  0999 V2000
   37.2670   31.4650   38.3160 O   0  0  0  0  0  0  0  0  0  0  0  0
   37.2820   31.2850   39.8330 P   0  0  2  0  0  0  0  0  0  0  0  0
   36.7980   32.7850   40.4620 O   0  0  0  0  0  0  0  0  0  0  0  0
   36.1690   33.2480   39.8770 H   0  0  0  0  0  0  0  0  0  0  0  0
   38.7210   30.7430   40.3860 O   0  0  0  0  0  0  0  0  0  0  0  0
   39.7280   31.0240   42.5670 C   0  0  1  0  0  0  0  0  0  0  0  0
   40.8590   31.1130   41.6320 C   0  0  0  0  0  0  0  0  0  0  0  0
   39.4310   31.5220   41.2260 C   0  0  1  0  0  0  0  0  0  0  0  0
   39.7440   31.7030   43.4480 H   0  0  0  0  0  0  0  0  0  0  0  0
   41.2050   30.2300   41.0430 H   0  0  0  0  0  0  0  0  0  0  0  0
   41.6400   31.8760   41.7210 H   0  0  0  0  0  0  0  0  0  0  0  0
   39.4040   32.6070   41.0150 H   0  0  0  0  0  0  0  0  0  0  0  0
   39.7400   27.2660   43.0500 C   0  0  0  0  0  0  0  0  0  0  0  0
   40.1880   28.5540   42.7730 C   0  0  0  0  0  0  0  0  0  0  0  0
   39.2770   29.6230   42.8730 C   0  0  0  0  0  0  0  0  0  0  0  0
   37.9920   29.3670   43.2370 N   0  0  0  0  0  0  0  0  0  0  0  0
   37.5800   28.1020   43.5010 C   0  0  0  0  0  0  0  0  0  0  0  0
   38.4540   27.0540   43.4080 N   0  0  0  0  0  0  0  0  0  0  0  0
   40.4400   26.4510   42.9720 H   0  0  0  0  0  0  0  0  0  0  0  0
   41.2070   28.7140   42.4900 H   0  0  0  0  0  0  0  0  0  0  0  0
   36.5370   27.9710   43.7860 H   0  0  0  0  0  0  0  0  0  0  0  0
   36.0550   30.1860   40.1540 O   0  0  0  0  0  0  0  0  0  0  0  0
   35.9110   28.9710   39.4970 C   0  0  0  0  0  0  0  0  0  0  0  0
   35.1840   28.6850   38.3630 C   0  0  0  0  0  0  0  0  0  0  0  0
   35.1380   27.4370   37.8340 C   0  0  0  0  0  0  0  0  0  0  0  0
   35.8270   26.4150   38.4300 C   0  0  0  0  0  0  0  0  0  0  0  0
   36.5560   26.7200   39.5760 C   0  0  0  0  0  0  0  0  0  0  0  0
   36.5900   27.9790   40.0920 N   0  0  0  0  0  0  0  0  0  0  0  0
   34.6660   29.5470   37.9500 H   0  0  0  0  0  0  0  0  0  0  0  0
   34.5450   27.2740   36.9360 H   0  0  0  0  0  0  0  0  0  0  0  0
   35.8190   25.4040   38.0440 H   0  0  0  0  0  0  0  0  0  0  0  0
   37.3190   25.6520   40.2610 C   0  0  0  0  0  0  0  0  0  0  0  0
   36.7890   24.7290   41.1180 C   0  0  0  0  0  0  0  0  0  0  0  0
   35.7650   24.6290   41.4270 H   0  0  0  0  0  0  0  0  0  0  0  0
   37.8270   23.9210   41.5340 C   0  0  0  0  0  0  0  0  0  0  0  0
   37.7200   23.0910   42.2230 H   0  0  0  0  0  0  0  0  0  0  0  0
   38.9550   24.4020   40.8970 C   0  0  0  0  0  0  0  0  0  0  0  0
   39.9010   23.9120   41.0780 H   0  0  0  0  0  0  0  0  0  0  0  0
   38.6160   25.4100   40.1650 O   0  0  0  0  0  0  0  0  0  0  0  0
  2  1  2  6  0  0  0
  2 22  1  0  0  0  0
  2  5  1  0  0  0  0
  2  3  1  0  0  0  0
  4  3  1  0  0  0  0
  5  8  1  0  0  0  0
  6 15  1  0  0  0  0
  6  9  1  1  0  0  0
  7 11  1  0  0  0  0
  7  6  1  0  0  0  0
  8 12  1  6  0  0  0
  8  7  1  0  0  0  0
  8  6  1  0  0  0  0
 10  7  1  0  0  0  0
 13 18  1  0  0  0  0
 14 15  1  0  0  0  0
 14 13  2  0  0  0  0
 15 16  2  0  0  0  0
 16 17  1  0  0  0  0
 17 21  1  0  0  0  0
 18 17  2  0  0  0  0
 19 13  1  0  0  0  0
 20 14  1  0  0  0  0
 23 28  1  0  0  0  0
 23 22  1  0  0  0  0
 24 23  2  0  0  0  0
 25 24  1  0  0  0  0
 25 26  2  0  0  0  0
 26 27  1  0  0  0  0
 27 28  2  0  0  0  0
 27 32  1  0  0  0  0
 29 24  1  0  0  0  0
 30 25  1  0  0  0  0
 31 26  1  0  0  0  0
 32 33  2  0  0  0  0
 33 34  1  0  0  0  0
 33 35  1  0  0  0  0
 35 36  1  0  0  0  0
 37 38  1  0  0  0  0
 37 35  2  0  0  0  0
 39 32  1  0  0  0  0
 39 37  1  0  0  0  0
M  END
>  <minimizedAffinity>
-5.55713606

$$$$

 OpenBabel03252501093D

 39 42  0  0  1  0  0  0  0  0999 V2000
   36.2450   28.5970   38.1120 O   0  0  0  0  0  0  0  0  0  0  0  0
   37.2070   29.1460   39.1660 P   0  0  2  0  0  0  0  0  0  0  0  0
   38.6690   29.4000   38.3440 O   0  0  0  0  0  0  0  0  0  0  0  0
   38.5320   29.6470   37.4090 H   0  0  0  0  0  0  0  0  0  0  0  0
   37.3180   28.1780   40.4780 O   0  0  0  0  0  0  0  0  0  0  0  0
   36.6980   27.6180   42.7480 C   0  0  1  0  0  0  0  0  0  0  0  0
   37.4080   28.8990   42.8720 C   0  0  0  0  0  0  0  0  0  0  0  0
   36.6420   28.5130   41.5940 C   0  0  1  0  0  0  0  0  0  0  0  0
   35.8150   27.4630   43.4050 H   0  0  0  0  0  0  0  0  0  0  0  0
   38.5030   28.9860   42.6710 H   0  0  0  0  0  0  0  0  0  0  0  0
   37.0430   29.7190   43.5010 H   0  0  0  0  0  0  0  0  0  0  0  0
   35.7900   29.2050   41.4510 H   0  0  0  0  0  0  0  0  0  0  0  0
   37.9110   24.0990   42.0430 C   0  0  0  0  0  0  0  0  0  0  0  0
   37.0650   25.1990   42.1420 C   0  0  0  0  0  0  0  0  0  0  0  0
   37.5910   26.4170   42.6160 C   0  0  0  0  0  0  0  0  0  0  0  0
   38.9050   26.4810   42.9610 N   0  0  0  0  0  0  0  0  0  0  0  0
   39.7090   25.3940   42.8550 C   0  0  0  0  0  0  0  0  0  0  0  0
   39.2110   24.2050   42.3960 N   0  0  0  0  0  0  0  0  0  0  0  0
   37.5050   23.1700   41.6800 H   0  0  0  0  0  0  0  0  0  0  0  0
   36.0370   25.1080   41.8610 H   0  0  0  0  0  0  0  0  0  0  0  0
   40.7500   25.5180   43.1490 H   0  0  0  0  0  0  0  0  0  0  0  0
   36.5910   30.6530   39.5740 O   0  0  0  0  0  0  0  0  0  0  0  0
   37.3790   31.7590   39.8670 C   0  0  0  0  0  0  0  0  0  0  0  0
   37.1510   33.0830   39.5650 C   0  0  0  0  0  0  0  0  0  0  0  0
   38.0210   34.0620   39.9190 C   0  0  0  0  0  0  0  0  0  0  0  0
   39.1670   33.7450   40.5980 C   0  0  0  0  0  0  0  0  0  0  0  0
   39.3830   32.4030   40.8950 C   0  0  0  0  0  0  0  0  0  0  0  0
   38.4980   31.4350   40.5310 N   0  0  0  0  0  0  0  0  0  0  0  0
   36.2220   33.2520   39.0260 H   0  0  0  0  0  0  0  0  0  0  0  0
   37.7850   35.0900   39.6510 H   0  0  0  0  0  0  0  0  0  0  0  0
   39.8890   34.4920   40.9000 H   0  0  0  0  0  0  0  0  0  0  0  0
   40.6070   32.0050   41.6270 C   0  0  0  0  0  0  0  0  0  0  0  0
   40.6700   31.0380   42.5910 C   0  0  0  0  0  0  0  0  0  0  0  0
   39.8690   30.4270   42.9640 H   0  0  0  0  0  0  0  0  0  0  0  0
   41.9810   30.9770   43.0170 C   0  0  0  0  0  0  0  0  0  0  0  0
   42.3460   30.3010   43.7810 H   0  0  0  0  0  0  0  0  0  0  0  0
   42.6600   31.9270   42.2780 C   0  0  0  0  0  0  0  0  0  0  0  0
   43.7190   32.0560   42.4480 H   0  0  0  0  0  0  0  0  0  0  0  0
   41.8230   32.5030   41.4800 O   0  0  0  0  0  0  0  0  0  0  0  0
  2  1  2  6  0  0  0
  2 22  1  0  0  0  0
  2  5  1  0  0  0  0
  3  2  1  0  0  0  0
  4  3  1  0  0  0  0
  5  8  1  0  0  0  0
  6  7  1  0  0  0  0
  6  9  1  1  0  0  0
  7 11  1  0  0  0  0
  8 12  1  6  0  0  0
  8  6  1  0  0  0  0
  8  7  1  0  0  0  0
 10  7  1  0  0  0  0
 13 14  2  0  0  0  0
 13 18  1  0  0  0  0
 14 15  1  0  0  0  0
 15  6  1  0  0  0  0
 15 16  2  0  0  0  0
 17 16  1  0  0  0  0
 17 21  1  0  0  0  0
 18 17  2  0  0  0  0
 19 13  1  0  0  0  0
 20 14  1  0  0  0  0
 22 23  1  0  0  0  0
 23 28  1  0  0  0  0
 24 23  2  0  0  0  0
 24 25  1  0  0  0  0
 25 26  2  0  0  0  0
 26 27  1  0  0  0  0
 26 31  1  0  0  0  0
 27 32  1  0  0  0  0
 28 27  2  0  0  0  0
 29 24  1  0  0  0  0
 30 25  1  0  0  0  0
 32 33  2  0  0  0  0
 33 34  1  0  0  0  0
 33 35  1  0  0  0  0
 35 36  1  0  0  0  0
 37 38  1  0  0  0  0
 37 35  2  0  0  0  0
 39 32  1  0  0  0  0
 39 37  1  0  0  0  0
M  END
>  <minimizedAffinity>
-5.52545977

$$$$

 OpenBabel03252501093D

 39 42  0  0  1  0  0  0  0  0999 V2000
   37.9300   25.3880   37.5390 O   0  0  0  0  0  0  0  0  0  0  0  0
   38.0800   26.2580   38.7870 P   0  0  2  0  0  0  0  0  0  0  0  0
   39.7440   26.2710   39.1200 O   0  0  0  0  0  0  0  0  0  0  0  0
   40.2860   26.2130   38.3110 H   0  0  0  0  0  0  0  0  0  0  0  0
   37.1390   25.7500   40.0220 O   0  0  0  0  0  0  0  0  0  0  0  0
   38.2480   25.0750   42.0630 C   0  0  1  0  0  0  0  0  0  0  0  0
   36.9080   24.4800   42.1660 C   0  0  0  0  0  0  0  0  0  0  0  0
   37.5790   24.7460   40.8060 C   0  0  1  0  0  0  0  0  0  0  0  0
   39.1010   24.4710   42.4420 H   0  0  0  0  0  0  0  0  0  0  0  0
   35.9940   25.1100   42.2900 H   0  0  0  0  0  0  0  0  0  0  0  0
   36.7430   23.4510   42.5010 H   0  0  0  0  0  0  0  0  0  0  0  0
   37.7700   23.7840   40.2950 H   0  0  0  0  0  0  0  0  0  0  0  0
   37.3430   28.4870   43.4400 C   0  0  0  0  0  0  0  0  0  0  0  0
   37.2600   27.1330   43.1350 C   0  0  0  0  0  0  0  0  0  0  0  0
   38.3160   26.5330   42.4200 C   0  0  0  0  0  0  0  0  0  0  0  0
   39.3820   27.2940   42.0520 N   0  0  0  0  0  0  0  0  0  0  0  0
   39.4380   28.6130   42.3620 C   0  0  0  0  0  0  0  0  0  0  0  0
   38.4200   29.2080   43.0560 N   0  0  0  0  0  0  0  0  0  0  0  0
   36.5340   28.9410   43.9870 H   0  0  0  0  0  0  0  0  0  0  0  0
   36.4050   26.5680   43.4420 H   0  0  0  0  0  0  0  0  0  0  0  0
   40.3210   29.1600   42.0350 H   0  0  0  0  0  0  0  0  0  0  0  0
   37.6530   27.8040   38.2940 O   0  0  0  0  0  0  0  0  0  0  0  0
   37.0540   28.7440   39.1220 C   0  0  0  0  0  0  0  0  0  0  0  0
   35.8380   28.6770   39.7640 C   0  0  0  0  0  0  0  0  0  0  0  0
   35.3810   29.6850   40.5480 C   0  0  0  0  0  0  0  0  0  0  0  0
   36.1360   30.8150   40.7190 C   0  0  0  0  0  0  0  0  0  0  0  0
   37.3620   30.8680   40.0630 C   0  0  0  0  0  0  0  0  0  0  0  0
   37.8040   29.8450   39.2810 N   0  0  0  0  0  0  0  0  0  0  0  0
   35.3000   27.7510   39.5790 H   0  0  0  0  0  0  0  0  0  0  0  0
   34.4110   29.5720   41.0290 H   0  0  0  0  0  0  0  0  0  0  0  0
   35.8120   31.6430   41.3350 H   0  0  0  0  0  0  0  0  0  0  0  0
   38.2190   32.0660   40.2140 C   0  0  0  0  0  0  0  0  0  0  0  0
   37.8340   33.3500   39.9460 C   0  0  0  0  0  0  0  0  0  0  0  0
   36.8780   33.6910   39.5930 H   0  0  0  0  0  0  0  0  0  0  0  0
   38.9170   34.1610   40.2140 C   0  0  0  0  0  0  0  0  0  0  0  0
   38.9200   35.2380   40.0960 H   0  0  0  0  0  0  0  0  0  0  0  0
   39.9230   33.3140   40.6390 C   0  0  0  0  0  0  0  0  0  0  0  0
   40.8800   33.7400   40.9070 H   0  0  0  0  0  0  0  0  0  0  0  0
   39.4750   32.1030   40.6250 O   0  0  0  0  0  0  0  0  0  0  0  0
  2  1  2  6  0  0  0
  2  3  1  0  0  0  0
  2  5  1  0  0  0  0
  4  3  1  0  0  0  0
  5  8  1  0  0  0  0
  6  7  1  0  0  0  0
  6 15  1  0  0  0  0
  6  9  1  1  0  0  0
  7 10  1  0  0  0  0
  7 11  1  0  0  0  0
  8 12  1  6  0  0  0
  8  6  1  0  0  0  0
  8  7  1  0  0  0  0
 13 19  1  0  0  0  0
 14 13  1  0  0  0  0
 14 20  1  0  0  0  0
 15 14  2  0  0  0  0
 16 17  2  0  0  0  0
 16 15  1  0  0  0  0
 17 18  1  0  0  0  0
 18 13  2  0  0  0  0
 21 17  1  0  0  0  0
 22  2  1  0  0  0  0
 22 23  1  0  0  0  0
 23 28  2  0  0  0  0
 23 24  1  0  0  0  0
 24 25  2  0  0  0  0
 25 26  1  0  0  0  0
 25 30  1  0  0  0  0
 26 31  1  0  0  0  0
 27 32  1  0  0  0  0
 27 26  2  0  0  0  0
 28 27  1  0  0  0  0
 29 24  1  0  0  0  0
 32 39  1  0  0  0  0
 33 35  1  0  0  0  0
 33 32  2  0  0  0  0
 34 33  1  0  0  0  0
 35 37  2  0  0  0  0
 36 35  1  0  0  0  0
 37 38  1  0  0  0  0
 39 37  1  0  0  0  0
M  END
>  <minimizedAffinity>
-5.26110411

$$$$

 OpenBabel03252501093D

 39 42  0  0  1  0  0  0  0  0999 V2000
   39.3100   29.2650   38.0230 O   0  0  0  0  0  0  0  0  0  0  0  0
   38.3030   29.8920   38.9860 P   0  0  2  0  0  0  0  0  0  0  0  0
   36.8650   29.0230   38.7520 O   0  0  0  0  0  0  0  0  0  0  0  0
   37.0280   28.0910   38.5110 H   0  0  0  0  0  0  0  0  0  0  0  0
   38.1660   31.5080   38.7870 O   0  0  0  0  0  0  0  0  0  0  0  0
   38.2840   33.1000   40.6040 C   0  0  1  0  0  0  0  0  0  0  0  0
   37.4360   33.7590   39.6010 C   0  0  0  0  0  0  0  0  0  0  0  0
   37.5130   32.2260   39.7220 C   0  0  1  0  0  0  0  0  0  0  0  0
   38.0050   33.2390   41.6720 H   0  0  0  0  0  0  0  0  0  0  0  0
   37.8450   34.1030   38.6200 H   0  0  0  0  0  0  0  0  0  0  0  0
   36.5090   34.2810   39.8610 H   0  0  0  0  0  0  0  0  0  0  0  0
   36.5280   31.8310   40.0320 H   0  0  0  0  0  0  0  0  0  0  0  0
   42.0150   32.4650   40.7730 C   0  0  0  0  0  0  0  0  0  0  0  0
   40.6530   32.3550   41.0340 C   0  0  0  0  0  0  0  0  0  0  0  0
   39.7590   33.1880   40.3330 C   0  0  0  0  0  0  0  0  0  0  0  0
   40.2520   34.0720   39.4240 N   0  0  0  0  0  0  0  0  0  0  0  0
   41.5850   34.1610   39.1880 C   0  0  0  0  0  0  0  0  0  0  0  0
   42.4640   33.3570   39.8620 N   0  0  0  0  0  0  0  0  0  0  0  0
   42.6950   31.8270   41.3110 H   0  0  0  0  0  0  0  0  0  0  0  0
   40.3050   31.6470   41.7560 H   0  0  0  0  0  0  0  0  0  0  0  0
   41.9080   34.8910   38.4480 H   0  0  0  0  0  0  0  0  0  0  0  0
   38.8740   29.5150   40.5190 O   0  0  0  0  0  0  0  0  0  0  0  0
   38.2140   28.6760   41.4070 C   0  0  0  0  0  0  0  0  0  0  0  0
   37.7370   28.9580   42.6680 C   0  0  0  0  0  0  0  0  0  0  0  0
   37.1080   28.0260   43.4250 C   0  0  0  0  0  0  0  0  0  0  0  0
   36.9320   26.7570   42.9410 C   0  0  0  0  0  0  0  0  0  0  0  0
   37.4210   26.4860   41.6670 C   0  0  0  0  0  0  0  0  0  0  0  0
   38.0490   27.4370   40.9210 N   0  0  0  0  0  0  0  0  0  0  0  0
   37.9150   29.9850   42.9790 H   0  0  0  0  0  0  0  0  0  0  0  0
   36.7540   28.3110   44.4130 H   0  0  0  0  0  0  0  0  0  0  0  0
   36.4370   25.9810   43.5090 H   0  0  0  0  0  0  0  0  0  0  0  0
   37.2570   25.1310   41.0950 C   0  0  0  0  0  0  0  0  0  0  0  0
   37.9380   24.0160   41.5000 C   0  0  0  0  0  0  0  0  0  0  0  0
   38.6780   23.9420   42.2740 H   0  0  0  0  0  0  0  0  0  0  0  0
   37.4960   22.9680   40.7200 C   0  0  0  0  0  0  0  0  0  0  0  0
   37.8530   21.9480   40.8040 H   0  0  0  0  0  0  0  0  0  0  0  0
   36.5540   23.5070   39.8650 C   0  0  0  0  0  0  0  0  0  0  0  0
   36.0670   22.8560   39.1520 H   0  0  0  0  0  0  0  0  0  0  0  0
   36.4440   24.7690   40.1160 O   0  0  0  0  0  0  0  0  0  0  0  0
  2  1  2  6  0  0  0
  2 22  1  0  0  0  0
  3  2  1  0  0  0  0
  4  3  1  0  0  0  0
  5  2  1  0  0  0  0
  5  8  1  0  0  0  0
  6  9  1  1  0  0  0
  7  8  1  0  0  0  0
  7 11  1  0  0  0  0
  7  6  1  0  0  0  0
  8 12  1  1  0  0  0
  8  6  1  0  0  0  0
 10  7  1  0  0  0  0
 13 14  1  0  0  0  0
 13 19  1  0  0  0  0
 14 20  1  0  0  0  0
 15  6  1  0  0  0  0
 15 14  2  0  0  0  0
 16 15  1  0  0  0  0
 17 16  2  0  0  0  0
 17 18  1  0  0  0  0
 18 13  2  0  0  0  0
 21 17  1  0  0  0  0
 22 23  1  0  0  0  0
 23 24  1  0  0  0  0
 24 29  1  0  0  0  0
 24 25  2  0  0  0  0
 25 30  1  0  0  0  0
 26 25  1  0  0  0  0
 26 31  1  0  0  0  0
 27 26  2  0  0  0  0
 28 23  2  0  0  0  0
 28 27  1  0  0  0  0
 32 33  2  0  0  0  0
 32 27  1  0  0  0  0
 33 34  1  0  0  0  0
 35 36  1  0  0  0  0
 35 33  1  0  0  0  0
 37 39  1  0  0  0  0
 37 35  2  0  0  0  0
 38 37  1  0  0  0  0
 39 32  1  0  0  0  0
M  END
>  <minimizedAffinity>
-5.24482822

$$$$

 OpenBabel03252501093D

 39 42  0  0  1  0  0  0  0  0999 V2000
   36.6320   29.3620   36.4810 O   0  0  0  0  0  0  0  0  0  0  0  0
   37.5670   29.8340   37.5940 P   0  0  2  0  0  0  0  0  0  0  0  0
   39.1320   29.5050   37.0280 O   0  0  0  0  0  0  0  0  0  0  0  0
   39.2010   29.5820   36.0570 H   0  0  0  0  0  0  0  0  0  0  0  0
   37.2080   29.1650   39.0410 O   0  0  0  0  0  0  0  0  0  0  0  0
   35.6580   28.7850   40.8590 C   0  0  1  0  0  0  0  0  0  0  0  0
   35.6250   30.2400   40.6540 C   0  0  0  0  0  0  0  0  0  0  0  0
   35.9480   29.2630   39.5080 C   0  0  1  0  0  0  0  0  0  0  0  0
   34.6950   28.2850   41.1040 H   0  0  0  0  0  0  0  0  0  0  0  0
   36.5050   30.8860   40.8870 H   0  0  0  0  0  0  0  0  0  0  0  0
   34.6910   30.8130   40.6350 H   0  0  0  0  0  0  0  0  0  0  0  0
   35.1520   29.3170   38.7410 H   0  0  0  0  0  0  0  0  0  0  0  0
   38.2240   26.4850   42.4340 C   0  0  0  0  0  0  0  0  0  0  0  0
   37.1410   26.9170   41.6760 C   0  0  0  0  0  0  0  0  0  0  0  0
   36.8320   28.2910   41.6570 C   0  0  0  0  0  0  0  0  0  0  0  0
   37.6010   29.1520   42.3750 N   0  0  0  0  0  0  0  0  0  0  0  0
   38.6520   28.7060   43.1070 C   0  0  0  0  0  0  0  0  0  0  0  0
   38.9630   27.3740   43.1350 N   0  0  0  0  0  0  0  0  0  0  0  0
   38.4570   25.4330   42.4460 H   0  0  0  0  0  0  0  0  0  0  0  0
   36.5600   26.2080   41.1240 H   0  0  0  0  0  0  0  0  0  0  0  0
   39.2230   29.4520   43.6580 H   0  0  0  0  0  0  0  0  0  0  0  0
   37.3870   31.5020   37.6350 O   0  0  0  0  0  0  0  0  0  0  0  0
   37.9960   32.3250   38.5730 C   0  0  0  0  0  0  0  0  0  0  0  0
   37.4200   33.2600   39.4030 C   0  0  0  0  0  0  0  0  0  0  0  0
   38.1510   33.9960   40.2760 C   0  0  0  0  0  0  0  0  0  0  0  0
   39.5080   33.8210   40.3500 C   0  0  0  0  0  0  0  0  0  0  0  0
   40.0760   32.8740   39.5040 C   0  0  0  0  0  0  0  0  0  0  0  0
   39.3240   32.1440   38.6340 N   0  0  0  0  0  0  0  0  0  0  0  0
   36.3420   33.3390   39.2860 H   0  0  0  0  0  0  0  0  0  0  0  0
   37.6370   34.7190   40.9060 H   0  0  0  0  0  0  0  0  0  0  0  0
   40.1310   34.3860   41.0300 H   0  0  0  0  0  0  0  0  0  0  0  0
   41.5380   32.6450   39.5420 C   0  0  0  0  0  0  0  0  0  0  0  0
   42.4550   33.4910   40.0990 C   0  0  0  0  0  0  0  0  0  0  0  0
   42.2730   34.4320   40.5850 H   0  0  0  0  0  0  0  0  0  0  0  0
   43.6960   32.9130   39.9260 C   0  0  0  0  0  0  0  0  0  0  0  0
   44.6280   33.3510   40.2640 H   0  0  0  0  0  0  0  0  0  0  0  0
   43.4660   31.7250   39.2600 C   0  0  0  0  0  0  0  0  0  0  0  0
   44.3110   31.0960   39.0150 H   0  0  0  0  0  0  0  0  0  0  0  0
   42.1960   31.6060   39.0560 O   0  0  0  0  0  0  0  0  0  0  0  0
  2  1  2  6  0  0  0
  2 22  1  0  0  0  0
  2  5  1  0  0  0  0
  3  2  1  0  0  0  0
  4  3  1  0  0  0  0
  5  8  1  0  0  0  0
  6  9  1  1  0  0  0
  6 15  1  0  0  0  0
  7  6  1  0  0  0  0
  7 10  1  0  0  0  0
  8 12  1  6  0  0  0
  8  7  1  0  0  0  0
  8  6  1  0  0  0  0
 11  7  1  0  0  0  0
 13 19  1  0  0  0  0
 13 18  1  0  0  0  0
 14 13  2  0  0  0  0
 15 14  1  0  0  0  0
 15 16  2  0  0  0  0
 16 17  1  0  0  0  0
 17 18  2  0  0  0  0
 17 21  1  0  0  0  0
 20 14  1  0  0  0  0
 22 23  1  0  0  0  0
 23 28  2  0  0  0  0
 23 24  1  0  0  0  0
 24 25  2  0  0  0  0
 25 26  1  0  0  0  0
 25 30  1  0  0  0  0
 26 31  1  0  0  0  0
 27 32  1  0  0  0  0
 27 26  2  0  0  0  0
 28 27  1  0  0  0  0
 29 24  1  0  0  0  0
 32 33  2  0  0  0  0
 33 34  1  0  0  0  0
 35 33  1  0  0  0  0
 35 36  1  0  0  0  0
 37 35  2  0  0  0  0
 38 37  1  0  0  0  0
 39 37  1  0  0  0  0
 39 32  1  0  0  0  0
M  END
>  <minimizedAffinity>
-5.20370579

$$$$

 OpenBabel03252501093D

 39 42  0  0  1  0  0  0  0  0999 V2000
   36.5630   30.3970   34.9950 O   0  0  0  0  0  0  0  0  0  0  0  0
   35.8480   29.1020   35.3760 P   0  0  2  0  0  0  0  0  0  0  0  0
   36.2760   27.9880   34.1710 O   0  0  0  0  0  0  0  0  0  0  0  0
   37.1730   28.1450   33.8190 H   0  0  0  0  0  0  0  0  0  0  0  0
   34.2400   29.3090   35.5780 O   0  0  0  0  0  0  0  0  0  0  0  0
   31.9990   28.4050   35.6750 C   0  0  1  0  0  0  0  0  0  0  0  0
   32.5740   27.8140   34.4590 C   0  0  0  0  0  0  0  0  0  0  0  0
   33.4480   28.2210   35.6590 C   0  0  1  0  0  0  0  0  0  0  0  0
   31.3380   27.7550   36.2900 H   0  0  0  0  0  0  0  0  0  0  0  0
   32.8140   28.4340   33.5610 H   0  0  0  0  0  0  0  0  0  0  0  0
   32.4570   26.7550   34.2040 H   0  0  0  0  0  0  0  0  0  0  0  0
   33.9130   27.3200   36.1000 H   0  0  0  0  0  0  0  0  0  0  0  0
   30.5350   31.8140   36.4460 C   0  0  0  0  0  0  0  0  0  0  0  0
   31.0000   30.5150   36.6270 C   0  0  0  0  0  0  0  0  0  0  0  0
   31.5030   29.8140   35.5130 C   0  0  0  0  0  0  0  0  0  0  0  0
   31.5210   30.4260   34.2990 N   0  0  0  0  0  0  0  0  0  0  0  0
   31.0620   31.6940   34.1490 C   0  0  0  0  0  0  0  0  0  0  0  0
   30.5710   32.3860   35.2220 N   0  0  0  0  0  0  0  0  0  0  0  0
   30.1510   32.3450   37.3010 H   0  0  0  0  0  0  0  0  0  0  0  0
   30.9690   30.0680   37.5980 H   0  0  0  0  0  0  0  0  0  0  0  0
   31.1070   32.1210   33.1480 H   0  0  0  0  0  0  0  0  0  0  0  0
   36.5790   28.6040   36.8030 O   0  0  0  0  0  0  0  0  0  0  0  0
   36.2240   29.0730   38.0610 C   0  0  0  0  0  0  0  0  0  0  0  0
   35.3070   28.5540   38.9470 C   0  0  0  0  0  0  0  0  0  0  0  0
   35.0650   29.1280   40.1520 C   0  0  0  0  0  0  0  0  0  0  0  0
   35.7420   30.2610   40.5180 C   0  0  0  0  0  0  0  0  0  0  0  0
   36.6650   30.7740   39.6120 C   0  0  0  0  0  0  0  0  0  0  0  0
   36.8950   30.1820   38.4070 N   0  0  0  0  0  0  0  0  0  0  0  0
   34.8120   27.6560   38.5840 H   0  0  0  0  0  0  0  0  0  0  0  0
   34.3280   28.6700   40.8080 H   0  0  0  0  0  0  0  0  0  0  0  0
   35.5820   30.7530   41.4680 H   0  0  0  0  0  0  0  0  0  0  0  0
   37.4250   31.9960   39.9570 C   0  0  0  0  0  0  0  0  0  0  0  0
   37.2410   33.2270   39.3890 C   0  0  0  0  0  0  0  0  0  0  0  0
   36.5380   33.5000   38.6240 H   0  0  0  0  0  0  0  0  0  0  0  0
   38.1410   34.0850   39.9850 C   0  0  0  0  0  0  0  0  0  0  0  0
   38.2370   35.1370   39.7430 H   0  0  0  0  0  0  0  0  0  0  0  0
   38.8390   33.3200   40.9000 C   0  0  0  0  0  0  0  0  0  0  0  0
   39.6090   33.7950   41.4920 H   0  0  0  0  0  0  0  0  0  0  0  0
   38.3910   32.1100   40.8530 O   0  0  0  0  0  0  0  0  0  0  0  0
  2  1  2  6  0  0  0
  2  5  1  0  0  0  0
  2 22  1  0  0  0  0
  3  2  1  0  0  0  0
  4  3  1  0  0  0  0
  5  8  1  0  0  0  0
  6  9  1  1  0  0  0
  7  8  1  0  0  0  0
  7  6  1  0  0  0  0
  8  6  1  0  0  0  0
  8 12  1  1  0  0  0
 10  7  1  0  0  0  0
 11  7  1  0  0  0  0
 13 14  1  0  0  0  0
 13 19  1  0  0  0  0
 14 20  1  0  0  0  0
 15  6  1  0  0  0  0
 15 14  2  0  0  0  0
 16 15  1  0  0  0  0
 17 16  2  0  0  0  0
 17 18  1  0  0  0  0
 18 13  2  0  0  0  0
 21 17  1  0  0  0  0
 22 23  1  0  0  0  0
 23 28  2  0  0  0  0
 23 24  1  0  0  0  0
 24 25  2  0  0  0  0
 25 26  1  0  0  0  0
 25 30  1  0  0  0  0
 26 31  1  0  0  0  0
 27 32  1  0  0  0  0
 27 26  2  0  0  0  0
 28 27  1  0  0  0  0
 29 24  1  0  0  0  0
 32 39  1  0  0  0  0
 33 32  2  0  0  0  0
 33 35  1  0  0  0  0
 34 33  1  0  0  0  0
 35 37  2  0  0  0  0
 36 35  1  0  0  0  0
 37 38  1  0  0  0  0
 39 37  1  0  0  0  0
M  END
>  <minimizedAffinity>
-5.18822861

$$$$
