
 OpenBabel03242515053D

 38 40  0  0  0  0  0  0  0  0999 V2000
   44.9840   34.6540   42.2670 C   0  0  0  0  0  0  0  0  0  0  0  0
   46.2760   34.3290   41.8570 C   0  0  0  0  0  0  0  0  0  0  0  0
   47.2300   33.9840   42.8300 C   0  0  0  0  0  0  0  0  0  0  0  0
   46.8240   33.9920   44.1140 N   0  0  0  0  0  0  0  0  0  0  0  0
   45.5710   34.3070   44.4920 C   0  0  0  0  0  0  0  0  0  0  0  0
   44.6790   34.6310   43.5640 N   0  0  0  0  0  0  0  0  0  0  0  0
   46.6100   34.3190   40.8440 H   0  0  0  0  0  0  0  0  0  0  0  0
   48.5990   33.6350   42.4620 C   0  0  0  0  0  0  0  0  0  0  0  0
   49.6960   34.4170   42.7580 C   0  0  0  0  0  0  0  0  0  0  0  0
   49.7340   35.3620   43.2790 H   0  0  0  0  0  0  0  0  0  0  0  0
   50.7500   33.6750   42.2120 C   0  0  0  0  0  0  0  0  0  0  0  0
   51.7950   33.9510   42.2330 H   0  0  0  0  0  0  0  0  0  0  0  0
   50.2400   32.5150   41.6290 C   0  0  0  0  0  0  0  0  0  0  0  0
   50.7550   31.7110   41.1170 H   0  0  0  0  0  0  0  0  0  0  0  0
   48.9370   32.5560   41.8170 O   0  0  0  0  0  0  0  0  0  0  0  0
   45.2640   34.2750   45.9100 C   0  0  0  0  0  0  0  0  0  0  0  0
   44.3750   35.0420   46.3380 O   0  0  0  0  0  0  0  0  0  0  0  0
   46.0140   33.3530   46.7230 N   0  0  0  0  0  0  0  0  0  0  0  0
   45.7160   32.4580   47.1720 H   0  0  0  0  0  0  0  0  0  0  0  0
   47.0060   33.6200   46.8870 H   0  0  0  0  0  0  0  0  0  0  0  0
   43.8350   35.0820   40.9690 S   0  0  0  0  0  0  0  0  0  0  0  0
   42.1190   34.9030   41.4720 C   0  0  0  0  0  0  0  0  0  0  0  0
   42.0770   35.0560   42.5750 H   0  0  0  0  0  0  0  0  0  0  0  0
   41.8100   33.8520   41.2110 H   0  0  0  0  0  0  0  0  0  0  0  0
   41.1870   35.8650   40.8190 C   0  0  0  0  0  0  0  0  0  0  0  0
   41.7100   36.7120   40.3270 H   0  0  0  0  0  0  0  0  0  0  0  0
   40.5480   36.3250   41.6190 H   0  0  0  0  0  0  0  0  0  0  0  0
   42.0040   36.0980   37.9050 Cl  0  0  0  0  0  0  0  0  0  0  0  0
   40.6120   35.2290   38.4600 C   0  0  0  0  0  0  0  0  0  0  0  0
   40.3280   35.1870   39.8290 C   0  0  0  0  0  0  0  0  0  0  0  0
   39.2030   34.4740   40.1920 C   0  0  0  0  0  0  0  0  0  0  0  0
   38.3320   33.8020   39.3420 C   0  0  0  0  0  0  0  0  0  0  0  0
   38.6490   33.8690   37.9970 C   0  0  0  0  0  0  0  0  0  0  0  0
   37.6050   33.0480   36.8370 Cl  0  0  0  0  0  0  0  0  0  0  0  0
   39.7590   34.5640   37.5750 C   0  0  0  0  0  0  0  0  0  0  0  0
   38.9850   34.4430   41.2540 H   0  0  0  0  0  0  0  0  0  0  0  0
   37.4830   33.2780   39.7340 H   0  0  0  0  0  0  0  0  0  0  0  0
   39.9840   34.6010   36.5160 H   0  0  0  0  0  0  0  0  0  0  0  0
  1  6  1  0  0  0  0
  2  1  2  0  0  0  0
  2  3  1  0  0  0  0
  3  4  2  0  0  0  0
  4  5  1  0  0  0  0
  5 16  1  0  0  0  0
  6  5  2  0  0  0  0
  7  2  1  0  0  0  0
  8  9  2  0  0  0  0
  8  3  1  0  0  0  0
  9 10  1  0  0  0  0
 11 12  1  0  0  0  0
 11  9  1  0  0  0  0
 13 15  1  0  0  0  0
 13 11  2  0  0  0  0
 14 13  1  0  0  0  0
 15  8  1  0  0  0  0
 16 17  2  0  0  0  0
 16 18  1  0  0  0  0
 18 20  1  0  0  0  0
 18 19  1  0  0  0  0
 21 22  1  0  0  0  0
 21  1  1  0  0  0  0
 22 23  1  0  0  0  0
 24 22  1  0  0  0  0
 25 22  1  0  0  0  0
 25 27  1  0  0  0  0
 26 25  1  0  0  0  0
 28 29  1  0  0  0  0
 29 30  1  0  0  0  0
 30 31  2  0  0  0  0
 30 25  1  0  0  0  0
 31 36  1  0  0  0  0
 32 37  1  0  0  0  0
 32 31  1  0  0  0  0
 33 32  2  0  0  0  0
 34 33  1  0  0  0  0
 35 33  1  0  0  0  0
 35 29  2  0  0  0  0
 38 35  1  0  0  0  0
M  END
>  <minimizedAffinity>
-6.96421766

>  <minimizedRMSD>
0.45419392

$$$$
