
 OpenBabel03252508393D

 40 43  0  0  0  0  0  0  0  0999 V2000
   45.2610   33.9690   40.7190 C   0  0  0  0  0  0  0  0  0  0  0  0
   44.1980   33.6590   39.9150 C   0  0  0  0  0  0  0  0  0  0  0  0
   44.4840   33.1780   38.6720 C   0  0  0  0  0  0  0  0  0  0  0  0
   45.7560   32.9900   38.1880 C   0  0  0  0  0  0  0  0  0  0  0  0
   46.8030   33.3100   39.0200 C   0  0  0  0  0  0  0  0  0  0  0  0
   46.5700   33.7980   40.2830 C   0  0  0  0  0  0  0  0  0  0  0  0
   43.6400   32.9280   38.0220 H   0  0  0  0  0  0  0  0  0  0  0  0
   45.9150   32.6020   37.1850 H   0  0  0  0  0  0  0  0  0  0  0  0
   47.7930   33.1500   38.6090 H   0  0  0  0  0  0  0  0  0  0  0  0
   41.0000   35.3170   41.0460 C   0  0  0  0  0  0  0  0  0  0  0  0
   42.2940   35.1460   40.5150 C   0  0  0  0  0  0  0  0  0  0  0  0
   42.8760   33.8680   40.4530 C   0  0  0  0  0  0  0  0  0  0  0  0
   42.1030   32.8710   40.9320 N   0  0  0  0  0  0  0  0  0  0  0  0
   40.8790   33.0470   41.4340 C   0  0  0  0  0  0  0  0  0  0  0  0
   40.3280   34.2560   41.4920 N   0  0  0  0  0  0  0  0  0  0  0  0
   40.4730   36.6190   41.0800 N   0  0  0  0  0  0  0  0  0  0  0  0
   42.8750   35.9880   40.1400 H   0  0  0  0  0  0  0  0  0  0  0  0
   40.3630   32.1620   41.7860 H   0  0  0  0  0  0  0  0  0  0  0  0
   41.0520   37.3340   41.6060 H   0  0  0  0  0  0  0  0  0  0  0  0
   39.5570   36.7630   40.5850 H   0  0  0  0  0  0  0  0  0  0  0  0
   47.7360   34.1110   41.0930 C   0  0  0  0  0  0  0  0  0  0  0  0
   48.2130   35.3980   40.9880 C   0  0  0  0  0  0  0  0  0  0  0  0
   49.3190   35.8700   41.6910 C   0  0  0  0  0  0  0  0  0  0  0  0
   49.9660   34.9850   42.5380 C   0  0  0  0  0  0  0  0  0  0  0  0
   49.5110   33.6970   42.6610 C   0  0  0  0  0  0  0  0  0  0  0  0
   48.4060   33.2590   41.9480 C   0  0  0  0  0  0  0  0  0  0  0  0
   47.7570   36.1390   40.3460 H   0  0  0  0  0  0  0  0  0  0  0  0
   49.6830   36.8860   41.5970 H   0  0  0  0  0  0  0  0  0  0  0  0
   50.8290   35.2760   43.1150 H   0  0  0  0  0  0  0  0  0  0  0  0
   49.9400   32.9250   43.2940 H   0  0  0  0  0  0  0  0  0  0  0  0
   47.8710   31.9020   42.0340 C   0  0  0  0  0  0  0  0  0  0  0  0
   47.1090   31.6260   43.1710 C   0  0  0  0  0  0  0  0  0  0  0  0
   46.8130   32.2160   44.0400 H   0  0  0  0  0  0  0  0  0  0  0  0
   46.6870   30.3010   43.0830 C   0  0  0  0  0  0  0  0  0  0  0  0
   46.0830   29.6720   43.7330 H   0  0  0  0  0  0  0  0  0  0  0  0
   47.2310   29.8590   41.8780 C   0  0  0  0  0  0  0  0  0  0  0  0
   47.1780   28.8940   41.3800 H   0  0  0  0  0  0  0  0  0  0  0  0
   47.9120   30.8190   41.2990 O   0  0  0  0  0  0  0  0  0  0  0  0
   44.8900   34.8930   43.1390 N   0  0  0  0  0  0  0  0  0  0  0  0
   45.0550   34.4820   42.0480 C   0  0  0  0  0  0  0  0  0  0  0  0
  1 40  1  0  0  0  0
  2 12  1  0  0  0  0
  2  1  2  0  0  0  0
  3  2  1  0  0  0  0
  4  3  2  0  0  0  0
  4  5  1  0  0  0  0
  5  6  2  0  0  0  0
  6  1  1  0  0  0  0
  6 21  1  0  0  0  0
  7  3  1  0  0  0  0
  8  4  1  0  0  0  0
  9  5  1  0  0  0  0
 10 16  1  0  0  0  0
 10 15  1  0  0  0  0
 11 10  2  0  0  0  0
 12 11  1  0  0  0  0
 12 13  2  0  0  0  0
 13 14  1  0  0  0  0
 14 15  2  0  0  0  0
 14 18  1  0  0  0  0
 16 19  1  0  0  0  0
 17 11  1  0  0  0  0
 20 16  1  0  0  0  0
 21 26  1  0  0  0  0
 22 21  2  0  0  0  0
 22 23  1  0  0  0  0
 23 24  2  0  0  0  0
 24 25  1  0  0  0  0
 24 29  1  0  0  0  0
 25 30  1  0  0  0  0
 26 31  1  0  0  0  0
 26 25  2  0  0  0  0
 27 22  1  0  0  0  0
 28 23  1  0  0  0  0
 31 32  2  0  0  0  0
 32 33  1  0  0  0  0
 34 32  1  0  0  0  0
 34 35  1  0  0  0  0
 36 34  2  0  0  0  0
 37 36  1  0  0  0  0
 38 36  1  0  0  0  0
 38 31  1  0  0  0  0
 40 39  3  0  0  0  0
M  END
>  <minimizedAffinity>
-5.93207026

>  <minimizedRMSD>
0.457639754

$$$$
