
 OpenBabel03252505263D

 42 45  0  0  1  0  0  0  0  0999 V2000
   40.2200   30.1570   41.5130 F   0  0  0  0  0  0  0  0  0  0  0  0
   39.0070   30.6040   41.0940 C   0  0  0  0  0  0  0  0  0  0  0  0
   38.9790   31.7010   40.2580 C   0  0  0  0  0  0  0  0  0  0  0  0
   37.7480   32.1490   39.8370 C   0  0  0  0  0  0  0  0  0  0  0  0
   36.6050   31.5010   40.2540 C   0  0  0  0  0  0  0  0  0  0  0  0
   36.6320   30.4170   41.0810 C   0  0  0  0  0  0  0  0  0  0  0  0
   37.8850   29.9660   41.5050 C   0  0  0  0  0  0  0  0  0  0  0  0
   37.7610   33.0200   39.1750 H   0  0  0  0  0  0  0  0  0  0  0  0
   35.6970   31.9380   39.8620 H   0  0  0  0  0  0  0  0  0  0  0  0
   35.7090   29.9600   41.3670 H   0  0  0  0  0  0  0  0  0  0  0  0
   37.8690   28.8370   42.3620 N   0  0  0  0  0  0  0  0  0  0  0  0
   37.3010   28.6400   43.6690 C   0  0  0  0  0  0  0  0  0  0  0  0
   36.5200   27.3290   43.5120 C   0  0  0  0  0  0  0  0  0  0  0  0
   37.1970   26.6480   42.3580 C   0  0  0  0  0  0  0  0  0  0  0  0
   38.4340   27.5010   42.1780 C   0  0  2  0  0  0  0  0  0  0  0  0
   38.0620   28.5590   44.4680 H   0  0  0  0  0  0  0  0  0  0  0  0
   36.6210   29.4850   43.8950 H   0  0  0  0  0  0  0  0  0  0  0  0
   36.7170   26.7200   44.4170 H   0  0  0  0  0  0  0  0  0  0  0  0
   35.4460   27.5320   43.3380 H   0  0  0  0  0  0  0  0  0  0  0  0
   36.5500   26.8140   41.4690 H   0  0  0  0  0  0  0  0  0  0  0  0
   37.4180   25.5880   42.5390 H   0  0  0  0  0  0  0  0  0  0  0  0
   38.7790   27.3490   41.1240 H   0  0  0  0  0  0  0  0  0  0  0  0
   39.5490   27.1790   43.1110 C   0  0  0  0  0  0  0  0  0  0  0  0
   39.1780   26.7880   44.0740 H   0  0  0  0  0  0  0  0  0  0  0  0
   40.1870   26.3990   42.6510 H   0  0  0  0  0  0  0  0  0  0  0  0
   40.1640   28.0870   43.2690 H   0  0  0  0  0  0  0  0  0  0  0  0
   41.7250   34.1110   40.0210 C   0  0  0  0  0  0  0  0  0  0  0  0
   42.5520   33.5500   39.0360 C   0  0  0  0  0  0  0  0  0  0  0  0
   42.1270   32.3470   38.4840 C   0  0  0  0  0  0  0  0  0  0  0  0
   40.9710   31.7900   38.9080 N   0  0  0  0  0  0  0  0  0  0  0  0
   40.2130   32.3520   39.8450 C   0  0  0  0  0  0  0  0  0  0  0  0
   40.5820   33.5000   40.3980 N   0  0  0  0  0  0  0  0  0  0  0  0
   42.0390   35.0570   40.4710 H   0  0  0  0  0  0  0  0  0  0  0  0
   43.4660   33.9850   38.6970 H   0  0  0  0  0  0  0  0  0  0  0  0
   42.8740   31.6370   37.4500 C   0  0  0  0  0  0  0  0  0  0  0  0
   42.2790   30.7300   36.5960 C   0  0  0  0  0  0  0  0  0  0  0  0
   41.2700   30.3600   36.4800 H   0  0  0  0  0  0  0  0  0  0  0  0
   43.2720   30.2590   35.7610 C   0  0  0  0  0  0  0  0  0  0  0  0
   43.3520   29.5610   34.9400 H   0  0  0  0  0  0  0  0  0  0  0  0
   44.4280   30.9060   36.1480 C   0  0  0  0  0  0  0  0  0  0  0  0
   45.4760   30.9530   35.8860 H   0  0  0  0  0  0  0  0  0  0  0  0
   44.1560   31.7200   37.1560 O   0  0  0  0  0  0  0  0  0  0  0  0
  2  7  1  0  0  0  0
  2  1  1  0  0  0  0
  3  2  2  0  0  0  0
  4  5  2  0  0  0  0
  4  3  1  0  0  0  0
  5  6  1  0  0  0  0
  6 10  1  0  0  0  0
  6  7  2  0  0  0  0
  7 11  1  0  0  0  0
  8  4  1  0  0  0  0
  9  5  1  0  0  0  0
 11 12  1  0  0  0  0
 12 17  1  0  0  0  0
 12 16  1  0  0  0  0
 13 12  1  0  0  0  0
 13 18  1  0  0  0  0
 14 21  1  0  0  0  0
 14 13  1  0  0  0  0
 15 22  1  6  0  0  0
 15 14  1  0  0  0  0
 15 11  1  0  0  0  0
 15 23  1  0  0  0  0
 19 13  1  0  0  0  0
 20 14  1  0  0  0  0
 23 26  1  0  0  0  0
 23 24  1  0  0  0  0
 25 23  1  0  0  0  0
 27 32  1  0  0  0  0
 27 33  1  0  0  0  0
 28 27  2  0  0  0  0
 29 30  2  0  0  0  0
 29 28  1  0  0  0  0
 30 31  1  0  0  0  0
 31  3  1  0  0  0  0
 31 32  2  0  0  0  0
 34 28  1  0  0  0  0
 35 29  1  0  0  0  0
 36 35  2  0  0  0  0
 37 36  1  0  0  0  0
 38 40  2  0  0  0  0
 38 36  1  0  0  0  0
 39 38  1  0  0  0  0
 40 42  1  0  0  0  0
 41 40  1  0  0  0  0
 42 35  1  0  0  0  0
M  END
>  <minimizedAffinity>
-5.89293528

$$$$

 OpenBabel03252505263D

 42 45  0  0  1  0  0  0  0  0999 V2000
   37.9160   28.3000   39.6670 F   0  0  0  0  0  0  0  0  0  0  0  0
   37.7440   28.1750   41.0100 C   0  0  0  0  0  0  0  0  0  0  0  0
   37.7400   29.3270   41.7680 C   0  0  0  0  0  0  0  0  0  0  0  0
   37.5660   29.1940   43.1270 C   0  0  0  0  0  0  0  0  0  0  0  0
   37.4020   27.9410   43.6770 C   0  0  0  0  0  0  0  0  0  0  0  0
   37.4060   26.8010   42.9270 C   0  0  0  0  0  0  0  0  0  0  0  0
   37.5840   26.9420   41.5480 C   0  0  0  0  0  0  0  0  0  0  0  0
   37.5680   30.1260   43.6990 H   0  0  0  0  0  0  0  0  0  0  0  0
   37.2740   27.9570   44.7500 H   0  0  0  0  0  0  0  0  0  0  0  0
   37.2750   25.8600   43.4160 H   0  0  0  0  0  0  0  0  0  0  0  0
   37.5810   25.7340   40.8060 N   0  0  0  0  0  0  0  0  0  0  0  0
   38.5460   24.6720   40.7100 C   0  0  0  0  0  0  0  0  0  0  0  0
   37.6980   23.4130   40.9320 C   0  0  0  0  0  0  0  0  0  0  0  0
   36.3130   23.8450   40.5460 C   0  0  0  0  0  0  0  0  0  0  0  0
   36.5770   25.1850   39.8960 C   0  0  2  0  0  0  0  0  0  0  0  0
   39.0620   24.6390   39.7310 H   0  0  0  0  0  0  0  0  0  0  0  0
   39.2970   24.7950   41.5160 H   0  0  0  0  0  0  0  0  0  0  0  0
   38.0280   22.6600   40.1890 H   0  0  0  0  0  0  0  0  0  0  0  0
   37.7780   23.0680   41.9810 H   0  0  0  0  0  0  0  0  0  0  0  0
   35.7680   24.0410   41.4950 H   0  0  0  0  0  0  0  0  0  0  0  0
   35.7960   23.1330   39.8900 H   0  0  0  0  0  0  0  0  0  0  0  0
   35.6210   25.7640   39.9520 H   0  0  0  0  0  0  0  0  0  0  0  0
   37.0220   25.1070   38.4760 C   0  0  0  0  0  0  0  0  0  0  0  0
   37.5810   24.1780   38.2730 H   0  0  0  0  0  0  0  0  0  0  0  0
   36.1290   25.1190   37.8200 H   0  0  0  0  0  0  0  0  0  0  0  0
   37.6420   25.9960   38.2410 H   0  0  0  0  0  0  0  0  0  0  0  0
   37.0480   32.4360   39.9620 C   0  0  0  0  0  0  0  0  0  0  0  0
   38.2900   33.0890   39.9710 C   0  0  0  0  0  0  0  0  0  0  0  0
   39.3330   32.4240   40.6080 C   0  0  0  0  0  0  0  0  0  0  0  0
   39.1090   31.2170   41.1710 N   0  0  0  0  0  0  0  0  0  0  0  0
   37.9170   30.6280   41.1430 C   0  0  0  0  0  0  0  0  0  0  0  0
   36.8940   31.2280   40.5460 N   0  0  0  0  0  0  0  0  0  0  0  0
   36.2120   32.9390   39.4690 H   0  0  0  0  0  0  0  0  0  0  0  0
   38.4730   34.0430   39.5280 H   0  0  0  0  0  0  0  0  0  0  0  0
   40.6840   32.9680   40.7030 C   0  0  0  0  0  0  0  0  0  0  0  0
   41.0560   34.1410   40.0780 C   0  0  0  0  0  0  0  0  0  0  0  0
   40.5370   34.8550   39.4530 H   0  0  0  0  0  0  0  0  0  0  0  0
   42.3870   34.3480   40.3800 C   0  0  0  0  0  0  0  0  0  0  0  0
   43.1450   35.0860   40.1570 H   0  0  0  0  0  0  0  0  0  0  0  0
   42.7620   33.2880   41.1780 C   0  0  0  0  0  0  0  0  0  0  0  0
   43.6320   32.9120   41.7000 H   0  0  0  0  0  0  0  0  0  0  0  0
   41.7240   32.4840   41.3520 O   0  0  0  0  0  0  0  0  0  0  0  0
  1  2  1  0  0  0  0
  2  7  2  0  0  0  0
  2  3  1  0  0  0  0
  3  4  2  0  0  0  0
  4  5  1  0  0  0  0
  4  8  1  0  0  0  0
  5  9  1  0  0  0  0
  6 10  1  0  0  0  0
  6  5  2  0  0  0  0
  7  6  1  0  0  0  0
 11  7  1  0  0  0  0
 12 11  1  0  0  0  0
 12 13  1  0  0  0  0
 12 17  1  0  0  0  0
 13 19  1  0  0  0  0
 14 13  1  0  0  0  0
 14 20  1  0  0  0  0
 15 22  1  1  0  0  0
 15 14  1  0  0  0  0
 15 11  1  0  0  0  0
 16 12  1  0  0  0  0
 18 13  1  0  0  0  0
 21 14  1  0  0  0  0
 23 15  1  0  0  0  0
 24 23  1  0  0  0  0
 25 23  1  0  0  0  0
 26 23  1  0  0  0  0
 27 28  2  0  0  0  0
 27 32  1  0  0  0  0
 28 29  1  0  0  0  0
 29 35  1  0  0  0  0
 29 30  2  0  0  0  0
 31 30  1  0  0  0  0
 31  3  1  0  0  0  0
 32 31  2  0  0  0  0
 33 27  1  0  0  0  0
 34 28  1  0  0  0  0
 35 42  1  0  0  0  0
 36 38  1  0  0  0  0
 36 35  2  0  0  0  0
 37 36  1  0  0  0  0
 38 40  2  0  0  0  0
 39 38  1  0  0  0  0
 40 42  1  0  0  0  0
 40 41  1  0  0  0  0
M  END
>  <minimizedAffinity>
-5.88819265

$$$$

 OpenBabel03252505263D

 42 45  0  0  1  0  0  0  0  0999 V2000
   40.2160   30.0630   40.7430 F   0  0  0  0  0  0  0  0  0  0  0  0
   39.2010   30.9040   40.4110 C   0  0  0  0  0  0  0  0  0  0  0  0
   37.9310   30.5800   40.8390 C   0  0  0  0  0  0  0  0  0  0  0  0
   36.9070   31.4350   40.5000 C   0  0  0  0  0  0  0  0  0  0  0  0
   37.1770   32.5650   39.7590 C   0  0  0  0  0  0  0  0  0  0  0  0
   38.4330   32.8860   39.3350 C   0  0  0  0  0  0  0  0  0  0  0  0
   39.4690   32.0140   39.6830 C   0  0  0  0  0  0  0  0  0  0  0  0
   35.9130   31.1490   40.8550 H   0  0  0  0  0  0  0  0  0  0  0  0
   36.3000   33.1620   39.5530 H   0  0  0  0  0  0  0  0  0  0  0  0
   38.5740   33.7780   38.7630 H   0  0  0  0  0  0  0  0  0  0  0  0
   40.7570   32.3840   39.2230 N   0  0  0  0  0  0  0  0  0  0  0  0
   41.6630   31.7440   38.3070 C   0  0  0  0  0  0  0  0  0  0  0  0
   42.0510   32.8810   37.3530 C   0  0  0  0  0  0  0  0  0  0  0  0
   41.8030   34.1220   38.1600 C   0  0  0  0  0  0  0  0  0  0  0  0
   41.5770   33.5520   39.5430 C   0  0  2  0  0  0  0  0  0  0  0  0
   42.5560   31.3170   38.8030 H   0  0  0  0  0  0  0  0  0  0  0  0
   41.1220   30.9400   37.7710 H   0  0  0  0  0  0  0  0  0  0  0  0
   43.1440   32.8100   37.1850 H   0  0  0  0  0  0  0  0  0  0  0  0
   41.4530   32.8310   36.4220 H   0  0  0  0  0  0  0  0  0  0  0  0
   40.8310   34.5360   37.8120 H   0  0  0  0  0  0  0  0  0  0  0  0
   42.6230   34.8500   38.1140 H   0  0  0  0  0  0  0  0  0  0  0  0
   40.9890   34.3140   40.1140 H   0  0  0  0  0  0  0  0  0  0  0  0
   42.8250   33.2320   40.2910 C   0  0  0  0  0  0  0  0  0  0  0  0
   43.6500   32.9540   39.6130 H   0  0  0  0  0  0  0  0  0  0  0  0
   43.1390   34.1280   40.8620 H   0  0  0  0  0  0  0  0  0  0  0  0
   42.6170   32.4140   41.0100 H   0  0  0  0  0  0  0  0  0  0  0  0
   37.5630   28.2940   43.6760 C   0  0  0  0  0  0  0  0  0  0  0  0
   37.2420   27.0750   43.0590 C   0  0  0  0  0  0  0  0  0  0  0  0
   37.1630   27.0870   41.6710 C   0  0  0  0  0  0  0  0  0  0  0  0
   37.3930   28.2370   41.0000 N   0  0  0  0  0  0  0  0  0  0  0  0
   37.6950   29.3750   41.6200 C   0  0  0  0  0  0  0  0  0  0  0  0
   37.7800   29.4070   42.9440 N   0  0  0  0  0  0  0  0  0  0  0  0
   37.6300   28.3100   44.7670 H   0  0  0  0  0  0  0  0  0  0  0  0
   37.0590   26.1630   43.5840 H   0  0  0  0  0  0  0  0  0  0  0  0
   36.8410   25.9030   40.8810 C   0  0  0  0  0  0  0  0  0  0  0  0
   36.8490   24.6310   41.4160 C   0  0  0  0  0  0  0  0  0  0  0  0
   37.0610   24.2320   42.3980 H   0  0  0  0  0  0  0  0  0  0  0  0
   36.5010   23.7680   40.3970 C   0  0  0  0  0  0  0  0  0  0  0  0
   36.3600   22.7030   40.2720 H   0  0  0  0  0  0  0  0  0  0  0  0
   36.2950   24.5600   39.2860 C   0  0  0  0  0  0  0  0  0  0  0  0
   36.0200   24.4680   38.2440 H   0  0  0  0  0  0  0  0  0  0  0  0
   36.5060   25.8270   39.6080 O   0  0  0  0  0  0  0  0  0  0  0  0
  2  1  1  0  0  0  0
  2  3  1  0  0  0  0
  3 31  1  0  0  0  0
  4  3  2  0  0  0  0
  4  8  1  0  0  0  0
  5  4  1  0  0  0  0
  6  7  1  0  0  0  0
  6  5  2  0  0  0  0
  7  2  2  0  0  0  0
  9  5  1  0  0  0  0
 10  6  1  0  0  0  0
 11 15  1  0  0  0  0
 11  7  1  0  0  0  0
 12 16  1  0  0  0  0
 12 11  1  0  0  0  0
 13 14  1  0  0  0  0
 13 12  1  0  0  0  0
 14 15  1  0  0  0  0
 15 22  1  1  0  0  0
 15 23  1  0  0  0  0
 17 12  1  0  0  0  0
 18 13  1  0  0  0  0
 19 13  1  0  0  0  0
 20 14  1  0  0  0  0
 21 14  1  0  0  0  0
 23 25  1  0  0  0  0
 23 26  1  0  0  0  0
 24 23  1  0  0  0  0
 27 33  1  0  0  0  0
 28 34  1  0  0  0  0
 28 27  1  0  0  0  0
 29 28  2  0  0  0  0
 30 31  2  0  0  0  0
 30 29  1  0  0  0  0
 31 32  1  0  0  0  0
 32 27  2  0  0  0  0
 35 36  2  0  0  0  0
 35 29  1  0  0  0  0
 36 37  1  0  0  0  0
 38 36  1  0  0  0  0
 39 38  1  0  0  0  0
 40 42  1  0  0  0  0
 40 38  2  0  0  0  0
 41 40  1  0  0  0  0
 42 35  1  0  0  0  0
M  END
>  <minimizedAffinity>
-5.81295156

$$$$

 OpenBabel03252505263D

 42 45  0  0  1  0  0  0  0  0999 V2000
   40.0640   30.8710   38.8270 F   0  0  0  0  0  0  0  0  0  0  0  0
   39.4580   32.0110   39.2510 C   0  0  0  0  0  0  0  0  0  0  0  0
   38.0950   31.9770   39.4590 C   0  0  0  0  0  0  0  0  0  0  0  0
   37.4870   33.1340   39.8880 C   0  0  0  0  0  0  0  0  0  0  0  0
   38.2420   34.2690   40.0920 C   0  0  0  0  0  0  0  0  0  0  0  0
   39.5900   34.3040   39.8850 C   0  0  0  0  0  0  0  0  0  0  0  0
   40.2020   33.1250   39.4500 C   0  0  0  0  0  0  0  0  0  0  0  0
   36.4060   33.0730   40.0440 H   0  0  0  0  0  0  0  0  0  0  0  0
   37.6610   35.1160   40.4280 H   0  0  0  0  0  0  0  0  0  0  0  0
   40.1170   35.2170   40.0620 H   0  0  0  0  0  0  0  0  0  0  0  0
   41.6030   33.2040   39.2490 N   0  0  0  0  0  0  0  0  0  0  0  0
   42.6880   33.4210   40.1680 C   0  0  0  0  0  0  0  0  0  0  0  0
   43.6700   32.2970   39.8140 C   0  0  0  0  0  0  0  0  0  0  0  0
   43.3210   31.9540   38.3950 C   0  0  0  0  0  0  0  0  0  0  0  0
   42.3910   33.0880   38.0230 C   0  0  2  0  0  0  0  0  0  0  0  0
   43.1610   34.4150   40.0590 H   0  0  0  0  0  0  0  0  0  0  0  0
   42.3080   33.3070   41.2030 H   0  0  0  0  0  0  0  0  0  0  0  0
   44.6860   32.7410   39.8050 H   0  0  0  0  0  0  0  0  0  0  0  0
   43.5620   31.4470   40.5140 H   0  0  0  0  0  0  0  0  0  0  0  0
   42.7090   31.0270   38.4360 H   0  0  0  0  0  0  0  0  0  0  0  0
   44.1930   31.8680   37.7340 H   0  0  0  0  0  0  0  0  0  0  0  0
   41.7620   32.7230   37.1710 H   0  0  0  0  0  0  0  0  0  0  0  0
   43.0790   34.3460   37.6210 C   0  0  0  0  0  0  0  0  0  0  0  0
   44.0530   34.4600   38.1260 H   0  0  0  0  0  0  0  0  0  0  0  0
   43.2630   34.3210   36.5280 H   0  0  0  0  0  0  0  0  0  0  0  0
   42.4190   35.2080   37.8450 H   0  0  0  0  0  0  0  0  0  0  0  0
   35.9090   29.4820   37.9080 C   0  0  0  0  0  0  0  0  0  0  0  0
   35.9250   28.4290   38.8350 C   0  0  0  0  0  0  0  0  0  0  0  0
   36.6990   28.6210   39.9750 C   0  0  0  0  0  0  0  0  0  0  0  0
   37.3780   29.7780   40.1320 N   0  0  0  0  0  0  0  0  0  0  0  0
   37.3390   30.7540   39.2310 C   0  0  0  0  0  0  0  0  0  0  0  0
   36.6140   30.6120   38.1280 N   0  0  0  0  0  0  0  0  0  0  0  0
   35.3090   29.3540   37.0030 H   0  0  0  0  0  0  0  0  0  0  0  0
   35.3900   27.5120   38.7160 H   0  0  0  0  0  0  0  0  0  0  0  0
   36.8190   27.6230   41.0330 C   0  0  0  0  0  0  0  0  0  0  0  0
   36.6330   27.9290   42.3660 C   0  0  0  0  0  0  0  0  0  0  0  0
   36.3890   28.8370   42.8990 H   0  0  0  0  0  0  0  0  0  0  0  0
   36.8230   26.7590   43.0730 C   0  0  0  0  0  0  0  0  0  0  0  0
   36.7970   26.4440   44.1070 H   0  0  0  0  0  0  0  0  0  0  0  0
   37.1160   25.7930   42.1330 C   0  0  0  0  0  0  0  0  0  0  0  0
   37.3490   24.7380   42.0750 H   0  0  0  0  0  0  0  0  0  0  0  0
   37.1050   26.3400   40.9270 O   0  0  0  0  0  0  0  0  0  0  0  0
  1  2  1  0  0  0  0
  2  7  2  0  0  0  0
  2  3  1  0  0  0  0
  3  4  2  0  0  0  0
  4  8  1  0  0  0  0
  4  5  1  0  0  0  0
  5  9  1  0  0  0  0
  6 10  1  0  0  0  0
  6  5  2  0  0  0  0
  7  6  1  0  0  0  0
 11  7  1  0  0  0  0
 11 12  1  0  0  0  0
 12 17  1  0  0  0  0
 13 12  1  0  0  0  0
 13 19  1  0  0  0  0
 14 20  1  0  0  0  0
 14 13  1  0  0  0  0
 15 22  1  6  0  0  0
 15 14  1  0  0  0  0
 15 11  1  0  0  0  0
 16 12  1  0  0  0  0
 18 13  1  0  0  0  0
 21 14  1  0  0  0  0
 23 26  1  0  0  0  0
 23 15  1  0  0  0  0
 23 24  1  0  0  0  0
 25 23  1  0  0  0  0
 27 32  2  0  0  0  0
 27 28  1  0  0  0  0
 28 29  2  0  0  0  0
 29 30  1  0  0  0  0
 29 35  1  0  0  0  0
 31  3  1  0  0  0  0
 31 30  2  0  0  0  0
 32 31  1  0  0  0  0
 33 27  1  0  0  0  0
 34 28  1  0  0  0  0
 35 36  2  0  0  0  0
 36 37  1  0  0  0  0
 36 38  1  0  0  0  0
 38 39  1  0  0  0  0
 40 38  2  0  0  0  0
 41 40  1  0  0  0  0
 42 35  1  0  0  0  0
 42 40  1  0  0  0  0
M  END
>  <minimizedAffinity>
-5.62062979

$$$$

 OpenBabel03252505263D

 42 45  0  0  1  0  0  0  0  0999 V2000
   38.1190   27.2050   39.5790 F   0  0  0  0  0  0  0  0  0  0  0  0
   37.9030   27.8160   40.7750 C   0  0  0  0  0  0  0  0  0  0  0  0
   37.7010   29.1800   40.7730 C   0  0  0  0  0  0  0  0  0  0  0  0
   37.4820   29.7930   41.9850 C   0  0  0  0  0  0  0  0  0  0  0  0
   37.4720   29.0410   43.1400 C   0  0  0  0  0  0  0  0  0  0  0  0
   37.6730   27.6920   43.1430 C   0  0  0  0  0  0  0  0  0  0  0  0
   37.8940   27.0750   41.9080 C   0  0  0  0  0  0  0  0  0  0  0  0
   37.3250   30.8750   41.9480 H   0  0  0  0  0  0  0  0  0  0  0  0
   37.2920   29.6260   44.0310 H   0  0  0  0  0  0  0  0  0  0  0  0
   37.6530   27.1670   44.0730 H   0  0  0  0  0  0  0  0  0  0  0  0
   38.0970   25.6730   41.9550 N   0  0  0  0  0  0  0  0  0  0  0  0
   37.1760   24.5810   42.1240 C   0  0  0  0  0  0  0  0  0  0  0  0
   37.5550   23.6280   40.9830 C   0  0  0  0  0  0  0  0  0  0  0  0
   38.9800   23.9890   40.6780 C   0  0  0  0  0  0  0  0  0  0  0  0
   39.3270   24.8900   41.8430 C   0  0  2  0  0  0  0  0  0  0  0  0
   37.2660   24.0820   43.1080 H   0  0  0  0  0  0  0  0  0  0  0  0
   36.1420   24.9610   42.0000 H   0  0  0  0  0  0  0  0  0  0  0  0
   37.5570   22.6010   41.4010 H   0  0  0  0  0  0  0  0  0  0  0  0
   36.8710   23.7570   40.1220 H   0  0  0  0  0  0  0  0  0  0  0  0
   38.9560   24.6250   39.7660 H   0  0  0  0  0  0  0  0  0  0  0  0
   39.6440   23.1210   40.5820 H   0  0  0  0  0  0  0  0  0  0  0  0
   40.1840   25.5290   41.5120 H   0  0  0  0  0  0  0  0  0  0  0  0
   39.7050   24.1700   43.0910 C   0  0  0  0  0  0  0  0  0  0  0  0
   39.1990   23.1920   43.1690 H   0  0  0  0  0  0  0  0  0  0  0  0
   40.7980   23.9890   43.0830 H   0  0  0  0  0  0  0  0  0  0  0  0
   39.4610   24.8070   43.9650 H   0  0  0  0  0  0  0  0  0  0  0  0
   38.4050   31.7840   38.2960 C   0  0  0  0  0  0  0  0  0  0  0  0
   37.7310   31.3240   37.1550 C   0  0  0  0  0  0  0  0  0  0  0  0
   37.0510   30.1170   37.2830 C   0  0  0  0  0  0  0  0  0  0  0  0
   37.0690   29.4640   38.4660 N   0  0  0  0  0  0  0  0  0  0  0  0
   37.7200   29.9320   39.5270 C   0  0  0  0  0  0  0  0  0  0  0  0
   38.3820   31.0790   39.4480 N   0  0  0  0  0  0  0  0  0  0  0  0
   38.9490   32.7300   38.2200 H   0  0  0  0  0  0  0  0  0  0  0  0
   37.7140   31.8350   36.2180 H   0  0  0  0  0  0  0  0  0  0  0  0
   36.3030   29.5050   36.1900 C   0  0  0  0  0  0  0  0  0  0  0  0
   35.0040   29.0630   36.3370 C   0  0  0  0  0  0  0  0  0  0  0  0
   34.3050   29.0500   37.1620 H   0  0  0  0  0  0  0  0  0  0  0  0
   34.6170   28.5480   35.1170 C   0  0  0  0  0  0  0  0  0  0  0  0
   33.7350   28.0890   34.6930 H   0  0  0  0  0  0  0  0  0  0  0  0
   35.7040   28.7030   34.2810 C   0  0  0  0  0  0  0  0  0  0  0  0
   35.9970   28.5030   33.2590 H   0  0  0  0  0  0  0  0  0  0  0  0
   36.6920   29.2770   34.9510 O   0  0  0  0  0  0  0  0  0  0  0  0
  1  2  1  0  0  0  0
  2  7  1  0  0  0  0
  3  2  2  0  0  0  0
  3  4  1  0  0  0  0
  4  5  2  0  0  0  0
  5  6  1  0  0  0  0
  5  9  1  0  0  0  0
  6 10  1  0  0  0  0
  7 11  1  0  0  0  0
  7  6  2  0  0  0  0
  8  4  1  0  0  0  0
 11 12  1  0  0  0  0
 12 16  1  0  0  0  0
 13 18  1  0  0  0  0
 13 12  1  0  0  0  0
 14 13  1  0  0  0  0
 14 15  1  0  0  0  0
 15 22  1  6  0  0  0
 15 11  1  0  0  0  0
 15 23  1  0  0  0  0
 17 12  1  0  0  0  0
 19 13  1  0  0  0  0
 20 14  1  0  0  0  0
 21 14  1  0  0  0  0
 23 24  1  0  0  0  0
 23 26  1  0  0  0  0
 25 23  1  0  0  0  0
 27 32  1  0  0  0  0
 28 29  1  0  0  0  0
 28 27  2  0  0  0  0
 29 30  2  0  0  0  0
 30 31  1  0  0  0  0
 31  3  1  0  0  0  0
 32 31  2  0  0  0  0
 33 27  1  0  0  0  0
 34 28  1  0  0  0  0
 35 36  2  0  0  0  0
 35 29  1  0  0  0  0
 36 37  1  0  0  0  0
 38 36  1  0  0  0  0
 39 38  1  0  0  0  0
 40 42  1  0  0  0  0
 40 38  2  0  0  0  0
 41 40  1  0  0  0  0
 42 35  1  0  0  0  0
M  END
>  <minimizedAffinity>
-5.57288408

$$$$

 OpenBabel03252505263D

 42 45  0  0  1  0  0  0  0  0999 V2000
   37.4590   30.8220   37.2640 F   0  0  0  0  0  0  0  0  0  0  0  0
   36.5910   30.2530   38.1420 C   0  0  0  0  0  0  0  0  0  0  0  0
   36.5820   30.7270   39.4370 C   0  0  0  0  0  0  0  0  0  0  0  0
   35.7020   30.1480   40.3210 C   0  0  0  0  0  0  0  0  0  0  0  0
   34.8720   29.1330   39.8950 C   0  0  0  0  0  0  0  0  0  0  0  0
   34.8800   28.6630   38.6140 C   0  0  0  0  0  0  0  0  0  0  0  0
   35.7770   29.2560   37.7210 C   0  0  0  0  0  0  0  0  0  0  0  0
   35.7200   30.5470   41.3400 H   0  0  0  0  0  0  0  0  0  0  0  0
   34.2240   28.7540   40.6720 H   0  0  0  0  0  0  0  0  0  0  0  0
   34.2110   27.8740   38.3480 H   0  0  0  0  0  0  0  0  0  0  0  0
   35.7530   28.7400   36.4010 N   0  0  0  0  0  0  0  0  0  0  0  0
   36.2530   27.5080   35.8500 C   0  0  0  0  0  0  0  0  0  0  0  0
   35.0560   26.9770   35.0500 C   0  0  0  0  0  0  0  0  0  0  0  0
   34.2490   28.2080   34.7570 C   0  0  0  0  0  0  0  0  0  0  0  0
   35.2020   29.3080   35.1720 C   0  0  2  0  0  0  0  0  0  0  0  0
   37.1370   27.6490   35.1990 H   0  0  0  0  0  0  0  0  0  0  0  0
   36.5140   26.8230   36.6810 H   0  0  0  0  0  0  0  0  0  0  0  0
   35.4490   26.6020   34.0830 H   0  0  0  0  0  0  0  0  0  0  0  0
   34.5050   26.2140   35.6320 H   0  0  0  0  0  0  0  0  0  0  0  0
   33.4060   28.2120   35.4830 H   0  0  0  0  0  0  0  0  0  0  0  0
   33.9210   28.2830   33.7130 H   0  0  0  0  0  0  0  0  0  0  0  0
   34.5770   30.2110   35.3890 H   0  0  0  0  0  0  0  0  0  0  0  0
   36.2280   29.6550   34.1490 C   0  0  0  0  0  0  0  0  0  0  0  0
   36.4900   28.7870   33.5210 H   0  0  0  0  0  0  0  0  0  0  0  0
   35.8210   30.4450   33.4870 H   0  0  0  0  0  0  0  0  0  0  0  0
   37.1280   30.0540   34.6590 H   0  0  0  0  0  0  0  0  0  0  0  0
   38.0010   34.0670   39.9330 C   0  0  0  0  0  0  0  0  0  0  0  0
   39.1950   33.8030   40.6200 C   0  0  0  0  0  0  0  0  0  0  0  0
   39.4700   32.4660   40.8910 C   0  0  0  0  0  0  0  0  0  0  0  0
   38.6010   31.5130   40.4900 N   0  0  0  0  0  0  0  0  0  0  0  0
   37.4770   31.8010   39.8410 C   0  0  0  0  0  0  0  0  0  0  0  0
   37.1760   33.0640   39.5630 N   0  0  0  0  0  0  0  0  0  0  0  0
   37.7620   35.1100   39.7100 H   0  0  0  0  0  0  0  0  0  0  0  0
   39.8860   34.5520   40.9390 H   0  0  0  0  0  0  0  0  0  0  0  0
   40.6700   32.0270   41.5960 C   0  0  0  0  0  0  0  0  0  0  0  0
   40.6520   31.0110   42.5300 C   0  0  0  0  0  0  0  0  0  0  0  0
   39.8750   30.3730   42.9280 H   0  0  0  0  0  0  0  0  0  0  0  0
   41.9460   30.8670   42.9870 C   0  0  0  0  0  0  0  0  0  0  0  0
   42.4720   30.2420   43.6960 H   0  0  0  0  0  0  0  0  0  0  0  0
   42.6940   31.8050   42.3050 C   0  0  0  0  0  0  0  0  0  0  0  0
   43.7140   32.1570   42.2340 H   0  0  0  0  0  0  0  0  0  0  0  0
   41.9040   32.4790   41.4840 O   0  0  0  0  0  0  0  0  0  0  0  0
  1  2  1  0  0  0  0
  2  3  1  0  0  0  0
  3 31  1  0  0  0  0
  3  4  2  0  0  0  0
  4  8  1  0  0  0  0
  5  4  1  0  0  0  0
  5  9  1  0  0  0  0
  6  5  2  0  0  0  0
  7  2  2  0  0  0  0
  7  6  1  0  0  0  0
 10  6  1  0  0  0  0
 11  7  1  0  0  0  0
 12 11  1  0  0  0  0
 12 17  1  0  0  0  0
 13 19  1  0  0  0  0
 13 12  1  0  0  0  0
 14 13  1  0  0  0  0
 14 15  1  0  0  0  0
 14 20  1  0  0  0  0
 15 22  1  1  0  0  0
 15 11  1  0  0  0  0
 16 12  1  0  0  0  0
 18 13  1  0  0  0  0
 21 14  1  0  0  0  0
 23 26  1  0  0  0  0
 23 15  1  0  0  0  0
 24 23  1  0  0  0  0
 25 23  1  0  0  0  0
 27 28  1  0  0  0  0
 28 29  2  0  0  0  0
 28 34  1  0  0  0  0
 29 35  1  0  0  0  0
 30 29  1  0  0  0  0
 31 30  2  0  0  0  0
 32 31  1  0  0  0  0
 32 27  2  0  0  0  0
 33 27  1  0  0  0  0
 35 36  2  0  0  0  0
 36 37  1  0  0  0  0
 36 38  1  0  0  0  0
 38 39  1  0  0  0  0
 40 38  2  0  0  0  0
 41 40  1  0  0  0  0
 42 35  1  0  0  0  0
 42 40  1  0  0  0  0
M  END
>  <minimizedAffinity>
-5.5418973

$$$$

 OpenBabel03252505263D

 42 45  0  0  1  0  0  0  0  0999 V2000
   39.7800   27.0770   40.6450 F   0  0  0  0  0  0  0  0  0  0  0  0
   38.7870   27.1640   41.5700 C   0  0  0  0  0  0  0  0  0  0  0  0
   38.8180   28.2260   42.4500 C   0  0  0  0  0  0  0  0  0  0  0  0
   37.8110   28.3080   43.3840 C   0  0  0  0  0  0  0  0  0  0  0  0
   36.8220   27.3480   43.4110 C   0  0  0  0  0  0  0  0  0  0  0  0
   36.7910   26.2980   42.5410 C   0  0  0  0  0  0  0  0  0  0  0  0
   37.8170   26.2190   41.5940 C   0  0  0  0  0  0  0  0  0  0  0  0
   37.8650   29.1610   44.0660 H   0  0  0  0  0  0  0  0  0  0  0  0
   36.0850   27.5130   44.1830 H   0  0  0  0  0  0  0  0  0  0  0  0
   35.9970   25.5870   42.6150 H   0  0  0  0  0  0  0  0  0  0  0  0
   37.7470   25.1140   40.7100 N   0  0  0  0  0  0  0  0  0  0  0  0
   38.5780   23.9470   40.5740 C   0  0  0  0  0  0  0  0  0  0  0  0
   37.5610   22.7990   40.5540 C   0  0  0  0  0  0  0  0  0  0  0  0
   36.2920   23.4560   40.0930 C   0  0  0  0  0  0  0  0  0  0  0  0
   36.7920   24.8130   39.6450 C   0  0  2  0  0  0  0  0  0  0  0  0
   39.1920   23.9540   39.6540 H   0  0  0  0  0  0  0  0  0  0  0  0
   39.2430   23.8760   41.4580 H   0  0  0  0  0  0  0  0  0  0  0  0
   37.8760   22.0960   39.7570 H   0  0  0  0  0  0  0  0  0  0  0  0
   37.4800   22.3310   41.5530 H   0  0  0  0  0  0  0  0  0  0  0  0
   35.6730   23.6180   41.0030 H   0  0  0  0  0  0  0  0  0  0  0  0
   35.7680   22.9000   39.3060 H   0  0  0  0  0  0  0  0  0  0  0  0
   35.9140   25.5070   39.6810 H   0  0  0  0  0  0  0  0  0  0  0  0
   37.3800   24.8340   38.2770 C   0  0  0  0  0  0  0  0  0  0  0  0
   37.8390   23.8660   38.0130 H   0  0  0  0  0  0  0  0  0  0  0  0
   36.5750   25.0410   37.5440 H   0  0  0  0  0  0  0  0  0  0  0  0
   38.1270   25.6500   38.2160 H   0  0  0  0  0  0  0  0  0  0  0  0
   42.0520   29.8860   42.8920 C   0  0  0  0  0  0  0  0  0  0  0  0
   41.8690   31.1120   42.2350 C   0  0  0  0  0  0  0  0  0  0  0  0
   40.6220   31.3220   41.6550 C   0  0  0  0  0  0  0  0  0  0  0  0
   39.6730   30.3660   41.7510 N   0  0  0  0  0  0  0  0  0  0  0  0
   39.8830   29.2150   42.3830 C   0  0  0  0  0  0  0  0  0  0  0  0
   41.0590   28.9730   42.9490 N   0  0  0  0  0  0  0  0  0  0  0  0
   43.0240   29.6960   43.3540 H   0  0  0  0  0  0  0  0  0  0  0  0
   42.6160   31.8710   42.1560 H   0  0  0  0  0  0  0  0  0  0  0  0
   40.2740   32.5440   40.9370 C   0  0  0  0  0  0  0  0  0  0  0  0
   38.9850   33.0320   40.8850 C   0  0  0  0  0  0  0  0  0  0  0  0
   38.0400   32.6990   41.2920 H   0  0  0  0  0  0  0  0  0  0  0  0
   39.0250   34.1870   40.1300 C   0  0  0  0  0  0  0  0  0  0  0  0
   38.3250   34.9360   39.7890 H   0  0  0  0  0  0  0  0  0  0  0  0
   40.3440   34.3470   39.7580 C   0  0  0  0  0  0  0  0  0  0  0  0
   40.9670   35.0260   39.1920 H   0  0  0  0  0  0  0  0  0  0  0  0
   41.0620   33.3520   40.2550 O   0  0  0  0  0  0  0  0  0  0  0  0
  1  2  1  0  0  0  0
  2  7  2  0  0  0  0
  2  3  1  0  0  0  0
  3  4  2  0  0  0  0
  4  5  1  0  0  0  0
  4  8  1  0  0  0  0
  5  9  1  0  0  0  0
  6 10  1  0  0  0  0
  6  5  2  0  0  0  0
  7  6  1  0  0  0  0
 11  7  1  0  0  0  0
 12 11  1  0  0  0  0
 12 17  1  0  0  0  0
 13 12  1  0  0  0  0
 13 19  1  0  0  0  0
 14 13  1  0  0  0  0
 14 20  1  0  0  0  0
 15 22  1  1  0  0  0
 15 14  1  0  0  0  0
 15 11  1  0  0  0  0
 16 12  1  0  0  0  0
 18 13  1  0  0  0  0
 21 14  1  0  0  0  0
 23 15  1  0  0  0  0
 24 23  1  0  0  0  0
 25 23  1  0  0  0  0
 26 23  1  0  0  0  0
 27 32  1  0  0  0  0
 27 33  1  0  0  0  0
 28 27  2  0  0  0  0
 29 30  2  0  0  0  0
 29 28  1  0  0  0  0
 30 31  1  0  0  0  0
 31  3  1  0  0  0  0
 31 32  2  0  0  0  0
 34 28  1  0  0  0  0
 35 29  1  0  0  0  0
 36 35  2  0  0  0  0
 36 37  1  0  0  0  0
 38 36  1  0  0  0  0
 39 38  1  0  0  0  0
 40 38  2  0  0  0  0
 40 42  1  0  0  0  0
 41 40  1  0  0  0  0
 42 35  1  0  0  0  0
M  END
>  <minimizedAffinity>
-5.53960562

$$$$

 OpenBabel03252505263D

 42 45  0  0  1  0  0  0  0  0999 V2000
   35.6590   26.4150   38.2030 F   0  0  0  0  0  0  0  0  0  0  0  0
   35.8520   27.3540   39.1680 C   0  0  0  0  0  0  0  0  0  0  0  0
   35.2440   28.5800   39.0030 C   0  0  0  0  0  0  0  0  0  0  0  0
   35.4420   29.5260   39.9830 C   0  0  0  0  0  0  0  0  0  0  0  0
   36.2270   29.2250   41.0750 C   0  0  0  0  0  0  0  0  0  0  0  0
   36.8290   28.0120   41.2380 C   0  0  0  0  0  0  0  0  0  0  0  0
   36.6230   27.0560   40.2400 C   0  0  0  0  0  0  0  0  0  0  0  0
   34.9460   30.4870   39.8220 H   0  0  0  0  0  0  0  0  0  0  0  0
   36.3130   30.0410   41.7790 H   0  0  0  0  0  0  0  0  0  0  0  0
   37.4250   27.8430   42.1090 H   0  0  0  0  0  0  0  0  0  0  0  0
   37.2660   25.8100   40.4480 N   0  0  0  0  0  0  0  0  0  0  0  0
   38.6220   25.3870   40.2210 C   0  0  0  0  0  0  0  0  0  0  0  0
   39.0010   24.7130   41.5460 C   0  0  0  0  0  0  0  0  0  0  0  0
   37.6790   24.3140   42.1330 C   0  0  0  0  0  0  0  0  0  0  0  0
   36.7410   24.5490   40.9690 C   0  0  2  0  0  0  0  0  0  0  0  0
   38.7240   24.6840   39.3720 H   0  0  0  0  0  0  0  0  0  0  0  0
   39.2500   26.2800   40.0340 H   0  0  0  0  0  0  0  0  0  0  0  0
   39.5460   23.7810   41.2960 H   0  0  0  0  0  0  0  0  0  0  0  0
   39.5780   25.4070   42.1870 H   0  0  0  0  0  0  0  0  0  0  0  0
   37.4360   25.0720   42.9090 H   0  0  0  0  0  0  0  0  0  0  0  0
   37.6570   23.2850   42.5130 H   0  0  0  0  0  0  0  0  0  0  0  0
   35.7180   24.6850   41.4020 H   0  0  0  0  0  0  0  0  0  0  0  0
   36.7080   23.4450   39.9690 C   0  0  0  0  0  0  0  0  0  0  0  0
   37.6730   22.9130   39.9130 H   0  0  0  0  0  0  0  0  0  0  0  0
   35.9320   22.7130   40.2690 H   0  0  0  0  0  0  0  0  0  0  0  0
   36.4330   23.8610   38.9790 H   0  0  0  0  0  0  0  0  0  0  0  0
   34.2220   29.1490   35.5330 C   0  0  0  0  0  0  0  0  0  0  0  0
   32.8400   29.3680   35.6430 C   0  0  0  0  0  0  0  0  0  0  0  0
   32.3060   29.3110   36.9260 C   0  0  0  0  0  0  0  0  0  0  0  0
   33.1180   29.0550   37.9750 N   0  0  0  0  0  0  0  0  0  0  0  0
   34.4240   28.8520   37.8320 C   0  0  0  0  0  0  0  0  0  0  0  0
   34.9750   28.8970   36.6250 N   0  0  0  0  0  0  0  0  0  0  0  0
   34.6650   29.1880   34.5340 H   0  0  0  0  0  0  0  0  0  0  0  0
   32.1940   29.5700   34.8180 H   0  0  0  0  0  0  0  0  0  0  0  0
   30.8890   29.5170   37.2080 C   0  0  0  0  0  0  0  0  0  0  0  0
   30.4460   30.1850   38.3320 C   0  0  0  0  0  0  0  0  0  0  0  0
   30.9430   30.6570   39.1680 H   0  0  0  0  0  0  0  0  0  0  0  0
   29.0670   30.1910   38.2740 C   0  0  0  0  0  0  0  0  0  0  0  0
   28.2500   30.5660   38.8750 H   0  0  0  0  0  0  0  0  0  0  0  0
   28.7360   29.5240   37.1130 C   0  0  0  0  0  0  0  0  0  0  0  0
   27.8610   29.2230   36.5530 H   0  0  0  0  0  0  0  0  0  0  0  0
   29.8440   29.1360   36.5010 O   0  0  0  0  0  0  0  0  0  0  0  0
  1  2  1  0  0  0  0
  2  7  1  0  0  0  0
  3  2  2  0  0  0  0
  3  4  1  0  0  0  0
  4  5  2  0  0  0  0
  5  6  1  0  0  0  0
  5  9  1  0  0  0  0
  6 10  1  0  0  0  0
  7 11  1  0  0  0  0
  7  6  2  0  0  0  0
  8  4  1  0  0  0  0
 11 15  1  0  0  0  0
 12 11  1  0  0  0  0
 12 13  1  0  0  0  0
 13 14  1  0  0  0  0
 13 19  1  0  0  0  0
 14 21  1  0  0  0  0
 14 20  1  0  0  0  0
 15 22  1  1  0  0  0
 15 14  1  0  0  0  0
 16 12  1  0  0  0  0
 17 12  1  0  0  0  0
 18 13  1  0  0  0  0
 23 25  1  0  0  0  0
 23 15  1  0  0  0  0
 24 23  1  0  0  0  0
 26 23  1  0  0  0  0
 27 28  2  0  0  0  0
 27 32  1  0  0  0  0
 28 29  1  0  0  0  0
 29 35  1  0  0  0  0
 29 30  2  0  0  0  0
 31 30  1  0  0  0  0
 31  3  1  0  0  0  0
 32 31  2  0  0  0  0
 33 27  1  0  0  0  0
 34 28  1  0  0  0  0
 35 36  2  0  0  0  0
 36 37  1  0  0  0  0
 38 36  1  0  0  0  0
 38 39  1  0  0  0  0
 40 38  2  0  0  0  0
 41 40  1  0  0  0  0
 42 40  1  0  0  0  0
 42 35  1  0  0  0  0
M  END
>  <minimizedAffinity>
-5.47056818

$$$$

 OpenBabel03252505263D

 42 45  0  0  1  0  0  0  0  0999 V2000
   36.3200   27.0640   39.4230 F   0  0  0  0  0  0  0  0  0  0  0  0
   36.4130   28.3160   39.9430 C   0  0  0  0  0  0  0  0  0  0  0  0
   35.7990   29.3450   39.2590 C   0  0  0  0  0  0  0  0  0  0  0  0
   35.8960   30.6100   39.7910 C   0  0  0  0  0  0  0  0  0  0  0  0
   36.5880   30.8070   40.9660 C   0  0  0  0  0  0  0  0  0  0  0  0
   37.1950   29.7900   41.6440 C   0  0  0  0  0  0  0  0  0  0  0  0
   37.0930   28.5070   41.0990 C   0  0  0  0  0  0  0  0  0  0  0  0
   35.3990   31.4020   39.2240 H   0  0  0  0  0  0  0  0  0  0  0  0
   36.5990   31.8380   41.2900 H   0  0  0  0  0  0  0  0  0  0  0  0
   37.7160   30.0110   42.5500 H   0  0  0  0  0  0  0  0  0  0  0  0
   37.7370   27.4800   41.8330 N   0  0  0  0  0  0  0  0  0  0  0  0
   37.2110   26.4080   42.6350 C   0  0  0  0  0  0  0  0  0  0  0  0
   37.9640   25.1800   42.1080 C   0  0  0  0  0  0  0  0  0  0  0  0
   39.2130   25.7590   41.5090 C   0  0  0  0  0  0  0  0  0  0  0  0
   39.1590   27.1880   42.0040 C   0  0  2  0  0  0  0  0  0  0  0  0
   37.3850   26.5490   43.7190 H   0  0  0  0  0  0  0  0  0  0  0  0
   36.1230   26.3200   42.4470 H   0  0  0  0  0  0  0  0  0  0  0  0
   38.2680   24.5790   42.9890 H   0  0  0  0  0  0  0  0  0  0  0  0
   37.3420   24.6220   41.3820 H   0  0  0  0  0  0  0  0  0  0  0  0
   39.0520   25.7860   40.4090 H   0  0  0  0  0  0  0  0  0  0  0  0
   40.1280   25.2290   41.7990 H   0  0  0  0  0  0  0  0  0  0  0  0
   39.7840   27.7960   41.3020 H   0  0  0  0  0  0  0  0  0  0  0  0
   39.6560   27.3800   43.3950 C   0  0  0  0  0  0  0  0  0  0  0  0
   39.4920   26.4820   44.0160 H   0  0  0  0  0  0  0  0  0  0  0  0
   40.7460   27.5760   43.3620 H   0  0  0  0  0  0  0  0  0  0  0  0
   39.1540   28.2610   43.8420 H   0  0  0  0  0  0  0  0  0  0  0  0
   33.2120   28.2640   36.9040 C   0  0  0  0  0  0  0  0  0  0  0  0
   33.7520   28.6190   35.6590 C   0  0  0  0  0  0  0  0  0  0  0  0
   35.0030   29.2250   35.6780 C   0  0  0  0  0  0  0  0  0  0  0  0
   35.6230   29.4370   36.8590 N   0  0  0  0  0  0  0  0  0  0  0  0
   35.0800   29.0880   38.0210 C   0  0  0  0  0  0  0  0  0  0  0  0
   33.8860   28.5070   38.0480 N   0  0  0  0  0  0  0  0  0  0  0  0
   32.2280   27.7870   36.9160 H   0  0  0  0  0  0  0  0  0  0  0  0
   33.2660   28.4540   34.7220 H   0  0  0  0  0  0  0  0  0  0  0  0
   35.6990   29.6520   34.4680 C   0  0  0  0  0  0  0  0  0  0  0  0
   35.8910   30.9820   34.1530 C   0  0  0  0  0  0  0  0  0  0  0  0
   35.6230   31.9120   34.6340 H   0  0  0  0  0  0  0  0  0  0  0  0
   36.5760   31.0130   32.9550 C   0  0  0  0  0  0  0  0  0  0  0  0
   36.9670   31.7660   32.2840 H   0  0  0  0  0  0  0  0  0  0  0  0
   36.7700   29.6950   32.5980 C   0  0  0  0  0  0  0  0  0  0  0  0
   37.2180   29.1100   31.8060 H   0  0  0  0  0  0  0  0  0  0  0  0
   36.2360   28.9090   33.5200 O   0  0  0  0  0  0  0  0  0  0  0  0
  1  2  1  0  0  0  0
  2  7  1  0  0  0  0
  3  4  1  0  0  0  0
  3  2  2  0  0  0  0
  4  5  2  0  0  0  0
  5  9  1  0  0  0  0
  5  6  1  0  0  0  0
  6 10  1  0  0  0  0
  7  6  2  0  0  0  0
  7 11  1  0  0  0  0
  8  4  1  0  0  0  0
 11 15  1  0  0  0  0
 11 12  1  0  0  0  0
 12 16  1  0  0  0  0
 13 12  1  0  0  0  0
 13 18  1  0  0  0  0
 14 21  1  0  0  0  0
 14 15  1  0  0  0  0
 14 13  1  0  0  0  0
 15 22  1  6  0  0  0
 15 23  1  0  0  0  0
 17 12  1  0  0  0  0
 19 13  1  0  0  0  0
 20 14  1  0  0  0  0
 23 26  1  0  0  0  0
 23 24  1  0  0  0  0
 25 23  1  0  0  0  0
 27 33  1  0  0  0  0
 27 32  1  0  0  0  0
 28 29  1  0  0  0  0
 28 27  2  0  0  0  0
 29 30  2  0  0  0  0
 30 31  1  0  0  0  0
 31 32  2  0  0  0  0
 31  3  1  0  0  0  0
 34 28  1  0  0  0  0
 35 29  1  0  0  0  0
 36 35  2  0  0  0  0
 36 37  1  0  0  0  0
 38 36  1  0  0  0  0
 39 38  1  0  0  0  0
 40 38  2  0  0  0  0
 40 42  1  0  0  0  0
 41 40  1  0  0  0  0
 42 35  1  0  0  0  0
M  END
>  <minimizedAffinity>
-5.40604305

$$$$
