
 OpenBabel03252506023D

 27 29  0  0  0  0  0  0  0  0999 V2000
   44.7030   36.2370   42.7890 Cl  0  0  0  0  0  0  0  0  0  0  0  0
   45.3790   35.0760   43.8880 C   0  0  0  0  0  0  0  0  0  0  0  0
   46.4610   34.3080   43.5170 C   0  0  0  0  0  0  0  0  0  0  0  0
   46.9110   33.4250   44.4630 C   0  0  0  0  0  0  0  0  0  0  0  0
   46.3810   33.2520   45.7200 C   0  0  0  0  0  0  0  0  0  0  0  0
   45.3040   34.0320   46.0610 C   0  0  0  0  0  0  0  0  0  0  0  0
   44.6450   33.7920   47.6650 Cl  0  0  0  0  0  0  0  0  0  0  0  0
   44.8020   34.9410   45.1540 C   0  0  0  0  0  0  0  0  0  0  0  0
   47.7680   32.8050   44.1910 H   0  0  0  0  0  0  0  0  0  0  0  0
   43.9500   35.5470   45.4440 H   0  0  0  0  0  0  0  0  0  0  0  0
   48.7160   35.4120   40.8700 C   0  0  0  0  0  0  0  0  0  0  0  0
   48.2810   34.6820   39.7590 C   0  0  0  0  0  0  0  0  0  0  0  0
   47.1950   33.7960   39.9190 C   0  0  0  0  0  0  0  0  0  0  0  0
   46.6370   33.7070   41.1520 N   0  0  0  0  0  0  0  0  0  0  0  0
   47.0790   34.4270   42.2110 C   0  0  0  0  0  0  0  0  0  0  0  0
   48.1130   35.2730   42.0650 N   0  0  0  0  0  0  0  0  0  0  0  0
   49.5430   36.1060   40.8070 H   0  0  0  0  0  0  0  0  0  0  0  0
   48.7840   34.8140   38.8100 H   0  0  0  0  0  0  0  0  0  0  0  0
   46.8460   33.2240   39.0710 H   0  0  0  0  0  0  0  0  0  0  0  0
   46.9440   32.2780   46.6500 C   0  0  0  0  0  0  0  0  0  0  0  0
   46.8760   30.9090   46.4930 C   0  0  0  0  0  0  0  0  0  0  0  0
   46.4090   30.3620   45.6810 H   0  0  0  0  0  0  0  0  0  0  0  0
   47.5260   30.3730   47.5830 C   0  0  0  0  0  0  0  0  0  0  0  0
   47.6400   29.3150   47.7460 H   0  0  0  0  0  0  0  0  0  0  0  0
   47.9620   31.4470   48.3580 C   0  0  0  0  0  0  0  0  0  0  0  0
   48.5030   31.3490   49.2790 H   0  0  0  0  0  0  0  0  0  0  0  0
   47.5910   32.5440   47.7600 O   0  0  0  0  0  0  0  0  0  0  0  0
  1  2  1  0  0  0  0
  2  8  1  0  0  0  0
  3  2  2  0  0  0  0
  3  4  1  0  0  0  0
  4  5  2  0  0  0  0
  5  6  1  0  0  0  0
  5 20  1  0  0  0  0
  6  7  1  0  0  0  0
  8 10  1  0  0  0  0
  8  6  2  0  0  0  0
  9  4  1  0  0  0  0
 11 16  1  0  0  0  0
 12 13  1  0  0  0  0
 12 11  2  0  0  0  0
 13 14  2  0  0  0  0
 14 15  1  0  0  0  0
 15  3  1  0  0  0  0
 16 15  2  0  0  0  0
 17 11  1  0  0  0  0
 18 12  1  0  0  0  0
 19 13  1  0  0  0  0
 20 27  1  0  0  0  0
 21 20  2  0  0  0  0
 21 23  1  0  0  0  0
 22 21  1  0  0  0  0
 23 24  1  0  0  0  0
 23 25  2  0  0  0  0
 25 26  1  0  0  0  0
 27 25  1  0  0  0  0
M  END
>  <minimizedAffinity>
-5.66332674

>  <minimizedRMSD>
0.732854962

$$$$
