
 OpenBabel03242515333D

 39 42  0  0  1  0  0  0  0  0999 V2000
   37.8340   30.8300   40.0340 N   0  0  0  0  0  0  0  0  0  0  0  0
   37.8100   32.1370   40.6260 C   0  0  0  0  0  0  0  0  0  0  0  0
   39.2950   32.3250   40.8200 C   0  0  0  0  0  0  0  0  0  0  0  0
   39.5970   31.0340   41.5910 C   0  0  0  0  0  0  0  0  0  0  0  0
   38.7920   30.0450   40.8230 C   0  0  1  0  0  0  0  0  0  0  0  0
   37.2540   32.1810   41.5780 H   0  0  0  0  0  0  0  0  0  0  0  0
   37.4580   32.8820   39.8990 H   0  0  0  0  0  0  0  0  0  0  0  0
   39.7950   32.2360   39.8520 H   0  0  0  0  0  0  0  0  0  0  0  0
   39.5490   33.2220   41.4110 H   0  0  0  0  0  0  0  0  0  0  0  0
   40.6770   30.8220   41.6360 H   0  0  0  0  0  0  0  0  0  0  0  0
   39.1500   31.1790   42.6020 H   0  0  0  0  0  0  0  0  0  0  0  0
   39.4390   29.5740   40.0350 H   0  0  0  0  0  0  0  0  0  0  0  0
   38.4650   27.3820   39.8920 F   0  0  0  0  0  0  0  0  0  0  0  0
   38.0160   27.6720   41.1560 C   0  0  0  0  0  0  0  0  0  0  0  0
   38.1670   28.9660   41.5940 C   0  0  0  0  0  0  0  0  0  0  0  0
   37.7020   29.2130   42.8710 C   0  0  0  0  0  0  0  0  0  0  0  0
   37.1290   28.2170   43.6360 C   0  0  0  0  0  0  0  0  0  0  0  0
   37.0040   26.9100   43.1310 C   0  0  0  0  0  0  0  0  0  0  0  0
   37.4710   26.6360   41.8320 C   0  0  0  0  0  0  0  0  0  0  0  0
   37.7790   30.1970   43.2890 H   0  0  0  0  0  0  0  0  0  0  0  0
   36.7760   28.4410   44.6330 H   0  0  0  0  0  0  0  0  0  0  0  0
   36.5610   26.1160   43.7100 H   0  0  0  0  0  0  0  0  0  0  0  0
   37.3490   25.2860   41.2910 C   0  0  0  0  0  0  0  0  0  0  0  0
   38.0980   24.1960   41.6810 C   0  0  0  0  0  0  0  0  0  0  0  0
   38.8820   24.1160   42.4230 H   0  0  0  0  0  0  0  0  0  0  0  0
   37.5790   23.1870   40.8600 C   0  0  0  0  0  0  0  0  0  0  0  0
   37.9060   22.1360   40.8490 H   0  0  0  0  0  0  0  0  0  0  0  0
   36.5880   23.6970   40.0500 C   0  0  0  0  0  0  0  0  0  0  0  0
   35.9830   23.1940   39.3020 H   0  0  0  0  0  0  0  0  0  0  0  0
   36.4890   24.9700   40.3510 O   0  0  0  0  0  0  0  0  0  0  0  0
   35.2310   29.2630   37.8780 C   0  0  0  0  0  0  0  0  0  0  0  0
   35.8360   29.7810   39.0160 C   0  0  0  0  0  0  0  0  0  0  0  0
   37.1430   30.2870   38.9250 C   0  0  0  0  0  0  0  0  0  0  0  0
   37.7340   30.2360   37.7210 N   0  0  0  0  0  0  0  0  0  0  0  0
   37.1430   29.7320   36.6210 C   0  0  0  0  0  0  0  0  0  0  0  0
   35.8810   29.2430   36.7060 N   0  0  0  0  0  0  0  0  0  0  0  0
   34.2170   28.8750   37.9700 H   0  0  0  0  0  0  0  0  0  0  0  0
   35.3440   29.8160   39.9860 H   0  0  0  0  0  0  0  0  0  0  0  0
   37.6550   29.7090   35.6690 H   0  0  0  0  0  0  0  0  0  0  0  0
  1  2  1  0  0  0  0
  1  5  1  0  0  0  0
  2  3  1  0  0  0  0
  2  6  1  0  0  0  0
  3  9  1  0  0  0  0
  3  4  1  0  0  0  0
  4 10  1  0  0  0  0
  4 11  1  0  0  0  0
  5 12  1  6  0  0  0
  5  4  1  0  0  0  0
  5 15  1  0  0  0  0
  7  2  1  0  0  0  0
  8  3  1  0  0  0  0
 13 14  1  0  0  0  0
 14 15  2  0  0  0  0
 14 19  1  0  0  0  0
 15 16  1  0  0  0  0
 16 20  1  0  0  0  0
 16 17  2  0  0  0  0
 17 21  1  0  0  0  0
 18 17  1  0  0  0  0
 18 22  1  0  0  0  0
 19 18  2  0  0  0  0
 23 24  2  0  0  0  0
 23 19  1  0  0  0  0
 24 25  1  0  0  0  0
 26 24  1  0  0  0  0
 27 26  1  0  0  0  0
 28 30  1  0  0  0  0
 28 26  2  0  0  0  0
 29 28  1  0  0  0  0
 30 23  1  0  0  0  0
 31 37  1  0  0  0  0
 31 32  1  0  0  0  0
 32 38  1  0  0  0  0
 33 32  2  0  0  0  0
 33  1  1  0  0  0  0
 34 33  1  0  0  0  0
 35 36  1  0  0  0  0
 35 34  2  0  0  0  0
 36 31  2  0  0  0  0
 39 35  1  0  0  0  0
M  END
>  <minimizedAffinity>
-5.64344931

$$$$

 OpenBabel03242515333D

 39 42  0  0  1  0  0  0  0  0999 V2000
   36.4020   29.8930   38.3810 N   0  0  0  0  0  0  0  0  0  0  0  0
   36.1550   29.2570   37.1180 C   0  0  0  0  0  0  0  0  0  0  0  0
   34.6460   29.2860   37.1410 C   0  0  0  0  0  0  0  0  0  0  0  0
   34.4180   28.6170   38.5020 C   0  0  0  0  0  0  0  0  0  0  0  0
   35.4580   29.2870   39.3300 C   0  0  1  0  0  0  0  0  0  0  0  0
   36.5530   28.2300   37.0540 H   0  0  0  0  0  0  0  0  0  0  0  0
   36.5010   29.8950   36.2930 H   0  0  0  0  0  0  0  0  0  0  0  0
   34.3110   30.3210   37.2410 H   0  0  0  0  0  0  0  0  0  0  0  0
   34.1850   28.7090   36.3200 H   0  0  0  0  0  0  0  0  0  0  0  0
   33.3840   28.7450   38.8580 H   0  0  0  0  0  0  0  0  0  0  0  0
   34.6880   27.5450   38.3560 H   0  0  0  0  0  0  0  0  0  0  0  0
   35.0060   30.1810   39.8380 H   0  0  0  0  0  0  0  0  0  0  0  0
   36.3910   26.6350   38.9270 F   0  0  0  0  0  0  0  0  0  0  0  0
   36.5750   27.1900   40.1680 C   0  0  0  0  0  0  0  0  0  0  0  0
   36.1080   28.4690   40.3570 C   0  0  0  0  0  0  0  0  0  0  0  0
   36.3140   28.9890   41.6210 C   0  0  0  0  0  0  0  0  0  0  0  0
   36.9440   28.2580   42.6090 C   0  0  0  0  0  0  0  0  0  0  0  0
   37.4000   26.9520   42.3520 C   0  0  0  0  0  0  0  0  0  0  0  0
   37.2010   26.4030   41.0720 C   0  0  0  0  0  0  0  0  0  0  0  0
   35.9800   29.9810   41.8540 H   0  0  0  0  0  0  0  0  0  0  0  0
   37.0920   28.6930   43.5880 H   0  0  0  0  0  0  0  0  0  0  0  0
   37.8940   26.3630   43.1060 H   0  0  0  0  0  0  0  0  0  0  0  0
   37.6660   25.0490   40.7860 C   0  0  0  0  0  0  0  0  0  0  0  0
   37.0740   23.8870   41.2350 C   0  0  0  0  0  0  0  0  0  0  0  0
   36.1970   23.7440   41.8530 H   0  0  0  0  0  0  0  0  0  0  0  0
   37.9090   22.9110   40.6790 C   0  0  0  0  0  0  0  0  0  0  0  0
   37.7900   21.8220   40.7950 H   0  0  0  0  0  0  0  0  0  0  0  0
   38.9190   23.5060   39.9550 C   0  0  0  0  0  0  0  0  0  0  0  0
   39.7310   23.0470   39.3990 H   0  0  0  0  0  0  0  0  0  0  0  0
   38.7250   24.8000   40.0530 O   0  0  0  0  0  0  0  0  0  0  0  0
   37.9120   32.9530   39.8750 C   0  0  0  0  0  0  0  0  0  0  0  0
   36.9490   32.0070   39.5460 C   0  0  0  0  0  0  0  0  0  0  0  0
   37.3180   30.9010   38.7640 C   0  0  0  0  0  0  0  0  0  0  0  0
   38.6010   30.8280   38.3760 N   0  0  0  0  0  0  0  0  0  0  0  0
   39.5290   31.7490   38.6960 C   0  0  0  0  0  0  0  0  0  0  0  0
   39.1770   32.8180   39.4530 N   0  0  0  0  0  0  0  0  0  0  0  0
   37.6050   33.8040   40.4830 H   0  0  0  0  0  0  0  0  0  0  0  0
   35.9130   32.0790   39.8690 H   0  0  0  0  0  0  0  0  0  0  0  0
   40.5540   31.6530   38.3630 H   0  0  0  0  0  0  0  0  0  0  0  0
  1 33  1  0  0  0  0
  1  5  1  0  0  0  0
  2  3  1  0  0  0  0
  2  1  1  0  0  0  0
  3  8  1  0  0  0  0
  3  4  1  0  0  0  0
  4 10  1  0  0  0  0
  4  5  1  0  0  0  0
  5 12  1  1  0  0  0
  5 15  1  0  0  0  0
  6  2  1  0  0  0  0
  7  2  1  0  0  0  0
  9  3  1  0  0  0  0
 11  4  1  0  0  0  0
 13 14  1  0  0  0  0
 14 15  2  0  0  0  0
 14 19  1  0  0  0  0
 15 16  1  0  0  0  0
 16 20  1  0  0  0  0
 16 17  2  0  0  0  0
 17 21  1  0  0  0  0
 18 17  1  0  0  0  0
 18 22  1  0  0  0  0
 19 18  2  0  0  0  0
 23 19  1  0  0  0  0
 23 24  2  0  0  0  0
 24 25  1  0  0  0  0
 26 27  1  0  0  0  0
 26 24  1  0  0  0  0
 28 30  1  0  0  0  0
 28 26  2  0  0  0  0
 29 28  1  0  0  0  0
 30 23  1  0  0  0  0
 31 37  1  0  0  0  0
 32 38  1  0  0  0  0
 32 31  1  0  0  0  0
 33 32  2  0  0  0  0
 34 35  2  0  0  0  0
 34 33  1  0  0  0  0
 35 36  1  0  0  0  0
 36 31  2  0  0  0  0
 39 35  1  0  0  0  0
M  END
>  <minimizedAffinity>
-5.62069321

$$$$

 OpenBabel03242515333D

 39 42  0  0  1  0  0  0  0  0999 V2000
   39.6020   30.5590   41.5180 N   0  0  0  0  0  0  0  0  0  0  0  0
   40.1620   31.3510   42.5750 C   0  0  0  0  0  0  0  0  0  0  0  0
   41.5420   30.7400   42.6090 C   0  0  0  0  0  0  0  0  0  0  0  0
   41.1430   29.2660   42.7550 C   0  0  0  0  0  0  0  0  0  0  0  0
   40.0170   29.1760   41.7850 C   0  0  1  0  0  0  0  0  0  0  0  0
   39.6330   31.2440   43.5370 H   0  0  0  0  0  0  0  0  0  0  0  0
   40.2560   32.4000   42.2610 H   0  0  0  0  0  0  0  0  0  0  0  0
   42.0020   30.8440   41.6240 H   0  0  0  0  0  0  0  0  0  0  0  0
   42.1520   31.0840   43.4630 H   0  0  0  0  0  0  0  0  0  0  0  0
   41.9870   28.5870   42.5550 H   0  0  0  0  0  0  0  0  0  0  0  0
   40.7520   29.1650   43.7940 H   0  0  0  0  0  0  0  0  0  0  0  0
   40.4130   28.8370   40.7900 H   0  0  0  0  0  0  0  0  0  0  0  0
   39.3920   26.7440   40.4590 F   0  0  0  0  0  0  0  0  0  0  0  0
   38.6030   27.1080   41.5210 C   0  0  0  0  0  0  0  0  0  0  0  0
   38.9050   28.2930   42.1490 C   0  0  0  0  0  0  0  0  0  0  0  0
   38.0860   28.6200   43.2120 C   0  0  0  0  0  0  0  0  0  0  0  0
   37.0440   27.8020   43.5990 C   0  0  0  0  0  0  0  0  0  0  0  0
   36.7860   26.6000   42.9160 C   0  0  0  0  0  0  0  0  0  0  0  0
   37.6080   26.2470   41.8290 C   0  0  0  0  0  0  0  0  0  0  0  0
   38.2510   29.5290   43.7560 H   0  0  0  0  0  0  0  0  0  0  0  0
   36.4210   28.0850   44.4370 H   0  0  0  0  0  0  0  0  0  0  0  0
   35.9790   25.9450   43.2000 H   0  0  0  0  0  0  0  0  0  0  0  0
   37.3560   25.0030   41.1070 C   0  0  0  0  0  0  0  0  0  0  0  0
   36.4870   24.8550   40.0470 C   0  0  0  0  0  0  0  0  0  0  0  0
   35.8510   25.5810   39.5580 H   0  0  0  0  0  0  0  0  0  0  0  0
   36.6350   23.4950   39.7480 C   0  0  0  0  0  0  0  0  0  0  0  0
   36.1070   22.9520   38.9490 H   0  0  0  0  0  0  0  0  0  0  0  0
   37.5440   22.9160   40.6060 C   0  0  0  0  0  0  0  0  0  0  0  0
   37.8910   21.8880   40.6530 H   0  0  0  0  0  0  0  0  0  0  0  0
   37.9500   23.8730   41.4080 O   0  0  0  0  0  0  0  0  0  0  0  0
   36.9850   32.0650   39.3360 C   0  0  0  0  0  0  0  0  0  0  0  0
   37.7100   31.7770   40.4850 C   0  0  0  0  0  0  0  0  0  0  0  0
   38.8100   30.9090   40.3990 C   0  0  0  0  0  0  0  0  0  0  0  0
   39.0950   30.4040   39.1880 N   0  0  0  0  0  0  0  0  0  0  0  0
   38.3880   30.6860   38.0780 C   0  0  0  0  0  0  0  0  0  0  0  0
   37.3250   31.5250   38.1580 N   0  0  0  0  0  0  0  0  0  0  0  0
   36.1350   32.7420   39.4250 H   0  0  0  0  0  0  0  0  0  0  0  0
   37.4680   32.1950   41.4600 H   0  0  0  0  0  0  0  0  0  0  0  0
   38.6510   30.2580   37.1200 H   0  0  0  0  0  0  0  0  0  0  0  0
  1  5  1  0  0  0  0
  1  2  1  0  0  0  0
  2  3  1  0  0  0  0
  2  6  1  0  0  0  0
  3  4  1  0  0  0  0
  3  9  1  0  0  0  0
  4 11  1  0  0  0  0
  5 12  1  6  0  0  0
  5 15  1  0  0  0  0
  5  4  1  0  0  0  0
  7  2  1  0  0  0  0
  8  3  1  0  0  0  0
 10  4  1  0  0  0  0
 13 14  1  0  0  0  0
 14 19  2  0  0  0  0
 14 15  1  0  0  0  0
 15 16  2  0  0  0  0
 16 17  1  0  0  0  0
 16 20  1  0  0  0  0
 17 21  1  0  0  0  0
 18 22  1  0  0  0  0
 18 17  2  0  0  0  0
 19 18  1  0  0  0  0
 23 30  1  0  0  0  0
 23 19  1  0  0  0  0
 24 23  2  0  0  0  0
 25 24  1  0  0  0  0
 26 24  1  0  0  0  0
 26 28  2  0  0  0  0
 27 26  1  0  0  0  0
 28 29  1  0  0  0  0
 28 30  1  0  0  0  0
 31 37  1  0  0  0  0
 31 32  1  0  0  0  0
 32 38  1  0  0  0  0
 33 32  2  0  0  0  0
 33  1  1  0  0  0  0
 34 33  1  0  0  0  0
 35 36  1  0  0  0  0
 35 34  2  0  0  0  0
 36 31  2  0  0  0  0
 39 35  1  0  0  0  0
M  END
>  <minimizedAffinity>
-5.54591322

$$$$

 OpenBabel03242515333D

 39 42  0  0  1  0  0  0  0  0999 V2000
   36.9260   29.5090   39.8940 N   0  0  0  0  0  0  0  0  0  0  0  0
   35.5500   29.4150   39.4990 C   0  0  0  0  0  0  0  0  0  0  0  0
   35.7540   29.0950   38.0390 C   0  0  0  0  0  0  0  0  0  0  0  0
   36.6790   30.2620   37.6690 C   0  0  0  0  0  0  0  0  0  0  0  0
   37.5960   30.2830   38.8410 C   0  0  1  0  0  0  0  0  0  0  0  0
   34.9820   30.3490   39.6480 H   0  0  0  0  0  0  0  0  0  0  0  0
   35.0700   28.5510   39.9800 H   0  0  0  0  0  0  0  0  0  0  0  0
   36.3500   28.1840   37.9540 H   0  0  0  0  0  0  0  0  0  0  0  0
   34.8180   29.1150   37.4520 H   0  0  0  0  0  0  0  0  0  0  0  0
   37.1680   30.1080   36.6950 H   0  0  0  0  0  0  0  0  0  0  0  0
   36.0320   31.1700   37.6820 H   0  0  0  0  0  0  0  0  0  0  0  0
   38.5030   29.6590   38.6110 H   0  0  0  0  0  0  0  0  0  0  0  0
   40.2700   30.8790   39.5900 F   0  0  0  0  0  0  0  0  0  0  0  0
   39.3540   31.9000   39.6410 C   0  0  0  0  0  0  0  0  0  0  0  0
   38.0600   31.5990   39.2890 C   0  0  0  0  0  0  0  0  0  0  0  0
   37.1720   32.6550   39.3550 C   0  0  0  0  0  0  0  0  0  0  0  0
   37.5760   33.9150   39.7490 C   0  0  0  0  0  0  0  0  0  0  0  0
   38.9170   34.1590   40.0970 C   0  0  0  0  0  0  0  0  0  0  0  0
   39.8390   33.0980   40.0370 C   0  0  0  0  0  0  0  0  0  0  0  0
   36.1420   32.5060   39.0990 H   0  0  0  0  0  0  0  0  0  0  0  0
   36.8570   34.7220   39.7900 H   0  0  0  0  0  0  0  0  0  0  0  0
   39.2560   35.1340   40.4070 H   0  0  0  0  0  0  0  0  0  0  0  0
   41.2350   33.3320   40.3940 C   0  0  0  0  0  0  0  0  0  0  0  0
   42.1200   34.1230   39.6920 C   0  0  0  0  0  0  0  0  0  0  0  0
   41.9750   34.7000   38.7880 H   0  0  0  0  0  0  0  0  0  0  0  0
   43.2840   33.9950   40.4590 C   0  0  0  0  0  0  0  0  0  0  0  0
   44.2510   34.4770   40.2440 H   0  0  0  0  0  0  0  0  0  0  0  0
   43.0540   33.1680   41.5370 C   0  0  0  0  0  0  0  0  0  0  0  0
   43.7340   32.8580   42.3250 H   0  0  0  0  0  0  0  0  0  0  0  0
   41.7990   32.7950   41.4510 O   0  0  0  0  0  0  0  0  0  0  0  0
   38.1220   28.9310   43.3740 C   0  0  0  0  0  0  0  0  0  0  0  0
   37.3960   29.4790   42.3240 C   0  0  0  0  0  0  0  0  0  0  0  0
   37.6180   29.0060   41.0210 C   0  0  0  0  0  0  0  0  0  0  0  0
   38.5350   28.0370   40.8710 N   0  0  0  0  0  0  0  0  0  0  0  0
   39.2360   27.5100   41.8920 C   0  0  0  0  0  0  0  0  0  0  0  0
   39.0240   27.9640   43.1530 N   0  0  0  0  0  0  0  0  0  0  0  0
   37.9340   29.3110   44.3780 H   0  0  0  0  0  0  0  0  0  0  0  0
   36.6550   30.2630   42.4610 H   0  0  0  0  0  0  0  0  0  0  0  0
   39.9670   26.7300   41.7290 H   0  0  0  0  0  0  0  0  0  0  0  0
  1 33  1  0  0  0  0
  2  6  1  0  0  0  0
  2  1  1  0  0  0  0
  2  7  1  0  0  0  0
  3  2  1  0  0  0  0
  4 11  1  0  0  0  0
  4  3  1  0  0  0  0
  4  5  1  0  0  0  0
  5 12  1  6  0  0  0
  5 15  1  0  0  0  0
  5  1  1  0  0  0  0
  8  3  1  0  0  0  0
  9  3  1  0  0  0  0
 10  4  1  0  0  0  0
 13 14  1  0  0  0  0
 14 19  1  0  0  0  0
 15 16  1  0  0  0  0
 15 14  2  0  0  0  0
 16 17  2  0  0  0  0
 17 21  1  0  0  0  0
 17 18  1  0  0  0  0
 18 22  1  0  0  0  0
 19 18  2  0  0  0  0
 19 23  1  0  0  0  0
 20 16  1  0  0  0  0
 23 30  1  0  0  0  0
 24 23  2  0  0  0  0
 24 26  1  0  0  0  0
 25 24  1  0  0  0  0
 26 28  2  0  0  0  0
 27 26  1  0  0  0  0
 28 29  1  0  0  0  0
 30 28  1  0  0  0  0
 31 37  1  0  0  0  0
 32 38  1  0  0  0  0
 32 31  2  0  0  0  0
 33 32  1  0  0  0  0
 34 33  2  0  0  0  0
 34 35  1  0  0  0  0
 35 36  2  0  0  0  0
 36 31  1  0  0  0  0
 39 35  1  0  0  0  0
M  END
>  <minimizedAffinity>
-5.52390575

$$$$

 OpenBabel03242515333D

 39 42  0  0  1  0  0  0  0  0999 V2000
   38.3670   30.3530   40.9400 N   0  0  0  0  0  0  0  0  0  0  0  0
   39.4060   31.1000   40.2900 C   0  0  0  0  0  0  0  0  0  0  0  0
   38.9600   32.4890   40.6730 C   0  0  0  0  0  0  0  0  0  0  0  0
   37.5100   32.4170   40.1760 C   0  0  0  0  0  0  0  0  0  0  0  0
   37.1150   31.0600   40.6430 C   0  0  1  0  0  0  0  0  0  0  0  0
   39.4360   30.9560   39.1960 H   0  0  0  0  0  0  0  0  0  0  0  0
   40.3760   30.9030   40.7660 H   0  0  0  0  0  0  0  0  0  0  0  0
   38.9140   32.5610   41.7620 H   0  0  0  0  0  0  0  0  0  0  0  0
   39.5270   33.2880   40.1610 H   0  0  0  0  0  0  0  0  0  0  0  0
   36.8970   33.2430   40.5690 H   0  0  0  0  0  0  0  0  0  0  0  0
   37.5760   32.4270   39.0640 H   0  0  0  0  0  0  0  0  0  0  0  0
   36.6290   31.1440   41.6530 H   0  0  0  0  0  0  0  0  0  0  0  0
   37.5080   30.6730   37.8560 F   0  0  0  0  0  0  0  0  0  0  0  0
   36.3990   30.1000   38.4260 C   0  0  0  0  0  0  0  0  0  0  0  0
   36.2100   30.3040   39.7720 C   0  0  0  0  0  0  0  0  0  0  0  0
   35.0810   29.7100   40.3040 C   0  0  0  0  0  0  0  0  0  0  0  0
   34.2180   28.9690   39.5210 C   0  0  0  0  0  0  0  0  0  0  0  0
   34.4680   28.7970   38.1470 C   0  0  0  0  0  0  0  0  0  0  0  0
   35.6110   29.3940   37.5840 C   0  0  0  0  0  0  0  0  0  0  0  0
   34.8580   29.8200   41.3470 H   0  0  0  0  0  0  0  0  0  0  0  0
   33.3430   28.5160   39.9670 H   0  0  0  0  0  0  0  0  0  0  0  0
   33.8090   28.2240   37.5160 H   0  0  0  0  0  0  0  0  0  0  0  0
   35.8870   29.2270   36.1610 C   0  0  0  0  0  0  0  0  0  0  0  0
   35.9290   28.0230   35.4890 C   0  0  0  0  0  0  0  0  0  0  0  0
   35.7750   27.0160   35.8510 H   0  0  0  0  0  0  0  0  0  0  0  0
   36.2250   28.4370   34.1850 C   0  0  0  0  0  0  0  0  0  0  0  0
   36.3500   27.7760   33.3130 H   0  0  0  0  0  0  0  0  0  0  0  0
   36.3440   29.8100   34.1370 C   0  0  0  0  0  0  0  0  0  0  0  0
   36.5650   30.4540   33.2920 H   0  0  0  0  0  0  0  0  0  0  0  0
   36.1290   30.2370   35.3590 O   0  0  0  0  0  0  0  0  0  0  0  0
   37.8320   27.8830   43.6760 C   0  0  0  0  0  0  0  0  0  0  0  0
   37.7400   29.0700   42.9620 C   0  0  0  0  0  0  0  0  0  0  0  0
   38.4050   29.1800   41.7300 C   0  0  0  0  0  0  0  0  0  0  0  0
   39.1010   28.1100   41.3150 N   0  0  0  0  0  0  0  0  0  0  0  0
   39.1880   26.9620   42.0120 C   0  0  0  0  0  0  0  0  0  0  0  0
   38.5460   26.8510   43.2020 N   0  0  0  0  0  0  0  0  0  0  0  0
   37.3080   27.8170   44.6300 H   0  0  0  0  0  0  0  0  0  0  0  0
   37.1710   29.9300   43.3110 H   0  0  0  0  0  0  0  0  0  0  0  0
   39.7600   26.1210   41.6420 H   0  0  0  0  0  0  0  0  0  0  0  0
  1 33  1  0  0  0  0
  2  3  1  0  0  0  0
  2  7  1  0  0  0  0
  2  1  1  0  0  0  0
  3  8  1  0  0  0  0
  4 10  1  0  0  0  0
  4  5  1  0  0  0  0
  4  3  1  0  0  0  0
  5  1  1  0  0  0  0
  5 12  1  1  0  0  0
  6  2  1  0  0  0  0
  9  3  1  0  0  0  0
 11  4  1  0  0  0  0
 13 14  1  0  0  0  0
 14 15  1  0  0  0  0
 15 16  2  0  0  0  0
 15  5  1  0  0  0  0
 16 20  1  0  0  0  0
 17 21  1  0  0  0  0
 17 16  1  0  0  0  0
 18 17  2  0  0  0  0
 19 18  1  0  0  0  0
 19 14  2  0  0  0  0
 22 18  1  0  0  0  0
 23 19  1  0  0  0  0
 24 25  1  0  0  0  0
 24 23  2  0  0  0  0
 26 24  1  0  0  0  0
 27 26  1  0  0  0  0
 28 26  2  0  0  0  0
 28 30  1  0  0  0  0
 29 28  1  0  0  0  0
 30 23  1  0  0  0  0
 31 37  1  0  0  0  0
 32 38  1  0  0  0  0
 32 31  2  0  0  0  0
 33 32  1  0  0  0  0
 34 33  2  0  0  0  0
 34 35  1  0  0  0  0
 35 36  2  0  0  0  0
 36 31  1  0  0  0  0
 39 35  1  0  0  0  0
M  END
>  <minimizedAffinity>
-5.47428703

$$$$

 OpenBabel03242515333D

 39 42  0  0  1  0  0  0  0  0999 V2000
   38.2960   26.3860   41.7090 N   0  0  0  0  0  0  0  0  0  0  0  0
   39.6300   26.4590   42.2320 C   0  0  0  0  0  0  0  0  0  0  0  0
   39.2920   26.7210   43.6790 C   0  0  0  0  0  0  0  0  0  0  0  0
   38.3720   27.9340   43.4910 C   0  0  0  0  0  0  0  0  0  0  0  0
   37.5600   27.4990   42.3220 C   0  0  1  0  0  0  0  0  0  0  0  0
   40.2350   27.2690   41.7900 H   0  0  0  0  0  0  0  0  0  0  0  0
   40.1240   25.4800   42.1630 H   0  0  0  0  0  0  0  0  0  0  0  0
   38.6650   25.9070   44.0520 H   0  0  0  0  0  0  0  0  0  0  0  0
   40.1740   26.9690   44.2970 H   0  0  0  0  0  0  0  0  0  0  0  0
   37.7960   28.1610   44.4020 H   0  0  0  0  0  0  0  0  0  0  0  0
   39.0420   28.7720   43.1910 H   0  0  0  0  0  0  0  0  0  0  0  0
   36.6190   27.0050   42.6900 H   0  0  0  0  0  0  0  0  0  0  0  0
   39.3790   29.2610   41.0380 F   0  0  0  0  0  0  0  0  0  0  0  0
   38.0480   29.3890   40.7300 C   0  0  0  0  0  0  0  0  0  0  0  0
   37.1740   28.5400   41.3660 C   0  0  0  0  0  0  0  0  0  0  0  0
   35.8440   28.7040   41.0270 C   0  0  0  0  0  0  0  0  0  0  0  0
   35.4440   29.6570   40.1120 C   0  0  0  0  0  0  0  0  0  0  0  0
   36.3890   30.4960   39.4940 C   0  0  0  0  0  0  0  0  0  0  0  0
   37.7490   30.3480   39.8250 C   0  0  0  0  0  0  0  0  0  0  0  0
   35.0950   28.0830   41.4780 H   0  0  0  0  0  0  0  0  0  0  0  0
   34.3960   29.7600   39.8670 H   0  0  0  0  0  0  0  0  0  0  0  0
   36.1010   31.2470   38.7770 H   0  0  0  0  0  0  0  0  0  0  0  0
   38.7440   31.2090   39.1940 C   0  0  0  0  0  0  0  0  0  0  0  0
   39.3160   32.3250   39.7670 C   0  0  0  0  0  0  0  0  0  0  0  0
   39.1590   32.7680   40.7410 H   0  0  0  0  0  0  0  0  0  0  0  0
   40.1770   32.7560   38.7500 C   0  0  0  0  0  0  0  0  0  0  0  0
   40.8360   33.6360   38.7970 H   0  0  0  0  0  0  0  0  0  0  0  0
   40.0830   31.9160   37.6610 C   0  0  0  0  0  0  0  0  0  0  0  0
   40.6070   31.9590   36.7110 H   0  0  0  0  0  0  0  0  0  0  0  0
   39.2030   30.9980   37.9830 O   0  0  0  0  0  0  0  0  0  0  0  0
   36.2150   23.6650   40.2450 C   0  0  0  0  0  0  0  0  0  0  0  0
   36.7610   24.5110   41.2010 C   0  0  0  0  0  0  0  0  0  0  0  0
   37.6900   25.4860   40.8020 C   0  0  0  0  0  0  0  0  0  0  0  0
   37.9960   25.5370   39.4960 N   0  0  0  0  0  0  0  0  0  0  0  0
   37.4640   24.7130   38.5730 C   0  0  0  0  0  0  0  0  0  0  0  0
   36.5660   23.7710   38.9560 N   0  0  0  0  0  0  0  0  0  0  0  0
   35.4950   22.9160   40.5760 H   0  0  0  0  0  0  0  0  0  0  0  0
   36.5020   24.4590   42.2570 H   0  0  0  0  0  0  0  0  0  0  0  0
   37.7380   24.7870   37.5290 H   0  0  0  0  0  0  0  0  0  0  0  0
  1  2  1  0  0  0  0
  1  5  1  0  0  0  0
  2  3  1  0  0  0  0
  3  8  1  0  0  0  0
  3  9  1  0  0  0  0
  4  3  1  0  0  0  0
  4 10  1  0  0  0  0
  5 12  1  1  0  0  0
  5  4  1  0  0  0  0
  6  2  1  0  0  0  0
  7  2  1  0  0  0  0
 11  4  1  0  0  0  0
 14 13  1  0  0  0  0
 14 15  1  0  0  0  0
 15  5  1  0  0  0  0
 16 15  2  0  0  0  0
 16 20  1  0  0  0  0
 17 16  1  0  0  0  0
 18 19  1  0  0  0  0
 18 17  2  0  0  0  0
 19 14  2  0  0  0  0
 21 17  1  0  0  0  0
 22 18  1  0  0  0  0
 23 24  2  0  0  0  0
 23 19  1  0  0  0  0
 24 25  1  0  0  0  0
 26 27  1  0  0  0  0
 26 24  1  0  0  0  0
 28 30  1  0  0  0  0
 28 26  2  0  0  0  0
 29 28  1  0  0  0  0
 30 23  1  0  0  0  0
 31 37  1  0  0  0  0
 31 32  1  0  0  0  0
 32 38  1  0  0  0  0
 33 32  2  0  0  0  0
 33  1  1  0  0  0  0
 34 33  1  0  0  0  0
 35 36  1  0  0  0  0
 35 34  2  0  0  0  0
 36 31  2  0  0  0  0
 39 35  1  0  0  0  0
M  END
>  <minimizedAffinity>
-5.40978861

$$$$

 OpenBabel03242515333D

 39 42  0  0  1  0  0  0  0  0999 V2000
   39.0650   32.0510   38.7700 N   0  0  0  0  0  0  0  0  0  0  0  0
   37.7220   31.9500   38.2750 C   0  0  0  0  0  0  0  0  0  0  0  0
   37.1250   33.1330   38.9970 C   0  0  0  0  0  0  0  0  0  0  0  0
   37.5460   32.7730   40.4270 C   0  0  0  0  0  0  0  0  0  0  0  0
   38.9460   32.3190   40.2090 C   0  0  1  0  0  0  0  0  0  0  0  0
   37.2230   31.0030   38.5390 H   0  0  0  0  0  0  0  0  0  0  0  0
   37.6950   32.1530   37.1950 H   0  0  0  0  0  0  0  0  0  0  0  0
   37.6800   34.0340   38.7250 H   0  0  0  0  0  0  0  0  0  0  0  0
   36.0270   33.1970   38.8990 H   0  0  0  0  0  0  0  0  0  0  0  0
   37.4320   33.6230   41.1180 H   0  0  0  0  0  0  0  0  0  0  0  0
   36.9100   31.9030   40.7140 H   0  0  0  0  0  0  0  0  0  0  0  0
   39.6440   33.1870   40.3600 H   0  0  0  0  0  0  0  0  0  0  0  0
   37.6180   29.8230   40.4850 F   0  0  0  0  0  0  0  0  0  0  0  0
   38.7900   29.9990   41.1780 C   0  0  0  0  0  0  0  0  0  0  0  0
   39.4180   31.2150   41.0490 C   0  0  0  0  0  0  0  0  0  0  0  0
   40.5920   31.3480   41.7650 C   0  0  0  0  0  0  0  0  0  0  0  0
   41.0820   30.3220   42.5480 C   0  0  0  0  0  0  0  0  0  0  0  0
   40.3910   29.1000   42.6390 C   0  0  0  0  0  0  0  0  0  0  0  0
   39.1920   28.9410   41.9190 C   0  0  0  0  0  0  0  0  0  0  0  0
   41.1460   32.2650   41.7210 H   0  0  0  0  0  0  0  0  0  0  0  0
   42.0040   30.4570   43.0960 H   0  0  0  0  0  0  0  0  0  0  0  0
   40.7530   28.2840   43.2430 H   0  0  0  0  0  0  0  0  0  0  0  0
   38.4610   27.6810   42.0000 C   0  0  0  0  0  0  0  0  0  0  0  0
   37.3720   27.4370   42.8100 C   0  0  0  0  0  0  0  0  0  0  0  0
   36.8630   28.0870   43.5100 H   0  0  0  0  0  0  0  0  0  0  0  0
   37.0780   26.1060   42.4960 C   0  0  0  0  0  0  0  0  0  0  0  0
   36.2610   25.5080   42.9300 H   0  0  0  0  0  0  0  0  0  0  0  0
   37.9660   25.6320   41.5540 C   0  0  0  0  0  0  0  0  0  0  0  0
   38.0230   24.6510   41.0920 H   0  0  0  0  0  0  0  0  0  0  0  0
   38.7810   26.6250   41.2890 O   0  0  0  0  0  0  0  0  0  0  0  0
   42.0850   30.7020   37.0560 C   0  0  0  0  0  0  0  0  0  0  0  0
   40.8460   30.7180   37.6820 C   0  0  0  0  0  0  0  0  0  0  0  0
   40.3180   31.9430   38.1210 C   0  0  0  0  0  0  0  0  0  0  0  0
   41.0600   33.0400   37.9020 N   0  0  0  0  0  0  0  0  0  0  0  0
   42.2610   33.0190   37.2950 C   0  0  0  0  0  0  0  0  0  0  0  0
   42.7740   31.8370   36.8690 N   0  0  0  0  0  0  0  0  0  0  0  0
   42.4770   29.7410   36.7220 H   0  0  0  0  0  0  0  0  0  0  0  0
   40.2550   29.8210   37.8520 H   0  0  0  0  0  0  0  0  0  0  0  0
   42.8280   33.9270   37.1380 H   0  0  0  0  0  0  0  0  0  0  0  0
  1  5  1  0  0  0  0
  2  6  1  0  0  0  0
  2  1  1  0  0  0  0
  2  3  1  0  0  0  0
  3  4  1  0  0  0  0
  4 11  1  0  0  0  0
  4 10  1  0  0  0  0
  5 12  1  1  0  0  0
  5  4  1  0  0  0  0
  5 15  1  0  0  0  0
  7  2  1  0  0  0  0
  8  3  1  0  0  0  0
  9  3  1  0  0  0  0
 13 14  1  0  0  0  0
 14 19  1  0  0  0  0
 15 14  2  0  0  0  0
 15 16  1  0  0  0  0
 16 17  2  0  0  0  0
 17 18  1  0  0  0  0
 17 21  1  0  0  0  0
 18 22  1  0  0  0  0
 19 23  1  0  0  0  0
 19 18  2  0  0  0  0
 20 16  1  0  0  0  0
 23 24  2  0  0  0  0
 24 25  1  0  0  0  0
 26 24  1  0  0  0  0
 26 27  1  0  0  0  0
 28 26  2  0  0  0  0
 29 28  1  0  0  0  0
 30 28  1  0  0  0  0
 30 23  1  0  0  0  0
 31 32  1  0  0  0  0
 32 38  1  0  0  0  0
 32 33  2  0  0  0  0
 33  1  1  0  0  0  0
 34 33  1  0  0  0  0
 35 34  2  0  0  0  0
 36 31  2  0  0  0  0
 36 35  1  0  0  0  0
 37 31  1  0  0  0  0
 39 35  1  0  0  0  0
M  END
>  <minimizedAffinity>
-5.33214092

$$$$

 OpenBabel03242515333D

 39 42  0  0  1  0  0  0  0  0999 V2000
   36.6590   30.1910   39.8320 N   0  0  0  0  0  0  0  0  0  0  0  0
   36.5380   31.4380   40.5310 C   0  0  0  0  0  0  0  0  0  0  0  0
   37.9950   31.8310   40.5490 C   0  0  0  0  0  0  0  0  0  0  0  0
   38.5760   30.5510   41.1630 C   0  0  0  0  0  0  0  0  0  0  0  0
   37.8160   29.5070   40.4230 C   0  0  1  0  0  0  0  0  0  0  0  0
   36.1190   31.3370   41.5470 H   0  0  0  0  0  0  0  0  0  0  0  0
   35.9890   32.1690   39.9210 H   0  0  0  0  0  0  0  0  0  0  0  0
   38.3630   31.8800   39.5220 H   0  0  0  0  0  0  0  0  0  0  0  0
   38.2020   32.7150   41.1780 H   0  0  0  0  0  0  0  0  0  0  0  0
   39.6700   30.4990   41.0510 H   0  0  0  0  0  0  0  0  0  0  0  0
   38.2570   30.5610   42.2310 H   0  0  0  0  0  0  0  0  0  0  0  0
   38.4060   29.1890   39.5220 H   0  0  0  0  0  0  0  0  0  0  0  0
   38.0850   26.8580   39.4330 F   0  0  0  0  0  0  0  0  0  0  0  0
   37.5980   27.0130   40.7070 C   0  0  0  0  0  0  0  0  0  0  0  0
   37.4580   28.2990   41.1720 C   0  0  0  0  0  0  0  0  0  0  0  0
   36.9640   28.4080   42.4580 C   0  0  0  0  0  0  0  0  0  0  0  0
   36.6390   27.2920   43.2040 C   0  0  0  0  0  0  0  0  0  0  0  0
   36.8050   26.0020   42.6700 C   0  0  0  0  0  0  0  0  0  0  0  0
   37.3070   25.8670   41.3620 C   0  0  0  0  0  0  0  0  0  0  0  0
   36.8230   29.3750   42.8980 H   0  0  0  0  0  0  0  0  0  0  0  0
   36.2550   27.4110   44.2080 H   0  0  0  0  0  0  0  0  0  0  0  0
   36.5590   25.1160   43.2330 H   0  0  0  0  0  0  0  0  0  0  0  0
   37.4860   24.5360   40.7910 C   0  0  0  0  0  0  0  0  0  0  0  0
   36.4840   23.7500   40.2610 C   0  0  0  0  0  0  0  0  0  0  0  0
   35.4240   23.9420   40.1620 H   0  0  0  0  0  0  0  0  0  0  0  0
   37.1960   22.6100   39.8680 C   0  0  0  0  0  0  0  0  0  0  0  0
   36.7660   21.7170   39.3890 H   0  0  0  0  0  0  0  0  0  0  0  0
   38.5330   22.7580   40.1690 C   0  0  0  0  0  0  0  0  0  0  0  0
   39.3570   22.0710   40.0010 H   0  0  0  0  0  0  0  0  0  0  0  0
   38.6540   23.9400   40.7250 O   0  0  0  0  0  0  0  0  0  0  0  0
   35.5910   28.9130   36.4990 C   0  0  0  0  0  0  0  0  0  0  0  0
   36.4030   29.4760   37.4750 C   0  0  0  0  0  0  0  0  0  0  0  0
   35.9020   29.6260   38.7790 C   0  0  0  0  0  0  0  0  0  0  0  0
   34.6460   29.2070   39.0010 N   0  0  0  0  0  0  0  0  0  0  0  0
   33.8630   28.6630   38.0510 C   0  0  0  0  0  0  0  0  0  0  0  0
   34.3440   28.5160   36.7910 N   0  0  0  0  0  0  0  0  0  0  0  0
   35.9990   28.8060   35.4940 H   0  0  0  0  0  0  0  0  0  0  0  0
   37.4200   29.8100   37.2810 H   0  0  0  0  0  0  0  0  0  0  0  0
   32.8550   28.3380   38.2710 H   0  0  0  0  0  0  0  0  0  0  0  0
  1  5  1  0  0  0  0
  1  2  1  0  0  0  0
  2  3  1  0  0  0  0
  2  6  1  0  0  0  0
  3  4  1  0  0  0  0
  3  9  1  0  0  0  0
  4 11  1  0  0  0  0
  5 12  1  6  0  0  0
  5  4  1  0  0  0  0
  5 15  1  0  0  0  0
  7  2  1  0  0  0  0
  8  3  1  0  0  0  0
 10  4  1  0  0  0  0
 13 14  1  0  0  0  0
 14 15  2  0  0  0  0
 14 19  1  0  0  0  0
 15 16  1  0  0  0  0
 16 20  1  0  0  0  0
 16 17  2  0  0  0  0
 17 21  1  0  0  0  0
 18 17  1  0  0  0  0
 18 22  1  0  0  0  0
 19 18  2  0  0  0  0
 23 19  1  0  0  0  0
 24 23  2  0  0  0  0
 25 24  1  0  0  0  0
 26 28  2  0  0  0  0
 26 24  1  0  0  0  0
 27 26  1  0  0  0  0
 28 30  1  0  0  0  0
 29 28  1  0  0  0  0
 30 23  1  0  0  0  0
 31 36  2  0  0  0  0
 31 32  1  0  0  0  0
 32 33  2  0  0  0  0
 33 34  1  0  0  0  0
 33  1  1  0  0  0  0
 35 39  1  0  0  0  0
 35 34  2  0  0  0  0
 36 35  1  0  0  0  0
 37 31  1  0  0  0  0
 38 32  1  0  0  0  0
M  END
>  <minimizedAffinity>
-5.28758049

$$$$

 OpenBabel03242515333D

 39 42  0  0  1  0  0  0  0  0999 V2000
   37.5660   28.7140   41.4280 N   0  0  0  0  0  0  0  0  0  0  0  0
   37.0930   27.3710   41.6020 C   0  0  0  0  0  0  0  0  0  0  0  0
   36.5760   27.4940   43.0140 C   0  0  0  0  0  0  0  0  0  0  0  0
   37.8380   28.0570   43.6790 C   0  0  0  0  0  0  0  0  0  0  0  0
   38.2730   29.0580   42.6680 C   0  0  1  0  0  0  0  0  0  0  0  0
   37.8850   26.6080   41.5110 H   0  0  0  0  0  0  0  0  0  0  0  0
   36.2410   27.1740   40.9360 H   0  0  0  0  0  0  0  0  0  0  0  0
   35.8230   28.2850   43.0500 H   0  0  0  0  0  0  0  0  0  0  0  0
   36.2780   26.5270   43.4570 H   0  0  0  0  0  0  0  0  0  0  0  0
   37.6300   28.4650   44.6810 H   0  0  0  0  0  0  0  0  0  0  0  0
   38.5630   27.2110   43.7060 H   0  0  0  0  0  0  0  0  0  0  0  0
   37.8420   30.0620   42.9320 H   0  0  0  0  0  0  0  0  0  0  0  0
   39.5630   31.5490   42.2190 F   0  0  0  0  0  0  0  0  0  0  0  0
   40.3520   30.4280   42.2840 C   0  0  0  0  0  0  0  0  0  0  0  0
   39.7180   29.2260   42.4880 C   0  0  0  0  0  0  0  0  0  0  0  0
   40.5500   28.1240   42.5450 C   0  0  0  0  0  0  0  0  0  0  0  0
   41.9180   28.2450   42.4050 C   0  0  0  0  0  0  0  0  0  0  0  0
   42.5080   29.5050   42.1980 C   0  0  0  0  0  0  0  0  0  0  0  0
   41.6790   30.6410   42.1360 C   0  0  0  0  0  0  0  0  0  0  0  0
   40.1370   27.1470   42.7010 H   0  0  0  0  0  0  0  0  0  0  0  0
   42.5430   27.3640   42.4560 H   0  0  0  0  0  0  0  0  0  0  0  0
   43.5730   29.6240   42.0860 H   0  0  0  0  0  0  0  0  0  0  0  0
   42.2720   31.9570   41.9220 C   0  0  0  0  0  0  0  0  0  0  0  0
   42.0380   32.7740   40.8360 C   0  0  0  0  0  0  0  0  0  0  0  0
   41.4060   32.6230   39.9720 H   0  0  0  0  0  0  0  0  0  0  0  0
   42.8400   33.8820   41.1370 C   0  0  0  0  0  0  0  0  0  0  0  0
   42.9480   34.7840   40.5160 H   0  0  0  0  0  0  0  0  0  0  0  0
   43.4920   33.6850   42.3350 C   0  0  0  0  0  0  0  0  0  0  0  0
   44.1840   34.3380   42.8590 H   0  0  0  0  0  0  0  0  0  0  0  0
   43.1120   32.5060   42.7680 O   0  0  0  0  0  0  0  0  0  0  0  0
   36.8550   31.7560   39.3980 C   0  0  0  0  0  0  0  0  0  0  0  0
   36.9480   30.9290   40.5100 C   0  0  0  0  0  0  0  0  0  0  0  0
   37.4400   29.6240   40.3510 C   0  0  0  0  0  0  0  0  0  0  0  0
   37.7950   29.2520   39.1100 N   0  0  0  0  0  0  0  0  0  0  0  0
   37.7020   30.0580   38.0360 C   0  0  0  0  0  0  0  0  0  0  0  0
   37.2270   31.3200   38.1860 N   0  0  0  0  0  0  0  0  0  0  0  0
   36.4710   32.7660   39.5430 H   0  0  0  0  0  0  0  0  0  0  0  0
   36.6570   31.2440   41.5100 H   0  0  0  0  0  0  0  0  0  0  0  0
   37.9980   29.7200   37.0520 H   0  0  0  0  0  0  0  0  0  0  0  0
  1  2  1  0  0  0  0
  1  5  1  0  0  0  0
  2  3  1  0  0  0  0
  3  8  1  0  0  0  0
  3  9  1  0  0  0  0
  3  4  1  0  0  0  0
  4 11  1  0  0  0  0
  4 10  1  0  0  0  0
  5 12  1  1  0  0  0
  5  4  1  0  0  0  0
  6  2  1  0  0  0  0
  7  2  1  0  0  0  0
 13 14  1  0  0  0  0
 14 15  1  0  0  0  0
 15 16  2  0  0  0  0
 15  5  1  0  0  0  0
 16 20  1  0  0  0  0
 17 21  1  0  0  0  0
 17 16  1  0  0  0  0
 18 17  2  0  0  0  0
 19 18  1  0  0  0  0
 19 14  2  0  0  0  0
 22 18  1  0  0  0  0
 23 19  1  0  0  0  0
 23 30  1  0  0  0  0
 24 26  1  0  0  0  0
 24 23  2  0  0  0  0
 25 24  1  0  0  0  0
 26 28  2  0  0  0  0
 27 26  1  0  0  0  0
 28 30  1  0  0  0  0
 28 29  1  0  0  0  0
 31 37  1  0  0  0  0
 31 32  1  0  0  0  0
 32 38  1  0  0  0  0
 33 32  2  0  0  0  0
 33  1  1  0  0  0  0
 34 33  1  0  0  0  0
 35 36  1  0  0  0  0
 35 34  2  0  0  0  0
 36 31  2  0  0  0  0
 39 35  1  0  0  0  0
M  END
>  <minimizedAffinity>
-5.28126049

$$$$
