
 OpenBabel03252501423D

 44 47  0  0  0  0  0  0  0  0999 V2000
   43.7670   34.8650   40.6640 O   0  0  0  0  0  0  0  0  0  0  0  0
   42.9710   32.2920   39.4020 Cl  0  0  0  0  0  0  0  0  0  0  0  0
   41.9070   33.5970   39.9070 C   0  0  0  0  0  0  0  0  0  0  0  0
   42.3740   34.7690   40.4920 C   0  0  0  0  0  0  0  0  0  0  0  0
   41.5070   35.7450   40.8620 C   0  0  0  0  0  0  0  0  0  0  0  0
   40.1390   35.6510   40.6940 C   0  0  0  0  0  0  0  0  0  0  0  0
   39.6360   34.4730   40.1030 C   0  0  0  0  0  0  0  0  0  0  0  0
   37.9140   34.2590   39.8450 Cl  0  0  0  0  0  0  0  0  0  0  0  0
   40.5490   33.5020   39.7390 C   0  0  0  0  0  0  0  0  0  0  0  0
   41.9320   36.6410   41.3150 H   0  0  0  0  0  0  0  0  0  0  0  0
   39.4590   36.4260   40.9890 H   0  0  0  0  0  0  0  0  0  0  0  0
   39.8810   31.3740   41.3040 F   0  0  0  0  0  0  0  0  0  0  0  0
   39.7100   31.2140   39.9490 C   0  0  0  0  0  0  0  0  0  0  0  0
   40.0410   32.2750   39.1260 C   0  0  0  0  0  0  0  0  0  0  0  0
   39.8540   32.0770   37.7540 C   0  0  0  0  0  0  0  0  0  0  0  0
   39.3640   30.8620   37.3050 C   0  0  0  0  0  0  0  0  0  0  0  0
   39.0500   29.8300   38.1910 C   0  0  0  0  0  0  0  0  0  0  0  0
   39.2220   29.9930   39.5590 C   0  0  0  0  0  0  0  0  0  0  0  0
   40.1140   32.9060   37.1260 H   0  0  0  0  0  0  0  0  0  0  0  0
   39.2250   30.7230   36.2470 H   0  0  0  0  0  0  0  0  0  0  0  0
   38.6650   28.8840   37.8260 H   0  0  0  0  0  0  0  0  0  0  0  0
   38.9910   29.2200   40.2770 H   0  0  0  0  0  0  0  0  0  0  0  0
   44.3180   34.3330   41.8330 C   0  0  0  0  0  0  0  0  0  0  0  0
   44.0400   33.1950   42.3710 O   0  0  0  0  0  0  0  0  0  0  0  0
   45.2970   35.0550   42.5700 N   0  0  0  0  0  0  0  0  0  0  0  0
   45.6710   35.9560   42.2830 H   0  0  0  0  0  0  0  0  0  0  0  0
   45.6510   34.3010   43.7570 C   0  0  0  0  0  0  0  0  0  0  0  0
   45.1840   34.5150   45.0200 C   0  0  0  0  0  0  0  0  0  0  0  0
   45.6470   33.6830   46.0100 C   0  0  0  0  0  0  0  0  0  0  0  0
   46.5270   32.7150   45.6570 N   0  0  0  0  0  0  0  0  0  0  0  0
   46.9690   32.5290   44.3970 C   0  0  0  0  0  0  0  0  0  0  0  0
   46.5230   33.3390   43.4160 N   0  0  0  0  0  0  0  0  0  0  0  0
   45.2940   33.8320   47.0140 H   0  0  0  0  0  0  0  0  0  0  0  0
   47.9200   31.4410   44.1740 C   0  0  0  0  0  0  0  0  0  0  0  0
   48.7200   31.4940   43.0310 C   0  0  0  0  0  0  0  0  0  0  0  0
   48.7660   32.2440   42.2290 H   0  0  0  0  0  0  0  0  0  0  0  0
   49.5140   30.3400   43.0870 C   0  0  0  0  0  0  0  0  0  0  0  0
   50.2460   30.1030   42.3220 H   0  0  0  0  0  0  0  0  0  0  0  0
   49.1420   29.6670   44.2580 C   0  0  0  0  0  0  0  0  0  0  0  0
   49.5930   28.7320   44.5660 H   0  0  0  0  0  0  0  0  0  0  0  0
   48.2160   30.3500   44.8460 O   0  0  0  0  0  0  0  0  0  0  0  0
   44.2730   35.5660   45.2040 N   0  0  0  0  0  0  0  0  0  0  0  0
   44.2750   36.4210   44.6190 H   0  0  0  0  0  0  0  0  0  0  0  0
   43.5290   35.5350   45.9620 H   0  0  0  0  0  0  0  0  0  0  0  0
  1 23  1  0  0  0  0
  2  3  1  0  0  0  0
  3  4  1  0  0  0  0
  4  1  1  0  0  0  0
  4  5  2  0  0  0  0
  5 10  1  0  0  0  0
  6  5  1  0  0  0  0
  6 11  1  0  0  0  0
  7  6  2  0  0  0  0
  8  7  1  0  0  0  0
  9  3  2  0  0  0  0
  9  7  1  0  0  0  0
 13 12  1  0  0  0  0
 14  9  1  0  0  0  0
 14 13  2  0  0  0  0
 15 14  1  0  0  0  0
 16 15  2  0  0  0  0
 16 17  1  0  0  0  0
 17 18  2  0  0  0  0
 18 13  1  0  0  0  0
 18 22  1  0  0  0  0
 19 15  1  0  0  0  0
 20 16  1  0  0  0  0
 21 17  1  0  0  0  0
 23 24  2  0  0  0  0
 23 25  1  0  0  0  0
 25 27  1  0  0  0  0
 26 25  1  0  0  0  0
 27 28  1  0  0  0  0
 28 42  1  0  0  0  0
 28 29  2  0  0  0  0
 29 33  1  0  0  0  0
 30 29  1  0  0  0  0
 31 30  2  0  0  0  0
 32 27  2  0  0  0  0
 32 31  1  0  0  0  0
 34 31  1  0  0  0  0
 34 41  1  0  0  0  0
 35 37  1  0  0  0  0
 35 34  2  0  0  0  0
 36 35  1  0  0  0  0
 37 39  2  0  0  0  0
 38 37  1  0  0  0  0
 39 40  1  0  0  0  0
 39 41  1  0  0  0  0
 42 44  1  0  0  0  0
 43 42  1  0  0  0  0
M  END
>  <minimizedAffinity>
-6.3273201

>  <minimizedRMSD>
0.505688012

$$$$
