
 OpenBabel03252507263D

 26 28  0  0  0  0  0  0  0  0999 V2000
   45.7200   34.0300   45.5150 C   0  0  0  0  0  0  0  0  0  0  0  0
   44.7250   35.0020   45.7150 C   0  0  0  0  0  0  0  0  0  0  0  0
   44.4330   35.8610   44.6550 C   0  0  0  0  0  0  0  0  0  0  0  0
   45.1230   35.7200   43.4750 N   0  0  0  0  0  0  0  0  0  0  0  0
   46.0720   34.7650   43.3360 C   0  0  0  0  0  0  0  0  0  0  0  0
   46.3760   33.9240   44.3380 N   0  0  0  0  0  0  0  0  0  0  0  0
   44.2230   35.0510   46.6790 H   0  0  0  0  0  0  0  0  0  0  0  0
   43.6700   36.6190   44.7840 H   0  0  0  0  0  0  0  0  0  0  0  0
   46.7720   34.6570   42.0690 C   0  0  0  0  0  0  0  0  0  0  0  0
   47.9710   35.3320   41.8740 C   0  0  0  0  0  0  0  0  0  0  0  0
   48.7210   35.3040   40.7160 C   0  0  0  0  0  0  0  0  0  0  0  0
   48.1750   34.5190   39.7070 C   0  0  0  0  0  0  0  0  0  0  0  0
   46.9800   33.8380   39.8840 C   0  0  0  0  0  0  0  0  0  0  0  0
   46.2960   33.9170   41.0600 N   0  0  0  0  0  0  0  0  0  0  0  0
   48.3280   35.9220   42.7090 H   0  0  0  0  0  0  0  0  0  0  0  0
   49.6470   35.8560   40.6380 H   0  0  0  0  0  0  0  0  0  0  0  0
   48.7120   34.4510   38.7710 H   0  0  0  0  0  0  0  0  0  0  0  0
   46.6280   33.2490   39.0450 H   0  0  0  0  0  0  0  0  0  0  0  0
   46.0600   33.1090   46.5950 C   0  0  0  0  0  0  0  0  0  0  0  0
   45.2310   32.7790   47.6580 C   0  0  0  0  0  0  0  0  0  0  0  0
   44.2250   33.1300   47.8690 H   0  0  0  0  0  0  0  0  0  0  0  0
   45.8980   31.8830   48.4710 C   0  0  0  0  0  0  0  0  0  0  0  0
   45.6100   31.3900   49.3830 H   0  0  0  0  0  0  0  0  0  0  0  0
   47.1100   31.7000   47.8720 C   0  0  0  0  0  0  0  0  0  0  0  0
   47.9730   31.1120   48.1050 H   0  0  0  0  0  0  0  0  0  0  0  0
   47.1750   32.4200   46.7930 O   0  0  0  0  0  0  0  0  0  0  0  0
  1  2  1  0  0  0  0
  1 19  1  0  0  0  0
  2  7  1  0  0  0  0
  3  8  1  0  0  0  0
  3  2  2  0  0  0  0
  4  3  1  0  0  0  0
  5  4  2  0  0  0  0
  5  6  1  0  0  0  0
  6  1  2  0  0  0  0
  9  5  1  0  0  0  0
 10  9  1  0  0  0  0
 10 15  1  0  0  0  0
 11 10  2  0  0  0  0
 12 13  2  0  0  0  0
 12 11  1  0  0  0  0
 13 14  1  0  0  0  0
 14  9  2  0  0  0  0
 16 11  1  0  0  0  0
 17 12  1  0  0  0  0
 18 13  1  0  0  0  0
 19 26  1  0  0  0  0
 19 20  2  0  0  0  0
 20 21  1  0  0  0  0
 20 22  1  0  0  0  0
 22 23  1  0  0  0  0
 24 25  1  0  0  0  0
 24 22  2  0  0  0  0
 26 24  1  0  0  0  0
M  END
>  <minimizedAffinity>
-5.90954685

>  <minimizedRMSD>
0.261927903

$$$$
