
 OpenBabel03252506573D

 37 41  0  0  0  0  0  0  0  0999 V2000
   47.2170   31.3350   45.1500 C   0  0  0  0  0  0  0  0  0  0  0  0
   46.8780   32.6810   45.1360 C   0  0  0  0  0  0  0  0  0  0  0  0
   46.2820   33.3140   46.2010 C   0  0  0  0  0  0  0  0  0  0  0  0
   45.9920   32.6040   47.3640 C   0  0  0  0  0  0  0  0  0  0  0  0
   45.4280   32.8780   48.5770 N   0  0  0  0  0  0  0  0  0  0  0  0
   45.4190   31.7410   49.3170 C   0  0  0  0  0  0  0  0  0  0  0  0
   45.9790   30.7720   48.5530 N   0  0  0  0  0  0  0  0  0  0  0  0
   46.3380   31.2750   47.3500 C   0  0  0  0  0  0  0  0  0  0  0  0
   46.9290   30.6140   46.3150 C   0  0  0  0  0  0  0  0  0  0  0  0
   47.6840   30.8610   44.3010 H   0  0  0  0  0  0  0  0  0  0  0  0
   46.0120   34.3680   46.1960 H   0  0  0  0  0  0  0  0  0  0  0  0
   45.0830   33.8340   48.8210 H   0  0  0  0  0  0  0  0  0  0  0  0
   45.0220   31.7090   50.3170 H   0  0  0  0  0  0  0  0  0  0  0  0
   46.5500   35.1530   42.4210 C   0  0  0  0  0  0  0  0  0  0  0  0
   47.7160   34.9310   41.6810 C   0  0  0  0  0  0  0  0  0  0  0  0
   48.6020   33.9440   42.1100 C   0  0  0  0  0  0  0  0  0  0  0  0
   48.2910   33.2320   43.2440 N   0  0  0  0  0  0  0  0  0  0  0  0
   47.1630   33.4670   43.9350 C   0  0  0  0  0  0  0  0  0  0  0  0
   46.2890   34.4200   43.5360 N   0  0  0  0  0  0  0  0  0  0  0  0
   45.8790   35.9260   42.0650 H   0  0  0  0  0  0  0  0  0  0  0  0
   47.9850   35.4730   40.7910 H   0  0  0  0  0  0  0  0  0  0  0  0
   49.5250   33.6930   41.6150 H   0  0  0  0  0  0  0  0  0  0  0  0
   47.2580   29.1890   46.4080 C   0  0  0  0  0  0  0  0  0  0  0  0
   48.5300   28.6760   46.3260 C   0  0  0  0  0  0  0  0  0  0  0  0
   48.3680   27.2940   46.4640 C   0  0  0  0  0  0  0  0  0  0  0  0
   47.0210   27.0540   46.6200 C   0  0  0  0  0  0  0  0  0  0  0  0
   46.3970   28.2330   46.5780 O   0  0  0  0  0  0  0  0  0  0  0  0
   49.4880   29.1620   46.1870 H   0  0  0  0  0  0  0  0  0  0  0  0
   49.1040   26.5050   46.4600 H   0  0  0  0  0  0  0  0  0  0  0  0
   46.2810   25.8080   46.8040 C   0  0  0  0  0  0  0  0  0  0  0  0
   46.9220   24.5730   46.6610 C   0  0  0  0  0  0  0  0  0  0  0  0
   47.9750   24.3800   46.4140 H   0  0  0  0  0  0  0  0  0  0  0  0
   46.0160   23.5560   46.8820 C   0  0  0  0  0  0  0  0  0  0  0  0
   46.0940   22.4850   46.8720 H   0  0  0  0  0  0  0  0  0  0  0  0
   44.8480   24.2360   47.1540 C   0  0  0  0  0  0  0  0  0  0  0  0
   43.8510   23.9120   47.3910 H   0  0  0  0  0  0  0  0  0  0  0  0
   45.0300   25.5460   47.1010 O   0  0  0  0  0  0  0  0  0  0  0  0
  1  9  1  0  0  0  0
  2  1  2  0  0  0  0
  2  3  1  0  0  0  0
  3  4  2  0  0  0  0
  4  5  1  0  0  0  0
  5 12  1  0  0  0  0
  5  6  1  0  0  0  0
  6 13  1  0  0  0  0
  7  6  2  0  0  0  0
  8  4  1  0  0  0  0
  8  7  1  0  0  0  0
  9 23  1  0  0  0  0
  9  8  2  0  0  0  0
 10  1  1  0  0  0  0
 11  3  1  0  0  0  0
 14 19  1  0  0  0  0
 15 16  1  0  0  0  0
 15 14  2  0  0  0  0
 16 17  2  0  0  0  0
 17 18  1  0  0  0  0
 18  2  1  0  0  0  0
 19 18  2  0  0  0  0
 20 14  1  0  0  0  0
 21 15  1  0  0  0  0
 22 16  1  0  0  0  0
 23 27  1  0  0  0  0
 24 23  2  0  0  0  0
 24 25  1  0  0  0  0
 25 26  2  0  0  0  0
 26 30  1  0  0  0  0
 27 26  1  0  0  0  0
 28 24  1  0  0  0  0
 29 25  1  0  0  0  0
 30 37  1  0  0  0  0
 31 30  2  0  0  0  0
 31 33  1  0  0  0  0
 32 31  1  0  0  0  0
 33 35  2  0  0  0  0
 34 33  1  0  0  0  0
 35 36  1  0  0  0  0
 37 35  1  0  0  0  0
M  END
>  <minimizedAffinity>
-5.40499401

>  <minimizedRMSD>
0.362370372

$$$$
