
 OpenBabel03242515323D

 39 42  0  0  1  0  0  0  0  0999 V2000
   46.9410   34.2780   42.4310 N   0  0  0  0  0  0  0  0  0  0  0  0
   48.2470   33.6930   42.3270 C   0  0  0  0  0  0  0  0  0  0  0  0
   48.8310   34.6250   41.2940 C   0  0  0  0  0  0  0  0  0  0  0  0
   47.7430   34.5000   40.2210 C   0  0  0  0  0  0  0  0  0  0  0  0
   46.5110   34.5530   41.0540 C   0  0  1  0  0  0  0  0  0  0  0  0
   48.2360   32.6440   41.9860 H   0  0  0  0  0  0  0  0  0  0  0  0
   48.8020   33.8240   43.2660 H   0  0  0  0  0  0  0  0  0  0  0  0
   48.7830   35.6500   41.6720 H   0  0  0  0  0  0  0  0  0  0  0  0
   49.8170   34.2980   40.9170 H   0  0  0  0  0  0  0  0  0  0  0  0
   47.8240   35.2880   39.4560 H   0  0  0  0  0  0  0  0  0  0  0  0
   47.8630   33.4780   39.7930 H   0  0  0  0  0  0  0  0  0  0  0  0
   46.1500   35.6160   41.1120 H   0  0  0  0  0  0  0  0  0  0  0  0
   43.8640   35.5050   40.6580 F   0  0  0  0  0  0  0  0  0  0  0  0
   44.1050   34.1770   40.4100 C   0  0  0  0  0  0  0  0  0  0  0  0
   45.3850   33.7230   40.6170 C   0  0  0  0  0  0  0  0  0  0  0  0
   45.5820   32.3800   40.3560 C   0  0  0  0  0  0  0  0  0  0  0  0
   44.5520   31.5710   39.9190 C   0  0  0  0  0  0  0  0  0  0  0  0
   43.2620   32.0970   39.7260 C   0  0  0  0  0  0  0  0  0  0  0  0
   43.0390   33.4620   39.9860 C   0  0  0  0  0  0  0  0  0  0  0  0
   46.5520   31.9440   40.4920 H   0  0  0  0  0  0  0  0  0  0  0  0
   44.7380   30.5240   39.7220 H   0  0  0  0  0  0  0  0  0  0  0  0
   42.4430   31.4850   39.3860 H   0  0  0  0  0  0  0  0  0  0  0  0
   41.7060   34.0250   39.7920 C   0  0  0  0  0  0  0  0  0  0  0  0
   41.1070   34.2610   38.5730 C   0  0  0  0  0  0  0  0  0  0  0  0
   41.4720   34.0890   37.5690 H   0  0  0  0  0  0  0  0  0  0  0  0
   39.8710   34.7920   38.9630 C   0  0  0  0  0  0  0  0  0  0  0  0
   39.0710   35.1230   38.2830 H   0  0  0  0  0  0  0  0  0  0  0  0
   39.7920   34.8500   40.3380 C   0  0  0  0  0  0  0  0  0  0  0  0
   38.9810   35.2050   40.9670 H   0  0  0  0  0  0  0  0  0  0  0  0
   40.9280   34.3730   40.7890 O   0  0  0  0  0  0  0  0  0  0  0  0
   44.5290   35.9300   44.7390 C   0  0  0  0  0  0  0  0  0  0  0  0
   45.2860   35.7020   43.5970 C   0  0  0  0  0  0  0  0  0  0  0  0
   46.1340   34.5840   43.5520 C   0  0  0  0  0  0  0  0  0  0  0  0
   46.1590   33.7930   44.6360 N   0  0  0  0  0  0  0  0  0  0  0  0
   45.4230   34.0190   45.7400 C   0  0  0  0  0  0  0  0  0  0  0  0
   44.6020   35.0990   45.7870 N   0  0  0  0  0  0  0  0  0  0  0  0
   43.8760   36.8040   44.7540 H   0  0  0  0  0  0  0  0  0  0  0  0
   45.2540   36.3520   42.7250 H   0  0  0  0  0  0  0  0  0  0  0  0
   45.4720   33.3570   46.5940 H   0  0  0  0  0  0  0  0  0  0  0  0
  1 33  1  0  0  0  0
  2  1  1  0  0  0  0
  2  7  1  0  0  0  0
  3  8  1  0  0  0  0
  3  2  1  0  0  0  0
  4  5  1  0  0  0  0
  4  3  1  0  0  0  0
  5 12  1  6  0  0  0
  5  1  1  0  0  0  0
  6  2  1  0  0  0  0
  9  3  1  0  0  0  0
 10  4  1  0  0  0  0
 11  4  1  0  0  0  0
 14 15  1  0  0  0  0
 14 13  1  0  0  0  0
 15  5  1  0  0  0  0
 16 20  1  0  0  0  0
 16 15  2  0  0  0  0
 17 16  1  0  0  0  0
 18 17  2  0  0  0  0
 18 19  1  0  0  0  0
 19 14  2  0  0  0  0
 21 17  1  0  0  0  0
 22 18  1  0  0  0  0
 23 19  1  0  0  0  0
 23 30  1  0  0  0  0
 24 26  1  0  0  0  0
 24 23  2  0  0  0  0
 25 24  1  0  0  0  0
 26 28  2  0  0  0  0
 27 26  1  0  0  0  0
 28 30  1  0  0  0  0
 28 29  1  0  0  0  0
 31 37  1  0  0  0  0
 31 36  1  0  0  0  0
 32 31  2  0  0  0  0
 33 32  1  0  0  0  0
 33 34  2  0  0  0  0
 34 35  1  0  0  0  0
 35 36  2  0  0  0  0
 35 39  1  0  0  0  0
 38 32  1  0  0  0  0
M  END
>  <minimizedAffinity>
-6.2040205

>  <minimizedRMSD>
0.842052639

$$$$
