
 OpenBabel03252504143D

 34 36  0  0  0  0  0  0  0  0999 V2000
   47.6290   30.0350   44.9230 F   0  0  0  0  0  0  0  0  0  0  0  0
   47.5060   30.8030   46.0530 C   0  0  0  0  0  0  0  0  0  0  0  0
   46.9340   32.0500   45.9670 C   0  0  0  0  0  0  0  0  0  0  0  0
   46.8500   32.7610   47.1640 C   0  0  0  0  0  0  0  0  0  0  0  0
   47.3120   32.2380   48.3490 C   0  0  0  0  0  0  0  0  0  0  0  0
   47.8750   30.9740   48.3560 C   0  0  0  0  0  0  0  0  0  0  0  0
   47.9900   30.2170   47.2050 C   0  0  0  0  0  0  0  0  0  0  0  0
   46.4030   33.7570   47.1490 H   0  0  0  0  0  0  0  0  0  0  0  0
   47.2450   32.7890   49.2710 H   0  0  0  0  0  0  0  0  0  0  0  0
   48.2460   30.5410   49.2760 H   0  0  0  0  0  0  0  0  0  0  0  0
   48.5820   28.8840   47.2020 C   0  0  0  0  0  0  0  0  0  0  0  0
   49.9240   28.6480   46.9860 C   0  0  0  0  0  0  0  0  0  0  0  0
   50.6700   29.3850   46.7990 H   0  0  0  0  0  0  0  0  0  0  0  0
   50.0120   27.2580   47.0760 C   0  0  0  0  0  0  0  0  0  0  0  0
   50.9370   26.6930   46.9570 H   0  0  0  0  0  0  0  0  0  0  0  0
   48.7540   26.7390   47.3370 C   0  0  0  0  0  0  0  0  0  0  0  0
   48.4680   25.7040   47.4650 H   0  0  0  0  0  0  0  0  0  0  0  0
   47.9450   27.7790   47.3990 O   0  0  0  0  0  0  0  0  0  0  0  0
   46.7590   34.1320   42.9910 C   0  0  0  0  0  0  0  0  0  0  0  0
   45.6070   33.6980   42.3320 C   0  0  0  0  0  0  0  0  0  0  0  0
   44.8820   32.6590   42.9430 C   0  0  0  0  0  0  0  0  0  0  0  0
   45.3180   32.1330   44.1160 N   0  0  0  0  0  0  0  0  0  0  0  0
   46.4450   32.5990   44.7070 C   0  0  0  0  0  0  0  0  0  0  0  0
   47.1630   33.5970   44.1450 N   0  0  0  0  0  0  0  0  0  0  0  0
   43.9850   32.3000   42.4550 H   0  0  0  0  0  0  0  0  0  0  0  0
   45.2010   34.3230   41.0580 C   0  0  0  0  0  0  0  0  0  0  0  0
   44.9260   35.6560   41.2580 F   0  0  0  0  0  0  0  0  0  0  0  0
   46.2830   34.2550   40.1880 F   0  0  0  0  0  0  0  0  0  0  0  0
   44.1330   33.7480   40.4610 F   0  0  0  0  0  0  0  0  0  0  0  0
   47.4590   35.1400   42.3990 O   0  0  0  0  0  0  0  0  0  0  0  0
   48.7740   35.0590   41.8840 C   0  0  0  0  0  0  0  0  0  0  0  0
   49.6330   35.3410   42.9510 F   0  0  0  0  0  0  0  0  0  0  0  0
   48.9970   33.8290   41.3260 F   0  0  0  0  0  0  0  0  0  0  0  0
   48.9880   36.0890   40.9950 F   0  0  0  0  0  0  0  0  0  0  0  0
  1  2  1  0  0  0  0
  2  7  1  0  0  0  0
  3  2  2  0  0  0  0
  3  4  1  0  0  0  0
  4  5  2  0  0  0  0
  5  6  1  0  0  0  0
  5  9  1  0  0  0  0
  6 10  1  0  0  0  0
  7  6  2  0  0  0  0
  8  4  1  0  0  0  0
 11  7  1  0  0  0  0
 11 18  1  0  0  0  0
 12 14  1  0  0  0  0
 12 11  2  0  0  0  0
 13 12  1  0  0  0  0
 14 16  2  0  0  0  0
 15 14  1  0  0  0  0
 16 18  1  0  0  0  0
 16 17  1  0  0  0  0
 19 24  1  0  0  0  0
 20 21  1  0  0  0  0
 20 19  2  0  0  0  0
 21 22  2  0  0  0  0
 22 23  1  0  0  0  0
 23  3  1  0  0  0  0
 24 23  2  0  0  0  0
 25 21  1  0  0  0  0
 26 27  1  0  0  0  0
 26 20  1  0  0  0  0
 28 26  1  0  0  0  0
 29 26  1  0  0  0  0
 30 19  1  0  0  0  0
 31 30  1  0  0  0  0
 31 32  1  0  0  0  0
 33 31  1  0  0  0  0
 34 31  1  0  0  0  0
M  END
>  <minimizedAffinity>
-5.52398539

>  <minimizedRMSD>
0.214092523

$$$$
