
 OpenBabel03242518483D

 44 47  0  0  1  0  0  0  0  0999 V2000
   39.6070   30.7540   39.9060 C   0  0  2  0  0  0  0  0  0  0  0  0
   39.4200   32.0270   39.1630 C   0  0  1  0  0  0  0  0  0  0  0  0
   38.3570   32.9200   39.8040 C   0  0  0  0  0  0  0  0  0  0  0  0
   37.2290   32.1000   39.8950 O   0  0  0  0  0  0  0  0  0  0  0  0
   37.3670   31.1470   40.8780 C   0  0  0  0  0  0  0  0  0  0  0  0
   38.7840   30.8000   41.2060 C   0  0  1  0  0  0  0  0  0  0  0  0
   39.2150   29.8960   39.3320 H   0  0  0  0  0  0  0  0  0  0  0  0
   39.0390   31.7780   38.1290 H   0  0  0  0  0  0  0  0  0  0  0  0
   38.0840   33.7260   39.0840 H   0  0  0  0  0  0  0  0  0  0  0  0
   38.6830   33.3070   40.7740 H   0  0  0  0  0  0  0  0  0  0  0  0
   36.9190   31.5610   41.8260 H   0  0  0  0  0  0  0  0  0  0  0  0
   36.8200   30.2060   40.6840 H   0  0  0  0  0  0  0  0  0  0  0  0
   39.2970   31.5790   41.8120 H   0  0  0  0  0  0  0  0  0  0  0  0
   42.1680   33.9720   37.7140 C   0  0  0  0  0  0  0  0  0  0  0  0
   42.8820   34.4620   38.8460 C   0  0  0  0  0  0  0  0  0  0  0  0
   42.3590   34.0820   40.1110 C   0  0  0  0  0  0  0  0  0  0  0  0
   41.2550   33.3050   40.1670 N   0  0  0  0  0  0  0  0  0  0  0  0
   40.6240   32.8740   39.0550 C   0  0  0  0  0  0  0  0  0  0  0  0
   41.0840   33.2090   37.8290 N   0  0  0  0  0  0  0  0  0  0  0  0
   43.7500   35.0740   38.7300 H   0  0  0  0  0  0  0  0  0  0  0  0
   42.8620   34.4260   40.9870 H   0  0  0  0  0  0  0  0  0  0  0  0
   42.6640   34.3310   36.5080 O   0  0  0  0  0  0  0  0  0  0  0  0
   42.4050   33.9600   35.6100 H   0  0  0  0  0  0  0  0  0  0  0  0
   40.9390   30.4930   40.2520 O   0  0  0  0  0  0  0  0  0  0  0  0
   41.2400   29.5980   39.9380 H   0  0  0  0  0  0  0  0  0  0  0  0
   38.9280   29.5750   41.8130 O   0  0  0  0  0  0  0  0  0  0  0  0
   38.8250   27.2690   40.4200 F   0  0  0  0  0  0  0  0  0  0  0  0
   38.1360   27.5180   41.5490 C   0  0  0  0  0  0  0  0  0  0  0  0
   38.1300   28.6570   42.3260 C   0  0  0  0  0  0  0  0  0  0  0  0
   37.3220   28.6130   43.4480 C   0  0  0  0  0  0  0  0  0  0  0  0
   36.5430   27.5580   43.8480 C   0  0  0  0  0  0  0  0  0  0  0  0
   36.5820   26.4590   43.0500 C   0  0  0  0  0  0  0  0  0  0  0  0
   37.3660   26.3910   41.8860 C   0  0  0  0  0  0  0  0  0  0  0  0
   37.3730   29.5590   44.0160 H   0  0  0  0  0  0  0  0  0  0  0  0
   35.9460   27.6170   44.7370 H   0  0  0  0  0  0  0  0  0  0  0  0
   35.9580   25.6130   43.3670 H   0  0  0  0  0  0  0  0  0  0  0  0
   37.2990   25.1410   41.1350 C   0  0  0  0  0  0  0  0  0  0  0  0
   37.8200   23.9010   41.4350 C   0  0  0  0  0  0  0  0  0  0  0  0
   38.3910   23.6170   42.3060 H   0  0  0  0  0  0  0  0  0  0  0  0
   37.5360   22.9820   40.4660 C   0  0  0  0  0  0  0  0  0  0  0  0
   37.7620   21.9330   40.3370 H   0  0  0  0  0  0  0  0  0  0  0  0
   36.8180   23.7480   39.5790 C   0  0  0  0  0  0  0  0  0  0  0  0
   36.3510   23.4840   38.6150 H   0  0  0  0  0  0  0  0  0  0  0  0
   36.7090   24.9760   40.0040 O   0  0  0  0  0  0  0  0  0  0  0  0
  1  7  1  6  0  0  0
  1 24  1  0  0  0  0
  1  6  1  0  0  0  0
  2  8  1  6  0  0  0
  2  3  1  0  0  0  0
  2  1  1  0  0  0  0
  3  4  1  0  0  0  0
  3 10  1  0  0  0  0
  4  5  1  0  0  0  0
  5  6  1  0  0  0  0
  5 11  1  0  0  0  0
  6 13  1  1  0  0  0
  6 26  1  0  0  0  0
  9  3  1  0  0  0  0
 12  5  1  0  0  0  0
 14 19  2  0  0  0  0
 14 15  1  0  0  0  0
 15 16  2  0  0  0  0
 16 17  1  0  0  0  0
 16 21  1  0  0  0  0
 18  2  1  0  0  0  0
 18 17  2  0  0  0  0
 19 18  1  0  0  0  0
 20 15  1  0  0  0  0
 22 14  1  0  0  0  0
 23 22  1  0  0  0  0
 25 24  1  0  0  0  0
 26 29  1  0  0  0  0
 27 28  1  0  0  0  0
 28 33  2  0  0  0  0
 28 29  1  0  0  0  0
 29 30  2  0  0  0  0
 30 31  1  0  0  0  0
 30 34  1  0  0  0  0
 31 35  1  0  0  0  0
 32 36  1  0  0  0  0
 32 31  2  0  0  0  0
 33 32  1  0  0  0  0
 37 38  2  0  0  0  0
 37 33  1  0  0  0  0
 38 39  1  0  0  0  0
 40 38  1  0  0  0  0
 41 40  1  0  0  0  0
 42 44  1  0  0  0  0
 42 40  2  0  0  0  0
 43 42  1  0  0  0  0
 44 37  1  0  0  0  0
M  END
>  <minimizedAffinity>
-6.77402782

$$$$

 OpenBabel03242518483D

 44 47  0  0  1  0  0  0  0  0999 V2000
   40.0460   31.9480   39.5560 C   0  0  2  0  0  0  0  0  0  0  0  0
   40.7090   33.0880   38.8730 C   0  0  1  0  0  0  0  0  0  0  0  0
   40.5830   34.3900   39.6650 C   0  0  0  0  0  0  0  0  0  0  0  0
   39.2090   34.5290   39.8820 O   0  0  0  0  0  0  0  0  0  0  0  0
   38.7460   33.6320   40.8170 C   0  0  0  0  0  0  0  0  0  0  0  0
   39.5770   32.3970   40.9510 C   0  0  1  0  0  0  0  0  0  0  0  0
   39.1350   31.6360   39.0180 H   0  0  0  0  0  0  0  0  0  0  0  0
   40.1800   33.2670   37.8910 H   0  0  0  0  0  0  0  0  0  0  0  0
   40.8700   35.2420   39.0060 H   0  0  0  0  0  0  0  0  0  0  0  0
   41.1610   34.3570   40.5940 H   0  0  0  0  0  0  0  0  0  0  0  0
   38.7720   34.1380   41.8240 H   0  0  0  0  0  0  0  0  0  0  0  0
   37.6940   33.3220   40.6740 H   0  0  0  0  0  0  0  0  0  0  0  0
   40.5280   32.5650   41.5040 H   0  0  0  0  0  0  0  0  0  0  0  0
   43.8670   32.1980   37.2390 C   0  0  0  0  0  0  0  0  0  0  0  0
   44.8670   32.6050   38.1700 C   0  0  0  0  0  0  0  0  0  0  0  0
   44.3840   33.1920   39.3690 C   0  0  0  0  0  0  0  0  0  0  0  0
   43.0520   33.3270   39.5540 N   0  0  0  0  0  0  0  0  0  0  0  0
   42.1560   32.9210   38.6300 C   0  0  0  0  0  0  0  0  0  0  0  0
   42.5670   32.3560   37.4730 N   0  0  0  0  0  0  0  0  0  0  0  0
   45.9060   32.4680   37.9610 H   0  0  0  0  0  0  0  0  0  0  0  0
   45.0970   33.5110   40.0960 H   0  0  0  0  0  0  0  0  0  0  0  0
   44.3240   31.6380   36.0960 O   0  0  0  0  0  0  0  0  0  0  0  0
   43.7850   31.1480   35.4020 H   0  0  0  0  0  0  0  0  0  0  0  0
   40.8750   30.8300   39.7210 O   0  0  0  0  0  0  0  0  0  0  0  0
   40.4670   30.0020   39.3510 H   0  0  0  0  0  0  0  0  0  0  0  0
   38.9040   31.3340   41.5070 O   0  0  0  0  0  0  0  0  0  0  0  0
   39.2330   28.6750   41.8190 F   0  0  0  0  0  0  0  0  0  0  0  0
   38.1000   29.2670   41.3950 C   0  0  0  0  0  0  0  0  0  0  0  0
   37.8410   30.6090   41.2120 C   0  0  0  0  0  0  0  0  0  0  0  0
   36.5660   30.9190   40.7750 C   0  0  0  0  0  0  0  0  0  0  0  0
   35.5580   30.0280   40.5130 C   0  0  0  0  0  0  0  0  0  0  0  0
   35.8610   28.7180   40.7070 C   0  0  0  0  0  0  0  0  0  0  0  0
   37.1230   28.2870   41.1490 C   0  0  0  0  0  0  0  0  0  0  0  0
   36.4380   32.0090   40.6540 H   0  0  0  0  0  0  0  0  0  0  0  0
   34.5960   30.3640   40.1750 H   0  0  0  0  0  0  0  0  0  0  0  0
   35.0550   28.0020   40.4980 H   0  0  0  0  0  0  0  0  0  0  0  0
   37.2930   26.8460   41.3090 C   0  0  0  0  0  0  0  0  0  0  0  0
   36.9570   26.0280   42.3660 C   0  0  0  0  0  0  0  0  0  0  0  0
   36.4930   26.3110   43.2990 H   0  0  0  0  0  0  0  0  0  0  0  0
   37.2840   24.7250   42.1240 C   0  0  0  0  0  0  0  0  0  0  0  0
   37.1840   23.8090   42.6900 H   0  0  0  0  0  0  0  0  0  0  0  0
   37.8290   24.8190   40.8670 C   0  0  0  0  0  0  0  0  0  0  0  0
   38.2550   24.0430   40.2070 H   0  0  0  0  0  0  0  0  0  0  0  0
   37.8130   26.0510   40.4410 O   0  0  0  0  0  0  0  0  0  0  0  0
  1  7  1  6  0  0  0
  1 24  1  0  0  0  0
  1  6  1  0  0  0  0
  2  8  1  6  0  0  0
  2  1  1  0  0  0  0
  2  3  1  0  0  0  0
  3  4  1  0  0  0  0
  3 10  1  0  0  0  0
  4  5  1  0  0  0  0
  5  6  1  0  0  0  0
  5 11  1  0  0  0  0
  6 13  1  1  0  0  0
  6 26  1  0  0  0  0
  9  3  1  0  0  0  0
 12  5  1  0  0  0  0
 14 19  2  0  0  0  0
 14 15  1  0  0  0  0
 15 16  2  0  0  0  0
 16 17  1  0  0  0  0
 16 21  1  0  0  0  0
 18  2  1  0  0  0  0
 18 17  2  0  0  0  0
 19 18  1  0  0  0  0
 20 15  1  0  0  0  0
 22 14  1  0  0  0  0
 23 22  1  0  0  0  0
 25 24  1  0  0  0  0
 28 27  1  0  0  0  0
 29 28  1  0  0  0  0
 29 26  1  0  0  0  0
 30 29  2  0  0  0  0
 31 32  2  0  0  0  0
 31 30  1  0  0  0  0
 32 33  1  0  0  0  0
 33 37  1  0  0  0  0
 33 28  2  0  0  0  0
 34 30  1  0  0  0  0
 35 31  1  0  0  0  0
 36 32  1  0  0  0  0
 37 38  2  0  0  0  0
 38 39  1  0  0  0  0
 40 38  1  0  0  0  0
 40 41  1  0  0  0  0
 42 40  2  0  0  0  0
 43 42  1  0  0  0  0
 44 42  1  0  0  0  0
 44 37  1  0  0  0  0
M  END
>  <minimizedAffinity>
-6.18815851

$$$$

 OpenBabel03242518483D

 44 47  0  0  1  0  0  0  0  0999 V2000
   38.0490   28.9900   42.3160 C   0  0  2  0  0  0  0  0  0  0  0  0
   37.1300   27.8670   41.9980 C   0  0  1  0  0  0  0  0  0  0  0  0
   36.2370   28.1740   40.7950 C   0  0  0  0  0  0  0  0  0  0  0  0
   35.6230   29.3860   41.1230 O   0  0  0  0  0  0  0  0  0  0  0  0
   36.5020   30.4420   41.0440 C   0  0  0  0  0  0  0  0  0  0  0  0
   37.9380   30.0630   41.2180 C   0  0  1  0  0  0  0  0  0  0  0  0
   37.7580   29.4900   43.2560 H   0  0  0  0  0  0  0  0  0  0  0  0
   36.4340   27.7230   42.8760 H   0  0  0  0  0  0  0  0  0  0  0  0
   35.4150   27.4220   40.7570 H   0  0  0  0  0  0  0  0  0  0  0  0
   36.8120   28.2230   39.8650 H   0  0  0  0  0  0  0  0  0  0  0  0
   36.4180   30.8860   40.0120 H   0  0  0  0  0  0  0  0  0  0  0  0
   36.2820   31.2740   41.7390 H   0  0  0  0  0  0  0  0  0  0  0  0
   38.3710   29.5650   40.3230 H   0  0  0  0  0  0  0  0  0  0  0  0
   38.9560   24.7140   42.3960 C   0  0  0  0  0  0  0  0  0  0  0  0
   39.0280   24.1850   41.0750 C   0  0  0  0  0  0  0  0  0  0  0  0
   38.4170   24.9750   40.0650 C   0  0  0  0  0  0  0  0  0  0  0  0
   37.8240   26.1420   40.4020 N   0  0  0  0  0  0  0  0  0  0  0  0
   37.7890   26.5870   41.6750 C   0  0  0  0  0  0  0  0  0  0  0  0
   38.3570   25.8700   42.6710 N   0  0  0  0  0  0  0  0  0  0  0  0
   39.5130   23.2540   40.8770 H   0  0  0  0  0  0  0  0  0  0  0  0
   38.4470   24.6180   39.0600 H   0  0  0  0  0  0  0  0  0  0  0  0
   39.5370   23.9640   43.3610 O   0  0  0  0  0  0  0  0  0  0  0  0
   39.7310   24.2390   44.3080 H   0  0  0  0  0  0  0  0  0  0  0  0
   39.3950   28.6090   42.4080 O   0  0  0  0  0  0  0  0  0  0  0  0
   39.8050   28.8860   43.2710 H   0  0  0  0  0  0  0  0  0  0  0  0
   38.7450   31.1090   41.5990 O   0  0  0  0  0  0  0  0  0  0  0  0
   41.4080   31.3740   41.2640 F   0  0  0  0  0  0  0  0  0  0  0  0
   40.4950   32.3150   40.9570 C   0  0  0  0  0  0  0  0  0  0  0  0
   39.1230   32.2660   41.0880 C   0  0  0  0  0  0  0  0  0  0  0  0
   38.4400   33.3950   40.6720 C   0  0  0  0  0  0  0  0  0  0  0  0
   38.9960   34.5350   40.1510 C   0  0  0  0  0  0  0  0  0  0  0  0
   40.3510   34.5360   40.0420 C   0  0  0  0  0  0  0  0  0  0  0  0
   41.1460   33.4460   40.4330 C   0  0  0  0  0  0  0  0  0  0  0  0
   37.3510   33.2770   40.8080 H   0  0  0  0  0  0  0  0  0  0  0  0
   38.3820   35.3640   39.8550 H   0  0  0  0  0  0  0  0  0  0  0  0
   40.7980   35.4480   39.6260 H   0  0  0  0  0  0  0  0  0  0  0  0
   42.5860   33.6020   40.2540 C   0  0  0  0  0  0  0  0  0  0  0  0
   43.5210   34.1900   41.0770 C   0  0  0  0  0  0  0  0  0  0  0  0
   43.3560   34.6590   42.0350 H   0  0  0  0  0  0  0  0  0  0  0  0
   44.7770   34.1310   40.5450 C   0  0  0  0  0  0  0  0  0  0  0  0
   45.7490   34.4700   40.8750 H   0  0  0  0  0  0  0  0  0  0  0  0
   44.5310   33.4740   39.3630 C   0  0  0  0  0  0  0  0  0  0  0  0
   45.2160   33.1720   38.5520 H   0  0  0  0  0  0  0  0  0  0  0  0
   43.2650   33.1920   39.2400 O   0  0  0  0  0  0  0  0  0  0  0  0
  1 24  1  0  0  0  0
  1  7  1  1  0  0  0
  2  1  1  0  0  0  0
  2  8  1  1  0  0  0
  3  4  1  0  0  0  0
  3  2  1  0  0  0  0
  5  4  1  0  0  0  0
  5  6  1  0  0  0  0
  5 12  1  0  0  0  0
  6 13  1  6  0  0  0
  6 26  1  0  0  0  0
  6  1  1  0  0  0  0
  9  3  1  0  0  0  0
 10  3  1  0  0  0  0
 11  5  1  0  0  0  0
 14 19  1  0  0  0  0
 14 22  1  0  0  0  0
 15 14  2  0  0  0  0
 16 17  2  0  0  0  0
 16 15  1  0  0  0  0
 17 18  1  0  0  0  0
 18  2  1  0  0  0  0
 18 19  2  0  0  0  0
 20 15  1  0  0  0  0
 21 16  1  0  0  0  0
 22 23  1  0  0  0  0
 24 25  1  0  0  0  0
 28 29  1  0  0  0  0
 28 27  1  0  0  0  0
 29 26  1  0  0  0  0
 30 34  1  0  0  0  0
 30 29  2  0  0  0  0
 31 30  1  0  0  0  0
 32 31  2  0  0  0  0
 32 33  1  0  0  0  0
 33 28  2  0  0  0  0
 35 31  1  0  0  0  0
 36 32  1  0  0  0  0
 37 33  1  0  0  0  0
 37 38  2  0  0  0  0
 38 39  1  0  0  0  0
 40 41  1  0  0  0  0
 40 38  1  0  0  0  0
 42 40  2  0  0  0  0
 43 42  1  0  0  0  0
 44 42  1  0  0  0  0
 44 37  1  0  0  0  0
M  END
>  <minimizedAffinity>
-6.10046005

$$$$

 OpenBabel03242518483D

 44 47  0  0  1  0  0  0  0  0999 V2000
   34.0930   28.5820   36.4580 C   0  0  2  0  0  0  0  0  0  0  0  0
   32.8170   28.8260   35.7360 C   0  0  1  0  0  0  0  0  0  0  0  0
   32.0500   27.5310   35.4650 C   0  0  0  0  0  0  0  0  0  0  0  0
   32.9740   26.7160   34.8050 O   0  0  0  0  0  0  0  0  0  0  0  0
   33.9430   26.2450   35.6610 C   0  0  0  0  0  0  0  0  0  0  0  0
   34.1680   27.1000   36.8670 C   0  0  1  0  0  0  0  0  0  0  0  0
   34.9620   28.7580   35.8020 H   0  0  0  0  0  0  0  0  0  0  0  0
   33.0640   29.2620   34.7240 H   0  0  0  0  0  0  0  0  0  0  0  0
   31.2470   27.7390   34.7200 H   0  0  0  0  0  0  0  0  0  0  0  0
   31.6680   27.0840   36.3890 H   0  0  0  0  0  0  0  0  0  0  0  0
   33.6060   25.2420   36.0480 H   0  0  0  0  0  0  0  0  0  0  0  0
   34.9240   26.0600   35.1850 H   0  0  0  0  0  0  0  0  0  0  0  0
   33.3670   26.9990   37.6320 H   0  0  0  0  0  0  0  0  0  0  0  0
   30.5740   30.1530   38.3130 C   0  0  0  0  0  0  0  0  0  0  0  0
   30.0600   31.3530   37.7410 C   0  0  0  0  0  0  0  0  0  0  0  0
   30.5300   31.6600   36.4370 C   0  0  0  0  0  0  0  0  0  0  0  0
   31.4080   30.8290   35.8340 N   0  0  0  0  0  0  0  0  0  0  0  0
   31.8580   29.7060   36.4330 C   0  0  0  0  0  0  0  0  0  0  0  0
   31.4390   29.3710   37.6720 N   0  0  0  0  0  0  0  0  0  0  0  0
   29.3660   31.9670   38.2750 H   0  0  0  0  0  0  0  0  0  0  0  0
   30.1710   32.5500   35.9700 H   0  0  0  0  0  0  0  0  0  0  0  0
   30.1280   29.8570   39.5550 O   0  0  0  0  0  0  0  0  0  0  0  0
   30.2430   28.9900   40.0510 H   0  0  0  0  0  0  0  0  0  0  0  0
   34.2410   29.3540   37.6180 O   0  0  0  0  0  0  0  0  0  0  0  0
   35.0920   29.8690   37.6200 H   0  0  0  0  0  0  0  0  0  0  0  0
   35.3950   26.9120   37.4580 O   0  0  0  0  0  0  0  0  0  0  0  0
   36.2220   28.3270   39.5990 F   0  0  0  0  0  0  0  0  0  0  0  0
   36.2860   26.9870   39.4900 C   0  0  0  0  0  0  0  0  0  0  0  0
   35.8850   26.1830   38.4440 C   0  0  0  0  0  0  0  0  0  0  0  0
   36.0660   24.8240   38.6290 C   0  0  0  0  0  0  0  0  0  0  0  0
   36.5980   24.2180   39.7380 C   0  0  0  0  0  0  0  0  0  0  0  0
   36.9780   25.0520   40.7410 C   0  0  0  0  0  0  0  0  0  0  0  0
   36.8420   26.4470   40.6640 C   0  0  0  0  0  0  0  0  0  0  0  0
   35.7210   24.2510   37.7500 H   0  0  0  0  0  0  0  0  0  0  0  0
   36.6990   23.1510   39.7900 H   0  0  0  0  0  0  0  0  0  0  0  0
   37.4040   24.5680   41.6300 H   0  0  0  0  0  0  0  0  0  0  0  0
   37.2980   27.2050   41.8250 C   0  0  0  0  0  0  0  0  0  0  0  0
   36.6790   27.4230   43.0370 C   0  0  0  0  0  0  0  0  0  0  0  0
   35.7140   27.0630   43.3610 H   0  0  0  0  0  0  0  0  0  0  0  0
   37.4420   28.1940   43.8670 C   0  0  0  0  0  0  0  0  0  0  0  0
   37.3110   28.5730   44.8700 H   0  0  0  0  0  0  0  0  0  0  0  0
   38.5450   28.4170   43.0780 C   0  0  0  0  0  0  0  0  0  0  0  0
   39.4670   28.9890   43.2760 H   0  0  0  0  0  0  0  0  0  0  0  0
   38.4170   27.8330   41.9200 O   0  0  0  0  0  0  0  0  0  0  0  0
  1  7  1  6  0  0  0
  1  6  1  0  0  0  0
  1 24  1  0  0  0  0
  2  8  1  6  0  0  0
  2 18  1  0  0  0  0
  2  1  1  0  0  0  0
  3  2  1  0  0  0  0
  3 10  1  0  0  0  0
  4  3  1  0  0  0  0
  4  5  1  0  0  0  0
  5 11  1  0  0  0  0
  5  6  1  0  0  0  0
  6 26  1  0  0  0  0
  6 13  1  1  0  0  0
  9  3  1  0  0  0  0
 12  5  1  0  0  0  0
 14 22  1  0  0  0  0
 15 20  1  0  0  0  0
 15 14  1  0  0  0  0
 16 15  2  0  0  0  0
 17 18  2  0  0  0  0
 17 16  1  0  0  0  0
 18 19  1  0  0  0  0
 19 14  2  0  0  0  0
 21 16  1  0  0  0  0
 22 23  1  0  0  0  0
 24 25  1  0  0  0  0
 26 29  1  0  0  0  0
 28 27  1  0  0  0  0
 28 33  1  0  0  0  0
 29 30  1  0  0  0  0
 29 28  2  0  0  0  0
 30 31  2  0  0  0  0
 31 35  1  0  0  0  0
 31 32  1  0  0  0  0
 32 36  1  0  0  0  0
 33 32  2  0  0  0  0
 33 37  1  0  0  0  0
 34 30  1  0  0  0  0
 37 44  1  0  0  0  0
 37 38  2  0  0  0  0
 38 39  1  0  0  0  0
 38 40  1  0  0  0  0
 40 41  1  0  0  0  0
 42 43  1  0  0  0  0
 42 40  2  0  0  0  0
 44 42  1  0  0  0  0
M  END
>  <minimizedAffinity>
-5.9519105

$$$$

 OpenBabel03242518483D

 44 47  0  0  1  0  0  0  0  0999 V2000
   38.7200   27.4380   41.7590 C   0  0  2  0  0  0  0  0  0  0  0  0
   37.9020   26.3340   42.3250 C   0  0  1  0  0  0  0  0  0  0  0  0
   36.6010   26.8410   42.9490 C   0  0  0  0  0  0  0  0  0  0  0  0
   37.0130   27.8180   43.8590 O   0  0  0  0  0  0  0  0  0  0  0  0
   37.4360   28.9630   43.2230 C   0  0  0  0  0  0  0  0  0  0  0  0
   37.9160   28.7490   41.8230 C   0  0  1  0  0  0  0  0  0  0  0  0
   39.6270   27.6100   42.3620 H   0  0  0  0  0  0  0  0  0  0  0  0
   38.4870   25.8570   43.1650 H   0  0  0  0  0  0  0  0  0  0  0  0
   36.1570   26.0250   43.5650 H   0  0  0  0  0  0  0  0  0  0  0  0
   35.9100   27.2250   42.1910 H   0  0  0  0  0  0  0  0  0  0  0  0
   36.5550   29.6620   43.1480 H   0  0  0  0  0  0  0  0  0  0  0  0
   38.2130   29.5290   43.7680 H   0  0  0  0  0  0  0  0  0  0  0  0
   37.0910   28.5850   41.0960 H   0  0  0  0  0  0  0  0  0  0  0  0
   37.5830   23.0870   40.6550 C   0  0  0  0  0  0  0  0  0  0  0  0
   36.7230   23.3480   39.5490 C   0  0  0  0  0  0  0  0  0  0  0  0
   36.2740   24.6890   39.4260 C   0  0  0  0  0  0  0  0  0  0  0  0
   36.6740   25.6100   40.3310 N   0  0  0  0  0  0  0  0  0  0  0  0
   37.4900   25.2970   41.3590 C   0  0  0  0  0  0  0  0  0  0  0  0
   37.9440   24.0340   41.5180 N   0  0  0  0  0  0  0  0  0  0  0  0
   36.4450   22.5710   38.8690 H   0  0  0  0  0  0  0  0  0  0  0  0
   35.6280   24.9310   38.6120 H   0  0  0  0  0  0  0  0  0  0  0  0
   38.0130   21.8100   40.7760 O   0  0  0  0  0  0  0  0  0  0  0  0
   38.7400   21.4690   41.3800 H   0  0  0  0  0  0  0  0  0  0  0  0
   39.0980   27.2320   40.4250 O   0  0  0  0  0  0  0  0  0  0  0  0
   40.0820   27.3100   40.2980 H   0  0  0  0  0  0  0  0  0  0  0  0
   38.7430   29.7460   41.3630 O   0  0  0  0  0  0  0  0  0  0  0  0
   41.0010   30.7570   40.2890 F   0  0  0  0  0  0  0  0  0  0  0  0
   39.7990   31.3640   40.2690 C   0  0  0  0  0  0  0  0  0  0  0  0
   38.5980   30.9240   40.7830 C   0  0  0  0  0  0  0  0  0  0  0  0
   37.5200   31.7690   40.5950 C   0  0  0  0  0  0  0  0  0  0  0  0
   37.5390   32.9810   39.9560 C   0  0  0  0  0  0  0  0  0  0  0  0
   38.7450   33.3720   39.4660 C   0  0  0  0  0  0  0  0  0  0  0  0
   39.9070   32.5950   39.5990 C   0  0  0  0  0  0  0  0  0  0  0  0
   36.5980   31.3460   41.0340 H   0  0  0  0  0  0  0  0  0  0  0  0
   36.6470   33.5700   39.8590 H   0  0  0  0  0  0  0  0  0  0  0  0
   38.7630   34.3430   38.9540 H   0  0  0  0  0  0  0  0  0  0  0  0
   41.1260   33.1540   39.0200 C   0  0  0  0  0  0  0  0  0  0  0  0
   41.4920   33.2960   37.6990 C   0  0  0  0  0  0  0  0  0  0  0  0
   40.9300   33.0110   36.8230 H   0  0  0  0  0  0  0  0  0  0  0  0
   42.7240   33.8710   37.5720 C   0  0  0  0  0  0  0  0  0  0  0  0
   43.3420   34.1410   36.7280 H   0  0  0  0  0  0  0  0  0  0  0  0
   43.0630   34.0610   38.8900 C   0  0  0  0  0  0  0  0  0  0  0  0
   43.9690   34.4960   39.3440 H   0  0  0  0  0  0  0  0  0  0  0  0
   42.1190   33.6350   39.6810 O   0  0  0  0  0  0  0  0  0  0  0  0
  1  6  1  0  0  0  0
  1  2  1  0  0  0  0
  1  7  1  1  0  0  0
  2  3  1  0  0  0  0
  2  8  1  1  0  0  0
  3  9  1  0  0  0  0
  3  4  1  0  0  0  0
  5 12  1  0  0  0  0
  5  4  1  0  0  0  0
  6 13  1  6  0  0  0
  6  5  1  0  0  0  0
 10  3  1  0  0  0  0
 11  5  1  0  0  0  0
 14 22  1  0  0  0  0
 14 19  1  0  0  0  0
 15 14  2  0  0  0  0
 16 15  1  0  0  0  0
 16 17  2  0  0  0  0
 17 18  1  0  0  0  0
 18 19  2  0  0  0  0
 18  2  1  0  0  0  0
 20 15  1  0  0  0  0
 21 16  1  0  0  0  0
 22 23  1  0  0  0  0
 24  1  1  0  0  0  0
 25 24  1  0  0  0  0
 26  6  1  0  0  0  0
 28 27  1  0  0  0  0
 28 29  1  0  0  0  0
 29 26  1  0  0  0  0
 30 29  2  0  0  0  0
 30 34  1  0  0  0  0
 31 30  1  0  0  0  0
 32 33  1  0  0  0  0
 32 31  2  0  0  0  0
 33 28  2  0  0  0  0
 35 31  1  0  0  0  0
 36 32  1  0  0  0  0
 37 33  1  0  0  0  0
 37 44  1  0  0  0  0
 38 37  2  0  0  0  0
 39 38  1  0  0  0  0
 40 38  1  0  0  0  0
 40 42  2  0  0  0  0
 41 40  1  0  0  0  0
 42 43  1  0  0  0  0
 42 44  1  0  0  0  0
M  END
>  <minimizedAffinity>
-5.93337917

$$$$

 OpenBabel03242518483D

 44 47  0  0  1  0  0  0  0  0999 V2000
   37.3570   28.5690   40.4370 C   0  0  2  0  0  0  0  0  0  0  0  0
   37.1720   29.6720   41.4140 C   0  0  1  0  0  0  0  0  0  0  0  0
   37.7660   29.3390   42.7830 C   0  0  0  0  0  0  0  0  0  0  0  0
   37.1750   28.1200   43.1260 O   0  0  0  0  0  0  0  0  0  0  0  0
   37.6840   27.0780   42.3840 C   0  0  0  0  0  0  0  0  0  0  0  0
   38.2530   27.4840   41.0620 C   0  0  1  0  0  0  0  0  0  0  0  0
   36.3980   28.0730   40.2090 H   0  0  0  0  0  0  0  0  0  0  0  0
   36.0630   29.8130   41.5800 H   0  0  0  0  0  0  0  0  0  0  0  0
   37.3870   30.0760   43.5280 H   0  0  0  0  0  0  0  0  0  0  0  0
   38.8590   29.2910   42.7500 H   0  0  0  0  0  0  0  0  0  0  0  0
   38.5360   26.6230   42.9640 H   0  0  0  0  0  0  0  0  0  0  0  0
   36.9730   26.2500   42.2100 H   0  0  0  0  0  0  0  0  0  0  0  0
   39.2450   27.9810   41.1450 H   0  0  0  0  0  0  0  0  0  0  0  0
   37.5810   33.0180   39.9740 C   0  0  0  0  0  0  0  0  0  0  0  0
   38.9190   33.3790   40.3080 C   0  0  0  0  0  0  0  0  0  0  0  0
   39.6480   32.4090   41.0460 C   0  0  0  0  0  0  0  0  0  0  0  0
   39.0540   31.2410   41.3770 N   0  0  0  0  0  0  0  0  0  0  0  0
   37.7810   30.9610   41.0300 C   0  0  0  0  0  0  0  0  0  0  0  0
   37.0460   31.8520   40.3280 N   0  0  0  0  0  0  0  0  0  0  0  0
   39.3270   34.3220   40.0140 H   0  0  0  0  0  0  0  0  0  0  0  0
   40.6540   32.6370   41.3180 H   0  0  0  0  0  0  0  0  0  0  0  0
   36.8830   33.9390   39.2710 O   0  0  0  0  0  0  0  0  0  0  0  0
   35.9990   33.8090   38.8090 H   0  0  0  0  0  0  0  0  0  0  0  0
   37.9520   28.9740   39.2340 O   0  0  0  0  0  0  0  0  0  0  0  0
   37.4100   28.7130   38.4420 H   0  0  0  0  0  0  0  0  0  0  0  0
   38.3280   26.4560   40.1520 O   0  0  0  0  0  0  0  0  0  0  0  0
   35.8800   25.8550   39.1940 F   0  0  0  0  0  0  0  0  0  0  0  0
   36.7780   24.9530   39.6360 C   0  0  0  0  0  0  0  0  0  0  0  0
   38.0460   25.1670   40.1330 C   0  0  0  0  0  0  0  0  0  0  0  0
   38.7450   24.0310   40.4990 C   0  0  0  0  0  0  0  0  0  0  0  0
   38.2980   22.7370   40.4110 C   0  0  0  0  0  0  0  0  0  0  0  0
   37.0430   22.5780   39.9150 C   0  0  0  0  0  0  0  0  0  0  0  0
   36.2420   23.6590   39.5120 C   0  0  0  0  0  0  0  0  0  0  0  0
   39.7480   24.2850   40.8860 H   0  0  0  0  0  0  0  0  0  0  0  0
   38.9150   21.9160   40.7210 H   0  0  0  0  0  0  0  0  0  0  0  0
   36.6830   21.5440   39.8440 H   0  0  0  0  0  0  0  0  0  0  0  0
   34.9160   23.3240   39.0010 C   0  0  0  0  0  0  0  0  0  0  0  0
   33.8330   22.7690   39.6480 C   0  0  0  0  0  0  0  0  0  0  0  0
   33.7630   22.4700   40.6830 H   0  0  0  0  0  0  0  0  0  0  0  0
   32.7660   22.6110   38.8110 C   0  0  0  0  0  0  0  0  0  0  0  0
   31.7650   22.2230   38.9360 H   0  0  0  0  0  0  0  0  0  0  0  0
   33.2790   23.1050   37.6350 C   0  0  0  0  0  0  0  0  0  0  0  0
   32.8210   23.2060   36.6370 H   0  0  0  0  0  0  0  0  0  0  0  0
   34.5110   23.5000   37.7920 O   0  0  0  0  0  0  0  0  0  0  0  0
  1  7  1  6  0  0  0
  1  6  1  0  0  0  0
  1  2  1  0  0  0  0
  2  8  1  1  0  0  0
  2  3  1  0  0  0  0
  3  4  1  0  0  0  0
  3  9  1  0  0  0  0
  5 11  1  0  0  0  0
  5  4  1  0  0  0  0
  6 13  1  1  0  0  0
  6  5  1  0  0  0  0
 10  3  1  0  0  0  0
 12  5  1  0  0  0  0
 14 15  2  0  0  0  0
 14 19  1  0  0  0  0
 15 16  1  0  0  0  0
 16 21  1  0  0  0  0
 16 17  2  0  0  0  0
 18 17  1  0  0  0  0
 18  2  1  0  0  0  0
 19 18  2  0  0  0  0
 20 15  1  0  0  0  0
 22 14  1  0  0  0  0
 23 22  1  0  0  0  0
 24  1  1  0  0  0  0
 25 24  1  0  0  0  0
 26  6  1  0  0  0  0
 27 28  1  0  0  0  0
 28 29  1  0  0  0  0
 29 26  1  0  0  0  0
 29 30  2  0  0  0  0
 30 34  1  0  0  0  0
 31 30  1  0  0  0  0
 31 35  1  0  0  0  0
 32 31  2  0  0  0  0
 33 28  2  0  0  0  0
 33 32  1  0  0  0  0
 36 32  1  0  0  0  0
 37 33  1  0  0  0  0
 37 38  2  0  0  0  0
 38 39  1  0  0  0  0
 40 41  1  0  0  0  0
 40 38  1  0  0  0  0
 42 44  1  0  0  0  0
 42 40  2  0  0  0  0
 43 42  1  0  0  0  0
 44 37  1  0  0  0  0
M  END
>  <minimizedAffinity>
-5.89447308

$$$$

 OpenBabel03242518483D

 44 47  0  0  1  0  0  0  0  0999 V2000
   39.4530   31.5270   39.6710 C   0  0  2  0  0  0  0  0  0  0  0  0
   39.8990   32.9020   39.3290 C   0  0  1  0  0  0  0  0  0  0  0  0
   39.0400   33.9730   40.0040 C   0  0  0  0  0  0  0  0  0  0  0  0
   37.7320   33.6490   39.6320 O   0  0  0  0  0  0  0  0  0  0  0  0
   37.2770   32.5280   40.2870 C   0  0  0  0  0  0  0  0  0  0  0  0
   38.3570   31.6020   40.7480 C   0  0  1  0  0  0  0  0  0  0  0  0
   38.9880   31.0310   38.8020 H   0  0  0  0  0  0  0  0  0  0  0  0
   39.7660   33.0490   38.2170 H   0  0  0  0  0  0  0  0  0  0  0  0
   39.2530   34.9570   39.5270 H   0  0  0  0  0  0  0  0  0  0  0  0
   39.1860   33.9850   41.0890 H   0  0  0  0  0  0  0  0  0  0  0  0
   36.7360   32.8660   41.2160 H   0  0  0  0  0  0  0  0  0  0  0  0
   36.5370   31.9340   39.7190 H   0  0  0  0  0  0  0  0  0  0  0  0
   38.8990   31.9730   41.6460 H   0  0  0  0  0  0  0  0  0  0  0  0
   42.7950   33.9420   41.3210 C   0  0  0  0  0  0  0  0  0  0  0  0
   43.8940   33.8330   40.4200 C   0  0  0  0  0  0  0  0  0  0  0  0
   43.5700   33.3870   39.1110 C   0  0  0  0  0  0  0  0  0  0  0  0
   42.2850   33.1010   38.8050 N   0  0  0  0  0  0  0  0  0  0  0  0
   41.2890   33.2250   39.7070 C   0  0  0  0  0  0  0  0  0  0  0  0
   41.5470   33.6460   40.9650 N   0  0  0  0  0  0  0  0  0  0  0  0
   44.8880   34.0750   40.7280 H   0  0  0  0  0  0  0  0  0  0  0  0
   44.3620   33.2900   38.4030 H   0  0  0  0  0  0  0  0  0  0  0  0
   43.0990   34.3680   42.5690 O   0  0  0  0  0  0  0  0  0  0  0  0
   42.4560   34.6600   43.2840 H   0  0  0  0  0  0  0  0  0  0  0  0
   40.4790   30.7060   40.1600 O   0  0  0  0  0  0  0  0  0  0  0  0
   40.5540   29.8560   39.6500 H   0  0  0  0  0  0  0  0  0  0  0  0
   37.9260   30.3150   40.9700 O   0  0  0  0  0  0  0  0  0  0  0  0
   38.6480   27.7810   41.5430 F   0  0  0  0  0  0  0  0  0  0  0  0
   37.7090   28.1300   40.6430 C   0  0  0  0  0  0  0  0  0  0  0  0
   37.2740   29.3900   40.2910 C   0  0  0  0  0  0  0  0  0  0  0  0
   36.2750   29.4330   39.3350 C   0  0  0  0  0  0  0  0  0  0  0  0
   35.6930   28.3560   38.7190 C   0  0  0  0  0  0  0  0  0  0  0  0
   36.1560   27.1360   39.0990 C   0  0  0  0  0  0  0  0  0  0  0  0
   37.1660   26.9720   40.0600 C   0  0  0  0  0  0  0  0  0  0  0  0
   35.9820   30.4740   39.1090 H   0  0  0  0  0  0  0  0  0  0  0  0
   34.9210   28.4890   37.9850 H   0  0  0  0  0  0  0  0  0  0  0  0
   35.6900   26.2720   38.6060 H   0  0  0  0  0  0  0  0  0  0  0  0
   37.5550   25.5970   40.3590 C   0  0  0  0  0  0  0  0  0  0  0  0
   36.9290   24.6520   41.1440 C   0  0  0  0  0  0  0  0  0  0  0  0
   36.0090   24.7580   41.6990 H   0  0  0  0  0  0  0  0  0  0  0  0
   37.6180   23.4740   41.1690 C   0  0  0  0  0  0  0  0  0  0  0  0
   37.4590   22.5220   41.6540 H   0  0  0  0  0  0  0  0  0  0  0  0
   38.6840   23.7750   40.3550 C   0  0  0  0  0  0  0  0  0  0  0  0
   39.5460   23.1620   40.0420 H   0  0  0  0  0  0  0  0  0  0  0  0
   38.6050   25.0000   39.9160 O   0  0  0  0  0  0  0  0  0  0  0  0
  1  7  1  6  0  0  0
  1 24  1  0  0  0  0
  1  6  1  0  0  0  0
  2  8  1  6  0  0  0
  2  1  1  0  0  0  0
  2 18  1  0  0  0  0
  2  3  1  0  0  0  0
  3 10  1  0  0  0  0
  4  3  1  0  0  0  0
  4  5  1  0  0  0  0
  5  6  1  0  0  0  0
  5 11  1  0  0  0  0
  6 26  1  0  0  0  0
  6 13  1  1  0  0  0
  9  3  1  0  0  0  0
 12  5  1  0  0  0  0
 14 22  1  0  0  0  0
 15 20  1  0  0  0  0
 15 14  2  0  0  0  0
 16 15  1  0  0  0  0
 17 16  2  0  0  0  0
 17 18  1  0  0  0  0
 18 19  2  0  0  0  0
 19 14  1  0  0  0  0
 21 16  1  0  0  0  0
 22 23  1  0  0  0  0
 25 24  1  0  0  0  0
 28 27  1  0  0  0  0
 29 28  1  0  0  0  0
 29 26  1  0  0  0  0
 30 29  2  0  0  0  0
 31 32  2  0  0  0  0
 31 30  1  0  0  0  0
 32 33  1  0  0  0  0
 33 37  1  0  0  0  0
 33 28  2  0  0  0  0
 34 30  1  0  0  0  0
 35 31  1  0  0  0  0
 36 32  1  0  0  0  0
 37 38  2  0  0  0  0
 38 40  1  0  0  0  0
 38 39  1  0  0  0  0
 40 41  1  0  0  0  0
 42 40  2  0  0  0  0
 43 42  1  0  0  0  0
 44 42  1  0  0  0  0
 44 37  1  0  0  0  0
M  END
>  <minimizedAffinity>
-5.7737093

$$$$

 OpenBabel03242518483D

 44 47  0  0  1  0  0  0  0  0999 V2000
   36.9770   27.1150   38.9000 C   0  0  2  0  0  0  0  0  0  0  0  0
   38.2410   27.6700   39.4480 C   0  0  1  0  0  0  0  0  0  0  0  0
   38.3990   29.1600   39.1420 C   0  0  0  0  0  0  0  0  0  0  0  0
   38.2500   29.2440   37.7550 O   0  0  0  0  0  0  0  0  0  0  0  0
   36.9430   29.0570   37.3690 C   0  0  0  0  0  0  0  0  0  0  0  0
   36.1230   28.2640   38.3350 C   0  0  1  0  0  0  0  0  0  0  0  0
   37.1730   26.4390   38.0510 H   0  0  0  0  0  0  0  0  0  0  0  0
   39.1040   27.1520   38.9340 H   0  0  0  0  0  0  0  0  0  0  0  0
   39.4530   29.4600   39.3500 H   0  0  0  0  0  0  0  0  0  0  0  0
   37.6690   29.7660   39.6890 H   0  0  0  0  0  0  0  0  0  0  0  0
   36.4530   30.0700   37.3020 H   0  0  0  0  0  0  0  0  0  0  0  0
   36.8210   28.6070   36.3670 H   0  0  0  0  0  0  0  0  0  0  0  0
   35.8300   28.8410   39.2400 H   0  0  0  0  0  0  0  0  0  0  0  0
   37.9340   28.3800   43.0310 C   0  0  0  0  0  0  0  0  0  0  0  0
   38.6890   27.3450   43.6560 C   0  0  0  0  0  0  0  0  0  0  0  0
   39.2950   26.4120   42.7740 C   0  0  0  0  0  0  0  0  0  0  0  0
   39.1280   26.5510   41.4400 N   0  0  0  0  0  0  0  0  0  0  0  0
   38.3980   27.5550   40.9110 C   0  0  0  0  0  0  0  0  0  0  0  0
   37.8020   28.4690   41.7090 N   0  0  0  0  0  0  0  0  0  0  0  0
   38.7810   27.2930   44.7190 H   0  0  0  0  0  0  0  0  0  0  0  0
   39.8710   25.6200   43.1980 H   0  0  0  0  0  0  0  0  0  0  0  0
   37.3560   29.2720   43.8670 O   0  0  0  0  0  0  0  0  0  0  0  0
   36.9290   30.1480   43.6200 H   0  0  0  0  0  0  0  0  0  0  0  0
   36.2030   26.4330   39.8490 O   0  0  0  0  0  0  0  0  0  0  0  0
   35.9750   25.5110   39.5540 H   0  0  0  0  0  0  0  0  0  0  0  0
   35.0050   27.6910   37.7740 O   0  0  0  0  0  0  0  0  0  0  0  0
   33.0200   29.2520   38.7160 F   0  0  0  0  0  0  0  0  0  0  0  0
   33.1230   28.8210   37.4450 C   0  0  0  0  0  0  0  0  0  0  0  0
   34.0990   28.0310   36.8760 C   0  0  0  0  0  0  0  0  0  0  0  0
   33.9430   27.7630   35.5280 C   0  0  0  0  0  0  0  0  0  0  0  0
   32.9240   28.2050   34.7240 C   0  0  0  0  0  0  0  0  0  0  0  0
   31.9870   28.9800   35.3300 C   0  0  0  0  0  0  0  0  0  0  0  0
   32.0440   29.3170   36.6930 C   0  0  0  0  0  0  0  0  0  0  0  0
   34.7620   27.1270   35.1490 H   0  0  0  0  0  0  0  0  0  0  0  0
   32.8870   27.9440   33.6840 H   0  0  0  0  0  0  0  0  0  0  0  0
   31.1700   29.3350   34.6890 H   0  0  0  0  0  0  0  0  0  0  0  0
   30.9610   30.1580   37.1950 C   0  0  0  0  0  0  0  0  0  0  0  0
   30.5180   31.3850   36.7540 C   0  0  0  0  0  0  0  0  0  0  0  0
   30.9010   31.9700   35.9310 H   0  0  0  0  0  0  0  0  0  0  0  0
   29.4700   31.8460   37.4990 C   0  0  0  0  0  0  0  0  0  0  0  0
   28.8650   32.7400   37.4690 H   0  0  0  0  0  0  0  0  0  0  0  0
   29.3200   30.8220   38.4030 C   0  0  0  0  0  0  0  0  0  0  0  0
   28.6050   30.6950   39.2330 H   0  0  0  0  0  0  0  0  0  0  0  0
   30.1940   29.8790   38.1900 O   0  0  0  0  0  0  0  0  0  0  0  0
  1  7  1  6  0  0  0
  1  2  1  0  0  0  0
  1 24  1  0  0  0  0
  2  8  1  6  0  0  0
  2 18  1  0  0  0  0
  3  9  1  0  0  0  0
  3  2  1  0  0  0  0
  3 10  1  0  0  0  0
  4  3  1  0  0  0  0
  5  4  1  0  0  0  0
  5  6  1  0  0  0  0
  6  1  1  0  0  0  0
  6 13  1  1  0  0  0
 11  5  1  0  0  0  0
 12  5  1  0  0  0  0
 14 15  1  0  0  0  0
 14 22  1  0  0  0  0
 15 20  1  0  0  0  0
 16 21  1  0  0  0  0
 16 15  2  0  0  0  0
 17 16  1  0  0  0  0
 18 17  2  0  0  0  0
 18 19  1  0  0  0  0
 19 14  2  0  0  0  0
 23 22  1  0  0  0  0
 25 24  1  0  0  0  0
 26  6  1  0  0  0  0
 28 27  1  0  0  0  0
 29 28  1  0  0  0  0
 29 26  1  0  0  0  0
 30 29  2  0  0  0  0
 31 32  2  0  0  0  0
 31 30  1  0  0  0  0
 32 33  1  0  0  0  0
 33 37  1  0  0  0  0
 33 28  2  0  0  0  0
 34 30  1  0  0  0  0
 35 31  1  0  0  0  0
 36 32  1  0  0  0  0
 37 44  1  0  0  0  0
 38 37  2  0  0  0  0
 38 40  1  0  0  0  0
 39 38  1  0  0  0  0
 40 42  2  0  0  0  0
 41 40  1  0  0  0  0
 42 43  1  0  0  0  0
 44 42  1  0  0  0  0
M  END
>  <minimizedAffinity>
-5.71242237

$$$$

 OpenBabel03242518483D

 44 47  0  0  1  0  0  0  0  0999 V2000
   37.8680   29.9310   38.9760 C   0  0  2  0  0  0  0  0  0  0  0  0
   37.9860   31.3820   39.2750 C   0  0  1  0  0  0  0  0  0  0  0  0
   37.4180   31.7370   40.6490 C   0  0  0  0  0  0  0  0  0  0  0  0
   36.1170   31.2270   40.6260 O   0  0  0  0  0  0  0  0  0  0  0  0
   36.1050   29.8530   40.7100 C   0  0  0  0  0  0  0  0  0  0  0  0
   37.3590   29.1960   40.2290 C   0  0  1  0  0  0  0  0  0  0  0  0
   37.1150   29.7460   38.1910 H   0  0  0  0  0  0  0  0  0  0  0  0
   37.3620   31.9470   38.5220 H   0  0  0  0  0  0  0  0  0  0  0  0
   37.3040   32.8440   40.7160 H   0  0  0  0  0  0  0  0  0  0  0  0
   38.0260   31.3220   41.4600 H   0  0  0  0  0  0  0  0  0  0  0  0
   36.0020   29.5730   41.7960 H   0  0  0  0  0  0  0  0  0  0  0  0
   35.2500   29.3710   40.2010 H   0  0  0  0  0  0  0  0  0  0  0  0
   38.2050   29.2870   40.9460 H   0  0  0  0  0  0  0  0  0  0  0  0
   41.1220   32.8770   38.1060 C   0  0  0  0  0  0  0  0  0  0  0  0
   41.9440   32.9130   39.2700 C   0  0  0  0  0  0  0  0  0  0  0  0
   41.3530   32.3970   40.4530 C   0  0  0  0  0  0  0  0  0  0  0  0
   40.0900   31.9190   40.4120 N   0  0  0  0  0  0  0  0  0  0  0  0
   39.3630   31.9140   39.2750 C   0  0  0  0  0  0  0  0  0  0  0  0
   39.8820   32.3940   38.1230 N   0  0  0  0  0  0  0  0  0  0  0  0
   42.9380   33.3060   39.2330 H   0  0  0  0  0  0  0  0  0  0  0  0
   41.9330   32.4040   41.3490 H   0  0  0  0  0  0  0  0  0  0  0  0
   41.6820   33.3660   36.9760 O   0  0  0  0  0  0  0  0  0  0  0  0
   41.3310   33.2800   36.0380 H   0  0  0  0  0  0  0  0  0  0  0  0
   39.0760   29.3350   38.5910 O   0  0  0  0  0  0  0  0  0  0  0  0
   38.9980   28.8570   37.7220 H   0  0  0  0  0  0  0  0  0  0  0  0
   37.1940   27.8770   39.8780 O   0  0  0  0  0  0  0  0  0  0  0  0
   36.1050   25.8880   38.4180 F   0  0  0  0  0  0  0  0  0  0  0  0
   36.5320   25.7660   39.6890 C   0  0  0  0  0  0  0  0  0  0  0  0
   37.1030   26.7190   40.5060 C   0  0  0  0  0  0  0  0  0  0  0  0
   37.4560   26.2900   41.7720 C   0  0  0  0  0  0  0  0  0  0  0  0
   37.2920   25.0260   42.2770 C   0  0  0  0  0  0  0  0  0  0  0  0
   36.7260   24.1220   41.4350 C   0  0  0  0  0  0  0  0  0  0  0  0
   36.3280   24.4460   40.1280 C   0  0  0  0  0  0  0  0  0  0  0  0
   37.9050   27.1090   42.3620 H   0  0  0  0  0  0  0  0  0  0  0  0
   37.5980   24.7850   43.2770 H   0  0  0  0  0  0  0  0  0  0  0  0
   36.5940   23.1090   41.8370 H   0  0  0  0  0  0  0  0  0  0  0  0
   35.7340   23.3640   39.3470 C   0  0  0  0  0  0  0  0  0  0  0  0
   34.4420   22.8840   39.3420 C   0  0  0  0  0  0  0  0  0  0  0  0
   33.6060   23.2290   39.9310 H   0  0  0  0  0  0  0  0  0  0  0  0
   34.2860   21.8520   38.4620 C   0  0  0  0  0  0  0  0  0  0  0  0
   33.4510   21.2290   38.1760 H   0  0  0  0  0  0  0  0  0  0  0  0
   35.5570   21.7500   37.9480 C   0  0  0  0  0  0  0  0  0  0  0  0
   35.9740   21.0650   37.1910 H   0  0  0  0  0  0  0  0  0  0  0  0
   36.3500   22.6350   38.4850 O   0  0  0  0  0  0  0  0  0  0  0  0
  1  7  1  6  0  0  0
  1  2  1  0  0  0  0
  1  6  1  0  0  0  0
  2  8  1  6  0  0  0
  2 18  1  0  0  0  0
  2  3  1  0  0  0  0
  3  9  1  0  0  0  0
  3 10  1  0  0  0  0
  4  3  1  0  0  0  0
  4  5  1  0  0  0  0
  5 11  1  0  0  0  0
  6  5  1  0  0  0  0
  6 13  1  1  0  0  0
 12  5  1  0  0  0  0
 14 19  2  0  0  0  0
 14 15  1  0  0  0  0
 15 16  2  0  0  0  0
 16 21  1  0  0  0  0
 17 16  1  0  0  0  0
 18 17  2  0  0  0  0
 19 18  1  0  0  0  0
 20 15  1  0  0  0  0
 22 14  1  0  0  0  0
 23 22  1  0  0  0  0
 24  1  1  0  0  0  0
 25 24  1  0  0  0  0
 26  6  1  0  0  0  0
 26 29  1  0  0  0  0
 27 28  1  0  0  0  0
 28 33  2  0  0  0  0
 28 29  1  0  0  0  0
 29 30  2  0  0  0  0
 30 31  1  0  0  0  0
 30 34  1  0  0  0  0
 31 35  1  0  0  0  0
 32 36  1  0  0  0  0
 32 31  2  0  0  0  0
 33 32  1  0  0  0  0
 37 33  1  0  0  0  0
 38 37  2  0  0  0  0
 38 39  1  0  0  0  0
 40 38  1  0  0  0  0
 41 40  1  0  0  0  0
 42 40  2  0  0  0  0
 42 44  1  0  0  0  0
 43 42  1  0  0  0  0
 44 37  1  0  0  0  0
M  END
>  <minimizedAffinity>
-5.70957994

$$$$
