
 OpenBabel03252504143D

 34 36  0  0  0  0  0  0  0  0999 V2000
   47.6910   29.9490   44.8650 F   0  0  0  0  0  0  0  0  0  0  0  0
   47.5890   30.6890   46.0160 C   0  0  0  0  0  0  0  0  0  0  0  0
   47.0210   31.9390   45.9710 C   0  0  0  0  0  0  0  0  0  0  0  0
   46.9590   32.6200   47.1880 C   0  0  0  0  0  0  0  0  0  0  0  0
   47.4390   32.0660   48.3510 C   0  0  0  0  0  0  0  0  0  0  0  0
   47.9980   30.8000   48.3160 C   0  0  0  0  0  0  0  0  0  0  0  0
   48.0910   30.0730   47.1440 C   0  0  0  0  0  0  0  0  0  0  0  0
   46.5160   33.6180   47.2050 H   0  0  0  0  0  0  0  0  0  0  0  0
   47.3900   32.5940   49.2880 H   0  0  0  0  0  0  0  0  0  0  0  0
   48.3830   30.3430   49.2190 H   0  0  0  0  0  0  0  0  0  0  0  0
   48.6780   28.7380   47.0980 C   0  0  0  0  0  0  0  0  0  0  0  0
   47.9730   27.5850   47.3750 C   0  0  0  0  0  0  0  0  0  0  0  0
   46.9440   27.5280   47.6480 H   0  0  0  0  0  0  0  0  0  0  0  0
   48.9330   26.5870   47.2060 C   0  0  0  0  0  0  0  0  0  0  0  0
   48.7410   25.5220   47.3420 H   0  0  0  0  0  0  0  0  0  0  0  0
   50.1360   27.1710   46.8440 C   0  0  0  0  0  0  0  0  0  0  0  0
   51.0820   26.6880   46.6360 H   0  0  0  0  0  0  0  0  0  0  0  0
   49.9060   28.4690   46.8000 O   0  0  0  0  0  0  0  0  0  0  0  0
   46.8030   34.0960   43.0530 C   0  0  0  0  0  0  0  0  0  0  0  0
   45.6380   33.6830   42.4020 C   0  0  0  0  0  0  0  0  0  0  0  0
   44.9200   32.6320   42.9990 C   0  0  0  0  0  0  0  0  0  0  0  0
   45.3730   32.0750   44.1520 N   0  0  0  0  0  0  0  0  0  0  0  0
   46.5130   32.5210   44.7340 C   0  0  0  0  0  0  0  0  0  0  0  0
   47.2250   33.5310   44.1850 N   0  0  0  0  0  0  0  0  0  0  0  0
   44.0130   32.2890   42.5190 H   0  0  0  0  0  0  0  0  0  0  0  0
   45.2140   34.3420   41.1520 C   0  0  0  0  0  0  0  0  0  0  0  0
   44.9480   35.6700   41.3900 F   0  0  0  0  0  0  0  0  0  0  0  0
   46.2800   34.2910   40.2620 F   0  0  0  0  0  0  0  0  0  0  0  0
   44.1320   33.7860   40.5600 F   0  0  0  0  0  0  0  0  0  0  0  0
   47.4980   35.1160   42.4740 O   0  0  0  0  0  0  0  0  0  0  0  0
   48.8030   35.0440   41.9340 C   0  0  0  0  0  0  0  0  0  0  0  0
   49.6810   35.2940   42.9930 F   0  0  0  0  0  0  0  0  0  0  0  0
   49.0110   33.8270   41.3410 F   0  0  0  0  0  0  0  0  0  0  0  0
   49.0070   36.0950   41.0690 F   0  0  0  0  0  0  0  0  0  0  0  0
  1  2  1  0  0  0  0
  2  7  1  0  0  0  0
  3  2  2  0  0  0  0
  3  4  1  0  0  0  0
  4  8  1  0  0  0  0
  4  5  2  0  0  0  0
  5  9  1  0  0  0  0
  6  5  1  0  0  0  0
  6 10  1  0  0  0  0
  7  6  2  0  0  0  0
 11  7  1  0  0  0  0
 11 12  2  0  0  0  0
 12 13  1  0  0  0  0
 14 15  1  0  0  0  0
 14 12  1  0  0  0  0
 16 14  2  0  0  0  0
 17 16  1  0  0  0  0
 18 16  1  0  0  0  0
 18 11  1  0  0  0  0
 19 24  1  0  0  0  0
 20 21  1  0  0  0  0
 20 19  2  0  0  0  0
 21 22  2  0  0  0  0
 22 23  1  0  0  0  0
 23  3  1  0  0  0  0
 24 23  2  0  0  0  0
 25 21  1  0  0  0  0
 26 27  1  0  0  0  0
 26 20  1  0  0  0  0
 28 26  1  0  0  0  0
 29 26  1  0  0  0  0
 30 19  1  0  0  0  0
 31 30  1  0  0  0  0
 31 32  1  0  0  0  0
 33 31  1  0  0  0  0
 34 31  1  0  0  0  0
M  END
>  <minimizedAffinity>
-5.46556282

>  <minimizedRMSD>
0.0842473879

$$$$
