
 OpenBabel03252504143D

 34 36  0  0  0  0  0  0  0  0999 V2000
   47.7090   30.0590   44.9110 F   0  0  0  0  0  0  0  0  0  0  0  0
   47.5490   30.8180   46.0430 C   0  0  0  0  0  0  0  0  0  0  0  0
   46.9460   32.0500   45.9540 C   0  0  0  0  0  0  0  0  0  0  0  0
   46.8260   32.7520   47.1530 C   0  0  0  0  0  0  0  0  0  0  0  0
   47.2840   32.2370   48.3420 C   0  0  0  0  0  0  0  0  0  0  0  0
   47.8810   30.9880   48.3510 C   0  0  0  0  0  0  0  0  0  0  0  0
   48.0320   30.2400   47.1990 C   0  0  0  0  0  0  0  0  0  0  0  0
   46.3530   33.7370   47.1350 H   0  0  0  0  0  0  0  0  0  0  0  0
   47.1900   32.7820   49.2650 H   0  0  0  0  0  0  0  0  0  0  0  0
   48.2510   30.5610   49.2750 H   0  0  0  0  0  0  0  0  0  0  0  0
   48.6600   28.9230   47.2000 C   0  0  0  0  0  0  0  0  0  0  0  0
   47.9700   27.7510   47.4360 C   0  0  0  0  0  0  0  0  0  0  0  0
   46.9280   27.6660   47.6400 H   0  0  0  0  0  0  0  0  0  0  0  0
   48.9680   26.7810   47.3360 C   0  0  0  0  0  0  0  0  0  0  0  0
   48.7970   25.7110   47.4650 H   0  0  0  0  0  0  0  0  0  0  0  0
   50.1760   27.3970   47.0530 C   0  0  0  0  0  0  0  0  0  0  0  0
   51.1460   26.9400   46.9120 H   0  0  0  0  0  0  0  0  0  0  0  0
   49.9110   28.6880   46.9860 O   0  0  0  0  0  0  0  0  0  0  0  0
   46.7710   34.1230   42.9720 C   0  0  0  0  0  0  0  0  0  0  0  0
   45.6280   33.6770   42.3060 C   0  0  0  0  0  0  0  0  0  0  0  0
   44.9090   32.6320   42.9150 C   0  0  0  0  0  0  0  0  0  0  0  0
   45.3410   32.1130   44.0920 N   0  0  0  0  0  0  0  0  0  0  0  0
   46.4610   32.5910   44.6890 C   0  0  0  0  0  0  0  0  0  0  0  0
   47.1730   33.5940   44.1300 N   0  0  0  0  0  0  0  0  0  0  0  0
   44.0180   32.2640   42.4220 H   0  0  0  0  0  0  0  0  0  0  0  0
   45.2250   34.2960   41.0290 C   0  0  0  0  0  0  0  0  0  0  0  0
   44.9150   35.6210   41.2270 F   0  0  0  0  0  0  0  0  0  0  0  0
   46.3200   34.2550   40.1730 F   0  0  0  0  0  0  0  0  0  0  0  0
   44.1790   33.6960   40.4150 F   0  0  0  0  0  0  0  0  0  0  0  0
   47.4660   35.1360   42.3820 O   0  0  0  0  0  0  0  0  0  0  0  0
   48.7880   35.0690   41.8840 C   0  0  0  0  0  0  0  0  0  0  0  0
   49.6310   35.3380   42.9670 F   0  0  0  0  0  0  0  0  0  0  0  0
   49.0240   33.8490   41.3100 F   0  0  0  0  0  0  0  0  0  0  0  0
   49.0100   36.1130   41.0140 F   0  0  0  0  0  0  0  0  0  0  0  0
  1  2  1  0  0  0  0
  2  7  1  0  0  0  0
  3  2  2  0  0  0  0
  3  4  1  0  0  0  0
  4  5  2  0  0  0  0
  5  6  1  0  0  0  0
  5  9  1  0  0  0  0
  6 10  1  0  0  0  0
  7 11  1  0  0  0  0
  7  6  2  0  0  0  0
  8  4  1  0  0  0  0
 11 12  2  0  0  0  0
 12 13  1  0  0  0  0
 14 12  1  0  0  0  0
 14 15  1  0  0  0  0
 16 14  2  0  0  0  0
 17 16  1  0  0  0  0
 18 16  1  0  0  0  0
 18 11  1  0  0  0  0
 19 24  1  0  0  0  0
 20 21  1  0  0  0  0
 20 19  2  0  0  0  0
 21 22  2  0  0  0  0
 22 23  1  0  0  0  0
 23  3  1  0  0  0  0
 24 23  2  0  0  0  0
 25 21  1  0  0  0  0
 26 27  1  0  0  0  0
 26 20  1  0  0  0  0
 28 26  1  0  0  0  0
 29 26  1  0  0  0  0
 30 19  1  0  0  0  0
 31 30  1  0  0  0  0
 31 32  1  0  0  0  0
 33 31  1  0  0  0  0
 34 31  1  0  0  0  0
M  END
>  <minimizedAffinity>
-5.49765539

>  <minimizedRMSD>
0.485538602

$$$$
