
 OpenBabel03252502133D

 36 39  0  0  0  0  0  0  0  0999 V2000
   41.2880   35.5000   42.0560 Cl  0  0  0  0  0  0  0  0  0  0  0  0
   42.0240   34.7480   40.6510 C   0  0  0  0  0  0  0  0  0  0  0  0
   43.2980   34.2850   40.6790 C   0  0  0  0  0  0  0  0  0  0  0  0
   43.7630   33.7170   39.5180 C   0  0  0  0  0  0  0  0  0  0  0  0
   43.0240   33.6040   38.3840 C   0  0  0  0  0  0  0  0  0  0  0  0
   41.7320   34.0770   38.3670 C   0  0  0  0  0  0  0  0  0  0  0  0
   41.2380   34.6510   39.5120 C   0  0  0  0  0  0  0  0  0  0  0  0
   43.4150   33.1500   37.4800 H   0  0  0  0  0  0  0  0  0  0  0  0
   41.1100   34.0040   37.4770 H   0  0  0  0  0  0  0  0  0  0  0  0
   40.2190   35.0250   39.5000 H   0  0  0  0  0  0  0  0  0  0  0  0
   45.3020   35.7090   43.5540 C   0  0  0  0  0  0  0  0  0  0  0  0
   44.5720   35.6110   42.3710 C   0  0  0  0  0  0  0  0  0  0  0  0
   44.0610   34.4190   41.9030 C   0  0  0  0  0  0  0  0  0  0  0  0
   44.3170   33.3190   42.6830 N   0  0  0  0  0  0  0  0  0  0  0  0
   45.0240   33.4240   43.8250 C   0  0  0  0  0  0  0  0  0  0  0  0
   45.5120   34.5820   44.2650 N   0  0  0  0  0  0  0  0  0  0  0  0
   45.6900   36.6320   43.9030 H   0  0  0  0  0  0  0  0  0  0  0  0
   44.3720   36.4700   41.7620 H   0  0  0  0  0  0  0  0  0  0  0  0
   45.1630   32.4840   44.3590 H   0  0  0  0  0  0  0  0  0  0  0  0
   45.1460   33.2050   39.5230 C   0  0  0  0  0  0  0  0  0  0  0  0
   45.4000   32.0610   38.7570 C   0  0  0  0  0  0  0  0  0  0  0  0
   46.7150   31.6720   38.8340 C   0  0  0  0  0  0  0  0  0  0  0  0
   47.7180   32.2750   39.5480 C   0  0  0  0  0  0  0  0  0  0  0  0
   47.3630   33.4030   40.2730 C   0  0  0  0  0  0  0  0  0  0  0  0
   46.0920   33.8150   40.2260 N   0  0  0  0  0  0  0  0  0  0  0  0
   44.6690   31.5430   38.1800 H   0  0  0  0  0  0  0  0  0  0  0  0
   46.9820   30.7650   38.2460 H   0  0  0  0  0  0  0  0  0  0  0  0
   48.7230   31.8940   39.5440 H   0  0  0  0  0  0  0  0  0  0  0  0
   48.3620   34.1120   41.0640 C   0  0  0  0  0  0  0  0  0  0  0  0
   48.4840   35.4820   41.1310 C   0  0  0  0  0  0  0  0  0  0  0  0
   47.8760   36.2020   40.6220 H   0  0  0  0  0  0  0  0  0  0  0  0
   49.5460   35.7170   41.9830 C   0  0  0  0  0  0  0  0  0  0  0  0
   49.9560   36.6680   42.2930 H   0  0  0  0  0  0  0  0  0  0  0  0
   50.0270   34.4860   42.4010 C   0  0  0  0  0  0  0  0  0  0  0  0
   50.8430   34.2260   43.0660 H   0  0  0  0  0  0  0  0  0  0  0  0
   49.2770   33.5640   41.8160 O   0  0  0  0  0  0  0  0  0  0  0  0
  2  3  1  0  0  0  0
  2  1  1  0  0  0  0
  3 13  1  0  0  0  0
  4 20  1  0  0  0  0
  4  3  2  0  0  0  0
  5  4  1  0  0  0  0
  6  5  2  0  0  0  0
  6  7  1  0  0  0  0
  7  2  2  0  0  0  0
  8  5  1  0  0  0  0
  9  6  1  0  0  0  0
 10  7  1  0  0  0  0
 11 17  1  0  0  0  0
 11 16  1  0  0  0  0
 12 11  2  0  0  0  0
 13 12  1  0  0  0  0
 13 14  2  0  0  0  0
 14 15  1  0  0  0  0
 15 16  2  0  0  0  0
 15 19  1  0  0  0  0
 18 12  1  0  0  0  0
 20 25  1  0  0  0  0
 21 22  1  0  0  0  0
 21 20  2  0  0  0  0
 22 23  2  0  0  0  0
 23 24  1  0  0  0  0
 24 29  1  0  0  0  0
 25 24  2  0  0  0  0
 26 21  1  0  0  0  0
 27 22  1  0  0  0  0
 28 23  1  0  0  0  0
 29 30  2  0  0  0  0
 29 36  1  0  0  0  0
 30 32  1  0  0  0  0
 31 30  1  0  0  0  0
 32 33  1  0  0  0  0
 32 34  2  0  0  0  0
 34 35  1  0  0  0  0
 36 34  1  0  0  0  0
M  END
>  <minimizedAffinity>
-5.85901928

>  <minimizedRMSD>
3.18397641

$$$$
