
 OpenBabel03242522273D

 37 40  0  0  0  0  0  0  0  0999 V2000
   46.2350   32.1460   44.1890 F   0  0  0  0  0  0  0  0  0  0  0  0
   45.5800   33.3320   44.3690 C   0  0  0  0  0  0  0  0  0  0  0  0
   45.4450   33.8300   45.6240 C   0  0  0  0  0  0  0  0  0  0  0  0
   44.8580   35.0760   45.7140 C   0  0  0  0  0  0  0  0  0  0  0  0
   44.4300   35.7820   44.6110 C   0  0  0  0  0  0  0  0  0  0  0  0
   44.6050   35.2060   43.4020 C   0  0  0  0  0  0  0  0  0  0  0  0
   45.1770   33.9800   43.2460 C   0  0  0  0  0  0  0  0  0  0  0  0
   44.7960   35.3900   46.7820 H   0  0  0  0  0  0  0  0  0  0  0  0
   44.0160   36.7140   44.9610 H   0  0  0  0  0  0  0  0  0  0  0  0
   44.2370   35.9770   42.7910 H   0  0  0  0  0  0  0  0  0  0  0  0
   45.4060   33.5170   41.8890 C   0  0  0  0  0  0  0  0  0  0  0  0
   44.3730   32.8510   41.2180 C   0  0  0  0  0  0  0  0  0  0  0  0
   44.6370   32.2700   40.0050 C   0  0  0  0  0  0  0  0  0  0  0  0
   45.9030   32.3430   39.4590 C   0  0  0  0  0  0  0  0  0  0  0  0
   46.9010   33.0270   40.1720 C   0  0  0  0  0  0  0  0  0  0  0  0
   46.6550   33.6160   41.3800 C   0  0  0  0  0  0  0  0  0  0  0  0
   43.3630   32.6880   41.4840 H   0  0  0  0  0  0  0  0  0  0  0  0
   43.8950   31.7280   39.4060 H   0  0  0  0  0  0  0  0  0  0  0  0
   46.0820   31.8580   38.4760 H   0  0  0  0  0  0  0  0  0  0  0  0
   47.8380   32.9950   39.6130 H   0  0  0  0  0  0  0  0  0  0  0  0
   47.8480   34.3040   41.7590 C   0  0  0  0  0  0  0  0  0  0  0  0
   48.8630   34.0130   42.7060 C   0  0  0  0  0  0  0  0  0  0  0  0
   48.8210   33.1240   43.3190 H   0  0  0  0  0  0  0  0  0  0  0  0
   49.7470   35.0930   42.5670 C   0  0  0  0  0  0  0  0  0  0  0  0
   50.6310   35.1360   43.1780 H   0  0  0  0  0  0  0  0  0  0  0  0
   49.2400   35.9460   41.5800 C   0  0  0  0  0  0  0  0  0  0  0  0
   49.7580   36.8570   41.2980 H   0  0  0  0  0  0  0  0  0  0  0  0
   48.1200   35.4550   41.1220 O   0  0  0  0  0  0  0  0  0  0  0  0
   45.4310   31.8460   48.8360 C   0  0  0  0  0  0  0  0  0  0  0  0
   44.9960   32.5960   47.7480 C   0  0  0  0  0  0  0  0  0  0  0  0
   45.8830   33.0480   46.7540 C   0  0  0  0  0  0  0  0  0  0  0  0
   47.1640   32.7080   46.9280 N   0  0  0  0  0  0  0  0  0  0  0  0
   47.5680   31.9810   47.9870 C   0  0  0  0  0  0  0  0  0  0  0  0
   46.7190   31.5560   48.9240 N   0  0  0  0  0  0  0  0  0  0  0  0
   44.5830   31.6020   49.4800 H   0  0  0  0  0  0  0  0  0  0  0  0
   43.9540   32.9020   47.5610 H   0  0  0  0  0  0  0  0  0  0  0  0
   48.6180   31.7370   48.0720 H   0  0  0  0  0  0  0  0  0  0  0  0
  1  2  1  0  0  0  0
  2  3  1  0  0  0  0
  3  4  2  0  0  0  0
  3 31  1  0  0  0  0
  4  8  1  0  0  0  0
  5  9  1  0  0  0  0
  5  4  1  0  0  0  0
  6  5  2  0  0  0  0
  7  6  1  0  0  0  0
  7  2  2  0  0  0  0
 10  6  1  0  0  0  0
 11  7  1  0  0  0  0
 12 17  1  0  0  0  0
 12 11  2  0  0  0  0
 13 12  1  0  0  0  0
 14 13  2  0  0  0  0
 14 15  1  0  0  0  0
 15 16  2  0  0  0  0
 16 21  1  0  0  0  0
 16 11  1  0  0  0  0
 18 13  1  0  0  0  0
 19 14  1  0  0  0  0
 20 15  1  0  0  0  0
 21 22  2  0  0  0  0
 22 23  1  0  0  0  0
 24 22  1  0  0  0  0
 24 25  1  0  0  0  0
 26 24  2  0  0  0  0
 27 26  1  0  0  0  0
 28 26  1  0  0  0  0
 28 21  1  0  0  0  0
 29 34  1  0  0  0  0
 29 35  1  0  0  0  0
 30 29  2  0  0  0  0
 31 32  2  0  0  0  0
 31 30  1  0  0  0  0
 32 33  1  0  0  0  0
 33 37  1  0  0  0  0
 33 34  2  0  0  0  0
 36 30  1  0  0  0  0
M  END
>  <minimizedAffinity>
-6.42858458

>  <minimizedRMSD>
4.44954252

$$$$
