
 OpenBabel03252507263D

 26 28  0  0  0  0  0  0  0  0999 V2000
   45.5950   34.0750   45.5090 C   0  0  0  0  0  0  0  0  0  0  0  0
   44.6580   35.1030   45.7090 C   0  0  0  0  0  0  0  0  0  0  0  0
   44.4360   35.9930   44.6570 C   0  0  0  0  0  0  0  0  0  0  0  0
   45.1350   35.8260   43.4860 N   0  0  0  0  0  0  0  0  0  0  0  0
   46.0260   34.8170   43.3470 C   0  0  0  0  0  0  0  0  0  0  0  0
   46.2610   33.9450   44.3410 N   0  0  0  0  0  0  0  0  0  0  0  0
   44.1440   35.1700   46.6660 H   0  0  0  0  0  0  0  0  0  0  0  0
   43.7200   36.7950   44.7860 H   0  0  0  0  0  0  0  0  0  0  0  0
   46.7390   34.6830   42.0900 C   0  0  0  0  0  0  0  0  0  0  0  0
   47.9510   35.3350   41.9010 C   0  0  0  0  0  0  0  0  0  0  0  0
   48.7140   35.2820   40.7520 C   0  0  0  0  0  0  0  0  0  0  0  0
   48.1660   34.4950   39.7450 C   0  0  0  0  0  0  0  0  0  0  0  0
   46.9570   33.8360   39.9160 C   0  0  0  0  0  0  0  0  0  0  0  0
   46.2620   33.9390   41.0840 N   0  0  0  0  0  0  0  0  0  0  0  0
   48.3080   35.9280   42.7340 H   0  0  0  0  0  0  0  0  0  0  0  0
   49.6500   35.8180   40.6780 H   0  0  0  0  0  0  0  0  0  0  0  0
   48.7120   34.4080   38.8170 H   0  0  0  0  0  0  0  0  0  0  0  0
   46.6050   33.2440   39.0790 H   0  0  0  0  0  0  0  0  0  0  0  0
   45.8600   33.1200   46.5810 C   0  0  0  0  0  0  0  0  0  0  0  0
   46.9540   32.2690   46.6440 C   0  0  0  0  0  0  0  0  0  0  0  0
   47.7730   32.1640   45.9390 H   0  0  0  0  0  0  0  0  0  0  0  0
   46.8590   31.5200   47.8010 C   0  0  0  0  0  0  0  0  0  0  0  0
   47.4950   30.7570   48.2160 H   0  0  0  0  0  0  0  0  0  0  0  0
   45.7100   31.9430   48.4010 C   0  0  0  0  0  0  0  0  0  0  0  0
   45.2020   31.6780   49.3050 H   0  0  0  0  0  0  0  0  0  0  0  0
   45.1550   32.8650   47.6760 O   0  0  0  0  0  0  0  0  0  0  0  0
  1  2  1  0  0  0  0
  1 19  1  0  0  0  0
  2  7  1  0  0  0  0
  3  8  1  0  0  0  0
  3  2  2  0  0  0  0
  4  3  1  0  0  0  0
  5  4  2  0  0  0  0
  5  6  1  0  0  0  0
  6  1  2  0  0  0  0
  9  5  1  0  0  0  0
 10  9  1  0  0  0  0
 10 15  1  0  0  0  0
 11 10  2  0  0  0  0
 12 13  2  0  0  0  0
 12 11  1  0  0  0  0
 13 14  1  0  0  0  0
 14  9  2  0  0  0  0
 16 11  1  0  0  0  0
 17 12  1  0  0  0  0
 18 13  1  0  0  0  0
 19 20  2  0  0  0  0
 19 26  1  0  0  0  0
 20 22  1  0  0  0  0
 21 20  1  0  0  0  0
 22 23  1  0  0  0  0
 22 24  2  0  0  0  0
 24 25  1  0  0  0  0
 26 24  1  0  0  0  0
M  END
>  <minimizedAffinity>
-5.91799355

>  <minimizedRMSD>
0.227734894

$$$$
