
 OpenBabel03252503303D

 36 38  0  0  1  0  0  0  0  0999 V2000
   45.4240   34.7040   42.3450 C   0  0  0  0  0  0  0  0  0  0  0  0
   46.5400   35.3240   41.7290 C   0  0  0  0  0  0  0  0  0  0  0  0
   47.8030   34.9280   42.2120 C   0  0  0  0  0  0  0  0  0  0  0  0
   47.8550   34.0170   43.1960 N   0  0  0  0  0  0  0  0  0  0  0  0
   46.7730   33.4570   43.7490 C   0  0  0  0  0  0  0  0  0  0  0  0
   45.5390   33.7980   43.3240 N   0  0  0  0  0  0  0  0  0  0  0  0
   43.7850   34.4280   40.7060 C   0  0  0  0  0  0  0  0  0  0  0  0
   44.6590   33.7190   40.1240 O   0  0  0  0  0  0  0  0  0  0  0  0
   44.0970   35.0310   41.9320 N   0  0  0  0  0  0  0  0  0  0  0  0
   42.5350   34.5460   40.0410 N   0  0  0  0  0  0  0  0  0  0  0  0
   42.3760   34.1490   38.6430 C   0  0  0  0  0  0  0  0  0  0  0  0
   41.3460   35.1350   38.1500 C   0  0  0  0  0  0  0  0  0  0  0  0
   40.8280   35.8830   39.3470 C   0  0  0  0  0  0  0  0  0  0  0  0
   41.2490   35.0240   40.4930 C   0  0  1  0  0  0  0  0  0  0  0  0
   46.3090   36.0320   40.9550 H   0  0  0  0  0  0  0  0  0  0  0  0
   46.8620   32.7340   44.5300 H   0  0  0  0  0  0  0  0  0  0  0  0
   43.3600   35.6140   42.3670 H   0  0  0  0  0  0  0  0  0  0  0  0
   42.0600   33.1040   38.5710 H   0  0  0  0  0  0  0  0  0  0  0  0
   43.3400   34.3290   38.0850 H   0  0  0  0  0  0  0  0  0  0  0  0
   41.7930   35.8430   37.4020 H   0  0  0  0  0  0  0  0  0  0  0  0
   40.5220   34.6120   37.6360 H   0  0  0  0  0  0  0  0  0  0  0  0
   41.3570   36.8560   39.4080 H   0  0  0  0  0  0  0  0  0  0  0  0
   39.7190   36.0290   39.2700 H   0  0  0  0  0  0  0  0  0  0  0  0
   41.4610   35.6240   41.4140 H   0  0  0  0  0  0  0  0  0  0  0  0
   40.3170   33.9210   40.8060 C   0  0  0  0  0  0  0  0  0  0  0  0
   38.9970   33.7730   40.3970 C   0  0  0  0  0  0  0  0  0  0  0  0
   38.4370   34.4480   39.7770 H   0  0  0  0  0  0  0  0  0  0  0  0
   38.6210   32.5790   40.9750 C   0  0  0  0  0  0  0  0  0  0  0  0
   37.6510   32.1100   40.8920 H   0  0  0  0  0  0  0  0  0  0  0  0
   39.6710   32.0450   41.6940 C   0  0  0  0  0  0  0  0  0  0  0  0
   39.7630   31.1310   42.2820 H   0  0  0  0  0  0  0  0  0  0  0  0
   40.6600   32.9160   41.5430 O   0  0  0  0  0  0  0  0  0  0  0  0
   48.9320   35.5840   41.5600 C   0  0  0  0  0  0  0  0  0  0  0  0
   50.0950   34.9250   41.8990 F   0  0  0  0  0  0  0  0  0  0  0  0
   49.0570   36.8540   42.1150 F   0  0  0  0  0  0  0  0  0  0  0  0
   48.8400   35.6030   40.1880 F   0  0  0  0  0  0  0  0  0  0  0  0
  1  6  1  0  0  0  0
  2  3  1  0  0  0  0
  2  1  2  0  0  0  0
  3  4  2  0  0  0  0
  4  5  1  0  0  0  0
  5 16  1  0  0  0  0
  6  5  2  0  0  0  0
  7  9  1  0  0  0  0
  8  7  2  0  0  0  0
  9  1  1  0  0  0  0
  9 17  1  0  0  0  0
 10 14  1  0  0  0  0
 10  7  1  0  0  0  0
 11 10  1  0  0  0  0
 12 11  1  0  0  0  0
 12 13  1  0  0  0  0
 13 22  1  0  0  0  0
 13 14  1  0  0  0  0
 14 25  1  0  0  0  0
 14 24  1  1  0  0  0
 15  2  1  0  0  0  0
 18 11  1  0  0  0  0
 19 11  1  0  0  0  0
 20 12  1  0  0  0  0
 21 12  1  0  0  0  0
 23 13  1  0  0  0  0
 25 32  1  0  0  0  0
 26 25  2  0  0  0  0
 26 28  1  0  0  0  0
 27 26  1  0  0  0  0
 28 30  2  0  0  0  0
 29 28  1  0  0  0  0
 30 31  1  0  0  0  0
 32 30  1  0  0  0  0
 33 34  1  0  0  0  0
 33 35  1  0  0  0  0
 33  3  1  0  0  0  0
 36 33  1  0  0  0  0
M  END
>  <minimizedAffinity>
-6.92825508

>  <minimizedRMSD>
1.31591463

$$$$
