
 OpenBabel03252506573D

 37 41  0  0  0  0  0  0  0  0999 V2000
   47.2200   31.3630   45.1580 C   0  0  0  0  0  0  0  0  0  0  0  0
   46.8620   32.7040   45.1480 C   0  0  0  0  0  0  0  0  0  0  0  0
   46.2570   33.3260   46.2140 C   0  0  0  0  0  0  0  0  0  0  0  0
   45.9750   32.6080   47.3750 C   0  0  0  0  0  0  0  0  0  0  0  0
   45.4070   32.8710   48.5890 N   0  0  0  0  0  0  0  0  0  0  0  0
   45.4130   31.7320   49.3240 C   0  0  0  0  0  0  0  0  0  0  0  0
   45.9860   30.7730   48.5580 N   0  0  0  0  0  0  0  0  0  0  0  0
   46.3390   31.2840   47.3570 C   0  0  0  0  0  0  0  0  0  0  0  0
   46.9400   30.6340   46.3210 C   0  0  0  0  0  0  0  0  0  0  0  0
   47.6940   30.8980   44.3080 H   0  0  0  0  0  0  0  0  0  0  0  0
   45.9730   34.3770   46.2120 H   0  0  0  0  0  0  0  0  0  0  0  0
   45.0490   33.8220   48.8340 H   0  0  0  0  0  0  0  0  0  0  0  0
   45.0140   31.6920   50.3240 H   0  0  0  0  0  0  0  0  0  0  0  0
   46.5020   35.1770   42.4380 C   0  0  0  0  0  0  0  0  0  0  0  0
   47.6740   34.9760   41.7010 C   0  0  0  0  0  0  0  0  0  0  0  0
   48.5750   34.0030   42.1310 C   0  0  0  0  0  0  0  0  0  0  0  0
   48.2720   33.2830   43.2610 N   0  0  0  0  0  0  0  0  0  0  0  0
   47.1390   33.4980   43.9500 C   0  0  0  0  0  0  0  0  0  0  0  0
   46.2500   34.4370   43.5500 N   0  0  0  0  0  0  0  0  0  0  0  0
   45.8190   35.9390   42.0820 H   0  0  0  0  0  0  0  0  0  0  0  0
   47.9370   35.5250   40.8130 H   0  0  0  0  0  0  0  0  0  0  0  0
   49.5030   33.7690   41.6380 H   0  0  0  0  0  0  0  0  0  0  0  0
   47.2880   29.2130   46.4100 C   0  0  0  0  0  0  0  0  0  0  0  0
   48.5650   28.7160   46.3130 C   0  0  0  0  0  0  0  0  0  0  0  0
   48.4220   27.3330   46.4520 C   0  0  0  0  0  0  0  0  0  0  0  0
   47.0810   27.0760   46.6230 C   0  0  0  0  0  0  0  0  0  0  0  0
   46.4410   28.2470   46.5900 O   0  0  0  0  0  0  0  0  0  0  0  0
   49.5150   29.2150   46.1620 H   0  0  0  0  0  0  0  0  0  0  0  0
   49.1680   26.5530   46.4390 H   0  0  0  0  0  0  0  0  0  0  0  0
   46.3580   25.8210   46.8160 C   0  0  0  0  0  0  0  0  0  0  0  0
   46.8790   24.6200   46.3250 C   0  0  0  0  0  0  0  0  0  0  0  0
   47.8170   24.4610   45.7750 H   0  0  0  0  0  0  0  0  0  0  0  0
   46.0170   23.5850   46.6320 C   0  0  0  0  0  0  0  0  0  0  0  0
   46.0390   22.5280   46.4430 H   0  0  0  0  0  0  0  0  0  0  0  0
   44.9980   24.2210   47.3060 C   0  0  0  0  0  0  0  0  0  0  0  0
   44.0870   23.8700   47.7540 H   0  0  0  0  0  0  0  0  0  0  0  0
   45.2220   25.5240   47.3990 O   0  0  0  0  0  0  0  0  0  0  0  0
  1  9  1  0  0  0  0
  2  1  2  0  0  0  0
  2  3  1  0  0  0  0
  3  4  2  0  0  0  0
  4  5  1  0  0  0  0
  5 12  1  0  0  0  0
  5  6  1  0  0  0  0
  6 13  1  0  0  0  0
  7  6  2  0  0  0  0
  8  4  1  0  0  0  0
  8  7  1  0  0  0  0
  9 23  1  0  0  0  0
  9  8  2  0  0  0  0
 10  1  1  0  0  0  0
 11  3  1  0  0  0  0
 14 19  1  0  0  0  0
 15 16  1  0  0  0  0
 15 14  2  0  0  0  0
 16 17  2  0  0  0  0
 17 18  1  0  0  0  0
 18  2  1  0  0  0  0
 19 18  2  0  0  0  0
 20 14  1  0  0  0  0
 21 15  1  0  0  0  0
 22 16  1  0  0  0  0
 23 27  1  0  0  0  0
 24 23  2  0  0  0  0
 24 25  1  0  0  0  0
 25 26  2  0  0  0  0
 26 30  1  0  0  0  0
 27 26  1  0  0  0  0
 28 24  1  0  0  0  0
 29 25  1  0  0  0  0
 30 37  1  0  0  0  0
 31 33  1  0  0  0  0
 31 30  2  0  0  0  0
 32 31  1  0  0  0  0
 33 35  2  0  0  0  0
 34 33  1  0  0  0  0
 35 37  1  0  0  0  0
 35 36  1  0  0  0  0
M  END
>  <minimizedAffinity>
-5.4074111

>  <minimizedRMSD>
0.351848334

$$$$
