
 OpenBabel03242515053D

 38 40  0  0  0  0  0  0  0  0999 V2000
   45.1040   34.5070   42.2950 C   0  0  0  0  0  0  0  0  0  0  0  0
   46.4080   34.1780   41.9270 C   0  0  0  0  0  0  0  0  0  0  0  0
   47.3360   33.8560   42.9310 C   0  0  0  0  0  0  0  0  0  0  0  0
   46.8950   33.8880   44.2040 N   0  0  0  0  0  0  0  0  0  0  0  0
   45.6320   34.2070   44.5420 C   0  0  0  0  0  0  0  0  0  0  0  0
   44.7640   34.5090   43.5830 N   0  0  0  0  0  0  0  0  0  0  0  0
   46.7680   34.1500   40.9230 H   0  0  0  0  0  0  0  0  0  0  0  0
   48.7140   33.5040   42.6080 C   0  0  0  0  0  0  0  0  0  0  0  0
   49.7680   34.3900   42.6760 C   0  0  0  0  0  0  0  0  0  0  0  0
   49.7620   35.4320   42.9620 H   0  0  0  0  0  0  0  0  0  0  0  0
   50.8530   33.5980   42.2810 C   0  0  0  0  0  0  0  0  0  0  0  0
   51.8810   33.9270   42.2010 H   0  0  0  0  0  0  0  0  0  0  0  0
   50.4020   32.3080   42.0020 C   0  0  0  0  0  0  0  0  0  0  0  0
   50.9520   31.4370   41.6730 H   0  0  0  0  0  0  0  0  0  0  0  0
   49.1030   32.3240   42.2210 O   0  0  0  0  0  0  0  0  0  0  0  0
   45.2870   34.2020   45.9510 C   0  0  0  0  0  0  0  0  0  0  0  0
   44.4060   34.9970   46.3450 O   0  0  0  0  0  0  0  0  0  0  0  0
   45.9910   33.2730   46.7960 N   0  0  0  0  0  0  0  0  0  0  0  0
   45.6590   32.3920   47.2490 H   0  0  0  0  0  0  0  0  0  0  0  0
   46.9850   33.5180   46.9830 H   0  0  0  0  0  0  0  0  0  0  0  0
   43.9890   34.9060   40.9580 S   0  0  0  0  0  0  0  0  0  0  0  0
   42.2600   34.7660   41.4290 C   0  0  0  0  0  0  0  0  0  0  0  0
   42.2050   34.8790   42.5360 H   0  0  0  0  0  0  0  0  0  0  0  0
   41.9210   33.7360   41.1250 H   0  0  0  0  0  0  0  0  0  0  0  0
   41.3700   35.7810   40.7980 C   0  0  0  0  0  0  0  0  0  0  0  0
   41.9310   36.5960   40.2920 H   0  0  0  0  0  0  0  0  0  0  0  0
   40.7810   36.2780   41.6140 H   0  0  0  0  0  0  0  0  0  0  0  0
   42.0880   36.0290   37.8600 Cl  0  0  0  0  0  0  0  0  0  0  0  0
   40.6820   35.2080   38.4540 C   0  0  0  0  0  0  0  0  0  0  0  0
   40.4480   35.1560   39.8320 C   0  0  0  0  0  0  0  0  0  0  0  0
   39.3090   34.4840   40.2270 C   0  0  0  0  0  0  0  0  0  0  0  0
   38.3790   33.8630   39.4000 C   0  0  0  0  0  0  0  0  0  0  0  0
   38.6490   33.9380   38.0460 C   0  0  0  0  0  0  0  0  0  0  0  0
   37.5290   33.1810   36.9140 Cl  0  0  0  0  0  0  0  0  0  0  0  0
   39.7700   34.5940   37.5930 C   0  0  0  0  0  0  0  0  0  0  0  0
   39.1290   34.4440   41.2950 H   0  0  0  0  0  0  0  0  0  0  0  0
   37.5250   33.3670   39.8170 H   0  0  0  0  0  0  0  0  0  0  0  0
   39.9570   34.6390   36.5260 H   0  0  0  0  0  0  0  0  0  0  0  0
  1  6  1  0  0  0  0
  2  1  2  0  0  0  0
  2  3  1  0  0  0  0
  3  4  2  0  0  0  0
  4  5  1  0  0  0  0
  5 16  1  0  0  0  0
  6  5  2  0  0  0  0
  7  2  1  0  0  0  0
  8  9  2  0  0  0  0
  8  3  1  0  0  0  0
  9 10  1  0  0  0  0
 11  9  1  0  0  0  0
 12 11  1  0  0  0  0
 13 15  1  0  0  0  0
 13 11  2  0  0  0  0
 14 13  1  0  0  0  0
 15  8  1  0  0  0  0
 16 17  2  0  0  0  0
 16 18  1  0  0  0  0
 18 20  1  0  0  0  0
 18 19  1  0  0  0  0
 21 22  1  0  0  0  0
 21  1  1  0  0  0  0
 22 23  1  0  0  0  0
 24 22  1  0  0  0  0
 25 22  1  0  0  0  0
 25 27  1  0  0  0  0
 26 25  1  0  0  0  0
 28 29  1  0  0  0  0
 29 30  1  0  0  0  0
 30 31  2  0  0  0  0
 30 25  1  0  0  0  0
 31 36  1  0  0  0  0
 32 37  1  0  0  0  0
 32 31  1  0  0  0  0
 33 32  2  0  0  0  0
 34 33  1  0  0  0  0
 35 33  1  0  0  0  0
 35 29  2  0  0  0  0
 38 35  1  0  0  0  0
M  END
>  <minimizedAffinity>
-6.98700666

>  <minimizedRMSD>
0.626691222

$$$$
