
 OpenBabel03242513253D

 44 47  0  0  1  0  0  0  0  0999 V2000
   38.3560   26.9990   43.4150 C   0  0  2  0  0  0  0  0  0  0  0  0
   39.8540   27.0270   43.6780 C   0  0  0  0  0  0  0  0  0  0  0  0
   40.2040   25.7380   42.9450 C   0  0  0  0  0  0  0  0  0  0  0  0
   39.4480   25.7690   41.8020 O   0  0  0  0  0  0  0  0  0  0  0  0
   38.3550   26.5780   41.9880 C   0  0  1  0  0  0  0  0  0  0  0  0
   37.9350   26.2920   44.1240 H   0  0  0  0  0  0  0  0  0  0  0  0
   40.3630   27.8920   43.2310 H   0  0  0  0  0  0  0  0  0  0  0  0
   40.0400   26.9380   44.7630 H   0  0  0  0  0  0  0  0  0  0  0  0
   41.2790   25.7460   42.7090 H   0  0  0  0  0  0  0  0  0  0  0  0
   39.9780   24.8710   43.6040 H   0  0  0  0  0  0  0  0  0  0  0  0
   38.4370   27.4230   41.3090 H   0  0  0  0  0  0  0  0  0  0  0  0
   37.1160   25.8170   41.6420 C   0  0  1  0  0  0  0  0  0  0  0  0
   36.7240   26.0060   40.1870 C   0  0  0  0  0  0  0  0  0  0  0  0
   36.3290   24.6150   39.7740 C   0  0  0  0  0  0  0  0  0  0  0  0
   36.2420   23.8720   40.9580 O   0  0  0  0  0  0  0  0  0  0  0  0
   37.3610   24.3100   41.6600 C   0  0  0  0  0  0  0  0  0  0  0  0
   36.2600   26.0140   42.3120 H   0  0  0  0  0  0  0  0  0  0  0  0
   37.5840   26.4070   39.6230 H   0  0  0  0  0  0  0  0  0  0  0  0
   35.8890   26.7420   40.1300 H   0  0  0  0  0  0  0  0  0  0  0  0
   35.3090   24.6580   39.3010 H   0  0  0  0  0  0  0  0  0  0  0  0
   37.0510   24.1990   39.0600 H   0  0  0  0  0  0  0  0  0  0  0  0
   38.2200   24.0440   40.9980 H   0  0  0  0  0  0  0  0  0  0  0  0
   37.4350   23.9180   42.6790 H   0  0  0  0  0  0  0  0  0  0  0  0
   37.7210   28.3250   43.6680 C   0  0  0  0  0  0  0  0  0  0  0  0
   38.4400   28.8990   44.3170 H   0  0  0  0  0  0  0  0  0  0  0  0
   36.7750   28.2290   44.2470 H   0  0  0  0  0  0  0  0  0  0  0  0
   38.2030   30.1450   42.1150 C   0  0  0  0  0  3  0  0  0  0  0  0
   37.4770   29.1120   42.4450 C   0  0  0  0  0  3  0  0  0  0  0  0
   38.0080   32.8940   39.7250 C   0  0  0  0  0  0  0  0  0  0  0  0
   37.4240   32.2670   38.5870 C   0  0  0  0  0  0  0  0  0  0  0  0
   37.1200   30.9140   38.6940 C   0  0  0  0  0  0  0  0  0  0  0  0
   37.3930   30.2760   39.8600 N   0  0  0  0  0  0  0  0  0  0  0  0
   37.9470   30.8960   40.9200 C   0  0  0  0  0  0  0  0  0  0  0  0
   38.2550   32.1860   40.8660 N   0  0  0  0  0  0  0  0  0  0  0  0
   38.2550   33.9460   39.6710 H   0  0  0  0  0  0  0  0  0  0  0  0
   37.2210   32.7900   37.6880 H   0  0  0  0  0  0  0  0  0  0  0  0
   36.5190   30.1540   37.6040 C   0  0  0  0  0  0  0  0  0  0  0  0
   35.4650   29.2830   37.7350 C   0  0  0  0  0  0  0  0  0  0  0  0
   34.8910   28.9880   38.5900 H   0  0  0  0  0  0  0  0  0  0  0  0
   35.2040   28.7710   36.4650 C   0  0  0  0  0  0  0  0  0  0  0  0
   34.5000   28.0790   36.0660 H   0  0  0  0  0  0  0  0  0  0  0  0
   36.1200   29.3650   35.6410 C   0  0  0  0  0  0  0  0  0  0  0  0
   36.2840   29.2590   34.5650 H   0  0  0  0  0  0  0  0  0  0  0  0
   36.8740   30.1660   36.3330 O   0  0  0  0  0  0  0  0  0  0  0  0
  1 24  1  0  0  0  0
  1  2  1  0  0  0  0
  1  6  1  1  0  0  0
  2  8  1  0  0  0  0
  3 10  1  0  0  0  0
  3  2  1  0  0  0  0
  4  5  1  0  0  0  0
  4  3  1  0  0  0  0
  5 11  1  6  0  0  0
  5  1  1  0  0  0  0
  7  2  1  0  0  0  0
  9  3  1  0  0  0  0
 12 16  1  0  0  0  0
 12  5  1  0  0  0  0
 12 17  1  1  0  0  0
 13 12  1  0  0  0  0
 14 13  1  0  0  0  0
 14 15  1  0  0  0  0
 15 16  1  0  0  0  0
 16 23  1  0  0  0  0
 18 13  1  0  0  0  0
 19 13  1  0  0  0  0
 20 14  1  0  0  0  0
 21 14  1  0  0  0  0
 22 16  1  0  0  0  0
 24 26  1  0  0  0  0
 24 25  1  0  0  0  0
 27 28  2  0  0  0  0
 28 24  1  0  0  0  0
 29 34  1  0  0  0  0
 30 31  1  0  0  0  0
 30 29  2  0  0  0  0
 31 32  2  0  0  0  0
 32 33  1  0  0  0  0
 33 27  1  0  0  0  0
 34 33  2  0  0  0  0
 35 29  1  0  0  0  0
 36 30  1  0  0  0  0
 37 38  2  0  0  0  0
 37 31  1  0  0  0  0
 38 39  1  0  0  0  0
 40 38  1  0  0  0  0
 41 40  1  0  0  0  0
 42 44  1  0  0  0  0
 42 40  2  0  0  0  0
 43 42  1  0  0  0  0
 44 37  1  0  0  0  0
M  END
>  <minimizedAffinity>
-5.68645716

$$$$

 OpenBabel03242513253D

 44 47  0  0  1  0  0  0  0  0999 V2000
   37.5270   26.7090   43.0580 C   0  0  2  0  0  0  0  0  0  0  0  0
   38.7240   27.4200   43.6720 C   0  0  0  0  0  0  0  0  0  0  0  0
   39.6830   26.2380   43.6490 C   0  0  0  0  0  0  0  0  0  0  0  0
   39.4670   25.6330   42.4380 O   0  0  0  0  0  0  0  0  0  0  0  0
   38.2090   25.9410   41.9820 C   0  0  1  0  0  0  0  0  0  0  0  0
   37.0790   26.1230   43.8550 H   0  0  0  0  0  0  0  0  0  0  0  0
   39.1000   28.2530   43.0610 H   0  0  0  0  0  0  0  0  0  0  0  0
   38.4820   27.7240   44.7050 H   0  0  0  0  0  0  0  0  0  0  0  0
   40.7150   26.6170   43.7230 H   0  0  0  0  0  0  0  0  0  0  0  0
   39.4720   25.5780   44.5190 H   0  0  0  0  0  0  0  0  0  0  0  0
   38.3100   26.5160   41.0650 H   0  0  0  0  0  0  0  0  0  0  0  0
   37.4790   24.6760   41.6640 C   0  0  1  0  0  0  0  0  0  0  0  0
   36.6650   24.8000   40.3880 C   0  0  0  0  0  0  0  0  0  0  0  0
   36.9250   23.4830   39.7080 C   0  0  0  0  0  0  0  0  0  0  0  0
   37.5490   22.6730   40.6650 O   0  0  0  0  0  0  0  0  0  0  0  0
   38.4400   23.5600   41.2620 C   0  0  0  0  0  0  0  0  0  0  0  0
   36.8600   24.2880   42.4920 H   0  0  0  0  0  0  0  0  0  0  0  0
   37.0160   25.6710   39.8090 H   0  0  0  0  0  0  0  0  0  0  0  0
   35.5950   24.9590   40.6550 H   0  0  0  0  0  0  0  0  0  0  0  0
   35.9360   23.0200   39.4350 H   0  0  0  0  0  0  0  0  0  0  0  0
   37.5310   23.6220   38.8040 H   0  0  0  0  0  0  0  0  0  0  0  0
   39.0980   23.8910   40.4220 H   0  0  0  0  0  0  0  0  0  0  0  0
   38.9750   23.1490   42.1230 H   0  0  0  0  0  0  0  0  0  0  0  0
   36.4960   27.6720   42.5710 C   0  0  0  0  0  0  0  0  0  0  0  0
   36.2520   28.3390   43.4430 H   0  0  0  0  0  0  0  0  0  0  0  0
   35.5500   27.1590   42.2860 H   0  0  0  0  0  0  0  0  0  0  0  0
   36.2320   28.7400   40.3930 C   0  0  0  0  0  3  0  0  0  0  0  0
   36.9550   28.5220   41.4560 C   0  0  0  0  0  3  0  0  0  0  0  0
   36.7080   30.1670   37.0700 C   0  0  0  0  0  0  0  0  0  0  0  0
   37.6440   31.2110   37.3180 C   0  0  0  0  0  0  0  0  0  0  0  0
   38.0750   31.3790   38.6290 C   0  0  0  0  0  0  0  0  0  0  0  0
   37.5850   30.5500   39.5860 N   0  0  0  0  0  0  0  0  0  0  0  0
   36.6990   29.5710   39.3210 C   0  0  0  0  0  0  0  0  0  0  0  0
   36.2580   29.3720   38.0840 N   0  0  0  0  0  0  0  0  0  0  0  0
   36.3550   30.0140   36.0580 H   0  0  0  0  0  0  0  0  0  0  0  0
   38.0110   31.8450   36.5510 H   0  0  0  0  0  0  0  0  0  0  0  0
   39.0310   32.4090   39.0190 C   0  0  0  0  0  0  0  0  0  0  0  0
   38.8000   33.3900   39.9520 C   0  0  0  0  0  0  0  0  0  0  0  0
   37.9420   33.6060   40.5560 H   0  0  0  0  0  0  0  0  0  0  0  0
   39.9590   34.1600   40.0240 C   0  0  0  0  0  0  0  0  0  0  0  0
   40.2590   35.0120   40.5880 H   0  0  0  0  0  0  0  0  0  0  0  0
   40.8240   33.5970   39.1270 C   0  0  0  0  0  0  0  0  0  0  0  0
   41.8470   33.8720   38.8530 H   0  0  0  0  0  0  0  0  0  0  0  0
   40.2550   32.5770   38.5550 O   0  0  0  0  0  0  0  0  0  0  0  0
  1  2  1  0  0  0  0
  1  6  1  1  0  0  0
  2  8  1  0  0  0  0
  3  2  1  0  0  0  0
  3  9  1  0  0  0  0
  3 10  1  0  0  0  0
  4  3  1  0  0  0  0
  5 11  1  6  0  0  0
  5  4  1  0  0  0  0
  5  1  1  0  0  0  0
  7  2  1  0  0  0  0
 12  5  1  0  0  0  0
 12 17  1  1  0  0  0
 13 19  1  0  0  0  0
 13 12  1  0  0  0  0
 14 13  1  0  0  0  0
 14 15  1  0  0  0  0
 15 16  1  0  0  0  0
 16 12  1  0  0  0  0
 16 23  1  0  0  0  0
 18 13  1  0  0  0  0
 20 14  1  0  0  0  0
 21 14  1  0  0  0  0
 22 16  1  0  0  0  0
 24  1  1  0  0  0  0
 24 25  1  0  0  0  0
 26 24  1  0  0  0  0
 27 28  2  0  0  0  0
 28 24  1  0  0  0  0
 29 30  2  0  0  0  0
 29 34  1  0  0  0  0
 30 31  1  0  0  0  0
 31 37  1  0  0  0  0
 31 32  2  0  0  0  0
 33 32  1  0  0  0  0
 33 27  1  0  0  0  0
 34 33  2  0  0  0  0
 35 29  1  0  0  0  0
 36 30  1  0  0  0  0
 37 38  2  0  0  0  0
 38 40  1  0  0  0  0
 38 39  1  0  0  0  0
 40 41  1  0  0  0  0
 42 40  2  0  0  0  0
 43 42  1  0  0  0  0
 44 37  1  0  0  0  0
 44 42  1  0  0  0  0
M  END
>  <minimizedAffinity>
-5.49787617

$$$$

 OpenBabel03242513253D

 44 47  0  0  1  0  0  0  0  0999 V2000
   39.3310   31.4690   40.9620 C   0  0  2  0  0  0  0  0  0  0  0  0
   40.4320   32.5040   40.7920 C   0  0  0  0  0  0  0  0  0  0  0  0
   39.9140   33.1290   39.5030 C   0  0  0  0  0  0  0  0  0  0  0  0
   38.5570   33.2170   39.6760 O   0  0  0  0  0  0  0  0  0  0  0  0
   38.1450   32.2950   40.6070 C   0  0  1  0  0  0  0  0  0  0  0  0
   39.5700   30.6560   40.2820 H   0  0  0  0  0  0  0  0  0  0  0  0
   40.4710   33.2410   41.6070 H   0  0  0  0  0  0  0  0  0  0  0  0
   41.3980   31.9940   40.6340 H   0  0  0  0  0  0  0  0  0  0  0  0
   40.3640   34.1270   39.3870 H   0  0  0  0  0  0  0  0  0  0  0  0
   40.2110   32.4900   38.6430 H   0  0  0  0  0  0  0  0  0  0  0  0
   37.7440   32.8300   41.4630 H   0  0  0  0  0  0  0  0  0  0  0  0
   37.0520   31.4610   40.0210 C   0  0  1  0  0  0  0  0  0  0  0  0
   37.5950   30.2240   39.3270 C   0  0  0  0  0  0  0  0  0  0  0  0
   36.6290   29.1570   39.7630 C   0  0  0  0  0  0  0  0  0  0  0  0
   35.5550   29.8290   40.3580 O   0  0  0  0  0  0  0  0  0  0  0  0
   36.2020   30.8070   41.1080 C   0  0  0  0  0  0  0  0  0  0  0  0
   36.3620   32.0150   39.3600 H   0  0  0  0  0  0  0  0  0  0  0  0
   38.6320   30.0410   39.6580 H   0  0  0  0  0  0  0  0  0  0  0  0
   37.5990   30.3980   38.2270 H   0  0  0  0  0  0  0  0  0  0  0  0
   36.2540   28.6190   38.8490 H   0  0  0  0  0  0  0  0  0  0  0  0
   37.1140   28.4420   40.4400 H   0  0  0  0  0  0  0  0  0  0  0  0
   36.8450   30.2270   41.8140 H   0  0  0  0  0  0  0  0  0  0  0  0
   35.5300   31.5230   41.5910 H   0  0  0  0  0  0  0  0  0  0  0  0
   39.3010   30.9090   42.3440 C   0  0  0  0  0  0  0  0  0  0  0  0
   38.2510   31.0580   42.7220 H   0  0  0  0  0  0  0  0  0  0  0  0
   39.9710   31.4680   43.0350 H   0  0  0  0  0  0  0  0  0  0  0  0
   38.7310   28.5740   42.7640 C   0  0  0  0  0  3  0  0  0  0  0  0
   39.6110   29.4680   42.4100 C   0  0  0  0  0  3  0  0  0  0  0  0
   40.3190   25.4190   43.6790 C   0  0  0  0  0  0  0  0  0  0  0  0
   39.6190   24.4800   42.8700 C   0  0  0  0  0  0  0  0  0  0  0  0
   38.6220   24.9770   42.0380 C   0  0  0  0  0  0  0  0  0  0  0  0
   38.3760   26.3120   42.0440 N   0  0  0  0  0  0  0  0  0  0  0  0
   39.0550   27.1770   42.8210 C   0  0  0  0  0  0  0  0  0  0  0  0
   40.0160   26.7500   43.6320 N   0  0  0  0  0  0  0  0  0  0  0  0
   41.1000   25.0610   44.3370 H   0  0  0  0  0  0  0  0  0  0  0  0
   39.8310   23.4410   42.8860 H   0  0  0  0  0  0  0  0  0  0  0  0
   37.8300   24.1240   41.1600 C   0  0  0  0  0  0  0  0  0  0  0  0
   36.4890   24.2770   40.9070 C   0  0  0  0  0  0  0  0  0  0  0  0
   35.7780   24.9950   41.2630 H   0  0  0  0  0  0  0  0  0  0  0  0
   36.1260   23.2630   40.0240 C   0  0  0  0  0  0  0  0  0  0  0  0
   35.2180   22.9720   39.5480 H   0  0  0  0  0  0  0  0  0  0  0  0
   37.2730   22.5550   39.7950 C   0  0  0  0  0  0  0  0  0  0  0  0
   37.4560   21.6770   39.1680 H   0  0  0  0  0  0  0  0  0  0  0  0
   38.2520   23.0790   40.4710 O   0  0  0  0  0  0  0  0  0  0  0  0
  1  6  1  6  0  0  0
  1 24  1  0  0  0  0
  2  1  1  0  0  0  0
  2  7  1  0  0  0  0
  3  4  1  0  0  0  0
  3  2  1  0  0  0  0
  4  5  1  0  0  0  0
  5  1  1  0  0  0  0
  5 11  1  1  0  0  0
  8  2  1  0  0  0  0
  9  3  1  0  0  0  0
 10  3  1  0  0  0  0
 12 17  1  6  0  0  0
 12  5  1  0  0  0  0
 12 16  1  0  0  0  0
 13 18  1  0  0  0  0
 13 14  1  0  0  0  0
 13 12  1  0  0  0  0
 14 15  1  0  0  0  0
 14 21  1  0  0  0  0
 15 16  1  0  0  0  0
 16 23  1  0  0  0  0
 16 22  1  0  0  0  0
 19 13  1  0  0  0  0
 20 14  1  0  0  0  0
 24 28  1  0  0  0  0
 24 25  1  0  0  0  0
 24 26  1  0  0  0  0
 27 33  1  0  0  0  0
 28 27  2  0  0  0  0
 29 35  1  0  0  0  0
 30 36  1  0  0  0  0
 30 29  2  0  0  0  0
 31 32  2  0  0  0  0
 31 30  1  0  0  0  0
 32 33  1  0  0  0  0
 33 34  2  0  0  0  0
 34 29  1  0  0  0  0
 37 31  1  0  0  0  0
 38 37  2  0  0  0  0
 38 39  1  0  0  0  0
 40 38  1  0  0  0  0
 41 40  1  0  0  0  0
 42 40  2  0  0  0  0
 42 44  1  0  0  0  0
 43 42  1  0  0  0  0
 44 37  1  0  0  0  0
M  END
>  <minimizedAffinity>
-5.45363283

$$$$

 OpenBabel03242513253D

 44 47  0  0  1  0  0  0  0  0999 V2000
   38.7540   26.7170   43.4570 C   0  0  2  0  0  0  0  0  0  0  0  0
   40.2380   26.9660   43.6790 C   0  0  0  0  0  0  0  0  0  0  0  0
   40.7510   25.7060   42.9930 C   0  0  0  0  0  0  0  0  0  0  0  0
   39.9760   25.5770   41.8710 O   0  0  0  0  0  0  0  0  0  0  0  0
   38.7830   26.2340   42.0500 C   0  0  1  0  0  0  0  0  0  0  0  0
   38.4510   25.9910   44.2070 H   0  0  0  0  0  0  0  0  0  0  0  0
   40.6100   27.8720   43.1810 H   0  0  0  0  0  0  0  0  0  0  0  0
   40.4570   26.9550   44.7610 H   0  0  0  0  0  0  0  0  0  0  0  0
   41.8090   25.8530   42.7290 H   0  0  0  0  0  0  0  0  0  0  0  0
   40.6630   24.8480   43.6950 H   0  0  0  0  0  0  0  0  0  0  0  0
   38.7310   27.0490   41.3330 H   0  0  0  0  0  0  0  0  0  0  0  0
   37.6570   25.2910   41.7710 C   0  0  1  0  0  0  0  0  0  0  0  0
   36.8820   25.6900   40.5270 C   0  0  0  0  0  0  0  0  0  0  0  0
   36.6550   24.3680   39.8480 C   0  0  0  0  0  0  0  0  0  0  0  0
   37.0080   23.3880   40.7840 O   0  0  0  0  0  0  0  0  0  0  0  0
   38.1690   23.9190   41.3390 C   0  0  0  0  0  0  0  0  0  0  0  0
   36.9780   25.1290   42.6260 H   0  0  0  0  0  0  0  0  0  0  0  0
   37.4830   26.3960   39.9290 H   0  0  0  0  0  0  0  0  0  0  0  0
   35.9390   26.1990   40.8360 H   0  0  0  0  0  0  0  0  0  0  0  0
   35.5580   24.2660   39.6180 H   0  0  0  0  0  0  0  0  0  0  0  0
   37.2360   24.2990   38.9190 H   0  0  0  0  0  0  0  0  0  0  0  0
   38.8660   24.0150   40.4710 H   0  0  0  0  0  0  0  0  0  0  0  0
   38.5690   23.3460   42.1810 H   0  0  0  0  0  0  0  0  0  0  0  0
   37.9430   27.9510   43.6690 C   0  0  0  0  0  0  0  0  0  0  0  0
   38.1760   28.3050   44.7120 H   0  0  0  0  0  0  0  0  0  0  0  0
   36.8500   27.7410   43.6400 H   0  0  0  0  0  0  0  0  0  0  0  0
   37.3490   29.6890   42.0630 C   0  0  0  0  0  3  0  0  0  0  0  0
   38.2640   29.0430   42.7310 C   0  0  0  0  0  3  0  0  0  0  0  0
   37.0590   32.3510   39.5850 C   0  0  0  0  0  0  0  0  0  0  0  0
   38.4100   32.7750   39.4340 C   0  0  0  0  0  0  0  0  0  0  0  0
   39.3700   32.1200   40.1980 C   0  0  0  0  0  0  0  0  0  0  0  0
   38.9710   31.1280   41.0330 N   0  0  0  0  0  0  0  0  0  0  0  0
   37.6840   30.7490   41.1550 C   0  0  0  0  0  0  0  0  0  0  0  0
   36.7320   31.3430   40.4470 N   0  0  0  0  0  0  0  0  0  0  0  0
   36.2900   32.8430   39.0030 H   0  0  0  0  0  0  0  0  0  0  0  0
   38.6950   33.5540   38.7740 H   0  0  0  0  0  0  0  0  0  0  0  0
   40.7880   32.4560   40.1380 C   0  0  0  0  0  0  0  0  0  0  0  0
   41.6900   31.9220   39.2500 C   0  0  0  0  0  0  0  0  0  0  0  0
   41.5720   31.2020   38.4660 H   0  0  0  0  0  0  0  0  0  0  0  0
   42.9250   32.5050   39.5290 C   0  0  0  0  0  0  0  0  0  0  0  0
   43.9040   32.4160   39.1220 H   0  0  0  0  0  0  0  0  0  0  0  0
   42.6940   33.3580   40.5730 C   0  0  0  0  0  0  0  0  0  0  0  0
   43.3740   34.0210   41.1150 H   0  0  0  0  0  0  0  0  0  0  0  0
   41.4380   33.3080   40.9070 O   0  0  0  0  0  0  0  0  0  0  0  0
  1 24  1  0  0  0  0
  1  2  1  0  0  0  0
  1  6  1  1  0  0  0
  2  8  1  0  0  0  0
  3  2  1  0  0  0  0
  3 10  1  0  0  0  0
  4  5  1  0  0  0  0
  4  3  1  0  0  0  0
  5 11  1  6  0  0  0
  5  1  1  0  0  0  0
  7  2  1  0  0  0  0
  9  3  1  0  0  0  0
 12  5  1  0  0  0  0
 12 17  1  1  0  0  0
 13 19  1  0  0  0  0
 13 12  1  0  0  0  0
 14 13  1  0  0  0  0
 14 15  1  0  0  0  0
 15 16  1  0  0  0  0
 16 12  1  0  0  0  0
 16 23  1  0  0  0  0
 18 13  1  0  0  0  0
 20 14  1  0  0  0  0
 21 14  1  0  0  0  0
 22 16  1  0  0  0  0
 24 25  1  0  0  0  0
 26 24  1  0  0  0  0
 27 28  2  0  0  0  0
 28 24  1  0  0  0  0
 29 34  1  0  0  0  0
 30 29  2  0  0  0  0
 30 31  1  0  0  0  0
 31 32  2  0  0  0  0
 32 33  1  0  0  0  0
 33 27  1  0  0  0  0
 34 33  2  0  0  0  0
 35 29  1  0  0  0  0
 36 30  1  0  0  0  0
 37 31  1  0  0  0  0
 37 44  1  0  0  0  0
 38 40  1  0  0  0  0
 38 37  2  0  0  0  0
 39 38  1  0  0  0  0
 40 42  2  0  0  0  0
 41 40  1  0  0  0  0
 42 44  1  0  0  0  0
 42 43  1  0  0  0  0
M  END
>  <minimizedAffinity>
-5.28397036

$$$$

 OpenBabel03242513253D

 44 47  0  0  1  0  0  0  0  0999 V2000
   35.7840   29.8850   39.5920 C   0  0  2  0  0  0  0  0  0  0  0  0
   34.9080   28.8800   38.8600 C   0  0  0  0  0  0  0  0  0  0  0  0
   35.2860   29.2900   37.4420 C   0  0  0  0  0  0  0  0  0  0  0  0
   36.6390   29.5020   37.4870 O   0  0  0  0  0  0  0  0  0  0  0  0
   37.0230   29.7890   38.7740 C   0  0  1  0  0  0  0  0  0  0  0  0
   35.2560   30.8340   39.5530 H   0  0  0  0  0  0  0  0  0  0  0  0
   35.1800   27.8330   39.0600 H   0  0  0  0  0  0  0  0  0  0  0  0
   33.8460   29.0910   39.0720 H   0  0  0  0  0  0  0  0  0  0  0  0
   35.0380   28.4640   36.7570 H   0  0  0  0  0  0  0  0  0  0  0  0
   34.7030   30.1930   37.1560 H   0  0  0  0  0  0  0  0  0  0  0  0
   37.6840   28.9970   39.1170 H   0  0  0  0  0  0  0  0  0  0  0  0
   37.7870   31.0730   38.7840 C   0  0  1  0  0  0  0  0  0  0  0  0
   36.9790   32.2070   39.3910 C   0  0  0  0  0  0  0  0  0  0  0  0
   37.9970   32.9100   40.2450 C   0  0  0  0  0  0  0  0  0  0  0  0
   39.2400   32.3800   39.8790 O   0  0  0  0  0  0  0  0  0  0  0  0
   38.9560   31.0220   39.7650 C   0  0  0  0  0  0  0  0  0  0  0  0
   38.2010   31.3640   37.8020 H   0  0  0  0  0  0  0  0  0  0  0  0
   36.1340   31.7900   39.9660 H   0  0  0  0  0  0  0  0  0  0  0  0
   36.5720   32.8410   38.5700 H   0  0  0  0  0  0  0  0  0  0  0  0
   37.9840   34.0060   39.9880 H   0  0  0  0  0  0  0  0  0  0  0  0
   37.7740   32.7780   41.3120 H   0  0  0  0  0  0  0  0  0  0  0  0
   38.6020   30.7320   40.7840 H   0  0  0  0  0  0  0  0  0  0  0  0
   39.7860   30.4190   39.3850 H   0  0  0  0  0  0  0  0  0  0  0  0
   35.9640   29.5260   41.0290 C   0  0  0  0  0  0  0  0  0  0  0  0
   34.9330   29.3300   41.4350 H   0  0  0  0  0  0  0  0  0  0  0  0
   36.3840   30.3700   41.6190 H   0  0  0  0  0  0  0  0  0  0  0  0
   37.5570   28.1650   42.2790 C   0  0  0  0  0  3  0  0  0  0  0  0
   36.7800   28.3150   41.2430 C   0  0  0  0  0  3  0  0  0  0  0  0
   39.9040   25.7480   43.6790 C   0  0  0  0  0  0  0  0  0  0  0  0
   39.8150   24.6670   42.7570 C   0  0  0  0  0  0  0  0  0  0  0  0
   38.9430   24.8190   41.6840 C   0  0  0  0  0  0  0  0  0  0  0  0
   38.2370   25.9720   41.5770 N   0  0  0  0  0  0  0  0  0  0  0  0
   38.3420   26.9780   42.4670 C   0  0  0  0  0  0  0  0  0  0  0  0
   39.1600   26.8800   43.5080 N   0  0  0  0  0  0  0  0  0  0  0  0
   40.5740   25.6580   44.5250 H   0  0  0  0  0  0  0  0  0  0  0  0
   40.3780   23.7760   42.8630 H   0  0  0  0  0  0  0  0  0  0  0  0
   38.7580   23.7890   40.6670 C   0  0  0  0  0  0  0  0  0  0  0  0
   37.7740   22.8300   40.6840 C   0  0  0  0  0  0  0  0  0  0  0  0
   36.9860   22.6350   41.3820 H   0  0  0  0  0  0  0  0  0  0  0  0
   37.9510   22.0510   39.5420 C   0  0  0  0  0  0  0  0  0  0  0  0
   37.4500   21.2100   39.1240 H   0  0  0  0  0  0  0  0  0  0  0  0
   39.0340   22.5880   38.9020 C   0  0  0  0  0  0  0  0  0  0  0  0
   39.5270   22.2980   37.9700 H   0  0  0  0  0  0  0  0  0  0  0  0
   39.4850   23.6000   39.5820 O   0  0  0  0  0  0  0  0  0  0  0  0
  1  6  1  6  0  0  0
  1 24  1  0  0  0  0
  2  7  1  0  0  0  0
  2  8  1  0  0  0  0
  2  1  1  0  0  0  0
  3  4  1  0  0  0  0
  3  2  1  0  0  0  0
  4  5  1  0  0  0  0
  5 12  1  0  0  0  0
  5 11  1  1  0  0  0
  5  1  1  0  0  0  0
  9  3  1  0  0  0  0
 10  3  1  0  0  0  0
 12 17  1  6  0  0  0
 12 13  1  0  0  0  0
 12 16  1  0  0  0  0
 13 18  1  0  0  0  0
 13 14  1  0  0  0  0
 14 21  1  0  0  0  0
 15 14  1  0  0  0  0
 16 15  1  0  0  0  0
 16 22  1  0  0  0  0
 19 13  1  0  0  0  0
 20 14  1  0  0  0  0
 23 16  1  0  0  0  0
 24 28  1  0  0  0  0
 24 25  1  0  0  0  0
 24 26  1  0  0  0  0
 27 33  1  0  0  0  0
 28 27  2  0  0  0  0
 29 35  1  0  0  0  0
 30 36  1  0  0  0  0
 30 29  2  0  0  0  0
 31 30  1  0  0  0  0
 32 31  2  0  0  0  0
 32 33  1  0  0  0  0
 33 34  2  0  0  0  0
 34 29  1  0  0  0  0
 37 38  2  0  0  0  0
 37 31  1  0  0  0  0
 38 39  1  0  0  0  0
 40 38  1  0  0  0  0
 41 40  1  0  0  0  0
 42 40  2  0  0  0  0
 42 44  1  0  0  0  0
 43 42  1  0  0  0  0
 44 37  1  0  0  0  0
M  END
>  <minimizedAffinity>
-5.26802063

$$$$

 OpenBabel03242513253D

 44 47  0  0  1  0  0  0  0  0999 V2000
   36.5830   30.7490   39.5630 C   0  0  2  0  0  0  0  0  0  0  0  0
   36.3610   30.0630   38.2230 C   0  0  0  0  0  0  0  0  0  0  0  0
   37.4360   30.8090   37.4440 C   0  0  0  0  0  0  0  0  0  0  0  0
   38.5040   30.8810   38.2990 O   0  0  0  0  0  0  0  0  0  0  0  0
   38.0700   30.7700   39.5970 C   0  0  1  0  0  0  0  0  0  0  0  0
   36.0900   31.7150   39.4960 H   0  0  0  0  0  0  0  0  0  0  0  0
   36.5600   28.9830   38.2460 H   0  0  0  0  0  0  0  0  0  0  0  0
   35.3500   30.3020   37.8490 H   0  0  0  0  0  0  0  0  0  0  0  0
   37.6880   30.2280   36.5430 H   0  0  0  0  0  0  0  0  0  0  0  0
   37.0420   31.8040   37.1400 H   0  0  0  0  0  0  0  0  0  0  0  0
   38.4860   29.8600   40.0190 H   0  0  0  0  0  0  0  0  0  0  0  0
   38.5830   31.9310   40.3880 C   0  0  1  0  0  0  0  0  0  0  0  0
   39.9770   32.3420   39.9470 C   0  0  0  0  0  0  0  0  0  0  0  0
   39.8860   33.8430   39.9420 C   0  0  0  0  0  0  0  0  0  0  0  0
   38.6870   34.1590   40.5920 O   0  0  0  0  0  0  0  0  0  0  0  0
   37.8130   33.2100   40.0690 C   0  0  0  0  0  0  0  0  0  0  0  0
   38.5390   31.7900   41.4820 H   0  0  0  0  0  0  0  0  0  0  0  0
   40.1920   31.9100   38.9540 H   0  0  0  0  0  0  0  0  0  0  0  0
   40.7190   31.9430   40.6760 H   0  0  0  0  0  0  0  0  0  0  0  0
   40.7420   34.2550   40.5450 H   0  0  0  0  0  0  0  0  0  0  0  0
   39.9330   34.2350   38.9180 H   0  0  0  0  0  0  0  0  0  0  0  0
   37.8200   33.4100   38.9700 H   0  0  0  0  0  0  0  0  0  0  0  0
   36.8180   33.2150   40.5240 H   0  0  0  0  0  0  0  0  0  0  0  0
   35.9500   29.9970   40.6860 C   0  0  0  0  0  0  0  0  0  0  0  0
   35.0150   29.5320   40.2660 H   0  0  0  0  0  0  0  0  0  0  0  0
   35.6290   30.6730   41.5100 H   0  0  0  0  0  0  0  0  0  0  0  0
   36.5290   27.6540   41.0440 C   0  0  0  0  0  3  0  0  0  0  0  0
   36.7950   28.9170   41.2300 C   0  0  0  0  0  3  0  0  0  0  0  0
   37.7280   24.3900   42.1470 C   0  0  0  0  0  0  0  0  0  0  0  0
   39.0320   24.6920   42.6320 C   0  0  0  0  0  0  0  0  0  0  0  0
   39.4450   26.0180   42.5580 C   0  0  0  0  0  0  0  0  0  0  0  0
   38.5940   26.9360   42.0340 N   0  0  0  0  0  0  0  0  0  0  0  0
   37.3660   26.6200   41.5830 C   0  0  0  0  0  0  0  0  0  0  0  0
   36.9260   25.3680   41.6320 N   0  0  0  0  0  0  0  0  0  0  0  0
   37.3800   23.3660   42.1910 H   0  0  0  0  0  0  0  0  0  0  0  0
   39.6780   23.9550   43.0360 H   0  0  0  0  0  0  0  0  0  0  0  0
   40.7560   26.4620   43.0200 C   0  0  0  0  0  0  0  0  0  0  0  0
   41.1100   27.7680   43.2550 C   0  0  0  0  0  0  0  0  0  0  0  0
   40.5560   28.6810   43.1630 H   0  0  0  0  0  0  0  0  0  0  0  0
   42.4370   27.7570   43.6800 C   0  0  0  0  0  0  0  0  0  0  0  0
   43.1360   28.5040   43.9740 H   0  0  0  0  0  0  0  0  0  0  0  0
   42.8060   26.4400   43.6750 C   0  0  0  0  0  0  0  0  0  0  0  0
   43.7570   25.9650   43.9360 H   0  0  0  0  0  0  0  0  0  0  0  0
   41.8050   25.7080   43.2860 O   0  0  0  0  0  0  0  0  0  0  0  0
  1  6  1  6  0  0  0
  1  5  1  0  0  0  0
  1 24  1  0  0  0  0
  2  7  1  0  0  0  0
  2  1  1  0  0  0  0
  3  2  1  0  0  0  0
  3  4  1  0  0  0  0
  4  5  1  0  0  0  0
  5 11  1  1  0  0  0
  5 12  1  0  0  0  0
  8  2  1  0  0  0  0
  9  3  1  0  0  0  0
 10  3  1  0  0  0  0
 12 17  1  1  0  0  0
 13 12  1  0  0  0  0
 13 19  1  0  0  0  0
 14 13  1  0  0  0  0
 14 20  1  0  0  0  0
 14 15  1  0  0  0  0
 16 12  1  0  0  0  0
 16 23  1  0  0  0  0
 16 15  1  0  0  0  0
 18 13  1  0  0  0  0
 21 14  1  0  0  0  0
 22 16  1  0  0  0  0
 24 28  1  0  0  0  0
 24 26  1  0  0  0  0
 25 24  1  0  0  0  0
 27 28  2  0  0  0  0
 27 33  1  0  0  0  0
 29 35  1  0  0  0  0
 29 30  1  0  0  0  0
 30 36  1  0  0  0  0
 31 30  2  0  0  0  0
 31 37  1  0  0  0  0
 32 31  1  0  0  0  0
 33 34  1  0  0  0  0
 33 32  2  0  0  0  0
 34 29  2  0  0  0  0
 37 38  2  0  0  0  0
 37 44  1  0  0  0  0
 38 40  1  0  0  0  0
 39 38  1  0  0  0  0
 40 41  1  0  0  0  0
 42 40  2  0  0  0  0
 42 43  1  0  0  0  0
 44 42  1  0  0  0  0
M  END
>  <minimizedAffinity>
-5.25808382

$$$$

 OpenBabel03242513253D

 44 47  0  0  1  0  0  0  0  0999 V2000
   38.0500   26.4970   42.5590 C   0  0  2  0  0  0  0  0  0  0  0  0
   37.0320   25.4020   42.2800 C   0  0  0  0  0  0  0  0  0  0  0  0
   38.0140   24.3430   41.7950 C   0  0  0  0  0  0  0  0  0  0  0  0
   39.0830   24.4400   42.6470 O   0  0  0  0  0  0  0  0  0  0  0  0
   39.1200   25.6930   43.2080 C   0  0  1  0  0  0  0  0  0  0  0  0
   38.2970   26.9360   41.5970 H   0  0  0  0  0  0  0  0  0  0  0  0
   36.4920   25.0660   43.1760 H   0  0  0  0  0  0  0  0  0  0  0  0
   36.3540   25.7250   41.4700 H   0  0  0  0  0  0  0  0  0  0  0  0
   37.5360   23.3550   41.8710 H   0  0  0  0  0  0  0  0  0  0  0  0
   38.2730   24.5450   40.7330 H   0  0  0  0  0  0  0  0  0  0  0  0
   38.9680   25.5910   44.2790 H   0  0  0  0  0  0  0  0  0  0  0  0
   40.4700   26.2930   42.9820 C   0  0  1  0  0  0  0  0  0  0  0  0
   41.5610   25.2360   42.9600 C   0  0  0  0  0  0  0  0  0  0  0  0
   42.4230   25.6830   41.8110 C   0  0  0  0  0  0  0  0  0  0  0  0
   41.9900   26.9740   41.4840 O   0  0  0  0  0  0  0  0  0  0  0  0
   40.6060   26.8470   41.5650 C   0  0  0  0  0  0  0  0  0  0  0  0
   40.7260   27.1120   43.6760 H   0  0  0  0  0  0  0  0  0  0  0  0
   41.1080   24.2410   42.8110 H   0  0  0  0  0  0  0  0  0  0  0  0
   42.0900   25.2430   43.9410 H   0  0  0  0  0  0  0  0  0  0  0  0
   43.4890   25.7400   42.1640 H   0  0  0  0  0  0  0  0  0  0  0  0
   42.3480   24.9810   40.9700 H   0  0  0  0  0  0  0  0  0  0  0  0
   40.3600   26.0620   40.8100 H   0  0  0  0  0  0  0  0  0  0  0  0
   40.0600   27.7870   41.4380 H   0  0  0  0  0  0  0  0  0  0  0  0
   37.4840   27.5780   43.4170 C   0  0  0  0  0  0  0  0  0  0  0  0
   38.0290   27.5170   44.4000 H   0  0  0  0  0  0  0  0  0  0  0  0
   36.4060   27.4120   43.6380 H   0  0  0  0  0  0  0  0  0  0  0  0
   37.6980   29.1800   41.5890 C   0  0  0  0  0  3  0  0  0  0  0  0
   37.6750   28.9350   42.8700 C   0  0  0  0  0  3  0  0  0  0  0  0
   37.0520   32.4230   40.0480 C   0  0  0  0  0  0  0  0  0  0  0  0
   38.3260   33.0550   40.1230 C   0  0  0  0  0  0  0  0  0  0  0  0
   39.3610   32.3310   40.7040 C   0  0  0  0  0  0  0  0  0  0  0  0
   39.1020   31.0800   41.1630 N   0  0  0  0  0  0  0  0  0  0  0  0
   37.8850   30.5080   41.0790 C   0  0  0  0  0  0  0  0  0  0  0  0
   36.8660   31.1600   40.5320 N   0  0  0  0  0  0  0  0  0  0  0  0
   36.2280   32.9630   39.6010 H   0  0  0  0  0  0  0  0  0  0  0  0
   38.5010   34.0340   39.7570 H   0  0  0  0  0  0  0  0  0  0  0  0
   40.7130   32.8600   40.8420 C   0  0  0  0  0  0  0  0  0  0  0  0
   41.1720   34.0160   40.2590 C   0  0  0  0  0  0  0  0  0  0  0  0
   40.6880   34.7320   39.6260 H   0  0  0  0  0  0  0  0  0  0  0  0
   42.5050   34.1580   40.6390 C   0  0  0  0  0  0  0  0  0  0  0  0
   43.2670   34.8760   40.4460 H   0  0  0  0  0  0  0  0  0  0  0  0
   42.7720   33.0760   41.4320 C   0  0  0  0  0  0  0  0  0  0  0  0
   43.6900   32.7790   41.9480 H   0  0  0  0  0  0  0  0  0  0  0  0
   41.7080   32.3360   41.5320 O   0  0  0  0  0  0  0  0  0  0  0  0
  1  6  1  6  0  0  0
  1  5  1  0  0  0  0
  1 24  1  0  0  0  0
  2  1  1  0  0  0  0
  2  7  1  0  0  0  0
  3  9  1  0  0  0  0
  3  2  1  0  0  0  0
  3  4  1  0  0  0  0
  4  5  1  0  0  0  0
  5 11  1  1  0  0  0
  8  2  1  0  0  0  0
 10  3  1  0  0  0  0
 12  5  1  0  0  0  0
 12 17  1  1  0  0  0
 13 12  1  0  0  0  0
 13 19  1  0  0  0  0
 14 20  1  0  0  0  0
 14 13  1  0  0  0  0
 15 16  1  0  0  0  0
 15 14  1  0  0  0  0
 16 12  1  0  0  0  0
 18 13  1  0  0  0  0
 21 14  1  0  0  0  0
 22 16  1  0  0  0  0
 23 16  1  0  0  0  0
 24 26  1  0  0  0  0
 24 25  1  0  0  0  0
 27 28  2  0  0  0  0
 28 24  1  0  0  0  0
 29 30  2  0  0  0  0
 29 34  1  0  0  0  0
 30 31  1  0  0  0  0
 31 37  1  0  0  0  0
 31 32  2  0  0  0  0
 33 32  1  0  0  0  0
 33 27  1  0  0  0  0
 34 33  2  0  0  0  0
 35 29  1  0  0  0  0
 36 30  1  0  0  0  0
 37 44  1  0  0  0  0
 38 40  1  0  0  0  0
 38 37  2  0  0  0  0
 39 38  1  0  0  0  0
 40 42  2  0  0  0  0
 41 40  1  0  0  0  0
 42 44  1  0  0  0  0
 42 43  1  0  0  0  0
M  END
>  <minimizedAffinity>
-5.19197989

$$$$

 OpenBabel03242513253D

 44 47  0  0  1  0  0  0  0  0999 V2000
   37.5050   30.9670   40.2960 C   0  0  2  0  0  0  0  0  0  0  0  0
   37.9010   32.4000   40.6170 C   0  0  0  0  0  0  0  0  0  0  0  0
   38.3100   32.8090   39.2080 C   0  0  0  0  0  0  0  0  0  0  0  0
   37.3590   32.2560   38.3910 O   0  0  0  0  0  0  0  0  0  0  0  0
   36.7730   31.1830   39.0190 C   0  0  1  0  0  0  0  0  0  0  0  0
   38.4320   30.4030   40.2270 H   0  0  0  0  0  0  0  0  0  0  0  0
   37.0670   33.0130   40.9850 H   0  0  0  0  0  0  0  0  0  0  0  0
   38.7650   32.4000   41.3050 H   0  0  0  0  0  0  0  0  0  0  0  0
   38.2990   33.9080   39.1400 H   0  0  0  0  0  0  0  0  0  0  0  0
   39.3390   32.4390   39.0050 H   0  0  0  0  0  0  0  0  0  0  0  0
   35.7230   31.4140   39.1790 H   0  0  0  0  0  0  0  0  0  0  0  0
   36.8590   29.9860   38.1280 C   0  0  1  0  0  0  0  0  0  0  0  0
   35.5070   29.3180   37.9480 C   0  0  0  0  0  0  0  0  0  0  0  0
   35.4960   28.9980   36.4780 C   0  0  0  0  0  0  0  0  0  0  0  0
   36.8070   29.2050   36.0290 O   0  0  0  0  0  0  0  0  0  0  0  0
   37.1560   30.3820   36.6840 C   0  0  0  0  0  0  0  0  0  0  0  0
   37.6280   29.2520   38.4270 H   0  0  0  0  0  0  0  0  0  0  0  0
   34.7080   30.0150   38.2530 H   0  0  0  0  0  0  0  0  0  0  0  0
   35.4600   28.4150   38.6000 H   0  0  0  0  0  0  0  0  0  0  0  0
   35.2410   27.9100   36.3510 H   0  0  0  0  0  0  0  0  0  0  0  0
   34.7600   29.6160   35.9480 H   0  0  0  0  0  0  0  0  0  0  0  0
   36.4100   31.1290   36.3190 H   0  0  0  0  0  0  0  0  0  0  0  0
   38.2010   30.6810   36.5460 H   0  0  0  0  0  0  0  0  0  0  0  0
   36.6850   30.3580   41.3820 C   0  0  0  0  0  0  0  0  0  0  0  0
   35.6240   30.3490   41.0080 H   0  0  0  0  0  0  0  0  0  0  0  0
   36.6920   30.9790   42.3060 H   0  0  0  0  0  0  0  0  0  0  0  0
   38.3030   28.6160   41.9300 C   0  0  0  0  0  3  0  0  0  0  0  0
   37.0670   28.9720   41.7130 C   0  0  0  0  0  3  0  0  0  0  0  0
   39.8170   25.7170   43.5470 C   0  0  0  0  0  0  0  0  0  0  0  0
   39.2710   24.6330   42.8020 C   0  0  0  0  0  0  0  0  0  0  0  0
   38.3990   24.9500   41.7660 C   0  0  0  0  0  0  0  0  0  0  0  0
   38.1200   26.2560   41.5280 N   0  0  0  0  0  0  0  0  0  0  0  0
   38.6510   27.2610   42.2500 C   0  0  0  0  0  0  0  0  0  0  0  0
   39.4900   27.0090   43.2490 N   0  0  0  0  0  0  0  0  0  0  0  0
   40.4990   25.5000   44.3590 H   0  0  0  0  0  0  0  0  0  0  0  0
   39.5060   23.6200   43.0100 H   0  0  0  0  0  0  0  0  0  0  0  0
   37.7720   23.9360   40.9270 C   0  0  0  0  0  0  0  0  0  0  0  0
   38.3710   22.7720   40.5110 C   0  0  0  0  0  0  0  0  0  0  0  0
   39.3490   22.3740   40.6920 H   0  0  0  0  0  0  0  0  0  0  0  0
   37.4370   22.0910   39.7330 C   0  0  0  0  0  0  0  0  0  0  0  0
   37.4320   21.1680   39.2040 H   0  0  0  0  0  0  0  0  0  0  0  0
   36.3250   22.8880   39.7250 C   0  0  0  0  0  0  0  0  0  0  0  0
   35.3530   22.7500   39.2420 H   0  0  0  0  0  0  0  0  0  0  0  0
   36.5490   23.9570   40.4300 O   0  0  0  0  0  0  0  0  0  0  0  0
  1  6  1  6  0  0  0
  1  2  1  0  0  0  0
  1 24  1  0  0  0  0
  2  7  1  0  0  0  0
  2  8  1  0  0  0  0
  3  2  1  0  0  0  0
  4  5  1  0  0  0  0
  4  3  1  0  0  0  0
  5 11  1  1  0  0  0
  5  1  1  0  0  0  0
  9  3  1  0  0  0  0
 10  3  1  0  0  0  0
 12 17  1  1  0  0  0
 12  5  1  0  0  0  0
 13 12  1  0  0  0  0
 13 18  1  0  0  0  0
 13 19  1  0  0  0  0
 14 13  1  0  0  0  0
 15 14  1  0  0  0  0
 15 16  1  0  0  0  0
 16 12  1  0  0  0  0
 20 14  1  0  0  0  0
 21 14  1  0  0  0  0
 22 16  1  0  0  0  0
 23 16  1  0  0  0  0
 24 28  1  0  0  0  0
 24 26  1  0  0  0  0
 25 24  1  0  0  0  0
 27 33  1  0  0  0  0
 28 27  2  0  0  0  0
 29 35  1  0  0  0  0
 30 36  1  0  0  0  0
 30 29  2  0  0  0  0
 31 30  1  0  0  0  0
 32 31  2  0  0  0  0
 32 33  1  0  0  0  0
 33 34  2  0  0  0  0
 34 29  1  0  0  0  0
 37 31  1  0  0  0  0
 38 39  1  0  0  0  0
 38 37  2  0  0  0  0
 40 38  1  0  0  0  0
 41 40  1  0  0  0  0
 42 40  2  0  0  0  0
 42 44  1  0  0  0  0
 43 42  1  0  0  0  0
 44 37  1  0  0  0  0
M  END
>  <minimizedAffinity>
-5.14001083

$$$$

 OpenBabel03242513253D

 44 47  0  0  1  0  0  0  0  0999 V2000
   37.3320   30.5030   39.2730 C   0  0  2  0  0  0  0  0  0  0  0  0
   37.4960   32.0000   39.0560 C   0  0  0  0  0  0  0  0  0  0  0  0
   37.7970   32.3740   40.5010 C   0  0  0  0  0  0  0  0  0  0  0  0
   38.6380   31.3910   40.9510 O   0  0  0  0  0  0  0  0  0  0  0  0
   38.4690   30.2530   40.2000 C   0  0  1  0  0  0  0  0  0  0  0  0
   36.3370   30.3630   39.6850 H   0  0  0  0  0  0  0  0  0  0  0  0
   38.3340   32.2580   38.3930 H   0  0  0  0  0  0  0  0  0  0  0  0
   36.5370   32.4320   38.7180 H   0  0  0  0  0  0  0  0  0  0  0  0
   38.2920   33.3570   40.5170 H   0  0  0  0  0  0  0  0  0  0  0  0
   36.8420   32.4350   41.0690 H   0  0  0  0  0  0  0  0  0  0  0  0
   39.3970   30.0530   39.6700 H   0  0  0  0  0  0  0  0  0  0  0  0
   38.1900   29.1010   41.1100 C   0  0  1  0  0  0  0  0  0  0  0  0
   38.7830   29.3160   42.4910 C   0  0  0  0  0  0  0  0  0  0  0  0
   37.6850   28.8280   43.3950 C   0  0  0  0  0  0  0  0  0  0  0  0
   36.7700   28.1660   42.5670 O   0  0  0  0  0  0  0  0  0  0  0  0
   36.7080   29.0130   41.4650 C   0  0  0  0  0  0  0  0  0  0  0  0
   38.4840   28.1180   40.7010 H   0  0  0  0  0  0  0  0  0  0  0  0
   39.0240   30.3840   42.6270 H   0  0  0  0  0  0  0  0  0  0  0  0
   39.7240   28.7260   42.5770 H   0  0  0  0  0  0  0  0  0  0  0  0
   38.1200   28.0830   44.1180 H   0  0  0  0  0  0  0  0  0  0  0  0
   37.2340   29.6610   43.9500 H   0  0  0  0  0  0  0  0  0  0  0  0
   36.3460   29.9820   41.8870 H   0  0  0  0  0  0  0  0  0  0  0  0
   36.1080   28.6280   40.6340 H   0  0  0  0  0  0  0  0  0  0  0  0
   37.4020   29.7430   37.9910 C   0  0  0  0  0  0  0  0  0  0  0  0
   37.8540   28.7440   38.2420 H   0  0  0  0  0  0  0  0  0  0  0  0
   38.0850   30.2270   37.2570 H   0  0  0  0  0  0  0  0  0  0  0  0
   35.2500   28.6080   37.8020 C   0  0  0  0  0  3  0  0  0  0  0  0
   36.0870   29.5090   37.3650 C   0  0  0  0  0  3  0  0  0  0  0  0
   32.4980   27.0510   35.9830 C   0  0  0  0  0  0  0  0  0  0  0  0
   31.5050   28.0720   36.0010 C   0  0  0  0  0  0  0  0  0  0  0  0
   31.8290   29.2610   36.6430 C   0  0  0  0  0  0  0  0  0  0  0  0
   33.0570   29.3810   37.2100 N   0  0  0  0  0  0  0  0  0  0  0  0
   33.9760   28.3980   37.1770 C   0  0  0  0  0  0  0  0  0  0  0  0
   33.7130   27.2430   36.5760 N   0  0  0  0  0  0  0  0  0  0  0  0
   32.2730   26.1130   35.4910 H   0  0  0  0  0  0  0  0  0  0  0  0
   30.5530   27.9520   35.5510 H   0  0  0  0  0  0  0  0  0  0  0  0
   30.9040   30.3860   36.7330 C   0  0  0  0  0  0  0  0  0  0  0  0
   30.8070   31.4040   35.8170 C   0  0  0  0  0  0  0  0  0  0  0  0
   31.3390   31.5920   34.9060 H   0  0  0  0  0  0  0  0  0  0  0  0
   29.8120   32.2660   36.2750 C   0  0  0  0  0  0  0  0  0  0  0  0
   29.3840   33.1730   35.9180 H   0  0  0  0  0  0  0  0  0  0  0  0
   29.3650   31.7130   37.4430 C   0  0  0  0  0  0  0  0  0  0  0  0
   28.5920   32.0480   38.1410 H   0  0  0  0  0  0  0  0  0  0  0  0
   30.0210   30.6170   37.6860 O   0  0  0  0  0  0  0  0  0  0  0  0
  1  6  1  1  0  0  0
  1  5  1  0  0  0  0
  2  1  1  0  0  0  0
  2  3  1  0  0  0  0
  3  9  1  0  0  0  0
  3  4  1  0  0  0  0
  3 10  1  0  0  0  0
  5 11  1  6  0  0  0
  5  4  1  0  0  0  0
  5 12  1  0  0  0  0
  7  2  1  0  0  0  0
  8  2  1  0  0  0  0
 12 17  1  6  0  0  0
 12 16  1  0  0  0  0
 12 13  1  0  0  0  0
 13 19  1  0  0  0  0
 13 18  1  0  0  0  0
 13 14  1  0  0  0  0
 14 21  1  0  0  0  0
 14 20  1  0  0  0  0
 15 14  1  0  0  0  0
 16 22  1  0  0  0  0
 16 15  1  0  0  0  0
 23 16  1  0  0  0  0
 24 25  1  0  0  0  0
 24  1  1  0  0  0  0
 26 24  1  0  0  0  0
 28 27  2  0  0  0  0
 28 24  1  0  0  0  0
 29 30  2  0  0  0  0
 29 34  1  0  0  0  0
 30 31  1  0  0  0  0
 31 37  1  0  0  0  0
 31 32  2  0  0  0  0
 33 32  1  0  0  0  0
 33 27  1  0  0  0  0
 34 33  2  0  0  0  0
 35 29  1  0  0  0  0
 36 30  1  0  0  0  0
 37 44  1  0  0  0  0
 38 40  1  0  0  0  0
 38 37  2  0  0  0  0
 39 38  1  0  0  0  0
 40 42  2  0  0  0  0
 41 40  1  0  0  0  0
 42 44  1  0  0  0  0
 42 43  1  0  0  0  0
M  END
>  <minimizedAffinity>
-5.13176489

$$$$
