
 OpenBabel03242514313D

 37 40  0  0  0  0  0  0  0  0999 V2000
   37.3290   28.3310   43.5020 C   0  0  0  0  0  0  0  0  0  0  0  0
   37.3290   29.3870   42.5780 C   0  0  0  0  0  0  0  0  0  0  0  0
   37.4730   29.1010   41.2280 C   0  0  0  0  0  0  0  0  0  0  0  0
   37.5960   27.8020   40.8800 N   0  0  0  0  0  0  0  0  0  0  0  0
   37.5900   26.7910   41.7650 C   0  0  0  0  0  0  0  0  0  0  0  0
   37.4590   27.0520   43.0800 N   0  0  0  0  0  0  0  0  0  0  0  0
   37.2320   28.3990   44.5740 H   0  0  0  0  0  0  0  0  0  0  0  0
   37.1720   30.2570   43.1270 H   0  0  0  0  0  0  0  0  0  0  0  0
   40.2830   25.3900   42.1200 Cl  0  0  0  0  0  0  0  0  0  0  0  0
   38.8390   24.6760   41.4400 C   0  0  0  0  0  0  0  0  0  0  0  0
   37.6600   25.4100   41.3300 C   0  0  0  0  0  0  0  0  0  0  0  0
   36.6060   24.7490   40.7980 C   0  0  0  0  0  0  0  0  0  0  0  0
   36.6290   23.4350   40.3720 C   0  0  0  0  0  0  0  0  0  0  0  0
   37.8050   22.7310   40.4890 C   0  0  0  0  0  0  0  0  0  0  0  0
   37.7340   21.0780   39.9140 Cl  0  0  0  0  0  0  0  0  0  0  0  0
   38.9010   23.3420   41.0180 C   0  0  0  0  0  0  0  0  0  0  0  0
   35.6760   25.3100   40.7060 H   0  0  0  0  0  0  0  0  0  0  0  0
   35.7140   23.0240   39.9650 H   0  0  0  0  0  0  0  0  0  0  0  0
   39.7960   22.7640   41.0920 H   0  0  0  0  0  0  0  0  0  0  0  0
   39.3720   31.3370   41.8020 Cl  0  0  0  0  0  0  0  0  0  0  0  0
   38.2880   31.2550   40.4290 C   0  0  0  0  0  0  0  0  0  0  0  0
   37.5300   30.1480   40.2470 C   0  0  0  0  0  0  0  0  0  0  0  0
   36.8260   30.1300   39.0570 C   0  0  0  0  0  0  0  0  0  0  0  0
   36.8470   31.1250   38.1010 C   0  0  0  0  0  0  0  0  0  0  0  0
   37.6330   32.2400   38.3400 C   0  0  0  0  0  0  0  0  0  0  0  0
   38.3550   32.2930   39.5200 C   0  0  0  0  0  0  0  0  0  0  0  0
   36.2170   29.2160   38.9270 H   0  0  0  0  0  0  0  0  0  0  0  0
   36.2260   30.9090   37.2540 H   0  0  0  0  0  0  0  0  0  0  0  0
   37.6270   32.9890   37.5880 H   0  0  0  0  0  0  0  0  0  0  0  0
   39.1880   33.4600   39.7890 C   0  0  0  0  0  0  0  0  0  0  0  0
   38.7800   34.6430   40.3640 C   0  0  0  0  0  0  0  0  0  0  0  0
   37.8060   34.9190   40.7120 H   0  0  0  0  0  0  0  0  0  0  0  0
   39.9030   35.4680   40.4250 C   0  0  0  0  0  0  0  0  0  0  0  0
   39.8780   36.4700   40.8340 H   0  0  0  0  0  0  0  0  0  0  0  0
   40.9350   34.7300   39.8780 C   0  0  0  0  0  0  0  0  0  0  0  0
   41.9450   35.1060   39.7850 H   0  0  0  0  0  0  0  0  0  0  0  0
   40.4670   33.5610   39.5200 O   0  0  0  0  0  0  0  0  0  0  0  0
  1  7  1  0  0  0  0
  2  8  1  0  0  0  0
  2  1  2  0  0  0  0
  3  2  1  0  0  0  0
  4  3  2  0  0  0  0
  4  5  1  0  0  0  0
  5  6  2  0  0  0  0
  6  1  1  0  0  0  0
 10  9  1  0  0  0  0
 11 10  1  0  0  0  0
 11  5  1  0  0  0  0
 12 11  2  0  0  0  0
 13 14  2  0  0  0  0
 13 12  1  0  0  0  0
 14 16  1  0  0  0  0
 15 14  1  0  0  0  0
 16 19  1  0  0  0  0
 16 10  2  0  0  0  0
 17 12  1  0  0  0  0
 18 13  1  0  0  0  0
 21 20  1  0  0  0  0
 22 21  1  0  0  0  0
 22  3  1  0  0  0  0
 23 22  2  0  0  0  0
 24 25  2  0  0  0  0
 24 23  1  0  0  0  0
 25 26  1  0  0  0  0
 26 30  1  0  0  0  0
 26 21  2  0  0  0  0
 27 23  1  0  0  0  0
 28 24  1  0  0  0  0
 29 25  1  0  0  0  0
 30 31  2  0  0  0  0
 31 33  1  0  0  0  0
 31 32  1  0  0  0  0
 33 34  1  0  0  0  0
 35 33  2  0  0  0  0
 36 35  1  0  0  0  0
 37 30  1  0  0  0  0
 37 35  1  0  0  0  0
M  END
>  <minimizedAffinity>
-6.61654139

$$$$

 OpenBabel03242514313D

 37 40  0  0  0  0  0  0  0  0999 V2000
   37.2230   27.6220   43.5810 C   0  0  0  0  0  0  0  0  0  0  0  0
   36.9580   28.5450   42.5580 C   0  0  0  0  0  0  0  0  0  0  0  0
   38.0070   29.0010   41.7730 C   0  0  0  0  0  0  0  0  0  0  0  0
   39.2380   28.5130   42.0400 N   0  0  0  0  0  0  0  0  0  0  0  0
   39.4900   27.6250   43.0170 C   0  0  0  0  0  0  0  0  0  0  0  0
   38.4840   27.1790   43.7930 N   0  0  0  0  0  0  0  0  0  0  0  0
   36.5160   27.1870   44.2690 H   0  0  0  0  0  0  0  0  0  0  0  0
   35.9280   28.6990   42.5600 H   0  0  0  0  0  0  0  0  0  0  0  0
   39.9340   24.7390   42.1130 Cl  0  0  0  0  0  0  0  0  0  0  0  0
   41.1330   25.7780   42.8470 C   0  0  0  0  0  0  0  0  0  0  0  0
   40.8200   27.0850   43.2170 C   0  0  0  0  0  0  0  0  0  0  0  0
   41.8310   27.7970   43.7660 C   0  0  0  0  0  0  0  0  0  0  0  0
   43.1110   27.3220   43.9740 C   0  0  0  0  0  0  0  0  0  0  0  0
   43.3970   26.0290   43.6020 C   0  0  0  0  0  0  0  0  0  0  0  0
   45.0440   25.5180   43.9140 Cl  0  0  0  0  0  0  0  0  0  0  0  0
   42.4200   25.2620   43.0430 C   0  0  0  0  0  0  0  0  0  0  0  0
   41.6010   28.8210   44.0610 H   0  0  0  0  0  0  0  0  0  0  0  0
   43.8300   27.9960   44.4230 H   0  0  0  0  0  0  0  0  0  0  0  0
   42.6790   24.2630   42.7670 H   0  0  0  0  0  0  0  0  0  0  0  0
   39.7600   31.4190   41.8900 Cl  0  0  0  0  0  0  0  0  0  0  0  0
   38.4690   31.1590   40.7360 C   0  0  0  0  0  0  0  0  0  0  0  0
   37.7980   29.9830   40.7460 C   0  0  0  0  0  0  0  0  0  0  0  0
   36.9040   29.8300   39.7020 C   0  0  0  0  0  0  0  0  0  0  0  0
   36.6680   30.7580   38.7090 C   0  0  0  0  0  0  0  0  0  0  0  0
   37.3760   31.9480   38.7500 C   0  0  0  0  0  0  0  0  0  0  0  0
   38.2820   32.1370   39.7790 C   0  0  0  0  0  0  0  0  0  0  0  0
   36.3700   28.8610   39.7270 H   0  0  0  0  0  0  0  0  0  0  0  0
   35.9330   30.4360   37.9970 H   0  0  0  0  0  0  0  0  0  0  0  0
   37.1710   32.6440   37.9750 H   0  0  0  0  0  0  0  0  0  0  0  0
   39.0370   33.3840   39.8380 C   0  0  0  0  0  0  0  0  0  0  0  0
   38.6460   34.5500   40.4600 C   0  0  0  0  0  0  0  0  0  0  0  0
   37.7430   34.7530   40.9990 H   0  0  0  0  0  0  0  0  0  0  0  0
   39.6720   35.4730   40.2620 C   0  0  0  0  0  0  0  0  0  0  0  0
   39.6370   36.4860   40.6440 H   0  0  0  0  0  0  0  0  0  0  0  0
   40.6330   34.8070   39.5260 C   0  0  0  0  0  0  0  0  0  0  0  0
   41.5610   35.2680   39.2130 H   0  0  0  0  0  0  0  0  0  0  0  0
   40.2160   33.5870   39.3030 O   0  0  0  0  0  0  0  0  0  0  0  0
  1  6  1  0  0  0  0
  1  7  1  0  0  0  0
  2  8  1  0  0  0  0
  2  1  2  0  0  0  0
  3  4  2  0  0  0  0
  3  2  1  0  0  0  0
  4  5  1  0  0  0  0
  5 11  1  0  0  0  0
  5  6  2  0  0  0  0
  9 10  1  0  0  0  0
 10 16  2  0  0  0  0
 10 11  1  0  0  0  0
 11 12  2  0  0  0  0
 12 13  1  0  0  0  0
 12 17  1  0  0  0  0
 13 18  1  0  0  0  0
 14 15  1  0  0  0  0
 14 13  2  0  0  0  0
 16 14  1  0  0  0  0
 19 16  1  0  0  0  0
 21 22  1  0  0  0  0
 21 20  1  0  0  0  0
 22  3  1  0  0  0  0
 23 27  1  0  0  0  0
 23 22  2  0  0  0  0
 24 25  2  0  0  0  0
 24 23  1  0  0  0  0
 25 26  1  0  0  0  0
 26 30  1  0  0  0  0
 26 21  2  0  0  0  0
 28 24  1  0  0  0  0
 29 25  1  0  0  0  0
 30 31  2  0  0  0  0
 31 32  1  0  0  0  0
 33 31  1  0  0  0  0
 33 34  1  0  0  0  0
 35 33  2  0  0  0  0
 36 35  1  0  0  0  0
 37 35  1  0  0  0  0
 37 30  1  0  0  0  0
M  END
>  <minimizedAffinity>
-6.58165789

$$$$

 OpenBabel03242514313D

 37 40  0  0  0  0  0  0  0  0999 V2000
   36.2110   29.9100   38.6650 C   0  0  0  0  0  0  0  0  0  0  0  0
   36.8820   31.1420   38.7060 C   0  0  0  0  0  0  0  0  0  0  0  0
   37.9950   31.2750   39.5250 C   0  0  0  0  0  0  0  0  0  0  0  0
   38.3740   30.1920   40.2370 N   0  0  0  0  0  0  0  0  0  0  0  0
   37.7330   29.0120   40.1920 C   0  0  0  0  0  0  0  0  0  0  0  0
   36.6480   28.8670   39.4090 N   0  0  0  0  0  0  0  0  0  0  0  0
   35.3370   29.6610   38.0850 H   0  0  0  0  0  0  0  0  0  0  0  0
   36.3960   31.7640   38.0280 H   0  0  0  0  0  0  0  0  0  0  0  0
   37.4800   29.1370   43.2350 Cl  0  0  0  0  0  0  0  0  0  0  0  0
   38.1620   27.8140   42.3180 C   0  0  0  0  0  0  0  0  0  0  0  0
   38.2230   27.8620   40.9270 C   0  0  0  0  0  0  0  0  0  0  0  0
   38.7620   26.7760   40.3260 C   0  0  0  0  0  0  0  0  0  0  0  0
   39.2400   25.6620   40.9870 C   0  0  0  0  0  0  0  0  0  0  0  0
   39.1700   25.6370   42.3610 C   0  0  0  0  0  0  0  0  0  0  0  0
   39.8080   24.1850   43.1050 Cl  0  0  0  0  0  0  0  0  0  0  0  0
   38.6370   26.7010   43.0230 C   0  0  0  0  0  0  0  0  0  0  0  0
   38.8160   26.8000   39.2380 H   0  0  0  0  0  0  0  0  0  0  0  0
   39.6470   24.8580   40.3860 H   0  0  0  0  0  0  0  0  0  0  0  0
   38.6010   26.6450   44.0890 H   0  0  0  0  0  0  0  0  0  0  0  0
   40.7960   31.3330   38.4800 Cl  0  0  0  0  0  0  0  0  0  0  0  0
   39.9860   32.6620   39.2830 C   0  0  0  0  0  0  0  0  0  0  0  0
   38.6870   32.5290   39.6420 C   0  0  0  0  0  0  0  0  0  0  0  0
   38.1110   33.6860   40.1310 C   0  0  0  0  0  0  0  0  0  0  0  0
   38.7500   34.9000   40.2710 C   0  0  0  0  0  0  0  0  0  0  0  0
   40.0820   34.9810   39.8950 C   0  0  0  0  0  0  0  0  0  0  0  0
   40.6930   33.8430   39.3980 C   0  0  0  0  0  0  0  0  0  0  0  0
   37.0500   33.5560   40.4150 H   0  0  0  0  0  0  0  0  0  0  0  0
   38.1170   35.6680   40.6710 H   0  0  0  0  0  0  0  0  0  0  0  0
   40.5470   35.9270   40.0170 H   0  0  0  0  0  0  0  0  0  0  0  0
   42.0940   33.9090   38.9980 C   0  0  0  0  0  0  0  0  0  0  0  0
   42.5780   34.3130   37.7730 C   0  0  0  0  0  0  0  0  0  0  0  0
   42.0340   34.6450   36.9130 H   0  0  0  0  0  0  0  0  0  0  0  0
   43.9670   34.2160   37.8390 C   0  0  0  0  0  0  0  0  0  0  0  0
   44.6170   34.4710   37.0120 H   0  0  0  0  0  0  0  0  0  0  0  0
   44.2470   33.7540   39.1110 C   0  0  0  0  0  0  0  0  0  0  0  0
   45.2530   33.5740   39.4660 H   0  0  0  0  0  0  0  0  0  0  0  0
   43.1180   33.5890   39.7520 O   0  0  0  0  0  0  0  0  0  0  0  0
  1  2  2  0  0  0  0
  1  6  1  0  0  0  0
  2  3  1  0  0  0  0
  3 22  1  0  0  0  0
  3  4  2  0  0  0  0
  5  4  1  0  0  0  0
  5 11  1  0  0  0  0
  6  5  2  0  0  0  0
  7  1  1  0  0  0  0
  8  2  1  0  0  0  0
 10 16  1  0  0  0  0
 10  9  1  0  0  0  0
 11 10  2  0  0  0  0
 12 11  1  0  0  0  0
 12 13  2  0  0  0  0
 13 14  1  0  0  0  0
 14 16  2  0  0  0  0
 14 15  1  0  0  0  0
 16 19  1  0  0  0  0
 17 12  1  0  0  0  0
 18 13  1  0  0  0  0
 20 21  1  0  0  0  0
 21 26  2  0  0  0  0
 21 22  1  0  0  0  0
 22 23  2  0  0  0  0
 23 24  1  0  0  0  0
 23 27  1  0  0  0  0
 24 28  1  0  0  0  0
 25 29  1  0  0  0  0
 25 24  2  0  0  0  0
 26 25  1  0  0  0  0
 30 26  1  0  0  0  0
 30 37  1  0  0  0  0
 31 33  1  0  0  0  0
 31 30  2  0  0  0  0
 32 31  1  0  0  0  0
 33 35  2  0  0  0  0
 34 33  1  0  0  0  0
 35 36  1  0  0  0  0
 35 37  1  0  0  0  0
M  END
>  <minimizedAffinity>
-6.30567646

$$$$

 OpenBabel03242514313D

 37 40  0  0  0  0  0  0  0  0999 V2000
   36.3720   30.8700   41.0720 C   0  0  0  0  0  0  0  0  0  0  0  0
   36.7520   29.6490   41.6490 C   0  0  0  0  0  0  0  0  0  0  0  0
   38.0690   29.2280   41.5260 C   0  0  0  0  0  0  0  0  0  0  0  0
   38.9180   30.0370   40.8570 N   0  0  0  0  0  0  0  0  0  0  0  0
   38.5530   31.2090   40.3100 C   0  0  0  0  0  0  0  0  0  0  0  0
   37.2780   31.6280   40.4130 N   0  0  0  0  0  0  0  0  0  0  0  0
   35.3910   31.3200   41.0810 H   0  0  0  0  0  0  0  0  0  0  0  0
   35.9090   29.2760   42.1310 H   0  0  0  0  0  0  0  0  0  0  0  0
   39.6790   30.2140   37.6480 Cl  0  0  0  0  0  0  0  0  0  0  0  0
   40.1030   31.7120   38.4430 C   0  0  0  0  0  0  0  0  0  0  0  0
   39.5210   32.0690   39.6590 C   0  0  0  0  0  0  0  0  0  0  0  0
   39.9190   33.2550   40.1730 C   0  0  0  0  0  0  0  0  0  0  0  0
   40.8380   34.1040   39.5860 C   0  0  0  0  0  0  0  0  0  0  0  0
   41.4000   33.7310   38.3880 C   0  0  0  0  0  0  0  0  0  0  0  0
   42.5570   34.8690   37.7300 Cl  0  0  0  0  0  0  0  0  0  0  0  0
   41.0380   32.5470   37.8190 C   0  0  0  0  0  0  0  0  0  0  0  0
   39.4730   33.5470   41.1230 H   0  0  0  0  0  0  0  0  0  0  0  0
   41.0690   35.0270   40.1030 H   0  0  0  0  0  0  0  0  0  0  0  0
   41.4960   32.2910   36.8890 H   0  0  0  0  0  0  0  0  0  0  0  0
   37.7610   26.8730   39.7110 Cl  0  0  0  0  0  0  0  0  0  0  0  0
   38.3360   26.8100   41.3640 C   0  0  0  0  0  0  0  0  0  0  0  0
   38.4990   27.9630   42.0540 C   0  0  0  0  0  0  0  0  0  0  0  0
   39.0950   27.8060   43.2920 C   0  0  0  0  0  0  0  0  0  0  0  0
   39.5050   26.6060   43.8350 C   0  0  0  0  0  0  0  0  0  0  0  0
   39.3090   25.4540   43.0900 C   0  0  0  0  0  0  0  0  0  0  0  0
   38.7170   25.5720   41.8440 C   0  0  0  0  0  0  0  0  0  0  0  0
   39.2220   28.7600   43.8360 H   0  0  0  0  0  0  0  0  0  0  0  0
   39.9430   26.7100   44.8080 H   0  0  0  0  0  0  0  0  0  0  0  0
   39.6320   24.5460   43.5340 H   0  0  0  0  0  0  0  0  0  0  0  0
   38.5020   24.3710   41.0460 C   0  0  0  0  0  0  0  0  0  0  0  0
   37.4190   23.5220   41.1170 C   0  0  0  0  0  0  0  0  0  0  0  0
   36.5580   23.5840   41.7510 H   0  0  0  0  0  0  0  0  0  0  0  0
   37.6350   22.5150   40.1770 C   0  0  0  0  0  0  0  0  0  0  0  0
   36.9400   21.7010   40.0120 H   0  0  0  0  0  0  0  0  0  0  0  0
   38.8480   22.8140   39.5860 C   0  0  0  0  0  0  0  0  0  0  0  0
   39.2900   22.2070   38.8070 H   0  0  0  0  0  0  0  0  0  0  0  0
   39.3160   23.9090   40.1280 O   0  0  0  0  0  0  0  0  0  0  0  0
  1  7  1  0  0  0  0
  1  2  1  0  0  0  0
  2  8  1  0  0  0  0
  3  2  2  0  0  0  0
  3 22  1  0  0  0  0
  4  3  1  0  0  0  0
  5  6  1  0  0  0  0
  5  4  2  0  0  0  0
  6  1  2  0  0  0  0
  9 10  1  0  0  0  0
 10 11  1  0  0  0  0
 11 12  2  0  0  0  0
 11  5  1  0  0  0  0
 12 17  1  0  0  0  0
 13 18  1  0  0  0  0
 13 12  1  0  0  0  0
 14 13  2  0  0  0  0
 15 14  1  0  0  0  0
 16 14  1  0  0  0  0
 16 10  2  0  0  0  0
 19 16  1  0  0  0  0
 20 21  1  0  0  0  0
 21 26  2  0  0  0  0
 21 22  1  0  0  0  0
 22 23  2  0  0  0  0
 23 24  1  0  0  0  0
 23 27  1  0  0  0  0
 24 28  1  0  0  0  0
 25 29  1  0  0  0  0
 25 24  2  0  0  0  0
 26 25  1  0  0  0  0
 30 31  2  0  0  0  0
 30 26  1  0  0  0  0
 31 32  1  0  0  0  0
 33 31  1  0  0  0  0
 34 33  1  0  0  0  0
 35 37  1  0  0  0  0
 35 33  2  0  0  0  0
 36 35  1  0  0  0  0
 37 30  1  0  0  0  0
M  END
>  <minimizedAffinity>
-6.25008965

$$$$

 OpenBabel03242514313D

 37 40  0  0  0  0  0  0  0  0999 V2000
   36.9720   31.6830   38.8660 C   0  0  0  0  0  0  0  0  0  0  0  0
   36.7870   30.6630   39.8120 C   0  0  0  0  0  0  0  0  0  0  0  0
   37.8840   30.1980   40.5240 C   0  0  0  0  0  0  0  0  0  0  0  0
   39.0790   30.7720   40.2650 N   0  0  0  0  0  0  0  0  0  0  0  0
   39.2530   31.7520   39.3630 C   0  0  0  0  0  0  0  0  0  0  0  0
   38.2010   32.2090   38.6580 N   0  0  0  0  0  0  0  0  0  0  0  0
   36.2210   32.1370   38.2390 H   0  0  0  0  0  0  0  0  0  0  0  0
   35.7670   30.4560   39.8260 H   0  0  0  0  0  0  0  0  0  0  0  0
   39.5900   34.5590   40.5250 Cl  0  0  0  0  0  0  0  0  0  0  0  0
   40.8100   33.6570   39.6560 C   0  0  0  0  0  0  0  0  0  0  0  0
   40.5470   32.3770   39.1720 C   0  0  0  0  0  0  0  0  0  0  0  0
   41.5710   31.7730   38.5250 C   0  0  0  0  0  0  0  0  0  0  0  0
   42.8180   32.3320   38.3220 C   0  0  0  0  0  0  0  0  0  0  0  0
   43.0540   33.5970   38.8080 C   0  0  0  0  0  0  0  0  0  0  0  0
   44.6610   34.2190   38.4930 Cl  0  0  0  0  0  0  0  0  0  0  0  0
   42.0620   34.2560   39.4690 C   0  0  0  0  0  0  0  0  0  0  0  0
   41.3800   30.7710   38.1420 H   0  0  0  0  0  0  0  0  0  0  0  0
   43.5510   31.7400   37.7880 H   0  0  0  0  0  0  0  0  0  0  0  0
   42.2830   35.2360   39.8300 H   0  0  0  0  0  0  0  0  0  0  0  0
   38.2970   27.4440   39.4380 Cl  0  0  0  0  0  0  0  0  0  0  0  0
   37.8390   27.8260   41.0850 C   0  0  0  0  0  0  0  0  0  0  0  0
   37.7580   29.1220   41.4670 C   0  0  0  0  0  0  0  0  0  0  0  0
   37.5350   29.3030   42.8200 C   0  0  0  0  0  0  0  0  0  0  0  0
   37.3940   28.2930   43.7490 C   0  0  0  0  0  0  0  0  0  0  0  0
   37.4790   26.9840   43.3040 C   0  0  0  0  0  0  0  0  0  0  0  0
   37.7040   26.7630   41.9560 C   0  0  0  0  0  0  0  0  0  0  0  0
   37.4750   30.3690   43.1100 H   0  0  0  0  0  0  0  0  0  0  0  0
   37.2270   28.6560   44.7440 H   0  0  0  0  0  0  0  0  0  0  0  0
   37.3640   26.2290   44.0410 H   0  0  0  0  0  0  0  0  0  0  0  0
   37.7960   25.3910   41.4690 C   0  0  0  0  0  0  0  0  0  0  0  0
   36.7500   24.5940   41.0600 C   0  0  0  0  0  0  0  0  0  0  0  0
   35.7050   24.8260   41.0240 H   0  0  0  0  0  0  0  0  0  0  0  0
   37.3000   23.3710   40.6800 C   0  0  0  0  0  0  0  0  0  0  0  0
   36.7060   22.5440   40.3130 H   0  0  0  0  0  0  0  0  0  0  0  0
   38.6610   23.4980   40.8830 C   0  0  0  0  0  0  0  0  0  0  0  0
   39.3660   22.7040   40.6770 H   0  0  0  0  0  0  0  0  0  0  0  0
   38.9030   24.6990   41.3460 O   0  0  0  0  0  0  0  0  0  0  0  0
  1  2  1  0  0  0  0
  2  8  1  0  0  0  0
  2  3  2  0  0  0  0
  3 22  1  0  0  0  0
  4  3  1  0  0  0  0
  5  4  2  0  0  0  0
  6  1  2  0  0  0  0
  6  5  1  0  0  0  0
  7  1  1  0  0  0  0
 10  9  1  0  0  0  0
 11  5  1  0  0  0  0
 11 10  2  0  0  0  0
 12 11  1  0  0  0  0
 13 12  2  0  0  0  0
 13 14  1  0  0  0  0
 14 16  2  0  0  0  0
 15 14  1  0  0  0  0
 16 10  1  0  0  0  0
 16 19  1  0  0  0  0
 17 12  1  0  0  0  0
 18 13  1  0  0  0  0
 20 21  1  0  0  0  0
 21 22  2  0  0  0  0
 21 26  1  0  0  0  0
 22 23  1  0  0  0  0
 23 27  1  0  0  0  0
 23 24  2  0  0  0  0
 24 28  1  0  0  0  0
 25 24  1  0  0  0  0
 25 29  1  0  0  0  0
 26 25  2  0  0  0  0
 30 26  1  0  0  0  0
 31 30  2  0  0  0  0
 32 31  1  0  0  0  0
 33 35  2  0  0  0  0
 33 31  1  0  0  0  0
 34 33  1  0  0  0  0
 35 37  1  0  0  0  0
 36 35  1  0  0  0  0
 37 30  1  0  0  0  0
M  END
>  <minimizedAffinity>
-6.11344767

$$$$

 OpenBabel03242514313D

 37 40  0  0  0  0  0  0  0  0999 V2000
   36.2190   30.1040   38.0490 C   0  0  0  0  0  0  0  0  0  0  0  0
   36.1050   28.9880   38.8910 C   0  0  0  0  0  0  0  0  0  0  0  0
   36.9550   28.8780   39.9830 C   0  0  0  0  0  0  0  0  0  0  0  0
   37.8480   29.8730   40.1750 N   0  0  0  0  0  0  0  0  0  0  0  0
   37.9520   30.9440   39.3700 C   0  0  0  0  0  0  0  0  0  0  0  0
   37.1400   31.0620   38.3030 N   0  0  0  0  0  0  0  0  0  0  0  0
   35.6360   30.3210   37.1680 H   0  0  0  0  0  0  0  0  0  0  0  0
   35.3120   28.4230   38.5250 H   0  0  0  0  0  0  0  0  0  0  0  0
   40.9210   30.2790   39.0730 Cl  0  0  0  0  0  0  0  0  0  0  0  0
   40.2610   31.8220   39.5630 C   0  0  0  0  0  0  0  0  0  0  0  0
   38.8850   32.0150   39.6610 C   0  0  0  0  0  0  0  0  0  0  0  0
   38.4920   33.2540   40.0400 C   0  0  0  0  0  0  0  0  0  0  0  0
   39.3460   34.3010   40.3260 C   0  0  0  0  0  0  0  0  0  0  0  0
   40.7010   34.0870   40.2230 C   0  0  0  0  0  0  0  0  0  0  0  0
   41.6980   35.4740   40.6140 Cl  0  0  0  0  0  0  0  0  0  0  0  0
   41.1570   32.8610   39.8460 C   0  0  0  0  0  0  0  0  0  0  0  0
   37.4180   33.4200   40.1210 H   0  0  0  0  0  0  0  0  0  0  0  0
   38.9020   35.2450   40.6170 H   0  0  0  0  0  0  0  0  0  0  0  0
   42.2160   32.7320   39.7780 H   0  0  0  0  0  0  0  0  0  0  0  0
   37.6430   26.2560   38.7210 Cl  0  0  0  0  0  0  0  0  0  0  0  0
   37.1230   26.4780   40.3790 C   0  0  0  0  0  0  0  0  0  0  0  0
   36.9150   27.7310   40.8470 C   0  0  0  0  0  0  0  0  0  0  0  0
   36.6530   27.7960   42.2030 C   0  0  0  0  0  0  0  0  0  0  0  0
   36.5910   26.7140   43.0570 C   0  0  0  0  0  0  0  0  0  0  0  0
   36.8060   25.4530   42.5260 C   0  0  0  0  0  0  0  0  0  0  0  0
   37.0730   25.3490   41.1720 C   0  0  0  0  0  0  0  0  0  0  0  0
   36.4890   28.8280   42.5640 H   0  0  0  0  0  0  0  0  0  0  0  0
   36.3740   26.9900   44.0710 H   0  0  0  0  0  0  0  0  0  0  0  0
   36.7490   24.6410   43.2070 H   0  0  0  0  0  0  0  0  0  0  0  0
   37.3010   24.0290   40.5950 C   0  0  0  0  0  0  0  0  0  0  0  0
   38.4660   23.2950   40.6620 C   0  0  0  0  0  0  0  0  0  0  0  0
   39.3920   23.5480   41.1360 H   0  0  0  0  0  0  0  0  0  0  0  0
   38.2300   22.1040   39.9760 C   0  0  0  0  0  0  0  0  0  0  0  0
   38.9770   21.3290   39.8650 H   0  0  0  0  0  0  0  0  0  0  0  0
   36.9250   22.1860   39.5290 C   0  0  0  0  0  0  0  0  0  0  0  0
   36.4470   21.4030   38.9560 H   0  0  0  0  0  0  0  0  0  0  0  0
   36.4230   23.3310   39.9160 O   0  0  0  0  0  0  0  0  0  0  0  0
  1  6  2  0  0  0  0
  1  2  1  0  0  0  0
  2  3  2  0  0  0  0
  3  4  1  0  0  0  0
  3 22  1  0  0  0  0
  5 11  1  0  0  0  0
  5  4  2  0  0  0  0
  6  5  1  0  0  0  0
  7  1  1  0  0  0  0
  8  2  1  0  0  0  0
  9 10  1  0  0  0  0
 10 11  2  0  0  0  0
 10 16  1  0  0  0  0
 11 12  1  0  0  0  0
 12 17  1  0  0  0  0
 12 13  2  0  0  0  0
 13 18  1  0  0  0  0
 14 13  1  0  0  0  0
 14 15  1  0  0  0  0
 16 14  2  0  0  0  0
 19 16  1  0  0  0  0
 20 21  1  0  0  0  0
 21 22  2  0  0  0  0
 21 26  1  0  0  0  0
 22 23  1  0  0  0  0
 23 27  1  0  0  0  0
 23 24  2  0  0  0  0
 24 28  1  0  0  0  0
 25 24  1  0  0  0  0
 25 29  1  0  0  0  0
 26 25  2  0  0  0  0
 30 31  2  0  0  0  0
 30 26  1  0  0  0  0
 31 32  1  0  0  0  0
 33 31  1  0  0  0  0
 34 33  1  0  0  0  0
 35 37  1  0  0  0  0
 35 33  2  0  0  0  0
 36 35  1  0  0  0  0
 37 30  1  0  0  0  0
M  END
>  <minimizedAffinity>
-5.97216129

$$$$

 OpenBabel03242514313D

 37 40  0  0  0  0  0  0  0  0999 V2000
   37.7460   32.5830   39.8150 C   0  0  0  0  0  0  0  0  0  0  0  0
   37.5990   31.5430   40.7460 C   0  0  0  0  0  0  0  0  0  0  0  0
   38.7020   30.7630   41.0630 C   0  0  0  0  0  0  0  0  0  0  0  0
   39.8690   31.0630   40.4540 N   0  0  0  0  0  0  0  0  0  0  0  0
   40.0100   32.0620   39.5670 C   0  0  0  0  0  0  0  0  0  0  0  0
   38.9480   32.8240   39.2420 N   0  0  0  0  0  0  0  0  0  0  0  0
   36.9840   33.2630   39.4690 H   0  0  0  0  0  0  0  0  0  0  0  0
   36.6130   31.5810   41.0760 H   0  0  0  0  0  0  0  0  0  0  0  0
   41.5060   34.4170   40.8170 Cl  0  0  0  0  0  0  0  0  0  0  0  0
   42.0680   33.4390   39.4810 C   0  0  0  0  0  0  0  0  0  0  0  0
   41.3010   32.3820   38.9930 C   0  0  0  0  0  0  0  0  0  0  0  0
   41.8440   31.6900   37.9650 C   0  0  0  0  0  0  0  0  0  0  0  0
   43.0700   31.9610   37.3890 C   0  0  0  0  0  0  0  0  0  0  0  0
   43.8090   33.0090   37.8860 C   0  0  0  0  0  0  0  0  0  0  0  0
   45.3440   33.2760   37.0840 Cl  0  0  0  0  0  0  0  0  0  0  0  0
   43.3160   33.7430   38.9220 C   0  0  0  0  0  0  0  0  0  0  0  0
   41.2560   30.8610   37.5730 H   0  0  0  0  0  0  0  0  0  0  0  0
   43.3900   31.3290   36.5700 H   0  0  0  0  0  0  0  0  0  0  0  0
   43.9170   34.5500   39.2810 H   0  0  0  0  0  0  0  0  0  0  0  0
   41.2580   29.3760   41.7560 Cl  0  0  0  0  0  0  0  0  0  0  0  0
   39.6640   28.8930   42.2980 C   0  0  0  0  0  0  0  0  0  0  0  0
   38.5940   29.6540   41.9710 C   0  0  0  0  0  0  0  0  0  0  0  0
   37.4120   29.2620   42.5720 C   0  0  0  0  0  0  0  0  0  0  0  0
   37.2700   28.1950   43.4350 C   0  0  0  0  0  0  0  0  0  0  0  0
   38.3960   27.4440   43.7310 C   0  0  0  0  0  0  0  0  0  0  0  0
   39.5980   27.8080   43.1500 C   0  0  0  0  0  0  0  0  0  0  0  0
   36.5520   29.8990   42.2940 H   0  0  0  0  0  0  0  0  0  0  0  0
   36.2650   28.0680   43.7870 H   0  0  0  0  0  0  0  0  0  0  0  0
   38.2560   26.6290   44.3950 H   0  0  0  0  0  0  0  0  0  0  0  0
   40.7940   27.0290   43.4490 C   0  0  0  0  0  0  0  0  0  0  0  0
   41.2250   25.9000   42.7870 C   0  0  0  0  0  0  0  0  0  0  0  0
   40.7770   25.4000   41.9530 H   0  0  0  0  0  0  0  0  0  0  0  0
   42.4040   25.4940   43.4110 C   0  0  0  0  0  0  0  0  0  0  0  0
   42.9690   24.6250   43.0980 H   0  0  0  0  0  0  0  0  0  0  0  0
   42.6210   26.4070   44.4240 C   0  0  0  0  0  0  0  0  0  0  0  0
   43.4700   26.3560   45.0930 H   0  0  0  0  0  0  0  0  0  0  0  0
   41.6520   27.2870   44.4070 O   0  0  0  0  0  0  0  0  0  0  0  0
  1  2  1  0  0  0  0
  2  3  2  0  0  0  0
  2  8  1  0  0  0  0
  3 22  1  0  0  0  0
  4  3  1  0  0  0  0
  5  4  2  0  0  0  0
  6  5  1  0  0  0  0
  6  1  2  0  0  0  0
  7  1  1  0  0  0  0
 10  9  1  0  0  0  0
 11 10  1  0  0  0  0
 11  5  1  0  0  0  0
 12 11  2  0  0  0  0
 13 14  2  0  0  0  0
 13 12  1  0  0  0  0
 14 16  1  0  0  0  0
 15 14  1  0  0  0  0
 16 19  1  0  0  0  0
 16 10  2  0  0  0  0
 17 12  1  0  0  0  0
 18 13  1  0  0  0  0
 20 21  1  0  0  0  0
 21 26  1  0  0  0  0
 22 21  2  0  0  0  0
 22 23  1  0  0  0  0
 23 24  2  0  0  0  0
 24 25  1  0  0  0  0
 24 28  1  0  0  0  0
 25 29  1  0  0  0  0
 26 30  1  0  0  0  0
 26 25  2  0  0  0  0
 27 23  1  0  0  0  0
 30 37  1  0  0  0  0
 31 33  1  0  0  0  0
 31 30  2  0  0  0  0
 32 31  1  0  0  0  0
 33 35  2  0  0  0  0
 34 33  1  0  0  0  0
 35 36  1  0  0  0  0
 37 35  1  0  0  0  0
M  END
>  <minimizedAffinity>
-5.95848942

$$$$

 OpenBabel03242514313D

 37 40  0  0  0  0  0  0  0  0999 V2000
   37.9830   34.8770   39.7630 C   0  0  0  0  0  0  0  0  0  0  0  0
   37.3480   33.6370   39.5960 C   0  0  0  0  0  0  0  0  0  0  0  0
   38.1180   32.4830   39.5800 C   0  0  0  0  0  0  0  0  0  0  0  0
   39.4520   32.6260   39.7390 N   0  0  0  0  0  0  0  0  0  0  0  0
   40.0580   33.8130   39.9050 C   0  0  0  0  0  0  0  0  0  0  0  0
   39.3260   34.9430   39.9150 N   0  0  0  0  0  0  0  0  0  0  0  0
   37.5200   35.8510   39.7900 H   0  0  0  0  0  0  0  0  0  0  0  0
   36.3280   33.8340   39.5460 H   0  0  0  0  0  0  0  0  0  0  0  0
   41.8510   33.5690   37.4420 Cl  0  0  0  0  0  0  0  0  0  0  0  0
   42.3970   33.8000   39.0870 C   0  0  0  0  0  0  0  0  0  0  0  0
   41.4860   33.9030   40.1370 C   0  0  0  0  0  0  0  0  0  0  0  0
   42.0250   34.0900   41.3640 C   0  0  0  0  0  0  0  0  0  0  0  0
   43.3770   34.1810   41.6280 C   0  0  0  0  0  0  0  0  0  0  0  0
   44.2580   34.0760   40.5770 C   0  0  0  0  0  0  0  0  0  0  0  0
   45.9490   34.1960   41.0160 Cl  0  0  0  0  0  0  0  0  0  0  0  0
   43.7750   33.8870   39.3170 C   0  0  0  0  0  0  0  0  0  0  0  0
   41.3240   34.1730   42.1950 H   0  0  0  0  0  0  0  0  0  0  0  0
   43.6780   34.3330   42.6570 H   0  0  0  0  0  0  0  0  0  0  0  0
   44.4890   33.8090   38.5260 H   0  0  0  0  0  0  0  0  0  0  0  0
   38.4100   30.5050   41.8040 Cl  0  0  0  0  0  0  0  0  0  0  0  0
   37.6580   30.1850   40.2550 C   0  0  0  0  0  0  0  0  0  0  0  0
   37.5240   31.1930   39.3620 C   0  0  0  0  0  0  0  0  0  0  0  0
   36.7860   30.8640   38.2390 C   0  0  0  0  0  0  0  0  0  0  0  0
   36.2150   29.6330   37.9900 C   0  0  0  0  0  0  0  0  0  0  0  0
   36.3880   28.6340   38.9340 C   0  0  0  0  0  0  0  0  0  0  0  0
   37.1190   28.9270   40.0730 C   0  0  0  0  0  0  0  0  0  0  0  0
   36.6860   31.7030   37.5250 H   0  0  0  0  0  0  0  0  0  0  0  0
   35.6860   29.5940   37.0590 H   0  0  0  0  0  0  0  0  0  0  0  0
   35.9400   27.6970   38.7140 H   0  0  0  0  0  0  0  0  0  0  0  0
   37.3120   27.8870   41.0770 C   0  0  0  0  0  0  0  0  0  0  0  0
   36.4660   27.5910   42.1240 C   0  0  0  0  0  0  0  0  0  0  0  0
   35.5380   28.0550   42.3880 H   0  0  0  0  0  0  0  0  0  0  0  0
   37.0460   26.5330   42.8230 C   0  0  0  0  0  0  0  0  0  0  0  0
   36.5970   26.0890   43.7020 H   0  0  0  0  0  0  0  0  0  0  0  0
   38.2200   26.2460   42.1530 C   0  0  0  0  0  0  0  0  0  0  0  0
   38.8990   25.4620   42.4600 H   0  0  0  0  0  0  0  0  0  0  0  0
   38.3320   27.0650   41.1380 O   0  0  0  0  0  0  0  0  0  0  0  0
  1  7  1  0  0  0  0
  1  6  1  0  0  0  0
  2  1  2  0  0  0  0
  3  2  1  0  0  0  0
  3  4  2  0  0  0  0
  4  5  1  0  0  0  0
  5  6  2  0  0  0  0
  5 11  1  0  0  0  0
  8  2  1  0  0  0  0
  9 10  1  0  0  0  0
 10 16  2  0  0  0  0
 10 11  1  0  0  0  0
 11 12  2  0  0  0  0
 12 13  1  0  0  0  0
 12 17  1  0  0  0  0
 13 18  1  0  0  0  0
 14 15  1  0  0  0  0
 14 13  2  0  0  0  0
 16 14  1  0  0  0  0
 19 16  1  0  0  0  0
 21 20  1  0  0  0  0
 22  3  1  0  0  0  0
 22 21  2  0  0  0  0
 23 22  1  0  0  0  0
 24 23  2  0  0  0  0
 24 25  1  0  0  0  0
 25 26  2  0  0  0  0
 26 21  1  0  0  0  0
 26 30  1  0  0  0  0
 27 23  1  0  0  0  0
 28 24  1  0  0  0  0
 29 25  1  0  0  0  0
 30 37  1  0  0  0  0
 30 31  2  0  0  0  0
 31 32  1  0  0  0  0
 31 33  1  0  0  0  0
 33 34  1  0  0  0  0
 35 36  1  0  0  0  0
 35 33  2  0  0  0  0
 37 35  1  0  0  0  0
M  END
>  <minimizedAffinity>
-5.94342995

$$$$

 OpenBabel03242514313D

 37 40  0  0  0  0  0  0  0  0999 V2000
   36.5070   30.9220   41.1360 C   0  0  0  0  0  0  0  0  0  0  0  0
   35.8000   30.6240   39.9620 C   0  0  0  0  0  0  0  0  0  0  0  0
   36.0800   29.4420   39.2900 C   0  0  0  0  0  0  0  0  0  0  0  0
   37.0240   28.6360   39.8210 N   0  0  0  0  0  0  0  0  0  0  0  0
   37.6970   28.9210   40.9480 C   0  0  0  0  0  0  0  0  0  0  0  0
   37.4430   30.0670   41.6090 N   0  0  0  0  0  0  0  0  0  0  0  0
   36.4030   31.7980   41.7580 H   0  0  0  0  0  0  0  0  0  0  0  0
   35.1160   31.3960   39.8270 H   0  0  0  0  0  0  0  0  0  0  0  0
   36.7030   27.1790   43.2550 Cl  0  0  0  0  0  0  0  0  0  0  0  0
   38.3100   27.1480   42.5670 C   0  0  0  0  0  0  0  0  0  0  0  0
   38.6540   27.9880   41.5090 C   0  0  0  0  0  0  0  0  0  0  0  0
   39.9220   27.8680   41.0530 C   0  0  0  0  0  0  0  0  0  0  0  0
   40.8640   26.9930   41.5580 C   0  0  0  0  0  0  0  0  0  0  0  0
   40.5030   26.1750   42.6030 C   0  0  0  0  0  0  0  0  0  0  0  0
   41.7700   25.1080   43.1770 Cl  0  0  0  0  0  0  0  0  0  0  0  0
   39.2390   26.2490   43.1050 C   0  0  0  0  0  0  0  0  0  0  0  0
   40.2050   28.5180   40.2260 H   0  0  0  0  0  0  0  0  0  0  0  0
   41.8460   26.9950   41.1010 H   0  0  0  0  0  0  0  0  0  0  0  0
   38.9960   25.5990   43.9170 H   0  0  0  0  0  0  0  0  0  0  0  0
   37.4080   30.4050   36.7910 Cl  0  0  0  0  0  0  0  0  0  0  0  0
   35.8750   29.5610   36.8630 C   0  0  0  0  0  0  0  0  0  0  0  0
   35.4200   29.1130   38.0570 C   0  0  0  0  0  0  0  0  0  0  0  0
   34.2800   28.3360   37.9750 C   0  0  0  0  0  0  0  0  0  0  0  0
   33.6140   28.0130   36.8110 C   0  0  0  0  0  0  0  0  0  0  0  0
   34.1170   28.5030   35.6170 C   0  0  0  0  0  0  0  0  0  0  0  0
   35.2600   29.2840   35.6580 C   0  0  0  0  0  0  0  0  0  0  0  0
   33.9280   27.9770   38.9610 H   0  0  0  0  0  0  0  0  0  0  0  0
   32.7500   27.3990   36.9750 H   0  0  0  0  0  0  0  0  0  0  0  0
   33.5830   28.2410   34.7380 H   0  0  0  0  0  0  0  0  0  0  0  0
   35.8040   29.8090   34.4110 C   0  0  0  0  0  0  0  0  0  0  0  0
   35.7550   31.1170   33.9820 C   0  0  0  0  0  0  0  0  0  0  0  0
   35.3210   31.9670   34.4680 H   0  0  0  0  0  0  0  0  0  0  0  0
   36.3960   31.1580   32.7440 C   0  0  0  0  0  0  0  0  0  0  0  0
   36.5070   32.0670   32.1660 H   0  0  0  0  0  0  0  0  0  0  0  0
   36.8000   29.8610   32.4930 C   0  0  0  0  0  0  0  0  0  0  0  0
   37.3310   29.5720   31.5960 H   0  0  0  0  0  0  0  0  0  0  0  0
   36.4310   29.1080   33.4980 O   0  0  0  0  0  0  0  0  0  0  0  0
  1  6  1  0  0  0  0
  1  7  1  0  0  0  0
  2  1  2  0  0  0  0
  3  4  2  0  0  0  0
  3  2  1  0  0  0  0
  4  5  1  0  0  0  0
  5 11  1  0  0  0  0
  5  6  2  0  0  0  0
  8  2  1  0  0  0  0
 10 16  1  0  0  0  0
 10  9  1  0  0  0  0
 11 10  2  0  0  0  0
 12 11  1  0  0  0  0
 12 13  2  0  0  0  0
 13 14  1  0  0  0  0
 14 16  2  0  0  0  0
 14 15  1  0  0  0  0
 16 19  1  0  0  0  0
 17 12  1  0  0  0  0
 18 13  1  0  0  0  0
 20 21  1  0  0  0  0
 21 22  1  0  0  0  0
 22  3  1  0  0  0  0
 23 22  2  0  0  0  0
 23 27  1  0  0  0  0
 24 28  1  0  0  0  0
 24 23  1  0  0  0  0
 25 26  1  0  0  0  0
 25 24  2  0  0  0  0
 26 21  2  0  0  0  0
 29 25  1  0  0  0  0
 30 26  1  0  0  0  0
 31 30  2  0  0  0  0
 31 32  1  0  0  0  0
 33 31  1  0  0  0  0
 34 33  1  0  0  0  0
 35 33  2  0  0  0  0
 35 37  1  0  0  0  0
 36 35  1  0  0  0  0
 37 30  1  0  0  0  0
M  END
>  <minimizedAffinity>
-5.92929459

$$$$
