REMARK  Name = 
REMARK  6 active torsions:
REMARK  status: ('A' for Active; 'I' for Inactive)
REMARK    1  A    between atoms: C_1  and  C_2
REMARK    2  A    between atoms: C_1  and  S_11
REMARK    3  A    between atoms: C_2  and  C_5
REMARK    4  A    between atoms: S_11  and  C_12
REMARK    5  A    between atoms: C_16  and  C_18
REMARK    6  A    between atoms: C_18  and  C_29
REMARK                            x       y       z     vdW  Elec       q    Type
REMARK                         _______ _______ _______ _____ _____    ______ ____
ROOT
ATOM      1  S   UNL     1      43.516  35.060  40.779  0.00  0.00    +0.000 S 
ENDROOT
BRANCH   1   2
ATOM      2  C   UNL     1      44.801  34.714  41.983  0.00  0.00    +0.000 A 
ATOM      3  C   UNL     1      46.102  34.549  41.481  0.00  0.00    +0.000 A 
ATOM      4  C   UNL     1      47.136  34.277  42.384  0.00  0.00    +0.000 A 
ATOM      5  N   UNL     1      46.816  34.188  43.708  0.00  0.00    +0.000 NA
ATOM      6  C   UNL     1      45.564  34.349  44.173  0.00  0.00    +0.000 A 
ATOM      7  N   UNL     1      44.596  34.606  43.298  0.00  0.00    +0.000 NA
ATOM      8  H   UNL     1      46.284  34.632  40.422  0.00  0.00    +0.000 HD
ATOM      9  H   UNL     1      48.127  34.149  42.023  0.00  0.00    +0.000 HD
BRANCH   6  10
ATOM     10  C   UNL     1      45.347  34.232  45.599  0.00  0.00    +0.000 C 
ATOM     11  O   UNL     1      44.543  35.056  46.121  0.00  0.00    +0.000 OA
BRANCH  10  12
ATOM     12  C   UNL     1      45.998  33.230  46.436  0.00  0.00    +0.000 A 
ATOM     13  C   UNL     1      46.815  33.559  47.498  0.00  0.00    +0.000 A 
ATOM     14  H   UNL     1      47.100  34.554  47.875  0.00  0.00    +0.000 HD
ATOM     15  C   UNL     1      47.216  32.339  48.010  0.00  0.00    +0.000 A 
ATOM     16  H   UNL     1      47.881  32.264  48.872  0.00  0.00    +0.000 HD
ATOM     17  C   UNL     1      46.627  31.331  47.238  0.00  0.00    +0.000 A 
ATOM     18  H   UNL     1      46.837  30.303  47.503  0.00  0.00    +0.000 HD
ATOM     19  O   UNL     1      45.917  31.938  46.323  0.00  0.00    +0.000 OA
ENDBRANCH  10  12
ENDBRANCH   6  10
ENDBRANCH   1   2
BRANCH   1  20
ATOM     20  C   UNL     1      41.900  35.228  41.530  0.00  0.00    +0.000 C 
ATOM     21  H   UNL     1      42.038  35.634  42.549  0.00  0.00    +0.000 HD
ATOM     22  H   UNL     1      41.444  34.214  41.581  0.00  0.00    +0.000 HD
BRANCH  20  23
ATOM     23  C   UNL     1      40.973  36.094  40.743  0.00  0.00    +0.000 C 
ATOM     24  H   UNL     1      41.450  36.946  40.233  0.00  0.00    +0.000 HD
ATOM     25  H   UNL     1      40.230  36.538  41.444  0.00  0.00    +0.000 HD
BRANCH  23  28
ATOM     26 CL   UNL     1      41.767  36.295  37.815  0.00  0.00    +0.000 Cl
ATOM     27  C   UNL     1      40.469  35.312  38.397  0.00  0.00    +0.000 A 
ATOM     28  C   UNL     1      40.184  35.291  39.774  0.00  0.00    +0.000 A 
ATOM     29  C   UNL     1      39.137  34.487  40.167  0.00  0.00    +0.000 A 
ATOM     30  C   UNL     1      38.337  33.696  39.344  0.00  0.00    +0.000 A 
ATOM     31  C   UNL     1      38.644  33.741  37.998  0.00  0.00    +0.000 A 
ATOM     32 CL   UNL     1      37.687  32.774  36.873  0.00  0.00    +0.000 Cl
ATOM     33  C   UNL     1      39.678  34.526  37.549  0.00  0.00    +0.000 A 
ATOM     34  H   UNL     1      38.939  34.489  41.235  0.00  0.00    +0.000 HD
ATOM     35  H   UNL     1      37.544  33.106  39.765  0.00  0.00    +0.000 HD
ATOM     36  H   UNL     1      39.880  34.526  36.478  0.00  0.00    +0.000 HD
ENDBRANCH  23  28
ENDBRANCH  20  23
ENDBRANCH   1  20
TORSDOF 6
