
 OpenBabel03242515003D

 36 38  0  0  0  0  0  0  0  0999 V2000
   43.5000   34.9840   40.7540 S   0  0  0  0  0  0  0  0  0  0  0  0
   44.7710   34.6910   41.9870 C   0  0  0  0  0  0  0  0  0  0  0  0
   46.0820   34.5320   41.5090 C   0  0  0  0  0  0  0  0  0  0  0  0
   47.1060   34.3010   42.4350 C   0  0  0  0  0  0  0  0  0  0  0  0
   46.7670   34.2430   43.7560 N   0  0  0  0  0  0  0  0  0  0  0  0
   45.5050   34.3970   44.1970 C   0  0  0  0  0  0  0  0  0  0  0  0
   44.5470   34.6150   43.3010 N   0  0  0  0  0  0  0  0  0  0  0  0
   46.2790   34.5890   40.4510 H   0  0  0  0  0  0  0  0  0  0  0  0
   48.1040   34.1790   42.0920 H   0  0  0  0  0  0  0  0  0  0  0  0
   45.2680   34.3160   45.6220 C   0  0  0  0  0  0  0  0  0  0  0  0
   44.5010   35.1880   46.1220 O   0  0  0  0  0  0  0  0  0  0  0  0
   45.8590   33.2970   46.4830 C   0  0  0  0  0  0  0  0  0  0  0  0
   45.2370   32.8260   47.6210 C   0  0  0  0  0  0  0  0  0  0  0  0
   44.2630   33.1090   48.0500 H   0  0  0  0  0  0  0  0  0  0  0  0
   46.1190   31.8910   48.1300 C   0  0  0  0  0  0  0  0  0  0  0  0
   45.9070   31.3340   49.0430 H   0  0  0  0  0  0  0  0  0  0  0  0
   47.2310   31.8380   47.2810 C   0  0  0  0  0  0  0  0  0  0  0  0
   48.0270   31.1510   47.5330 H   0  0  0  0  0  0  0  0  0  0  0  0
   47.0030   32.7010   46.3260 O   0  0  0  0  0  0  0  0  0  0  0  0
   41.8650   35.1090   41.4720 C   0  0  0  0  0  0  0  0  0  0  0  0
   41.9760   35.4620   42.5140 H   0  0  0  0  0  0  0  0  0  0  0  0
   41.4120   34.0920   41.4590 H   0  0  0  0  0  0  0  0  0  0  0  0
   40.9540   36.0110   40.7080 C   0  0  0  0  0  0  0  0  0  0  0  0
   41.4450   36.8740   40.2300 H   0  0  0  0  0  0  0  0  0  0  0  0
   40.2110   36.4410   41.4180 H   0  0  0  0  0  0  0  0  0  0  0  0
   41.7970   36.2700   37.7980 Cl  0  0  0  0  0  0  0  0  0  0  0  0
   40.4690   35.3000   38.3350 C   0  0  0  0  0  0  0  0  0  0  0  0
   40.1630   35.2500   39.7070 C   0  0  0  0  0  0  0  0  0  0  0  0
   39.0930   34.4600   40.0630 C   0  0  0  0  0  0  0  0  0  0  0  0
   38.2890   33.7070   39.2090 C   0  0  0  0  0  0  0  0  0  0  0  0
   38.6180   33.7800   37.8690 C   0  0  0  0  0  0  0  0  0  0  0  0
   37.6580   32.8630   36.7050 Cl  0  0  0  0  0  0  0  0  0  0  0  0
   39.6750   34.5530   37.4560 C   0  0  0  0  0  0  0  0  0  0  0  0
   38.8790   34.4390   41.1280 H   0  0  0  0  0  0  0  0  0  0  0  0
   37.4780   33.1240   39.6030 H   0  0  0  0  0  0  0  0  0  0  0  0
   39.8930   34.5760   36.3880 H   0  0  0  0  0  0  0  0  0  0  0  0
  1 20  1  0  0  0  0
  1  2  1  0  0  0  0
  2  7  1  0  0  0  0
  3  2  2  0  0  0  0
  3  4  1  0  0  0  0
  4  5  2  0  0  0  0
  5  6  1  0  0  0  0
  6 10  1  0  0  0  0
  7  6  2  0  0  0  0
  8  3  1  0  0  0  0
  9  4  1  0  0  0  0
 10 11  2  0  0  0  0
 10 12  1  0  0  0  0
 12 13  2  0  0  0  0
 13 14  1  0  0  0  0
 13 15  1  0  0  0  0
 15 16  1  0  0  0  0
 17 18  1  0  0  0  0
 17 15  2  0  0  0  0
 19 12  1  0  0  0  0
 19 17  1  0  0  0  0
 20 21  1  0  0  0  0
 22 20  1  0  0  0  0
 23 25  1  0  0  0  0
 23 20  1  0  0  0  0
 24 23  1  0  0  0  0
 26 27  1  0  0  0  0
 27 28  1  0  0  0  0
 28 29  2  0  0  0  0
 28 23  1  0  0  0  0
 29 34  1  0  0  0  0
 30 35  1  0  0  0  0
 30 29  1  0  0  0  0
 31 30  2  0  0  0  0
 32 31  1  0  0  0  0
 33 31  1  0  0  0  0
 33 27  2  0  0  0  0
 36 33  1  0  0  0  0
M  END
>  <minimizedAffinity>
-6.79146862

>  <minimizedRMSD>
0.15942964

$$$$
