
 OpenBabel03252507153D

 28 30  0  0  0  0  0  0  0  0999 V2000
   45.1800   36.1650   43.4450 C   0  0  0  0  0  0  0  0  0  0  0  0
   45.8000   34.9560   43.0940 C   0  0  0  0  0  0  0  0  0  0  0  0
   45.8050   33.9440   44.0340 C   0  0  0  0  0  0  0  0  0  0  0  0
   45.2280   34.1370   45.2380 N   0  0  0  0  0  0  0  0  0  0  0  0
   44.6300   35.3270   45.5560 C   0  0  0  0  0  0  0  0  0  0  0  0
   44.6210   36.3010   44.6610 N   0  0  0  0  0  0  0  0  0  0  0  0
   45.1550   36.9820   42.7350 H   0  0  0  0  0  0  0  0  0  0  0  0
   44.1930   35.3860   46.5490 H   0  0  0  0  0  0  0  0  0  0  0  0
   46.4490   32.6670   43.6890 C   0  0  0  0  0  0  0  0  0  0  0  0
   45.6730   31.5860   43.3330 C   0  0  0  0  0  0  0  0  0  0  0  0
   46.3130   30.4070   43.0170 C   0  0  0  0  0  0  0  0  0  0  0  0
   47.7090   30.2620   43.0410 C   0  0  0  0  0  0  0  0  0  0  0  0
   48.4200   31.3920   43.4080 C   0  0  0  0  0  0  0  0  0  0  0  0
   47.7810   32.5380   43.7160 N   0  0  0  0  0  0  0  0  0  0  0  0
   44.6150   31.6920   43.3140 H   0  0  0  0  0  0  0  0  0  0  0  0
   45.7040   29.5550   42.7360 H   0  0  0  0  0  0  0  0  0  0  0  0
   48.2080   29.3400   42.7940 H   0  0  0  0  0  0  0  0  0  0  0  0
   49.5050   31.3580   43.4510 H   0  0  0  0  0  0  0  0  0  0  0  0
   46.3980   34.7890   41.8140 C   0  0  0  0  0  0  0  0  0  0  0  0
   47.5570   35.2370   41.6380 O   0  0  0  0  0  0  0  0  0  0  0  0
   45.7500   34.1280   40.6830 C   0  0  0  0  0  0  0  0  0  0  0  0
   46.4660   33.3940   39.7470 C   0  0  0  0  0  0  0  0  0  0  0  0
   47.5200   33.1880   39.6710 H   0  0  0  0  0  0  0  0  0  0  0  0
   45.5750   32.8880   38.7950 C   0  0  0  0  0  0  0  0  0  0  0  0
   45.7090   32.2770   37.9120 H   0  0  0  0  0  0  0  0  0  0  0  0
   44.3350   33.3650   39.2330 C   0  0  0  0  0  0  0  0  0  0  0  0
   43.3310   33.2250   38.8020 H   0  0  0  0  0  0  0  0  0  0  0  0
   44.5000   34.0710   40.3220 O   0  0  0  0  0  0  0  0  0  0  0  0
  1  6  1  0  0  0  0
  2  1  2  0  0  0  0
  2  3  1  0  0  0  0
  3  4  2  0  0  0  0
  4  5  1  0  0  0  0
  5  8  1  0  0  0  0
  6  5  2  0  0  0  0
  7  1  1  0  0  0  0
  9 14  1  0  0  0  0
  9  3  1  0  0  0  0
 10  9  2  0  0  0  0
 11 12  2  0  0  0  0
 11 10  1  0  0  0  0
 12 13  1  0  0  0  0
 13 18  1  0  0  0  0
 13 14  2  0  0  0  0
 15 10  1  0  0  0  0
 16 11  1  0  0  0  0
 17 12  1  0  0  0  0
 19  2  1  0  0  0  0
 20 19  2  0  0  0  0
 21 19  1  0  0  0  0
 22 21  2  0  0  0  0
 23 22  1  0  0  0  0
 24 26  2  0  0  0  0
 24 22  1  0  0  0  0
 25 24  1  0  0  0  0
 26 28  1  0  0  0  0
 27 26  1  0  0  0  0
 28 21  1  0  0  0  0
M  END
>  <minimizedAffinity>
-4.28564787

>  <minimizedRMSD>
0.251259625

$$$$
