
 OpenBabel03252507153D

 28 30  0  0  0  0  0  0  0  0999 V2000
   45.3140   36.2110   43.3420 C   0  0  0  0  0  0  0  0  0  0  0  0
   45.9250   34.9880   43.0250 C   0  0  0  0  0  0  0  0  0  0  0  0
   45.8490   33.9740   43.9610 C   0  0  0  0  0  0  0  0  0  0  0  0
   45.2040   34.1800   45.1290 N   0  0  0  0  0  0  0  0  0  0  0  0
   44.6170   35.3830   45.4130 C   0  0  0  0  0  0  0  0  0  0  0  0
   44.6850   36.3580   44.5220 N   0  0  0  0  0  0  0  0  0  0  0  0
   45.3520   37.0300   42.6340 H   0  0  0  0  0  0  0  0  0  0  0  0
   44.1210   35.4510   46.3780 H   0  0  0  0  0  0  0  0  0  0  0  0
   46.4820   32.6830   43.6520 C   0  0  0  0  0  0  0  0  0  0  0  0
   45.6990   31.6050   43.3010 C   0  0  0  0  0  0  0  0  0  0  0  0
   46.3300   30.4130   43.0180 C   0  0  0  0  0  0  0  0  0  0  0  0
   47.7220   30.2510   43.0730 C   0  0  0  0  0  0  0  0  0  0  0  0
   48.4420   31.3770   43.4340 C   0  0  0  0  0  0  0  0  0  0  0  0
   47.8120   32.5370   43.7080 N   0  0  0  0  0  0  0  0  0  0  0  0
   44.6430   31.7260   43.2590 H   0  0  0  0  0  0  0  0  0  0  0  0
   45.7150   29.5640   42.7420 H   0  0  0  0  0  0  0  0  0  0  0  0
   48.2140   29.3180   42.8530 H   0  0  0  0  0  0  0  0  0  0  0  0
   49.5250   31.3300   43.4980 H   0  0  0  0  0  0  0  0  0  0  0  0
   46.5960   34.8080   41.7840 C   0  0  0  0  0  0  0  0  0  0  0  0
   47.7470   35.2930   41.6570 O   0  0  0  0  0  0  0  0  0  0  0  0
   46.0330   34.0960   40.6400 C   0  0  0  0  0  0  0  0  0  0  0  0
   46.8310   33.4800   39.6850 C   0  0  0  0  0  0  0  0  0  0  0  0
   47.9020   33.4110   39.6030 H   0  0  0  0  0  0  0  0  0  0  0  0
   46.0080   32.8860   38.7240 C   0  0  0  0  0  0  0  0  0  0  0  0
   46.2140   32.3170   37.8270 H   0  0  0  0  0  0  0  0  0  0  0  0
   44.7180   33.1910   39.1760 C   0  0  0  0  0  0  0  0  0  0  0  0
   43.7390   32.9330   38.7440 H   0  0  0  0  0  0  0  0  0  0  0  0
   44.7980   33.8870   40.2810 O   0  0  0  0  0  0  0  0  0  0  0  0
  1  6  1  0  0  0  0
  2  1  2  0  0  0  0
  2  3  1  0  0  0  0
  3  4  2  0  0  0  0
  4  5  1  0  0  0  0
  5  8  1  0  0  0  0
  6  5  2  0  0  0  0
  7  1  1  0  0  0  0
  9 14  1  0  0  0  0
  9  3  1  0  0  0  0
 10  9  2  0  0  0  0
 11 12  2  0  0  0  0
 11 10  1  0  0  0  0
 12 13  1  0  0  0  0
 13 18  1  0  0  0  0
 13 14  2  0  0  0  0
 15 10  1  0  0  0  0
 16 11  1  0  0  0  0
 17 12  1  0  0  0  0
 19  2  1  0  0  0  0
 20 19  2  0  0  0  0
 21 19  1  0  0  0  0
 22 21  2  0  0  0  0
 23 22  1  0  0  0  0
 24 26  2  0  0  0  0
 24 22  1  0  0  0  0
 25 24  1  0  0  0  0
 26 28  1  0  0  0  0
 27 26  1  0  0  0  0
 28 21  1  0  0  0  0
M  END
>  <minimizedAffinity>
-4.31160116

>  <minimizedRMSD>
0.256548524

$$$$
