
 OpenBabel03252507163D

 28 30  0  0  0  0  0  0  0  0999 V2000
   45.2010   36.1830   43.4590 C   0  0  0  0  0  0  0  0  0  0  0  0
   45.8210   34.9740   43.1080 C   0  0  0  0  0  0  0  0  0  0  0  0
   45.8060   33.9540   44.0400 C   0  0  0  0  0  0  0  0  0  0  0  0
   45.2110   34.1400   45.2360 N   0  0  0  0  0  0  0  0  0  0  0  0
   44.6140   35.3300   45.5540 C   0  0  0  0  0  0  0  0  0  0  0  0
   44.6230   36.3120   44.6680 N   0  0  0  0  0  0  0  0  0  0  0  0
   45.1910   37.0060   42.7560 H   0  0  0  0  0  0  0  0  0  0  0  0
   44.1620   35.3830   46.5420 H   0  0  0  0  0  0  0  0  0  0  0  0
   46.4500   32.6770   43.6940 C   0  0  0  0  0  0  0  0  0  0  0  0
   45.6740   31.5970   43.3350 C   0  0  0  0  0  0  0  0  0  0  0  0
   46.3140   30.4180   43.0170 C   0  0  0  0  0  0  0  0  0  0  0  0
   47.7090   30.2720   43.0450 C   0  0  0  0  0  0  0  0  0  0  0  0
   48.4210   31.4010   43.4160 C   0  0  0  0  0  0  0  0  0  0  0  0
   47.7810   32.5470   43.7240 N   0  0  0  0  0  0  0  0  0  0  0  0
   44.6160   31.7050   43.3130 H   0  0  0  0  0  0  0  0  0  0  0  0
   45.7040   29.5670   42.7340 H   0  0  0  0  0  0  0  0  0  0  0  0
   48.2080   29.3500   42.7980 H   0  0  0  0  0  0  0  0  0  0  0  0
   49.5050   31.3650   43.4610 H   0  0  0  0  0  0  0  0  0  0  0  0
   46.4380   34.8150   41.8370 C   0  0  0  0  0  0  0  0  0  0  0  0
   47.5930   35.2780   41.6770 O   0  0  0  0  0  0  0  0  0  0  0  0
   45.8140   34.1450   40.6970 C   0  0  0  0  0  0  0  0  0  0  0  0
   46.5560   33.4600   39.7450 C   0  0  0  0  0  0  0  0  0  0  0  0
   47.6180   33.3020   39.6600 H   0  0  0  0  0  0  0  0  0  0  0  0
   45.6830   32.9320   38.7890 C   0  0  0  0  0  0  0  0  0  0  0  0
   45.8380   32.3430   37.8940 H   0  0  0  0  0  0  0  0  0  0  0  0
   44.4250   33.3450   39.2410 C   0  0  0  0  0  0  0  0  0  0  0  0
   43.4270   33.1680   38.8140 H   0  0  0  0  0  0  0  0  0  0  0  0
   44.5660   34.0390   40.3420 O   0  0  0  0  0  0  0  0  0  0  0  0
  1  6  1  0  0  0  0
  2  1  2  0  0  0  0
  2  3  1  0  0  0  0
  3  4  2  0  0  0  0
  4  5  1  0  0  0  0
  5  8  1  0  0  0  0
  6  5  2  0  0  0  0
  7  1  1  0  0  0  0
  9 14  1  0  0  0  0
  9  3  1  0  0  0  0
 10  9  2  0  0  0  0
 11 12  2  0  0  0  0
 11 10  1  0  0  0  0
 12 13  1  0  0  0  0
 13 18  1  0  0  0  0
 13 14  2  0  0  0  0
 15 10  1  0  0  0  0
 16 11  1  0  0  0  0
 17 12  1  0  0  0  0
 19  2  1  0  0  0  0
 20 19  2  0  0  0  0
 21 19  1  0  0  0  0
 22 21  2  0  0  0  0
 23 22  1  0  0  0  0
 24 26  2  0  0  0  0
 24 22  1  0  0  0  0
 25 24  1  0  0  0  0
 26 28  1  0  0  0  0
 27 26  1  0  0  0  0
 28 21  1  0  0  0  0
M  END
>  <minimizedAffinity>
-4.29728651

>  <minimizedRMSD>
0.617500365

$$$$
