
 OpenBabel03252503593D

 33 36  0  0  1  0  0  0  0  0999 V2000
   46.7090   35.0310   42.7040 C   0  0  0  0  0  0  0  0  0  0  0  0
   45.7970   36.0880   42.7040 C   0  0  0  0  0  0  0  0  0  0  0  0
   44.8480   36.1050   43.7080 C   0  0  0  0  0  0  0  0  0  0  0  0
   44.8470   35.1120   44.6320 N   0  0  0  0  0  0  0  0  0  0  0  0
   45.7480   34.1070   44.5970 C   0  0  0  0  0  0  0  0  0  0  0  0
   46.6800   34.0610   43.6360 N   0  0  0  0  0  0  0  0  0  0  0  0
   45.8270   36.8660   41.9500 H   0  0  0  0  0  0  0  0  0  0  0  0
   44.1100   36.8960   43.7690 H   0  0  0  0  0  0  0  0  0  0  0  0
   46.0430   31.7550   45.1860 C   0  0  0  0  0  0  0  0  0  0  0  0
   45.7410   33.0330   45.6010 C   0  0  0  0  0  0  0  0  0  0  0  0
   45.4410   33.2800   46.9350 C   0  0  0  0  0  0  0  0  0  0  0  0
   45.4580   32.2090   47.8130 C   0  0  0  0  0  0  0  0  0  0  0  0
   45.2160   32.1310   49.1390 N   0  0  0  0  0  0  0  0  0  0  0  0
   45.3500   30.8750   49.5750 C   0  0  0  0  0  0  0  0  0  0  0  0
   45.6930   30.0920   48.5070 C   0  0  0  0  0  0  0  0  0  0  0  0
   45.7610   30.9200   47.4020 C   0  0  0  0  0  0  0  0  0  0  0  0
   46.0550   30.7040   46.0770 C   0  0  0  0  0  0  0  0  0  0  0  0
   46.2870   31.4760   44.1760 H   0  0  0  0  0  0  0  0  0  0  0  0
   45.2040   34.2890   47.2560 H   0  0  0  0  0  0  0  0  0  0  0  0
   44.9550   32.9710   49.7380 H   0  0  0  0  0  0  0  0  0  0  0  0
   45.2010   30.5860   50.6100 H   0  0  0  0  0  0  0  0  0  0  0  0
   45.8710   29.0280   48.5440 H   0  0  0  0  0  0  0  0  0  0  0  0
   46.2900   29.6860   45.7810 H   0  0  0  0  0  0  0  0  0  0  0  0
   47.6810   35.0560   41.6350 C   0  0  1  0  0  0  0  0  0  0  0  0
   48.8080   35.6710   41.7050 O   0  0  0  0  0  0  0  0  0  0  0  0
   47.4110   34.3540   40.3800 C   0  0  0  0  0  0  0  0  0  0  0  0
   48.1710   34.3460   39.2580 C   0  0  0  0  0  0  0  0  0  0  0  0
   49.1260   34.8620   39.0780 H   0  0  0  0  0  0  0  0  0  0  0  0
   47.5760   33.5650   38.2880 C   0  0  0  0  0  0  0  0  0  0  0  0
   47.9560   33.3770   37.2970 H   0  0  0  0  0  0  0  0  0  0  0  0
   46.4100   33.1070   38.9100 C   0  0  0  0  0  0  0  0  0  0  0  0
   45.7150   32.4570   38.3930 H   0  0  0  0  0  0  0  0  0  0  0  0
   46.3630   33.5960   40.1280 O   0  0  0  0  0  0  0  0  0  0  0  0
  1  6  1  0  0  0  0
  2  1  2  0  0  0  0
  2  3  1  0  0  0  0
  3  8  1  0  0  0  0
  3  4  2  0  0  0  0
  5  4  1  0  0  0  0
  5 10  1  0  0  0  0
  6  5  2  0  0  0  0
  7  2  1  0  0  0  0
  9 10  2  0  0  0  0
  9 17  1  0  0  0  0
 10 11  1  0  0  0  0
 11 19  1  0  0  0  0
 11 12  2  0  0  0  0
 12 13  1  0  0  0  0
 13 14  1  0  0  0  0
 13 20  1  0  0  0  0
 14 21  1  0  0  0  0
 15 22  1  0  0  0  0
 15 14  2  0  0  0  0
 16 12  1  0  0  0  0
 16 15  1  0  0  0  0
 17 16  2  0  0  0  0
 18  9  1  0  0  0  0
 23 17  1  0  0  0  0
 24 25  1  1  0  0  0
 24  1  1  0  0  0  0
 26 24  1  0  0  0  0
 27 26  2  0  0  0  0
 28 27  1  0  0  0  0
 29 31  2  0  0  0  0
 29 27  1  0  0  0  0
 30 29  1  0  0  0  0
 31 33  1  0  0  0  0
 32 31  1  0  0  0  0
 33 26  1  0  0  0  0
M  END
>  <minimizedAffinity>
-6.10202789

>  <minimizedRMSD>
0.671083033

$$$$
