
 OpenBabel03252504013D

 33 36  0  0  1  0  0  0  0  0999 V2000
   33.3200   28.8750   36.7430 C   0  0  0  0  0  0  0  0  0  0  0  0
   34.0680   29.1920   35.6070 C   0  0  0  0  0  0  0  0  0  0  0  0
   35.4440   29.1800   35.7320 C   0  0  0  0  0  0  0  0  0  0  0  0
   35.9960   28.8650   36.9300 N   0  0  0  0  0  0  0  0  0  0  0  0
   35.2360   28.5630   38.0050 C   0  0  0  0  0  0  0  0  0  0  0  0
   33.8990   28.5670   37.9170 N   0  0  0  0  0  0  0  0  0  0  0  0
   33.5940   29.4390   34.6640 H   0  0  0  0  0  0  0  0  0  0  0  0
   36.0860   29.4160   34.8910 H   0  0  0  0  0  0  0  0  0  0  0  0
   36.3090   26.9410   39.4830 C   0  0  0  0  0  0  0  0  0  0  0  0
   35.8390   28.2220   39.3020 C   0  0  0  0  0  0  0  0  0  0  0  0
   35.9410   29.1530   40.3280 C   0  0  0  0  0  0  0  0  0  0  0  0
   36.5230   28.7470   41.5170 C   0  0  0  0  0  0  0  0  0  0  0  0
   36.7600   29.4050   42.6720 N   0  0  0  0  0  0  0  0  0  0  0  0
   37.3510   28.6050   43.5640 C   0  0  0  0  0  0  0  0  0  0  0  0
   37.5150   27.3760   42.9860 C   0  0  0  0  0  0  0  0  0  0  0  0
   36.9980   27.4580   41.7060 C   0  0  0  0  0  0  0  0  0  0  0  0
   36.8850   26.5570   40.6740 C   0  0  0  0  0  0  0  0  0  0  0  0
   36.2700   26.1590   38.7440 H   0  0  0  0  0  0  0  0  0  0  0  0
   35.5700   30.1620   40.1800 H   0  0  0  0  0  0  0  0  0  0  0  0
   36.5020   30.4250   42.8290 H   0  0  0  0  0  0  0  0  0  0  0  0
   37.6310   28.9300   44.5600 H   0  0  0  0  0  0  0  0  0  0  0  0
   37.9640   26.5170   43.4600 H   0  0  0  0  0  0  0  0  0  0  0  0
   37.2650   25.5550   40.8470 H   0  0  0  0  0  0  0  0  0  0  0  0
   31.8870   28.9010   36.5630 C   0  0  1  0  0  3  0  0  0  0  0  0
   31.1960   27.8960   36.1570 O   0  0  0  0  0  1  0  0  0  0  0  0
   31.1340   30.1230   36.8480 C   0  0  0  0  0  0  0  0  0  0  0  0
   30.9100   31.1690   36.0150 C   0  0  0  0  0  0  0  0  0  0  0  0
   31.2500   31.2970   34.9760 H   0  0  0  0  0  0  0  0  0  0  0  0
   30.1560   32.1310   36.6540 C   0  0  0  0  0  0  0  0  0  0  0  0
   29.8270   33.0680   36.2350 H   0  0  0  0  0  0  0  0  0  0  0  0
   29.9440   31.5870   37.9250 C   0  0  0  0  0  0  0  0  0  0  0  0
   29.3720   32.1180   38.6760 H   0  0  0  0  0  0  0  0  0  0  0  0
   30.5350   30.4160   37.9850 O   0  0  0  0  0  0  0  0  0  0  0  0
  1  6  1  0  0  0  0
  2  3  1  0  0  0  0
  2  1  2  0  0  0  0
  3  4  2  0  0  0  0
  4  5  1  0  0  0  0
  5 10  1  0  0  0  0
  6  5  2  0  0  0  0
  7  2  1  0  0  0  0
  8  3  1  0  0  0  0
  9 17  1  0  0  0  0
 10  9  2  0  0  0  0
 10 11  1  0  0  0  0
 11 12  2  0  0  0  0
 12 16  1  0  0  0  0
 12 13  1  0  0  0  0
 13 20  1  0  0  0  0
 13 14  1  0  0  0  0
 14 21  1  0  0  0  0
 15 22  1  0  0  0  0
 15 14  2  0  0  0  0
 16 15  1  0  0  0  0
 17 23  1  0  0  0  0
 17 16  2  0  0  0  0
 18  9  1  0  0  0  0
 19 11  1  0  0  0  0
 24 25  1  1  0  0  0
 24  1  1  0  0  0  0
 24 26  1  0  0  0  0
 26 33  1  0  0  0  0
 27 29  1  0  0  0  0
 27 26  2  0  0  0  0
 28 27  1  0  0  0  0
 29 31  2  0  0  0  0
 30 29  1  0  0  0  0
 31 33  1  0  0  0  0
 31 32  1  0  0  0  0
M  END
>  <minimizedAffinity>
-5.85294342

$$$$

 OpenBabel03252504013D

 33 36  0  0  0  0  0  0  0  0999 V2000
   38.7310   31.2450   41.1500 C   0  0  0  0  0  0  0  0  0  0  0  0
   38.8530   32.6360   41.1190 C   0  0  0  0  0  0  0  0  0  0  0  0
   38.2940   33.2960   40.0420 C   0  0  0  0  0  0  0  0  0  0  0  0
   37.6610   32.5760   39.0820 N   0  0  0  0  0  0  0  0  0  0  0  0
   37.5640   31.2310   39.1510 C   0  0  0  0  0  0  0  0  0  0  0  0
   38.0970   30.5610   40.1810 N   0  0  0  0  0  0  0  0  0  0  0  0
   39.3660   33.1800   41.9040 H   0  0  0  0  0  0  0  0  0  0  0  0
   38.3510   34.3740   39.9530 H   0  0  0  0  0  0  0  0  0  0  0  0
   35.7510   29.7470   38.4600 C   0  0  0  0  0  0  0  0  0  0  0  0
   36.8780   30.4550   38.1070 C   0  0  0  0  0  0  0  0  0  0  0  0
   37.3380   30.4250   36.7960 C   0  0  0  0  0  0  0  0  0  0  0  0
   36.6300   29.6680   35.8780 C   0  0  0  0  0  0  0  0  0  0  0  0
   36.8220   29.4440   34.5600 N   0  0  0  0  0  0  0  0  0  0  0  0
   35.8780   28.6360   34.0710 C   0  0  0  0  0  0  0  0  0  0  0  0
   35.0290   28.3100   35.0940 C   0  0  0  0  0  0  0  0  0  0  0  0
   35.4940   28.9520   36.2270 C   0  0  0  0  0  0  0  0  0  0  0  0
   35.0610   29.0000   37.5300 C   0  0  0  0  0  0  0  0  0  0  0  0
   35.3260   29.7150   39.4480 H   0  0  0  0  0  0  0  0  0  0  0  0
   38.2260   30.9850   36.5240 H   0  0  0  0  0  0  0  0  0  0  0  0
   37.6260   29.8660   34.0050 H   0  0  0  0  0  0  0  0  0  0  0  0
   35.8410   28.3250   33.0320 H   0  0  0  0  0  0  0  0  0  0  0  0
   34.1650   27.6700   35.0090 H   0  0  0  0  0  0  0  0  0  0  0  0
   34.1690   28.4320   37.7760 H   0  0  0  0  0  0  0  0  0  0  0  0
   39.3320   30.6000   42.2950 C   0  0  0  0  0  0  0  0  0  0  0  0
   40.3600   31.0550   42.9170 O   0  0  0  0  0  0  0  0  0  0  0  0
   38.7710   29.3510   42.8120 C   0  0  0  0  0  0  0  0  0  0  0  0
   39.3820   28.1440   42.8980 C   0  0  0  0  0  0  0  0  0  0  0  0
   40.4060   27.8770   42.5990 H   0  0  0  0  0  0  0  0  0  0  0  0
   38.5200   27.2140   43.4420 C   0  0  0  0  0  0  0  0  0  0  0  0
   38.7360   26.1740   43.6290 H   0  0  0  0  0  0  0  0  0  0  0  0
   37.3530   27.9490   43.6750 C   0  0  0  0  0  0  0  0  0  0  0  0
   36.4740   27.4870   44.1060 H   0  0  0  0  0  0  0  0  0  0  0  0
   37.5540   29.1880   43.2900 O   0  0  0  0  0  0  0  0  0  0  0  0
  1 24  1  0  0  0  0
  2  1  1  0  0  0  0
  2  7  1  0  0  0  0
  3  2  2  0  0  0  0
  4  5  2  0  0  0  0
  4  3  1  0  0  0  0
  5  6  1  0  0  0  0
  6  1  2  0  0  0  0
  8  3  1  0  0  0  0
  9 18  1  0  0  0  0
 10  9  1  0  0  0  0
 10  5  1  0  0  0  0
 11 10  2  0  0  0  0
 12 16  2  0  0  0  0
 12 11  1  0  0  0  0
 13 12  1  0  0  0  0
 14 13  1  0  0  0  0
 14 15  2  0  0  0  0
 15 16  1  0  0  0  0
 16 17  1  0  0  0  0
 17 23  1  0  0  0  0
 17  9  2  0  0  0  0
 19 11  1  0  0  0  0
 20 13  1  0  0  0  0
 21 14  1  0  0  0  0
 22 15  1  0  0  0  0
 24 26  1  0  0  0  0
 24 25  2  0  0  0  0
 26 27  2  0  0  0  0
 26 33  1  0  0  0  0
 27 29  1  0  0  0  0
 28 27  1  0  0  0  0
 29 30  1  0  0  0  0
 29 31  2  0  0  0  0
 31 32  1  0  0  0  0
 33 31  1  0  0  0  0
M  END
>  <minimizedAffinity>
-5.77120972

$$$$

 OpenBabel03252504013D

 33 36  0  0  1  0  0  0  0  0999 V2000
   37.8380   26.7880   41.6300 C   0  0  0  0  0  0  0  0  0  0  0  0
   37.3170   26.5490   42.9030 C   0  0  0  0  0  0  0  0  0  0  0  0
   37.0120   27.6490   43.6800 C   0  0  0  0  0  0  0  0  0  0  0  0
   37.2280   28.8920   43.1780 N   0  0  0  0  0  0  0  0  0  0  0  0
   37.7330   29.0800   41.9400 C   0  0  0  0  0  0  0  0  0  0  0  0
   38.0410   28.0330   41.1620 N   0  0  0  0  0  0  0  0  0  0  0  0
   37.1570   25.5420   43.2730 H   0  0  0  0  0  0  0  0  0  0  0  0
   36.6040   27.5380   44.6770 H   0  0  0  0  0  0  0  0  0  0  0  0
   36.9430   31.0340   40.7070 C   0  0  0  0  0  0  0  0  0  0  0  0
   37.9660   30.4280   41.4020 C   0  0  0  0  0  0  0  0  0  0  0  0
   39.1760   31.0870   41.5780 C   0  0  0  0  0  0  0  0  0  0  0  0
   39.3090   32.3550   41.0370 C   0  0  0  0  0  0  0  0  0  0  0  0
   40.3370   33.2300   41.0390 N   0  0  0  0  0  0  0  0  0  0  0  0
   40.0140   34.3490   40.3850 C   0  0  0  0  0  0  0  0  0  0  0  0
   38.7290   34.2170   39.9320 C   0  0  0  0  0  0  0  0  0  0  0  0
   38.2830   32.9720   40.3360 C   0  0  0  0  0  0  0  0  0  0  0  0
   37.0970   32.2970   40.1770 C   0  0  0  0  0  0  0  0  0  0  0  0
   35.9770   30.5980   40.5240 H   0  0  0  0  0  0  0  0  0  0  0  0
   39.9780   30.6050   42.1260 H   0  0  0  0  0  0  0  0  0  0  0  0
   41.2730   33.0330   41.5070 H   0  0  0  0  0  0  0  0  0  0  0  0
   40.6940   35.1850   40.2650 H   0  0  0  0  0  0  0  0  0  0  0  0
   38.1870   34.9580   39.3670 H   0  0  0  0  0  0  0  0  0  0  0  0
   36.3090   32.8030   39.6250 H   0  0  0  0  0  0  0  0  0  0  0  0
   38.1410   25.6060   40.8560 C   0  0  1  0  0  3  0  0  0  0  0  0
   39.3170   25.0970   40.7560 O   0  0  0  0  0  1  0  0  0  0  0  0
   37.0790   24.9130   40.1260 C   0  0  0  0  0  0  0  0  0  0  0  0
   36.3610   23.8380   40.5350 C   0  0  0  0  0  0  0  0  0  0  0  0
   36.4400   23.2880   41.4840 H   0  0  0  0  0  0  0  0  0  0  0  0
   35.4510   23.4780   39.5630 C   0  0  0  0  0  0  0  0  0  0  0  0
   34.7490   22.6620   39.6150 H   0  0  0  0  0  0  0  0  0  0  0  0
   35.6750   24.4130   38.5460 C   0  0  0  0  0  0  0  0  0  0  0  0
   35.1020   24.3930   37.6280 H   0  0  0  0  0  0  0  0  0  0  0  0
   36.6330   25.2260   38.9260 O   0  0  0  0  0  0  0  0  0  0  0  0
  1  2  1  0  0  0  0
  2  7  1  0  0  0  0
  2  3  2  0  0  0  0
  3  8  1  0  0  0  0
  4  3  1  0  0  0  0
  5  4  2  0  0  0  0
  6  1  2  0  0  0  0
  6  5  1  0  0  0  0
  9 10  1  0  0  0  0
 10 11  2  0  0  0  0
 10  5  1  0  0  0  0
 11 19  1  0  0  0  0
 12 13  1  0  0  0  0
 12 11  1  0  0  0  0
 13 20  1  0  0  0  0
 14 13  1  0  0  0  0
 15 16  1  0  0  0  0
 15 14  2  0  0  0  0
 16 12  2  0  0  0  0
 17 16  1  0  0  0  0
 17  9  2  0  0  0  0
 18  9  1  0  0  0  0
 21 14  1  0  0  0  0
 22 15  1  0  0  0  0
 23 17  1  0  0  0  0
 24 25  1  1  0  0  0
 24  1  1  0  0  0  0
 26 27  2  0  0  0  0
 26 24  1  0  0  0  0
 27 28  1  0  0  0  0
 29 30  1  0  0  0  0
 29 27  1  0  0  0  0
 31 33  1  0  0  0  0
 31 29  2  0  0  0  0
 32 31  1  0  0  0  0
 33 26  1  0  0  0  0
M  END
>  <minimizedAffinity>
-5.7117672

$$$$

 OpenBabel03252504013D

 33 36  0  0  0  0  0  0  0  0999 V2000
   36.9040   28.6970   41.4320 C   0  0  0  0  0  0  0  0  0  0  0  0
   35.6500   28.7400   40.8170 C   0  0  0  0  0  0  0  0  0  0  0  0
   35.4480   29.7130   39.8580 C   0  0  0  0  0  0  0  0  0  0  0  0
   36.4590   30.5680   39.5610 N   0  0  0  0  0  0  0  0  0  0  0  0
   37.6570   30.4930   40.1790 C   0  0  0  0  0  0  0  0  0  0  0  0
   37.8850   29.5610   41.1140 N   0  0  0  0  0  0  0  0  0  0  0  0
   34.8650   28.0400   41.0790 H   0  0  0  0  0  0  0  0  0  0  0  0
   34.5000   29.8030   39.3410 H   0  0  0  0  0  0  0  0  0  0  0  0
   39.2930   32.1670   40.8760 C   0  0  0  0  0  0  0  0  0  0  0  0
   38.7490   31.4220   39.8540 C   0  0  0  0  0  0  0  0  0  0  0  0
   39.2310   31.5600   38.5580 C   0  0  0  0  0  0  0  0  0  0  0  0
   40.2620   32.4590   38.3410 C   0  0  0  0  0  0  0  0  0  0  0  0
   40.9290   32.8080   37.2210 N   0  0  0  0  0  0  0  0  0  0  0  0
   41.8590   33.7300   37.4870 C   0  0  0  0  0  0  0  0  0  0  0  0
   41.8120   34.0030   38.8270 C   0  0  0  0  0  0  0  0  0  0  0  0
   40.8150   33.2130   39.3670 C   0  0  0  0  0  0  0  0  0  0  0  0
   40.3180   33.0560   40.6380 C   0  0  0  0  0  0  0  0  0  0  0  0
   38.9820   32.1240   41.9050 H   0  0  0  0  0  0  0  0  0  0  0  0
   38.7990   30.9710   37.7560 H   0  0  0  0  0  0  0  0  0  0  0  0
   40.7240   32.3920   36.2630 H   0  0  0  0  0  0  0  0  0  0  0  0
   42.5110   34.1520   36.7290 H   0  0  0  0  0  0  0  0  0  0  0  0
   42.4440   34.7090   39.3430 H   0  0  0  0  0  0  0  0  0  0  0  0
   40.7690   33.6570   41.4230 H   0  0  0  0  0  0  0  0  0  0  0  0
   37.0670   27.6630   42.4270 C   0  0  0  0  0  0  0  0  0  0  0  0
   36.8290   27.8290   43.6790 O   0  0  0  0  0  0  0  0  0  0  0  0
   37.5300   26.3320   42.0340 C   0  0  0  0  0  0  0  0  0  0  0  0
   36.8510   25.1620   42.1220 C   0  0  0  0  0  0  0  0  0  0  0  0
   35.8330   24.9930   42.5020 H   0  0  0  0  0  0  0  0  0  0  0  0
   37.6300   24.1250   41.6490 C   0  0  0  0  0  0  0  0  0  0  0  0
   37.3480   23.0860   41.5980 H   0  0  0  0  0  0  0  0  0  0  0  0
   38.8200   24.7580   41.2730 C   0  0  0  0  0  0  0  0  0  0  0  0
   39.6470   24.1980   40.8560 H   0  0  0  0  0  0  0  0  0  0  0  0
   38.7080   26.0430   41.5180 O   0  0  0  0  0  0  0  0  0  0  0  0
  1 24  1  0  0  0  0
  2  7  1  0  0  0  0
  2  1  2  0  0  0  0
  3  2  1  0  0  0  0
  4  3  2  0  0  0  0
  4  5  1  0  0  0  0
  5  6  2  0  0  0  0
  6  1  1  0  0  0  0
  8  3  1  0  0  0  0
  9 18  1  0  0  0  0
 10  5  1  0  0  0  0
 10  9  2  0  0  0  0
 11 10  1  0  0  0  0
 12 11  2  0  0  0  0
 12 16  1  0  0  0  0
 13 14  1  0  0  0  0
 13 12  1  0  0  0  0
 14 15  2  0  0  0  0
 15 22  1  0  0  0  0
 15 16  1  0  0  0  0
 16 17  2  0  0  0  0
 17  9  1  0  0  0  0
 17 23  1  0  0  0  0
 19 11  1  0  0  0  0
 20 13  1  0  0  0  0
 21 14  1  0  0  0  0
 24 25  2  0  0  0  0
 26 27  2  0  0  0  0
 26 24  1  0  0  0  0
 27 28  1  0  0  0  0
 29 27  1  0  0  0  0
 30 29  1  0  0  0  0
 31 33  1  0  0  0  0
 31 29  2  0  0  0  0
 32 31  1  0  0  0  0
 33 26  1  0  0  0  0
M  END
>  <minimizedAffinity>
-5.70031023

$$$$

 OpenBabel03252504013D

 33 36  0  0  1  0  0  0  0  0999 V2000
   38.3610   31.9450   40.6190 C   0  0  0  0  0  0  0  0  0  0  0  0
   36.9850   32.0430   40.3980 C   0  0  0  0  0  0  0  0  0  0  0  0
   36.2100   30.9510   40.7350 C   0  0  0  0  0  0  0  0  0  0  0  0
   36.8100   29.8520   41.2580 N   0  0  0  0  0  0  0  0  0  0  0  0
   38.1440   29.7970   41.4560 C   0  0  0  0  0  0  0  0  0  0  0  0
   38.9240   30.8390   41.1380 N   0  0  0  0  0  0  0  0  0  0  0  0
   36.5390   32.9380   39.9790 H   0  0  0  0  0  0  0  0  0  0  0  0
   35.1360   30.9580   40.5910 H   0  0  0  0  0  0  0  0  0  0  0  0
   39.9360   28.7750   42.7640 C   0  0  0  0  0  0  0  0  0  0  0  0
   38.7890   28.6030   42.0220 C   0  0  0  0  0  0  0  0  0  0  0  0
   38.2720   27.3290   41.8240 C   0  0  0  0  0  0  0  0  0  0  0  0
   38.9430   26.2600   42.3940 C   0  0  0  0  0  0  0  0  0  0  0  0
   38.6950   24.9330   42.3820 N   0  0  0  0  0  0  0  0  0  0  0  0
   39.6230   24.2680   43.0740 C   0  0  0  0  0  0  0  0  0  0  0  0
   40.5180   25.1790   43.5650 C   0  0  0  0  0  0  0  0  0  0  0  0
   40.1000   26.4270   43.1420 C   0  0  0  0  0  0  0  0  0  0  0  0
   40.5890   27.6980   43.3220 C   0  0  0  0  0  0  0  0  0  0  0  0
   40.4040   29.7230   42.9660 H   0  0  0  0  0  0  0  0  0  0  0  0
   37.3670   27.1990   41.2390 H   0  0  0  0  0  0  0  0  0  0  0  0
   37.8640   24.4970   41.8800 H   0  0  0  0  0  0  0  0  0  0  0  0
   39.6160   23.1890   43.1940 H   0  0  0  0  0  0  0  0  0  0  0  0
   41.3830   24.9440   44.1660 H   0  0  0  0  0  0  0  0  0  0  0  0
   41.4950   27.8010   43.9120 H   0  0  0  0  0  0  0  0  0  0  0  0
   39.1290   33.1110   40.2500 C   0  0  2  0  0  3  0  0  0  0  0  0
   39.0390   34.2470   40.8450 O   0  0  0  0  0  1  0  0  0  0  0  0
   40.0780   33.0440   39.1380 C   0  0  0  0  0  0  0  0  0  0  0  0
   40.0950   32.1490   38.1200 C   0  0  0  0  0  0  0  0  0  0  0  0
   39.4050   31.3120   37.9370 H   0  0  0  0  0  0  0  0  0  0  0  0
   41.1490   32.4180   37.2700 C   0  0  0  0  0  0  0  0  0  0  0  0
   41.4060   31.8710   36.3780 H   0  0  0  0  0  0  0  0  0  0  0  0
   41.7590   33.5350   37.8520 C   0  0  0  0  0  0  0  0  0  0  0  0
   42.6350   33.9920   37.4090 H   0  0  0  0  0  0  0  0  0  0  0  0
   41.0950   33.8580   38.9380 O   0  0  0  0  0  0  0  0  0  0  0  0
  1  6  1  0  0  0  0
  2  1  2  0  0  0  0
  2  3  1  0  0  0  0
  3  4  2  0  0  0  0
  4  5  1  0  0  0  0
  5 10  1  0  0  0  0
  6  5  2  0  0  0  0
  7  2  1  0  0  0  0
  8  3  1  0  0  0  0
  9 18  1  0  0  0  0
  9 17  1  0  0  0  0
 10  9  2  0  0  0  0
 11 10  1  0  0  0  0
 11 12  2  0  0  0  0
 12 16  1  0  0  0  0
 13 12  1  0  0  0  0
 13 14  1  0  0  0  0
 14 21  1  0  0  0  0
 14 15  2  0  0  0  0
 15 22  1  0  0  0  0
 16 17  2  0  0  0  0
 16 15  1  0  0  0  0
 17 23  1  0  0  0  0
 19 11  1  0  0  0  0
 20 13  1  0  0  0  0
 24  1  1  0  0  0  0
 24 25  1  6  0  0  0
 26 24  1  0  0  0  0
 27 26  2  0  0  0  0
 28 27  1  0  0  0  0
 29 31  2  0  0  0  0
 29 27  1  0  0  0  0
 30 29  1  0  0  0  0
 31 33  1  0  0  0  0
 32 31  1  0  0  0  0
 33 26  1  0  0  0  0
M  END
>  <minimizedAffinity>
-5.62116289

$$$$

 OpenBabel03252504013D

 33 36  0  0  0  0  0  0  0  0999 V2000
   33.3770   29.0250   36.7340 C   0  0  0  0  0  0  0  0  0  0  0  0
   34.1390   29.0820   35.5650 C   0  0  0  0  0  0  0  0  0  0  0  0
   35.5120   29.1190   35.7050 C   0  0  0  0  0  0  0  0  0  0  0  0
   36.0500   29.0970   36.9500 N   0  0  0  0  0  0  0  0  0  0  0  0
   35.2780   29.0410   38.0560 C   0  0  0  0  0  0  0  0  0  0  0  0
   33.9430   29.0050   37.9550 N   0  0  0  0  0  0  0  0  0  0  0  0
   33.6750   29.0980   34.5850 H   0  0  0  0  0  0  0  0  0  0  0  0
   36.1640   29.1630   34.8400 H   0  0  0  0  0  0  0  0  0  0  0  0
   36.0930   30.2210   40.0330 C   0  0  0  0  0  0  0  0  0  0  0  0
   35.8660   29.0180   39.4040 C   0  0  0  0  0  0  0  0  0  0  0  0
   36.1920   27.8260   40.0400 C   0  0  0  0  0  0  0  0  0  0  0  0
   36.7420   27.8970   41.3090 C   0  0  0  0  0  0  0  0  0  0  0  0
   37.1530   26.9370   42.1650 N   0  0  0  0  0  0  0  0  0  0  0  0
   37.6240   27.4750   43.2930 C   0  0  0  0  0  0  0  0  0  0  0  0
   37.5230   28.8350   43.1880 C   0  0  0  0  0  0  0  0  0  0  0  0
   36.9730   29.1060   41.9490 C   0  0  0  0  0  0  0  0  0  0  0  0
   36.6420   30.2690   41.2960 C   0  0  0  0  0  0  0  0  0  0  0  0
   35.8720   31.1880   39.6150 H   0  0  0  0  0  0  0  0  0  0  0  0
   36.0110   26.8810   39.5390 H   0  0  0  0  0  0  0  0  0  0  0  0
   37.1000   25.8960   41.9480 H   0  0  0  0  0  0  0  0  0  0  0  0
   38.0070   26.8840   44.1190 H   0  0  0  0  0  0  0  0  0  0  0  0
   37.8240   29.5440   43.9430 H   0  0  0  0  0  0  0  0  0  0  0  0
   36.8320   31.2010   41.8200 H   0  0  0  0  0  0  0  0  0  0  0  0
   31.9470   28.9890   36.5370 C   0  0  0  0  0  0  0  0  0  0  0  0
   31.3130   27.9740   36.0690 O   0  0  0  0  0  0  0  0  0  0  0  0
   31.1290   30.1550   36.8760 C   0  0  0  0  0  0  0  0  0  0  0  0
   30.4110   30.3600   38.0070 C   0  0  0  0  0  0  0  0  0  0  0  0
   30.3080   29.6950   38.8780 H   0  0  0  0  0  0  0  0  0  0  0  0
   29.7750   31.5830   37.9500 C   0  0  0  0  0  0  0  0  0  0  0  0
   29.1370   32.0080   38.7080 H   0  0  0  0  0  0  0  0  0  0  0  0
   30.1630   32.0930   36.7060 C   0  0  0  0  0  0  0  0  0  0  0  0
   29.8180   33.0600   36.3630 H   0  0  0  0  0  0  0  0  0  0  0  0
   30.9520   31.2210   36.1220 O   0  0  0  0  0  0  0  0  0  0  0  0
  1  6  1  0  0  0  0
  2  3  1  0  0  0  0
  2  1  2  0  0  0  0
  3  4  2  0  0  0  0
  4  5  1  0  0  0  0
  5 10  1  0  0  0  0
  6  5  2  0  0  0  0
  7  2  1  0  0  0  0
  8  3  1  0  0  0  0
  9 17  1  0  0  0  0
 10  9  2  0  0  0  0
 10 11  1  0  0  0  0
 11 12  2  0  0  0  0
 12 16  1  0  0  0  0
 12 13  1  0  0  0  0
 13 14  1  0  0  0  0
 14 21  1  0  0  0  0
 15 14  2  0  0  0  0
 15 22  1  0  0  0  0
 16 15  1  0  0  0  0
 17 23  1  0  0  0  0
 17 16  2  0  0  0  0
 18  9  1  0  0  0  0
 19 11  1  0  0  0  0
 20 13  1  0  0  0  0
 24  1  1  0  0  0  0
 24 26  1  0  0  0  0
 25 24  2  0  0  0  0
 26 27  2  0  0  0  0
 27 28  1  0  0  0  0
 29 27  1  0  0  0  0
 29 30  1  0  0  0  0
 31 29  2  0  0  0  0
 32 31  1  0  0  0  0
 33 31  1  0  0  0  0
 33 26  1  0  0  0  0
M  END
>  <minimizedAffinity>
-5.60513401

$$$$

 OpenBabel03252504013D

 33 36  0  0  1  0  0  0  0  0999 V2000
   38.4220   26.7060   41.8020 C   0  0  0  0  0  0  0  0  0  0  0  0
   37.4290   26.3280   42.7090 C   0  0  0  0  0  0  0  0  0  0  0  0
   36.5760   27.3150   43.1610 C   0  0  0  0  0  0  0  0  0  0  0  0
   36.7370   28.5850   42.7110 N   0  0  0  0  0  0  0  0  0  0  0  0
   37.7100   28.9090   41.8330 C   0  0  0  0  0  0  0  0  0  0  0  0
   38.5550   27.9750   41.3760 N   0  0  0  0  0  0  0  0  0  0  0  0
   37.3280   25.3030   43.0470 H   0  0  0  0  0  0  0  0  0  0  0  0
   35.7820   27.0930   43.8650 H   0  0  0  0  0  0  0  0  0  0  0  0
   36.8440   30.8630   40.6510 C   0  0  0  0  0  0  0  0  0  0  0  0
   37.8810   30.2870   41.3490 C   0  0  0  0  0  0  0  0  0  0  0  0
   39.0500   31.0030   41.5790 C   0  0  0  0  0  0  0  0  0  0  0  0
   39.1250   32.2960   41.0870 C   0  0  0  0  0  0  0  0  0  0  0  0
   40.1040   33.2230   41.1470 N   0  0  0  0  0  0  0  0  0  0  0  0
   39.7350   34.3470   40.5250 C   0  0  0  0  0  0  0  0  0  0  0  0
   38.4710   34.1630   40.0350 C   0  0  0  0  0  0  0  0  0  0  0  0
   38.0840   32.8820   40.3830 C   0  0  0  0  0  0  0  0  0  0  0  0
   36.9400   32.1500   40.1700 C   0  0  0  0  0  0  0  0  0  0  0  0
   35.9070   30.3820   40.4280 H   0  0  0  0  0  0  0  0  0  0  0  0
   39.8640   30.5440   42.1290 H   0  0  0  0  0  0  0  0  0  0  0  0
   41.0380   33.0600   41.6300 H   0  0  0  0  0  0  0  0  0  0  0  0
   40.3710   35.2230   40.4520 H   0  0  0  0  0  0  0  0  0  0  0  0
   37.9020   34.8950   39.4830 H   0  0  0  0  0  0  0  0  0  0  0  0
   36.1400   32.6330   39.6170 H   0  0  0  0  0  0  0  0  0  0  0  0
   39.2900   25.6400   41.3590 C   0  0  2  0  0  3  0  0  0  0  0  0
   38.9270   24.7090   40.5500 O   0  0  0  0  0  1  0  0  0  0  0  0
   40.6730   25.5730   41.8330 C   0  0  0  0  0  0  0  0  0  0  0  0
   41.1030   25.2950   43.0880 C   0  0  0  0  0  0  0  0  0  0  0  0
   40.5000   25.0670   43.9800 H   0  0  0  0  0  0  0  0  0  0  0  0
   42.4820   25.3280   43.1350 C   0  0  0  0  0  0  0  0  0  0  0  0
   43.0960   25.1450   44.0020 H   0  0  0  0  0  0  0  0  0  0  0  0
   42.8440   25.6450   41.8220 C   0  0  0  0  0  0  0  0  0  0  0  0
   43.8830   25.7460   41.5340 H   0  0  0  0  0  0  0  0  0  0  0  0
   41.7510   25.7770   41.1050 O   0  0  0  0  0  0  0  0  0  0  0  0
  1  2  1  0  0  0  0
  2  7  1  0  0  0  0
  2  3  2  0  0  0  0
  3  8  1  0  0  0  0
  4  3  1  0  0  0  0
  5  4  2  0  0  0  0
  6  1  2  0  0  0  0
  6  5  1  0  0  0  0
  9 10  1  0  0  0  0
 10 11  2  0  0  0  0
 10  5  1  0  0  0  0
 11 19  1  0  0  0  0
 12 13  1  0  0  0  0
 12 11  1  0  0  0  0
 13 20  1  0  0  0  0
 14 13  1  0  0  0  0
 15 16  1  0  0  0  0
 15 14  2  0  0  0  0
 16 12  2  0  0  0  0
 17 16  1  0  0  0  0
 17  9  2  0  0  0  0
 18  9  1  0  0  0  0
 21 14  1  0  0  0  0
 22 15  1  0  0  0  0
 23 17  1  0  0  0  0
 24 25  1  1  0  0  0
 24  1  1  0  0  0  0
 24 26  1  0  0  0  0
 26 27  2  0  0  0  0
 27 29  1  0  0  0  0
 27 28  1  0  0  0  0
 29 30  1  0  0  0  0
 31 29  2  0  0  0  0
 32 31  1  0  0  0  0
 33 31  1  0  0  0  0
 33 26  1  0  0  0  0
M  END
>  <minimizedAffinity>
-5.57906437

$$$$

 OpenBabel03252504013D

 33 36  0  0  0  0  0  0  0  0999 V2000
   37.0550   28.3220   41.7090 C   0  0  0  0  0  0  0  0  0  0  0  0
   37.7390   29.4160   42.2440 C   0  0  0  0  0  0  0  0  0  0  0  0
   37.9370   30.5050   41.4180 C   0  0  0  0  0  0  0  0  0  0  0  0
   37.4650   30.4640   40.1470 N   0  0  0  0  0  0  0  0  0  0  0  0
   36.8080   29.3860   39.6670 C   0  0  0  0  0  0  0  0  0  0  0  0
   36.6010   28.3130   40.4430 N   0  0  0  0  0  0  0  0  0  0  0  0
   38.1020   29.4160   43.2660 H   0  0  0  0  0  0  0  0  0  0  0  0
   38.4590   31.3880   41.7680 H   0  0  0  0  0  0  0  0  0  0  0  0
   35.0000   28.9360   38.0880 C   0  0  0  0  0  0  0  0  0  0  0  0
   36.2990   29.3460   38.2890 C   0  0  0  0  0  0  0  0  0  0  0  0
   37.0920   29.7060   37.2060 C   0  0  0  0  0  0  0  0  0  0  0  0
   36.5320   29.6390   35.9410 C   0  0  0  0  0  0  0  0  0  0  0  0
   37.0360   29.9170   34.7200 N   0  0  0  0  0  0  0  0  0  0  0  0
   36.1230   29.7040   33.7680 C   0  0  0  0  0  0  0  0  0  0  0  0
   34.9750   29.2710   34.3720 C   0  0  0  0  0  0  0  0  0  0  0  0
   35.2240   29.2270   35.7310 C   0  0  0  0  0  0  0  0  0  0  0  0
   34.4630   28.8760   36.8200 C   0  0  0  0  0  0  0  0  0  0  0  0
   34.3190   28.6400   38.8660 H   0  0  0  0  0  0  0  0  0  0  0  0
   38.1150   30.0280   37.3700 H   0  0  0  0  0  0  0  0  0  0  0  0
   38.0310   30.2600   34.5600 H   0  0  0  0  0  0  0  0  0  0  0  0
   36.3160   29.8650   32.7120 H   0  0  0  0  0  0  0  0  0  0  0  0
   34.0590   29.0150   33.8630 H   0  0  0  0  0  0  0  0  0  0  0  0
   33.4420   28.5580   36.6290 H   0  0  0  0  0  0  0  0  0  0  0  0
   36.8730   27.2080   42.6110 C   0  0  0  0  0  0  0  0  0  0  0  0
   36.1590   27.2590   43.6780 O   0  0  0  0  0  0  0  0  0  0  0  0
   37.5220   25.9260   42.3340 C   0  0  0  0  0  0  0  0  0  0  0  0
   36.9740   24.8320   41.7500 C   0  0  0  0  0  0  0  0  0  0  0  0
   35.9470   24.7020   41.3780 H   0  0  0  0  0  0  0  0  0  0  0  0
   37.9080   23.8210   41.6650 C   0  0  0  0  0  0  0  0  0  0  0  0
   37.7530   22.8400   41.2470 H   0  0  0  0  0  0  0  0  0  0  0  0
   39.0520   24.3870   42.2380 C   0  0  0  0  0  0  0  0  0  0  0  0
   39.9760   23.8280   42.3200 H   0  0  0  0  0  0  0  0  0  0  0  0
   38.7720   25.6150   42.6110 O   0  0  0  0  0  0  0  0  0  0  0  0
  1  2  1  0  0  0  0
  1 24  1  0  0  0  0
  2  7  1  0  0  0  0
  3  8  1  0  0  0  0
  3  2  2  0  0  0  0
  4  3  1  0  0  0  0
  5  4  2  0  0  0  0
  5  6  1  0  0  0  0
  6  1  2  0  0  0  0
  9 10  1  0  0  0  0
  9 18  1  0  0  0  0
 10  5  1  0  0  0  0
 11 19  1  0  0  0  0
 11 10  2  0  0  0  0
 12 11  1  0  0  0  0
 13 12  1  0  0  0  0
 14 15  2  0  0  0  0
 14 13  1  0  0  0  0
 15 16  1  0  0  0  0
 16 12  2  0  0  0  0
 16 17  1  0  0  0  0
 17  9  2  0  0  0  0
 20 13  1  0  0  0  0
 21 14  1  0  0  0  0
 22 15  1  0  0  0  0
 23 17  1  0  0  0  0
 24 25  2  0  0  0  0
 26 24  1  0  0  0  0
 26 33  1  0  0  0  0
 27 26  2  0  0  0  0
 28 27  1  0  0  0  0
 29 27  1  0  0  0  0
 29 31  2  0  0  0  0
 30 29  1  0  0  0  0
 31 32  1  0  0  0  0
 31 33  1  0  0  0  0
M  END
>  <minimizedAffinity>
-5.55509996

$$$$

 OpenBabel03252504013D

 33 36  0  0  1  0  0  0  0  0999 V2000
   38.7560   29.7080   41.0470 C   0  0  0  0  0  0  0  0  0  0  0  0
   38.7530   30.0340   42.4050 C   0  0  0  0  0  0  0  0  0  0  0  0
   38.1970   29.1160   43.2750 C   0  0  0  0  0  0  0  0  0  0  0  0
   37.6900   27.9590   42.7800 N   0  0  0  0  0  0  0  0  0  0  0  0
   37.7130   27.6820   41.4590 C   0  0  0  0  0  0  0  0  0  0  0  0
   38.2440   28.5520   40.5880 N   0  0  0  0  0  0  0  0  0  0  0  0
   39.1670   30.9680   42.7670 H   0  0  0  0  0  0  0  0  0  0  0  0
   38.1610   29.3030   44.3420 H   0  0  0  0  0  0  0  0  0  0  0  0
   37.1720   25.3170   41.7410 C   0  0  0  0  0  0  0  0  0  0  0  0
   37.1610   26.4270   40.9270 C   0  0  0  0  0  0  0  0  0  0  0  0
   36.6410   26.3440   39.6410 C   0  0  0  0  0  0  0  0  0  0  0  0
   36.1420   25.1220   39.2210 C   0  0  0  0  0  0  0  0  0  0  0  0
   35.5830   24.7330   38.0560 N   0  0  0  0  0  0  0  0  0  0  0  0
   35.2440   23.4410   38.0970 C   0  0  0  0  0  0  0  0  0  0  0  0
   35.5860   22.9540   39.3290 C   0  0  0  0  0  0  0  0  0  0  0  0
   36.1490   24.0000   40.0370 C   0  0  0  0  0  0  0  0  0  0  0  0
   36.6700   24.1110   41.3030 C   0  0  0  0  0  0  0  0  0  0  0  0
   37.5540   25.2920   42.7460 H   0  0  0  0  0  0  0  0  0  0  0  0
   36.6360   27.2220   39.0040 H   0  0  0  0  0  0  0  0  0  0  0  0
   35.4420   25.3850   37.2260 H   0  0  0  0  0  0  0  0  0  0  0  0
   34.7790   22.9220   37.2660 H   0  0  0  0  0  0  0  0  0  0  0  0
   35.4360   21.9390   39.6630 H   0  0  0  0  0  0  0  0  0  0  0  0
   36.6620   23.2180   41.9220 H   0  0  0  0  0  0  0  0  0  0  0  0
   39.3460   30.6990   40.1780 C   0  0  1  0  0  3  0  0  0  0  0  0
   40.4090   30.5000   39.4820 O   0  0  0  0  0  1  0  0  0  0  0  0
   38.7330   32.0210   40.0480 C   0  0  0  0  0  0  0  0  0  0  0  0
   37.5420   32.3270   39.4780 C   0  0  0  0  0  0  0  0  0  0  0  0
   36.8170   31.6460   39.0080 H   0  0  0  0  0  0  0  0  0  0  0  0
   37.3160   33.6860   39.5530 C   0  0  0  0  0  0  0  0  0  0  0  0
   36.4510   34.2120   39.1820 H   0  0  0  0  0  0  0  0  0  0  0  0
   38.4540   34.1700   40.2070 C   0  0  0  0  0  0  0  0  0  0  0  0
   38.5760   35.2250   40.4190 H   0  0  0  0  0  0  0  0  0  0  0  0
   39.2470   33.1570   40.4740 O   0  0  0  0  0  0  0  0  0  0  0  0
  1  2  1  0  0  0  0
  2  7  1  0  0  0  0
  2  3  2  0  0  0  0
  3  8  1  0  0  0  0
  4  3  1  0  0  0  0
  5  4  2  0  0  0  0
  6  1  2  0  0  0  0
  6  5  1  0  0  0  0
  9 18  1  0  0  0  0
 10  5  1  0  0  0  0
 10  9  2  0  0  0  0
 11 10  1  0  0  0  0
 12 11  2  0  0  0  0
 12 16  1  0  0  0  0
 13 14  1  0  0  0  0
 13 12  1  0  0  0  0
 14 15  2  0  0  0  0
 15 22  1  0  0  0  0
 15 16  1  0  0  0  0
 16 17  2  0  0  0  0
 17  9  1  0  0  0  0
 17 23  1  0  0  0  0
 19 11  1  0  0  0  0
 20 13  1  0  0  0  0
 21 14  1  0  0  0  0
 24 25  1  6  0  0  0
 24  1  1  0  0  0  0
 26 24  1  0  0  0  0
 26 33  1  0  0  0  0
 27 29  1  0  0  0  0
 27 26  2  0  0  0  0
 28 27  1  0  0  0  0
 29 31  2  0  0  0  0
 30 29  1  0  0  0  0
 31 32  1  0  0  0  0
 31 33  1  0  0  0  0
M  END
>  <minimizedAffinity>
-5.52111864

$$$$
