
     RDKit          3D

 28 30  0  0  0  0  0  0  0  0999 V2000
   45.2723   36.1606   43.1788 C   0  0  0  0  0  0  0  0  0  0  0  0
   45.8698   34.9218   42.9027 C   0  0  0  0  0  0  0  0  0  0  0  0
   45.8260   33.9573   43.8912 C   0  0  0  0  0  0  0  0  0  0  0  0
   45.2245   34.2230   45.0692 N   0  0  0  0  0  0  0  0  0  0  0  0
   44.6486   35.4413   45.3129 C   0  0  0  0  0  0  0  0  0  0  0  0
   44.6863   36.3697   44.3721 N   0  0  0  0  0  0  0  0  0  0  0  0
   46.4460   32.6497   43.6251 C   0  0  0  0  0  0  0  0  0  0  0  0
   45.6537   31.5754   43.2861 C   0  0  0  0  0  0  0  0  0  0  0  0
   46.2720   30.3673   43.0444 C   0  0  0  0  0  0  0  0  0  0  0  0
   47.6612   30.1873   43.1284 C   0  0  0  0  0  0  0  0  0  0  0  0
   48.3897   31.3117   43.4739 C   0  0  0  0  0  0  0  0  0  0  0  0
   47.7723   32.4871   43.7075 N   0  0  0  0  0  0  0  0  0  0  0  0
   46.4946   34.6782   41.6493 C   0  0  0  0  0  0  0  0  0  0  0  0
   47.6532   35.1274   41.4674 O   0  0  0  0  0  0  0  0  0  0  0  0
   45.2853   36.9429   42.4302 H   0  0  0  0  0  0  0  0  0  0  0  0
   44.1890   35.5595   46.2909 H   0  0  0  0  0  0  0  0  0  0  0  0
   44.6013   31.7089   43.2218 H   0  0  0  0  0  0  0  0  0  0  0  0
   45.6499   29.5198   42.7773 H   0  0  0  0  0  0  0  0  0  0  0  0
   48.1427   29.2423   42.9392 H   0  0  0  0  0  0  0  0  0  0  0  0
   49.4707   31.2508   43.5587 H   0  0  0  0  0  0  0  0  0  0  0  0
   45.8774   33.9370   40.5523 C   0  0  0  0  0  0  0  0  0  0  0  0
   46.5277   33.7239   39.3438 C   0  0  0  0  0  0  0  0  0  0  0  0
   47.5047   34.0265   39.0089 H   0  0  0  0  0  0  0  0  0  0  0  0
   45.6866   32.9888   38.5031 C   0  0  0  0  0  0  0  0  0  0  0  0
   45.7980   32.6147   37.4933 H   0  0  0  0  0  0  0  0  0  0  0  0
   44.5414   32.7974   39.2840 C   0  0  0  0  0  0  0  0  0  0  0  0
   43.6037   32.2723   39.0473 H   0  0  0  0  0  0  0  0  0  0  0  0
   44.7112   33.3650   40.4507 O   0  0  0  0  0  0  0  0  0  0  0  0
  1  6  2  0
  2  1  1  0
  2  3  2  0
  3  4  1  0
  4  5  2  0
  6  5  1  0
  7 12  1  0
  7  3  1  0
  8  7  2  0
  9 10  2  0
  9  8  1  0
 10 11  1  0
 11 12  2  0
 13  2  1  0
 14 13  2  0
  1 15  1  0
  5 16  1  0
  8 17  1  0
  9 18  1  0
 10 19  1  0
 11 20  1  0
 21 22  2  0
 22 23  1  0
 22 24  1  0
 24 25  1  0
 24 26  2  0
 26 27  1  0
 26 28  1  0
 28 21  1  0
 13 21  1  0
M  ISO  8  15  14  16  14  17  14  18  14  19  14  20  14  23  16  25  16
M  ISO  1  27  14
M  END
>  <DihAtoms>  (1) 
1,12,20,21

>  <DihDeg>  (1) 
179.99778787724145

$$$$
