
 OpenBabel03252507153D

 28 30  0  0  0  0  0  0  0  0999 V2000
   45.1830   36.1430   43.3540 C   0  0  0  0  0  0  0  0  0  0  0  0
   45.7980   34.9260   43.0230 C   0  0  0  0  0  0  0  0  0  0  0  0
   45.8090   33.9340   43.9850 C   0  0  0  0  0  0  0  0  0  0  0  0
   45.2430   34.1550   45.1900 N   0  0  0  0  0  0  0  0  0  0  0  0
   44.6510   35.3520   45.4870 C   0  0  0  0  0  0  0  0  0  0  0  0
   44.6350   36.3070   44.5710 N   0  0  0  0  0  0  0  0  0  0  0  0
   45.1530   36.9450   42.6260 H   0  0  0  0  0  0  0  0  0  0  0  0
   44.2230   35.4340   46.4830 H   0  0  0  0  0  0  0  0  0  0  0  0
   46.4480   32.6490   43.6620 C   0  0  0  0  0  0  0  0  0  0  0  0
   45.6680   31.5670   43.3150 C   0  0  0  0  0  0  0  0  0  0  0  0
   46.3030   30.3800   43.0190 C   0  0  0  0  0  0  0  0  0  0  0  0
   47.6980   30.2280   43.0570 C   0  0  0  0  0  0  0  0  0  0  0  0
   48.4130   31.3580   43.4140 C   0  0  0  0  0  0  0  0  0  0  0  0
   47.7790   32.5120   43.7010 N   0  0  0  0  0  0  0  0  0  0  0  0
   44.6110   31.6800   43.2860 H   0  0  0  0  0  0  0  0  0  0  0  0
   45.6910   29.5280   42.7450 H   0  0  0  0  0  0  0  0  0  0  0  0
   48.1930   29.2990   42.8260 H   0  0  0  0  0  0  0  0  0  0  0  0
   49.4980   31.3180   43.4660 H   0  0  0  0  0  0  0  0  0  0  0  0
   46.3840   34.7290   41.7420 C   0  0  0  0  0  0  0  0  0  0  0  0
   47.5530   35.1460   41.5560 O   0  0  0  0  0  0  0  0  0  0  0  0
   45.7130   34.0730   40.6230 C   0  0  0  0  0  0  0  0  0  0  0  0
   44.3300   34.0280   40.5100 C   0  0  0  0  0  0  0  0  0  0  0  0
   43.5600   34.4230   41.1510 H   0  0  0  0  0  0  0  0  0  0  0  0
   43.9950   33.3370   39.3420 C   0  0  0  0  0  0  0  0  0  0  0  0
   43.0490   33.0790   38.8840 H   0  0  0  0  0  0  0  0  0  0  0  0
   45.2410   32.9950   38.8040 C   0  0  0  0  0  0  0  0  0  0  0  0
   45.4870   32.4440   37.8840 H   0  0  0  0  0  0  0  0  0  0  0  0
   46.1900   33.4460   39.5850 O   0  0  0  0  0  0  0  0  0  0  0  0
  1  6  1  0  0  0  0
  2  1  2  0  0  0  0
  2  3  1  0  0  0  0
  3  4  2  0  0  0  0
  4  5  1  0  0  0  0
  5  8  1  0  0  0  0
  6  5  2  0  0  0  0
  7  1  1  0  0  0  0
  9 14  1  0  0  0  0
  9  3  1  0  0  0  0
 10  9  2  0  0  0  0
 11 12  2  0  0  0  0
 11 10  1  0  0  0  0
 12 13  1  0  0  0  0
 13 18  1  0  0  0  0
 13 14  2  0  0  0  0
 15 10  1  0  0  0  0
 16 11  1  0  0  0  0
 17 12  1  0  0  0  0
 19  2  1  0  0  0  0
 20 19  2  0  0  0  0
 21 19  1  0  0  0  0
 22 21  2  0  0  0  0
 22 23  1  0  0  0  0
 24 22  1  0  0  0  0
 25 24  1  0  0  0  0
 26 24  2  0  0  0  0
 26 28  1  0  0  0  0
 27 26  1  0  0  0  0
 28 21  1  0  0  0  0
M  END
>  <minimizedAffinity>
-4.30858088

>  <minimizedRMSD>
0.26907739

$$$$
