
 OpenBabel03242523343D

 42 45  0  0  0  0  0  0  0  0999 V2000
   44.5200   35.9370   44.5010 C   0  0  0  0  0  0  0  0  0  0  0  0
   44.9220   35.4750   43.2280 C   0  0  0  0  0  0  0  0  0  0  0  0
   45.5660   34.2380   43.1270 C   0  0  0  0  0  0  0  0  0  0  0  0
   45.7900   33.5100   44.2630 N   0  0  0  0  0  0  0  0  0  0  0  0
   45.3840   33.9950   45.4630 C   0  0  0  0  0  0  0  0  0  0  0  0
   44.7570   35.1940   45.5760 N   0  0  0  0  0  0  0  0  0  0  0  0
   44.0180   36.8700   44.7030 H   0  0  0  0  0  0  0  0  0  0  0  0
   44.6480   36.2060   42.4920 H   0  0  0  0  0  0  0  0  0  0  0  0
   47.2110   33.4170   41.5040 C   0  0  0  0  0  0  0  0  0  0  0  0
   45.9500   33.8730   41.7810 C   0  0  0  0  0  0  0  0  0  0  0  0
   45.1210   33.9460   40.7110 C   0  0  0  0  0  0  0  0  0  0  0  0
   44.1020   34.2890   40.8010 H   0  0  0  0  0  0  0  0  0  0  0  0
   45.4440   33.6060   39.4190 C   0  0  0  0  0  0  0  0  0  0  0  0
   44.7510   33.6810   38.5970 H   0  0  0  0  0  0  0  0  0  0  0  0
   46.7350   33.1400   39.1470 C   0  0  0  0  0  3  0  0  0  0  0  0
   47.5990   33.0560   40.2140 C   0  0  0  0  0  3  0  0  0  0  0  0
   49.1740   32.4370   42.8690 N   0  0  0  0  0  0  0  0  0  0  0  0
   48.3110   33.3000   42.4170 C   0  0  0  0  0  0  0  0  0  0  0  0
   48.7910   34.4220   43.1400 N   0  0  0  0  0  0  0  0  0  0  0  0
   49.1670   31.4350   42.5680 H   0  0  0  0  0  0  0  0  0  0  0  0
   49.1850   35.1900   43.7270 H   0  0  0  0  0  0  0  0  0  0  0  0
   48.6320   35.4500   42.9180 H   0  0  0  0  0  0  0  0  0  0  0  0
   45.6510   33.1280   46.6330 C   0  0  0  0  0  0  0  0  0  0  0  0
   44.7110   32.8390   47.1620 H   0  0  0  0  0  0  0  0  0  0  0  0
   46.2120   33.7420   47.3600 H   0  0  0  0  0  0  0  0  0  0  0  0
   46.5550   31.6810   46.0610 S   0  0  0  0  0  0  0  0  0  0  0  0
   47.6210   31.0600   47.3450 C   0  0  0  0  0  0  0  0  0  0  0  0
   47.9430   31.9140   48.3690 C   0  0  0  0  0  0  0  0  0  0  0  0
   48.7500   31.4400   49.3800 C   0  0  0  0  0  0  0  0  0  0  0  0
   49.2410   30.1370   49.3900 C   0  0  0  0  0  0  0  0  0  0  0  0
   50.0270   29.7150   50.3990 N   0  0  0  0  0  0  0  0  0  0  0  0
   50.5050   28.4480   50.4120 C   0  0  0  0  0  0  0  0  0  0  0  0
   50.1840   27.6040   49.3920 C   0  0  0  0  0  0  0  0  0  0  0  0
   49.3760   28.0370   48.3530 C   0  0  0  0  0  0  0  0  0  0  0  0
   48.8730   29.3430   48.3280 C   0  0  0  0  0  0  0  0  0  0  0  0
   48.0660   29.7630   47.2870 C   0  0  0  0  0  0  0  0  0  0  0  0
   47.6620   32.9370   48.5210 H   0  0  0  0  0  0  0  0  0  0  0  0
   49.0630   32.0510   50.2410 H   0  0  0  0  0  0  0  0  0  0  0  0
   51.1440   28.0780   51.2160 H   0  0  0  0  0  0  0  0  0  0  0  0
   50.5040   26.5770   49.2920 H   0  0  0  0  0  0  0  0  0  0  0  0
   49.0930   27.4070   47.5230 H   0  0  0  0  0  0  0  0  0  0  0  0
   47.7990   29.1100   46.4690 H   0  0  0  0  0  0  0  0  0  0  0  0
  1  7  1  0  0  0  0
  1  6  1  0  0  0  0
  2  1  2  0  0  0  0
  3  2  1  0  0  0  0
  3  4  2  0  0  0  0
  4  5  1  0  0  0  0
  5  6  2  0  0  0  0
  5 23  1  0  0  0  0
  8  2  1  0  0  0  0
  9 10  1  0  0  0  0
  9 18  1  0  0  0  0
 10  3  1  0  0  0  0
 11 12  1  0  0  0  0
 11 10  2  0  0  0  0
 13 11  1  0  0  0  0
 14 13  1  0  0  0  0
 15 13  2  0  0  0  0
 15 16  1  0  0  0  0
 16  9  2  0  0  0  0
 18 17  2  0  0  0  0
 18 19  1  0  0  0  0
 19 21  1  0  0  0  0
 20 17  1  0  0  0  0
 22 19  1  0  0  0  0
 23 24  1  0  0  0  0
 23 25  1  0  0  0  0
 26 23  1  0  0  0  0
 26 27  1  0  0  0  0
 27 28  1  0  0  0  0
 28 37  1  0  0  0  0
 28 29  2  0  0  0  0
 29 30  1  0  0  0  0
 29 38  1  0  0  0  0
 30 31  1  0  0  0  0
 31 32  2  0  0  0  0
 32 39  1  0  0  0  0
 33 32  1  0  0  0  0
 34 33  2  0  0  0  0
 35 34  1  0  0  0  0
 35 30  2  0  0  0  0
 36 27  2  0  0  0  0
 36 35  1  0  0  0  0
 40 33  1  0  0  0  0
 41 34  1  0  0  0  0
 42 36  1  0  0  0  0
M  END
>  <minimizedAffinity>
-5.97502327

>  <minimizedRMSD>
0.877178907

$$$$
