REMARK  Name = 
REMARK  4 active torsions:
REMARK  status: ('A' for Active; 'I' for Inactive)
REMARK    1  A    between atoms: N_1  and  C_8
REMARK    2  A    between atoms: C_3  and  N_12
REMARK    3  A    between atoms: N_12  and  C_28
REMARK    4  A    between atoms: C_25  and  C_27
REMARK                            x       y       z     vdW  Elec       q    Type
REMARK                         _______ _______ _______ _____ _____    ______ ____
ROOT
ATOM      1  N   UNL     1      47.151  34.228  42.382  0.00  0.00    +0.000 N 
ATOM      2  C   UNL     1      47.992  35.049  41.534  0.00  0.00    +0.000 C 
ATOM      3  C   UNL     1      47.714  34.394  40.219  0.00  0.00    +0.000 C 
ATOM      4  C   UNL     1      47.905  32.933  40.563  0.00  0.00    +0.000 C 
ATOM      5  C   UNL     1      47.369  32.855  41.971  0.00  0.00    +0.000 C 
ATOM      6  H   UNL     1      47.709  36.089  41.518  0.00  0.00    +0.000 HD
ATOM      7  H   UNL     1      49.052  34.856  41.790  0.00  0.00    +0.000 HD
ATOM      8  H   UNL     1      46.683  34.591  39.845  0.00  0.00    +0.000 HD
ATOM      9  H   UNL     1      49.009  32.746  40.536  0.00  0.00    +0.000 HD
ATOM     10  H   UNL     1      47.352  32.313  39.846  0.00  0.00    +0.000 HD
ATOM     11  H   UNL     1      46.354  32.367  41.938  0.00  0.00    +0.000 HD
ATOM     12  H   UNL     1      48.074  32.317  42.638  0.00  0.00    +0.000 HD
ENDROOT
BRANCH   1  15
ATOM     13  C   UNL     1      44.585  35.943  44.471  0.00  0.00    +0.000 A 
ATOM     14  C   UNL     1      45.403  35.679  43.378  0.00  0.00    +0.000 A 
ATOM     15  C   UNL     1      46.275  34.603  43.414  0.00  0.00    +0.000 A 
ATOM     16  N   UNL     1      46.288  33.831  44.560  0.00  0.00    +0.000 NA
ATOM     17  C   UNL     1      45.480  34.109  45.617  0.00  0.00    +0.000 A 
ATOM     18  N   UNL     1      44.625  35.173  45.566  0.00  0.00    +0.000 NA
ATOM     19  H   UNL     1      43.914  36.789  44.414  0.00  0.00    +0.000 HD
ATOM     20  H   UNL     1      45.401  36.281  42.468  0.00  0.00    +0.000 HD
ATOM     21  H   UNL     1      45.565  33.446  46.467  0.00  0.00    +0.000 HD
ENDBRANCH   1  15
BRANCH   3  22
ATOM     22  N   UNL     1      48.665  34.743  39.205  0.00  0.00    +0.000 N 
ATOM     23  H   UNL     1      49.318  33.976  38.857  0.00  0.00    +0.000 HD
BRANCH  22  25
ATOM     24  C   UNL     1      48.568  36.229  37.236  0.00  0.00    +0.000 A 
ATOM     25  C   UNL     1      48.915  35.974  38.546  0.00  0.00    +0.000 A 
ATOM     26  C   UNL     1      49.520  37.048  39.163  0.00  0.00    +0.000 A 
ATOM     27  H   UNL     1      49.841  37.011  40.193  0.00  0.00    +0.000 HD
ATOM     28  C   UNL     1      49.768  38.256  38.570  0.00  0.00    +0.000 A 
ATOM     29  H   UNL     1      50.247  39.091  39.075  0.00  0.00    +0.000 HD
ATOM     30  C   UNL     1      49.404  38.457  37.267  0.00  0.00    +0.000 A 
ATOM     31  C   UNL     1      48.797  37.416  36.609  0.00  0.00    +0.000 A 
BRANCH  24  33
ATOM     32  N   UNL     1      48.112  35.132  35.167  0.00  0.00    +0.000 NA
ATOM     33  C   UNL     1      47.919  35.220  36.438  0.00  0.00    +0.000 C 
ATOM     34  N   UNL     1      47.020  34.133  36.502  0.00  0.00    +0.000 N 
ATOM     35  H   UNL     1      47.656  34.419  34.574  0.00  0.00    +0.000 HD
ATOM     36  H   UNL     1      47.251  33.118  36.558  0.00  0.00    +0.000 HD
ATOM     37  H   UNL     1      46.000  34.355  36.495  0.00  0.00    +0.000 HD
ENDBRANCH  24  33
ENDBRANCH  22  25
ENDBRANCH   3  22
TORSDOF 4
