REMARK  Name = 
REMARK  4 active torsions:
REMARK  status: ('A' for Active; 'I' for Inactive)
REMARK    1  A    between atoms: C_1  and  C_11
REMARK    2  A    between atoms: C_3  and  S_13
REMARK    3  A    between atoms: S_13  and  C_25
REMARK    4  A    between atoms: C_22  and  C_24
REMARK                            x       y       z     vdW  Elec       q    Type
REMARK                         _______ _______ _______ _____ _____    ______ ____
ROOT
ATOM      1  C   UNL     1      46.015  32.754  47.058  0.00  0.00    +0.000 A 
ATOM      2  C   UNL     1      47.264  32.410  47.519  0.00  0.00    +0.000 A 
ATOM      3  C   UNL     1      47.423  31.618  48.636  0.00  0.00    +0.000 A 
ATOM      4  C   UNL     1      46.324  31.141  49.333  0.00  0.00    +0.000 A 
ATOM      5  C   UNL     1      45.070  31.476  48.885  0.00  0.00    +0.000 A 
ATOM      6  C   UNL     1      44.934  32.270  47.764  0.00  0.00    +0.000 A 
ATOM      7  H   UNL     1      48.122  32.788  46.967  0.00  0.00    +0.000 HD
ATOM      8  H   UNL     1      46.442  30.515  50.216  0.00  0.00    +0.000 HD
ATOM      9  H   UNL     1      44.172  31.128  49.395  0.00  0.00    +0.000 HD
ATOM     10  H   UNL     1      43.948  32.541  47.401  0.00  0.00    +0.000 HD
ENDROOT
BRANCH   1  15
ATOM     11  C   UNL     1      44.718  35.359  44.841  0.00  0.00    +0.000 A 
ATOM     12  C   UNL     1      45.484  35.220  43.678  0.00  0.00    +0.000 A 
ATOM     13  C   UNL     1      46.464  34.212  43.658  0.00  0.00    +0.000 A 
ATOM     14  N   UNL     1      46.633  33.414  44.757  0.00  0.00    +0.000 NA
ATOM     15  C   UNL     1      45.852  33.596  45.869  0.00  0.00    +0.000 A 
ATOM     16  N   UNL     1      44.898  34.563  45.914  0.00  0.00    +0.000 NA
ATOM     17  H   UNL     1      43.977  36.148  44.807  0.00  0.00    +0.000 HD
ATOM     18  H   UNL     1      45.343  35.860  42.806  0.00  0.00    +0.000 HD
ATOM     19  H   UNL     1      47.078  34.073  42.776  0.00  0.00    +0.000 HD
ENDBRANCH   1  15
BRANCH   3  20
ATOM     20  S   UNL     1      49.081  31.212  49.176  0.00  0.00    +0.000 S 
BRANCH  20  22
ATOM     21  C   UNL     1      49.034  28.842  50.369  0.00  0.00    +0.000 A 
ATOM     22  C   UNL     1      49.057  30.186  50.628  0.00  0.00    +0.000 A 
ATOM     23  C   UNL     1      49.058  30.586  51.936  0.00  0.00    +0.000 A 
ATOM     24  H   UNL     1      49.077  31.676  52.078  0.00  0.00    +0.000 HD
ATOM     25  C   UNL     1      49.038  29.686  52.975  0.00  0.00    +0.000 A 
ATOM     26  H   UNL     1      49.040  30.072  53.998  0.00  0.00    +0.000 HD
ATOM     27  C   UNL     1      49.015  28.327  52.725  0.00  0.00    +0.000 A 
ATOM     28  C   UNL     1      49.013  27.910  51.398  0.00  0.00    +0.000 A 
BRANCH  21  30
ATOM     29  N   UNL     1      48.539  27.154  48.549  0.00  0.00    +0.000 NA
ATOM     30  C   UNL     1      49.029  28.248  49.026  0.00  0.00    +0.000 C 
ATOM     31  N   UNL     1      49.709  29.065  48.081  0.00  0.00    +0.000 N 
ATOM     32  H   UNL     1      48.018  26.455  49.107  0.00  0.00    +0.000 HD
ATOM     33  H   UNL     1      50.687  28.786  47.842  0.00  0.00    +0.000 HD
ATOM     34  H   UNL     1      50.206  29.665  47.387  0.00  0.00    +0.000 HD
ENDBRANCH  21  30
ENDBRANCH  20  22
ENDBRANCH   3  20
TORSDOF 4
