
 OpenBabel03252508033D

 47 50  0  0  1  0  0  0  0  0999 V2000
   41.5510   33.0820   40.8690 C   0  0  0  0  0  0  0  0  0  0  0  0
   42.1670   34.1370   40.2590 C   0  0  0  0  0  0  0  0  0  0  0  0
   41.4210   35.3190   40.0870 C   0  0  0  0  0  0  0  0  0  0  0  0
   40.1170   35.4620   40.4960 C   0  0  0  0  0  0  0  0  0  0  0  0
   39.5100   34.3990   41.1060 C   0  0  0  0  0  0  0  0  0  0  0  0
   40.2240   33.2510   41.2780 C   0  0  0  0  0  0  0  0  0  0  0  0
   41.8200   36.2070   39.6060 H   0  0  0  0  0  0  0  0  0  0  0  0
   39.5600   36.3570   40.3620 H   0  0  0  0  0  0  0  0  0  0  0  0
   38.4960   34.4230   41.4580 H   0  0  0  0  0  0  0  0  0  0  0  0
   39.7290   32.3990   41.7690 H   0  0  0  0  0  0  0  0  0  0  0  0
   42.3530   31.6450   41.2300 S   0  0  0  0  0  0  0  0  0  0  0  0
   41.7150   30.6930   40.1690 O   0  0  0  0  0  0  0  0  0  0  0  0
   42.0010   31.1010   42.5610 O   0  0  0  0  0  0  0  0  0  0  0  0
   44.8240   30.9560   41.7570 C   0  0  0  0  0  0  0  0  0  0  0  0
   43.8550   31.0760   40.7210 C   0  0  0  0  0  0  0  0  0  0  0  0
   44.3540   30.6160   39.4900 C   0  0  0  0  0  0  0  0  0  0  0  0
   43.5520   30.6940   38.7300 H   0  0  0  0  0  0  0  0  0  0  0  0
   45.5790   30.0920   39.1410 C   0  0  0  0  0  0  0  0  0  0  0  0
   45.7120   29.8130   38.1170 H   0  0  0  0  0  0  0  0  0  0  0  0
   46.3820   30.0450   40.2380 C   0  0  0  0  0  3  0  0  0  0  0  0
   46.0730   30.4390   41.4930 C   0  0  0  0  0  3  0  0  0  0  0  0
   44.7510   30.4920   44.1490 N   0  0  0  0  0  0  0  0  0  0  0  0
   44.7620   31.3530   43.1830 C   0  0  0  0  0  0  0  0  0  0  0  0
   44.7370   32.6570   43.7420 N   0  0  0  0  0  0  0  0  0  0  0  0
   44.7280   30.9100   45.1040 H   0  0  0  0  0  0  0  0  0  0  0  0
   45.4050   32.9870   44.4730 H   0  0  0  0  0  0  0  0  0  0  0  0
   44.4600   33.6400   43.9380 H   0  0  0  0  0  0  0  0  0  0  0  0
   43.5380   34.0900   39.7880 C   0  0  0  0  0  0  0  0  0  0  0  0
   43.8860   33.6830   38.6350 O   0  0  0  0  0  0  0  0  0  0  0  0
   44.4890   34.5550   40.7610 C   0  0  0  0  0  0  0  0  0  0  0  0
   43.9810   35.4750   41.7410 C   0  0  0  0  0  0  0  0  0  0  0  0
   44.8770   35.9290   42.6950 C   0  0  0  0  0  0  0  0  0  0  0  0
   46.1620   35.4830   42.6450 N   0  0  0  0  0  0  0  0  0  0  0  0
   46.5960   34.6030   41.6850 C   0  0  0  0  0  0  0  0  0  0  0  0
   45.7650   34.1800   40.7980 N   0  0  0  0  0  0  0  0  0  0  0  0
   43.0050   35.8680   41.8480 H   0  0  0  0  0  0  0  0  0  0  0  0
   44.6250   36.6200   43.4840 H   0  0  0  0  0  0  0  0  0  0  0  0
   48.0080   34.1700   41.7160 C   0  0  1  0  0  0  0  0  0  0  0  0
   48.9730   34.8610   42.6490 C   0  0  0  0  0  0  0  0  0  0  0  0
   48.4200   33.4960   42.9770 C   0  0  1  0  0  0  0  0  0  0  0  0
   48.4630   33.8450   40.7830 H   0  0  0  0  0  0  0  0  0  0  0  0
   50.0450   34.9450   42.3530 H   0  0  0  0  0  0  0  0  0  0  0  0
   48.6310   35.7490   43.2320 H   0  0  0  0  0  0  0  0  0  0  0  0
   49.0800   32.6150   42.8650 H   0  0  0  0  0  0  0  0  0  0  0  0
   47.5450   33.4980   44.1260 N   0  0  0  0  0  0  0  0  0  0  0  0
   46.6290   33.0690   43.9670 H   0  0  0  0  0  0  0  0  0  0  0  0
   47.5400   34.3720   44.6730 H   0  0  0  0  0  0  0  0  0  0  0  0
  1 11  1  0  0  0  0
  1  6  1  0  0  0  0
  2  1  2  0  0  0  0
  3  2  1  0  0  0  0
  3  4  2  0  0  0  0
  4  5  1  0  0  0  0
  5  6  2  0  0  0  0
  5  9  1  0  0  0  0
  6 10  1  0  0  0  0
  7  3  1  0  0  0  0
  8  4  1  0  0  0  0
 11 13  2  0  0  0  0
 12 11  2  0  0  0  0
 14 23  1  0  0  0  0
 15 11  1  0  0  0  0
 15 14  2  0  0  0  0
 16 15  1  0  0  0  0
 17 16  1  0  0  0  0
 18 16  2  0  0  0  0
 18 20  1  0  0  0  0
 19 18  1  0  0  0  0
 20 21  2  0  0  0  0
 21 14  1  0  0  0  0
 22 25  1  0  0  0  0
 23 24  1  0  0  0  0
 23 22  2  0  0  0  0
 24 27  1  0  0  0  0
 24 26  1  0  0  0  0
 28  2  1  0  0  0  0
 28 30  1  0  0  0  0
 29 28  2  0  0  0  0
 30 35  2  0  0  0  0
 30 31  1  0  0  0  0
 31 36  1  0  0  0  0
 31 32  2  0  0  0  0
 32 37  1  0  0  0  0
 33 32  1  0  0  0  0
 34 38  1  0  0  0  0
 34 33  2  0  0  0  0
 35 34  1  0  0  0  0
 38 41  1  6  0  0  0
 38 39  1  0  0  0  0
 38 40  1  0  0  0  0
 39 40  1  0  0  0  0
 39 43  1  0  0  0  0
 40 44  1  6  0  0  0
 40 45  1  0  0  0  0
 42 39  1  0  0  0  0
 45 47  1  0  0  0  0
 46 45  1  0  0  0  0
M  END
>  <minimizedAffinity>
-5.79479313

>  <minimizedRMSD>
2.4302814

$$$$
