
     RDKit          3D

 37 39  0  0  0  0  0  0  0  0999 V2000
   44.6707   35.3720   45.1452 C   0  0  0  0  0  0  0  0  0  0  0  0
   45.1305   35.7024   43.8233 C   0  0  0  0  0  0  0  0  0  0  0  0
   46.0760   34.8585   43.3419 C   0  0  0  0  0  0  0  0  0  0  0  0
   46.5566   33.7795   44.0602 N   0  0  0  0  0  0  0  0  0  0  0  0
   46.0930   33.5133   45.2963 C   0  0  0  0  0  0  0  0  0  0  0  0
   45.1439   34.3144   45.8414 N   0  0  0  0  0  0  0  0  0  0  0  0
   46.5787   35.0616   41.9323 C   0  0  1  0  0  0  0  0  0  0  0  0
   48.1151   35.2996   41.9299 C   0  0  0  0  0  0  0  0  0  0  0  0
   47.3682   34.0798   41.3141 C   0  0  2  0  0  0  0  0  0  0  0  0
   47.3641   33.9088   39.8124 C   0  0  0  0  0  0  0  0  0  0  0  0
   44.6611   36.8170   43.1119 N   0  0  0  0  0  0  0  0  0  0  0  0
   43.9142   36.0243   45.5610 H   0  0  0  0  0  0  0  0  0  0  0  0
   46.5481   32.6503   45.7417 H   0  0  0  0  0  0  0  0  0  0  0  0
   46.0136   35.8366   41.3757 H   0  0  0  0  0  0  0  0  0  0  0  0
   48.4472   36.0659   41.2110 H   0  0  0  0  0  0  0  0  0  0  0  0
   48.6807   35.1019   42.8439 H   0  0  0  0  0  0  0  0  0  0  0  0
   47.5976   33.1081   41.8449 H   0  0  0  0  0  0  0  0  0  0  0  0
   47.6308   34.9074   39.3998 H   0  0  0  0  0  0  0  0  0  0  0  0
   46.3131   33.6503   39.5317 H   0  0  0  0  0  0  0  0  0  0  0  0
   43.8877   36.2771   42.6817 H   0  0  0  0  0  0  0  0  0  0  0  0
   45.4107   37.4668   43.4886 H   0  0  0  0  0  0  0  0  0  0  0  0
   48.4504   35.3076   37.3243 N   0  0  0  0  0  0  0  0  0  0  0  0
   48.6654   34.0506   37.1642 C   0  0  0  0  0  0  0  0  0  0  0  0
   48.7288   33.8318   35.7558 N   0  0  0  0  0  0  0  0  0  0  0  0
   48.8346   32.9447   38.0846 C   0  0  0  0  0  0  0  0  0  0  0  0
   48.2435   32.8414   39.3260 C   0  0  0  0  0  0  0  0  0  0  0  0
   48.4798   31.7346   40.1144 C   0  0  0  0  0  0  0  0  0  0  0  0
   47.9835   31.7025   41.0958 H   0  0  0  0  0  0  0  0  0  0  0  0
   49.3071   30.7380   39.6548 C   0  0  0  0  0  0  0  0  0  0  0  0
   49.4384   29.8997   40.3433 H   0  0  0  0  0  0  0  0  0  0  0  0
   49.9127   30.8131   38.4179 C   0  0  0  0  0  0  0  0  0  0  0  0
   49.6559   31.9176   37.6705 C   0  0  0  0  0  0  0  0  0  0  0  0
   48.3561   35.9574   36.5206 H   0  0  0  0  0  0  0  0  0  0  0  0
   47.7827   33.7324   35.3044 H   0  0  0  0  0  0  0  0  0  0  0  0
   49.6467   33.7819   35.2616 H   0  0  0  0  0  0  0  0  0  0  0  0
   50.5528   30.0079   38.0999 H   0  0  0  0  0  0  0  0  0  0  0  0
   50.1538   31.9478   36.6890 H   0  0  0  0  0  0  0  0  0  0  0  0
  1  6  2  0
  2  1  1  0
  3  2  2  0
  3  4  1  0
  4  5  2  0
  5  6  1  0
  7  3  1  0
  8  7  1  0
  9  8  1  0
  9  7  1  0
 10  9  1  0
 11  2  1  0
  1 12  1  0
  5 13  1  0
  7 14  1  6
  8 15  1  0
  8 16  1  0
  9 17  1  1
 10 18  1  0
 10 19  1  0
 11 20  1  0
 11 21  1  0
 22 23  2  3
 23 24  1  0
 23 25  1  0
 25 26  2  0
 26 27  1  0
 27 28  1  0
 27 29  2  0
 29 30  1  0
 29 31  1  0
 31 32  2  0
 32 25  1  0
 22 33  1  0
 24 34  1  0
 24 35  1  0
 31 36  1  0
 32 37  1  0
 10 26  1  0
M  ISO  8  12  14  13  14  14  13  15  13  16  13  17  13  18   8  19   8
M  ISO  2  28  15  30  16
M  END
>  <DihAtoms>  (1) 
8,9,25,24

>  <DihDeg>  (1) 
75.59921878621944

$$$$
