
     RDKit          3D

 44 47  0  0  0  0  0  0  0  0999 V2000
   46.5413   31.6939   46.0611 S   0  0  0  0  0  0  0  0  0  0  0  0
   47.6075   31.0649   47.3397 C   0  0  0  0  0  0  0  0  0  0  0  0
   47.9314   31.9131   48.3687 C   0  0  0  0  0  0  0  0  0  0  0  0
   48.7394   31.4343   49.3755 C   0  0  0  0  0  0  0  0  0  0  0  0
   49.2302   30.1309   49.3777 C   0  0  0  0  0  0  0  0  0  0  0  0
   50.0167   29.7035   50.3844 N   0  0  0  0  0  0  0  0  0  0  0  0
   50.4963   28.4357   50.3886 C   0  0  0  0  0  0  0  0  0  0  0  0
   50.1749   27.5982   49.3644 C   0  0  0  0  0  0  0  0  0  0  0  0
   49.3647   28.0370   48.3280 C   0  0  0  0  0  0  0  0  0  0  0  0
   48.8625   29.3426   48.3117 C   0  0  0  0  0  0  0  0  0  0  0  0
   48.0544   29.7688   47.2737 C   0  0  0  0  0  0  0  0  0  0  0  0
   45.6440   33.1431   46.6391 C   0  0  0  0  0  0  0  0  0  0  0  0
   44.5840   35.9770   44.5035 C   0  0  0  0  0  0  0  0  0  0  0  0
   45.3296   35.7136   43.3341 C   0  0  0  0  0  0  0  0  0  0  0  0
   46.1700   34.5970   43.3012 C   0  0  0  0  0  0  0  0  0  0  0  0
   46.2471   33.7904   44.4026 N   0  0  0  0  0  0  0  0  0  0  0  0
   45.5097   34.0838   45.5043 C   0  0  0  0  0  0  0  0  0  0  0  0
   44.6902   35.1653   45.5487 N   0  0  0  0  0  0  0  0  0  0  0  0
   47.6493   32.9346   48.5266 H   0  0  0  0  0  0  0  0  0  0  0  0
   49.0520   32.0396   50.2409 H   0  0  0  0  0  0  0  0  0  0  0  0
   51.1355   28.0618   51.1901 H   0  0  0  0  0  0  0  0  0  0  0  0
   50.4954   26.5721   49.2582 H   0  0  0  0  0  0  0  0  0  0  0  0
   49.0816   27.4123   47.4947 H   0  0  0  0  0  0  0  0  0  0  0  0
   47.7859   29.1211   46.4522 H   0  0  0  0  0  0  0  0  0  0  0  0
   44.6519   32.8644   47.0694 H   0  0  0  0  0  0  0  0  0  0  0  0
   46.1620   33.6922   47.4446 H   0  0  0  0  0  0  0  0  0  0  0  0
   43.9064   36.8040   44.6466 H   0  0  0  0  0  0  0  0  0  0  0  0
   45.1136   36.4740   42.6077 H   0  0  0  0  0  0  0  0  0  0  0  0
   49.4704   32.1922   43.5377 N   0  0  0  0  0  0  0  0  0  0  0  0
   48.8344   33.2580   43.1472 C   0  0  0  0  0  0  0  0  0  0  0  0
   49.0855   34.0444   44.3020 N   0  0  0  0  0  0  0  0  0  0  0  0
   48.1046   33.7857   42.0307 C   0  0  0  0  0  0  0  0  0  0  0  0
   46.8991   34.4342   42.0618 C   0  0  0  0  0  0  0  0  0  0  0  0
   46.4662   34.8927   40.8629 C   0  0  0  0  0  0  0  0  0  0  0  0
   45.5297   35.4190   40.7570 H   0  0  0  0  0  0  0  0  0  0  0  0
   47.1244   34.7571   39.6640 C   0  0  0  0  0  0  0  0  0  0  0  0
   46.7413   35.1387   38.7328 H   0  0  0  0  0  0  0  0  0  0  0  0
   48.3549   34.0905   39.6427 C   0  0  0  0  0  0  0  0  0  0  0  0
   48.8197   33.6152   40.8460 C   0  0  0  0  0  0  0  0  0  0  0  0
   49.5304   31.3327   42.9452 H   0  0  0  0  0  0  0  0  0  0  0  0
   49.2861   34.5453   45.1946 H   0  0  0  0  0  0  0  0  0  0  0  0
   49.0418   35.1036   44.3838 H   0  0  0  0  0  0  0  0  0  0  0  0
   48.8666   33.9860   38.7003 H   0  0  0  0  0  0  0  0  0  0  0  0
   49.7854   33.1091   40.7366 H   0  0  0  0  0  0  0  0  0  0  0  0
  1 12  1  0
  1  2  1  0
  2  3  2  0
  3  4  1  0
  4  5  2  0
  5  6  1  0
  6  7  2  0
  8  7  1  0
  9  8  2  0
 10  9  1  0
 10  5  1  0
 11  2  1  0
 11 10  2  0
 13 18  2  0
 14 13  1  0
 15 14  2  0
 15 16  1  0
 16 17  2  0
 17 18  1  0
 17 12  1  0
  3 19  1  0
  4 20  1  0
  7 21  1  0
  8 22  1  0
  9 23  1  0
 11 24  1  0
 12 25  1  0
 12 26  1  0
 13 27  1  0
 14 28  1  0
 29 30  2  3
 30 31  1  0
 30 32  1  0
 32 33  2  0
 33 34  1  0
 34 35  1  0
 34 36  2  0
 36 37  1  0
 36 38  1  0
 38 39  2  0
 39 32  1  0
 29 40  1  0
 31 41  1  0
 31 42  1  0
 38 43  1  0
 39 44  1  0
 15 33  1  0
M  ISO  8  19  14  20  14  21  14  22  14  23  14  24  14  25   8  26   8
M  ISO  4  27  14  28  14  35  15  37  16
M  END
>  <DihAtoms>  (1) 
13,14,32,31

>  <DihDeg>  (1) 
167.99572764691143

$$$$
