
     RDKit          3D

 28 29  0  0  0  0  0  0  0  0999 V2000
   45.4399   35.0627   44.0006 C   0  0  0  0  0  0  0  0  0  0  0  0
   46.4947   34.2971   43.5114 C   0  0  0  0  0  0  0  0  0  0  0  0
   47.0253   33.2866   44.3261 C   0  0  0  0  0  0  0  0  0  0  0  0
   46.4575   33.1260   45.5604 N   0  0  0  0  0  0  0  0  0  0  0  0
   45.4311   33.8945   45.9963 C   0  0  0  0  0  0  0  0  0  0  0  0
   44.9144   34.8708   45.2163 N   0  0  0  0  0  0  0  0  0  0  0  0
   44.9021   36.1353   43.0930 C   0  0  0  0  0  0  0  0  0  0  0  0
   46.8823   34.4954   42.5186 H   0  0  0  0  0  0  0  0  0  0  0  0
   47.8378   32.6781   43.9811 H   0  0  0  0  0  0  0  0  0  0  0  0
   45.0306   33.7104   46.9870 H   0  0  0  0  0  0  0  0  0  0  0  0
   44.4908   36.9787   43.6895 H   0  0  0  0  0  0  0  0  0  0  0  0
   45.7086   36.5570   42.4824 H   0  0  0  0  0  0  0  0  0  0  0  0
   45.9985   33.2677   40.3630 N   0  0  0  0  0  0  0  0  0  0  0  0
   45.5756   34.3556   40.8900 C   0  0  0  0  0  0  0  0  0  0  0  0
   46.7567   35.1317   41.0510 N   0  0  0  0  0  0  0  0  0  0  0  0
   44.1831   34.7015   41.2397 C   0  0  0  0  0  0  0  0  0  0  0  0
   43.8192   35.5399   42.2747 C   0  0  0  0  0  0  0  0  0  0  0  0
   42.4872   35.8015   42.5220 C   0  0  0  0  0  0  0  0  0  0  0  0
   42.2468   36.4655   43.3446 H   0  0  0  0  0  0  0  0  0  0  0  0
   41.4973   35.2205   41.7275 C   0  0  0  0  0  0  0  0  0  0  0  0
   40.4893   35.4593   41.9660 H   0  0  0  0  0  0  0  0  0  0  0  0
   41.8998   34.3775   40.6891 C   0  0  0  0  0  0  0  0  0  0  0  0
   43.2346   34.1020   40.4246 C   0  0  0  0  0  0  0  0  0  0  0  0
   45.3153   32.4946   40.1311 H   0  0  0  0  0  0  0  0  0  0  0  0
   47.4483   35.3728   41.7940 H   0  0  0  0  0  0  0  0  0  0  0  0
   47.1987   35.6931   40.2878 H   0  0  0  0  0  0  0  0  0  0  0  0
   41.1112   33.9441   40.0935 H   0  0  0  0  0  0  0  0  0  0  0  0
   43.4914   33.4450   39.6119 H   0  0  0  0  0  0  0  0  0  0  0  0
  1  6  1  0
  2  1  2  0
  2  3  1  0
  3  4  2  0
  4  5  1  0
  6  5  2  0
  7  1  1  0
  2  8  1  0
  3  9  1  0
  5 10  1  0
  7 11  1  0
  7 12  1  0
 13 14  2  3
 14 15  1  0
 14 16  1  0
 16 17  2  0
 17 18  1  0
 18 19  1  0
 18 20  2  0
 20 21  1  0
 20 22  1  0
 22 23  2  0
 23 16  1  0
 13 24  1  0
 15 25  1  0
 15 26  1  0
 22 27  1  0
 23 28  1  0
  7 17  1  0
M  ISO  7   8  14   9  14  10  14  11   8  12   8  19  15  21  16
M  END
>  <DihAtoms>  (1) 
0,6,16,15

>  <DihDeg>  (1) 
-179.98958090189305

$$$$
