
 OpenBabel03252509273D

 35 37  0  0  1  0  0  0  0  0999 V2000
   46.7670   35.1440   42.0060 C   0  0  1  0  0  0  0  0  0  0  0  0
   48.0950   35.9420   42.1240 C   0  0  0  0  0  0  0  0  0  0  0  0
   47.9420   34.4710   41.6370 C   0  0  2  0  0  0  0  0  0  0  0  0
   46.0550   35.5820   41.2780 H   0  0  0  0  0  0  0  0  0  0  0  0
   48.2370   36.6930   41.3300 H   0  0  0  0  0  0  0  0  0  0  0  0
   48.5460   36.0740   43.1120 H   0  0  0  0  0  0  0  0  0  0  0  0
   48.4200   33.7220   42.3380 H   0  0  0  0  0  0  0  0  0  0  0  0
   44.5940   35.3830   45.0520 C   0  0  0  0  0  0  0  0  0  0  0  0
   45.1470   35.7300   43.7710 C   0  0  0  0  0  0  0  0  0  0  0  0
   46.1590   34.9210   43.3710 C   0  0  0  0  0  0  0  0  0  0  0  0
   46.6190   33.8610   44.1290 N   0  0  0  0  0  0  0  0  0  0  0  0
   46.0660   33.5780   45.3240 C   0  0  0  0  0  0  0  0  0  0  0  0
   45.0470   34.3430   45.7880 N   0  0  0  0  0  0  0  0  0  0  0  0
   43.7820   36.0070   45.4040 H   0  0  0  0  0  0  0  0  0  0  0  0
   46.5140   32.7320   45.8080 H   0  0  0  0  0  0  0  0  0  0  0  0
   44.6960   36.8270   43.0210 N   0  0  0  0  0  0  0  0  0  0  0  0
   43.9810   36.2590   42.5310 H   0  0  0  0  0  0  0  0  0  0  0  0
   45.3890   37.5040   43.4560 H   0  0  0  0  0  0  0  0  0  0  0  0
   48.2320   34.1470   40.1900 C   0  0  0  0  0  0  0  0  0  0  0  0
   48.9180   34.9490   39.8390 H   0  0  0  0  0  0  0  0  0  0  0  0
   47.2540   34.2200   39.6530 H   0  0  0  0  0  0  0  0  0  0  0  0
   49.6110   32.2330   40.9080 C   0  0  0  0  0  0  0  0  0  0  0  0
   48.7740   32.8020   39.9710 C   0  0  0  0  0  0  0  0  0  0  0  0
   48.4440   32.1080   38.8260 C   0  0  0  0  0  0  0  0  0  0  0  0
   47.7730   32.6070   38.1120 H   0  0  0  0  0  0  0  0  0  0  0  0
   48.9520   30.8460   38.6280 C   0  0  0  0  0  0  0  0  0  0  0  0
   48.6390   30.3690   37.6960 H   0  0  0  0  0  0  0  0  0  0  0  0
   49.7920   30.2510   39.5470 C   0  0  0  0  0  3  0  0  0  0  0  0
   50.0940   30.9660   40.6610 C   0  0  0  0  0  3  0  0  0  0  0  0
   49.5210   32.9240   43.3220 N   0  0  0  0  0  0  0  0  0  0  0  0
   50.0340   32.8580   42.1450 C   0  0  0  0  0  0  0  0  0  0  0  0
   51.2600   33.5840   42.2030 N   0  0  0  0  0  0  0  0  0  0  0  0
   49.9850   33.4320   44.0990 H   0  0  0  0  0  0  0  0  0  0  0  0
   51.1370   34.6250   42.0960 H   0  0  0  0  0  0  0  0  0  0  0  0
   52.1700   33.0910   42.3390 H   0  0  0  0  0  0  0  0  0  0  0  0
  1  4  1  6  0  0  0
  1  2  1  0  0  0  0
  1 10  1  0  0  0  0
  2  6  1  0  0  0  0
  3  1  1  0  0  0  0
  3  2  1  0  0  0  0
  3  7  1  1  0  0  0
  5  2  1  0  0  0  0
  8 14  1  0  0  0  0
  8 13  1  0  0  0  0
  9  8  2  0  0  0  0
 10  9  1  0  0  0  0
 10 11  2  0  0  0  0
 11 12  1  0  0  0  0
 12 13  2  0  0  0  0
 12 15  1  0  0  0  0
 16 18  1  0  0  0  0
 16  9  1  0  0  0  0
 17 16  1  0  0  0  0
 19  3  1  0  0  0  0
 20 19  1  0  0  0  0
 21 19  1  0  0  0  0
 22 31  1  0  0  0  0
 23 19  1  0  0  0  0
 23 22  2  0  0  0  0
 24 23  1  0  0  0  0
 25 24  1  0  0  0  0
 26 24  2  0  0  0  0
 26 28  1  0  0  0  0
 27 26  1  0  0  0  0
 28 29  2  0  0  0  0
 29 22  1  0  0  0  0
 30 33  1  0  0  0  0
 31 32  1  0  0  0  0
 31 30  2  0  0  0  0
 32 35  1  0  0  0  0
 34 32  1  0  0  0  0
M  END
>  <minimizedAffinity>
-4.66141415

>  <minimizedRMSD>
0.775231004

$$$$
