
     RDKit          3D

 50 54  0  0  0  0  0  0  0  0999 V2000
   48.3367   30.9378   42.2441 C   0  0  1  0  0  0  0  0  0  0  0  0
   48.2287   32.4081   41.8979 C   0  0  0  0  0  0  0  0  0  0  0  0
   47.1217   31.4038   41.5962 C   0  0  2  0  0  0  0  0  0  0  0  0
   49.7860   28.7266   39.6279 C   0  0  0  0  0  0  0  0  0  0  0  0
   51.1071   28.5252   40.1484 C   0  0  0  0  0  0  0  0  0  0  0  0
   51.4619   29.1606   41.3683 C   0  0  0  0  0  0  0  0  0  0  0  0
   50.5516   29.9188   41.9804 N   0  0  0  0  0  0  0  0  0  0  0  0
   49.3071   30.0955   41.4702 C   0  0  0  0  0  0  0  0  0  0  0  0
   48.9219   29.4997   40.2920 N   0  0  0  0  0  0  0  0  0  0  0  0
   45.8709   31.5712   42.2797 N   0  0  0  0  0  0  0  0  0  0  0  0
   45.7888   32.2145   43.5222 C   0  0  0  0  0  0  0  0  0  0  0  0
   46.1577   31.5177   44.6698 C   0  0  0  0  0  0  0  0  0  0  0  0
   46.1168   32.0752   45.9441 C   0  0  0  0  0  0  0  0  0  0  0  0
   45.6955   33.3791   46.1141 C   0  0  0  0  0  0  0  0  0  0  0  0
   45.3285   34.0857   45.0146 C   0  0  0  0  0  0  0  0  0  0  0  0
   44.9028   35.3877   45.1736 C   0  0  0  0  0  0  0  0  0  0  0  0
   44.5084   36.1669   44.0937 C   0  0  0  0  0  0  0  0  0  0  0  0
   44.5611   35.5726   42.8370 C   0  0  0  0  0  0  0  0  0  0  0  0
   44.9949   34.2582   42.7109 C   0  0  0  0  0  0  0  0  0  0  0  0
   45.3830   33.4960   43.7700 C   0  0  0  0  0  0  0  0  0  0  0  0
   48.4977   30.8130   43.3407 H   0  0  0  0  0  0  0  0  0  0  0  0
   48.0477   33.1585   42.6767 H   0  0  0  0  0  0  0  0  0  0  0  0
   48.7871   32.7904   41.0089 H   0  0  0  0  0  0  0  0  0  0  0  0
   47.0135   31.1206   40.5106 H   0  0  0  0  0  0  0  0  0  0  0  0
   49.5338   28.2338   38.6966 H   0  0  0  0  0  0  0  0  0  0  0  0
   51.7907   27.9064   39.6116 H   0  0  0  0  0  0  0  0  0  0  0  0
   52.4601   29.0015   41.7504 H   0  0  0  0  0  0  0  0  0  0  0  0
   45.0070   31.1782   41.8483 H   0  0  0  0  0  0  0  0  0  0  0  0
   46.4991   30.4921   44.6253 H   0  0  0  0  0  0  0  0  0  0  0  0
   46.4142   31.4927   46.8101 H   0  0  0  0  0  0  0  0  0  0  0  0
   45.6790   33.7719   47.1141 H   0  0  0  0  0  0  0  0  0  0  0  0
   44.8814   35.8008   46.1799 H   0  0  0  0  0  0  0  0  0  0  0  0
   44.1935   37.1760   44.3385 H   0  0  0  0  0  0  0  0  0  0  0  0
   44.2313   36.2755   42.0847 H   0  0  0  0  0  0  0  0  0  0  0  0
   42.5753   33.1928   43.0954 N   0  0  0  0  0  0  0  0  0  0  0  0
   42.8941   32.5954   42.0039 C   0  0  0  0  0  0  0  0  0  0  0  0
   42.2260   31.3474   41.8766 N   0  0  0  0  0  0  0  0  0  0  0  0
   43.8095   33.1009   41.0182 C   0  0  0  0  0  0  0  0  0  0  0  0
   44.9102   33.9263   41.3010 C   0  0  0  0  0  0  0  0  0  0  0  0
   45.6591   34.2935   40.2014 C   0  0  0  0  0  0  0  0  0  0  0  0
   46.4913   34.9400   40.5143 H   0  0  0  0  0  0  0  0  0  0  0  0
   45.3703   33.8952   38.9222 C   0  0  0  0  0  0  0  0  0  0  0  0
   46.0675   34.2804   38.1883 H   0  0  0  0  0  0  0  0  0  0  0  0
   44.2889   33.0858   38.6553 C   0  0  0  0  0  0  0  0  0  0  0  0
   43.5209   32.7012   39.7270 C   0  0  0  0  0  0  0  0  0  0  0  0
   41.9136   32.8009   43.7846 H   0  0  0  0  0  0  0  0  0  0  0  0
   41.2575   31.2263   41.4530 H   0  0  0  0  0  0  0  0  0  0  0  0
   42.6856   30.4503   42.2125 H   0  0  0  0  0  0  0  0  0  0  0  0
   44.1337   32.8197   37.6225 H   0  0  0  0  0  0  0  0  0  0  0  0
   42.6782   32.0626   39.4656 H   0  0  0  0  0  0  0  0  0  0  0  0
  2  1  1  0
  3  2  1  0
  3  1  1  0
  3 10  1  0
  4  5  2  0
  4  9  1  0
  5  6  1  0
  6  7  2  0
  8  7  1  0
  8  1  1  0
  9  8  2  0
 10 11  1  0
 11 20  1  0
 11 12  2  0
 12 13  1  0
 13 14  2  0
 15 16  2  0
 15 14  1  0
 17 16  1  0
 18 17  2  0
 19 18  1  0
 19 20  2  0
 20 15  1  0
  1 21  1  1
  2 22  1  0
  2 23  1  0
  3 24  1  6
  4 25  1  0
  5 26  1  0
  6 27  1  0
 10 28  1  0
 12 29  1  0
 13 30  1  0
 14 31  1  0
 16 32  1  0
 17 33  1  0
 18 34  1  0
 35 36  2  3
 36 37  1  0
 36 38  1  0
 38 39  2  0
 39 40  1  0
 40 41  1  0
 40 42  2  0
 42 43  1  0
 42 44  1  0
 44 45  2  0
 45 38  1  0
 35 46  1  0
 37 47  1  0
 37 48  1  0
 44 49  1  0
 45 50  1  0
 19 39  1  0
M  ISO  8  21  13  22  13  23  13  24  13  25  14  26  14  27  14  29  14
M  ISO  7  30  14  31  14  32  14  33  14  34  14  41  15  43  16
M  END
>  <DihAtoms>  (1) 
17,18,38,37

>  <DihDeg>  (1) 
-89.46944826474723

$$$$
