REMARK  Name = 
REMARK  3 active torsions:
REMARK  status: ('A' for Active; 'I' for Inactive)
REMARK    1  A    between atoms: C_1  and  C_7
REMARK    2  A    between atoms: C_7  and  C_17
REMARK    3  A    between atoms: C_14  and  C_16
REMARK                            x       y       z     vdW  Elec       q    Type
REMARK                         _______ _______ _______ _____ _____    ______ ____
ROOT
ATOM      1  C   UNL     1      43.397  36.239  41.161  0.00  0.00    +0.000 A 
ATOM      2  C   UNL     1      43.819  35.540  42.275  0.00  0.00    +0.000 A 
ATOM      3  C   UNL     1      43.240  34.330  42.597  0.00  0.00    +0.000 A 
ATOM      4  H   UNL     1      43.602  33.815  43.480  0.00  0.00    +0.000 HD
ATOM      5  C   UNL     1      42.222  33.803  41.800  0.00  0.00    +0.000 A 
ATOM      6  H   UNL     1      41.814  32.868  42.098  0.00  0.00    +0.000 HD
ATOM      7  C   UNL     1      41.819  34.536  40.681  0.00  0.00    +0.000 A 
ATOM      8  C   UNL     1      42.389  35.755  40.340  0.00  0.00    +0.000 A 
ENDROOT
BRANCH   1  10
ATOM      9  N   UNL     1      44.031  37.989  39.532  0.00  0.00    +0.000 NA
ATOM     10  C   UNL     1      43.948  37.539  40.728  0.00  0.00    +0.000 C 
ATOM     11  N   UNL     1      44.508  38.581  41.518  0.00  0.00    +0.000 N 
ATOM     12  H   UNL     1      43.680  37.404  38.723  0.00  0.00    +0.000 HD
ATOM     13  H   UNL     1      45.413  38.826  41.975  0.00  0.00    +0.000 HD
ATOM     14  H   UNL     1      43.984  39.433  41.821  0.00  0.00    +0.000 HD
ENDBRANCH   1  10
BRANCH   2  15
ATOM     15  C   UNL     1      44.902  36.135  43.093  0.00  0.00    +0.000 C 
ATOM     16  H   UNL     1      44.491  36.979  43.690  0.00  0.00    +0.000 HD
ATOM     17  H   UNL     1      45.709  36.557  42.482  0.00  0.00    +0.000 HD
BRANCH  15  18
ATOM     18  C   UNL     1      45.440  35.063  44.001  0.00  0.00    +0.000 A 
ATOM     19  C   UNL     1      46.495  34.297  43.511  0.00  0.00    +0.000 A 
ATOM     20  C   UNL     1      47.025  33.287  44.326  0.00  0.00    +0.000 A 
ATOM     21  N   UNL     1      46.458  33.126  45.560  0.00  0.00    +0.000 NA
ATOM     22  C   UNL     1      45.431  33.895  45.996  0.00  0.00    +0.000 A 
ATOM     23  N   UNL     1      44.914  34.871  45.216  0.00  0.00    +0.000 NA
ATOM     24  H   UNL     1      46.882  34.495  42.519  0.00  0.00    +0.000 HD
ATOM     25  H   UNL     1      47.838  32.678  43.981  0.00  0.00    +0.000 HD
ATOM     26  H   UNL     1      45.031  33.710  46.987  0.00  0.00    +0.000 HD
ENDBRANCH  15  18
ENDBRANCH   2  15
TORSDOF 3
