
 OpenBabel03252509273D

 35 37  0  0  1  0  0  0  0  0999 V2000
   45.7050   34.6470   41.5470 C   0  0  1  0  0  0  0  0  0  0  0  0
   47.1820   34.3740   41.1470 C   0  0  0  0  0  0  0  0  0  0  0  0
   45.9510   33.4820   40.8060 C   0  0  2  0  0  0  0  0  0  0  0  0
   45.2960   35.5800   41.1090 H   0  0  0  0  0  0  0  0  0  0  0  0
   47.5470   35.0120   40.3260 H   0  0  0  0  0  0  0  0  0  0  0  0
   47.8670   33.9760   41.8990 H   0  0  0  0  0  0  0  0  0  0  0  0
   45.9840   32.4720   41.3150 H   0  0  0  0  0  0  0  0  0  0  0  0
   44.7990   35.4200   45.1030 C   0  0  0  0  0  0  0  0  0  0  0  0
   44.9740   35.6260   43.6910 C   0  0  0  0  0  0  0  0  0  0  0  0
   45.5400   34.5750   43.0470 C   0  0  0  0  0  0  0  0  0  0  0  0
   45.9160   33.4120   43.6930 N   0  0  0  0  0  0  0  0  0  0  0  0
   45.7300   33.2690   45.0190 C   0  0  0  0  0  0  0  0  0  0  0  0
   45.1670   34.2800   45.7280 N   0  0  0  0  0  0  0  0  0  0  0  0
   44.3490   36.2390   45.6490 H   0  0  0  0  0  0  0  0  0  0  0  0
   46.0640   32.3220   45.3940 H   0  0  0  0  0  0  0  0  0  0  0  0
   44.6200   36.8210   43.0470 N   0  0  0  0  0  0  0  0  0  0  0  0
   43.6580   36.4870   42.8540 H   0  0  0  0  0  0  0  0  0  0  0  0
   45.5730   37.2670   43.1870 H   0  0  0  0  0  0  0  0  0  0  0  0
   45.5100   33.3670   39.3650 C   0  0  0  0  0  0  0  0  0  0  0  0
   46.4060   33.0160   38.8080 H   0  0  0  0  0  0  0  0  0  0  0  0
   45.2390   34.4020   39.0400 H   0  0  0  0  0  0  0  0  0  0  0  0
   43.1070   33.0600   38.9030 C   0  0  0  0  0  0  0  0  0  0  0  0
   44.3420   32.5040   39.1610 C   0  0  0  0  0  0  0  0  0  0  0  0
   44.4840   31.1330   39.2260 C   0  0  0  0  0  0  0  0  0  0  0  0
   45.4890   30.7410   39.4350 H   0  0  0  0  0  0  0  0  0  0  0  0
   43.3870   30.3280   39.0310 C   0  0  0  0  0  0  0  0  0  0  0  0
   43.5880   29.2560   39.1000 H   0  0  0  0  0  0  0  0  0  0  0  0
   42.1380   30.8550   38.7710 C   0  0  0  0  0  3  0  0  0  0  0  0
   42.0390   32.2090   38.7160 C   0  0  0  0  0  3  0  0  0  0  0  0
   42.8200   35.3160   37.8370 N   0  0  0  0  0  0  0  0  0  0  0  0
   42.8290   34.4790   38.8120 C   0  0  0  0  0  0  0  0  0  0  0  0
   42.4790   35.2200   39.9800 N   0  0  0  0  0  0  0  0  0  0  0  0
   42.5900   36.3190   37.9740 H   0  0  0  0  0  0  0  0  0  0  0  0
   43.2920   35.7350   40.4080 H   0  0  0  0  0  0  0  0  0  0  0  0
   41.5000   35.2230   40.3400 H   0  0  0  0  0  0  0  0  0  0  0  0
  1  4  1  6  0  0  0
  1 10  1  0  0  0  0
  2  1  1  0  0  0  0
  2  6  1  0  0  0  0
  3  2  1  0  0  0  0
  3  7  1  1  0  0  0
  3  1  1  0  0  0  0
  5  2  1  0  0  0  0
  8 14  1  0  0  0  0
  8 13  1  0  0  0  0
  9  8  2  0  0  0  0
 10  9  1  0  0  0  0
 10 11  2  0  0  0  0
 11 12  1  0  0  0  0
 12 15  1  0  0  0  0
 12 13  2  0  0  0  0
 16 18  1  0  0  0  0
 16  9  1  0  0  0  0
 17 16  1  0  0  0  0
 19  3  1  0  0  0  0
 20 19  1  0  0  0  0
 21 19  1  0  0  0  0
 22 23  1  0  0  0  0
 23 24  2  0  0  0  0
 23 19  1  0  0  0  0
 24 25  1  0  0  0  0
 26 27  1  0  0  0  0
 26 24  1  0  0  0  0
 28 26  2  0  0  0  0
 29 28  1  0  0  0  0
 29 22  2  0  0  0  0
 30 33  1  0  0  0  0
 30 31  2  0  0  0  0
 31 22  1  0  0  0  0
 31 32  1  0  0  0  0
 32 35  1  0  0  0  0
 32 34  1  0  0  0  0
M  END
>  <minimizedAffinity>
-4.66452885

>  <minimizedRMSD>
4.232862

$$$$
