REMARK  Name = 
REMARK  5 active torsions:
REMARK  status: ('A' for Active; 'I' for Inactive)
REMARK    1  A    between atoms: C_1  and  C_8
REMARK    2  A    between atoms: C_3  and  N_10
REMARK    3  A    between atoms: N_10  and  C_11
REMARK    4  A    between atoms: C_19  and  C_39
REMARK    5  A    between atoms: C_36  and  C_38
REMARK                            x       y       z     vdW  Elec       q    Type
REMARK                         _______ _______ _______ _____ _____    ______ ____
ROOT
ATOM      1  C   UNL     1      45.789  32.215  43.522  0.00  0.00    +0.000 A 
ATOM      2  C   UNL     1      46.158  31.518  44.670  0.00  0.00    +0.000 A 
ATOM      3  C   UNL     1      46.117  32.075  45.944  0.00  0.00    +0.000 A 
ATOM      4  C   UNL     1      45.696  33.379  46.114  0.00  0.00    +0.000 A 
ATOM      5  C   UNL     1      45.328  34.086  45.015  0.00  0.00    +0.000 A 
ATOM      6  C   UNL     1      44.903  35.388  45.174  0.00  0.00    +0.000 A 
ATOM      7  C   UNL     1      44.508  36.167  44.094  0.00  0.00    +0.000 A 
ATOM      8  C   UNL     1      44.561  35.573  42.837  0.00  0.00    +0.000 A 
ATOM      9  C   UNL     1      44.995  34.258  42.711  0.00  0.00    +0.000 A 
ATOM     10  C   UNL     1      45.383  33.496  43.770  0.00  0.00    +0.000 A 
ATOM     11  H   UNL     1      46.499  30.492  44.625  0.00  0.00    +0.000 HD
ATOM     12  H   UNL     1      46.414  31.493  46.810  0.00  0.00    +0.000 HD
ATOM     13  H   UNL     1      45.679  33.772  47.114  0.00  0.00    +0.000 HD
ATOM     14  H   UNL     1      44.881  35.801  46.180  0.00  0.00    +0.000 HD
ATOM     15  H   UNL     1      44.194  37.176  44.339  0.00  0.00    +0.000 HD
ATOM     16  H   UNL     1      44.231  36.276  42.085  0.00  0.00    +0.000 HD
ENDROOT
BRANCH   9  18
ATOM     17  C   UNL     1      44.322  32.669  41.089  0.00  0.00    +0.000 A 
ATOM     18  C   UNL     1      44.910  33.926  41.301  0.00  0.00    +0.000 A 
ATOM     19  C   UNL     1      45.247  34.611  40.151  0.00  0.00    +0.000 A 
ATOM     20  H   UNL     1      45.694  35.582  40.411  0.00  0.00    +0.000 HD
ATOM     21  C   UNL     1      45.034  34.122  38.889  0.00  0.00    +0.000 A 
ATOM     22  H   UNL     1      45.362  34.798  38.109  0.00  0.00    +0.000 HD
ATOM     23  C   UNL     1      44.456  32.888  38.692  0.00  0.00    +0.000 A 
ATOM     24  C   UNL     1      44.108  32.178  39.815  0.00  0.00    +0.000 A 
BRANCH  17  26
ATOM     25  N   UNL     1      43.461  32.148  43.288  0.00  0.00    +0.000 NA
ATOM     26  C   UNL     1      43.893  31.782  42.135  0.00  0.00    +0.000 C 
ATOM     27  N   UNL     1      43.903  30.366  42.007  0.00  0.00    +0.000 N 
ATOM     28  H   UNL     1      43.161  31.484  44.020  0.00  0.00    +0.000 HD
ATOM     29  H   UNL     1      43.071  29.788  41.683  0.00  0.00    +0.000 HD
ATOM     30  H   UNL     1      44.776  29.807  42.238  0.00  0.00    +0.000 HD
ENDBRANCH  17  26
ENDBRANCH   9  18
BRANCH   1  31
ATOM     31  N   UNL     1      45.871  31.571  42.280  0.00  0.00    +0.000 N 
ATOM     32  H   UNL     1      45.007  31.178  41.848  0.00  0.00    +0.000 HD
BRANCH  31  35
ATOM     33  C   UNL     1      48.337  30.938  42.244  0.00  0.00    +0.000 C 
ATOM     34  C   UNL     1      48.229  32.408  41.898  0.00  0.00    +0.000 C 
ATOM     35  C   UNL     1      47.122  31.404  41.596  0.00  0.00    +0.000 C 
ATOM     36  H   UNL     1      48.498  30.813  43.341  0.00  0.00    +0.000 HD
ATOM     37  H   UNL     1      48.048  33.158  42.677  0.00  0.00    +0.000 HD
ATOM     38  H   UNL     1      48.787  32.790  41.009  0.00  0.00    +0.000 HD
ATOM     39  H   UNL     1      47.014  31.121  40.511  0.00  0.00    +0.000 HD
BRANCH  33  44
ATOM     40  C   UNL     1      49.786  28.727  39.628  0.00  0.00    +0.000 A 
ATOM     41  C   UNL     1      51.107  28.525  40.148  0.00  0.00    +0.000 A 
ATOM     42  C   UNL     1      51.462  29.161  41.368  0.00  0.00    +0.000 A 
ATOM     43  N   UNL     1      50.552  29.919  41.980  0.00  0.00    +0.000 NA
ATOM     44  C   UNL     1      49.307  30.096  41.470  0.00  0.00    +0.000 A 
ATOM     45  N   UNL     1      48.922  29.500  40.292  0.00  0.00    +0.000 NA
ATOM     46  H   UNL     1      49.534  28.234  38.697  0.00  0.00    +0.000 HD
ATOM     47  H   UNL     1      51.791  27.906  39.612  0.00  0.00    +0.000 HD
ATOM     48  H   UNL     1      52.460  29.002  41.750  0.00  0.00    +0.000 HD
ENDBRANCH  33  44
ENDBRANCH  31  35
ENDBRANCH   1  31
TORSDOF 5
