
     RDKit          3D

 28 29  0  0  0  0  0  0  0  0999 V2000
   45.4399   35.0627   44.0006 C   0  0  0  0  0  0  0  0  0  0  0  0
   46.4947   34.2971   43.5114 C   0  0  0  0  0  0  0  0  0  0  0  0
   47.0253   33.2866   44.3261 C   0  0  0  0  0  0  0  0  0  0  0  0
   46.4575   33.1260   45.5604 N   0  0  0  0  0  0  0  0  0  0  0  0
   45.4311   33.8945   45.9963 C   0  0  0  0  0  0  0  0  0  0  0  0
   44.9144   34.8708   45.2163 N   0  0  0  0  0  0  0  0  0  0  0  0
   44.9021   36.1353   43.0930 C   0  0  0  0  0  0  0  0  0  0  0  0
   46.8823   34.4954   42.5186 H   0  0  0  0  0  0  0  0  0  0  0  0
   47.8378   32.6781   43.9811 H   0  0  0  0  0  0  0  0  0  0  0  0
   45.0306   33.7104   46.9870 H   0  0  0  0  0  0  0  0  0  0  0  0
   44.4908   36.9787   43.6895 H   0  0  0  0  0  0  0  0  0  0  0  0
   45.7086   36.5570   42.4824 H   0  0  0  0  0  0  0  0  0  0  0  0
   45.7890   32.6671   41.0774 N   0  0  0  0  0  0  0  0  0  0  0  0
   45.4915   33.8837   41.3445 C   0  0  0  0  0  0  0  0  0  0  0  0
   46.7580   34.5124   41.4999 N   0  0  0  0  0  0  0  0  0  0  0  0
   44.1425   34.4735   41.4593 C   0  0  0  0  0  0  0  0  0  0  0  0
   43.8192   35.5399   42.2747 C   0  0  0  0  0  0  0  0  0  0  0  0
   42.5261   36.0197   42.3118 C   0  0  0  0  0  0  0  0  0  0  0  0
   42.3168   36.8585   42.9661 H   0  0  0  0  0  0  0  0  0  0  0  0
   41.5348   35.4306   41.5251 C   0  0  0  0  0  0  0  0  0  0  0  0
   40.5577   35.8434   41.5960 H   0  0  0  0  0  0  0  0  0  0  0  0
   41.8956   34.3539   40.7117 C   0  0  0  0  0  0  0  0  0  0  0  0
   43.1910   33.8570   40.6607 C   0  0  0  0  0  0  0  0  0  0  0  0
   45.0193   31.9612   40.9109 H   0  0  0  0  0  0  0  0  0  0  0  0
   47.4085   34.8007   42.2629 H   0  0  0  0  0  0  0  0  0  0  0  0
   47.3477   34.8489   40.7049 H   0  0  0  0  0  0  0  0  0  0  0  0
   41.1071   33.9207   40.1161 H   0  0  0  0  0  0  0  0  0  0  0  0
   43.4166   33.0248   40.0167 H   0  0  0  0  0  0  0  0  0  0  0  0
  1  6  1  0
  2  1  2  0
  2  3  1  0
  3  4  2  0
  4  5  1  0
  6  5  2  0
  7  1  1  0
  2  8  1  0
  3  9  1  0
  5 10  1  0
  7 11  1  0
  7 12  1  0
 13 14  2  3
 14 15  1  0
 14 16  1  0
 16 17  2  0
 17 18  1  0
 18 19  1  0
 18 20  2  0
 20 21  1  0
 20 22  1  0
 22 23  2  0
 23 16  1  0
 13 24  1  0
 15 25  1  0
 15 26  1  0
 22 27  1  0
 23 28  1  0
  7 17  1  0
M  ISO  7   8  14   9  14  10  14  11   8  12   8  19  15  21  16
M  END
>  <DihAtoms>  (1) 
0,6,16,15

>  <DihDeg>  (1) 
-179.98958090189305

$$$$
