
 OpenBabel03252500393D

 26 27  0  0  0  0  0  0  0  0999 V2000
   42.3530   34.5890   40.6980 C   0  0  0  0  0  0  0  0  0  0  0  0
   43.7340   34.5620   40.6680 C   0  0  0  0  0  0  0  0  0  0  0  0
   44.3940   33.6290   39.8960 C   0  0  0  0  0  0  0  0  0  0  0  0
   45.4790   33.6440   39.9020 H   0  0  0  0  0  0  0  0  0  0  0  0
   43.6720   32.7050   39.1390 C   0  0  0  0  0  0  0  0  0  0  0  0
   44.2360   32.0100   38.5650 H   0  0  0  0  0  0  0  0  0  0  0  0
   42.2780   32.7590   39.1930 C   0  0  0  0  0  3  0  0  0  0  0  0
   41.5950   33.6910   39.9630 C   0  0  0  0  0  3  0  0  0  0  0  0
   40.7360   36.4280   41.0470 N   0  0  0  0  0  0  0  0  0  0  0  0
   41.5500   35.5430   41.4890 C   0  0  0  0  0  0  0  0  0  0  0  0
   41.4890   35.7060   42.9000 N   0  0  0  0  0  0  0  0  0  0  0  0
   40.5830   36.5290   40.0060 H   0  0  0  0  0  0  0  0  0  0  0  0
   42.0220   36.1720   43.6660 H   0  0  0  0  0  0  0  0  0  0  0  0
   40.7410   35.2970   43.5070 H   0  0  0  0  0  0  0  0  0  0  0  0
   44.4600   35.5620   41.4860 C   0  0  0  0  0  0  0  0  0  0  0  0
   43.7260   36.1960   42.0310 H   0  0  0  0  0  0  0  0  0  0  0  0
   45.0640   36.2460   40.8780 H   0  0  0  0  0  0  0  0  0  0  0  0
   45.3350   34.8180   42.4590 C   0  0  0  0  0  0  0  0  0  0  0  0
   46.7110   34.9590   42.3000 C   0  0  0  0  0  0  0  0  0  0  0  0
   47.5610   34.2820   43.1860 C   0  0  0  0  0  0  0  0  0  0  0  0
   46.9670   33.5220   44.1540 N   0  0  0  0  0  0  0  0  0  0  0  0
   45.6210   33.4120   44.2710 C   0  0  0  0  0  0  0  0  0  0  0  0
   44.7950   34.0620   43.4210 N   0  0  0  0  0  0  0  0  0  0  0  0
   47.0950   35.5840   41.5030 H   0  0  0  0  0  0  0  0  0  0  0  0
   48.6260   34.3690   43.0930 H   0  0  0  0  0  0  0  0  0  0  0  0
   45.2200   32.7900   45.0640 H   0  0  0  0  0  0  0  0  0  0  0  0
  1 10  1  0  0  0  0
  2  1  1  0  0  0  0
  2 15  1  0  0  0  0
  3  4  1  0  0  0  0
  3  2  2  0  0  0  0
  5  7  2  0  0  0  0
  5  3  1  0  0  0  0
  6  5  1  0  0  0  0
  7  8  1  0  0  0  0
  8  1  2  0  0  0  0
  9 10  2  0  0  0  0
 10 11  1  0  0  0  0
 11 14  1  0  0  0  0
 11 13  1  0  0  0  0
 12  9  1  0  0  0  0
 15 16  1  0  0  0  0
 15 18  1  0  0  0  0
 17 15  1  0  0  0  0
 18 23  1  0  0  0  0
 19 18  2  0  0  0  0
 19 20  1  0  0  0  0
 20 21  2  0  0  0  0
 21 22  1  0  0  0  0
 22 26  1  0  0  0  0
 23 22  2  0  0  0  0
 24 19  1  0  0  0  0
 25 20  1  0  0  0  0
M  END
>  <minimizedAffinity>
-4.26996422

>  <minimizedRMSD>
2.6667819

$$$$
