
     RDKit          3D

 51 54  0  0  0  0  0  0  0  0999 V2000
   44.5070   35.5329   45.1211 C   0  0  0  0  0  0  0  0  0  0  0  0
   45.1663   35.5066   43.8807 C   0  0  0  0  0  0  0  0  0  0  0  0
   46.0882   34.5419   43.6385 C   0  0  0  0  0  0  0  0  0  0  0  0
   46.3185   33.6464   44.6302 N   0  0  0  0  0  0  0  0  0  0  0  0
   45.6911   33.6802   45.7965 C   0  0  0  0  0  0  0  0  0  0  0  0
   44.7795   34.6169   46.0637 N   0  0  0  0  0  0  0  0  0  0  0  0
   46.0119   32.6836   46.7818 N   0  0  0  0  0  0  0  0  0  0  0  0
   45.2575   32.4540   47.9743 C   0  0  0  0  0  0  0  0  0  0  0  0
   46.3280   32.1052   48.9880 C   0  0  0  0  0  0  0  0  0  0  0  0
   47.6132   32.0111   48.2385 C   0  0  0  0  0  0  0  0  0  0  0  0
   47.1344   31.7738   46.8046 C   0  0  1  0  0  0  0  0  0  0  0  0
   44.8159   36.5236   42.9260 N   0  0  0  0  0  0  0  0  0  0  0  0
   46.6309   30.0829   46.6344 S   0  0  0  0  0  0  0  0  0  0  0  0
   45.6038   30.5119   43.4916 O   0  0  0  0  0  0  0  0  0  0  0  0
   44.9734   29.9868   44.4266 C   0  0  0  0  0  0  0  0  0  0  0  0
   45.0806   29.7812   45.8882 C   0  0  1  0  0  0  0  0  0  0  0  0
   44.5436   28.3781   46.0332 C   0  0  0  0  0  0  0  0  0  0  0  0
   43.2323   28.5759   45.2736 C   0  0  0  0  0  0  0  0  0  0  0  0
   43.7200   29.3359   44.1286 N   0  0  0  0  0  0  0  0  0  0  0  0
   43.7721   36.2889   45.3352 H   0  0  0  0  0  0  0  0  0  0  0  0
   46.6032   34.5017   42.7011 H   0  0  0  0  0  0  0  0  0  0  0  0
   44.9549   33.5006   48.3166 H   0  0  0  0  0  0  0  0  0  0  0  0
   44.3539   31.9268   48.0055 H   0  0  0  0  0  0  0  0  0  0  0  0
   46.0472   31.0748   49.3566 H   0  0  0  0  0  0  0  0  0  0  0  0
   46.3590   32.7260   49.8764 H   0  0  0  0  0  0  0  0  0  0  0  0
   48.2404   31.1822   48.6057 H   0  0  0  0  0  0  0  0  0  0  0  0
   48.1559   32.9633   48.2850 H   0  0  0  0  0  0  0  0  0  0  0  0
   47.9265   32.1050   46.1145 H   0  0  0  0  0  0  0  0  0  0  0  0
   44.5888   36.0913   42.0038 H   0  0  0  0  0  0  0  0  0  0  0  0
   44.8481   37.4987   43.3106 H   0  0  0  0  0  0  0  0  0  0  0  0
   44.1981   30.3762   46.2572 H   0  0  0  0  0  0  0  0  0  0  0  0
   44.3443   28.1274   47.0993 H   0  0  0  0  0  0  0  0  0  0  0  0
   45.1625   27.6395   45.5276 H   0  0  0  0  0  0  0  0  0  0  0  0
   42.5078   29.1563   45.8755 H   0  0  0  0  0  0  0  0  0  0  0  0
   42.8438   27.6196   44.9140 H   0  0  0  0  0  0  0  0  0  0  0  0
   43.5920   32.7184   41.8459 N   0  0  0  0  0  0  0  0  0  0  0  0
   43.2760   31.8378   42.7444 C   0  0  0  0  0  0  0  0  0  0  0  0
   43.4668   32.2518   44.0915 N   0  0  0  0  0  0  0  0  0  0  0  0
   42.7685   30.5521   42.2813 C   0  0  0  0  0  0  0  0  0  0  0  0
   42.9603   29.3604   42.9154 C   0  0  0  0  0  0  0  0  0  0  0  0
   42.4426   28.1800   42.4141 C   0  0  0  0  0  0  0  0  0  0  0  0
   42.6245   27.2572   42.9584 H   0  0  0  0  0  0  0  0  0  0  0  0
   41.7166   28.1722   41.2576 C   0  0  0  0  0  0  0  0  0  0  0  0
   41.3207   27.2323   40.8845 H   0  0  0  0  0  0  0  0  0  0  0  0
   41.5014   29.3585   40.5875 C   0  0  0  0  0  0  0  0  0  0  0  0
   42.0312   30.5182   41.1138 C   0  0  0  0  0  0  0  0  0  0  0  0
   43.9559   33.6497   42.1441 H   0  0  0  0  0  0  0  0  0  0  0  0
   43.3063   33.2334   44.3749 H   0  0  0  0  0  0  0  0  0  0  0  0
   43.6598   32.3315   45.0942 H   0  0  0  0  0  0  0  0  0  0  0  0
   40.9198   29.3287   39.6672 H   0  0  0  0  0  0  0  0  0  0  0  0
   41.8667   31.4514   40.5950 H   0  0  0  0  0  0  0  0  0  0  0  0
  1  6  2  0
  2  1  1  0
  3  2  2  0
  3  4  1  0
  4  5  2  0
  5  6  1  0
  5  7  1  0
  7 11  1  0
  7  8  1  0
  8  9  1  0
 10  9  1  0
 11 10  1  0
 12  2  1  0
 13 11  1  0
 14 15  2  0
 15 16  1  0
 16 17  1  0
 16 13  1  0
 18 17  1  0
 19 15  1  0
 19 18  1  0
  1 20  1  0
  3 21  1  0
  8 22  1  0
  8 23  1  0
  9 24  1  0
  9 25  1  0
 10 26  1  0
 10 27  1  0
 11 28  1  6
 12 29  1  0
 12 30  1  0
 16 31  1  1
 17 32  1  0
 17 33  1  0
 18 34  1  0
 18 35  1  0
 36 37  2  3
 37 38  1  0
 37 39  1  0
 39 40  2  0
 40 41  1  0
 41 42  1  0
 41 43  2  0
 43 44  1  0
 43 45  1  0
 45 46  2  0
 46 39  1  0
 36 47  1  0
 38 48  1  0
 38 49  1  0
 45 50  1  0
 46 51  1  0
 19 40  1  0
M  ISO  8  20  14  21  14  22  13  23  13  24  13  25  13  26  13  27  13
M  ISO  8  28  13  31  13  32  13  33  13  34  13  35  13  42  15  44  16
M  END
>  <DihAtoms>  (1) 
14,18,39,38

>  <DihDeg>  (1) 
89.78031471275222

$$$$
