
 OpenBabel03252509263D

 35 37  0  0  1  0  0  0  0  0999 V2000
   46.5070   34.9760   41.9670 C   0  0  1  0  0  0  0  0  0  0  0  0
   48.0250   35.3090   41.9390 C   0  0  0  0  0  0  0  0  0  0  0  0
   47.3530   34.0150   41.3930 C   0  0  2  0  0  0  0  0  0  0  0  0
   45.8910   35.6840   41.3760 H   0  0  0  0  0  0  0  0  0  0  0  0
   48.3040   36.0560   41.1790 H   0  0  0  0  0  0  0  0  0  0  0  0
   48.6080   35.1950   42.8570 H   0  0  0  0  0  0  0  0  0  0  0  0
   47.6470   33.0880   41.9710 H   0  0  0  0  0  0  0  0  0  0  0  0
   44.6590   35.3920   45.2020 C   0  0  0  0  0  0  0  0  0  0  0  0
   45.0990   35.6830   43.8650 C   0  0  0  0  0  0  0  0  0  0  0  0
   46.0260   34.8140   43.3900 C   0  0  0  0  0  0  0  0  0  0  0  0
   46.5050   33.7470   44.1270 N   0  0  0  0  0  0  0  0  0  0  0  0
   46.0590   33.5190   45.3770 C   0  0  0  0  0  0  0  0  0  0  0  0
   45.1300   34.3460   45.9170 N   0  0  0  0  0  0  0  0  0  0  0  0
   43.9180   36.0650   45.6140 H   0  0  0  0  0  0  0  0  0  0  0  0
   46.5100   32.6610   45.8370 H   0  0  0  0  0  0  0  0  0  0  0  0
   44.6330   36.7860   43.1340 N   0  0  0  0  0  0  0  0  0  0  0  0
   43.8460   36.2450   42.7310 H   0  0  0  0  0  0  0  0  0  0  0  0
   45.3970   37.4350   43.4810 H   0  0  0  0  0  0  0  0  0  0  0  0
   47.3520   33.7660   39.9020 C   0  0  0  0  0  0  0  0  0  0  0  0
   47.3230   34.7750   39.4340 H   0  0  0  0  0  0  0  0  0  0  0  0
   46.4040   33.2160   39.6800 H   0  0  0  0  0  0  0  0  0  0  0  0
   48.7590   32.8870   38.0790 C   0  0  0  0  0  0  0  0  0  0  0  0
   48.4740   32.9510   39.4270 C   0  0  0  0  0  0  0  0  0  0  0  0
   49.2470   32.2540   40.3310 C   0  0  0  0  0  0  0  0  0  0  0  0
   48.9770   32.3410   41.3940 H   0  0  0  0  0  0  0  0  0  0  0  0
   50.3000   31.4940   39.8810 C   0  0  0  0  0  0  0  0  0  0  0  0
   50.8580   30.9760   40.6640 H   0  0  0  0  0  0  0  0  0  0  0  0
   50.6100   31.4090   38.5390 C   0  0  0  0  0  3  0  0  0  0  0  0
   49.8260   32.1110   37.6780 C   0  0  0  0  0  3  0  0  0  0  0  0
   47.7900   34.8070   36.7810 N   0  0  0  0  0  0  0  0  0  0  0  0
   48.0240   33.5680   37.0330 C   0  0  0  0  0  0  0  0  0  0  0  0
   47.3800   32.8220   36.0020 N   0  0  0  0  0  0  0  0  0  0  0  0
   47.2280   35.1060   35.9620 H   0  0  0  0  0  0  0  0  0  0  0  0
   46.3530   32.6670   36.1770 H   0  0  0  0  0  0  0  0  0  0  0  0
   47.9140   32.4810   35.1730 H   0  0  0  0  0  0  0  0  0  0  0  0
  1  4  1  6  0  0  0
  1 10  1  0  0  0  0
  2  1  1  0  0  0  0
  2  6  1  0  0  0  0
  3  2  1  0  0  0  0
  3  1  1  0  0  0  0
  3  7  1  1  0  0  0
  5  2  1  0  0  0  0
  8 14  1  0  0  0  0
  8 13  1  0  0  0  0
  9  8  2  0  0  0  0
 10  9  1  0  0  0  0
 10 11  2  0  0  0  0
 11 12  1  0  0  0  0
 12 15  1  0  0  0  0
 12 13  2  0  0  0  0
 16 18  1  0  0  0  0
 16  9  1  0  0  0  0
 17 16  1  0  0  0  0
 19  3  1  0  0  0  0
 20 19  1  0  0  0  0
 21 19  1  0  0  0  0
 22 23  1  0  0  0  0
 23 19  1  0  0  0  0
 23 24  2  0  0  0  0
 24 25  1  0  0  0  0
 26 24  1  0  0  0  0
 26 27  1  0  0  0  0
 28 26  2  0  0  0  0
 29 22  2  0  0  0  0
 29 28  1  0  0  0  0
 30 31  2  0  0  0  0
 31 22  1  0  0  0  0
 32 34  1  0  0  0  0
 32 31  1  0  0  0  0
 33 30  1  0  0  0  0
 35 32  1  0  0  0  0
M  END
>  <minimizedAffinity>
-5.73636961

>  <minimizedRMSD>
0.63896203

$$$$
