
 OpenBabel03252500393D

 26 27  0  0  0  0  0  0  0  0999 V2000
   43.6720   35.0150   41.9560 C   0  0  0  0  0  0  0  0  0  0  0  0
   44.2250   33.8280   41.5170 C   0  0  0  0  0  0  0  0  0  0  0  0
   43.7010   33.1830   40.4150 C   0  0  0  0  0  0  0  0  0  0  0  0
   44.1660   32.2540   40.1040 H   0  0  0  0  0  0  0  0  0  0  0  0
   42.6090   33.7260   39.7360 C   0  0  0  0  0  0  0  0  0  0  0  0
   42.2490   33.1840   38.8950 H   0  0  0  0  0  0  0  0  0  0  0  0
   42.0740   34.9270   40.2070 C   0  0  0  0  0  3  0  0  0  0  0  0
   42.5860   35.5910   41.3130 C   0  0  0  0  0  3  0  0  0  0  0  0
   45.0150   36.7310   43.1260 N   0  0  0  0  0  0  0  0  0  0  0  0
   44.1540   35.7840   43.1210 C   0  0  0  0  0  0  0  0  0  0  0  0
   43.7860   35.6590   44.4900 N   0  0  0  0  0  0  0  0  0  0  0  0
   45.4650   37.0390   42.2190 H   0  0  0  0  0  0  0  0  0  0  0  0
   44.0130   35.0670   45.3180 H   0  0  0  0  0  0  0  0  0  0  0  0
   43.0850   36.2700   44.9660 H   0  0  0  0  0  0  0  0  0  0  0  0
   45.3830   33.2880   42.2660 C   0  0  0  0  0  0  0  0  0  0  0  0
   45.1320   32.2760   42.6530 H   0  0  0  0  0  0  0  0  0  0  0  0
   45.6400   33.8960   43.1420 H   0  0  0  0  0  0  0  0  0  0  0  0
   46.5520   33.2120   41.3220 C   0  0  0  0  0  0  0  0  0  0  0  0
   47.0710   34.4230   40.8680 C   0  0  0  0  0  0  0  0  0  0  0  0
   48.1610   34.3960   39.9860 C   0  0  0  0  0  0  0  0  0  0  0  0
   48.6400   33.1650   39.6310 N   0  0  0  0  0  0  0  0  0  0  0  0
   48.1020   32.0120   40.0970 C   0  0  0  0  0  0  0  0  0  0  0  0
   47.0510   32.0290   40.9470 N   0  0  0  0  0  0  0  0  0  0  0  0
   46.6280   35.3520   41.2030 H   0  0  0  0  0  0  0  0  0  0  0  0
   48.5860   35.3090   39.6170 H   0  0  0  0  0  0  0  0  0  0  0  0
   48.5340   31.0720   39.7710 H   0  0  0  0  0  0  0  0  0  0  0  0
  1 10  1  0  0  0  0
  2  1  1  0  0  0  0
  2 15  1  0  0  0  0
  3  2  2  0  0  0  0
  4  3  1  0  0  0  0
  5  7  2  0  0  0  0
  5  3  1  0  0  0  0
  6  5  1  0  0  0  0
  7  8  1  0  0  0  0
  8  1  2  0  0  0  0
 10  9  2  0  0  0  0
 10 11  1  0  0  0  0
 11 14  1  0  0  0  0
 11 13  1  0  0  0  0
 12  9  1  0  0  0  0
 15 16  1  0  0  0  0
 15 17  1  0  0  0  0
 18 15  1  0  0  0  0
 19 24  1  0  0  0  0
 19 18  2  0  0  0  0
 20 19  1  0  0  0  0
 21 20  2  0  0  0  0
 21 22  1  0  0  0  0
 22 23  2  0  0  0  0
 23 18  1  0  0  0  0
 25 20  1  0  0  0  0
 26 22  1  0  0  0  0
M  END
>  <minimizedAffinity>
-4.25691128

>  <minimizedRMSD>
3.75887465

$$$$
