
 OpenBabel03242523333D

 42 45  0  0  0  0  0  0  0  0999 V2000
   45.4690   35.6870   43.1430 C   0  0  0  0  0  0  0  0  0  0  0  0
   44.3250   35.8150   42.3240 C   0  0  0  0  0  0  0  0  0  0  0  0
   43.6350   34.6630   41.9360 C   0  0  0  0  0  0  0  0  0  0  0  0
   44.0880   33.4430   42.3580 N   0  0  0  0  0  0  0  0  0  0  0  0
   45.1920   33.3710   43.1440 C   0  0  0  0  0  0  0  0  0  0  0  0
   45.8700   34.4820   43.5300 N   0  0  0  0  0  0  0  0  0  0  0  0
   46.0790   36.4990   43.5050 H   0  0  0  0  0  0  0  0  0  0  0  0
   44.1620   36.8550   42.1180 H   0  0  0  0  0  0  0  0  0  0  0  0
   42.5300   34.6220   39.7460 C   0  0  0  0  0  0  0  0  0  0  0  0
   42.4920   34.9090   41.0850 C   0  0  0  0  0  0  0  0  0  0  0  0
   41.3200   35.4270   41.5230 C   0  0  0  0  0  0  0  0  0  0  0  0
   41.1640   35.6940   42.5580 H   0  0  0  0  0  0  0  0  0  0  0  0
   40.2100   35.6740   40.7510 C   0  0  0  0  0  0  0  0  0  0  0  0
   39.2960   36.0890   41.1440 H   0  0  0  0  0  0  0  0  0  0  0  0
   40.2590   35.3750   39.3850 C   0  0  0  0  0  3  0  0  0  0  0  0
   41.4370   34.8480   38.9120 C   0  0  0  0  0  3  0  0  0  0  0  0
   43.9750   33.6930   37.8160 N   0  0  0  0  0  0  0  0  0  0  0  0
   43.6510   34.1310   38.9980 C   0  0  0  0  0  0  0  0  0  0  0  0
   44.9490   34.0670   39.5690 N   0  0  0  0  0  0  0  0  0  0  0  0
   43.2700   33.5840   37.0520 H   0  0  0  0  0  0  0  0  0  0  0  0
   45.9240   33.9620   39.9240 H   0  0  0  0  0  0  0  0  0  0  0  0
   45.3040   34.5890   40.4250 H   0  0  0  0  0  0  0  0  0  0  0  0
   45.5940   32.0100   43.5670 C   0  0  0  0  0  0  0  0  0  0  0  0
   45.3410   31.8140   44.6370 H   0  0  0  0  0  0  0  0  0  0  0  0
   46.6970   31.9780   43.5230 H   0  0  0  0  0  0  0  0  0  0  0  0
   44.7930   30.8250   42.4750 S   0  0  0  0  0  0  0  0  0  0  0  0
   45.5550   30.8410   40.8660 C   0  0  0  0  0  0  0  0  0  0  0  0
   46.8810   31.1850   40.7970 C   0  0  0  0  0  0  0  0  0  0  0  0
   47.4890   31.1820   39.5610 C   0  0  0  0  0  0  0  0  0  0  0  0
   46.8040   30.8440   38.3970 C   0  0  0  0  0  0  0  0  0  0  0  0
   47.4380   30.8530   37.2080 N   0  0  0  0  0  0  0  0  0  0  0  0
   46.7750   30.5240   36.0740 C   0  0  0  0  0  0  0  0  0  0  0  0
   45.4570   30.1850   36.1470 C   0  0  0  0  0  0  0  0  0  0  0  0
   44.8030   30.1750   37.3700 C   0  0  0  0  0  0  0  0  0  0  0  0
   45.4780   30.5110   38.5490 C   0  0  0  0  0  0  0  0  0  0  0  0
   44.8150   30.4960   39.7630 C   0  0  0  0  0  0  0  0  0  0  0  0
   47.5550   31.4730   41.5790 H   0  0  0  0  0  0  0  0  0  0  0  0
   48.5480   31.4450   39.4070 H   0  0  0  0  0  0  0  0  0  0  0  0
   47.2620   30.5230   35.0980 H   0  0  0  0  0  0  0  0  0  0  0  0
   44.8260   29.9060   35.3170 H   0  0  0  0  0  0  0  0  0  0  0  0
   43.7620   29.9140   37.4800 H   0  0  0  0  0  0  0  0  0  0  0  0
   43.7710   30.2300   39.8430 H   0  0  0  0  0  0  0  0  0  0  0  0
  1  7  1  0  0  0  0
  1  6  1  0  0  0  0
  2  1  2  0  0  0  0
  3  2  1  0  0  0  0
  3  4  2  0  0  0  0
  4  5  1  0  0  0  0
  5  6  2  0  0  0  0
  5 23  1  0  0  0  0
  8  2  1  0  0  0  0
  9 10  1  0  0  0  0
 10 11  2  0  0  0  0
 10  3  1  0  0  0  0
 11 12  1  0  0  0  0
 13 14  1  0  0  0  0
 13 11  1  0  0  0  0
 15 13  2  0  0  0  0
 16 15  1  0  0  0  0
 16  9  2  0  0  0  0
 17 18  2  0  0  0  0
 18 19  1  0  0  0  0
 18  9  1  0  0  0  0
 19 21  1  0  0  0  0
 19 22  1  0  0  0  0
 20 17  1  0  0  0  0
 23 24  1  0  0  0  0
 25 23  1  0  0  0  0
 26 23  1  0  0  0  0
 27 26  1  0  0  0  0
 28 27  1  0  0  0  0
 28 37  1  0  0  0  0
 29 28  2  0  0  0  0
 30 35  1  0  0  0  0
 30 29  1  0  0  0  0
 31 30  2  0  0  0  0
 32 33  2  0  0  0  0
 32 31  1  0  0  0  0
 33 34  1  0  0  0  0
 34 41  1  0  0  0  0
 34 35  2  0  0  0  0
 35 36  1  0  0  0  0
 36 42  1  0  0  0  0
 36 27  2  0  0  0  0
 38 29  1  0  0  0  0
 39 32  1  0  0  0  0
 40 33  1  0  0  0  0
M  END
>  <minimizedAffinity>
-5.00489187

>  <minimizedRMSD>
8.03874969

$$$$
