
 OpenBabel03252509273D

 35 37  0  0  1  0  0  0  0  0999 V2000
   46.7760   35.1140   41.8310 C   0  0  1  0  0  0  0  0  0  0  0  0
   48.3210   35.2820   41.8230 C   0  0  0  0  0  0  0  0  0  0  0  0
   47.5100   34.1580   41.1120 C   0  0  2  0  0  0  0  0  0  0  0  0
   46.2390   35.9610   41.3580 H   0  0  0  0  0  0  0  0  0  0  0  0
   48.6780   36.0950   41.1710 H   0  0  0  0  0  0  0  0  0  0  0  0
   48.8890   34.9760   42.7050 H   0  0  0  0  0  0  0  0  0  0  0  0
   47.7020   33.1320   41.5490 H   0  0  0  0  0  0  0  0  0  0  0  0
   44.8230   35.1090   45.0320 C   0  0  0  0  0  0  0  0  0  0  0  0
   45.2590   35.5360   43.7310 C   0  0  0  0  0  0  0  0  0  0  0  0
   46.2830   34.8040   43.2250 C   0  0  0  0  0  0  0  0  0  0  0  0
   46.8560   33.7440   43.9030 N   0  0  0  0  0  0  0  0  0  0  0  0
   46.4100   33.3840   45.1210 C   0  0  0  0  0  0  0  0  0  0  0  0
   45.3870   34.0700   45.6890 N   0  0  0  0  0  0  0  0  0  0  0  0
   44.0060   35.6700   45.4670 H   0  0  0  0  0  0  0  0  0  0  0  0
   46.9390   32.5480   45.5360 H   0  0  0  0  0  0  0  0  0  0  0  0
   44.6950   36.6330   43.0620 N   0  0  0  0  0  0  0  0  0  0  0  0
   43.9780   36.0430   42.6010 H   0  0  0  0  0  0  0  0  0  0  0  0
   45.3790   37.3320   43.4740 H   0  0  0  0  0  0  0  0  0  0  0  0
   47.4770   34.1260   39.6010 C   0  0  0  0  0  0  0  0  0  0  0  0
   48.2920   34.8090   39.2730 H   0  0  0  0  0  0  0  0  0  0  0  0
   46.4850   34.5460   39.3030 H   0  0  0  0  0  0  0  0  0  0  0  0
   46.6470   32.3230   38.1390 C   0  0  0  0  0  0  0  0  0  0  0  0
   47.5970   32.7830   39.0260 C   0  0  0  0  0  0  0  0  0  0  0  0
   48.6640   31.9810   39.3740 C   0  0  0  0  0  0  0  0  0  0  0  0
   49.3930   32.3960   40.0860 H   0  0  0  0  0  0  0  0  0  0  0  0
   48.7740   30.7230   38.8300 C   0  0  0  0  0  0  0  0  0  0  0  0
   49.6490   30.1580   39.1590 H   0  0  0  0  0  0  0  0  0  0  0  0
   47.8400   30.2360   37.9400 C   0  0  0  0  0  3  0  0  0  0  0  0
   46.8040   31.0540   37.6220 C   0  0  0  0  0  3  0  0  0  0  0  0
   45.2480   33.8160   36.6830 N   0  0  0  0  0  0  0  0  0  0  0  0
   45.4840   33.0640   37.6980 C   0  0  0  0  0  0  0  0  0  0  0  0
   44.2790   33.0340   38.4620 N   0  0  0  0  0  0  0  0  0  0  0  0
   44.3270   34.2710   36.5360 H   0  0  0  0  0  0  0  0  0  0  0  0
   44.1670   33.8650   39.0980 H   0  0  0  0  0  0  0  0  0  0  0  0
   43.6020   32.2450   38.3670 H   0  0  0  0  0  0  0  0  0  0  0  0
  1  4  1  6  0  0  0
  1 10  1  0  0  0  0
  2  1  1  0  0  0  0
  2  6  1  0  0  0  0
  3  7  1  1  0  0  0
  3  2  1  0  0  0  0
  3  1  1  0  0  0  0
  5  2  1  0  0  0  0
  8 14  1  0  0  0  0
  8 13  1  0  0  0  0
  9  8  2  0  0  0  0
 10  9  1  0  0  0  0
 10 11  2  0  0  0  0
 11 12  1  0  0  0  0
 12 15  1  0  0  0  0
 12 13  2  0  0  0  0
 16 18  1  0  0  0  0
 16  9  1  0  0  0  0
 17 16  1  0  0  0  0
 19  3  1  0  0  0  0
 20 19  1  0  0  0  0
 21 19  1  0  0  0  0
 22 23  1  0  0  0  0
 23 24  2  0  0  0  0
 23 19  1  0  0  0  0
 24 25  1  0  0  0  0
 26 27  1  0  0  0  0
 26 24  1  0  0  0  0
 28 26  2  0  0  0  0
 29 28  1  0  0  0  0
 29 22  2  0  0  0  0
 30 31  2  0  0  0  0
 31 22  1  0  0  0  0
 31 32  1  0  0  0  0
 32 34  1  0  0  0  0
 33 30  1  0  0  0  0
 35 32  1  0  0  0  0
M  END
>  <minimizedAffinity>
-5.14333248

>  <minimizedRMSD>
1.9028281

$$$$
