
     RDKit          3D

 44 47  0  0  0  0  0  0  0  0999 V2000
   46.5413   31.6939   46.0611 S   0  0  0  0  0  0  0  0  0  0  0  0
   47.6075   31.0649   47.3397 C   0  0  0  0  0  0  0  0  0  0  0  0
   47.9314   31.9131   48.3687 C   0  0  0  0  0  0  0  0  0  0  0  0
   48.7394   31.4343   49.3755 C   0  0  0  0  0  0  0  0  0  0  0  0
   49.2302   30.1309   49.3777 C   0  0  0  0  0  0  0  0  0  0  0  0
   50.0167   29.7035   50.3844 N   0  0  0  0  0  0  0  0  0  0  0  0
   50.4963   28.4357   50.3886 C   0  0  0  0  0  0  0  0  0  0  0  0
   50.1749   27.5982   49.3644 C   0  0  0  0  0  0  0  0  0  0  0  0
   49.3647   28.0370   48.3280 C   0  0  0  0  0  0  0  0  0  0  0  0
   48.8625   29.3426   48.3117 C   0  0  0  0  0  0  0  0  0  0  0  0
   48.0544   29.7688   47.2737 C   0  0  0  0  0  0  0  0  0  0  0  0
   45.6440   33.1431   46.6391 C   0  0  0  0  0  0  0  0  0  0  0  0
   44.5840   35.9770   44.5035 C   0  0  0  0  0  0  0  0  0  0  0  0
   45.3296   35.7136   43.3341 C   0  0  0  0  0  0  0  0  0  0  0  0
   46.1700   34.5970   43.3012 C   0  0  0  0  0  0  0  0  0  0  0  0
   46.2471   33.7904   44.4026 N   0  0  0  0  0  0  0  0  0  0  0  0
   45.5097   34.0838   45.5043 C   0  0  0  0  0  0  0  0  0  0  0  0
   44.6902   35.1653   45.5487 N   0  0  0  0  0  0  0  0  0  0  0  0
   47.6493   32.9346   48.5266 H   0  0  0  0  0  0  0  0  0  0  0  0
   49.0520   32.0396   50.2409 H   0  0  0  0  0  0  0  0  0  0  0  0
   51.1355   28.0618   51.1901 H   0  0  0  0  0  0  0  0  0  0  0  0
   50.4954   26.5721   49.2582 H   0  0  0  0  0  0  0  0  0  0  0  0
   49.0816   27.4123   47.4947 H   0  0  0  0  0  0  0  0  0  0  0  0
   47.7859   29.1211   46.4522 H   0  0  0  0  0  0  0  0  0  0  0  0
   44.6519   32.8644   47.0694 H   0  0  0  0  0  0  0  0  0  0  0  0
   46.1620   33.6922   47.4446 H   0  0  0  0  0  0  0  0  0  0  0  0
   43.9064   36.8040   44.6466 H   0  0  0  0  0  0  0  0  0  0  0  0
   45.1136   36.4740   42.6077 H   0  0  0  0  0  0  0  0  0  0  0  0
   46.4495   30.7462   41.9506 N   0  0  0  0  0  0  0  0  0  0  0  0
   46.9335   31.9271   42.2037 C   0  0  0  0  0  0  0  0  0  0  0  0
   47.2902   31.6836   43.5560 N   0  0  0  0  0  0  0  0  0  0  0  0
   47.2020   33.1896   41.5780 C   0  0  0  0  0  0  0  0  0  0  0  0
   46.8991   34.4342   42.0618 C   0  0  0  0  0  0  0  0  0  0  0  0
   47.3302   35.4651   41.2960 C   0  0  0  0  0  0  0  0  0  0  0  0
   47.1518   36.4938   41.5700 H   0  0  0  0  0  0  0  0  0  0  0  0
   48.0216   35.3549   40.1133 C   0  0  0  0  0  0  0  0  0  0  0  0
   48.3453   36.2046   39.5364 H   0  0  0  0  0  0  0  0  0  0  0  0
   48.3242   34.0781   39.6262 C   0  0  0  0  0  0  0  0  0  0  0  0
   47.8996   33.0125   40.3840 C   0  0  0  0  0  0  0  0  0  0  0  0
   46.0595   30.4947   41.0135 H   0  0  0  0  0  0  0  0  0  0  0  0
   47.4937   31.4364   44.5485 H   0  0  0  0  0  0  0  0  0  0  0  0
   47.9928   32.2219   44.1452 H   0  0  0  0  0  0  0  0  0  0  0  0
   48.8655   33.9969   38.6983 H   0  0  0  0  0  0  0  0  0  0  0  0
   48.1783   32.0550   39.9296 H   0  0  0  0  0  0  0  0  0  0  0  0
  1 12  1  0
  1  2  1  0
  2  3  2  0
  3  4  1  0
  4  5  2  0
  5  6  1  0
  6  7  2  0
  8  7  1  0
  9  8  2  0
 10  9  1  0
 10  5  1  0
 11  2  1  0
 11 10  2  0
 13 18  2  0
 14 13  1  0
 15 14  2  0
 15 16  1  0
 16 17  2  0
 17 18  1  0
 17 12  1  0
  3 19  1  0
  4 20  1  0
  7 21  1  0
  8 22  1  0
  9 23  1  0
 11 24  1  0
 12 25  1  0
 12 26  1  0
 13 27  1  0
 14 28  1  0
 29 30  2  3
 30 31  1  0
 30 32  1  0
 32 33  2  0
 33 34  1  0
 34 35  1  0
 34 36  2  0
 36 37  1  0
 36 38  1  0
 38 39  2  0
 39 32  1  0
 29 40  1  0
 31 41  1  0
 31 42  1  0
 38 43  1  0
 39 44  1  0
 15 33  1  0
M  ISO  8  19  14  20  14  21  14  22  14  23  14  24  14  25   8  26   8
M  ISO  4  27  14  28  14  35  15  37  16
M  END
>  <DihAtoms>  (1) 
13,14,32,31

>  <DihDeg>  (1) 
167.99572764691143

$$$$
