
     RDKit          3D

 39 41  0  0  0  0  0  0  0  0999 V2000
   47.1508   34.2280   42.3821 N   0  0  0  0  0  0  0  0  0  0  0  0
   47.9918   35.0492   41.5338 C   0  0  0  0  0  0  0  0  0  0  0  0
   47.7135   34.3943   40.2194 C   0  0  2  0  0  0  0  0  0  0  0  0
   47.9050   32.9333   40.5631 C   0  0  0  0  0  0  0  0  0  0  0  0
   47.3690   32.8554   41.9711 C   0  0  0  0  0  0  0  0  0  0  0  0
   44.5848   35.9433   44.4715 C   0  0  0  0  0  0  0  0  0  0  0  0
   45.4025   35.6787   43.3782 C   0  0  0  0  0  0  0  0  0  0  0  0
   46.2750   34.6031   43.4138 C   0  0  0  0  0  0  0  0  0  0  0  0
   46.2884   33.8311   44.5596 N   0  0  0  0  0  0  0  0  0  0  0  0
   45.4798   34.1086   45.6167 C   0  0  0  0  0  0  0  0  0  0  0  0
   44.6250   35.1728   45.5658 N   0  0  0  0  0  0  0  0  0  0  0  0
   48.6653   34.7431   39.2050 N   0  0  0  0  0  0  0  0  0  0  0  0
   47.7088   36.0894   41.5178 H   0  0  0  0  0  0  0  0  0  0  0  0
   49.0521   34.8557   41.7897 H   0  0  0  0  0  0  0  0  0  0  0  0
   46.6834   34.5913   39.8447 H   0  0  0  0  0  0  0  0  0  0  0  0
   49.0090   32.7460   40.5363 H   0  0  0  0  0  0  0  0  0  0  0  0
   47.3522   32.3126   39.8456 H   0  0  0  0  0  0  0  0  0  0  0  0
   46.3536   32.3667   41.9375 H   0  0  0  0  0  0  0  0  0  0  0  0
   48.0744   32.3168   42.6383 H   0  0  0  0  0  0  0  0  0  0  0  0
   43.9144   36.7893   44.4144 H   0  0  0  0  0  0  0  0  0  0  0  0
   45.4008   36.2812   42.4682 H   0  0  0  0  0  0  0  0  0  0  0  0
   45.5647   33.4455   46.4666 H   0  0  0  0  0  0  0  0  0  0  0  0
   49.3178   33.9759   38.8573 H   0  0  0  0  0  0  0  0  0  0  0  0
   49.9633   38.0284   41.2756 N   0  0  0  0  0  0  0  0  0  0  0  0
   49.9640   36.9889   40.5140 C   0  0  0  0  0  0  0  0  0  0  0  0
   50.4647   36.1120   41.5010 N   0  0  0  0  0  0  0  0  0  0  0  0
   49.5322   37.0533   39.1404 C   0  0  0  0  0  0  0  0  0  0  0  0
   48.9149   35.9738   38.5458 C   0  0  0  0  0  0  0  0  0  0  0  0
   48.5744   36.2039   37.2299 C   0  0  0  0  0  0  0  0  0  0  0  0
   48.0934   35.4529   36.6225 H   0  0  0  0  0  0  0  0  0  0  0  0
   48.8079   37.3696   36.5512 C   0  0  0  0  0  0  0  0  0  0  0  0
   48.5313   37.5314   35.5131 H   0  0  0  0  0  0  0  0  0  0  0  0
   49.4238   38.4106   37.1889 C   0  0  0  0  0  0  0  0  0  0  0  0
   49.7830   38.2298   38.5016 C   0  0  0  0  0  0  0  0  0  0  0  0
   50.2711   38.0060   42.2616 H   0  0  0  0  0  0  0  0  0  0  0  0
   49.9286   35.6245   42.2503 H   0  0  0  0  0  0  0  0  0  0  0  0
   51.4901   35.9186   41.4931 H   0  0  0  0  0  0  0  0  0  0  0  0
   49.6219   39.3410   36.6828 H   0  0  0  0  0  0  0  0  0  0  0  0
   50.2677   39.0592   38.9905 H   0  0  0  0  0  0  0  0  0  0  0  0
  1  8  1  0
  2  1  1  0
  3  4  1  0
  3  2  1  0
  4  5  1  0
  5  1  1  0
  6 11  2  0
  7  8  2  0
  7  6  1  0
  8  9  1  0
  9 10  2  0
 11 10  1  0
 12  3  1  0
  2 13  1  0
  2 14  1  0
  3 15  1  6
  4 16  1  0
  4 17  1  0
  5 18  1  0
  5 19  1  0
  6 20  1  0
  7 21  1  0
 10 22  1  0
 12 23  1  0
 24 25  2  3
 25 26  1  0
 25 27  1  0
 27 28  2  0
 28 29  1  0
 29 30  1  0
 29 31  2  0
 31 32  1  0
 31 33  1  0
 33 34  2  0
 34 27  1  0
 24 35  1  0
 26 36  1  0
 26 37  1  0
 33 38  1  0
 34 39  1  0
 12 28  1  0
M  ISO  8  13  13  14  13  15  13  16  13  17  13  18  13  19  13  20  14
M  ISO  5  21  14  22  14  23   5  30  15  32  16
M  END
>  <DihAtoms>  (1) 
2,11,27,26

>  <DihDeg>  (1) 
177.9255291260784

$$$$
