
 OpenBabel03242519403D

 32 33  0  0  0  0  0  0  0  0999 V2000
   40.5800   30.2700   39.5540 O   0  0  0  0  0  0  0  0  0  0  0  0
   39.2070   30.9540   39.6200 P   0  0  2  0  0  0  0  0  0  0  0  0
   39.3940   32.5760   39.0940 O   0  0  0  0  0  0  0  0  0  0  0  0
   42.6550   34.1580   39.5790 C   0  0  0  0  0  0  0  0  0  0  0  0
   41.3670   33.6590   39.8830 C   0  0  0  0  0  0  0  0  0  0  0  0
   40.6650   33.0780   38.8340 C   0  0  0  0  0  0  0  0  0  0  0  0
   41.2200   33.0120   37.5890 N   0  0  0  0  0  0  0  0  0  0  0  0
   42.4650   33.5100   37.3540 C   0  0  0  0  0  0  0  0  0  0  0  0
   43.1760   34.0750   38.3320 N   0  0  0  0  0  0  0  0  0  0  0  0
   43.2560   34.6250   40.3620 H   0  0  0  0  0  0  0  0  0  0  0  0
   41.0100   33.7540   40.8880 H   0  0  0  0  0  0  0  0  0  0  0  0
   42.8820   33.4430   36.3600 H   0  0  0  0  0  0  0  0  0  0  0  0
   38.5470   30.9260   41.1450 O   0  0  0  0  0  0  0  0  0  0  0  0
   37.0270   29.1210   41.7670 C   0  0  0  0  0  0  0  0  0  0  0  0
   38.2820   29.7110   41.7650 C   0  0  0  0  0  0  0  0  0  0  0  0
   39.2570   28.9960   42.4290 C   0  0  0  0  0  0  0  0  0  0  0  0
   40.2800   29.3810   42.4820 H   0  0  0  0  0  0  0  0  0  0  0  0
   39.0700   27.7870   43.0670 C   0  0  0  0  0  0  0  0  0  0  0  0
   39.8790   27.2740   43.5730 H   0  0  0  0  0  0  0  0  0  0  0  0
   37.7990   27.2600   43.0290 C   0  0  0  0  0  3  0  0  0  0  0  0
   36.7650   27.9110   42.3860 C   0  0  0  0  0  3  0  0  0  0  0  0
   35.7520   31.0660   41.3410 N   0  0  0  0  0  0  0  0  0  0  0  0
   35.9320   29.8040   41.0890 C   0  0  0  0  0  0  0  0  0  0  0  0
   35.0020   29.2630   40.1580 N   0  0  0  0  0  0  0  0  0  0  0  0
   34.9830   31.6120   40.8870 H   0  0  0  0  0  0  0  0  0  0  0  0
   35.4790   29.5360   39.2550 H   0  0  0  0  0  0  0  0  0  0  0  0
   34.1010   28.7440   40.2510 H   0  0  0  0  0  0  0  0  0  0  0  0
   38.2220   30.1730   38.4990 O   0  0  0  0  0  0  0  0  0  0  0  0
   37.3730   31.0440   37.8380 C   0  0  0  0  0  0  0  0  0  0  0  0
   36.8170   32.0070   38.6730 F   0  0  0  0  0  0  0  0  0  0  0  0
   38.0140   31.5900   36.7490 F   0  0  0  0  0  0  0  0  0  0  0  0
   36.3120   30.2770   37.3670 F   0  0  0  0  0  0  0  0  0  0  0  0
  2  1  2  1  0  0  0
  2 13  1  0  0  0  0
  3  2  1  0  0  0  0
  4  5  1  0  0  0  0
  4 10  1  0  0  0  0
  5 11  1  0  0  0  0
  6  3  1  0  0  0  0
  6  5  2  0  0  0  0
  7  6  1  0  0  0  0
  8  7  2  0  0  0  0
  8  9  1  0  0  0  0
  9  4  2  0  0  0  0
 12  8  1  0  0  0  0
 13 15  1  0  0  0  0
 14 21  1  0  0  0  0
 15 14  2  0  0  0  0
 15 16  1  0  0  0  0
 16 17  1  0  0  0  0
 16 18  2  0  0  0  0
 18 19  1  0  0  0  0
 20 18  1  0  0  0  0
 21 20  2  0  0  0  0
 23 22  2  0  0  0  0
 23 14  1  0  0  0  0
 24 27  1  0  0  0  0
 24 23  1  0  0  0  0
 25 22  1  0  0  0  0
 26 24  1  0  0  0  0
 28  2  1  0  0  0  0
 29 28  1  0  0  0  0
 29 30  1  0  0  0  0
 31 29  1  0  0  0  0
 32 29  1  0  0  0  0
M  END
>  <minimizedAffinity>
-5.6866889

$$$$

 OpenBabel03242519403D

 32 33  0  0  0  0  0  0  0  0999 V2000
   39.4940   29.0080   41.0590 O   0  0  0  0  0  0  0  0  0  0  0  0
   38.6980   29.6850   42.1830 P   0  0  2  0  0  0  0  0  0  0  0  0
   38.4720   28.5420   43.4420 O   0  0  0  0  0  0  0  0  0  0  0  0
   39.9230   25.1850   43.3970 C   0  0  0  0  0  0  0  0  0  0  0  0
   39.7850   26.5650   43.6800 C   0  0  0  0  0  0  0  0  0  0  0  0
   38.6450   27.1860   43.1850 C   0  0  0  0  0  0  0  0  0  0  0  0
   37.7290   26.4710   42.4680 N   0  0  0  0  0  0  0  0  0  0  0  0
   37.9150   25.1450   42.2270 C   0  0  0  0  0  0  0  0  0  0  0  0
   38.9950   24.5070   42.6840 N   0  0  0  0  0  0  0  0  0  0  0  0
   40.7980   24.6420   43.7600 H   0  0  0  0  0  0  0  0  0  0  0  0
   40.5530   27.0470   44.2500 H   0  0  0  0  0  0  0  0  0  0  0  0
   37.1750   24.6020   41.6580 H   0  0  0  0  0  0  0  0  0  0  0  0
   37.2250   30.2610   41.6710 O   0  0  0  0  0  0  0  0  0  0  0  0
   36.7660   30.6740   39.3090 C   0  0  0  0  0  0  0  0  0  0  0  0
   36.7170   29.8700   40.4380 C   0  0  0  0  0  0  0  0  0  0  0  0
   36.1220   28.6400   40.2450 C   0  0  0  0  0  0  0  0  0  0  0  0
   36.0360   27.9350   41.0770 H   0  0  0  0  0  0  0  0  0  0  0  0
   35.5950   28.1830   39.0550 C   0  0  0  0  0  0  0  0  0  0  0  0
   35.1390   27.2040   38.9680 H   0  0  0  0  0  0  0  0  0  0  0  0
   35.6790   29.0340   37.9770 C   0  0  0  0  0  3  0  0  0  0  0  0
   36.2590   30.2820   38.0830 C   0  0  0  0  0  3  0  0  0  0  0  0
   36.9280   32.8010   40.3300 N   0  0  0  0  0  0  0  0  0  0  0  0
   37.3780   31.9930   39.4170 C   0  0  0  0  0  0  0  0  0  0  0  0
   38.4350   32.5370   38.6350 N   0  0  0  0  0  0  0  0  0  0  0  0
   37.3250   33.7610   40.4570 H   0  0  0  0  0  0  0  0  0  0  0  0
   39.2530   32.3160   39.2680 H   0  0  0  0  0  0  0  0  0  0  0  0
   38.4800   33.0230   37.7120 H   0  0  0  0  0  0  0  0  0  0  0  0
   39.6730   30.9170   42.7920 O   0  0  0  0  0  0  0  0  0  0  0  0
   41.0230   30.6440   42.6550 C   0  0  0  0  0  0  0  0  0  0  0  0
   41.3640   29.3530   43.0420 F   0  0  0  0  0  0  0  0  0  0  0  0
   41.4340   30.9410   41.3750 F   0  0  0  0  0  0  0  0  0  0  0  0
   41.6880   31.5020   43.5260 F   0  0  0  0  0  0  0  0  0  0  0  0
  2  1  2  6  0  0  0
  2 28  1  0  0  0  0
  2  3  1  0  0  0  0
  4  5  1  0  0  0  0
  4 10  1  0  0  0  0
  5 11  1  0  0  0  0
  6  3  1  0  0  0  0
  6  5  2  0  0  0  0
  7  6  1  0  0  0  0
  8  7  2  0  0  0  0
  8  9  1  0  0  0  0
  9  4  2  0  0  0  0
 12  8  1  0  0  0  0
 13  2  1  0  0  0  0
 14 23  1  0  0  0  0
 14 15  1  0  0  0  0
 15 13  1  0  0  0  0
 16 15  2  0  0  0  0
 16 17  1  0  0  0  0
 18 16  1  0  0  0  0
 19 18  1  0  0  0  0
 20 21  1  0  0  0  0
 20 18  2  0  0  0  0
 21 14  2  0  0  0  0
 22 25  1  0  0  0  0
 23 22  2  0  0  0  0
 24 26  1  0  0  0  0
 24 23  1  0  0  0  0
 27 24  1  0  0  0  0
 29 28  1  0  0  0  0
 29 30  1  0  0  0  0
 29 32  1  0  0  0  0
 31 29  1  0  0  0  0
M  END
>  <minimizedAffinity>
-5.51145744

$$$$

 OpenBabel03242519403D

 32 33  0  0  0  0  0  0  0  0999 V2000
   39.6170   29.5000   39.6320 O   0  0  0  0  0  0  0  0  0  0  0  0
   39.2440   30.8930   40.1600 P   0  0  2  0  0  0  0  0  0  0  0  0
   38.9930   30.7730   41.8520 O   0  0  0  0  0  0  0  0  0  0  0  0
   40.1810   27.6150   43.2650 C   0  0  0  0  0  0  0  0  0  0  0  0
   40.2180   28.8820   42.6360 C   0  0  0  0  0  0  0  0  0  0  0  0
   38.9980   29.5250   42.4670 C   0  0  0  0  0  0  0  0  0  0  0  0
   37.8450   28.9340   42.8960 N   0  0  0  0  0  0  0  0  0  0  0  0
   37.8700   27.7120   43.4960 C   0  0  0  0  0  0  0  0  0  0  0  0
   39.0200   27.0590   43.6790 N   0  0  0  0  0  0  0  0  0  0  0  0
   41.1080   27.0610   43.4260 H   0  0  0  0  0  0  0  0  0  0  0  0
   41.1690   29.2700   42.3300 H   0  0  0  0  0  0  0  0  0  0  0  0
   36.9440   27.2670   43.8280 H   0  0  0  0  0  0  0  0  0  0  0  0
   37.8870   31.5140   39.4290 O   0  0  0  0  0  0  0  0  0  0  0  0
   36.0680   29.9370   39.0260 C   0  0  0  0  0  0  0  0  0  0  0  0
   37.1270   30.7160   38.5830 C   0  0  0  0  0  0  0  0  0  0  0  0
   37.3710   30.6400   37.2280 C   0  0  0  0  0  0  0  0  0  0  0  0
   38.1870   31.2190   36.7830 H   0  0  0  0  0  0  0  0  0  0  0  0
   36.6630   29.8720   36.3270 C   0  0  0  0  0  0  0  0  0  0  0  0
   36.9050   29.8550   35.2710 H   0  0  0  0  0  0  0  0  0  0  0  0
   35.6260   29.1240   36.8370 C   0  0  0  0  0  3  0  0  0  0  0  0
   35.3130   29.1420   38.1810 C   0  0  0  0  0  3  0  0  0  0  0  0
   35.3880   28.8310   41.0020 N   0  0  0  0  0  0  0  0  0  0  0  0
   35.7340   29.9530   40.4450 C   0  0  0  0  0  0  0  0  0  0  0  0
   35.7340   31.0630   41.3350 N   0  0  0  0  0  0  0  0  0  0  0  0
   35.1360   28.7770   42.0160 H   0  0  0  0  0  0  0  0  0  0  0  0
   36.6970   30.9480   41.7580 H   0  0  0  0  0  0  0  0  0  0  0  0
   35.0420   31.8090   41.5640 H   0  0  0  0  0  0  0  0  0  0  0  0
   40.5890   31.8780   39.9210 O   0  0  0  0  0  0  0  0  0  0  0  0
   40.3750   32.8450   38.9540 C   0  0  0  0  0  0  0  0  0  0  0  0
   40.1050   32.3150   37.6970 F   0  0  0  0  0  0  0  0  0  0  0  0
   39.4060   33.7270   39.3780 F   0  0  0  0  0  0  0  0  0  0  0  0
   41.5680   33.5500   38.8320 F   0  0  0  0  0  0  0  0  0  0  0  0
  2  1  2  6  0  0  0
  2  3  1  0  0  0  0
  3  6  1  0  0  0  0
  4 10  1  0  0  0  0
  4  9  1  0  0  0  0
  5  4  2  0  0  0  0
  6  5  1  0  0  0  0
  6  7  2  0  0  0  0
  7  8  1  0  0  0  0
  8  9  2  0  0  0  0
  8 12  1  0  0  0  0
 11  5  1  0  0  0  0
 13  2  1  0  0  0  0
 14 23  1  0  0  0  0
 15 14  1  0  0  0  0
 15 13  1  0  0  0  0
 16 15  2  0  0  0  0
 17 16  1  0  0  0  0
 18 20  2  0  0  0  0
 18 16  1  0  0  0  0
 19 18  1  0  0  0  0
 20 21  1  0  0  0  0
 21 14  2  0  0  0  0
 22 25  1  0  0  0  0
 23 22  2  0  0  0  0
 23 24  1  0  0  0  0
 24 27  1  0  0  0  0
 24 26  1  0  0  0  0
 28  2  1  0  0  0  0
 29 31  1  0  0  0  0
 29 28  1  0  0  0  0
 30 29  1  0  0  0  0
 32 29  1  0  0  0  0
M  END
>  <minimizedAffinity>
-5.48746014

$$$$

 OpenBabel03242519403D

 32 33  0  0  0  0  0  0  0  0999 V2000
   37.0680   32.8590   38.7450 O   0  0  0  0  0  0  0  0  0  0  0  0
   37.2970   31.3970   39.1550 P   0  0  2  0  0  0  0  0  0  0  0  0
   36.5910   31.1590   40.7000 O   0  0  0  0  0  0  0  0  0  0  0  0
   36.5380   27.7530   42.0290 C   0  0  0  0  0  0  0  0  0  0  0  0
   36.1730   28.8770   41.2520 C   0  0  0  0  0  0  0  0  0  0  0  0
   36.9200   30.0320   41.4460 C   0  0  0  0  0  0  0  0  0  0  0  0
   37.9430   30.0460   42.3490 N   0  0  0  0  0  0  0  0  0  0  0  0
   38.2490   28.9330   43.0700 C   0  0  0  0  0  0  0  0  0  0  0  0
   37.5590   27.8010   42.9150 N   0  0  0  0  0  0  0  0  0  0  0  0
   35.9880   26.8150   41.9210 H   0  0  0  0  0  0  0  0  0  0  0  0
   35.3550   28.7770   40.5670 H   0  0  0  0  0  0  0  0  0  0  0  0
   39.0650   28.9690   43.7780 H   0  0  0  0  0  0  0  0  0  0  0  0
   38.9080   30.9880   39.2010 O   0  0  0  0  0  0  0  0  0  0  0  0
   40.2560   32.9800   39.6150 C   0  0  0  0  0  0  0  0  0  0  0  0
   39.8710   31.9130   38.8170 C   0  0  0  0  0  0  0  0  0  0  0  0
   40.5210   31.8370   37.6030 C   0  0  0  0  0  0  0  0  0  0  0  0
   40.2850   31.0290   36.9030 H   0  0  0  0  0  0  0  0  0  0  0  0
   41.4850   32.7160   37.1530 C   0  0  0  0  0  0  0  0  0  0  0  0
   41.9600   32.6020   36.1860 H   0  0  0  0  0  0  0  0  0  0  0  0
   41.8170   33.7510   37.9980 C   0  0  0  0  0  3  0  0  0  0  0  0
   41.2140   33.9010   39.2310 C   0  0  0  0  0  3  0  0  0  0  0  0
   39.9110   32.2800   41.8480 N   0  0  0  0  0  0  0  0  0  0  0  0
   39.6220   33.1420   40.9190 C   0  0  0  0  0  0  0  0  0  0  0  0
   38.7020   34.1460   41.3290 N   0  0  0  0  0  0  0  0  0  0  0  0
   39.4890   32.3420   42.8030 H   0  0  0  0  0  0  0  0  0  0  0  0
   39.3740   34.8250   41.7840 H   0  0  0  0  0  0  0  0  0  0  0  0
   37.6680   34.2590   41.2480 H   0  0  0  0  0  0  0  0  0  0  0  0
   36.4410   30.4470   38.0600 O   0  0  0  0  0  0  0  0  0  0  0  0
   37.1040   30.2960   36.8540 C   0  0  0  0  0  0  0  0  0  0  0  0
   38.2600   29.5300   36.9550 F   0  0  0  0  0  0  0  0  0  0  0  0
   36.2350   29.8230   35.8960 F   0  0  0  0  0  0  0  0  0  0  0  0
   37.5120   31.5690   36.4680 F   0  0  0  0  0  0  0  0  0  0  0  0
  2  1  2  6  0  0  0
  2 13  1  0  0  0  0
  2  3  1  0  0  0  0
  3  6  1  0  0  0  0
  4  9  1  0  0  0  0
  5  6  1  0  0  0  0
  5  4  2  0  0  0  0
  6  7  2  0  0  0  0
  7  8  1  0  0  0  0
  8 12  1  0  0  0  0
  9  8  2  0  0  0  0
 10  4  1  0  0  0  0
 11  5  1  0  0  0  0
 14 23  1  0  0  0  0
 15 13  1  0  0  0  0
 15 14  2  0  0  0  0
 16 15  1  0  0  0  0
 17 16  1  0  0  0  0
 18 16  2  0  0  0  0
 18 20  1  0  0  0  0
 19 18  1  0  0  0  0
 20 21  2  0  0  0  0
 21 14  1  0  0  0  0
 22 25  1  0  0  0  0
 23 24  1  0  0  0  0
 23 22  2  0  0  0  0
 24 26  1  0  0  0  0
 27 24  1  0  0  0  0
 28  2  1  0  0  0  0
 29 30  1  0  0  0  0
 29 28  1  0  0  0  0
 31 29  1  0  0  0  0
 32 29  1  0  0  0  0
M  END
>  <minimizedAffinity>
-5.42872477

$$$$

 OpenBabel03242519403D

 32 33  0  0  0  0  0  0  0  0999 V2000
   39.5130   29.7310   40.1920 O   0  0  0  0  0  0  0  0  0  0  0  0
   38.6490   30.7360   40.9680 P   0  0  2  0  0  0  0  0  0  0  0  0
   37.9950   29.9350   42.3350 O   0  0  0  0  0  0  0  0  0  0  0  0
   37.7120   26.2880   42.3290 C   0  0  0  0  0  0  0  0  0  0  0  0
   37.3840   27.6420   42.0850 C   0  0  0  0  0  0  0  0  0  0  0  0
   38.2830   28.5910   42.5550 C   0  0  0  0  0  0  0  0  0  0  0  0
   39.4130   28.2010   43.2140 N   0  0  0  0  0  0  0  0  0  0  0  0
   39.6770   26.8820   43.4200 C   0  0  0  0  0  0  0  0  0  0  0  0
   38.8420   25.9360   42.9840 N   0  0  0  0  0  0  0  0  0  0  0  0
   37.0450   25.4960   41.9830 H   0  0  0  0  0  0  0  0  0  0  0  0
   36.4750   27.8580   41.5600 H   0  0  0  0  0  0  0  0  0  0  0  0
   40.5790   26.5990   43.9430 H   0  0  0  0  0  0  0  0  0  0  0  0
   37.4230   31.3740   40.0450 O   0  0  0  0  0  0  0  0  0  0  0  0
   36.7080   30.2490   37.9990 C   0  0  0  0  0  0  0  0  0  0  0  0
   36.5650   30.5310   39.3500 C   0  0  0  0  0  0  0  0  0  0  0  0
   35.4970   29.9040   39.9590 C   0  0  0  0  0  0  0  0  0  0  0  0
   35.3010   30.0640   41.0240 H   0  0  0  0  0  0  0  0  0  0  0  0
   34.6040   29.0560   39.3380 C   0  0  0  0  0  0  0  0  0  0  0  0
   33.7840   28.5940   39.8730 H   0  0  0  0  0  0  0  0  0  0  0  0
   34.8080   28.8230   37.9970 C   0  0  0  0  0  3  0  0  0  0  0  0
   35.8520   29.4090   37.3100 C   0  0  0  0  0  3  0  0  0  0  0  0
   38.9590   30.2600   37.2750 N   0  0  0  0  0  0  0  0  0  0  0  0
   37.8100   30.8670   37.2700 C   0  0  0  0  0  0  0  0  0  0  0  0
   37.8020   32.0810   36.5300 N   0  0  0  0  0  0  0  0  0  0  0  0
   39.7880   30.6520   36.7720 H   0  0  0  0  0  0  0  0  0  0  0  0
   37.6290   31.6940   35.5610 H   0  0  0  0  0  0  0  0  0  0  0  0
   37.9220   33.0860   36.7830 H   0  0  0  0  0  0  0  0  0  0  0  0
   39.6900   31.9320   41.5370 O   0  0  0  0  0  0  0  0  0  0  0  0
   39.7610   33.0230   40.6890 C   0  0  0  0  0  0  0  0  0  0  0  0
   39.7800   32.6730   39.3440 F   0  0  0  0  0  0  0  0  0  0  0  0
   38.7600   33.9190   40.9910 F   0  0  0  0  0  0  0  0  0  0  0  0
   40.9800   33.6440   40.9480 F   0  0  0  0  0  0  0  0  0  0  0  0
  2  1  2  6  0  0  0
  2 28  1  0  0  0  0
  2  3  1  0  0  0  0
  3  6  1  0  0  0  0
  4  9  1  0  0  0  0
  5  4  2  0  0  0  0
  5  6  1  0  0  0  0
  6  7  2  0  0  0  0
  7  8  1  0  0  0  0
  8 12  1  0  0  0  0
  9  8  2  0  0  0  0
 10  4  1  0  0  0  0
 11  5  1  0  0  0  0
 13  2  1  0  0  0  0
 14 15  1  0  0  0  0
 15 16  2  0  0  0  0
 15 13  1  0  0  0  0
 16 17  1  0  0  0  0
 18 19  1  0  0  0  0
 18 16  1  0  0  0  0
 20 18  2  0  0  0  0
 21 20  1  0  0  0  0
 21 14  2  0  0  0  0
 23 22  2  0  0  0  0
 23 14  1  0  0  0  0
 24 27  1  0  0  0  0
 24 23  1  0  0  0  0
 25 22  1  0  0  0  0
 26 24  1  0  0  0  0
 29 32  1  0  0  0  0
 29 31  1  0  0  0  0
 29 28  1  0  0  0  0
 30 29  1  0  0  0  0
M  END
>  <minimizedAffinity>
-5.37301397

$$$$

 OpenBabel03242519403D

 32 33  0  0  0  0  0  0  0  0999 V2000
   38.3040   28.1470   40.0800 O   0  0  0  0  0  0  0  0  0  0  0  0
   36.9780   28.0600   40.8490 P   0  0  2  0  0  0  0  0  0  0  0  0
   36.5610   29.6380   41.3760 O   0  0  0  0  0  0  0  0  0  0  0  0
   38.0220   32.8020   40.2660 C   0  0  0  0  0  0  0  0  0  0  0  0
   37.0790   31.7580   40.4120 C   0  0  0  0  0  0  0  0  0  0  0  0
   37.4620   30.6850   41.2080 C   0  0  0  0  0  0  0  0  0  0  0  0
   38.6920   30.6730   41.8000 N   0  0  0  0  0  0  0  0  0  0  0  0
   39.5590   31.7080   41.6230 C   0  0  0  0  0  0  0  0  0  0  0  0
   39.2320   32.7590   40.8680 N   0  0  0  0  0  0  0  0  0  0  0  0
   37.7780   33.6720   39.6530 H   0  0  0  0  0  0  0  0  0  0  0  0
   36.1370   31.8490   39.9110 H   0  0  0  0  0  0  0  0  0  0  0  0
   40.5260   31.6750   42.1040 H   0  0  0  0  0  0  0  0  0  0  0  0
   37.0570   27.0310   42.1520 O   0  0  0  0  0  0  0  0  0  0  0  0
   38.7090   25.2860   42.5850 C   0  0  0  0  0  0  0  0  0  0  0  0
   38.2920   26.6080   42.6290 C   0  0  0  0  0  0  0  0  0  0  0  0
   39.2030   27.4820   43.1850 C   0  0  0  0  0  0  0  0  0  0  0  0
   38.9650   28.5470   43.2640 H   0  0  0  0  0  0  0  0  0  0  0  0
   40.4450   27.1380   43.6800 C   0  0  0  0  0  0  0  0  0  0  0  0
   41.1160   27.8740   44.1060 H   0  0  0  0  0  0  0  0  0  0  0  0
   40.7910   25.8090   43.6030 C   0  0  0  0  0  3  0  0  0  0  0  0
   39.9390   24.8680   43.0610 C   0  0  0  0  0  3  0  0  0  0  0  0
   38.3410   23.2350   41.4680 N   0  0  0  0  0  0  0  0  0  0  0  0
   37.8110   24.2890   42.0130 C   0  0  0  0  0  0  0  0  0  0  0  0
   36.3900   24.3110   41.9660 N   0  0  0  0  0  0  0  0  0  0  0  0
   37.7500   22.4840   41.0400 H   0  0  0  0  0  0  0  0  0  0  0  0
   36.1780   23.7310   42.8250 H   0  0  0  0  0  0  0  0  0  0  0  0
   35.6910   24.7400   41.3210 H   0  0  0  0  0  0  0  0  0  0  0  0
   35.8060   27.5760   39.7410 O   0  0  0  0  0  0  0  0  0  0  0  0
   35.1680   28.6460   39.1380 C   0  0  0  0  0  0  0  0  0  0  0  0
   34.4080   29.4020   40.0240 F   0  0  0  0  0  0  0  0  0  0  0  0
   36.0810   29.4050   38.4410 F   0  0  0  0  0  0  0  0  0  0  0  0
   34.2730   28.1050   38.2200 F   0  0  0  0  0  0  0  0  0  0  0  0
  2  1  2  6  0  0  0
  2  3  1  0  0  0  0
  2 13  1  0  0  0  0
  4  5  2  0  0  0  0
  4  9  1  0  0  0  0
  5  6  1  0  0  0  0
  6  3  1  0  0  0  0
  6  7  2  0  0  0  0
  8  7  1  0  0  0  0
  8 12  1  0  0  0  0
  9  8  2  0  0  0  0
 10  4  1  0  0  0  0
 11  5  1  0  0  0  0
 13 15  1  0  0  0  0
 14 15  2  0  0  0  0
 14 21  1  0  0  0  0
 15 16  1  0  0  0  0
 16 17  1  0  0  0  0
 16 18  2  0  0  0  0
 18 19  1  0  0  0  0
 20 18  1  0  0  0  0
 21 20  2  0  0  0  0
 22 23  2  0  0  0  0
 23 14  1  0  0  0  0
 24 23  1  0  0  0  0
 24 26  1  0  0  0  0
 25 22  1  0  0  0  0
 27 24  1  0  0  0  0
 28  2  1  0  0  0  0
 29 28  1  0  0  0  0
 29 30  1  0  0  0  0
 31 29  1  0  0  0  0
 32 29  1  0  0  0  0
M  END
>  <minimizedAffinity>
-5.3665905

$$$$

 OpenBabel03242519403D

 32 33  0  0  0  0  0  0  0  0999 V2000
   38.3400   28.5200   40.3850 O   0  0  0  0  0  0  0  0  0  0  0  0
   37.8590   29.7480   41.1710 P   0  0  2  0  0  0  0  0  0  0  0  0
   36.6140   30.5060   40.2680 O   0  0  0  0  0  0  0  0  0  0  0  0
   36.9120   30.1250   36.6420 C   0  0  0  0  0  0  0  0  0  0  0  0
   37.2040   30.5590   37.9570 C   0  0  0  0  0  0  0  0  0  0  0  0
   36.3600   30.1010   38.9610 C   0  0  0  0  0  0  0  0  0  0  0  0
   35.3140   29.2770   38.6580 N   0  0  0  0  0  0  0  0  0  0  0  0
   35.0820   28.8920   37.3730 C   0  0  0  0  0  0  0  0  0  0  0  0
   35.8680   29.3070   36.3770 N   0  0  0  0  0  0  0  0  0  0  0  0
   37.5400   30.4510   35.8110 H   0  0  0  0  0  0  0  0  0  0  0  0
   38.0450   31.2060   38.1040 H   0  0  0  0  0  0  0  0  0  0  0  0
   34.2490   28.2390   37.1600 H   0  0  0  0  0  0  0  0  0  0  0  0
   39.0800   30.8350   41.4740 O   0  0  0  0  0  0  0  0  0  0  0  0
   39.6010   32.6140   39.8860 C   0  0  0  0  0  0  0  0  0  0  0  0
   39.8240   31.3540   40.4220 C   0  0  0  0  0  0  0  0  0  0  0  0
   40.8510   30.6490   39.8280 C   0  0  0  0  0  0  0  0  0  0  0  0
   41.1030   29.6450   40.1820 H   0  0  0  0  0  0  0  0  0  0  0  0
   41.6310   31.0970   38.7820 C   0  0  0  0  0  0  0  0  0  0  0  0
   42.4240   30.4930   38.3590 H   0  0  0  0  0  0  0  0  0  0  0  0
   41.3530   32.3560   38.3010 C   0  0  0  0  0  3  0  0  0  0  0  0
   40.3430   33.1290   38.8380 C   0  0  0  0  0  3  0  0  0  0  0  0
   38.8120   34.1590   41.4930 N   0  0  0  0  0  0  0  0  0  0  0  0
   38.5350   33.4350   40.4500 C   0  0  0  0  0  0  0  0  0  0  0  0
   37.1910   33.5560   40.0030 N   0  0  0  0  0  0  0  0  0  0  0  0
   38.0910   34.7680   41.9440 H   0  0  0  0  0  0  0  0  0  0  0  0
   37.2820   34.4240   39.4050 H   0  0  0  0  0  0  0  0  0  0  0  0
   36.3190   33.0050   40.1660 H   0  0  0  0  0  0  0  0  0  0  0  0
   37.1680   29.1720   42.5940 O   0  0  0  0  0  0  0  0  0  0  0  0
   36.8160   27.8360   42.5130 C   0  0  0  0  0  0  0  0  0  0  0  0
   37.9110   26.9870   42.3980 F   0  0  0  0  0  0  0  0  0  0  0  0
   35.9930   27.5020   43.5650 F   0  0  0  0  0  0  0  0  0  0  0  0
   36.0860   27.6920   41.3380 F   0  0  0  0  0  0  0  0  0  0  0  0
  2  1  2  6  0  0  0
  2 13  1  0  0  0  0
  2 28  1  0  0  0  0
  3  2  1  0  0  0  0
  4  5  1  0  0  0  0
  5 11  1  0  0  0  0
  5  6  2  0  0  0  0
  6  3  1  0  0  0  0
  7  6  1  0  0  0  0
  8  7  2  0  0  0  0
  9  4  2  0  0  0  0
  9  8  1  0  0  0  0
 10  4  1  0  0  0  0
 12  8  1  0  0  0  0
 14 15  1  0  0  0  0
 14 23  1  0  0  0  0
 15 13  1  0  0  0  0
 16 17  1  0  0  0  0
 16 15  2  0  0  0  0
 18 16  1  0  0  0  0
 19 18  1  0  0  0  0
 20 18  2  0  0  0  0
 20 21  1  0  0  0  0
 21 14  2  0  0  0  0
 22 25  1  0  0  0  0
 23 22  2  0  0  0  0
 24 27  1  0  0  0  0
 24 23  1  0  0  0  0
 26 24  1  0  0  0  0
 29 28  1  0  0  0  0
 29 31  1  0  0  0  0
 30 29  1  0  0  0  0
 32 29  1  0  0  0  0
M  END
>  <minimizedAffinity>
-5.34372663

$$$$

 OpenBabel03242519403D

 32 33  0  0  0  0  0  0  0  0999 V2000
   37.3870   28.6480   43.6650 O   0  0  0  0  0  0  0  0  0  0  0  0
   37.3650   28.9510   42.1600 P   0  0  2  0  0  0  0  0  0  0  0  0
   38.5410   27.9620   41.3990 O   0  0  0  0  0  0  0  0  0  0  0  0
   38.5380   24.4340   42.3650 C   0  0  0  0  0  0  0  0  0  0  0  0
   38.1230   25.6400   41.7530 C   0  0  0  0  0  0  0  0  0  0  0  0
   38.9170   26.7560   41.9840 C   0  0  0  0  0  0  0  0  0  0  0  0
   40.0310   26.6570   42.7670 N   0  0  0  0  0  0  0  0  0  0  0  0
   40.3820   25.4690   43.3300 C   0  0  0  0  0  0  0  0  0  0  0  0
   39.6490   24.3710   43.1340 N   0  0  0  0  0  0  0  0  0  0  0  0
   37.9540   23.5230   42.2200 H   0  0  0  0  0  0  0  0  0  0  0  0
   37.2340   25.6270   41.1550 H   0  0  0  0  0  0  0  0  0  0  0  0
   41.2690   25.4170   43.9440 H   0  0  0  0  0  0  0  0  0  0  0  0
   37.6670   30.5510   41.8230 O   0  0  0  0  0  0  0  0  0  0  0  0
   39.3890   31.9800   40.8470 C   0  0  0  0  0  0  0  0  0  0  0  0
   38.9770   31.0100   41.7490 C   0  0  0  0  0  0  0  0  0  0  0  0
   39.9720   30.5300   42.5750 C   0  0  0  0  0  0  0  0  0  0  0  0
   39.7440   29.7610   43.3200 H   0  0  0  0  0  0  0  0  0  0  0  0
   41.2910   30.9340   42.5590 C   0  0  0  0  0  0  0  0  0  0  0  0
   42.0270   30.5180   43.2360 H   0  0  0  0  0  0  0  0  0  0  0  0
   41.6280   31.9010   41.6390 C   0  0  0  0  0  3  0  0  0  0  0  0
   40.6930   32.4350   40.7750 C   0  0  0  0  0  3  0  0  0  0  0  0
   38.7330   32.6620   38.6800 N   0  0  0  0  0  0  0  0  0  0  0  0
   38.4050   32.5470   39.9330 C   0  0  0  0  0  0  0  0  0  0  0  0
   37.0920   33.0080   40.2300 N   0  0  0  0  0  0  0  0  0  0  0  0
   38.0710   33.0620   37.9750 H   0  0  0  0  0  0  0  0  0  0  0  0
   36.5410   32.1400   39.9820 H   0  0  0  0  0  0  0  0  0  0  0  0
   36.7030   33.9080   40.5870 H   0  0  0  0  0  0  0  0  0  0  0  0
   35.8570   28.4660   41.5900 O   0  0  0  0  0  0  0  0  0  0  0  0
   35.7690   28.5130   40.2090 C   0  0  0  0  0  0  0  0  0  0  0  0
   36.1730   27.3340   39.5930 F   0  0  0  0  0  0  0  0  0  0  0  0
   34.5030   28.9030   39.8320 F   0  0  0  0  0  0  0  0  0  0  0  0
   36.6600   29.4970   39.7920 F   0  0  0  0  0  0  0  0  0  0  0  0
  2  1  2  1  0  0  0
  3  6  1  0  0  0  0
  3  2  1  0  0  0  0
  4  9  1  0  0  0  0
  5  6  1  0  0  0  0
  5  4  2  0  0  0  0
  6  7  2  0  0  0  0
  7  8  1  0  0  0  0
  8 12  1  0  0  0  0
  9  8  2  0  0  0  0
 10  4  1  0  0  0  0
 11  5  1  0  0  0  0
 13  2  1  0  0  0  0
 14 15  1  0  0  0  0
 15 13  1  0  0  0  0
 15 16  2  0  0  0  0
 16 17  1  0  0  0  0
 18 16  1  0  0  0  0
 18 19  1  0  0  0  0
 20 18  2  0  0  0  0
 21 14  2  0  0  0  0
 21 20  1  0  0  0  0
 22 23  2  0  0  0  0
 23 24  1  0  0  0  0
 23 14  1  0  0  0  0
 24 27  1  0  0  0  0
 25 22  1  0  0  0  0
 26 24  1  0  0  0  0
 28  2  1  0  0  0  0
 29 28  1  0  0  0  0
 30 29  1  0  0  0  0
 31 29  1  0  0  0  0
 32 29  1  0  0  0  0
M  END
>  <minimizedAffinity>
-5.30601311

$$$$

 OpenBabel03242519403D

 32 33  0  0  0  0  0  0  0  0999 V2000
   39.2610   28.0410   39.2850 O   0  0  0  0  0  0  0  0  0  0  0  0
   38.5350   29.0720   40.1610 P   0  0  2  0  0  0  0  0  0  0  0  0
   37.0600   28.3770   40.6920 O   0  0  0  0  0  0  0  0  0  0  0  0
   37.1370   25.0070   42.1130 C   0  0  0  0  0  0  0  0  0  0  0  0
   37.2640   26.4140   42.0330 C   0  0  0  0  0  0  0  0  0  0  0  0
   36.9480   26.9950   40.8110 C   0  0  0  0  0  0  0  0  0  0  0  0
   36.5410   26.2180   39.7640 N   0  0  0  0  0  0  0  0  0  0  0  0
   36.4370   24.8670   39.9000 C   0  0  0  0  0  0  0  0  0  0  0  0
   36.7300   24.2670   41.0560 N   0  0  0  0  0  0  0  0  0  0  0  0
   37.3710   24.4930   43.0470 H   0  0  0  0  0  0  0  0  0  0  0  0
   37.5910   26.9450   42.9030 H   0  0  0  0  0  0  0  0  0  0  0  0
   36.1120   24.2750   39.0580 H   0  0  0  0  0  0  0  0  0  0  0  0
   38.2340   30.4970   39.3600 O   0  0  0  0  0  0  0  0  0  0  0  0
   39.4160   32.6310   39.4310 C   0  0  0  0  0  0  0  0  0  0  0  0
   39.2880   31.3220   38.9900 C   0  0  0  0  0  0  0  0  0  0  0  0
   40.2960   30.8950   38.1500 C   0  0  0  0  0  0  0  0  0  0  0  0
   40.2830   29.8770   37.7500 H   0  0  0  0  0  0  0  0  0  0  0  0
   41.3720   31.6550   37.7380 C   0  0  0  0  0  0  0  0  0  0  0  0
   42.1320   31.2610   37.0750 H   0  0  0  0  0  0  0  0  0  0  0  0
   41.4340   32.9440   38.2150 C   0  0  0  0  0  3  0  0  0  0  0  0
   40.4670   33.4510   39.0600 C   0  0  0  0  0  3  0  0  0  0  0  0
   38.7930   33.8320   41.3700 N   0  0  0  0  0  0  0  0  0  0  0  0
   38.3970   33.1700   40.3240 C   0  0  0  0  0  0  0  0  0  0  0  0
   36.9840   33.0690   40.2060 N   0  0  0  0  0  0  0  0  0  0  0  0
   38.1110   34.2430   42.0490 H   0  0  0  0  0  0  0  0  0  0  0  0
   36.7810   33.9910   39.7290 H   0  0  0  0  0  0  0  0  0  0  0  0
   36.2820   32.3460   40.4790 H   0  0  0  0  0  0  0  0  0  0  0  0
   39.4960   29.3120   41.5240 O   0  0  0  0  0  0  0  0  0  0  0  0
   38.8290   29.9840   42.5340 C   0  0  0  0  0  0  0  0  0  0  0  0
   38.4320   29.1540   43.5760 F   0  0  0  0  0  0  0  0  0  0  0  0
   39.5830   31.0540   42.9630 F   0  0  0  0  0  0  0  0  0  0  0  0
   37.6610   30.4860   41.9670 F   0  0  0  0  0  0  0  0  0  0  0  0
  2  1  2  6  0  0  0
  2  3  1  0  0  0  0
  2 28  1  0  0  0  0
  3  6  1  0  0  0  0
  4 10  1  0  0  0  0
  5  4  1  0  0  0  0
  5 11  1  0  0  0  0
  6  5  2  0  0  0  0
  7  8  2  0  0  0  0
  7  6  1  0  0  0  0
  8  9  1  0  0  0  0
  9  4  2  0  0  0  0
 12  8  1  0  0  0  0
 13  2  1  0  0  0  0
 14 23  1  0  0  0  0
 15 13  1  0  0  0  0
 15 14  2  0  0  0  0
 16 15  1  0  0  0  0
 17 16  1  0  0  0  0
 18 16  2  0  0  0  0
 18 20  1  0  0  0  0
 19 18  1  0  0  0  0
 20 21  2  0  0  0  0
 21 14  1  0  0  0  0
 22 25  1  0  0  0  0
 23 22  2  0  0  0  0
 24 23  1  0  0  0  0
 24 27  1  0  0  0  0
 26 24  1  0  0  0  0
 28 29  1  0  0  0  0
 29 31  1  0  0  0  0
 29 30  1  0  0  0  0
 32 29  1  0  0  0  0
M  END
>  <minimizedAffinity>
-5.28652525

$$$$
