REMARK  Name = 
REMARK  5 active torsions:
REMARK  status: ('A' for Active; 'I' for Inactive)
REMARK    1  A    between atoms: C_1  and  C_4
REMARK    2  A    between atoms: C_2  and  C_11
REMARK    3  A    between atoms: C_8  and  O_10
REMARK    4  A    between atoms: O_10  and  C_25
REMARK    5  A    between atoms: C_22  and  C_24
REMARK                            x       y       z     vdW  Elec       q    Type
REMARK                         _______ _______ _______ _____ _____    ______ ____
ROOT
ATOM      1  C   UNL     1      45.899  32.867  44.818  0.00  0.00    +0.000 A 
ATOM      2  C   UNL     1      46.712  31.747  44.505  0.00  0.00    +0.000 A 
ATOM      3  C   UNL     1      47.377  31.045  45.505  0.00  0.00    +0.000 A 
ATOM      4  N   UNL     1      47.205  31.489  46.779  0.00  0.00    +0.000 NA
ATOM      5  C   UNL     1      46.414  32.576  47.045  0.00  0.00    +0.000 A 
ATOM      6  N   UNL     1      45.781  33.243  46.094  0.00  0.00    +0.000 NA
ATOM      7  H   UNL     1      46.834  31.410  43.473  0.00  0.00    +0.000 HD
ATOM      8  H   UNL     1      47.998  30.192  45.288  0.00  0.00    +0.000 HD
ENDROOT
BRANCH   1   9
ATOM      9  C   UNL     1      45.239  33.565  43.708  0.00  0.00    +0.000 C 
ATOM     10  C   UNL     1      45.860  34.991  43.484  0.00  0.00    +0.000 C 
ATOM     11  C   UNL     1      45.824  33.879  42.459  0.00  0.00    +0.000 C 
ATOM     12  H   UNL     1      44.123  33.601  43.847  0.00  0.00    +0.000 HD
ATOM     13  H   UNL     1      46.793  35.227  43.984  0.00  0.00    +0.000 HD
ATOM     14  H   UNL     1      46.853  33.526  42.172  0.00  0.00    +0.000 HD
ATOM     15  H   UNL     1      45.205  34.020  41.551  0.00  0.00    +0.000 HD
BRANCH  10  16
ATOM     16  C   UNL     1      44.833  36.070  43.242  0.00  0.00    +0.000 C 
ATOM     17  F   UNL     1      45.353  37.331  43.244  0.00  0.00    +0.000 F 
ATOM     18  F   UNL     1      44.247  35.855  41.978  0.00  0.00    +0.000 F 
ATOM     19  F   UNL     1      43.782  35.961  44.139  0.00  0.00    +0.000 F 
ENDBRANCH  10  16
ENDBRANCH   1   9
BRANCH   5  20
ATOM     20  O   UNL     1      46.326  32.926  48.382  0.00  0.00    +0.000 OA
BRANCH  20  22
ATOM     21  C   UNL     1      48.120  32.663  50.081  0.00  0.00    +0.000 A 
ATOM     22  C   UNL     1      46.944  32.359  49.441  0.00  0.00    +0.000 A 
ATOM     23  C   UNL     1      46.217  31.273  49.944  0.00  0.00    +0.000 A 
ATOM     24  H   UNL     1      45.274  30.879  49.583  0.00  0.00    +0.000 HD
ATOM     25  C   UNL     1      46.729  30.577  51.046  0.00  0.00    +0.000 A 
ATOM     26  H   UNL     1      46.227  29.740  51.478  0.00  0.00    +0.000 HD
ATOM     27  C   UNL     1      47.902  30.920  51.642  0.00  0.00    +0.000 A 
ATOM     28  C   UNL     1      48.629  31.984  51.164  0.00  0.00    +0.000 A 
BRANCH  21  30
ATOM     29  N   UNL     1      49.558  34.491  50.475  0.00  0.00    +0.000 NA
ATOM     30  C   UNL     1      48.867  33.786  49.607  0.00  0.00    +0.000 C 
ATOM     31  N   UNL     1      49.295  34.628  48.568  0.00  0.00    +0.000 N 
ATOM     32  H   UNL     1      49.601  34.291  51.476  0.00  0.00    +0.000 HD
ATOM     33  H   UNL     1      48.825  35.497  48.225  0.00  0.00    +0.000 HD
ATOM     34  H   UNL     1      50.164  34.495  47.976  0.00  0.00    +0.000 HD
ENDBRANCH  21  30
ENDBRANCH  20  22
ENDBRANCH   5  20
TORSDOF 5
