
     RDKit          3D

 51 55  0  0  0  0  0  0  0  0999 V2000
   48.0284   32.9841   42.4908 N   0  0  0  0  0  0  0  0  0  0  0  0
   47.2481   33.0391   43.6583 C   0  0  0  0  0  0  0  0  0  0  0  0
   47.4281   32.0942   44.6310 C   0  0  0  0  0  0  0  0  0  0  0  0
   46.7472   32.1204   45.8397 C   0  0  0  0  0  0  0  0  0  0  0  0
   45.8420   33.1236   46.1128 C   0  0  0  0  0  0  0  0  0  0  0  0
   45.6415   34.0859   45.1504 C   0  0  0  0  0  0  0  0  0  0  0  0
   44.7447   35.1078   45.4088 C   0  0  0  0  0  0  0  0  0  0  0  0
   44.5075   36.0926   44.5048 C   0  0  0  0  0  0  0  0  0  0  0  0
   45.2057   36.0280   43.3042 C   0  0  0  0  0  0  0  0  0  0  0  0
   46.0881   35.0165   43.0573 C   0  0  0  0  0  0  0  0  0  0  0  0
   46.3328   34.0294   43.9604 C   0  0  0  0  0  0  0  0  0  0  0  0
   46.7435   34.9993   41.8509 O   0  0  0  0  0  0  0  0  0  0  0  0
   50.1614   31.7174   42.2716 C   0  0  1  0  0  0  0  0  0  0  0  0
   49.6405   31.9052   40.8553 C   0  0  0  0  0  0  0  0  0  0  0  0
   48.7111   31.7909   42.0789 C   0  0  2  0  0  0  0  0  0  0  0  0
   50.9076   28.0999   42.4056 C   0  0  0  0  0  0  0  0  0  0  0  0
   52.0028   28.0670   43.3399 C   0  0  0  0  0  0  0  0  0  0  0  0
   52.4449   29.2835   43.8845 C   0  0  0  0  0  0  0  0  0  0  0  0
   51.8267   30.3892   43.5051 N   0  0  0  0  0  0  0  0  0  0  0  0
   50.8067   30.4108   42.6335 C   0  0  0  0  0  0  0  0  0  0  0  0
   50.3347   29.2612   42.0721 N   0  0  0  0  0  0  0  0  0  0  0  0
   48.2849   33.6821   41.7653 H   0  0  0  0  0  0  0  0  0  0  0  0
   48.1054   31.2691   44.5295 H   0  0  0  0  0  0  0  0  0  0  0  0
   46.8859   31.3809   46.6048 H   0  0  0  0  0  0  0  0  0  0  0  0
   45.2823   33.1936   47.0420 H   0  0  0  0  0  0  0  0  0  0  0  0
   44.1920   35.1715   46.3383 H   0  0  0  0  0  0  0  0  0  0  0  0
   43.8137   36.9130   44.6676 H   0  0  0  0  0  0  0  0  0  0  0  0
   45.0208   36.8171   42.5675 H   0  0  0  0  0  0  0  0  0  0  0  0
   47.1732   35.8727   41.5567 H   0  0  0  0  0  0  0  0  0  0  0  0
   50.6291   32.5922   42.7411 H   0  0  0  0  0  0  0  0  0  0  0  0
   49.7487   31.0388   40.2020 H   0  0  0  0  0  0  0  0  0  0  0  0
   49.7336   32.9162   40.3969 H   0  0  0  0  0  0  0  0  0  0  0  0
   48.0499   30.8987   42.0318 H   0  0  0  0  0  0  0  0  0  0  0  0
   50.5210   27.2035   41.9525 H   0  0  0  0  0  0  0  0  0  0  0  0
   52.3504   27.0875   43.5044 H   0  0  0  0  0  0  0  0  0  0  0  0
   55.0513   30.0626   41.8957 N   0  0  0  0  0  0  0  0  0  0  0  0
   55.1729   30.0543   43.1623 C   0  0  0  0  0  0  0  0  0  0  0  0
   56.1593   31.0653   42.9634 N   0  0  0  0  0  0  0  0  0  0  0  0
   54.8299   29.5780   44.4804 C   0  0  0  0  0  0  0  0  0  0  0  0
   53.5489   29.2073   44.8202 C   0  0  0  0  0  0  0  0  0  0  0  0
   53.4232   28.7685   46.1112 C   0  0  0  0  0  0  0  0  0  0  0  0
   52.4867   28.4477   46.5149 H   0  0  0  0  0  0  0  0  0  0  0  0
   54.4824   28.7068   46.9818 C   0  0  0  0  0  0  0  0  0  0  0  0
   54.3563   28.3569   47.9924 H   0  0  0  0  0  0  0  0  0  0  0  0
   55.7485   29.0819   46.6197 C   0  0  0  0  0  0  0  0  0  0  0  0
   55.9276   29.5293   45.3357 C   0  0  0  0  0  0  0  0  0  0  0  0
   55.6488   30.7174   41.3650 H   0  0  0  0  0  0  0  0  0  0  0  0
   56.5026   32.0367   42.7291 H   0  0  0  0  0  0  0  0  0  0  0  0
   57.1892   30.9291   43.0746 H   0  0  0  0  0  0  0  0  0  0  0  0
   56.5588   29.0229   47.3234 H   0  0  0  0  0  0  0  0  0  0  0  0
   56.9303   29.8239   45.0572 H   0  0  0  0  0  0  0  0  0  0  0  0
  1  2  1  0
  2 11  1  0
  2  3  2  0
  3  4  1  0
  4  5  2  0
  6  7  2  0
  6  5  1  0
  8  7  1  0
  9  8  2  0
 10  9  1  0
 10 11  2  0
 11  6  1  0
 12 10  1  0
 13 20  1  0
 14 15  1  0
 14 13  1  0
 15 13  1  0
 15  1  1  0
 16 17  2  0
 17 18  1  0
 19 18  2  0
 20 19  1  0
 21 16  1  0
 21 20  2  0
  1 22  1  0
  3 23  1  0
  4 24  1  0
  5 25  1  0
  7 26  1  0
  8 27  1  0
  9 28  1  0
 12 29  1  0
 13 30  1  1
 14 31  1  0
 14 32  1  0
 15 33  1  6
 16 34  1  0
 17 35  1  0
 36 37  2  3
 37 38  1  0
 37 39  1  0
 39 40  2  0
 40 41  1  0
 41 42  1  0
 41 43  2  0
 43 44  1  0
 43 45  1  0
 45 46  2  0
 46 39  1  0
 36 47  1  0
 38 48  1  0
 38 49  1  0
 45 50  1  0
 46 51  1  0
 18 40  1  0
M  ISO  8  23  14  24  14  25  14  26  14  27  14  28  14  29   3  30  13
M  ISO  7  31  13  32  13  33  13  34  14  35  14  42  15  44  16
M  END
>  <DihAtoms>  (1) 
16,17,39,38

>  <DihDeg>  (1) 
179.74378394233182

$$$$
