
 OpenBabel03252509263D

 35 37  0  0  1  0  0  0  0  0999 V2000
   47.0110   35.1370   41.7870 C   0  0  1  0  0  0  0  0  0  0  0  0
   48.4980   35.5830   41.8720 C   0  0  0  0  0  0  0  0  0  0  0  0
   47.9510   34.3290   41.1280 C   0  0  2  0  0  0  0  0  0  0  0  0
   46.3610   35.8710   41.2700 H   0  0  0  0  0  0  0  0  0  0  0  0
   48.7420   36.4460   41.2320 H   0  0  0  0  0  0  0  0  0  0  0  0
   49.0560   35.3880   42.7920 H   0  0  0  0  0  0  0  0  0  0  0  0
   48.2980   33.3560   41.5890 H   0  0  0  0  0  0  0  0  0  0  0  0
   44.9670   34.8960   44.9210 C   0  0  0  0  0  0  0  0  0  0  0  0
   45.4160   35.3970   43.6510 C   0  0  0  0  0  0  0  0  0  0  0  0
   46.4960   34.7460   43.1530 C   0  0  0  0  0  0  0  0  0  0  0  0
   47.1110   33.6960   43.8090 N   0  0  0  0  0  0  0  0  0  0  0  0
   46.6500   33.2640   44.9990 C   0  0  0  0  0  0  0  0  0  0  0  0
   45.5710   33.8670   45.5570 N   0  0  0  0  0  0  0  0  0  0  0  0
   44.1050   35.3910   45.3490 H   0  0  0  0  0  0  0  0  0  0  0  0
   47.2160   32.4460   45.4000 H   0  0  0  0  0  0  0  0  0  0  0  0
   44.8070   36.4830   43.0040 N   0  0  0  0  0  0  0  0  0  0  0  0
   44.1420   35.8710   42.4990 H   0  0  0  0  0  0  0  0  0  0  0  0
   45.4360   37.2050   43.4630 H   0  0  0  0  0  0  0  0  0  0  0  0
   48.0200   34.2880   39.6190 C   0  0  0  0  0  0  0  0  0  0  0  0
   48.8230   35.0050   39.3400 H   0  0  0  0  0  0  0  0  0  0  0  0
   47.0310   34.6610   39.2520 H   0  0  0  0  0  0  0  0  0  0  0  0
   47.3220   32.4060   38.1870 C   0  0  0  0  0  0  0  0  0  0  0  0
   48.2380   32.9490   39.0630 C   0  0  0  0  0  0  0  0  0  0  0  0
   49.3640   32.2350   39.4170 C   0  0  0  0  0  0  0  0  0  0  0  0
   50.0610   32.7140   40.1190 H   0  0  0  0  0  0  0  0  0  0  0  0
   49.5650   30.9810   38.8910 C   0  0  0  0  0  0  0  0  0  0  0  0
   50.4810   30.4870   39.2250 H   0  0  0  0  0  0  0  0  0  0  0  0
   48.6670   30.4110   38.0130 C   0  0  0  0  0  3  0  0  0  0  0  0
   47.5720   31.1460   37.6880 C   0  0  0  0  0  3  0  0  0  0  0  0
   45.8230   33.8140   36.7440 N   0  0  0  0  0  0  0  0  0  0  0  0
   46.1050   33.0520   37.7400 C   0  0  0  0  0  0  0  0  0  0  0  0
   44.8910   32.8850   38.4720 N   0  0  0  0  0  0  0  0  0  0  0  0
   44.8670   34.1870   36.5880 H   0  0  0  0  0  0  0  0  0  0  0  0
   44.6880   33.6790   39.1320 H   0  0  0  0  0  0  0  0  0  0  0  0
   44.2930   32.0410   38.3340 H   0  0  0  0  0  0  0  0  0  0  0  0
  1  4  1  6  0  0  0
  1  2  1  0  0  0  0
  1 10  1  0  0  0  0
  2  6  1  0  0  0  0
  3  7  1  1  0  0  0
  3  1  1  0  0  0  0
  3  2  1  0  0  0  0
  5  2  1  0  0  0  0
  8 14  1  0  0  0  0
  8 13  1  0  0  0  0
  9  8  2  0  0  0  0
 10  9  1  0  0  0  0
 10 11  2  0  0  0  0
 11 12  1  0  0  0  0
 12 15  1  0  0  0  0
 12 13  2  0  0  0  0
 16 18  1  0  0  0  0
 16  9  1  0  0  0  0
 17 16  1  0  0  0  0
 19  3  1  0  0  0  0
 20 19  1  0  0  0  0
 21 19  1  0  0  0  0
 22 23  1  0  0  0  0
 23 24  2  0  0  0  0
 23 19  1  0  0  0  0
 24 25  1  0  0  0  0
 26 27  1  0  0  0  0
 26 24  1  0  0  0  0
 28 26  2  0  0  0  0
 29 28  1  0  0  0  0
 29 22  2  0  0  0  0
 30 31  2  0  0  0  0
 31 22  1  0  0  0  0
 31 32  1  0  0  0  0
 32 34  1  0  0  0  0
 33 30  1  0  0  0  0
 35 32  1  0  0  0  0
M  END
>  <minimizedAffinity>
-5.20305061

>  <minimizedRMSD>
1.27398455

$$$$
