
 OpenBabel03252509273D

 35 37  0  0  1  0  0  0  0  0999 V2000
   46.0970   34.8020   42.0780 C   0  0  1  0  0  0  0  0  0  0  0  0
   47.5830   35.0390   41.6900 C   0  0  0  0  0  0  0  0  0  0  0  0
   46.6700   33.8810   41.1880 C   0  0  2  0  0  0  0  0  0  0  0  0
   45.4240   35.6250   41.7640 H   0  0  0  0  0  0  0  0  0  0  0  0
   47.7320   35.8690   40.9800 H   0  0  0  0  0  0  0  0  0  0  0  0
   48.3660   34.7570   42.3990 H   0  0  0  0  0  0  0  0  0  0  0  0
   47.0090   32.8640   41.5490 H   0  0  0  0  0  0  0  0  0  0  0  0
   44.9690   34.6620   45.6510 C   0  0  0  0  0  0  0  0  0  0  0  0
   45.0420   35.1090   44.2870 C   0  0  0  0  0  0  0  0  0  0  0  0
   45.9800   34.4680   43.5470 C   0  0  0  0  0  0  0  0  0  0  0  0
   46.7940   33.4750   44.0600 N   0  0  0  0  0  0  0  0  0  0  0  0
   46.6840   33.0920   45.3470 C   0  0  0  0  0  0  0  0  0  0  0  0
   45.7660   33.6890   46.1470 N   0  0  0  0  0  0  0  0  0  0  0  0
   44.2290   35.1510   46.2720 H   0  0  0  0  0  0  0  0  0  0  0  0
   47.3720   32.3150   45.6170 H   0  0  0  0  0  0  0  0  0  0  0  0
   44.2360   36.1390   43.7800 N   0  0  0  0  0  0  0  0  0  0  0  0
   43.4880   35.4790   43.4980 H   0  0  0  0  0  0  0  0  0  0  0  0
   44.9300   36.9050   44.0240 H   0  0  0  0  0  0  0  0  0  0  0  0
   46.2650   33.8500   39.7320 C   0  0  0  0  0  0  0  0  0  0  0  0
   45.9440   34.8880   39.4920 H   0  0  0  0  0  0  0  0  0  0  0  0
   45.3900   33.1570   39.6680 H   0  0  0  0  0  0  0  0  0  0  0  0
   47.5120   31.9990   38.6860 C   0  0  0  0  0  0  0  0  0  0  0  0
   47.3080   33.3560   38.8270 C   0  0  0  0  0  0  0  0  0  0  0  0
   48.0810   34.2490   38.1180 C   0  0  0  0  0  0  0  0  0  0  0  0
   47.8770   35.3200   38.2680 H   0  0  0  0  0  0  0  0  0  0  0  0
   49.0550   33.7800   37.2700 C   0  0  0  0  0  0  0  0  0  0  0  0
   49.6200   34.5570   36.7480 H   0  0  0  0  0  0  0  0  0  0  0  0
   49.2840   32.4290   37.1060 C   0  0  0  0  0  3  0  0  0  0  0  0
   48.5020   31.5800   37.8220 C   0  0  0  0  0  3  0  0  0  0  0  0
   45.6430   30.3860   39.1500 N   0  0  0  0  0  0  0  0  0  0  0  0
   46.7700   30.9630   39.3730 C   0  0  0  0  0  0  0  0  0  0  0  0
   47.2910   30.3730   40.5650 N   0  0  0  0  0  0  0  0  0  0  0  0
   45.2700   29.6460   39.7730 H   0  0  0  0  0  0  0  0  0  0  0  0
   46.8960   30.7930   41.4460 H   0  0  0  0  0  0  0  0  0  0  0  0
   47.9950   29.6050   40.5190 H   0  0  0  0  0  0  0  0  0  0  0  0
  1  4  1  6  0  0  0
  1 10  1  0  0  0  0
  2  1  1  0  0  0  0
  2  6  1  0  0  0  0
  3  7  1  1  0  0  0
  3  2  1  0  0  0  0
  3  1  1  0  0  0  0
  5  2  1  0  0  0  0
  8 13  1  0  0  0  0
  8 14  1  0  0  0  0
  9  8  2  0  0  0  0
 10 11  2  0  0  0  0
 10  9  1  0  0  0  0
 11 12  1  0  0  0  0
 12 15  1  0  0  0  0
 12 13  2  0  0  0  0
 16 18  1  0  0  0  0
 16  9  1  0  0  0  0
 17 16  1  0  0  0  0
 19  3  1  0  0  0  0
 20 19  1  0  0  0  0
 21 19  1  0  0  0  0
 22 23  1  0  0  0  0
 22 31  1  0  0  0  0
 23 19  1  0  0  0  0
 24 25  1  0  0  0  0
 24 23  2  0  0  0  0
 26 24  1  0  0  0  0
 27 26  1  0  0  0  0
 28 26  2  0  0  0  0
 28 29  1  0  0  0  0
 29 22  2  0  0  0  0
 30 31  2  0  0  0  0
 30 33  1  0  0  0  0
 31 32  1  0  0  0  0
 32 34  1  0  0  0  0
 35 32  1  0  0  0  0
M  END
>  <minimizedAffinity>
-4.5159111

>  <minimizedRMSD>
2.7769618

$$$$
