
     RDKit          3D

 34 35  0  0  0  0  0  0  0  0999 V2000
   45.5281   33.8441   41.8855 O   0  0  0  0  0  0  0  0  0  0  0  0
   44.4083   35.9037   44.6926 C   0  0  0  0  0  0  0  0  0  0  0  0
   44.6463   35.5011   43.3583 C   0  0  0  0  0  0  0  0  0  0  0  0
   45.2765   34.2750   43.1855 C   0  0  0  0  0  0  0  0  0  0  0  0
   45.6327   33.5256   44.2690 N   0  0  0  0  0  0  0  0  0  0  0  0
   45.3777   33.9649   45.5317 C   0  0  0  0  0  0  0  0  0  0  0  0
   44.7744   35.1364   45.7445 N   0  0  0  0  0  0  0  0  0  0  0  0
   47.9680   32.8905   41.6116 O   0  0  0  0  0  0  0  0  0  0  0  0
   47.0813   34.0728   41.1962 P   0  0  1  0  0  0  0  0  0  0  0  0
   46.9498   34.2276   39.5460 O   0  0  0  0  0  0  0  0  0  0  0  0
   47.7460   35.4496   41.9024 O   0  0  0  0  0  0  0  0  0  0  0  0
   49.0053   35.7463   41.4093 C   0  0  0  0  0  0  0  0  0  0  0  0
   49.4499   37.0142   41.7658 F   0  0  0  0  0  0  0  0  0  0  0  0
   49.8921   34.7530   41.7602 F   0  0  0  0  0  0  0  0  0  0  0  0
   48.8937   35.7471   40.0224 F   0  0  0  0  0  0  0  0  0  0  0  0
   43.9162   36.8581   44.8926 H   0  0  0  0  0  0  0  0  0  0  0  0
   44.3331   36.1524   42.5667 H   0  0  0  0  0  0  0  0  0  0  0  0
   45.6695   33.3531   46.3734 H   0  0  0  0  0  0  0  0  0  0  0  0
   42.9971   33.4723   39.0559 N   0  0  0  0  0  0  0  0  0  0  0  0
   44.2153   33.4367   39.5085 C   0  0  0  0  0  0  0  0  0  0  0  0
   44.3938   34.1239   40.7411 N   0  0  0  0  0  0  0  0  0  0  0  0
   45.2144   32.7212   38.7239 C   0  0  0  0  0  0  0  0  0  0  0  0
   46.5332   33.1480   38.7780 C   0  0  0  0  0  0  0  0  0  0  0  0
   47.4095   32.4140   38.0053 C   0  0  0  0  0  0  0  0  0  0  0  0
   48.4718   32.6744   37.9826 H   0  0  0  0  0  0  0  0  0  0  0  0
   47.0720   31.3320   37.2184 C   0  0  0  0  0  0  0  0  0  0  0  0
   47.8087   30.7965   36.6335 H   0  0  0  0  0  0  0  0  0  0  0  0
   45.7453   30.9647   37.2131 C   0  0  0  0  0  0  0  0  0  0  0  0
   44.8025   31.6450   37.9577 C   0  0  0  0  0  0  0  0  0  0  0  0
   42.2356   33.9698   39.5730 H   0  0  0  0  0  0  0  0  0  0  0  0
   44.0974   33.3611   41.4113 H   0  0  0  0  0  0  0  0  0  0  0  0
   44.7140   35.0838   40.9962 H   0  0  0  0  0  0  0  0  0  0  0  0
   45.3928   30.1264   36.6232 H   0  0  0  0  0  0  0  0  0  0  0  0
   43.7680   31.3733   37.9653 H   0  0  0  0  0  0  0  0  0  0  0  0
  1  4  1  0
  2  7  2  0
  3  2  1  0
  4  3  2  0
  4  5  1  0
  5  6  2  0
  6  7  1  0
  9  8  2  0
  9  1  1  1
  9 11  1  0
 10  9  1  0
 12 14  1  0
 12 13  1  0
 12 11  1  0
 15 12  1  0
  2 16  1  0
  3 17  1  0
  6 18  1  0
 19 20  2  3
 20 21  1  0
 20 22  1  0
 22 23  2  0
 23 24  1  0
 24 25  1  0
 24 26  2  0
 26 27  1  0
 26 28  1  0
 28 29  2  0
 29 22  1  0
 19 30  1  0
 21 31  1  0
 21 32  1  0
 28 33  1  0
 29 34  1  0
 10 23  1  0
M  ISO  5  16  14  17  14  18  14  25  15  27  16
M  END
>  <DihAtoms>  (1) 
8,9,22,21

>  <DihDeg>  (1) 
179.99868796735302

$$$$
