
 OpenBabel03242511103D

 48 52  0  0  1  0  0  0  0  0999 V2000
   39.6650   27.8290   40.6860 C   0  0  0  0  0  0  0  0  0  0  0  0
   40.9000   27.5920   41.2860 C   0  0  0  0  0  0  0  0  0  0  0  0
   41.0420   27.2620   42.6300 C   0  0  0  0  0  0  0  0  0  0  0  0
   39.9260   27.1590   43.4370 C   0  0  0  0  0  0  0  0  0  0  0  0
   38.7070   27.3830   42.8830 C   0  0  0  0  0  0  0  0  0  0  0  0
   37.5860   27.2790   43.6790 C   0  0  0  0  0  0  0  0  0  0  0  0
   36.3090   27.4910   43.1770 C   0  0  0  0  0  0  0  0  0  0  0  0
   36.2090   27.8160   41.8280 C   0  0  0  0  0  0  0  0  0  0  0  0
   37.3590   27.9130   41.0530 C   0  0  0  0  0  0  0  0  0  0  0  0
   38.6100   27.7060   41.5460 C   0  0  0  0  0  0  0  0  0  0  0  0
   41.8230   27.6520   40.7250 H   0  0  0  0  0  0  0  0  0  0  0  0
   42.0250   27.0860   43.0530 H   0  0  0  0  0  0  0  0  0  0  0  0
   40.0790   26.9030   44.4690 H   0  0  0  0  0  0  0  0  0  0  0  0
   37.7240   27.0210   44.7270 H   0  0  0  0  0  0  0  0  0  0  0  0
   35.5030   27.3820   43.8960 H   0  0  0  0  0  0  0  0  0  0  0  0
   35.1710   27.9550   41.5600 H   0  0  0  0  0  0  0  0  0  0  0  0
   36.7270   29.6130   39.5280 C   0  0  0  0  0  0  0  0  0  0  0  0
   36.9250   28.2330   39.7050 C   0  0  0  0  0  0  0  0  0  0  0  0
   36.7180   27.4660   38.5760 C   0  0  0  0  0  0  0  0  0  0  0  0
   36.9010   26.4060   38.8060 H   0  0  0  0  0  0  0  0  0  0  0  0
   36.3480   27.9880   37.3650 C   0  0  0  0  0  0  0  0  0  0  0  0
   36.2310   27.2360   36.5950 H   0  0  0  0  0  0  0  0  0  0  0  0
   36.1560   29.3420   37.2020 C   0  0  0  0  0  3  0  0  0  0  0  0
   36.3530   30.1350   38.3050 C   0  0  0  0  0  3  0  0  0  0  0  0
   37.9960   31.1340   40.9140 N   0  0  0  0  0  0  0  0  0  0  0  0
   36.8830   30.5980   40.5620 C   0  0  0  0  0  0  0  0  0  0  0  0
   35.7950   31.1000   41.3260 N   0  0  0  0  0  0  0  0  0  0  0  0
   38.0740   31.8410   41.6630 H   0  0  0  0  0  0  0  0  0  0  0  0
   35.2470   31.9790   41.0840 H   0  0  0  0  0  0  0  0  0  0  0  0
   35.4750   30.5980   42.2070 H   0  0  0  0  0  0  0  0  0  0  0  0
   39.6230   28.1620   39.3260 N   0  0  0  0  0  0  0  0  0  0  0  0
   38.9870   27.6360   38.6880 H   0  0  0  0  0  0  0  0  0  0  0  0
   39.9560   30.2950   37.9760 C   0  0  1  0  0  0  0  0  0  0  0  0
   40.6860   29.1760   37.2640 C   0  0  0  0  0  0  0  0  0  0  0  0
   40.4610   29.1880   38.7720 C   0  0  2  0  0  0  0  0  0  0  0  0
   38.9240   30.4020   37.5660 H   0  0  0  0  0  0  0  0  0  0  0  0
   40.1390   28.4380   36.6660 H   0  0  0  0  0  0  0  0  0  0  0  0
   41.7390   29.3500   36.9340 H   0  0  0  0  0  0  0  0  0  0  0  0
   41.3740   29.4150   39.3920 H   0  0  0  0  0  0  0  0  0  0  0  0
   40.7950   33.7550   39.0520 C   0  0  0  0  0  0  0  0  0  0  0  0
   41.8520   34.0730   38.1370 C   0  0  0  0  0  0  0  0  0  0  0  0
   42.2510   33.0900   37.1910 C   0  0  0  0  0  0  0  0  0  0  0  0
   41.6250   31.9130   37.1930 N   0  0  0  0  0  0  0  0  0  0  0  0
   40.6270   31.6340   38.0690 C   0  0  0  0  0  0  0  0  0  0  0  0
   40.2100   32.5550   39.0010 N   0  0  0  0  0  0  0  0  0  0  0  0
   40.5050   34.5170   39.7650 H   0  0  0  0  0  0  0  0  0  0  0  0
   42.3140   35.0340   38.1840 H   0  0  0  0  0  0  0  0  0  0  0  0
   43.0490   33.3400   36.5070 H   0  0  0  0  0  0  0  0  0  0  0  0
  1  2  2  0  0  0  0
  1 10  1  0  0  0  0
  2  3  1  0  0  0  0
  3 12  1  0  0  0  0
  3  4  2  0  0  0  0
  4 13  1  0  0  0  0
  5  4  1  0  0  0  0
  5  6  1  0  0  0  0
  6 14  1  0  0  0  0
  7  6  2  0  0  0  0
  7 15  1  0  0  0  0
  8  7  1  0  0  0  0
  9 10  1  0  0  0  0
  9  8  2  0  0  0  0
 10  5  2  0  0  0  0
 11  2  1  0  0  0  0
 16  8  1  0  0  0  0
 17 18  1  0  0  0  0
 17 26  1  0  0  0  0
 18  9  1  0  0  0  0
 19 20  1  0  0  0  0
 19 18  2  0  0  0  0
 21 19  1  0  0  0  0
 22 21  1  0  0  0  0
 23 21  2  0  0  0  0
 23 24  1  0  0  0  0
 24 17  2  0  0  0  0
 25 28  1  0  0  0  0
 26 25  2  0  0  0  0
 26 27  1  0  0  0  0
 27 30  1  0  0  0  0
 29 27  1  0  0  0  0
 31  1  1  0  0  0  0
 32 31  1  0  0  0  0
 33 36  1  6  0  0  0
 33 44  1  0  0  0  0
 33 35  1  0  0  0  0
 34 33  1  0  0  0  0
 34 35  1  0  0  0  0
 35 31  1  0  0  0  0
 35 39  1  1  0  0  0
 37 34  1  0  0  0  0
 38 34  1  0  0  0  0
 40 46  1  0  0  0  0
 41 47  1  0  0  0  0
 41 40  2  0  0  0  0
 42 43  2  0  0  0  0
 42 41  1  0  0  0  0
 43 44  1  0  0  0  0
 44 45  2  0  0  0  0
 45 40  1  0  0  0  0
 48 42  1  0  0  0  0
M  END
>  <minimizedAffinity>
-6.48385048

$$$$

 OpenBabel03242511103D

 48 52  0  0  1  0  0  0  0  0999 V2000
   39.7240   28.2970   40.5730 C   0  0  0  0  0  0  0  0  0  0  0  0
   41.0080   28.2830   41.1120 C   0  0  0  0  0  0  0  0  0  0  0  0
   41.2670   28.0180   42.4520 C   0  0  0  0  0  0  0  0  0  0  0  0
   40.2240   27.7530   43.3180 C   0  0  0  0  0  0  0  0  0  0  0  0
   38.9600   27.7580   42.8240 C   0  0  0  0  0  0  0  0  0  0  0  0
   37.9120   27.4910   43.6790 C   0  0  0  0  0  0  0  0  0  0  0  0
   36.5940   27.4750   43.2400 C   0  0  0  0  0  0  0  0  0  0  0  0
   36.3760   27.7420   41.8920 C   0  0  0  0  0  0  0  0  0  0  0  0
   37.4550   28.0080   41.0570 C   0  0  0  0  0  0  0  0  0  0  0  0
   38.7460   28.0250   41.4880 C   0  0  0  0  0  0  0  0  0  0  0  0
   41.8800   28.4810   40.5020 H   0  0  0  0  0  0  0  0  0  0  0  0
   42.2850   28.0180   42.8270 H   0  0  0  0  0  0  0  0  0  0  0  0
   40.4670   27.5540   44.3450 H   0  0  0  0  0  0  0  0  0  0  0  0
   38.1400   27.2880   44.7230 H   0  0  0  0  0  0  0  0  0  0  0  0
   35.8530   27.2540   44.0010 H   0  0  0  0  0  0  0  0  0  0  0  0
   35.3180   27.7010   41.6760 H   0  0  0  0  0  0  0  0  0  0  0  0
   36.5500   29.5560   39.5080 C   0  0  0  0  0  0  0  0  0  0  0  0
   36.9110   28.2150   39.7280 C   0  0  0  0  0  0  0  0  0  0  0  0
   36.7240   27.3780   38.6460 C   0  0  0  0  0  0  0  0  0  0  0  0
   37.0360   26.3570   38.9060 H   0  0  0  0  0  0  0  0  0  0  0  0
   36.2270   27.8000   37.4410 C   0  0  0  0  0  0  0  0  0  0  0  0
   36.1490   27.0040   36.7100 H   0  0  0  0  0  0  0  0  0  0  0  0
   35.8760   29.1160   37.2360 C   0  0  0  0  0  3  0  0  0  0  0  0
   36.0490   29.9770   38.2920 C   0  0  0  0  0  3  0  0  0  0  0  0
   35.7350   30.9350   41.3190 N   0  0  0  0  0  0  0  0  0  0  0  0
   36.6560   30.6000   40.4900 C   0  0  0  0  0  0  0  0  0  0  0  0
   37.8220   31.3960   40.6540 N   0  0  0  0  0  0  0  0  0  0  0  0
   35.8430   31.6930   42.0130 H   0  0  0  0  0  0  0  0  0  0  0  0
   38.6050   31.1780   41.3400 H   0  0  0  0  0  0  0  0  0  0  0  0
   37.9630   32.2750   40.0740 H   0  0  0  0  0  0  0  0  0  0  0  0
   39.5610   28.5820   39.2100 N   0  0  0  0  0  0  0  0  0  0  0  0
   38.6690   29.0070   38.8780 H   0  0  0  0  0  0  0  0  0  0  0  0
   41.0000   29.1890   37.1990 C   0  0  1  0  0  0  0  0  0  0  0  0
   40.1340   28.0090   36.8120 C   0  0  0  0  0  0  0  0  0  0  0  0
   40.5790   28.2730   38.2470 C   0  0  2  0  0  0  0  0  0  0  0  0
   40.4990   30.1430   36.9110 H   0  0  0  0  0  0  0  0  0  0  0  0
   39.0740   28.1440   36.5670 H   0  0  0  0  0  0  0  0  0  0  0  0
   40.6160   27.1330   36.3130 H   0  0  0  0  0  0  0  0  0  0  0  0
   41.3800   27.5830   38.6350 H   0  0  0  0  0  0  0  0  0  0  0  0
   44.6000   28.3080   36.8910 C   0  0  0  0  0  0  0  0  0  0  0  0
   45.0410   29.3010   35.9550 C   0  0  0  0  0  0  0  0  0  0  0  0
   44.0910   30.2290   35.4500 C   0  0  0  0  0  0  0  0  0  0  0  0
   42.8280   30.1400   35.8700 N   0  0  0  0  0  0  0  0  0  0  0  0
   42.4330   29.1930   36.7570 C   0  0  0  0  0  0  0  0  0  0  0  0
   43.3190   28.2740   37.2700 N   0  0  0  0  0  0  0  0  0  0  0  0
   45.3390   27.6100   37.2650 H   0  0  0  0  0  0  0  0  0  0  0  0
   46.0650   29.3210   35.6580 H   0  0  0  0  0  0  0  0  0  0  0  0
   44.4340   30.9720   34.7450 H   0  0  0  0  0  0  0  0  0  0  0  0
  1  2  2  0  0  0  0
  1 10  1  0  0  0  0
  2  3  1  0  0  0  0
  3 12  1  0  0  0  0
  3  4  2  0  0  0  0
  4 13  1  0  0  0  0
  5  4  1  0  0  0  0
  5  6  1  0  0  0  0
  6 14  1  0  0  0  0
  7  6  2  0  0  0  0
  7 15  1  0  0  0  0
  8  7  1  0  0  0  0
  9 10  1  0  0  0  0
  9  8  2  0  0  0  0
 10  5  2  0  0  0  0
 11  2  1  0  0  0  0
 16  8  1  0  0  0  0
 17 18  1  0  0  0  0
 17 26  1  0  0  0  0
 18  9  1  0  0  0  0
 19 20  1  0  0  0  0
 19 18  2  0  0  0  0
 21 19  1  0  0  0  0
 22 21  1  0  0  0  0
 23 21  2  0  0  0  0
 23 24  1  0  0  0  0
 24 17  2  0  0  0  0
 25 28  1  0  0  0  0
 26 27  1  0  0  0  0
 26 25  2  0  0  0  0
 27 29  1  0  0  0  0
 30 27  1  0  0  0  0
 31  1  1  0  0  0  0
 32 31  1  0  0  0  0
 33 36  1  6  0  0  0
 33 35  1  0  0  0  0
 34 33  1  0  0  0  0
 34 35  1  0  0  0  0
 35 39  1  1  0  0  0
 35 31  1  0  0  0  0
 37 34  1  0  0  0  0
 38 34  1  0  0  0  0
 40 46  1  0  0  0  0
 40 45  1  0  0  0  0
 41 40  2  0  0  0  0
 42 43  2  0  0  0  0
 42 41  1  0  0  0  0
 43 44  1  0  0  0  0
 44 33  1  0  0  0  0
 44 45  2  0  0  0  0
 47 41  1  0  0  0  0
 48 42  1  0  0  0  0
M  END
>  <minimizedAffinity>
-6.41405964

$$$$

 OpenBabel03242511103D

 48 52  0  0  1  0  0  0  0  0999 V2000
   37.3310   26.8150   39.7770 C   0  0  0  0  0  0  0  0  0  0  0  0
   36.8710   25.5110   39.9380 C   0  0  0  0  0  0  0  0  0  0  0  0
   36.7920   24.8800   41.1760 C   0  0  0  0  0  0  0  0  0  0  0  0
   37.1800   25.5520   42.3190 C   0  0  0  0  0  0  0  0  0  0  0  0
   37.6310   26.8260   42.1960 C   0  0  0  0  0  0  0  0  0  0  0  0
   38.0180   27.5060   43.3310 C   0  0  0  0  0  0  0  0  0  0  0  0
   38.4860   28.8130   43.2780 C   0  0  0  0  0  0  0  0  0  0  0  0
   38.5480   29.4090   42.0230 C   0  0  0  0  0  0  0  0  0  0  0  0
   38.1510   28.6950   40.8980 C   0  0  0  0  0  0  0  0  0  0  0  0
   37.6940   27.4140   40.9500 C   0  0  0  0  0  0  0  0  0  0  0  0
   36.5480   24.9150   39.0950 H   0  0  0  0  0  0  0  0  0  0  0  0
   36.4270   23.8620   41.2530 H   0  0  0  0  0  0  0  0  0  0  0  0
   37.1030   25.0300   43.2550 H   0  0  0  0  0  0  0  0  0  0  0  0
   37.9480   26.9910   44.2860 H   0  0  0  0  0  0  0  0  0  0  0  0
   38.7610   29.2470   44.2340 H   0  0  0  0  0  0  0  0  0  0  0  0
   38.9250   30.4180   42.1140 H   0  0  0  0  0  0  0  0  0  0  0  0
   37.1440   30.3440   39.5260 C   0  0  0  0  0  0  0  0  0  0  0  0
   38.3050   29.5880   39.7640 C   0  0  0  0  0  0  0  0  0  0  0  0
   39.3620   29.8640   38.9200 C   0  0  0  0  0  0  0  0  0  0  0  0
   40.2230   29.2330   39.1820 H   0  0  0  0  0  0  0  0  0  0  0  0
   39.3070   30.8000   37.9210 C   0  0  0  0  0  0  0  0  0  0  0  0
   40.2310   30.8790   37.3610 H   0  0  0  0  0  0  0  0  0  0  0  0
   38.1660   31.5360   37.6960 C   0  0  0  0  0  3  0  0  0  0  0  0
   37.0930   31.2860   38.5170 C   0  0  0  0  0  3  0  0  0  0  0  0
   34.9570   29.4290   39.9960 N   0  0  0  0  0  0  0  0  0  0  0  0
   35.9250   30.2240   40.2760 C   0  0  0  0  0  0  0  0  0  0  0  0
   35.6510   30.9930   41.4390 N   0  0  0  0  0  0  0  0  0  0  0  0
   34.0920   29.3680   40.5570 H   0  0  0  0  0  0  0  0  0  0  0  0
   35.8590   30.6740   42.4320 H   0  0  0  0  0  0  0  0  0  0  0  0
   35.2080   31.9560   41.3600 H   0  0  0  0  0  0  0  0  0  0  0  0
   37.3820   27.3630   38.4880 N   0  0  0  0  0  0  0  0  0  0  0  0
   36.8940   28.2650   38.2940 H   0  0  0  0  0  0  0  0  0  0  0  0
   39.4450   26.9570   37.0520 C   0  0  1  0  0  0  0  0  0  0  0  0
   38.3580   27.5160   36.1580 C   0  0  0  0  0  0  0  0  0  0  0  0
   38.0600   26.7000   37.4100 C   0  0  2  0  0  0  0  0  0  0  0  0
   40.0870   27.7830   37.4370 H   0  0  0  0  0  0  0  0  0  0  0  0
   38.1160   28.5850   36.1670 H   0  0  0  0  0  0  0  0  0  0  0  0
   38.1480   27.0030   35.1880 H   0  0  0  0  0  0  0  0  0  0  0  0
   37.6990   25.6490   37.2230 H   0  0  0  0  0  0  0  0  0  0  0  0
   40.5210   23.5820   35.9190 C   0  0  0  0  0  0  0  0  0  0  0  0
   41.9030   23.8250   35.6260 C   0  0  0  0  0  0  0  0  0  0  0  0
   42.4180   25.1360   35.8130 C   0  0  0  0  0  0  0  0  0  0  0  0
   41.5940   26.0870   36.2540 N   0  0  0  0  0  0  0  0  0  0  0  0
   40.2890   25.8340   36.5260 C   0  0  0  0  0  0  0  0  0  0  0  0
   39.7500   24.5810   36.3580 N   0  0  0  0  0  0  0  0  0  0  0  0
   40.1470   22.5760   35.7700 H   0  0  0  0  0  0  0  0  0  0  0  0
   42.5120   23.0220   35.2750 H   0  0  0  0  0  0  0  0  0  0  0  0
   43.4610   25.3070   35.5880 H   0  0  0  0  0  0  0  0  0  0  0  0
  1  2  2  0  0  0  0
  1 10  1  0  0  0  0
  2  3  1  0  0  0  0
  3 12  1  0  0  0  0
  3  4  2  0  0  0  0
  4 13  1  0  0  0  0
  5  4  1  0  0  0  0
  5  6  1  0  0  0  0
  6 14  1  0  0  0  0
  7  6  2  0  0  0  0
  7 15  1  0  0  0  0
  8 16  1  0  0  0  0
  8  7  1  0  0  0  0
  9 10  1  0  0  0  0
  9  8  2  0  0  0  0
 10  5  2  0  0  0  0
 11  2  1  0  0  0  0
 17 18  1  0  0  0  0
 17 26  1  0  0  0  0
 18  9  1  0  0  0  0
 19 20  1  0  0  0  0
 19 18  2  0  0  0  0
 21 19  1  0  0  0  0
 22 21  1  0  0  0  0
 23 21  2  0  0  0  0
 23 24  1  0  0  0  0
 24 17  2  0  0  0  0
 25 26  2  0  0  0  0
 25 28  1  0  0  0  0
 26 27  1  0  0  0  0
 27 29  1  0  0  0  0
 30 27  1  0  0  0  0
 31  1  1  0  0  0  0
 32 31  1  0  0  0  0
 33 35  1  0  0  0  0
 33 36  1  1  0  0  0
 34 37  1  0  0  0  0
 34 33  1  0  0  0  0
 34 35  1  0  0  0  0
 35 39  1  6  0  0  0
 35 31  1  0  0  0  0
 38 34  1  0  0  0  0
 40 45  1  0  0  0  0
 41 42  1  0  0  0  0
 41 40  2  0  0  0  0
 42 43  2  0  0  0  0
 43 44  1  0  0  0  0
 44 33  1  0  0  0  0
 45 44  2  0  0  0  0
 46 40  1  0  0  0  0
 47 41  1  0  0  0  0
 48 42  1  0  0  0  0
M  END
>  <minimizedAffinity>
-6.38037109

$$$$

 OpenBabel03242511103D

 48 52  0  0  1  0  0  0  0  0999 V2000
   37.2280   26.6540   39.6590 C   0  0  0  0  0  0  0  0  0  0  0  0
   36.7870   25.3380   39.7740 C   0  0  0  0  0  0  0  0  0  0  0  0
   36.6920   24.6720   40.9920 C   0  0  0  0  0  0  0  0  0  0  0  0
   37.0460   25.3170   42.1610 C   0  0  0  0  0  0  0  0  0  0  0  0
   37.4790   26.6010   42.0830 C   0  0  0  0  0  0  0  0  0  0  0  0
   37.8310   27.2550   43.2440 C   0  0  0  0  0  0  0  0  0  0  0  0
   38.2780   28.5700   43.2380 C   0  0  0  0  0  0  0  0  0  0  0  0
   38.3560   29.2020   42.0010 C   0  0  0  0  0  0  0  0  0  0  0  0
   37.9940   28.5140   40.8480 C   0  0  0  0  0  0  0  0  0  0  0  0
   37.5570   27.2250   40.8560 C   0  0  0  0  0  0  0  0  0  0  0  0
   36.4900   24.7620   38.9080 H   0  0  0  0  0  0  0  0  0  0  0  0
   36.3420   23.6460   41.0330 H   0  0  0  0  0  0  0  0  0  0  0  0
   36.9590   24.7670   43.0800 H   0  0  0  0  0  0  0  0  0  0  0  0
   37.7500   26.7120   44.1830 H   0  0  0  0  0  0  0  0  0  0  0  0
   38.5280   28.9810   44.2110 H   0  0  0  0  0  0  0  0  0  0  0  0
   38.7150   30.2140   42.1280 H   0  0  0  0  0  0  0  0  0  0  0  0
   37.0540   30.3020   39.6100 C   0  0  0  0  0  0  0  0  0  0  0  0
   38.1570   29.4400   39.7430 C   0  0  0  0  0  0  0  0  0  0  0  0
   39.1810   29.6640   38.8460 C   0  0  0  0  0  0  0  0  0  0  0  0
   39.9980   28.9520   39.0270 H   0  0  0  0  0  0  0  0  0  0  0  0
   39.1480   30.6460   37.8900 C   0  0  0  0  0  0  0  0  0  0  0  0
   40.0400   30.6720   37.2760 H   0  0  0  0  0  0  0  0  0  0  0  0
   38.0630   31.4840   37.7680 C   0  0  0  0  0  3  0  0  0  0  0  0
   37.0250   31.2900   38.6450 C   0  0  0  0  0  3  0  0  0  0  0  0
   35.6590   30.9870   41.4620 N   0  0  0  0  0  0  0  0  0  0  0  0
   35.8760   30.2520   40.4320 C   0  0  0  0  0  0  0  0  0  0  0  0
   34.7970   29.3610   40.1870 N   0  0  0  0  0  0  0  0  0  0  0  0
   34.8000   30.9250   42.0320 H   0  0  0  0  0  0  0  0  0  0  0  0
   33.9350   29.6050   39.6130 H   0  0  0  0  0  0  0  0  0  0  0  0
   34.8070   28.3750   40.5860 H   0  0  0  0  0  0  0  0  0  0  0  0
   37.2960   27.2390   38.3870 N   0  0  0  0  0  0  0  0  0  0  0  0
   38.1170   27.8320   38.1380 H   0  0  0  0  0  0  0  0  0  0  0  0
   36.4040   27.3600   36.0050 C   0  0  1  0  0  0  0  0  0  0  0  0
   35.6120   28.3360   36.8490 C   0  0  0  0  0  0  0  0  0  0  0  0
   36.2470   27.0740   37.4210 C   0  0  2  0  0  0  0  0  0  0  0  0
   37.2670   27.8810   35.5250 H   0  0  0  0  0  0  0  0  0  0  0  0
   36.0360   29.3050   37.1380 H   0  0  0  0  0  0  0  0  0  0  0  0
   34.4970   28.3230   36.7760 H   0  0  0  0  0  0  0  0  0  0  0  0
   35.5260   26.2440   37.6690 H   0  0  0  0  0  0  0  0  0  0  0  0
   33.7710   26.1620   33.6680 C   0  0  0  0  0  0  0  0  0  0  0  0
   34.3510   24.9310   33.2170 C   0  0  0  0  0  0  0  0  0  0  0  0
   35.6270   24.5570   33.7180 C   0  0  0  0  0  0  0  0  0  0  0  0
   36.2330   25.3670   34.5860 N   0  0  0  0  0  0  0  0  0  0  0  0
   35.6660   26.5280   34.9990 C   0  0  0  0  0  0  0  0  0  0  0  0
   34.4330   26.9280   34.5400 N   0  0  0  0  0  0  0  0  0  0  0  0
   32.7980   26.4300   33.2750 H   0  0  0  0  0  0  0  0  0  0  0  0
   33.8160   24.3250   32.5210 H   0  0  0  0  0  0  0  0  0  0  0  0
   36.0550   23.6270   33.3710 H   0  0  0  0  0  0  0  0  0  0  0  0
  1  2  2  0  0  0  0
  1 10  1  0  0  0  0
  2  3  1  0  0  0  0
  3 12  1  0  0  0  0
  3  4  2  0  0  0  0
  4 13  1  0  0  0  0
  5  4  1  0  0  0  0
  5  6  1  0  0  0  0
  6 14  1  0  0  0  0
  7  6  2  0  0  0  0
  7 15  1  0  0  0  0
  8 16  1  0  0  0  0
  8  7  1  0  0  0  0
  9 10  1  0  0  0  0
  9  8  2  0  0  0  0
 10  5  2  0  0  0  0
 11  2  1  0  0  0  0
 17 18  1  0  0  0  0
 17 26  1  0  0  0  0
 18  9  1  0  0  0  0
 19 20  1  0  0  0  0
 19 18  2  0  0  0  0
 21 19  1  0  0  0  0
 22 21  1  0  0  0  0
 23 21  2  0  0  0  0
 23 24  1  0  0  0  0
 24 17  2  0  0  0  0
 25 28  1  0  0  0  0
 26 25  2  0  0  0  0
 27 26  1  0  0  0  0
 27 30  1  0  0  0  0
 29 27  1  0  0  0  0
 31  1  1  0  0  0  0
 32 31  1  0  0  0  0
 33 36  1  6  0  0  0
 33 34  1  0  0  0  0
 33 35  1  0  0  0  0
 34 37  1  0  0  0  0
 34 35  1  0  0  0  0
 35 39  1  1  0  0  0
 35 31  1  0  0  0  0
 38 34  1  0  0  0  0
 40 45  1  0  0  0  0
 41 40  2  0  0  0  0
 41 42  1  0  0  0  0
 42 43  2  0  0  0  0
 43 44  1  0  0  0  0
 44 33  1  0  0  0  0
 45 44  2  0  0  0  0
 46 40  1  0  0  0  0
 47 41  1  0  0  0  0
 48 42  1  0  0  0  0
M  END
>  <minimizedAffinity>
-6.35049915

$$$$

 OpenBabel03242511103D

 48 52  0  0  1  0  0  0  0  0999 V2000
   39.4970   27.0870   39.5480 C   0  0  0  0  0  0  0  0  0  0  0  0
   40.8850   27.0090   39.4600 C   0  0  0  0  0  0  0  0  0  0  0  0
   41.6440   26.1050   40.1960 C   0  0  0  0  0  0  0  0  0  0  0  0
   41.0230   25.2300   41.0650 C   0  0  0  0  0  0  0  0  0  0  0  0
   39.6710   25.2790   41.1740 C   0  0  0  0  0  0  0  0  0  0  0  0
   39.0410   24.4070   42.0360 C   0  0  0  0  0  0  0  0  0  0  0  0
   37.6610   24.4000   42.1930 C   0  0  0  0  0  0  0  0  0  0  0  0
   36.9370   25.3170   41.4380 C   0  0  0  0  0  0  0  0  0  0  0  0
   37.6030   26.1830   40.5770 C   0  0  0  0  0  0  0  0  0  0  0  0
   38.9560   26.1900   40.4260 C   0  0  0  0  0  0  0  0  0  0  0  0
   41.4480   27.6580   38.8030 H   0  0  0  0  0  0  0  0  0  0  0  0
   42.7230   26.0800   40.0950 H   0  0  0  0  0  0  0  0  0  0  0  0
   41.6450   24.5470   41.6150 H   0  0  0  0  0  0  0  0  0  0  0  0
   39.6560   23.7100   42.6010 H   0  0  0  0  0  0  0  0  0  0  0  0
   37.2770   23.6710   42.8990 H   0  0  0  0  0  0  0  0  0  0  0  0
   35.8820   25.2130   41.6470 H   0  0  0  0  0  0  0  0  0  0  0  0
   36.2310   28.1120   40.6820 C   0  0  0  0  0  0  0  0  0  0  0  0
   36.5840   26.9830   39.9230 C   0  0  0  0  0  0  0  0  0  0  0  0
   35.9420   26.8760   38.7050 C   0  0  0  0  0  0  0  0  0  0  0  0
   36.2820   25.9720   38.1820 H   0  0  0  0  0  0  0  0  0  0  0  0
   35.0270   27.7890   38.2510 C   0  0  0  0  0  0  0  0  0  0  0  0
   34.6260   27.5410   37.2760 H   0  0  0  0  0  0  0  0  0  0  0  0
   34.6870   28.8920   39.0020 C   0  0  0  0  0  3  0  0  0  0  0  0
   35.3070   29.0300   40.2200 C   0  0  0  0  0  3  0  0  0  0  0  0
   36.2680   28.0520   43.0980 N   0  0  0  0  0  0  0  0  0  0  0  0
   36.7700   28.4250   41.9770 C   0  0  0  0  0  0  0  0  0  0  0  0
   37.9450   29.2020   42.1610 N   0  0  0  0  0  0  0  0  0  0  0  0
   36.6810   28.2950   44.0130 H   0  0  0  0  0  0  0  0  0  0  0  0
   38.9230   28.7960   42.2620 H   0  0  0  0  0  0  0  0  0  0  0  0
   37.8910   30.2630   42.2090 H   0  0  0  0  0  0  0  0  0  0  0  0
   38.8190   28.0370   38.7720 N   0  0  0  0  0  0  0  0  0  0  0  0
   38.0440   27.7280   38.1460 H   0  0  0  0  0  0  0  0  0  0  0  0
   38.2330   30.5090   38.6010 C   0  0  1  0  0  0  0  0  0  0  0  0
   39.1640   30.1710   37.4560 C   0  0  0  0  0  0  0  0  0  0  0  0
   39.1840   29.4250   38.7860 C   0  0  2  0  0  0  0  0  0  0  0  0
   37.1710   30.4110   38.2730 H   0  0  0  0  0  0  0  0  0  0  0  0
   38.7980   29.6390   36.5700 H   0  0  0  0  0  0  0  0  0  0  0  0
   40.0410   30.8380   37.2660 H   0  0  0  0  0  0  0  0  0  0  0  0
   40.0600   29.6590   39.4540 H   0  0  0  0  0  0  0  0  0  0  0  0
   37.7030   33.9540   39.8980 C   0  0  0  0  0  0  0  0  0  0  0  0
   38.9210   34.1570   40.6270 C   0  0  0  0  0  0  0  0  0  0  0  0
   39.8770   33.1070   40.6600 C   0  0  0  0  0  0  0  0  0  0  0  0
   39.6020   31.9740   40.0130 N   0  0  0  0  0  0  0  0  0  0  0  0
   38.4430   31.8030   39.3290 C   0  0  0  0  0  0  0  0  0  0  0  0
   37.4900   32.7930   39.2710 N   0  0  0  0  0  0  0  0  0  0  0  0
   36.9870   34.7660   39.8840 H   0  0  0  0  0  0  0  0  0  0  0  0
   39.0840   35.0870   41.1240 H   0  0  0  0  0  0  0  0  0  0  0  0
   40.7910   33.2710   41.2120 H   0  0  0  0  0  0  0  0  0  0  0  0
  1 10  1  0  0  0  0
  2  1  2  0  0  0  0
  2  3  1  0  0  0  0
  3  4  2  0  0  0  0
  4  5  1  0  0  0  0
  4 13  1  0  0  0  0
  5  6  1  0  0  0  0
  6  7  2  0  0  0  0
  6 14  1  0  0  0  0
  7 15  1  0  0  0  0
  8 16  1  0  0  0  0
  8  7  1  0  0  0  0
  9  8  2  0  0  0  0
 10  9  1  0  0  0  0
 10  5  2  0  0  0  0
 11  2  1  0  0  0  0
 12  3  1  0  0  0  0
 17 26  1  0  0  0  0
 18  9  1  0  0  0  0
 18 17  2  0  0  0  0
 19 18  1  0  0  0  0
 20 19  1  0  0  0  0
 21 19  2  0  0  0  0
 21 23  1  0  0  0  0
 22 21  1  0  0  0  0
 23 24  2  0  0  0  0
 24 17  1  0  0  0  0
 25 28  1  0  0  0  0
 26 27  1  0  0  0  0
 26 25  2  0  0  0  0
 27 30  1  0  0  0  0
 27 29  1  0  0  0  0
 31 35  1  0  0  0  0
 31  1  1  0  0  0  0
 32 31  1  0  0  0  0
 33 36  1  6  0  0  0
 33 35  1  0  0  0  0
 33 44  1  0  0  0  0
 34 33  1  0  0  0  0
 34 35  1  0  0  0  0
 35 39  1  1  0  0  0
 37 34  1  0  0  0  0
 38 34  1  0  0  0  0
 40 41  1  0  0  0  0
 41 42  2  0  0  0  0
 41 47  1  0  0  0  0
 42 48  1  0  0  0  0
 43 42  1  0  0  0  0
 44 43  2  0  0  0  0
 45 44  1  0  0  0  0
 45 40  2  0  0  0  0
 46 40  1  0  0  0  0
M  END
>  <minimizedAffinity>
-6.11409092

$$$$

 OpenBabel03242511103D

 48 52  0  0  1  0  0  0  0  0999 V2000
   36.6990   26.9510   38.0580 C   0  0  0  0  0  0  0  0  0  0  0  0
   36.1050   25.7500   37.6770 C   0  0  0  0  0  0  0  0  0  0  0  0
   35.8820   24.6980   38.5600 C   0  0  0  0  0  0  0  0  0  0  0  0
   36.2550   24.8170   39.8840 C   0  0  0  0  0  0  0  0  0  0  0  0
   36.8360   25.9760   40.2880 C   0  0  0  0  0  0  0  0  0  0  0  0
   37.2100   26.1060   41.6090 C   0  0  0  0  0  0  0  0  0  0  0  0
   37.8040   27.2650   42.0910 C   0  0  0  0  0  0  0  0  0  0  0  0
   38.0080   28.2940   41.1780 C   0  0  0  0  0  0  0  0  0  0  0  0
   37.6200   28.1310   39.8530 C   0  0  0  0  0  0  0  0  0  0  0  0
   37.0390   26.9940   39.3810 C   0  0  0  0  0  0  0  0  0  0  0  0
   35.7830   25.5750   36.6590 H   0  0  0  0  0  0  0  0  0  0  0  0
   35.4150   23.7810   38.2170 H   0  0  0  0  0  0  0  0  0  0  0  0
   36.0660   23.9820   40.5330 H   0  0  0  0  0  0  0  0  0  0  0  0
   37.0260   25.2690   42.2790 H   0  0  0  0  0  0  0  0  0  0  0  0
   38.0560   27.2530   43.1470 H   0  0  0  0  0  0  0  0  0  0  0  0
   38.4740   29.1350   41.6720 H   0  0  0  0  0  0  0  0  0  0  0  0
   36.9860   30.3750   39.4340 C   0  0  0  0  0  0  0  0  0  0  0  0
   37.9360   29.3720   39.1720 C   0  0  0  0  0  0  0  0  0  0  0  0
   38.9890   29.7640   38.3700 C   0  0  0  0  0  0  0  0  0  0  0  0
   39.6800   28.9220   38.2230 H   0  0  0  0  0  0  0  0  0  0  0  0
   39.1190   31.0290   37.8580 C   0  0  0  0  0  0  0  0  0  0  0  0
   40.0070   31.1530   37.2510 H   0  0  0  0  0  0  0  0  0  0  0  0
   38.1830   32.0040   38.1210 C   0  0  0  0  0  3  0  0  0  0  0  0
   37.1220   31.6480   38.9160 C   0  0  0  0  0  3  0  0  0  0  0  0
   34.7880   29.4880   39.9120 N   0  0  0  0  0  0  0  0  0  0  0  0
   35.8100   30.1930   40.2400 C   0  0  0  0  0  0  0  0  0  0  0  0
   35.6470   30.7890   41.5190 N   0  0  0  0  0  0  0  0  0  0  0  0
   33.9570   29.3790   40.5160 H   0  0  0  0  0  0  0  0  0  0  0  0
   35.8990   30.3160   42.4380 H   0  0  0  0  0  0  0  0  0  0  0  0
   35.2490   31.7700   41.6130 H   0  0  0  0  0  0  0  0  0  0  0  0
   36.8890   27.9510   37.0950 N   0  0  0  0  0  0  0  0  0  0  0  0
   37.8260   28.0650   36.6520 H   0  0  0  0  0  0  0  0  0  0  0  0
   34.7800   28.5120   35.7840 C   0  0  1  0  0  0  0  0  0  0  0  0
   35.8780   29.4440   35.3180 C   0  0  0  0  0  0  0  0  0  0  0  0
   35.8360   28.8530   36.7230 C   0  0  2  0  0  0  0  0  0  0  0  0
   34.7400   27.6090   35.1290 H   0  0  0  0  0  0  0  0  0  0  0  0
   36.6610   29.0940   34.6340 H   0  0  0  0  0  0  0  0  0  0  0  0
   35.6590   30.5370   35.2500 H   0  0  0  0  0  0  0  0  0  0  0  0
   35.5430   29.5730   37.5380 H   0  0  0  0  0  0  0  0  0  0  0  0
   31.6110   29.5960   37.4010 C   0  0  0  0  0  0  0  0  0  0  0  0
   30.8750   30.0650   36.2630 C   0  0  0  0  0  0  0  0  0  0  0  0
   31.4910   30.0070   34.9840 C   0  0  0  0  0  0  0  0  0  0  0  0
   32.7280   29.5170   34.8940 N   0  0  0  0  0  0  0  0  0  0  0  0
   33.4060   29.0780   35.9840 C   0  0  0  0  0  0  0  0  0  0  0  0
   32.8480   29.1180   37.2410 N   0  0  0  0  0  0  0  0  0  0  0  0
   31.1250   29.6490   38.3680 H   0  0  0  0  0  0  0  0  0  0  0  0
   29.8880   30.4450   36.4000 H   0  0  0  0  0  0  0  0  0  0  0  0
   30.9270   30.3630   34.1340 H   0  0  0  0  0  0  0  0  0  0  0  0
  1 10  1  0  0  0  0
  2  1  2  0  0  0  0
  2  3  1  0  0  0  0
  3  4  2  0  0  0  0
  4  5  1  0  0  0  0
  4 13  1  0  0  0  0
  5  6  1  0  0  0  0
  6  7  2  0  0  0  0
  6 14  1  0  0  0  0
  7 15  1  0  0  0  0
  8 16  1  0  0  0  0
  8  7  1  0  0  0  0
  9  8  2  0  0  0  0
 10  9  1  0  0  0  0
 10  5  2  0  0  0  0
 11  2  1  0  0  0  0
 12  3  1  0  0  0  0
 17 26  1  0  0  0  0
 18 17  1  0  0  0  0
 18  9  1  0  0  0  0
 19 18  2  0  0  0  0
 20 19  1  0  0  0  0
 21 23  2  0  0  0  0
 21 19  1  0  0  0  0
 22 21  1  0  0  0  0
 23 24  1  0  0  0  0
 24 17  2  0  0  0  0
 25 26  2  0  0  0  0
 25 28  1  0  0  0  0
 26 27  1  0  0  0  0
 27 30  1  0  0  0  0
 27 29  1  0  0  0  0
 31  1  1  0  0  0  0
 32 31  1  0  0  0  0
 33 36  1  6  0  0  0
 33 44  1  0  0  0  0
 33 35  1  0  0  0  0
 34 33  1  0  0  0  0
 34 35  1  0  0  0  0
 35 31  1  0  0  0  0
 35 39  1  1  0  0  0
 37 34  1  0  0  0  0
 38 34  1  0  0  0  0
 40 46  1  0  0  0  0
 41 47  1  0  0  0  0
 41 40  2  0  0  0  0
 42 41  1  0  0  0  0
 43 42  2  0  0  0  0
 43 44  1  0  0  0  0
 44 45  2  0  0  0  0
 45 40  1  0  0  0  0
 48 42  1  0  0  0  0
M  END
>  <minimizedAffinity>
-6.09666634

$$$$

 OpenBabel03242511103D

 48 52  0  0  1  0  0  0  0  0999 V2000
   40.1130   27.4860   40.8840 C   0  0  0  0  0  0  0  0  0  0  0  0
   41.4790   27.4290   41.1530 C   0  0  0  0  0  0  0  0  0  0  0  0
   42.0800   26.3620   41.8110 C   0  0  0  0  0  0  0  0  0  0  0  0
   41.3170   25.2920   42.2330 C   0  0  0  0  0  0  0  0  0  0  0  0
   39.9820   25.3150   41.9850 C   0  0  0  0  0  0  0  0  0  0  0  0
   39.2110   24.2500   42.3990 C   0  0  0  0  0  0  0  0  0  0  0  0
   37.8400   24.2070   42.1750 C   0  0  0  0  0  0  0  0  0  0  0  0
   37.2770   25.2920   41.5120 C   0  0  0  0  0  0  0  0  0  0  0  0
   38.0830   26.3510   41.1080 C   0  0  0  0  0  0  0  0  0  0  0  0
   39.4250   26.3930   41.3290 C   0  0  0  0  0  0  0  0  0  0  0  0
   42.1480   28.2260   40.8560 H   0  0  0  0  0  0  0  0  0  0  0  0
   43.1490   26.3610   41.9980 H   0  0  0  0  0  0  0  0  0  0  0  0
   41.8190   24.4870   42.7380 H   0  0  0  0  0  0  0  0  0  0  0  0
   39.7040   23.4280   42.9130 H   0  0  0  0  0  0  0  0  0  0  0  0
   37.3370   23.3200   42.5460 H   0  0  0  0  0  0  0  0  0  0  0  0
   36.2120   25.1400   41.3990 H   0  0  0  0  0  0  0  0  0  0  0  0
   36.6830   28.2510   41.3130 C   0  0  0  0  0  0  0  0  0  0  0  0
   37.2160   27.2970   40.4300 C   0  0  0  0  0  0  0  0  0  0  0  0
   36.8590   27.4640   39.1070 C   0  0  0  0  0  0  0  0  0  0  0  0
   37.3230   26.6800   38.4930 H   0  0  0  0  0  0  0  0  0  0  0  0
   36.0470   28.4760   38.6660 C   0  0  0  0  0  0  0  0  0  0  0  0
   35.8740   28.4490   37.5970 H   0  0  0  0  0  0  0  0  0  0  0  0
   35.5290   29.4060   39.5390 C   0  0  0  0  0  3  0  0  0  0  0  0
   35.8650   29.2700   40.8640 C   0  0  0  0  0  3  0  0  0  0  0  0
   36.2560   27.6020   43.6020 N   0  0  0  0  0  0  0  0  0  0  0  0
   36.9190   28.2720   42.7300 C   0  0  0  0  0  0  0  0  0  0  0  0
   37.9370   29.0570   43.3360 N   0  0  0  0  0  0  0  0  0  0  0  0
   36.4510   27.6400   44.6160 H   0  0  0  0  0  0  0  0  0  0  0  0
   38.9170   28.7040   43.5520 H   0  0  0  0  0  0  0  0  0  0  0  0
   37.7520   30.0670   43.6100 H   0  0  0  0  0  0  0  0  0  0  0  0
   39.5970   28.6080   40.2210 N   0  0  0  0  0  0  0  0  0  0  0  0
   38.6600   28.9780   40.4920 H   0  0  0  0  0  0  0  0  0  0  0  0
   39.9070   30.5140   38.5630 C   0  0  1  0  0  0  0  0  0  0  0  0
   39.6510   29.2480   37.7730 C   0  0  0  0  0  0  0  0  0  0  0  0
   40.3070   29.2460   39.1490 C   0  0  2  0  0  0  0  0  0  0  0  0
   38.9480   31.0560   38.7420 H   0  0  0  0  0  0  0  0  0  0  0  0
   38.6390   28.8370   37.6820 H   0  0  0  0  0  0  0  0  0  0  0  0
   40.3270   29.0060   36.9180 H   0  0  0  0  0  0  0  0  0  0  0  0
   41.4150   29.0420   39.1520 H   0  0  0  0  0  0  0  0  0  0  0  0
   43.0270   31.8280   37.0210 C   0  0  0  0  0  0  0  0  0  0  0  0
   42.8660   33.2350   37.2460 C   0  0  0  0  0  0  0  0  0  0  0  0
   41.6920   33.6880   37.9050 C   0  0  0  0  0  0  0  0  0  0  0  0
   40.7880   32.7870   38.2890 N   0  0  0  0  0  0  0  0  0  0  0  0
   40.9600   31.4590   38.0660 C   0  0  0  0  0  0  0  0  0  0  0  0
   42.0810   30.9780   37.4310 N   0  0  0  0  0  0  0  0  0  0  0  0
   43.9280   31.5010   36.5170 H   0  0  0  0  0  0  0  0  0  0  0  0
   43.6260   33.9070   36.9160 H   0  0  0  0  0  0  0  0  0  0  0  0
   41.5810   34.7500   38.0690 H   0  0  0  0  0  0  0  0  0  0  0  0
  1  2  2  0  0  0  0
  1 10  1  0  0  0  0
  2  3  1  0  0  0  0
  3 12  1  0  0  0  0
  3  4  2  0  0  0  0
  4 13  1  0  0  0  0
  5  4  1  0  0  0  0
  5  6  1  0  0  0  0
  6 14  1  0  0  0  0
  7  6  2  0  0  0  0
  7 15  1  0  0  0  0
  8  7  1  0  0  0  0
  9 10  1  0  0  0  0
  9  8  2  0  0  0  0
 10  5  2  0  0  0  0
 11  2  1  0  0  0  0
 16  8  1  0  0  0  0
 17 26  1  0  0  0  0
 18  9  1  0  0  0  0
 18 17  2  0  0  0  0
 19 18  1  0  0  0  0
 20 19  1  0  0  0  0
 21 19  2  0  0  0  0
 21 23  1  0  0  0  0
 22 21  1  0  0  0  0
 23 24  2  0  0  0  0
 24 17  1  0  0  0  0
 25 28  1  0  0  0  0
 26 27  1  0  0  0  0
 26 25  2  0  0  0  0
 27 29  1  0  0  0  0
 27 30  1  0  0  0  0
 31 32  1  0  0  0  0
 31  1  1  0  0  0  0
 33 36  1  1  0  0  0
 33 35  1  0  0  0  0
 34 33  1  0  0  0  0
 34 35  1  0  0  0  0
 35 39  1  6  0  0  0
 35 31  1  0  0  0  0
 37 34  1  0  0  0  0
 38 34  1  0  0  0  0
 40 41  2  0  0  0  0
 40 45  1  0  0  0  0
 41 42  1  0  0  0  0
 42 48  1  0  0  0  0
 42 43  2  0  0  0  0
 44 43  1  0  0  0  0
 44 33  1  0  0  0  0
 45 44  2  0  0  0  0
 46 40  1  0  0  0  0
 47 41  1  0  0  0  0
M  END
>  <minimizedAffinity>
-6.08669281

$$$$

 OpenBabel03242511103D

 48 52  0  0  1  0  0  0  0  0999 V2000
   39.7360   29.4620   39.5380 C   0  0  0  0  0  0  0  0  0  0  0  0
   40.6750   29.5580   38.5130 C   0  0  0  0  0  0  0  0  0  0  0  0
   40.7230   30.6260   37.6230 C   0  0  0  0  0  0  0  0  0  0  0  0
   39.8100   31.6560   37.7310 C   0  0  0  0  0  0  0  0  0  0  0  0
   38.8820   31.5940   38.7200 C   0  0  0  0  0  0  0  0  0  0  0  0
   37.9680   32.6200   38.8390 C   0  0  0  0  0  0  0  0  0  0  0  0
   36.9950   32.6220   39.8300 C   0  0  0  0  0  0  0  0  0  0  0  0
   36.9820   31.5390   40.7020 C   0  0  0  0  0  0  0  0  0  0  0  0
   37.9170   30.5200   40.5550 C   0  0  0  0  0  0  0  0  0  0  0  0
   38.8700   30.5180   39.5820 C   0  0  0  0  0  0  0  0  0  0  0  0
   41.4260   28.7940   38.3590 H   0  0  0  0  0  0  0  0  0  0  0  0
   41.4730   30.6570   36.8400 H   0  0  0  0  0  0  0  0  0  0  0  0
   39.8800   32.4620   37.0240 H   0  0  0  0  0  0  0  0  0  0  0  0
   38.0250   33.4420   38.1300 H   0  0  0  0  0  0  0  0  0  0  0  0
   36.3300   33.4800   39.8260 H   0  0  0  0  0  0  0  0  0  0  0  0
   36.1840   31.6570   41.4220 H   0  0  0  0  0  0  0  0  0  0  0  0
   36.6050   28.6960   41.3030 C   0  0  0  0  0  0  0  0  0  0  0  0
   37.6630   29.5660   41.6170 C   0  0  0  0  0  0  0  0  0  0  0  0
   38.2750   29.3230   42.8310 C   0  0  0  0  0  0  0  0  0  0  0  0
   39.0890   30.0440   42.9890 H   0  0  0  0  0  0  0  0  0  0  0  0
   37.8960   28.3160   43.6800 C   0  0  0  0  0  0  0  0  0  0  0  0
   38.4890   28.2770   44.5850 H   0  0  0  0  0  0  0  0  0  0  0  0
   36.8580   27.4690   43.3620 C   0  0  0  0  0  3  0  0  0  0  0  0
   36.2270   27.6820   42.1620 C   0  0  0  0  0  3  0  0  0  0  0  0
   36.1820   28.2920   38.9570 N   0  0  0  0  0  0  0  0  0  0  0  0
   35.8250   28.7620   40.0970 C   0  0  0  0  0  0  0  0  0  0  0  0
   34.5430   29.3700   40.0350 N   0  0  0  0  0  0  0  0  0  0  0  0
   35.5970   28.3570   38.1080 H   0  0  0  0  0  0  0  0  0  0  0  0
   33.6250   28.8480   40.1610 H   0  0  0  0  0  0  0  0  0  0  0  0
   34.4460   30.4130   39.8520 H   0  0  0  0  0  0  0  0  0  0  0  0
   39.7630   28.3440   40.3820 N   0  0  0  0  0  0  0  0  0  0  0  0
   40.0310   28.4620   41.3820 H   0  0  0  0  0  0  0  0  0  0  0  0
   39.1200   25.9100   40.7660 C   0  0  1  0  0  0  0  0  0  0  0  0
   40.4990   25.9340   40.1420 C   0  0  0  0  0  0  0  0  0  0  0  0
   39.4630   27.0250   39.8990 C   0  0  2  0  0  0  0  0  0  0  0  0
   39.2030   25.8850   41.8790 H   0  0  0  0  0  0  0  0  0  0  0  0
   41.3840   26.1850   40.7400 H   0  0  0  0  0  0  0  0  0  0  0  0
   40.7040   25.2630   39.2730 H   0  0  0  0  0  0  0  0  0  0  0  0
   38.9810   27.0110   38.8810 H   0  0  0  0  0  0  0  0  0  0  0  0
   36.1370   24.3340   39.2010 C   0  0  0  0  0  0  0  0  0  0  0  0
   36.3740   22.9530   39.5020 C   0  0  0  0  0  0  0  0  0  0  0  0
   37.5510   22.6050   40.2180 C   0  0  0  0  0  0  0  0  0  0  0  0
   38.3860   23.5770   40.5820 N   0  0  0  0  0  0  0  0  0  0  0  0
   38.1420   24.8790   40.2870 C   0  0  0  0  0  0  0  0  0  0  0  0
   37.0160   25.2600   39.5950 N   0  0  0  0  0  0  0  0  0  0  0  0
   35.2350   24.5800   38.6540 H   0  0  0  0  0  0  0  0  0  0  0  0
   35.6670   22.2200   39.1840 H   0  0  0  0  0  0  0  0  0  0  0  0
   37.7190   21.5600   40.4390 H   0  0  0  0  0  0  0  0  0  0  0  0
  1 10  1  0  0  0  0
  1 31  1  0  0  0  0
  2  1  2  0  0  0  0
  3  4  2  0  0  0  0
  3  2  1  0  0  0  0
  4  5  1  0  0  0  0
  5  6  2  0  0  0  0
  5 10  1  0  0  0  0
  6  7  1  0  0  0  0
  7  8  2  0  0  0  0
  8 16  1  0  0  0  0
  9  8  1  0  0  0  0
  9 18  1  0  0  0  0
 10  9  2  0  0  0  0
 11  2  1  0  0  0  0
 12  3  1  0  0  0  0
 13  4  1  0  0  0  0
 14  6  1  0  0  0  0
 15  7  1  0  0  0  0
 17 18  2  0  0  0  0
 17 24  1  0  0  0  0
 18 19  1  0  0  0  0
 19 20  1  0  0  0  0
 19 21  2  0  0  0  0
 21 22  1  0  0  0  0
 23 21  1  0  0  0  0
 24 23  2  0  0  0  0
 25 26  2  0  0  0  0
 26 17  1  0  0  0  0
 27 26  1  0  0  0  0
 27 29  1  0  0  0  0
 28 25  1  0  0  0  0
 30 27  1  0  0  0  0
 31 32  1  0  0  0  0
 33 36  1  1  0  0  0
 34 37  1  0  0  0  0
 34 33  1  0  0  0  0
 35 39  1  6  0  0  0
 35 34  1  0  0  0  0
 35 31  1  0  0  0  0
 35 33  1  0  0  0  0
 38 34  1  0  0  0  0
 40 41  2  0  0  0  0
 40 45  1  0  0  0  0
 41 42  1  0  0  0  0
 42 48  1  0  0  0  0
 42 43  2  0  0  0  0
 44 43  1  0  0  0  0
 44 33  1  0  0  0  0
 45 44  2  0  0  0  0
 46 40  1  0  0  0  0
 47 41  1  0  0  0  0
M  END
>  <minimizedAffinity>
-6.07585478

$$$$

 OpenBabel03242511103D

 48 52  0  0  1  0  0  0  0  0999 V2000
   39.3150   29.1770   39.3650 C   0  0  0  0  0  0  0  0  0  0  0  0
   40.6180   28.8520   39.7350 C   0  0  0  0  0  0  0  0  0  0  0  0
   41.5490   29.7980   40.1510 C   0  0  0  0  0  0  0  0  0  0  0  0
   41.1980   31.1320   40.2120 C   0  0  0  0  0  0  0  0  0  0  0  0
   39.9340   31.4820   39.8600 C   0  0  0  0  0  0  0  0  0  0  0  0
   39.5720   32.8120   39.9200 C   0  0  0  0  0  0  0  0  0  0  0  0
   38.2960   33.2390   39.5790 C   0  0  0  0  0  0  0  0  0  0  0  0
   37.3930   32.2630   39.1700 C   0  0  0  0  0  0  0  0  0  0  0  0
   37.7900   30.9310   39.1190 C   0  0  0  0  0  0  0  0  0  0  0  0
   39.0420   30.5130   39.4530 C   0  0  0  0  0  0  0  0  0  0  0  0
   40.9740   27.8300   39.7160 H   0  0  0  0  0  0  0  0  0  0  0  0
   42.5540   29.4970   40.4300 H   0  0  0  0  0  0  0  0  0  0  0  0
   41.9460   31.8310   40.5390 H   0  0  0  0  0  0  0  0  0  0  0  0
   40.3190   33.5320   40.2480 H   0  0  0  0  0  0  0  0  0  0  0  0
   38.1250   34.3070   39.6640 H   0  0  0  0  0  0  0  0  0  0  0  0
   36.4420   32.7190   38.9330 H   0  0  0  0  0  0  0  0  0  0  0  0
   35.8040   29.8150   39.7670 C   0  0  0  0  0  0  0  0  0  0  0  0
   36.6330   30.1690   38.6890 C   0  0  0  0  0  0  0  0  0  0  0  0
   36.1760   29.7710   37.4490 C   0  0  0  0  0  0  0  0  0  0  0  0
   36.8820   30.0930   36.6700 H   0  0  0  0  0  0  0  0  0  0  0  0
   35.0060   29.0830   37.2590 C   0  0  0  0  0  0  0  0  0  0  0  0
   34.8100   28.8560   36.2190 H   0  0  0  0  0  0  0  0  0  0  0  0
   34.2000   28.7420   38.3220 C   0  0  0  0  0  3  0  0  0  0  0  0
   34.6250   29.1220   39.5720 C   0  0  0  0  0  3  0  0  0  0  0  0
   36.6720   29.3410   41.9730 N   0  0  0  0  0  0  0  0  0  0  0  0
   36.0800   30.1220   41.1440 C   0  0  0  0  0  0  0  0  0  0  0  0
   35.7180   31.3550   41.7520 N   0  0  0  0  0  0  0  0  0  0  0  0
   36.8550   29.5930   42.9580 H   0  0  0  0  0  0  0  0  0  0  0  0
   36.3590   32.2010   41.8190 H   0  0  0  0  0  0  0  0  0  0  0  0
   34.7550   31.4840   42.1810 H   0  0  0  0  0  0  0  0  0  0  0  0
   38.4500   28.1550   38.9520 N   0  0  0  0  0  0  0  0  0  0  0  0
   37.7470   28.3480   38.2070 H   0  0  0  0  0  0  0  0  0  0  0  0
   37.4850   25.8230   39.2930 C   0  0  1  0  0  0  0  0  0  0  0  0
   37.4380   26.5450   40.6230 C   0  0  0  0  0  0  0  0  0  0  0  0
   38.4800   26.8510   39.5520 C   0  0  2  0  0  0  0  0  0  0  0  0
   36.5190   25.9570   38.7500 H   0  0  0  0  0  0  0  0  0  0  0  0
   36.6700   27.3000   40.8270 H   0  0  0  0  0  0  0  0  0  0  0  0
   37.8220   26.0180   41.5300 H   0  0  0  0  0  0  0  0  0  0  0  0
   39.5180   26.4740   39.7720 H   0  0  0  0  0  0  0  0  0  0  0  0
   38.0080   22.2930   40.3380 C   0  0  0  0  0  0  0  0  0  0  0  0
   38.7470   21.7870   39.2170 C   0  0  0  0  0  0  0  0  0  0  0  0
   39.0300   22.6660   38.1370 C   0  0  0  0  0  0  0  0  0  0  0  0
   38.5980   23.9250   38.2100 N   0  0  0  0  0  0  0  0  0  0  0  0
   37.9010   24.3830   39.2810 C   0  0  0  0  0  0  0  0  0  0  0  0
   37.6050   23.5660   40.3470 N   0  0  0  0  0  0  0  0  0  0  0  0
   37.8020   21.6080   41.1520 H   0  0  0  0  0  0  0  0  0  0  0  0
   39.0660   20.7690   39.2180 H   0  0  0  0  0  0  0  0  0  0  0  0
   39.5860   22.2740   37.2980 H   0  0  0  0  0  0  0  0  0  0  0  0
  1 10  2  0  0  0  0
  1  2  1  0  0  0  0
  2  3  2  0  0  0  0
  3  4  1  0  0  0  0
  3 12  1  0  0  0  0
  4 13  1  0  0  0  0
  5  6  1  0  0  0  0
  5  4  2  0  0  0  0
  6 14  1  0  0  0  0
  7 15  1  0  0  0  0
  7  6  2  0  0  0  0
  8  7  1  0  0  0  0
  9  8  2  0  0  0  0
  9 10  1  0  0  0  0
 10  5  1  0  0  0  0
 11  2  1  0  0  0  0
 16  8  1  0  0  0  0
 17 26  1  0  0  0  0
 18  9  1  0  0  0  0
 18 17  2  0  0  0  0
 19 18  1  0  0  0  0
 20 19  1  0  0  0  0
 21 19  2  0  0  0  0
 21 23  1  0  0  0  0
 22 21  1  0  0  0  0
 23 24  2  0  0  0  0
 24 17  1  0  0  0  0
 25 28  1  0  0  0  0
 26 27  1  0  0  0  0
 26 25  2  0  0  0  0
 27 29  1  0  0  0  0
 27 30  1  0  0  0  0
 31  1  1  0  0  0  0
 31 35  1  0  0  0  0
 32 31  1  0  0  0  0
 33 36  1  6  0  0  0
 33 35  1  0  0  0  0
 33 34  1  0  0  0  0
 34 37  1  0  0  0  0
 34 38  1  0  0  0  0
 35 39  1  1  0  0  0
 35 34  1  0  0  0  0
 40 45  1  0  0  0  0
 40 46  1  0  0  0  0
 41 47  1  0  0  0  0
 41 40  2  0  0  0  0
 42 43  2  0  0  0  0
 42 41  1  0  0  0  0
 43 44  1  0  0  0  0
 44 33  1  0  0  0  0
 44 45  2  0  0  0  0
 48 42  1  0  0  0  0
M  END
>  <minimizedAffinity>
-6.03632879

$$$$
