
 OpenBabel03242516223D

 34 36  0  0  0  0  0  0  0  0999 V2000
   46.2180   32.1240   45.2080 C   0  0  0  0  0  0  0  0  0  0  0  0
   45.2250   32.5150   44.3410 C   0  0  0  0  0  0  0  0  0  0  0  0
   45.5150   32.9460   43.0650 C   0  0  0  0  0  0  0  0  0  0  0  0
   46.8240   32.9990   42.6110 C   0  0  0  0  0  0  0  0  0  0  0  0
   47.8270   32.6120   43.4650 C   0  0  0  0  0  0  0  0  0  0  0  0
   47.5140   32.1830   44.7390 C   0  0  0  0  0  0  0  0  0  0  0  0
   44.2000   32.4710   44.7040 H   0  0  0  0  0  0  0  0  0  0  0  0
   47.0600   33.3390   41.6040 H   0  0  0  0  0  0  0  0  0  0  0  0
   48.8730   32.6330   43.1600 H   0  0  0  0  0  0  0  0  0  0  0  0
   48.2990   31.8750   45.4220 H   0  0  0  0  0  0  0  0  0  0  0  0
   45.8930   32.1330   48.8510 C   0  0  0  0  0  0  0  0  0  0  0  0
   45.3400   30.8810   49.1410 C   0  0  0  0  0  0  0  0  0  0  0  0
   45.0750   30.0190   48.0620 C   0  0  0  0  0  0  0  0  0  0  0  0
   45.3610   30.4260   46.7870 N   0  0  0  0  0  0  0  0  0  0  0  0
   45.9040   31.6650   46.5640 C   0  0  0  0  0  0  0  0  0  0  0  0
   46.1700   32.5170   47.5890 N   0  0  0  0  0  0  0  0  0  0  0  0
   46.0800   32.7600   49.7150 H   0  0  0  0  0  0  0  0  0  0  0  0
   45.1150   30.5630   50.1600 H   0  0  0  0  0  0  0  0  0  0  0  0
   44.6460   29.0410   48.2450 H   0  0  0  0  0  0  0  0  0  0  0  0
   44.1670   33.4390   41.9940 S   0  0  0  0  0  0  0  0  0  0  0  0
   42.7960   31.5630   40.7130 C   0  0  0  0  0  0  0  0  0  0  0  0
   43.9530   32.2930   40.6520 C   0  0  0  0  0  0  0  0  0  0  0  0
   44.7960   32.0710   39.5970 C   0  0  0  0  0  0  0  0  0  0  0  0
   45.7050   32.6870   39.6060 H   0  0  0  0  0  0  0  0  0  0  0  0
   44.5120   31.1490   38.6180 C   0  0  0  0  0  0  0  0  0  0  0  0
   45.2290   31.0190   37.8030 H   0  0  0  0  0  0  0  0  0  0  0  0
   43.3480   30.4060   38.6690 C   0  0  0  0  0  3  0  0  0  0  0  0
   42.4840   30.6250   39.7370 C   0  0  0  0  0  3  0  0  0  0  0  0
   41.6270   31.0790   42.9040 N   0  0  0  0  0  0  0  0  0  0  0  0
   41.7890   31.6790   41.7730 C   0  0  0  0  0  0  0  0  0  0  0  0
   40.8020   32.6560   41.4660 N   0  0  0  0  0  0  0  0  0  0  0  0
   42.2570   30.3450   43.2720 H   0  0  0  0  0  0  0  0  0  0  0  0
   39.8930   32.3010   41.0950 H   0  0  0  0  0  0  0  0  0  0  0  0
   40.0800   33.3750   41.2420 H   0  0  0  0  0  0  0  0  0  0  0  0
  1 15  1  0  0  0  0
  2  7  1  0  0  0  0
  2  1  2  0  0  0  0
  3  2  1  0  0  0  0
  4  3  2  0  0  0  0
  4  5  1  0  0  0  0
  5  6  2  0  0  0  0
  6  1  1  0  0  0  0
  6 10  1  0  0  0  0
  8  4  1  0  0  0  0
  9  5  1  0  0  0  0
 11 12  1  0  0  0  0
 11 17  1  0  0  0  0
 12 18  1  0  0  0  0
 13 19  1  0  0  0  0
 13 12  2  0  0  0  0
 14 13  1  0  0  0  0
 15 14  2  0  0  0  0
 15 16  1  0  0  0  0
 16 11  2  0  0  0  0
 20  3  1  0  0  0  0
 21 30  1  0  0  0  0
 22 21  1  0  0  0  0
 22 20  1  0  0  0  0
 23 24  1  0  0  0  0
 23 22  2  0  0  0  0
 25 27  2  0  0  0  0
 25 23  1  0  0  0  0
 26 25  1  0  0  0  0
 27 28  1  0  0  0  0
 28 21  2  0  0  0  0
 29 32  1  0  0  0  0
 30 29  2  0  0  0  0
 31 30  1  0  0  0  0
 33 31  1  0  0  0  0
 34 31  1  0  0  0  0
M  END
>  <minimizedAffinity>
-4.01020098

>  <minimizedRMSD>
9.19944763

$$$$
