
     RDKit          3D

 36 38  0  0  0  0  0  0  0  0999 V2000
   46.0152   32.7536   47.0580 C   0  0  0  0  0  0  0  0  0  0  0  0
   47.2636   32.4096   47.5193 C   0  0  0  0  0  0  0  0  0  0  0  0
   47.4235   31.6177   48.6364 C   0  0  0  0  0  0  0  0  0  0  0  0
   46.3243   31.1411   49.3332 C   0  0  0  0  0  0  0  0  0  0  0  0
   45.0699   31.4757   48.8854 C   0  0  0  0  0  0  0  0  0  0  0  0
   44.9342   32.2705   47.7637 C   0  0  0  0  0  0  0  0  0  0  0  0
   44.7175   35.3587   44.8411 C   0  0  0  0  0  0  0  0  0  0  0  0
   45.4841   35.2202   43.6775 C   0  0  0  0  0  0  0  0  0  0  0  0
   46.4639   34.2121   43.6581 C   0  0  0  0  0  0  0  0  0  0  0  0
   46.6334   33.4137   44.7567 N   0  0  0  0  0  0  0  0  0  0  0  0
   45.8523   33.5961   45.8694 C   0  0  0  0  0  0  0  0  0  0  0  0
   44.8977   34.5635   45.9144 N   0  0  0  0  0  0  0  0  0  0  0  0
   49.0814   31.2124   49.1759 S   0  0  0  0  0  0  0  0  0  0  0  0
   48.1218   32.7878   46.9667 H   0  0  0  0  0  0  0  0  0  0  0  0
   46.4422   30.5152   50.2163 H   0  0  0  0  0  0  0  0  0  0  0  0
   44.1715   31.1283   49.3952 H   0  0  0  0  0  0  0  0  0  0  0  0
   43.9478   32.5414   47.4006 H   0  0  0  0  0  0  0  0  0  0  0  0
   43.9775   36.1479   44.8066 H   0  0  0  0  0  0  0  0  0  0  0  0
   45.3431   35.8602   42.8065 H   0  0  0  0  0  0  0  0  0  0  0  0
   47.0779   34.0732   42.7756 H   0  0  0  0  0  0  0  0  0  0  0  0
   47.6056   27.3731   48.6879 N   0  0  0  0  0  0  0  0  0  0  0  0
   48.3818   28.3298   49.0730 C   0  0  0  0  0  0  0  0  0  0  0  0
   49.0700   29.0028   48.0259 N   0  0  0  0  0  0  0  0  0  0  0  0
   48.7120   28.8824   50.3925 C   0  0  0  0  0  0  0  0  0  0  0  0
   49.0569   30.1862   50.6284 C   0  0  0  0  0  0  0  0  0  0  0  0
   49.3378   30.5511   51.9161 C   0  0  0  0  0  0  0  0  0  0  0  0
   49.6075   31.6092   52.0395 H   0  0  0  0  0  0  0  0  0  0  0  0
   49.2822   29.6548   52.9575 C   0  0  0  0  0  0  0  0  0  0  0  0
   49.5188   30.0124   53.9636 H   0  0  0  0  0  0  0  0  0  0  0  0
   48.9353   28.3373   52.7310 C   0  0  0  0  0  0  0  0  0  0  0  0
   48.6477   27.9560   51.4243 C   0  0  0  0  0  0  0  0  0  0  0  0
   47.0371   26.7886   49.3261 H   0  0  0  0  0  0  0  0  0  0  0  0
   49.9202   28.5287   47.6470 H   0  0  0  0  0  0  0  0  0  0  0  0
   49.5737   29.4979   47.2581 H   0  0  0  0  0  0  0  0  0  0  0  0
   48.8889   27.6249   53.5445 H   0  0  0  0  0  0  0  0  0  0  0  0
   48.3810   26.9282   51.2726 H   0  0  0  0  0  0  0  0  0  0  0  0
  1  2  2  0
  1  6  1  0
  2  3  1  0
  3 13  1  0
  3  4  2  0
  5  4  1  0
  6  5  2  0
  7 12  2  0
  8  7  1  0
  9  8  2  0
  9 10  1  0
 10 11  2  0
 11 12  1  0
 11  1  1  0
  2 14  1  0
  4 15  1  0
  5 16  1  0
  6 17  1  0
  7 18  1  0
  8 19  1  0
  9 20  1  0
 21 22  2  3
 22 23  1  0
 22 24  1  0
 24 25  2  0
 25 26  1  0
 26 27  1  0
 26 28  2  0
 28 29  1  0
 28 30  1  0
 30 31  2  0
 31 24  1  0
 21 32  1  0
 23 33  1  0
 23 34  1  0
 30 35  1  0
 31 36  1  0
 13 25  1  0
M  ISO  8  14  14  15  14  16  14  17  14  18  14  19  14  20  14  27  15
M  ISO  1  29  16
M  END
>  <DihAtoms>  (1) 
2,12,24,23

>  <DihDeg>  (1) 
89.99476780650588

$$$$
