
 OpenBabel03242515563D

 42 45  0  0  0  0  0  0  0  0999 V2000
   45.9890   32.7170   46.6810 C   0  0  0  0  0  0  0  0  0  0  0  0
   45.4780   32.9310   47.9890 C   0  0  0  0  0  0  0  0  0  0  0  0
   45.6480   32.0490   49.0270 C   0  0  0  0  0  0  0  0  0  0  0  0
   46.3300   30.9040   48.8440 C   0  0  0  0  0  0  0  0  0  0  0  0
   46.8580   30.6330   47.5780 C   0  0  0  0  0  0  0  0  0  0  0  0
   47.5410   29.4620   47.4340 C   0  0  0  0  0  0  0  0  0  0  0  0
   48.0800   29.1410   46.2220 C   0  0  0  0  0  0  0  0  0  0  0  0
   47.8940   30.0480   45.1840 C   0  0  0  0  0  0  0  0  0  0  0  0
   47.2050   31.1840   45.4090 C   0  0  0  0  0  0  0  0  0  0  0  0
   46.6670   31.5360   46.5700 C   0  0  0  0  0  0  0  0  0  0  0  0
   44.9240   33.8340   48.1880 H   0  0  0  0  0  0  0  0  0  0  0  0
   45.2280   32.2850   49.9930 H   0  0  0  0  0  0  0  0  0  0  0  0
   46.4530   30.2230   49.6750 H   0  0  0  0  0  0  0  0  0  0  0  0
   47.6520   28.7840   48.3020 H   0  0  0  0  0  0  0  0  0  0  0  0
   48.6160   28.1750   46.2000 H   0  0  0  0  0  0  0  0  0  0  0  0
   48.4060   29.6260   44.3110 H   0  0  0  0  0  0  0  0  0  0  0  0
   44.4700   35.5710   45.1150 C   0  0  0  0  0  0  0  0  0  0  0  0
   45.1870   35.6820   43.8860 C   0  0  0  0  0  0  0  0  0  0  0  0
   46.2130   34.7440   43.5940 C   0  0  0  0  0  0  0  0  0  0  0  0
   46.4360   33.8040   44.5190 N   0  0  0  0  0  0  0  0  0  0  0  0
   45.8020   33.6840   45.6360 C   0  0  0  0  0  0  0  0  0  0  0  0
   44.8240   34.5800   45.9080 N   0  0  0  0  0  0  0  0  0  0  0  0
   43.6890   36.2860   45.3330 H   0  0  0  0  0  0  0  0  0  0  0  0
   46.7130   34.8770   42.6620 H   0  0  0  0  0  0  0  0  0  0  0  0
   44.7960   36.7560   43.0430 N   0  0  0  0  0  0  0  0  0  0  0  0
   45.3290   37.6020   43.3670 H   0  0  0  0  0  0  0  0  0  0  0  0
   44.1240   36.7800   42.2440 H   0  0  0  0  0  0  0  0  0  0  0  0
   47.1810   31.8620   44.2200 O   0  0  0  0  0  0  0  0  0  0  0  0
   46.2150   30.8430   42.3080 C   0  0  0  0  0  0  0  0  0  0  0  0
   47.3610   31.3170   42.9510 C   0  0  0  0  0  0  0  0  0  0  0  0
   48.5570   31.2060   42.2770 C   0  0  0  0  0  0  0  0  0  0  0  0
   49.4250   31.5770   42.7910 H   0  0  0  0  0  0  0  0  0  0  0  0
   48.6280   30.6510   41.0180 C   0  0  0  0  0  0  0  0  0  0  0  0
   49.6070   30.5910   40.5350 H   0  0  0  0  0  0  0  0  0  0  0  0
   47.4940   30.1850   40.3860 C   0  0  0  0  0  3  0  0  0  0  0  0
   46.2820   30.2900   41.0510 C   0  0  0  0  0  3  0  0  0  0  0  0
   44.0510   29.9000   43.1110 N   0  0  0  0  0  0  0  0  0  0  0  0
   44.8460   30.8780   42.8200 C   0  0  0  0  0  0  0  0  0  0  0  0
   44.0640   32.0200   43.1210 N   0  0  0  0  0  0  0  0  0  0  0  0
   44.4160   28.9410   42.9680 H   0  0  0  0  0  0  0  0  0  0  0  0
   43.7440   32.5680   43.9490 H   0  0  0  0  0  0  0  0  0  0  0  0
   43.7140   32.4120   42.2030 H   0  0  0  0  0  0  0  0  0  0  0  0
  1  2  1  0  0  0  0
  2 11  1  0  0  0  0
  2  3  2  0  0  0  0
  3 12  1  0  0  0  0
  4  3  1  0  0  0  0
  4 13  1  0  0  0  0
  5  4  2  0  0  0  0
  6  5  1  0  0  0  0
  6 14  1  0  0  0  0
  7  6  2  0  0  0  0
  8  9  2  0  0  0  0
  8  7  1  0  0  0  0
  9 10  1  0  0  0  0
 10  1  2  0  0  0  0
 10  5  1  0  0  0  0
 15  7  1  0  0  0  0
 16  8  1  0  0  0  0
 17 23  1  0  0  0  0
 17 22  1  0  0  0  0
 18 17  2  0  0  0  0
 19 18  1  0  0  0  0
 19 20  2  0  0  0  0
 20 21  1  0  0  0  0
 21 22  2  0  0  0  0
 21  1  1  0  0  0  0
 24 19  1  0  0  0  0
 25 26  1  0  0  0  0
 25 18  1  0  0  0  0
 27 25  1  0  0  0  0
 28  9  1  0  0  0  0
 29 38  1  0  0  0  0
 29 30  1  0  0  0  0
 30 28  1  0  0  0  0
 31 32  1  0  0  0  0
 31 30  2  0  0  0  0
 33 31  1  0  0  0  0
 34 33  1  0  0  0  0
 35 33  2  0  0  0  0
 35 36  1  0  0  0  0
 36 29  2  0  0  0  0
 38 37  2  0  0  0  0
 38 39  1  0  0  0  0
 39 41  1  0  0  0  0
 40 37  1  0  0  0  0
 42 39  1  0  0  0  0
M  END
>  <minimizedAffinity>
-5.88984013

>  <minimizedRMSD>
1.11160302

$$$$
