
 OpenBabel03252500393D

 26 27  0  0  0  0  0  0  0  0999 V2000
   44.8340   34.1100   40.5730 C   0  0  0  0  0  0  0  0  0  0  0  0
   44.5220   35.0500   41.5360 C   0  0  0  0  0  0  0  0  0  0  0  0
   43.2180   35.4670   41.7040 C   0  0  0  0  0  0  0  0  0  0  0  0
   43.0190   36.2070   42.4710 H   0  0  0  0  0  0  0  0  0  0  0  0
   42.2030   34.9440   40.9000 C   0  0  0  0  0  0  0  0  0  0  0  0
   41.2190   35.3040   41.0750 H   0  0  0  0  0  0  0  0  0  0  0  0
   42.5530   33.9960   39.9360 C   0  0  0  0  0  3  0  0  0  0  0  0
   43.8600   33.5630   39.7520 C   0  0  0  0  0  3  0  0  0  0  0  0
   46.7430   32.5570   40.8190 N   0  0  0  0  0  0  0  0  0  0  0  0
   46.1930   33.5950   40.3120 C   0  0  0  0  0  0  0  0  0  0  0  0
   47.1970   34.1200   39.4510 N   0  0  0  0  0  0  0  0  0  0  0  0
   46.2070   31.9620   41.5100 H   0  0  0  0  0  0  0  0  0  0  0  0
   47.9340   34.8590   39.4550 H   0  0  0  0  0  0  0  0  0  0  0  0
   47.3850   33.7680   38.4850 H   0  0  0  0  0  0  0  0  0  0  0  0
   45.6300   35.5790   42.3670 C   0  0  0  0  0  0  0  0  0  0  0  0
   45.6050   36.6910   42.3480 H   0  0  0  0  0  0  0  0  0  0  0  0
   46.6170   35.2890   41.9880 H   0  0  0  0  0  0  0  0  0  0  0  0
   45.4390   35.0740   43.7710 C   0  0  0  0  0  0  0  0  0  0  0  0
   46.1050   33.8990   44.1110 C   0  0  0  0  0  0  0  0  0  0  0  0
   45.9530   33.3940   45.4100 C   0  0  0  0  0  0  0  0  0  0  0  0
   45.1500   34.1030   46.2600 N   0  0  0  0  0  0  0  0  0  0  0  0
   44.5200   35.2430   45.8860 C   0  0  0  0  0  0  0  0  0  0  0  0
   44.6610   35.7370   44.6350 N   0  0  0  0  0  0  0  0  0  0  0  0
   46.7220   33.4030   43.3710 H   0  0  0  0  0  0  0  0  0  0  0  0
   46.4520   32.4920   45.7060 H   0  0  0  0  0  0  0  0  0  0  0  0
   43.8980   35.7530   46.6130 H   0  0  0  0  0  0  0  0  0  0  0  0
  1  2  1  0  0  0  0
  2  3  2  0  0  0  0
  2 15  1  0  0  0  0
  3  4  1  0  0  0  0
  5  6  1  0  0  0  0
  5  3  1  0  0  0  0
  7  5  2  0  0  0  0
  8  7  1  0  0  0  0
  8  1  2  0  0  0  0
  9 12  1  0  0  0  0
 10  1  1  0  0  0  0
 10  9  2  0  0  0  0
 11 13  1  0  0  0  0
 11 10  1  0  0  0  0
 14 11  1  0  0  0  0
 15 18  1  0  0  0  0
 16 15  1  0  0  0  0
 17 15  1  0  0  0  0
 18 19  2  0  0  0  0
 18 23  1  0  0  0  0
 19 20  1  0  0  0  0
 20 25  1  0  0  0  0
 20 21  2  0  0  0  0
 22 21  1  0  0  0  0
 22 26  1  0  0  0  0
 23 22  2  0  0  0  0
 24 19  1  0  0  0  0
M  END
>  <minimizedAffinity>
-4.4345479

>  <minimizedRMSD>
1.37565446

$$$$
