
     RDKit          3D

 36 38  0  0  0  0  0  0  0  0999 V2000
   46.0152   32.7536   47.0580 C   0  0  0  0  0  0  0  0  0  0  0  0
   47.2636   32.4096   47.5193 C   0  0  0  0  0  0  0  0  0  0  0  0
   47.4235   31.6177   48.6364 C   0  0  0  0  0  0  0  0  0  0  0  0
   46.3243   31.1411   49.3332 C   0  0  0  0  0  0  0  0  0  0  0  0
   45.0699   31.4757   48.8854 C   0  0  0  0  0  0  0  0  0  0  0  0
   44.9342   32.2705   47.7637 C   0  0  0  0  0  0  0  0  0  0  0  0
   44.7175   35.3587   44.8411 C   0  0  0  0  0  0  0  0  0  0  0  0
   45.4841   35.2202   43.6775 C   0  0  0  0  0  0  0  0  0  0  0  0
   46.4639   34.2121   43.6581 C   0  0  0  0  0  0  0  0  0  0  0  0
   46.6334   33.4137   44.7567 N   0  0  0  0  0  0  0  0  0  0  0  0
   45.8523   33.5961   45.8694 C   0  0  0  0  0  0  0  0  0  0  0  0
   44.8977   34.5635   45.9144 N   0  0  0  0  0  0  0  0  0  0  0  0
   49.0814   31.2124   49.1759 S   0  0  0  0  0  0  0  0  0  0  0  0
   48.1218   32.7878   46.9667 H   0  0  0  0  0  0  0  0  0  0  0  0
   46.4422   30.5152   50.2163 H   0  0  0  0  0  0  0  0  0  0  0  0
   44.1715   31.1283   49.3952 H   0  0  0  0  0  0  0  0  0  0  0  0
   43.9478   32.5414   47.4006 H   0  0  0  0  0  0  0  0  0  0  0  0
   43.9775   36.1479   44.8066 H   0  0  0  0  0  0  0  0  0  0  0  0
   45.3431   35.8602   42.8065 H   0  0  0  0  0  0  0  0  0  0  0  0
   47.0779   34.0732   42.7756 H   0  0  0  0  0  0  0  0  0  0  0  0
   50.4466   27.3302   48.7055 N   0  0  0  0  0  0  0  0  0  0  0  0
   50.2869   28.5006   49.2258 C   0  0  0  0  0  0  0  0  0  0  0  0
   50.8171   29.5754   48.4600 N   0  0  0  0  0  0  0  0  0  0  0  0
   49.6598   28.9674   50.4686 C   0  0  0  0  0  0  0  0  0  0  0  0
   49.0569   30.1862   50.6284 C   0  0  0  0  0  0  0  0  0  0  0  0
   48.5161   30.4775   51.8503 C   0  0  0  0  0  0  0  0  0  0  0  0
   48.0475   31.4694   51.9144 H   0  0  0  0  0  0  0  0  0  0  0  0
   48.5639   29.5905   52.9000 C   0  0  0  0  0  0  0  0  0  0  0  0
   48.1118   29.8863   53.8509 H   0  0  0  0  0  0  0  0  0  0  0  0
   49.1696   28.3583   52.7498 C   0  0  0  0  0  0  0  0  0  0  0  0
   49.7228   28.0524   51.5106 C   0  0  0  0  0  0  0  0  0  0  0  0
   50.1182   26.4484   49.1377 H   0  0  0  0  0  0  0  0  0  0  0  0
   51.8468   29.7355   48.5320 H   0  0  0  0  0  0  0  0  0  0  0  0
   51.2043   30.3643   47.8977 H   0  0  0  0  0  0  0  0  0  0  0  0
   49.2119   27.6539   53.5704 H   0  0  0  0  0  0  0  0  0  0  0  0
   50.1878   27.0903   51.4175 H   0  0  0  0  0  0  0  0  0  0  0  0
  1  2  2  0
  1  6  1  0
  2  3  1  0
  3 13  1  0
  3  4  2  0
  5  4  1  0
  6  5  2  0
  7 12  2  0
  8  7  1  0
  9  8  2  0
  9 10  1  0
 10 11  2  0
 11 12  1  0
 11  1  1  0
  2 14  1  0
  4 15  1  0
  5 16  1  0
  6 17  1  0
  7 18  1  0
  8 19  1  0
  9 20  1  0
 21 22  2  3
 22 23  1  0
 22 24  1  0
 24 25  2  0
 25 26  1  0
 26 27  1  0
 26 28  2  0
 28 29  1  0
 28 30  1  0
 30 31  2  0
 31 24  1  0
 21 32  1  0
 23 33  1  0
 23 34  1  0
 30 35  1  0
 31 36  1  0
 13 25  1  0
M  ISO  8  14  14  15  14  16  14  17  14  18  14  19  14  20  14  27  15
M  ISO  1  29  16
M  END
>  <DihAtoms>  (1) 
2,12,24,23

>  <DihDeg>  (1) 
89.99476780650588

$$$$
