
     RDKit          3D

 28 29  0  0  0  0  0  0  0  0999 V2000
   45.4399   35.0627   44.0006 C   0  0  0  0  0  0  0  0  0  0  0  0
   46.4947   34.2971   43.5114 C   0  0  0  0  0  0  0  0  0  0  0  0
   47.0253   33.2866   44.3261 C   0  0  0  0  0  0  0  0  0  0  0  0
   46.4575   33.1260   45.5604 N   0  0  0  0  0  0  0  0  0  0  0  0
   45.4311   33.8945   45.9963 C   0  0  0  0  0  0  0  0  0  0  0  0
   44.9144   34.8708   45.2163 N   0  0  0  0  0  0  0  0  0  0  0  0
   44.9021   36.1353   43.0930 C   0  0  0  0  0  0  0  0  0  0  0  0
   46.8823   34.4954   42.5186 H   0  0  0  0  0  0  0  0  0  0  0  0
   47.8378   32.6781   43.9811 H   0  0  0  0  0  0  0  0  0  0  0  0
   45.0306   33.7104   46.9870 H   0  0  0  0  0  0  0  0  0  0  0  0
   44.4908   36.9787   43.6895 H   0  0  0  0  0  0  0  0  0  0  0  0
   45.7086   36.5570   42.4824 H   0  0  0  0  0  0  0  0  0  0  0  0
   41.0906   37.5100   43.7713 N   0  0  0  0  0  0  0  0  0  0  0  0
   42.1257   36.7587   43.7069 C   0  0  0  0  0  0  0  0  0  0  0  0
   42.7910   36.9978   44.9412 N   0  0  0  0  0  0  0  0  0  0  0  0
   42.5167   35.8623   42.6004 C   0  0  0  0  0  0  0  0  0  0  0  0
   43.8192   35.5399   42.2747 C   0  0  0  0  0  0  0  0  0  0  0  0
   44.0822   34.6905   41.2196 C   0  0  0  0  0  0  0  0  0  0  0  0
   45.1193   34.4646   40.9991 H   0  0  0  0  0  0  0  0  0  0  0  0
   43.0333   34.1505   40.4735 C   0  0  0  0  0  0  0  0  0  0  0  0
   43.2977   33.5029   39.6730 H   0  0  0  0  0  0  0  0  0  0  0  0
   41.7278   34.4971   40.8295 C   0  0  0  0  0  0  0  0  0  0  0  0
   41.4431   35.3500   41.8875 C   0  0  0  0  0  0  0  0  0  0  0  0
   40.4034   37.5297   42.9676 H   0  0  0  0  0  0  0  0  0  0  0  0
   43.5787   37.5702   45.3161 H   0  0  0  0  0  0  0  0  0  0  0  0
   42.5348   36.5386   45.8447 H   0  0  0  0  0  0  0  0  0  0  0  0
   40.9397   34.0636   40.2337 H   0  0  0  0  0  0  0  0  0  0  0  0
   40.4191   35.5851   42.1205 H   0  0  0  0  0  0  0  0  0  0  0  0
  1  6  1  0
  2  1  2  0
  2  3  1  0
  3  4  2  0
  4  5  1  0
  6  5  2  0
  7  1  1  0
  2  8  1  0
  3  9  1  0
  5 10  1  0
  7 11  1  0
  7 12  1  0
 13 14  2  3
 14 15  1  0
 14 16  1  0
 16 17  2  0
 17 18  1  0
 18 19  1  0
 18 20  2  0
 20 21  1  0
 20 22  1  0
 22 23  2  0
 23 16  1  0
 13 24  1  0
 15 25  1  0
 15 26  1  0
 22 27  1  0
 23 28  1  0
  7 17  1  0
M  ISO  7   8  14   9  14  10  14  11   8  12   8  19  15  21  16
M  END
>  <DihAtoms>  (1) 
0,6,16,15

>  <DihDeg>  (1) 
-179.98958090189305

$$$$
