
     RDKit          3D

 39 41  0  0  0  0  0  0  0  0999 V2000
   47.1508   34.2280   42.3821 N   0  0  0  0  0  0  0  0  0  0  0  0
   47.9918   35.0492   41.5338 C   0  0  0  0  0  0  0  0  0  0  0  0
   47.7135   34.3943   40.2194 C   0  0  2  0  0  0  0  0  0  0  0  0
   47.9050   32.9333   40.5631 C   0  0  0  0  0  0  0  0  0  0  0  0
   47.3690   32.8554   41.9711 C   0  0  0  0  0  0  0  0  0  0  0  0
   44.5848   35.9433   44.4715 C   0  0  0  0  0  0  0  0  0  0  0  0
   45.4025   35.6787   43.3782 C   0  0  0  0  0  0  0  0  0  0  0  0
   46.2750   34.6031   43.4138 C   0  0  0  0  0  0  0  0  0  0  0  0
   46.2884   33.8311   44.5596 N   0  0  0  0  0  0  0  0  0  0  0  0
   45.4798   34.1086   45.6167 C   0  0  0  0  0  0  0  0  0  0  0  0
   44.6250   35.1728   45.5658 N   0  0  0  0  0  0  0  0  0  0  0  0
   48.6653   34.7431   39.2050 N   0  0  0  0  0  0  0  0  0  0  0  0
   47.7088   36.0894   41.5178 H   0  0  0  0  0  0  0  0  0  0  0  0
   49.0521   34.8557   41.7897 H   0  0  0  0  0  0  0  0  0  0  0  0
   46.6834   34.5913   39.8447 H   0  0  0  0  0  0  0  0  0  0  0  0
   49.0090   32.7460   40.5363 H   0  0  0  0  0  0  0  0  0  0  0  0
   47.3522   32.3126   39.8456 H   0  0  0  0  0  0  0  0  0  0  0  0
   46.3536   32.3667   41.9375 H   0  0  0  0  0  0  0  0  0  0  0  0
   48.0744   32.3168   42.6383 H   0  0  0  0  0  0  0  0  0  0  0  0
   43.9144   36.7893   44.4144 H   0  0  0  0  0  0  0  0  0  0  0  0
   45.4008   36.2812   42.4682 H   0  0  0  0  0  0  0  0  0  0  0  0
   45.5647   33.4455   46.4666 H   0  0  0  0  0  0  0  0  0  0  0  0
   49.3178   33.9759   38.8573 H   0  0  0  0  0  0  0  0  0  0  0  0
   48.1124   35.1316   35.1667 N   0  0  0  0  0  0  0  0  0  0  0  0
   47.9188   35.2202   36.4375 C   0  0  0  0  0  0  0  0  0  0  0  0
   47.0198   34.1333   36.5024 N   0  0  0  0  0  0  0  0  0  0  0  0
   48.5683   36.2289   37.2363 C   0  0  0  0  0  0  0  0  0  0  0  0
   48.9149   35.9738   38.5458 C   0  0  0  0  0  0  0  0  0  0  0  0
   49.5199   37.0477   39.1632 C   0  0  0  0  0  0  0  0  0  0  0  0
   49.8411   37.0108   40.1927 H   0  0  0  0  0  0  0  0  0  0  0  0
   49.7679   38.2564   38.5702 C   0  0  0  0  0  0  0  0  0  0  0  0
   50.2466   39.0911   39.0745 H   0  0  0  0  0  0  0  0  0  0  0  0
   49.4038   38.4567   37.2675 C   0  0  0  0  0  0  0  0  0  0  0  0
   48.7968   37.4161   36.6091 C   0  0  0  0  0  0  0  0  0  0  0  0
   47.6555   34.4189   34.5743 H   0  0  0  0  0  0  0  0  0  0  0  0
   47.2512   33.1184   36.5578 H   0  0  0  0  0  0  0  0  0  0  0  0
   46.0002   34.3549   36.4952 H   0  0  0  0  0  0  0  0  0  0  0  0
   49.5849   39.3963   36.7721 H   0  0  0  0  0  0  0  0  0  0  0  0
   48.5155   37.5894   35.5831 H   0  0  0  0  0  0  0  0  0  0  0  0
  1  8  1  0
  2  1  1  0
  3  4  1  0
  3  2  1  0
  4  5  1  0
  5  1  1  0
  6 11  2  0
  7  8  2  0
  7  6  1  0
  8  9  1  0
  9 10  2  0
 11 10  1  0
 12  3  1  0
  2 13  1  0
  2 14  1  0
  3 15  1  6
  4 16  1  0
  4 17  1  0
  5 18  1  0
  5 19  1  0
  6 20  1  0
  7 21  1  0
 10 22  1  0
 12 23  1  0
 24 25  2  3
 25 26  1  0
 25 27  1  0
 27 28  2  0
 28 29  1  0
 29 30  1  0
 29 31  2  0
 31 32  1  0
 31 33  1  0
 33 34  2  0
 34 27  1  0
 24 35  1  0
 26 36  1  0
 26 37  1  0
 33 38  1  0
 34 39  1  0
 12 28  1  0
M  ISO  8  13  13  14  13  15  13  16  13  17  13  18  13  19  13  20  14
M  ISO  5  21  14  22  14  23   5  30  15  32  16
M  END
>  <DihAtoms>  (1) 
2,11,27,26

>  <DihDeg>  (1) 
177.9255291260784

$$$$
