
 OpenBabel03242511133D

 49 53  0  0  1  0  0  0  0  0999 V2000
   50.2590   31.8190   42.1840 C   0  0  1  0  0  0  0  0  0  0  0  0
   49.6360   31.9220   40.8000 C   0  0  0  0  0  0  0  0  0  0  0  0
   48.7970   31.8380   42.0910 C   0  0  2  0  0  0  0  0  0  0  0  0
   50.7280   32.7300   42.5780 H   0  0  0  0  0  0  0  0  0  0  0  0
   49.7280   31.0300   40.1810 H   0  0  0  0  0  0  0  0  0  0  0  0
   49.6610   32.9130   40.2910 H   0  0  0  0  0  0  0  0  0  0  0  0
   48.1660   30.9240   42.1320 H   0  0  0  0  0  0  0  0  0  0  0  0
   51.3670   28.2930   42.1800 C   0  0  0  0  0  0  0  0  0  0  0  0
   52.2820   28.2780   43.2920 C   0  0  0  0  0  0  0  0  0  0  0  0
   52.4860   29.4760   43.9970 C   0  0  0  0  0  0  0  0  0  0  0  0
   51.8250   30.5470   43.5950 N   0  0  0  0  0  0  0  0  0  0  0  0
   50.9740   30.5530   42.5570 C   0  0  0  0  0  0  0  0  0  0  0  0
   50.7350   29.4200   41.8360 N   0  0  0  0  0  0  0  0  0  0  0  0
   51.1650   27.4090   41.5990 H   0  0  0  0  0  0  0  0  0  0  0  0
   52.7010   27.3250   43.4420 H   0  0  0  0  0  0  0  0  0  0  0  0
   54.7730   29.5570   44.9410 C   0  0  0  0  0  0  0  0  0  0  0  0
   53.4150   29.4180   45.1070 C   0  0  0  0  0  0  0  0  0  0  0  0
   53.0320   29.2250   46.4090 C   0  0  0  0  0  0  0  0  0  0  0  0
   52.0080   29.1020   46.6890 H   0  0  0  0  0  0  0  0  0  0  0  0
   53.9290   29.1770   47.4470 C   0  0  0  0  0  0  0  0  0  0  0  0
   53.6010   29.0230   48.4620 H   0  0  0  0  0  0  0  0  0  0  0  0
   55.2770   29.3170   47.2560 C   0  0  0  0  0  3  0  0  0  0  0  0
   55.7110   29.5120   45.9690 C   0  0  0  0  0  3  0  0  0  0  0  0
   55.5070   29.4920   42.4070 N   0  0  0  0  0  0  0  0  0  0  0  0
   55.3780   29.7530   43.6460 C   0  0  0  0  0  0  0  0  0  0  0  0
   56.4040   30.7210   43.4350 N   0  0  0  0  0  0  0  0  0  0  0  0
   56.2100   30.0330   41.8770 H   0  0  0  0  0  0  0  0  0  0  0  0
   56.8060   31.6290   43.0740 H   0  0  0  0  0  0  0  0  0  0  0  0
   57.3890   30.6340   43.7730 H   0  0  0  0  0  0  0  0  0  0  0  0
   48.1040   33.0270   42.4960 N   0  0  0  0  0  0  0  0  0  0  0  0
   48.3630   33.7260   41.7720 H   0  0  0  0  0  0  0  0  0  0  0  0
   47.3130   33.0780   43.6550 C   0  0  0  0  0  0  0  0  0  0  0  0
   47.5030   32.1480   44.6400 C   0  0  0  0  0  0  0  0  0  0  0  0
   46.8110   32.1720   45.8430 C   0  0  0  0  0  0  0  0  0  0  0  0
   45.8840   33.1600   46.0970 C   0  0  0  0  0  0  0  0  0  0  0  0
   45.6720   34.1080   45.1220 C   0  0  0  0  0  0  0  0  0  0  0  0
   44.7520   35.1140   45.3620 C   0  0  0  0  0  0  0  0  0  0  0  0
   44.5030   36.0840   44.4460 C   0  0  0  0  0  0  0  0  0  0  0  0
   45.2130   36.0210   43.2520 C   0  0  0  0  0  0  0  0  0  0  0  0
   46.1180   35.0260   43.0230 C   0  0  0  0  0  0  0  0  0  0  0  0
   46.3750   34.0520   43.9390 C   0  0  0  0  0  0  0  0  0  0  0  0
   48.1980   31.3360   44.5530 H   0  0  0  0  0  0  0  0  0  0  0  0
   46.9590   31.4440   46.6170 H   0  0  0  0  0  0  0  0  0  0  0  0
   45.3140   33.2290   47.0200 H   0  0  0  0  0  0  0  0  0  0  0  0
   44.1900   35.1760   46.2860 H   0  0  0  0  0  0  0  0  0  0  0  0
   43.7910   36.8910   44.5940 H   0  0  0  0  0  0  0  0  0  0  0  0
   45.0180   36.7980   42.5060 H   0  0  0  0  0  0  0  0  0  0  0  0
   46.7830   35.0080   41.8230 O   0  0  0  0  0  0  0  0  0  0  0  0
   47.1980   35.8880   41.5230 H   0  0  0  0  0  0  0  0  0  0  0  0
  1 12  1  0  0  0  0
  1  4  1  1  0  0  0
  2  3  1  0  0  0  0
  2  1  1  0  0  0  0
  3  7  1  1  0  0  0
  3  1  1  0  0  0  0
  3 30  1  0  0  0  0
  5  2  1  0  0  0  0
  6  2  1  0  0  0  0
  8  9  1  0  0  0  0
  9 15  1  0  0  0  0
  9 10  2  0  0  0  0
 10 17  1  0  0  0  0
 11 10  1  0  0  0  0
 12 11  2  0  0  0  0
 13  8  2  0  0  0  0
 13 12  1  0  0  0  0
 14  8  1  0  0  0  0
 16 17  2  0  0  0  0
 16 23  1  0  0  0  0
 17 18  1  0  0  0  0
 18 19  1  0  0  0  0
 18 20  2  0  0  0  0
 20 21  1  0  0  0  0
 22 20  1  0  0  0  0
 23 22  2  0  0  0  0
 24 25  2  0  0  0  0
 25 16  1  0  0  0  0
 26 25  1  0  0  0  0
 26 29  1  0  0  0  0
 27 24  1  0  0  0  0
 28 26  1  0  0  0  0
 30 32  1  0  0  0  0
 31 30  1  0  0  0  0
 32 41  2  0  0  0  0
 32 33  1  0  0  0  0
 33 34  2  0  0  0  0
 34 35  1  0  0  0  0
 34 43  1  0  0  0  0
 35 44  1  0  0  0  0
 36 37  1  0  0  0  0
 36 35  2  0  0  0  0
 37 45  1  0  0  0  0
 38 46  1  0  0  0  0
 38 37  2  0  0  0  0
 39 38  1  0  0  0  0
 40 39  2  0  0  0  0
 40 41  1  0  0  0  0
 41 36  1  0  0  0  0
 42 33  1  0  0  0  0
 47 39  1  0  0  0  0
 48 40  1  0  0  0  0
 49 48  1  0  0  0  0
M  END
>  <minimizedAffinity>
-5.28068638

>  <minimizedRMSD>
1.02316141

$$$$
