REMARK  Name = 
REMARK  5 active torsions:
REMARK  status: ('A' for Active; 'I' for Inactive)
REMARK    1  A    between atoms: S_1  and  C_2
REMARK    2  A    between atoms: S_1  and  C_12
REMARK    3  A    between atoms: C_12  and  C_17
REMARK    4  A    between atoms: C_15  and  C_33
REMARK    5  A    between atoms: C_30  and  C_32
REMARK                            x       y       z     vdW  Elec       q    Type
REMARK                         _______ _______ _______ _____ _____    ______ ____
ROOT
ATOM      1  C   UNL     1      44.584  35.977  44.504  0.00  0.00    +0.000 A 
ATOM      2  C   UNL     1      45.330  35.714  43.334  0.00  0.00    +0.000 A 
ATOM      3  C   UNL     1      46.170  34.597  43.301  0.00  0.00    +0.000 A 
ATOM      4  N   UNL     1      46.247  33.790  44.403  0.00  0.00    +0.000 NA
ATOM      5  C   UNL     1      45.510  34.084  45.504  0.00  0.00    +0.000 A 
ATOM      6  N   UNL     1      44.690  35.165  45.549  0.00  0.00    +0.000 NA
ATOM      7  H   UNL     1      43.906  36.804  44.647  0.00  0.00    +0.000 HD
ATOM      8  H   UNL     1      45.114  36.474  42.608  0.00  0.00    +0.000 HD
ENDROOT
BRANCH   3  10
ATOM      9  C   UNL     1      48.218  34.068  42.061  0.00  0.00    +0.000 A 
ATOM     10  C   UNL     1      46.899  34.434  42.062  0.00  0.00    +0.000 A 
ATOM     11  C   UNL     1      46.357  34.622  40.834  0.00  0.00    +0.000 A 
ATOM     12  H   UNL     1      45.325  34.911  40.704  0.00  0.00    +0.000 HD
ATOM     13  C   UNL     1      47.012  34.475  39.635  0.00  0.00    +0.000 A 
ATOM     14  H   UNL     1      46.540  34.635  38.680  0.00  0.00    +0.000 HD
ATOM     15  C   UNL     1      48.360  34.099  39.645  0.00  0.00    +0.000 A 
ATOM     16  C   UNL     1      48.937  33.902  40.877  0.00  0.00    +0.000 A 
BRANCH   9  18
ATOM     17  N   UNL     1      49.928  33.030  43.697  0.00  0.00    +0.000 NA
ATOM     18  C   UNL     1      49.064  33.868  43.202  0.00  0.00    +0.000 C 
ATOM     19  N   UNL     1      49.149  34.837  44.235  0.00  0.00    +0.000 N 
ATOM     20  H   UNL     1      50.170  32.133  43.216  0.00  0.00    +0.000 HD
ATOM     21  H   UNL     1      49.246  35.485  45.047  0.00  0.00    +0.000 HD
ATOM     22  H   UNL     1      48.871  35.862  44.184  0.00  0.00    +0.000 HD
ENDBRANCH   9  18
ENDBRANCH   3  10
BRANCH   5  23
ATOM     23  C   UNL     1      45.644  33.143  46.639  0.00  0.00    +0.000 C 
ATOM     24  H   UNL     1      44.652  32.864  47.069  0.00  0.00    +0.000 HD
ATOM     25  H   UNL     1      46.162  33.692  47.445  0.00  0.00    +0.000 HD
BRANCH  23  26
ATOM     26  S   UNL     1      46.541  31.694  46.061  0.00  0.00    +0.000 S 
BRANCH  26  27
ATOM     27  C   UNL     1      47.608  31.065  47.340  0.00  0.00    +0.000 A 
ATOM     28  C   UNL     1      47.931  31.913  48.369  0.00  0.00    +0.000 A 
ATOM     29  C   UNL     1      48.739  31.434  49.376  0.00  0.00    +0.000 A 
ATOM     30  C   UNL     1      49.230  30.131  49.378  0.00  0.00    +0.000 A 
ATOM     31  N   UNL     1      50.017  29.703  50.384  0.00  0.00    +0.000 NA
ATOM     32  C   UNL     1      50.496  28.436  50.389  0.00  0.00    +0.000 A 
ATOM     33  C   UNL     1      50.175  27.598  49.364  0.00  0.00    +0.000 A 
ATOM     34  C   UNL     1      49.365  28.037  48.328  0.00  0.00    +0.000 A 
ATOM     35  C   UNL     1      48.862  29.343  48.312  0.00  0.00    +0.000 A 
ATOM     36  C   UNL     1      48.054  29.769  47.274  0.00  0.00    +0.000 A 
ATOM     37  H   UNL     1      47.649  32.935  48.527  0.00  0.00    +0.000 HD
ATOM     38  H   UNL     1      49.052  32.040  50.241  0.00  0.00    +0.000 HD
ATOM     39  H   UNL     1      51.136  28.062  51.190  0.00  0.00    +0.000 HD
ATOM     40  H   UNL     1      50.495  26.572  49.258  0.00  0.00    +0.000 HD
ATOM     41  H   UNL     1      49.082  27.412  47.495  0.00  0.00    +0.000 HD
ATOM     42  H   UNL     1      47.786  29.121  46.452  0.00  0.00    +0.000 HD
ENDBRANCH  26  27
ENDBRANCH  23  26
ENDBRANCH   5  23
TORSDOF 5
