REMARK  Name = 
REMARK  6 active torsions:
REMARK  status: ('A' for Active; 'I' for Inactive)
REMARK    1  A    between atoms: N_1  and  C_2
REMARK    2  A    between atoms: N_1  and  C_15
REMARK    3  A    between atoms: C_10  and  O_12
REMARK    4  A    between atoms: C_13  and  C_20
REMARK    5  A    between atoms: C_18  and  C_40
REMARK    6  A    between atoms: C_37  and  C_39
REMARK                            x       y       z     vdW  Elec       q    Type
REMARK                         _______ _______ _______ _____ _____    ______ ____
ROOT
ATOM      1  C   UNL     1      50.161  31.717  42.272  0.00  0.00    +0.000 C 
ATOM      2  C   UNL     1      49.641  31.905  40.855  0.00  0.00    +0.000 C 
ATOM      3  C   UNL     1      48.711  31.791  42.079  0.00  0.00    +0.000 C 
ATOM      4  H   UNL     1      50.629  32.592  42.741  0.00  0.00    +0.000 HD
ATOM      5  H   UNL     1      49.749  31.039  40.202  0.00  0.00    +0.000 HD
ATOM      6  H   UNL     1      49.734  32.916  40.397  0.00  0.00    +0.000 HD
ATOM      7  H   UNL     1      48.050  30.899  42.032  0.00  0.00    +0.000 HD
ENDROOT
BRANCH   1  12
ATOM      8  C   UNL     1      50.908  28.100  42.406  0.00  0.00    +0.000 A 
ATOM      9  C   UNL     1      52.003  28.067  43.340  0.00  0.00    +0.000 A 
ATOM     10  C   UNL     1      52.445  29.284  43.885  0.00  0.00    +0.000 A 
ATOM     11  N   UNL     1      51.827  30.389  43.505  0.00  0.00    +0.000 NA
ATOM     12  C   UNL     1      50.807  30.411  42.633  0.00  0.00    +0.000 A 
ATOM     13  N   UNL     1      50.335  29.261  42.072  0.00  0.00    +0.000 NA
ATOM     14  H   UNL     1      50.521  27.203  41.953  0.00  0.00    +0.000 HD
ATOM     15  H   UNL     1      52.350  27.087  43.504  0.00  0.00    +0.000 HD
BRANCH  10  17
ATOM     16  C   UNL     1      54.830  29.578  44.480  0.00  0.00    +0.000 A 
ATOM     17  C   UNL     1      53.549  29.207  44.820  0.00  0.00    +0.000 A 
ATOM     18  C   UNL     1      53.423  28.768  46.111  0.00  0.00    +0.000 A 
ATOM     19  H   UNL     1      52.487  28.448  46.515  0.00  0.00    +0.000 HD
ATOM     20  C   UNL     1      54.482  28.707  46.982  0.00  0.00    +0.000 A 
ATOM     21  H   UNL     1      54.356  28.357  47.992  0.00  0.00    +0.000 HD
ATOM     22  C   UNL     1      55.748  29.082  46.620  0.00  0.00    +0.000 A 
ATOM     23  C   UNL     1      55.928  29.529  45.336  0.00  0.00    +0.000 A 
BRANCH  16  25
ATOM     24  N   UNL     1      55.051  30.063  41.896  0.00  0.00    +0.000 NA
ATOM     25  C   UNL     1      55.173  30.054  43.162  0.00  0.00    +0.000 C 
ATOM     26  N   UNL     1      56.159  31.065  42.963  0.00  0.00    +0.000 N 
ATOM     27  H   UNL     1      55.649  30.717  41.365  0.00  0.00    +0.000 HD
ATOM     28  H   UNL     1      56.503  32.037  42.729  0.00  0.00    +0.000 HD
ATOM     29  H   UNL     1      57.189  30.929  43.075  0.00  0.00    +0.000 HD
ENDBRANCH  16  25
ENDBRANCH  10  17
ENDBRANCH   1  12
BRANCH   3  30
ATOM     30  N   UNL     1      48.028  32.984  42.491  0.00  0.00    +0.000 N 
ATOM     31  H   UNL     1      48.285  33.682  41.765  0.00  0.00    +0.000 HD
BRANCH  30  32
ATOM     32  C   UNL     1      47.248  33.039  43.658  0.00  0.00    +0.000 A 
ATOM     33  C   UNL     1      47.428  32.094  44.631  0.00  0.00    +0.000 A 
ATOM     34  C   UNL     1      46.747  32.120  45.840  0.00  0.00    +0.000 A 
ATOM     35  C   UNL     1      45.842  33.124  46.113  0.00  0.00    +0.000 A 
ATOM     36  C   UNL     1      45.642  34.086  45.150  0.00  0.00    +0.000 A 
ATOM     37  C   UNL     1      44.745  35.108  45.409  0.00  0.00    +0.000 A 
ATOM     38  C   UNL     1      44.508  36.093  44.505  0.00  0.00    +0.000 A 
ATOM     39  C   UNL     1      45.206  36.028  43.304  0.00  0.00    +0.000 A 
ATOM     40  C   UNL     1      46.088  35.017  43.057  0.00  0.00    +0.000 A 
ATOM     41  C   UNL     1      46.333  34.029  43.960  0.00  0.00    +0.000 A 
ATOM     42  H   UNL     1      48.105  31.269  44.529  0.00  0.00    +0.000 HD
ATOM     43  H   UNL     1      46.886  31.381  46.605  0.00  0.00    +0.000 HD
ATOM     44  H   UNL     1      45.282  33.194  47.042  0.00  0.00    +0.000 HD
ATOM     45  H   UNL     1      44.192  35.172  46.338  0.00  0.00    +0.000 HD
ATOM     46  H   UNL     1      43.814  36.913  44.668  0.00  0.00    +0.000 HD
ATOM     47  H   UNL     1      45.021  36.817  42.568  0.00  0.00    +0.000 HD
BRANCH  40  48
ATOM     48  O   UNL     1      46.743  34.999  41.851  0.00  0.00    +0.000 OA
ATOM     49  H   UNL     1      47.173  35.873  41.557  0.00  0.00    +0.000 HD
ENDBRANCH  40  48
ENDBRANCH  30  32
ENDBRANCH   3  30
TORSDOF 6
