
 OpenBabel03252505473D

 34 36  0  0  1  0  0  0  0  0999 V2000
   46.5130   32.7640   42.8910 C   0  0  0  0  0  0  0  0  0  0  0  0
   47.3860   32.1550   41.9530 C   0  0  0  0  0  0  0  0  0  0  0  0
   48.3230   31.2100   42.3570 C   0  0  0  0  0  0  0  0  0  0  0  0
   48.3520   30.9100   43.6830 N   0  0  0  0  0  0  0  0  0  0  0  0
   47.4960   31.5190   44.5620 C   0  0  0  0  0  0  0  0  0  0  0  0
   46.6040   32.4180   44.1770 N   0  0  0  0  0  0  0  0  0  0  0  0
   47.3420   32.4140   40.8920 H   0  0  0  0  0  0  0  0  0  0  0  0
   48.9940   30.7360   41.6600 H   0  0  0  0  0  0  0  0  0  0  0  0
   45.5590   33.7620   42.3910 C   0  0  1  0  0  0  0  0  0  0  0  0
   46.0530   35.2220   42.6940 C   0  0  1  0  0  0  0  0  0  0  0  0
   45.7790   34.6570   41.3180 C   0  0  0  0  0  0  0  0  0  0  0  0
   44.5200   33.5720   42.7790 H   0  0  0  0  0  0  0  0  0  0  0  0
   47.0780   35.3580   43.0220 H   0  0  0  0  0  0  0  0  0  0  0  0
   46.7040   34.6130   40.6800 H   0  0  0  0  0  0  0  0  0  0  0  0
   44.9360   35.0770   40.7350 H   0  0  0  0  0  0  0  0  0  0  0  0
   44.9660   36.1390   43.1990 C   0  0  0  0  0  0  0  0  0  0  0  0
   45.3160   37.4580   43.1930 F   0  0  0  0  0  0  0  0  0  0  0  0
   43.8370   35.9960   42.3670 F   0  0  0  0  0  0  0  0  0  0  0  0
   44.5300   35.7440   44.4530 F   0  0  0  0  0  0  0  0  0  0  0  0
   47.6320   31.1270   45.8830 O   0  0  0  0  0  0  0  0  0  0  0  0
   45.7410   30.9090   47.4810 C   0  0  0  0  0  0  0  0  0  0  0  0
   46.7460   30.4640   46.6580 C   0  0  0  0  0  0  0  0  0  0  0  0
   46.9220   29.0750   46.5750 C   0  0  0  0  0  0  0  0  0  0  0  0
   47.6520   28.5330   45.9870 H   0  0  0  0  0  0  0  0  0  0  0  0
   46.0770   28.2480   47.3230 C   0  0  0  0  0  0  0  0  0  0  0  0
   46.1570   27.1830   47.3050 H   0  0  0  0  0  0  0  0  0  0  0  0
   45.0960   28.7420   48.1240 C   0  0  0  0  0  3  0  0  0  0  0  0
   44.9070   30.1000   48.2180 C   0  0  0  0  0  3  0  0  0  0  0  0
   45.6400   32.9070   48.7310 N   0  0  0  0  0  0  0  0  0  0  0  0
   45.5200   32.3190   47.5610 C   0  0  0  0  0  0  0  0  0  0  0  0
   45.2060   33.5490   46.9640 N   0  0  0  0  0  0  0  0  0  0  0  0
   45.8800   32.4220   49.5980 H   0  0  0  0  0  0  0  0  0  0  0  0
   44.2540   33.9680   46.8420 H   0  0  0  0  0  0  0  0  0  0  0  0
   45.8970   34.2350   46.5440 H   0  0  0  0  0  0  0  0  0  0  0  0
  1  6  1  0  0  0  0
  2  3  1  0  0  0  0
  2  1  2  0  0  0  0
  3  4  2  0  0  0  0
  4  5  1  0  0  0  0
  5 20  1  0  0  0  0
  6  5  2  0  0  0  0
  7  2  1  0  0  0  0
  8  3  1  0  0  0  0
  9 10  1  0  0  0  0
  9 12  1  1  0  0  0
  9  1  1  0  0  0  0
 10 13  1  1  0  0  0
 10 16  1  0  0  0  0
 11  9  1  0  0  0  0
 11 10  1  0  0  0  0
 14 11  1  0  0  0  0
 15 11  1  0  0  0  0
 16 19  1  0  0  0  0
 17 16  1  0  0  0  0
 18 16  1  0  0  0  0
 20 22  1  0  0  0  0
 21 30  1  0  0  0  0
 21 28  1  0  0  0  0
 22 21  2  0  0  0  0
 23 22  1  0  0  0  0
 23 25  2  0  0  0  0
 24 23  1  0  0  0  0
 25 27  1  0  0  0  0
 26 25  1  0  0  0  0
 27 28  2  0  0  0  0
 29 32  1  0  0  0  0
 30 29  2  0  0  0  0
 31 30  1  0  0  0  0
 33 31  1  0  0  0  0
 34 31  1  0  0  0  0
M  END
>  <minimizedAffinity>
-5.60516644

>  <minimizedRMSD>
3.20484018

$$$$
