REMARK  Name = 
REMARK  7 active torsions:
REMARK  status: ('A' for Active; 'I' for Inactive)
REMARK    1  A    between atoms: C_1  and  C_11
REMARK    2  A    between atoms: C_5  and  C_7
REMARK    3  A    between atoms: C_9  and  N_10
REMARK    4  A    between atoms: C_11  and  C_14
REMARK    5  A    between atoms: C_13  and  S_19
REMARK    6  A    between atoms: S_19  and  C_38
REMARK    7  A    between atoms: C_35  and  C_37
REMARK                            x       y       z     vdW  Elec       q    Type
REMARK                         _______ _______ _______ _____ _____    ______ ____
ROOT
ATOM      1  C   UNL     1      41.991  33.312  41.303  0.00  0.00    +0.000 A 
ATOM      2  C   UNL     1      42.813  34.402  41.309  0.00  0.00    +0.000 A 
ATOM      3  C   UNL     1      42.231  35.661  41.068  0.00  0.00    +0.000 A 
ATOM      4  C   UNL     1      40.891  35.847  40.829  0.00  0.00    +0.000 A 
ATOM      5  C   UNL     1      40.076  34.748  40.826  0.00  0.00    +0.000 A 
ATOM      6  C   UNL     1      40.630  33.525  41.058  0.00  0.00    +0.000 A 
ATOM      7  H   UNL     1      42.804  36.584  41.044  0.00  0.00    +0.000 HD
ATOM      8  H   UNL     1      40.459  36.801  40.648  0.00  0.00    +0.000 HD
ATOM      9  H   UNL     1      39.018  34.801  40.649  0.00  0.00    +0.000 HD
ATOM     10  H   UNL     1      39.968  32.645  41.053  0.00  0.00    +0.000 HD
ENDROOT
BRANCH   1  11
ATOM     11  S   UNL     1      42.533  31.761  41.675  0.00  0.00    +0.000 S 
ATOM     12  O   UNL     1      42.388  31.071  40.281  0.00  0.00    +0.000 OA
ATOM     13  O   UNL     1      41.636  31.039  42.605  0.00  0.00    +0.000 OA
BRANCH  11  15
ATOM     14  C   UNL     1      44.233  29.832  41.178  0.00  0.00    +0.000 A 
ATOM     15  C   UNL     1      44.096  31.136  41.733  0.00  0.00    +0.000 A 
ATOM     16  C   UNL     1      45.335  31.651  42.152  0.00  0.00    +0.000 A 
ATOM     17  H   UNL     1      45.180  32.678  42.539  0.00  0.00    +0.000 HD
ATOM     18  C   UNL     1      46.605  31.120  42.114  0.00  0.00    +0.000 A 
ATOM     19  H   UNL     1      47.395  31.725  42.505  0.00  0.00    +0.000 HD
ATOM     20  C   UNL     1      46.560  29.880  41.558  0.00  0.00    +0.000 A 
ATOM     21  C   UNL     1      45.469  29.228  41.100  0.00  0.00    +0.000 A 
BRANCH  14  23
ATOM     22  N   UNL     1      43.365  28.224  39.565  0.00  0.00    +0.000 NA
ATOM     23  C   UNL     1      43.209  28.895  40.659  0.00  0.00    +0.000 C 
ATOM     24  N   UNL     1      41.958  28.542  41.229  0.00  0.00    +0.000 N 
ATOM     25  H   UNL     1      42.575  27.585  39.330  0.00  0.00    +0.000 HD
ATOM     26  H   UNL     1      41.660  27.559  41.412  0.00  0.00    +0.000 HD
ATOM     27  H   UNL     1      41.007  28.618  41.644  0.00  0.00    +0.000 HD
ENDBRANCH  14  23
ENDBRANCH  11  15
ENDBRANCH   1  11
BRANCH   2  28
ATOM     28  C   UNL     1      44.241  34.315  41.549  0.00  0.00    +0.000 C 
ATOM     29  O   UNL     1      45.113  34.159  40.637  0.00  0.00    +0.000 OA
BRANCH  28  30
ATOM     30  C   UNL     1      44.591  34.425  42.939  0.00  0.00    +0.000 A 
ATOM     31  C   UNL     1      44.308  35.692  43.556  0.00  0.00    +0.000 A 
ATOM     32  C   UNL     1      44.628  35.818  44.898  0.00  0.00    +0.000 A 
ATOM     33  N   UNL     1      45.182  34.752  45.538  0.00  0.00    +0.000 NA
ATOM     34  C   UNL     1      45.432  33.563  44.900  0.00  0.00    +0.000 A 
ATOM     35  N   UNL     1      45.136  33.443  43.653  0.00  0.00    +0.000 NA
ATOM     36  H   UNL     1      43.884  36.563  43.133  0.00  0.00    +0.000 HD
ATOM     37  H   UNL     1      44.468  36.713  45.479  0.00  0.00    +0.000 HD
BRANCH  34  38
ATOM     38  C   UNL     1      46.029  32.459  45.680  0.00  0.00    +0.000 C 
ATOM     39  C   UNL     1      46.974  32.781  46.812  0.00  0.00    +0.000 C 
ATOM     40  C   UNL     1      45.549  32.365  47.085  0.00  0.00    +0.000 C 
ATOM     41  H   UNL     1      46.276  31.539  45.155  0.00  0.00    +0.000 HD
ATOM     42  H   UNL     1      47.794  32.064  47.053  0.00  0.00    +0.000 HD
ATOM     43  H   UNL     1      47.282  33.839  46.985  0.00  0.00    +0.000 HD
ATOM     44  H   UNL     1      45.357  31.345  47.467  0.00  0.00    +0.000 HD
BRANCH  40  45
ATOM     45  N   UNL     1      44.748  33.423  47.655  0.00  0.00    +0.000 NA
ATOM     46  H   UNL     1      43.870  33.608  47.162  0.00  0.00    +0.000 HD
ATOM     47  H   UNL     1      45.273  34.257  47.960  0.00  0.00    +0.000 HD
ENDBRANCH  40  45
ENDBRANCH  34  38
ENDBRANCH  28  30
ENDBRANCH   2  28
TORSDOF 7
