
 OpenBabel03242519033D

 37 39  0  0  1  0  0  0  0  0999 V2000
   47.4250   30.6370   46.3060 N   0  0  0  0  0  0  0  0  0  0  0  0
   47.2770   31.8240   45.4870 C   0  0  0  0  0  0  0  0  0  0  0  0
   45.8090   31.7430   45.2160 C   0  0  2  0  0  0  0  0  0  0  0  0
   45.6610   30.3030   44.7790 C   0  0  0  0  0  0  0  0  0  0  0  0
   46.6640   29.5900   45.6530 C   0  0  0  0  0  0  0  0  0  0  0  0
   47.5280   32.7390   46.0000 H   0  0  0  0  0  0  0  0  0  0  0  0
   47.8070   31.6640   44.5280 H   0  0  0  0  0  0  0  0  0  0  0  0
   45.1890   31.9590   46.1160 H   0  0  0  0  0  0  0  0  0  0  0  0
   45.9640   30.2690   43.7010 H   0  0  0  0  0  0  0  0  0  0  0  0
   44.6260   29.9760   44.9400 H   0  0  0  0  0  0  0  0  0  0  0  0
   46.1040   29.0480   46.4660 H   0  0  0  0  0  0  0  0  0  0  0  0
   47.3030   28.9080   45.0540 H   0  0  0  0  0  0  0  0  0  0  0  0
   48.9800   31.0620   49.6660 C   0  0  0  0  0  0  0  0  0  0  0  0
   48.2370   31.3710   48.5320 C   0  0  0  0  0  0  0  0  0  0  0  0
   48.1410   30.4510   47.5000 C   0  0  0  0  0  0  0  0  0  0  0  0
   48.8030   29.2480   47.6540 N   0  0  0  0  0  0  0  0  0  0  0  0
   49.5250   28.9690   48.7720 C   0  0  0  0  0  0  0  0  0  0  0  0
   49.6090   29.8860   49.7810 N   0  0  0  0  0  0  0  0  0  0  0  0
   49.0360   31.7990   50.4560 H   0  0  0  0  0  0  0  0  0  0  0  0
   47.7090   32.3160   48.3990 H   0  0  0  0  0  0  0  0  0  0  0  0
   50.0060   28.0010   48.7960 H   0  0  0  0  0  0  0  0  0  0  0  0
   45.3900   32.5850   44.1340 N   0  0  0  0  0  0  0  0  0  0  0  0
   45.1600   32.1150   43.2060 H   0  0  0  0  0  0  0  0  0  0  0  0
   45.4120   34.7300   42.9150 C   0  0  0  0  0  0  0  0  0  0  0  0
   45.2170   33.9910   44.0600 C   0  0  0  0  0  0  0  0  0  0  0  0
   44.8180   34.7560   45.1360 C   0  0  0  0  0  0  0  0  0  0  0  0
   44.6140   34.3230   46.1030 H   0  0  0  0  0  0  0  0  0  0  0  0
   44.6260   36.1110   45.1060 C   0  0  0  0  0  0  0  0  0  0  0  0
   44.3110   36.6960   45.9660 H   0  0  0  0  0  0  0  0  0  0  0  0
   44.8340   36.7980   43.9420 C   0  0  0  0  0  3  0  0  0  0  0  0
   45.2330   36.0790   42.8420 C   0  0  0  0  0  3  0  0  0  0  0  0
   46.7930   33.2430   41.6570 N   0  0  0  0  0  0  0  0  0  0  0  0
   45.8250   34.0940   41.6890 C   0  0  0  0  0  0  0  0  0  0  0  0
   45.5540   34.0240   40.3050 N   0  0  0  0  0  0  0  0  0  0  0  0
   47.1080   32.7770   40.7910 H   0  0  0  0  0  0  0  0  0  0  0  0
   44.9790   33.3130   39.8040 H   0  0  0  0  0  0  0  0  0  0  0  0
   45.9700   34.7630   39.6980 H   0  0  0  0  0  0  0  0  0  0  0  0
  1 15  1  0  0  0  0
  2  6  1  0  0  0  0
  2  1  1  0  0  0  0
  3  2  1  0  0  0  0
  3  8  1  1  0  0  0
  4 10  1  0  0  0  0
  4  3  1  0  0  0  0
  4  5  1  0  0  0  0
  5  1  1  0  0  0  0
  5 11  1  0  0  0  0
  7  2  1  0  0  0  0
  9  4  1  0  0  0  0
 12  5  1  0  0  0  0
 13 18  1  0  0  0  0
 13 19  1  0  0  0  0
 14 13  2  0  0  0  0
 15 16  2  0  0  0  0
 15 14  1  0  0  0  0
 16 17  1  0  0  0  0
 17 21  1  0  0  0  0
 17 18  2  0  0  0  0
 20 14  1  0  0  0  0
 22  3  1  0  0  0  0
 23 22  1  0  0  0  0
 24 25  1  0  0  0  0
 25 22  1  0  0  0  0
 25 26  2  0  0  0  0
 26 27  1  0  0  0  0
 28 26  1  0  0  0  0
 28 29  1  0  0  0  0
 30 28  2  0  0  0  0
 31 24  2  0  0  0  0
 31 30  1  0  0  0  0
 32 33  2  0  0  0  0
 33 24  1  0  0  0  0
 34 33  1  0  0  0  0
 35 32  1  0  0  0  0
 36 34  1  0  0  0  0
 37 34  1  0  0  0  0
M  END
>  <minimizedAffinity>
-4.5918355

>  <minimizedRMSD>
6.77700901

$$$$
