
 OpenBabel03242521503D

 25 26  0  0  0  0  0  0  0  0999 V2000
   46.0390   31.5890   45.9960 C   0  0  0  0  0  0  0  0  0  0  0  0
   45.7110   32.8720   46.3750 C   0  0  0  0  0  0  0  0  0  0  0  0
   45.5250   33.1490   47.7150 C   0  0  0  0  0  0  0  0  0  0  0  0
   45.2650   34.1300   48.1240 H   0  0  0  0  0  0  0  0  0  0  0  0
   45.6830   32.1050   48.6180 C   0  0  0  0  0  0  0  0  0  0  0  0
   45.5530   32.2670   49.6680 H   0  0  0  0  0  0  0  0  0  0  0  0
   46.0110   30.8160   48.2510 C   0  0  0  0  0  0  0  0  0  0  0  0
   46.1950   30.5470   46.9100 C   0  0  0  0  0  0  0  0  0  0  0  0
   44.5170   35.9040   44.6840 C   0  0  0  0  0  0  0  0  0  0  0  0
   45.2880   35.9210   43.5270 C   0  0  0  0  0  0  0  0  0  0  0  0
   46.2170   34.8860   43.3350 C   0  0  0  0  0  0  0  0  0  0  0  0
   46.3090   33.9210   44.2920 N   0  0  0  0  0  0  0  0  0  0  0  0
   45.5400   33.9440   45.4000 C   0  0  0  0  0  0  0  0  0  0  0  0
   44.6660   34.9290   45.5680 N   0  0  0  0  0  0  0  0  0  0  0  0
   43.7690   36.6550   44.9310 H   0  0  0  0  0  0  0  0  0  0  0  0
   45.1460   36.7370   42.8130 H   0  0  0  0  0  0  0  0  0  0  0  0
   47.0030   34.8910   42.1720 N   0  0  0  0  0  0  0  0  0  0  0  0
   47.7410   35.6210   42.3620 H   0  0  0  0  0  0  0  0  0  0  0  0
   46.9750   34.3620   41.2780 H   0  0  0  0  0  0  0  0  0  0  0  0
   47.2020   31.2360   43.6950 N   0  0  0  0  0  0  0  0  0  0  0  0
   46.2490   31.3240   44.5760 C   0  0  0  0  0  0  0  0  0  0  0  0
   44.9520   31.1280   44.0530 N   0  0  0  0  0  0  0  0  0  0  0  0
   48.2170   31.3520   43.9020 H   0  0  0  0  0  0  0  0  0  0  0  0
   43.9820   30.8250   43.9190 H   0  0  0  0  0  0  0  0  0  0  0  0
   44.3920   31.4140   43.2000 H   0  0  0  0  0  0  0  0  0  0  0  0
  1  2  2  0  0  0  0
  1  8  1  0  0  0  0
  2  3  1  0  0  0  0
  3  4  1  0  0  0  0
  3  5  2  0  0  0  0
  5  6  1  0  0  0  0
  7  5  1  0  0  0  0
  8  7  2  0  0  0  0
  9 15  1  0  0  0  0
  9 14  1  0  0  0  0
 10  9  2  0  0  0  0
 11 10  1  0  0  0  0
 11 12  2  0  0  0  0
 12 13  1  0  0  0  0
 13 14  2  0  0  0  0
 13  2  1  0  0  0  0
 16 10  1  0  0  0  0
 17 18  1  0  0  0  0
 17 11  1  0  0  0  0
 19 17  1  0  0  0  0
 20 23  1  0  0  0  0
 20 21  2  0  0  0  0
 21  1  1  0  0  0  0
 22 21  1  0  0  0  0
 24 22  1  0  0  0  0
 25 22  1  0  0  0  0
M  END
>  <minimizedAffinity>
-4.69008636

>  <minimizedRMSD>
0.276729882

$$$$
