
 OpenBabel03252502083D

 53 57  0  0  0  0  0  0  0  0999 V2000
   45.6570   33.8540   45.4500 C   0  0  0  0  0  0  0  0  0  0  0  0
   44.7530   34.7600   45.8380 N   0  0  0  0  0  0  0  0  0  0  0  0
   44.3930   35.8290   45.1410 C   0  0  0  0  0  0  0  0  0  0  0  0
   44.9550   36.0680   43.9370 N   0  0  0  0  0  0  0  0  0  0  0  0
   45.8810   35.2400   43.4240 C   0  0  0  0  0  0  0  0  0  0  0  0
   46.4740   35.4670   42.1990 C   0  0  0  0  0  0  0  0  0  0  0  0
   47.4160   34.6350   41.6850 C   0  0  0  0  0  0  0  0  0  0  0  0
   47.7640   33.5410   42.4340 C   0  0  0  0  0  0  0  0  0  0  0  0
   47.1450   33.3380   43.6700 C   0  0  0  0  0  0  0  0  0  0  0  0
   46.2060   34.1450   44.2070 C   0  0  0  0  0  0  0  0  0  0  0  0
   43.6460   36.5210   45.5290 H   0  0  0  0  0  0  0  0  0  0  0  0
   46.1730   36.3420   41.6340 H   0  0  0  0  0  0  0  0  0  0  0  0
   47.8380   34.8750   40.7190 H   0  0  0  0  0  0  0  0  0  0  0  0
   47.5820   32.0270   47.9070 C   0  0  0  0  0  0  0  0  0  0  0  0
   47.0940   30.7150   47.8970 C   0  0  0  0  0  0  0  0  0  0  0  0
   46.0630   30.4510   47.0370 C   0  0  0  0  0  0  0  0  0  0  0  0
   45.5760   31.4200   46.2570 N   0  0  0  0  0  0  0  0  0  0  0  0
   46.0330   32.6660   46.2540 C   0  0  0  0  0  0  0  0  0  0  0  0
   47.0420   32.9450   47.0940 N   0  0  0  0  0  0  0  0  0  0  0  0
   45.5130   29.1900   46.9940 N   0  0  0  0  0  0  0  0  0  0  0  0
   44.2890   28.8300   46.2290 C   0  0  0  0  0  0  0  0  0  0  0  0
   44.2370   27.3260   46.2220 C   0  0  0  0  0  0  0  0  0  0  0  0
   44.9350   26.9680   47.4940 C   0  0  0  0  0  0  0  0  0  0  0  0
   45.9850   28.0120   47.6610 C   0  0  0  0  0  0  0  0  0  0  0  0
   48.4040   32.2850   48.5800 H   0  0  0  0  0  0  0  0  0  0  0  0
   44.3850   29.1950   45.1830 H   0  0  0  0  0  0  0  0  0  0  0  0
   43.3970   29.2730   46.7500 H   0  0  0  0  0  0  0  0  0  0  0  0
   43.2010   26.9640   46.1640 H   0  0  0  0  0  0  0  0  0  0  0  0
   44.8650   26.9650   45.3710 H   0  0  0  0  0  0  0  0  0  0  0  0
   44.1690   27.0040   48.2960 H   0  0  0  0  0  0  0  0  0  0  0  0
   45.3530   25.9320   47.4540 H   0  0  0  0  0  0  0  0  0  0  0  0
   46.0330   28.1490   48.7840 H   0  0  0  0  0  0  0  0  0  0  0  0
   46.9260   27.6110   47.2410 H   0  0  0  0  0  0  0  0  0  0  0  0
   47.7140   29.7960   48.6920 N   0  0  0  0  0  0  0  0  0  0  0  0
   48.4030   29.0410   48.4790 H   0  0  0  0  0  0  0  0  0  0  0  0
   47.4940   29.7990   49.7320 H   0  0  0  0  0  0  0  0  0  0  0  0
   48.5310   31.5540   41.0510 C   0  0  0  0  0  0  0  0  0  0  0  0
   48.7820   32.6620   41.8590 C   0  0  0  0  0  0  0  0  0  0  0  0
   50.0810   33.0290   42.1930 C   0  0  0  0  0  0  0  0  0  0  0  0
   50.3250   33.8800   42.8180 H   0  0  0  0  0  0  0  0  0  0  0  0
   51.1550   32.2800   41.7160 C   0  0  0  0  0  0  0  0  0  0  0  0
   52.1780   32.5840   41.9900 H   0  0  0  0  0  0  0  0  0  0  0  0
   50.9070   31.1820   40.9150 C   0  0  0  0  0  3  0  0  0  0  0  0
   49.6140   30.8320   40.5930 C   0  0  0  0  0  3  0  0  0  0  0  0
   46.5460   31.8610   39.7920 N   0  0  0  0  0  0  0  0  0  0  0  0
   47.1300   31.2600   40.7630 C   0  0  0  0  0  0  0  0  0  0  0  0
   46.6020   30.2840   41.6740 N   0  0  0  0  0  0  0  0  0  0  0  0
   45.5470   31.6770   39.5580 H   0  0  0  0  0  0  0  0  0  0  0  0
   45.8210   30.3620   42.3590 H   0  0  0  0  0  0  0  0  0  0  0  0
   46.9920   29.3070   41.7380 H   0  0  0  0  0  0  0  0  0  0  0  0
   47.6320   32.1400   44.2820 N   0  0  0  0  0  0  0  0  0  0  0  0
   48.3880   31.9160   44.9610 H   0  0  0  0  0  0  0  0  0  0  0  0
   47.0160   31.3910   43.8760 H   0  0  0  0  0  0  0  0  0  0  0  0
  1  2  1  0  0  0  0
  1 18  1  0  0  0  0
  3 11  1  0  0  0  0
  3  2  2  0  0  0  0
  4  3  1  0  0  0  0
  5  4  2  0  0  0  0
  5 10  1  0  0  0  0
  6  5  1  0  0  0  0
  7  6  2  0  0  0  0
  7  8  1  0  0  0  0
  8  9  2  0  0  0  0
  9 10  1  0  0  0  0
  9 51  1  0  0  0  0
 10  1  2  0  0  0  0
 12  6  1  0  0  0  0
 13  7  1  0  0  0  0
 14 25  1  0  0  0  0
 15 14  1  0  0  0  0
 15 34  1  0  0  0  0
 16 15  2  0  0  0  0
 17 16  1  0  0  0  0
 18 17  2  0  0  0  0
 18 19  1  0  0  0  0
 19 14  2  0  0  0  0
 20 16  1  0  0  0  0
 20 24  1  0  0  0  0
 21 27  1  0  0  0  0
 21 20  1  0  0  0  0
 22 21  1  0  0  0  0
 22 23  1  0  0  0  0
 23 24  1  0  0  0  0
 23 30  1  0  0  0  0
 24 32  1  0  0  0  0
 26 21  1  0  0  0  0
 28 22  1  0  0  0  0
 29 22  1  0  0  0  0
 31 23  1  0  0  0  0
 33 24  1  0  0  0  0
 34 36  1  0  0  0  0
 35 34  1  0  0  0  0
 37 38  1  0  0  0  0
 38 39  2  0  0  0  0
 38  8  1  0  0  0  0
 39 40  1  0  0  0  0
 41 42  1  0  0  0  0
 41 39  1  0  0  0  0
 43 41  2  0  0  0  0
 44 43  1  0  0  0  0
 44 37  2  0  0  0  0
 45 46  2  0  0  0  0
 46 37  1  0  0  0  0
 46 47  1  0  0  0  0
 47 50  1  0  0  0  0
 47 49  1  0  0  0  0
 48 45  1  0  0  0  0
 51 52  1  0  0  0  0
 53 51  1  0  0  0  0
M  END
>  <minimizedAffinity>
-7.00350857

>  <minimizedRMSD>
0.893842459

$$$$
