
 OpenBabel03252501553D

 26 27  0  0  0  0  0  0  0  0999 V2000
   45.8560   31.5610   44.8330 C   0  0  0  0  0  0  0  0  0  0  0  0
   46.1890   32.7990   45.3170 C   0  0  0  0  0  0  0  0  0  0  0  0
   46.8880   32.8450   46.5200 C   0  0  0  0  0  0  0  0  0  0  0  0
   47.1750   33.8000   46.9460 H   0  0  0  0  0  0  0  0  0  0  0  0
   47.2630   31.7250   47.2490 C   0  0  0  0  0  0  0  0  0  0  0  0
   47.8050   31.7990   48.1770 H   0  0  0  0  0  0  0  0  0  0  0  0
   46.9160   30.4850   46.7390 C   0  0  0  0  0  3  0  0  0  0  0  0
   46.2230   30.4410   45.5470 C   0  0  0  0  0  3  0  0  0  0  0  0
   46.4760   35.4180   42.7700 C   0  0  0  0  0  0  0  0  0  0  0  0
   46.7300   34.2890   43.5630 C   0  0  0  0  0  0  0  0  0  0  0  0
   45.8170   33.9630   44.5830 C   0  0  0  0  0  0  0  0  0  0  0  0
   44.7640   34.7730   44.7150 N   0  0  0  0  0  0  0  0  0  0  0  0
   44.5310   35.8480   43.9530 C   0  0  0  0  0  0  0  0  0  0  0  0
   45.3800   36.2100   42.9510 N   0  0  0  0  0  0  0  0  0  0  0  0
   47.0970   35.7710   41.9590 H   0  0  0  0  0  0  0  0  0  0  0  0
   43.6000   36.3200   44.2840 H   0  0  0  0  0  0  0  0  0  0  0  0
   47.9700   33.5710   43.2050 C   0  0  0  0  0  0  0  0  0  0  0  0
   48.3210   32.9980   44.1050 H   0  0  0  0  0  0  0  0  0  0  0  0
   48.7560   34.3150   42.9740 H   0  0  0  0  0  0  0  0  0  0  0  0
   47.8110   32.8500   42.3740 H   0  0  0  0  0  0  0  0  0  0  0  0
   43.9940   31.6920   43.2660 N   0  0  0  0  0  0  0  0  0  0  0  0
   45.1350   31.2680   43.6110 C   0  0  0  0  0  0  0  0  0  0  0  0
   45.6920   30.4030   42.6000 N   0  0  0  0  0  0  0  0  0  0  0  0
   43.4790   31.4900   42.4100 H   0  0  0  0  0  0  0  0  0  0  0  0
   46.2330   30.8200   41.8180 H   0  0  0  0  0  0  0  0  0  0  0  0
   45.5080   29.3860   42.7310 H   0  0  0  0  0  0  0  0  0  0  0  0
  1  2  2  0  0  0  0
  1  8  1  0  0  0  0
  2  3  1  0  0  0  0
  3  4  1  0  0  0  0
  3  5  2  0  0  0  0
  5  6  1  0  0  0  0
  7  5  1  0  0  0  0
  8  7  2  0  0  0  0
  9 14  2  0  0  0  0
  9 10  1  0  0  0  0
 10 11  2  0  0  0  0
 11 12  1  0  0  0  0
 11  2  1  0  0  0  0
 13 16  1  0  0  0  0
 13 12  2  0  0  0  0
 14 13  1  0  0  0  0
 15  9  1  0  0  0  0
 17 10  1  0  0  0  0
 17 18  1  0  0  0  0
 19 17  1  0  0  0  0
 20 17  1  0  0  0  0
 21 22  2  0  0  0  0
 22  1  1  0  0  0  0
 23 26  1  0  0  0  0
 23 22  1  0  0  0  0
 24 21  1  0  0  0  0
 25 23  1  0  0  0  0
M  END
>  <minimizedAffinity>
-4.29371262

>  <minimizedRMSD>
4.59153128

$$$$
