
     RDKit          3D

 26 27  0  0  0  0  0  0  0  0999 V2000
   45.0023   35.4858   44.1850 C   0  0  0  0  0  0  0  0  0  0  0  0
   45.9842   34.9127   43.3617 C   0  0  0  0  0  0  0  0  0  0  0  0
   46.7192   33.8273   43.8368 C   0  0  0  0  0  0  0  0  0  0  0  0
   46.4332   33.3931   45.0766 N   0  0  0  0  0  0  0  0  0  0  0  0
   45.4960   33.9429   45.8579 C   0  0  0  0  0  0  0  0  0  0  0  0
   44.7816   34.9948   45.4009 N   0  0  0  0  0  0  0  0  0  0  0  0
   44.2815   36.5464   43.7250 O   0  0  0  0  0  0  0  0  0  0  0  0
   46.0787   35.3853   42.4066 H   0  0  0  0  0  0  0  0  0  0  0  0
   45.3456   33.5168   46.8382 H   0  0  0  0  0  0  0  0  0  0  0  0
   44.3743   37.4875   44.0635 H   0  0  0  0  0  0  0  0  0  0  0  0
   48.5581   30.3196   44.9778 N   0  0  0  0  0  0  0  0  0  0  0  0
   48.4501   31.5828   44.7410 C   0  0  0  0  0  0  0  0  0  0  0  0
   48.3852   31.9880   46.0869 N   0  0  0  0  0  0  0  0  0  0  0  0
   48.4408   32.2392   43.4671 C   0  0  0  0  0  0  0  0  0  0  0  0
   47.7136   33.2742   42.9594 C   0  0  0  0  0  0  0  0  0  0  0  0
   47.9861   33.6835   41.6734 C   0  0  0  0  0  0  0  0  0  0  0  0
   47.4279   34.4937   41.2555 H   0  0  0  0  0  0  0  0  0  0  0  0
   48.9486   33.1060   40.8756 C   0  0  0  0  0  0  0  0  0  0  0  0
   49.1046   33.4873   39.8669 H   0  0  0  0  0  0  0  0  0  0  0  0
   49.7019   32.0558   41.3587 C   0  0  0  0  0  0  0  0  0  0  0  0
   49.4235   31.6408   42.6679 C   0  0  0  0  0  0  0  0  0  0  0  0
   48.5644   30.0130   45.9713 H   0  0  0  0  0  0  0  0  0  0  0  0
   49.0191   32.6619   46.5583 H   0  0  0  0  0  0  0  0  0  0  0  0
   48.3353   32.2767   47.0547 H   0  0  0  0  0  0  0  0  0  0  0  0
   50.4274   31.6505   40.7004 H   0  0  0  0  0  0  0  0  0  0  0  0
   50.0987   30.8011   42.9120 H   0  0  0  0  0  0  0  0  0  0  0  0
  1  6  2  0
  2  3  2  0
  2  1  1  0
  3  4  1  0
  4  5  2  0
  6  5  1  0
  7  1  1  0
  2  8  1  0
  5  9  1  0
  7 10  1  0
 11 12  2  3
 12 13  1  0
 12 14  1  0
 14 15  2  0
 15 16  1  0
 16 17  1  0
 16 18  2  0
 18 19  1  0
 18 20  1  0
 20 21  2  0
 21 14  1  0
 11 22  1  0
 13 23  1  0
 13 24  1  0
 20 25  1  0
 21 26  1  0
  3 15  1  0
M  ISO  5   8  14   9  14  10   3  17  15  19  16
M  END
>  <DihAtoms>  (1) 
1,2,14,13

>  <DihDeg>  (1) 
178.19790618630904

$$$$
