REMARK  Name = 
REMARK  2 active torsions:
REMARK  status: ('A' for Active; 'I' for Inactive)
REMARK    1  A    between atoms: C_5  and  C_16
REMARK    2  A    between atoms: C_13  and  C_15
REMARK                            x       y       z     vdW  Elec       q    Type
REMARK                         _______ _______ _______ _____ _____    ______ ____
ROOT
ATOM      1  C   UNL     1      45.289  31.890  47.382  0.00  0.00    +0.000 A 
ATOM      2  C   UNL     1      45.335  33.252  47.217  0.00  0.00    +0.000 A 
ATOM      3  C   UNL     1      45.191  34.054  48.327  0.00  0.00    +0.000 A 
ATOM      4  H   UNL     1      45.214  35.135  48.289  0.00  0.00    +0.000 HD
ATOM      5  C   UNL     1      45.010  33.398  49.529  0.00  0.00    +0.000 A 
ATOM      6  H   UNL     1      44.897  34.031  50.396  0.00  0.00    +0.000 HD
ATOM      7  C   UNL     1      44.958  32.038  49.742  0.00  0.00    +0.000 A 
ATOM      8  C   UNL     1      45.105  31.259  48.618  0.00  0.00    +0.000 A 
ENDROOT
BRANCH   2  13
ATOM      9  C   UNL     1      45.109  35.354  44.167  0.00  0.00    +0.000 A 
ATOM     10  C   UNL     1      46.127  34.789  43.384  0.00  0.00    +0.000 A 
ATOM     11  C   UNL     1      46.864  33.710  43.918  0.00  0.00    +0.000 A 
ATOM     12  N   UNL     1      46.514  33.305  45.172  0.00  0.00    +0.000 NA
ATOM     13  C   UNL     1      45.542  33.852  45.905  0.00  0.00    +0.000 A 
ATOM     14  N   UNL     1      44.870  34.863  45.374  0.00  0.00    +0.000 NA
ATOM     15  N   UNL     1      44.339  36.449  43.663  0.00  0.00    +0.000 N 
ATOM     16  H   UNL     1      46.321  35.184  42.410  0.00  0.00    +0.000 HD
ATOM     17  H   UNL     1      47.641  33.267  43.339  0.00  0.00    +0.000 HD
ATOM     18  H   UNL     1      44.539  36.870  42.749  0.00  0.00    +0.000 HD
ATOM     19  H   UNL     1      43.569  36.829  44.218  0.00  0.00    +0.000 HD
ENDBRANCH   2  13
BRANCH   1  21
ATOM     20  N   UNL     1      45.261  30.392  45.154  0.00  0.00    +0.000 NA
ATOM     21  C   UNL     1      45.400  30.944  46.288  0.00  0.00    +0.000 C 
ATOM     22  N   UNL     1      46.220  29.772  46.493  0.00  0.00    +0.000 N 
ATOM     23  H   UNL     1      44.728  30.689  44.344  0.00  0.00    +0.000 HD
ATOM     24  H   UNL     1      46.091  28.953  47.146  0.00  0.00    +0.000 HD
ATOM     25  H   UNL     1      46.913  28.982  46.531  0.00  0.00    +0.000 HD
ENDBRANCH   1  21
TORSDOF 2
