
     RDKit          3D

 28 29  0  0  0  0  0  0  0  0999 V2000
   44.3840   35.7748   44.4307 C   0  0  0  0  0  0  0  0  0  0  0  0
   44.6714   35.0523   43.2637 C   0  0  0  0  0  0  0  0  0  0  0  0
   45.3039   33.8013   43.3849 C   0  0  0  0  0  0  0  0  0  0  0  0
   45.5841   33.3978   44.6274 N   0  0  0  0  0  0  0  0  0  0  0  0
   45.3050   34.0960   45.7340 C   0  0  0  0  0  0  0  0  0  0  0  0
   44.6940   35.3121   45.6764 N   0  0  0  0  0  0  0  0  0  0  0  0
   44.2565   35.7316   42.0200 C   0  0  0  0  0  0  0  0  0  0  0  0
   43.9031   36.7434   44.4708 H   0  0  0  0  0  0  0  0  0  0  0  0
   45.6455   33.5264   46.6046 H   0  0  0  0  0  0  0  0  0  0  0  0
   44.8851   35.3399   41.1750 H   0  0  0  0  0  0  0  0  0  0  0  0
   44.4836   36.8108   42.1130 H   0  0  0  0  0  0  0  0  0  0  0  0
   43.1894   35.5434   41.7756 H   0  0  0  0  0  0  0  0  0  0  0  0
   48.0092   34.9217   42.8329 N   0  0  0  0  0  0  0  0  0  0  0  0
   47.5776   34.5960   41.6902 C   0  0  0  0  0  0  0  0  0  0  0  0
   48.1796   35.4069   40.6591 N   0  0  0  0  0  0  0  0  0  0  0  0
   46.6115   33.5652   41.3683 C   0  0  0  0  0  0  0  0  0  0  0  0
   45.5426   33.1703   42.1289 C   0  0  0  0  0  0  0  0  0  0  0  0
   44.7392   32.1525   41.6209 C   0  0  0  0  0  0  0  0  0  0  0  0
   43.8825   31.8044   42.1841 H   0  0  0  0  0  0  0  0  0  0  0  0
   44.9557   31.5225   40.4036 C   0  0  0  0  0  0  0  0  0  0  0  0
   44.3132   30.7379   40.0413 H   0  0  0  0  0  0  0  0  0  0  0  0
   46.0431   31.9386   39.6517 C   0  0  0  0  0  0  0  0  0  0  0  0
   46.8369   32.9462   40.1568 C   0  0  0  0  0  0  0  0  0  0  0  0
   48.6862   35.6456   43.0687 H   0  0  0  0  0  0  0  0  0  0  0  0
   49.0883   35.1139   40.2510 H   0  0  0  0  0  0  0  0  0  0  0  0
   47.6422   36.2570   40.3876 H   0  0  0  0  0  0  0  0  0  0  0  0
   46.1912   31.4393   38.7158 H   0  0  0  0  0  0  0  0  0  0  0  0
   47.6548   33.1940   39.4914 H   0  0  0  0  0  0  0  0  0  0  0  0
  1  6  2  0
  2  3  2  0
  2  1  1  0
  3  4  1  0
  4  5  2  0
  6  5  1  0
  7  2  1  0
  1  8  1  0
  5  9  1  0
  7 10  1  0
  7 11  1  0
  7 12  1  0
 13 14  2  3
 14 15  1  0
 14 16  1  0
 16 17  2  0
 17 18  1  0
 18 19  1  0
 18 20  2  0
 20 21  1  0
 20 22  1  0
 22 23  2  0
 23 16  1  0
 13 24  1  0
 15 25  1  0
 15 26  1  0
 22 27  1  0
 23 28  1  0
  3 17  1  0
M  ISO  7   8  14   9  14  10   8  11   8  12   8  19  15  21  16
M  END
>  <DihAtoms>  (1) 
1,2,16,15

>  <DihDeg>  (1) 
124.43792537475268

$$$$
