
     RDKit          3D

 27 28  0  0  0  0  0  0  0  0999 V2000
   45.1088   35.3539   44.1672 C   0  0  0  0  0  0  0  0  0  0  0  0
   46.1272   34.7893   43.3836 C   0  0  0  0  0  0  0  0  0  0  0  0
   46.8639   33.7100   43.9183 C   0  0  0  0  0  0  0  0  0  0  0  0
   46.5136   33.3052   45.1715 N   0  0  0  0  0  0  0  0  0  0  0  0
   45.5423   33.8517   45.9054 C   0  0  0  0  0  0  0  0  0  0  0  0
   44.8696   34.8634   45.3744 N   0  0  0  0  0  0  0  0  0  0  0  0
   44.3386   36.4487   43.6635 N   0  0  0  0  0  0  0  0  0  0  0  0
   46.3214   35.1836   42.4104 H   0  0  0  0  0  0  0  0  0  0  0  0
   47.6414   33.2672   43.3385 H   0  0  0  0  0  0  0  0  0  0  0  0
   44.5387   36.8697   42.7489 H   0  0  0  0  0  0  0  0  0  0  0  0
   43.5691   36.8289   44.2176 H   0  0  0  0  0  0  0  0  0  0  0  0
   46.1530   30.4054   45.3014 N   0  0  0  0  0  0  0  0  0  0  0  0
   46.0338   31.0017   46.4147 C   0  0  0  0  0  0  0  0  0  0  0  0
   47.0750   30.0610   46.7600 N   0  0  0  0  0  0  0  0  0  0  0  0
   45.5876   31.9216   47.4431 C   0  0  0  0  0  0  0  0  0  0  0  0
   45.3353   33.2523   47.2173 C   0  0  0  0  0  0  0  0  0  0  0  0
   44.8875   34.0245   48.2655 C   0  0  0  0  0  0  0  0  0  0  0  0
   44.6643   35.0794   48.1764 H   0  0  0  0  0  0  0  0  0  0  0  0
   44.7308   33.3734   49.4735 C   0  0  0  0  0  0  0  0  0  0  0  0
   44.3790   33.9824   50.2924 H   0  0  0  0  0  0  0  0  0  0  0  0
   44.9713   32.0442   49.7472 C   0  0  0  0  0  0  0  0  0  0  0  0
   45.4175   31.2952   48.6837 C   0  0  0  0  0  0  0  0  0  0  0  0
   45.6591   30.5494   44.4268 H   0  0  0  0  0  0  0  0  0  0  0  0
   47.0672   29.2502   47.4360 H   0  0  0  0  0  0  0  0  0  0  0  0
   47.9232   29.4570   46.9069 H   0  0  0  0  0  0  0  0  0  0  0  0
   44.8104   31.6521   50.7366 H   0  0  0  0  0  0  0  0  0  0  0  0
   45.6148   30.2480   48.8697 H   0  0  0  0  0  0  0  0  0  0  0  0
  1  6  2  0
  2  3  2  0
  2  1  1  0
  3  4  1  0
  4  5  2  0
  6  5  1  0
  7  1  1  0
  2  8  1  0
  3  9  1  0
  7 10  1  0
  7 11  1  0
 12 13  2  3
 13 14  1  0
 13 15  1  0
 15 16  2  0
 16 17  1  0
 17 18  1  0
 17 19  2  0
 19 20  1  0
 19 21  1  0
 21 22  2  0
 22 15  1  0
 12 23  1  0
 14 24  1  0
 14 25  1  0
 21 26  1  0
 22 27  1  0
  5 16  1  0
M  ISO  4   8  14   9  14  18  15  20  16
M  END
>  <DihAtoms>  (1) 
3,4,15,14

>  <DihDeg>  (1) 
179.49719233284992

$$$$
