REMARK  Name = 
REMARK  2 active torsions:
REMARK  status: ('A' for Active; 'I' for Inactive)
REMARK    1  A    between atoms: C_5  and  C_16
REMARK    2  A    between atoms: C_13  and  C_15
REMARK                            x       y       z     vdW  Elec       q    Type
REMARK                         _______ _______ _______ _____ _____    ______ ____
ROOT
ATOM      1  C   UNL     1      45.588  31.922  47.443  0.00  0.00    +0.000 A 
ATOM      2  C   UNL     1      45.335  33.252  47.217  0.00  0.00    +0.000 A 
ATOM      3  C   UNL     1      44.888  34.025  48.266  0.00  0.00    +0.000 A 
ATOM      4  H   UNL     1      44.664  35.079  48.176  0.00  0.00    +0.000 HD
ATOM      5  C   UNL     1      44.731  33.373  49.474  0.00  0.00    +0.000 A 
ATOM      6  H   UNL     1      44.379  33.982  50.292  0.00  0.00    +0.000 HD
ATOM      7  C   UNL     1      44.971  32.044  49.747  0.00  0.00    +0.000 A 
ATOM      8  C   UNL     1      45.417  31.295  48.684  0.00  0.00    +0.000 A 
ENDROOT
BRANCH   2  13
ATOM      9  C   UNL     1      45.109  35.354  44.167  0.00  0.00    +0.000 A 
ATOM     10  C   UNL     1      46.127  34.789  43.384  0.00  0.00    +0.000 A 
ATOM     11  C   UNL     1      46.864  33.710  43.918  0.00  0.00    +0.000 A 
ATOM     12  N   UNL     1      46.514  33.305  45.172  0.00  0.00    +0.000 NA
ATOM     13  C   UNL     1      45.542  33.852  45.905  0.00  0.00    +0.000 A 
ATOM     14  N   UNL     1      44.870  34.863  45.374  0.00  0.00    +0.000 NA
ATOM     15  N   UNL     1      44.339  36.449  43.663  0.00  0.00    +0.000 N 
ATOM     16  H   UNL     1      46.321  35.184  42.410  0.00  0.00    +0.000 HD
ATOM     17  H   UNL     1      47.641  33.267  43.339  0.00  0.00    +0.000 HD
ATOM     18  H   UNL     1      44.539  36.870  42.749  0.00  0.00    +0.000 HD
ATOM     19  H   UNL     1      43.569  36.829  44.218  0.00  0.00    +0.000 HD
ENDBRANCH   2  13
BRANCH   1  21
ATOM     20  N   UNL     1      46.153  30.405  45.301  0.00  0.00    +0.000 NA
ATOM     21  C   UNL     1      46.034  31.002  46.415  0.00  0.00    +0.000 C 
ATOM     22  N   UNL     1      47.075  30.061  46.760  0.00  0.00    +0.000 N 
ATOM     23  H   UNL     1      45.659  30.549  44.427  0.00  0.00    +0.000 HD
ATOM     24  H   UNL     1      47.067  29.250  47.436  0.00  0.00    +0.000 HD
ATOM     25  H   UNL     1      47.923  29.457  46.907  0.00  0.00    +0.000 HD
ENDBRANCH   1  21
TORSDOF 2
