
 OpenBabel03242515463D

 46 50  0  0  1  0  0  0  0  0999 V2000
   39.7310   34.6450   40.2530 C   0  0  0  0  0  0  0  0  0  0  0  0
   40.8860   34.2040   40.9030 C   0  0  0  0  0  0  0  0  0  0  0  0
   40.9400   32.9560   41.4860 C   0  0  0  0  0  0  0  0  0  0  0  0
   39.8600   32.1130   41.4410 C   0  0  0  0  0  0  0  0  0  0  0  0
   38.7130   32.5380   40.8010 C   0  0  0  0  0  0  0  0  0  0  0  0
   38.6230   33.7690   40.2130 C   0  0  0  0  0  0  0  0  0  0  0  0
   37.7760   31.4830   40.9090 O   0  0  0  0  0  0  0  0  0  0  0  0
   38.2860   30.5460   41.8000 C   0  0  2  0  0  0  0  0  0  0  0  0
   39.6390   30.8270   41.9330 O   0  0  0  0  0  0  0  0  0  0  0  0
   39.6110   35.5900   39.7810 H   0  0  0  0  0  0  0  0  0  0  0  0
   41.8730   32.7010   41.9650 H   0  0  0  0  0  0  0  0  0  0  0  0
   37.7210   34.1100   39.7050 H   0  0  0  0  0  0  0  0  0  0  0  0
   37.7590   30.5590   42.7920 H   0  0  0  0  0  0  0  0  0  0  0  0
   38.7740   28.0490   41.5330 C   0  0  0  0  0  0  0  0  0  0  0  0
   38.1030   29.1940   41.2360 C   0  0  0  0  0  0  0  0  0  0  0  0
   37.0870   29.1100   40.2750 C   0  0  0  0  0  0  0  0  0  0  0  0
   36.4740   29.9570   39.9480 H   0  0  0  0  0  0  0  0  0  0  0  0
   36.8720   27.8710   39.7280 C   0  0  0  0  0  0  0  0  0  0  0  0
   36.0850   27.7860   38.9770 H   0  0  0  0  0  0  0  0  0  0  0  0
   37.5410   26.7020   40.0170 C   0  0  0  0  0  0  0  0  0  0  0  0
   38.5230   26.8190   40.9560 C   0  0  0  0  0  0  0  0  0  0  0  0
   40.8250   28.3690   43.2550 N   0  0  0  0  0  0  0  0  0  0  0  0
   39.8550   28.0710   42.4980 C   0  0  1  0  0  0  0  0  0  0  0  0
   40.0250   26.8230   43.2190 N   0  0  0  0  0  0  0  0  0  0  0  0
   41.3630   29.2200   43.3650 H   0  0  0  0  0  0  0  0  0  0  0  0
   40.2870   25.8730   42.8420 H   0  0  0  0  0  0  0  0  0  0  0  0
   40.1150   25.9920   43.8500 H   0  0  0  0  0  0  0  0  0  0  0  0
   42.2080   35.4090   40.8630 S   0  0  0  0  0  0  0  0  0  0  0  0
   43.7850   34.5760   40.4850 C   0  0  0  0  0  0  0  0  0  0  0  0
   43.7780   33.7330   39.4350 C   0  0  0  0  0  0  0  0  0  0  0  0
   44.9910   33.0870   39.1720 C   0  0  0  0  0  0  0  0  0  0  0  0
   46.0750   33.3210   39.9430 N   0  0  0  0  0  0  0  0  0  0  0  0
   46.0420   34.1620   40.9720 C   0  0  0  0  0  0  0  0  0  0  0  0
   44.8860   34.7650   41.2060 N   0  0  0  0  0  0  0  0  0  0  0  0
   45.0770   32.1480   38.0790 N   0  0  0  0  0  0  0  0  0  0  0  0
   45.1270   32.4020   37.0700 H   0  0  0  0  0  0  0  0  0  0  0  0
   45.1050   31.1060   38.0550 H   0  0  0  0  0  0  0  0  0  0  0  0
   42.7430   33.3250   38.4260 C   0  0  0  0  0  0  0  0  0  0  0  0
   42.3530   32.3400   38.7480 H   0  0  0  0  0  0  0  0  0  0  0  0
   41.9410   34.1030   38.3690 H   0  0  0  0  0  0  0  0  0  0  0  0
   43.1740   33.3060   37.3990 H   0  0  0  0  0  0  0  0  0  0  0  0
   47.1060   34.4470   41.7910 O   0  0  0  0  0  0  0  0  0  0  0  0
   48.3080   34.8820   41.1910 C   0  0  0  0  0  0  0  0  0  0  0  0
   49.3240   33.9990   41.3780 F   0  0  0  0  0  0  0  0  0  0  0  0
   48.0160   35.0860   39.8240 F   0  0  0  0  0  0  0  0  0  0  0  0
   48.6660   36.0940   41.7810 F   0  0  0  0  0  0  0  0  0  0  0  0
  1  2  1  0  0  0  0
  2  3  2  0  0  0  0
  3 11  1  0  0  0  0
  4  3  1  0  0  0  0
  4  9  1  0  0  0  0
  5  7  1  0  0  0  0
  5  4  2  0  0  0  0
  6  1  2  0  0  0  0
  6  5  1  0  0  0  0
  7  8  1  0  0  0  0
  8  9  1  0  0  0  0
  8 13  1  1  0  0  0
 10  1  1  0  0  0  0
 12  6  1  0  0  0  0
 15 14  1  0  0  0  0
 15  8  1  0  0  0  0
 16 15  2  0  0  0  0
 17 16  1  0  0  0  0
 18 20  2  0  0  0  0
 18 16  1  0  0  0  0
 19 18  1  0  0  0  0
 20 21  1  0  0  0  0
 21 14  2  0  0  0  0
 22 25  1  0  0  0  0
 23 14  1  1  0  0  0
 23 24  1  0  0  0  0
 23 22  1  0  0  0  0
 24 22  1  0  0  0  0
 24 27  1  0  0  0  0
 26 24  1  0  0  0  0
 28  2  1  0  0  0  0
 29 28  1  0  0  0  0
 29 34  1  0  0  0  0
 30 29  2  0  0  0  0
 31 30  1  0  0  0  0
 31 32  2  0  0  0  0
 32 33  1  0  0  0  0
 33 34  2  0  0  0  0
 33 42  1  0  0  0  0
 35 31  1  0  0  0  0
 36 35  1  0  0  0  0
 37 35  1  0  0  0  0
 38 39  1  0  0  0  0
 38 30  1  0  0  0  0
 40 38  1  0  0  0  0
 41 38  1  0  0  0  0
 43 44  1  0  0  0  0
 43 46  1  0  0  0  0
 43 42  1  0  0  0  0
 45 43  1  0  0  0  0
M  END
>  <minimizedAffinity>
-6.5090251

>  <minimizedRMSD>
0.184200853

$$$$
