
 OpenBabel03242523473D

 24 25  0  0  0  0  0  0  0  0999 V2000
   48.2800   32.4820   42.7230 C   0  0  0  0  0  0  0  0  0  0  0  0
   48.2240   33.8070   43.0360 C   0  0  0  0  0  0  0  0  0  0  0  0
   49.3560   34.5650   42.8420 C   0  0  0  0  0  0  0  0  0  0  0  0
   49.3340   35.6070   43.0820 H   0  0  0  0  0  0  0  0  0  0  0  0
   50.5380   34.0590   42.3480 C   0  0  0  0  0  0  0  0  0  0  0  0
   51.3920   34.7240   42.2220 H   0  0  0  0  0  0  0  0  0  0  0  0
   50.6300   32.7220   42.0200 C   0  0  0  0  0  3  0  0  0  0  0  0
   49.4750   31.9520   42.2190 C   0  0  0  0  0  3  0  0  0  0  0  0
   45.0050   35.6440   43.1780 C   0  0  0  0  0  0  0  0  0  0  0  0
   46.2440   35.1590   42.7300 C   0  0  0  0  0  0  0  0  0  0  0  0
   46.9600   34.2760   43.5370 C   0  0  0  0  0  0  0  0  0  0  0  0
   46.4060   33.9410   44.7150 N   0  0  0  0  0  0  0  0  0  0  0  0
   45.2250   34.4060   45.1390 C   0  0  0  0  0  0  0  0  0  0  0  0
   44.5280   35.2620   44.3590 N   0  0  0  0  0  0  0  0  0  0  0  0
   46.5330   35.5310   41.7690 H   0  0  0  0  0  0  0  0  0  0  0  0
   44.8710   34.0740   46.1020 H   0  0  0  0  0  0  0  0  0  0  0  0
   44.3030   36.5060   42.3930 O   0  0  0  0  0  0  0  0  0  0  0  0
   44.1700   37.4810   42.5940 H   0  0  0  0  0  0  0  0  0  0  0  0
   46.8730   30.6750   41.8640 N   0  0  0  0  0  0  0  0  0  0  0  0
   47.3300   31.4130   42.8180 C   0  0  0  0  0  0  0  0  0  0  0  0
   46.6170   30.7840   43.8560 N   0  0  0  0  0  0  0  0  0  0  0  0
   46.1970   29.9270   42.1130 H   0  0  0  0  0  0  0  0  0  0  0  0
   47.0240   30.3450   44.7040 H   0  0  0  0  0  0  0  0  0  0  0  0
   46.1020   30.3330   44.5990 H   0  0  0  0  0  0  0  0  0  0  0  0
  1 20  1  0  0  0  0
  1  2  1  0  0  0  0
  2 11  1  0  0  0  0
  3  2  2  0  0  0  0
  3  4  1  0  0  0  0
  5  3  1  0  0  0  0
  6  5  1  0  0  0  0
  7  8  1  0  0  0  0
  7  5  2  0  0  0  0
  8  1  2  0  0  0  0
  9 14  1  0  0  0  0
 10  9  2  0  0  0  0
 10 11  1  0  0  0  0
 11 12  2  0  0  0  0
 12 13  1  0  0  0  0
 13 16  1  0  0  0  0
 14 13  2  0  0  0  0
 15 10  1  0  0  0  0
 17 18  1  0  0  0  0
 17  9  1  0  0  0  0
 19 22  1  0  0  0  0
 19 20  2  0  0  0  0
 20 21  1  0  0  0  0
 21 24  1  0  0  0  0
 21 23  1  0  0  0  0
M  END
>  <minimizedAffinity>
-4.61007881

>  <minimizedRMSD>
1.45935524

$$$$
