
 OpenBabel03252504053D

 24 25  0  0  0  0  0  0  0  0999 V2000
   48.0920   32.2540   42.1930 C   0  0  0  0  0  0  0  0  0  0  0  0
   48.0580   33.3620   42.9770 C   0  0  0  0  0  0  0  0  0  0  0  0
   49.1960   34.1760   43.0570 C   0  0  0  0  0  0  0  0  0  0  0  0
   49.3560   35.0800   43.6190 H   0  0  0  0  0  0  0  0  0  0  0  0
   50.3010   33.7900   42.3130 C   0  0  0  0  0  0  0  0  0  0  0  0
   51.2520   34.3280   42.2750 H   0  0  0  0  0  0  0  0  0  0  0  0
   50.2930   32.6430   41.5150 C   0  0  0  0  0  3  0  0  0  0  0  0
   49.1710   31.8470   41.4440 C   0  0  0  0  0  3  0  0  0  0  0  0
   44.9830   35.1990   44.1530 C   0  0  0  0  0  0  0  0  0  0  0  0
   45.9990   34.8160   43.2740 C   0  0  0  0  0  0  0  0  0  0  0  0
   46.9330   33.8670   43.7520 C   0  0  0  0  0  0  0  0  0  0  0  0
   46.7890   33.3860   45.0290 N   0  0  0  0  0  0  0  0  0  0  0  0
   45.7880   33.7920   45.8330 C   0  0  0  0  0  0  0  0  0  0  0  0
   44.9000   34.6890   45.3900 N   0  0  0  0  0  0  0  0  0  0  0  0
   44.2760   35.9200   43.7850 H   0  0  0  0  0  0  0  0  0  0  0  0
   45.6930   33.3980   46.8330 H   0  0  0  0  0  0  0  0  0  0  0  0
   46.1610   35.2950   41.9830 O   0  0  0  0  0  0  0  0  0  0  0  0
   46.8010   36.0420   41.8120 H   0  0  0  0  0  0  0  0  0  0  0  0
   46.1270   31.5320   41.1080 N   0  0  0  0  0  0  0  0  0  0  0  0
   46.9110   31.4170   42.1640 C   0  0  0  0  0  0  0  0  0  0  0  0
   46.1530   30.4360   42.8370 N   0  0  0  0  0  0  0  0  0  0  0  0
   46.3060   32.1680   40.3200 H   0  0  0  0  0  0  0  0  0  0  0  0
   45.2400   30.6310   43.3550 H   0  0  0  0  0  0  0  0  0  0  0  0
   46.5630   29.4690   42.7820 H   0  0  0  0  0  0  0  0  0  0  0  0
  1  2  1  0  0  0  0
  2  3  2  0  0  0  0
  2 11  1  0  0  0  0
  3  4  1  0  0  0  0
  5  3  1  0  0  0  0
  6  5  1  0  0  0  0
  7  5  2  0  0  0  0
  8  7  1  0  0  0  0
  8  1  2  0  0  0  0
  9 14  1  0  0  0  0
 10 11  1  0  0  0  0
 10  9  2  0  0  0  0
 11 12  2  0  0  0  0
 12 13  1  0  0  0  0
 13 16  1  0  0  0  0
 14 13  2  0  0  0  0
 15  9  1  0  0  0  0
 17 10  1  0  0  0  0
 18 17  1  0  0  0  0
 19 20  2  0  0  0  0
 20  1  1  0  0  0  0
 20 21  1  0  0  0  0
 21 23  1  0  0  0  0
 22 19  1  0  0  0  0
 24 21  1  0  0  0  0
M  END
>  <minimizedAffinity>
-3.9773581

>  <minimizedRMSD>
2.60251784

$$$$
