
     RDKit          3D

 26 27  0  0  0  0  0  0  0  0999 V2000
   44.5586   35.6213   45.0634 C   0  0  0  0  0  0  0  0  0  0  0  0
   45.0254   35.8862   43.7731 C   0  0  0  0  0  0  0  0  0  0  0  0
   45.9740   34.9821   43.2377 C   0  0  0  0  0  0  0  0  0  0  0  0
   46.3739   33.9166   44.0053 N   0  0  0  0  0  0  0  0  0  0  0  0
   45.8885   33.7113   45.2436 C   0  0  0  0  0  0  0  0  0  0  0  0
   44.9916   34.5601   45.7578 N   0  0  0  0  0  0  0  0  0  0  0  0
   44.6340   36.9595   42.9872 O   0  0  0  0  0  0  0  0  0  0  0  0
   43.8380   36.3103   45.4641 H   0  0  0  0  0  0  0  0  0  0  0  0
   46.2169   32.8647   45.8276 H   0  0  0  0  0  0  0  0  0  0  0  0
   45.1997   37.7821   42.9607 H   0  0  0  0  0  0  0  0  0  0  0  0
   44.8998   32.7268   39.9526 N   0  0  0  0  0  0  0  0  0  0  0  0
   44.9481   33.7300   40.8079 C   0  0  0  0  0  0  0  0  0  0  0  0
   43.7133   33.4779   41.4417 N   0  0  0  0  0  0  0  0  0  0  0  0
   46.1176   34.5823   40.7495 C   0  0  0  0  0  0  0  0  0  0  0  0
   46.5708   35.1078   41.9159 C   0  0  0  0  0  0  0  0  0  0  0  0
   47.7209   35.9087   41.9011 C   0  0  0  0  0  0  0  0  0  0  0  0
   48.2243   36.4039   42.7141 H   0  0  0  0  0  0  0  0  0  0  0  0
   48.3291   36.1165   40.6718 C   0  0  0  0  0  0  0  0  0  0  0  0
   49.2268   36.7197   40.5098 H   0  0  0  0  0  0  0  0  0  0  0  0
   47.8268   35.5586   39.4934 C   0  0  0  0  0  0  0  0  0  0  0  0
   46.6981   34.7709   39.5169 C   0  0  0  0  0  0  0  0  0  0  0  0
   45.6333   32.5190   39.2615 H   0  0  0  0  0  0  0  0  0  0  0  0
   42.7612   33.6990   41.0123 H   0  0  0  0  0  0  0  0  0  0  0  0
   43.8026   33.0369   42.3911 H   0  0  0  0  0  0  0  0  0  0  0  0
   48.2989   35.7195   38.5367 H   0  0  0  0  0  0  0  0  0  0  0  0
   46.2824   34.3254   38.6266 H   0  0  0  0  0  0  0  0  0  0  0  0
  1  6  2  0
  2  1  1  0
  3  2  2  0
  3  4  1  0
  4  5  2  0
  5  6  1  0
  7  2  1  0
  1  8  1  0
  5  9  1  0
  7 10  1  0
 11 12  2  3
 12 13  1  0
 12 14  1  0
 14 15  2  0
 15 16  1  0
 16 17  1  0
 16 18  2  0
 18 19  1  0
 18 20  1  0
 20 21  2  0
 21 14  1  0
 11 22  1  0
 13 23  1  0
 13 24  1  0
 20 25  1  0
 21 26  1  0
  3 15  1  0
M  ISO  5   8  14   9  14  10   3  17  15  19  16
M  END
>  <DihAtoms>  (1) 
1,2,14,13

>  <DihDeg>  (1) 
119.55260996944297

$$$$
