
 OpenBabel03242519063D

 48 51  0  0  1  0  0  0  0  0999 V2000
   47.6990   31.7260   36.8970 C   0  0  0  0  0  0  0  0  0  0  0  0
   47.3410   32.6920   37.8510 C   0  0  0  0  0  0  0  0  0  0  0  0
   46.1300   33.2710   37.5960 C   0  0  0  0  0  0  0  0  0  0  0  0
   45.3020   32.9930   36.5460 C   0  0  0  0  0  0  0  0  0  0  0  0
   45.6980   32.0350   35.6320 C   0  0  0  0  0  0  0  0  0  0  0  0
   46.9150   31.4080   35.8310 C   0  0  0  0  0  0  0  0  0  0  0  0
   45.7520   34.0340   38.2700 H   0  0  0  0  0  0  0  0  0  0  0  0
   44.3440   33.4930   36.3970 H   0  0  0  0  0  0  0  0  0  0  0  0
   45.1180   31.7410   34.7690 H   0  0  0  0  0  0  0  0  0  0  0  0
   48.0200   30.9400   33.7860 C   0  0  0  0  0  0  0  0  0  0  0  0
   47.3490   30.3920   34.8750 C   0  0  0  0  0  0  0  0  0  0  0  0
   47.1520   29.0330   34.9740 C   0  0  0  0  0  0  0  0  0  0  0  0
   46.6220   28.7030   35.8560 H   0  0  0  0  0  0  0  0  0  0  0  0
   47.6050   28.1660   34.0130 C   0  0  0  0  0  0  0  0  0  0  0  0
   47.4450   27.1010   34.1010 H   0  0  0  0  0  0  0  0  0  0  0  0
   48.2690   28.7040   32.9330 C   0  0  0  0  0  0  0  0  0  0  0  0
   48.4800   30.0540   32.8070 C   0  0  0  0  0  0  0  0  0  0  0  0
   49.3590   32.9320   33.9920 N   0  0  0  0  0  0  0  0  0  0  0  0
   48.2870   32.3570   33.5720 C   0  0  0  0  0  0  0  0  0  0  0  0
   47.3350   33.1490   32.8730 N   0  0  0  0  0  0  0  0  0  0  0  0
   49.4640   33.9510   33.7920 H   0  0  0  0  0  0  0  0  0  0  0  0
   47.0560   32.8860   31.8830 H   0  0  0  0  0  0  0  0  0  0  0  0
   46.6770   33.9440   32.7830 H   0  0  0  0  0  0  0  0  0  0  0  0
   48.1280   33.0510   38.9730 N   0  0  0  0  0  0  0  0  0  0  0  0
   49.1460   33.3140   38.8140 H   0  0  0  0  0  0  0  0  0  0  0  0
   47.3080   34.3840   42.1760 N   0  0  0  0  0  0  0  0  0  0  0  0
   47.1420   34.4370   40.7400 C   0  0  0  0  0  0  0  0  0  0  0  0
   47.7830   33.1310   40.3770 C   0  0  2  0  0  0  0  0  0  0  0  0
   49.0890   33.2440   41.1430 C   0  0  0  0  0  0  0  0  0  0  0  0
   48.6660   33.9230   42.4210 C   0  0  0  0  0  0  0  0  0  0  0  0
   46.0810   34.5250   40.4470 H   0  0  0  0  0  0  0  0  0  0  0  0
   47.7680   35.2760   40.3690 H   0  0  0  0  0  0  0  0  0  0  0  0
   47.1780   32.2980   40.7370 H   0  0  0  0  0  0  0  0  0  0  0  0
   49.7940   33.9080   40.6080 H   0  0  0  0  0  0  0  0  0  0  0  0
   49.5810   32.2670   41.3060 H   0  0  0  0  0  0  0  0  0  0  0  0
   48.6090   33.1600   43.2200 H   0  0  0  0  0  0  0  0  0  0  0  0
   49.3500   34.7590   42.6700 H   0  0  0  0  0  0  0  0  0  0  0  0
   44.6810   35.9640   44.2860 C   0  0  0  0  0  0  0  0  0  0  0  0
   45.5280   35.7620   43.1960 C   0  0  0  0  0  0  0  0  0  0  0  0
   46.4130   34.6900   43.2050 C   0  0  0  0  0  0  0  0  0  0  0  0
   46.3910   33.8880   44.3110 N   0  0  0  0  0  0  0  0  0  0  0  0
   45.5800   34.0740   45.3640 C   0  0  0  0  0  0  0  0  0  0  0  0
   44.7170   35.1240   45.3490 N   0  0  0  0  0  0  0  0  0  0  0  0
   44.0150   36.8140   44.2190 H   0  0  0  0  0  0  0  0  0  0  0  0
   45.5710   36.3740   42.3080 H   0  0  0  0  0  0  0  0  0  0  0  0
   45.6620   33.3750   46.1690 H   0  0  0  0  0  0  0  0  0  0  0  0
   49.9940   30.5170   37.2720 N   0  0  0  0  0  0  0  0  0  0  0  0
   48.9860   31.0610   37.1030 C   0  0  0  0  0  0  0  0  0  0  0  0
  1 48  1  0  0  0  0
  1  2  1  0  0  0  0
  2 24  1  0  0  0  0
  3  2  2  0  0  0  0
  3  7  1  0  0  0  0
  4  3  1  0  0  0  0
  5  6  1  0  0  0  0
  5  4  2  0  0  0  0
  6  1  2  0  0  0  0
  8  4  1  0  0  0  0
  9  5  1  0  0  0  0
 10 11  1  0  0  0  0
 11 12  2  0  0  0  0
 11  6  1  0  0  0  0
 12 13  1  0  0  0  0
 14 15  1  0  0  0  0
 14 12  1  0  0  0  0
 16 14  2  0  0  0  0
 17 16  1  0  0  0  0
 17 10  2  0  0  0  0
 19 10  1  0  0  0  0
 19 18  2  0  0  0  0
 20 19  1  0  0  0  0
 21 18  1  0  0  0  0
 22 20  1  0  0  0  0
 23 20  1  0  0  0  0
 24 28  1  0  0  0  0
 25 24  1  0  0  0  0
 26 30  1  0  0  0  0
 26 40  1  0  0  0  0
 27 26  1  0  0  0  0
 28 33  1  1  0  0  0
 28 27  1  0  0  0  0
 28 29  1  0  0  0  0
 29 35  1  0  0  0  0
 29 30  1  0  0  0  0
 30 37  1  0  0  0  0
 30 36  1  0  0  0  0
 31 27  1  0  0  0  0
 32 27  1  0  0  0  0
 34 29  1  0  0  0  0
 38 43  1  0  0  0  0
 39 40  1  0  0  0  0
 39 38  2  0  0  0  0
 40 41  2  0  0  0  0
 41 42  1  0  0  0  0
 42 46  1  0  0  0  0
 43 42  2  0  0  0  0
 44 38  1  0  0  0  0
 45 39  1  0  0  0  0
 48 47  3  0  0  0  0
M  END
>  <minimizedAffinity>
-5.79954481

>  <minimizedRMSD>
2.23372173

$$$$
