
     RDKit          3D

 26 27  0  0  0  0  0  0  0  0999 V2000
   45.0023   35.4858   44.1850 C   0  0  0  0  0  0  0  0  0  0  0  0
   45.9842   34.9127   43.3617 C   0  0  0  0  0  0  0  0  0  0  0  0
   46.7192   33.8273   43.8368 C   0  0  0  0  0  0  0  0  0  0  0  0
   46.4332   33.3931   45.0766 N   0  0  0  0  0  0  0  0  0  0  0  0
   45.4960   33.9429   45.8579 C   0  0  0  0  0  0  0  0  0  0  0  0
   44.7816   34.9948   45.4009 N   0  0  0  0  0  0  0  0  0  0  0  0
   44.2815   36.5464   43.7250 O   0  0  0  0  0  0  0  0  0  0  0  0
   46.0787   35.3853   42.4066 H   0  0  0  0  0  0  0  0  0  0  0  0
   45.3456   33.5168   46.8382 H   0  0  0  0  0  0  0  0  0  0  0  0
   44.3743   37.4875   44.0635 H   0  0  0  0  0  0  0  0  0  0  0  0
   46.5848   29.7775   43.0830 N   0  0  0  0  0  0  0  0  0  0  0  0
   47.0339   30.8802   43.5790 C   0  0  0  0  0  0  0  0  0  0  0  0
   46.5893   30.6513   44.8941 N   0  0  0  0  0  0  0  0  0  0  0  0
   47.7627   31.9132   42.9041 C   0  0  0  0  0  0  0  0  0  0  0  0
   47.7136   33.2742   42.9594 C   0  0  0  0  0  0  0  0  0  0  0  0
   48.5985   33.9832   42.1785 C   0  0  0  0  0  0  0  0  0  0  0  0
   48.5776   35.0516   42.2068 H   0  0  0  0  0  0  0  0  0  0  0  0
   49.5257   33.3946   41.3477 C   0  0  0  0  0  0  0  0  0  0  0  0
   50.1922   34.0254   40.7603 H   0  0  0  0  0  0  0  0  0  0  0  0
   49.6013   32.0192   41.2677 C   0  0  0  0  0  0  0  0  0  0  0  0
   48.7002   31.2992   42.0635 C   0  0  0  0  0  0  0  0  0  0  0  0
   46.0883   29.1264   43.7239 H   0  0  0  0  0  0  0  0  0  0  0  0
   47.1782   30.6357   45.7492 H   0  0  0  0  0  0  0  0  0  0  0  0
   46.2659   30.4865   45.8379 H   0  0  0  0  0  0  0  0  0  0  0  0
   50.3333   31.6220   40.6117 H   0  0  0  0  0  0  0  0  0  0  0  0
   48.8786   30.2221   41.8942 H   0  0  0  0  0  0  0  0  0  0  0  0
  1  6  2  0
  2  3  2  0
  2  1  1  0
  3  4  1  0
  4  5  2  0
  6  5  1  0
  7  1  1  0
  2  8  1  0
  5  9  1  0
  7 10  1  0
 11 12  2  3
 12 13  1  0
 12 14  1  0
 14 15  2  0
 15 16  1  0
 16 17  1  0
 16 18  2  0
 18 19  1  0
 18 20  1  0
 20 21  2  0
 21 14  1  0
 11 22  1  0
 13 23  1  0
 13 24  1  0
 20 25  1  0
 21 26  1  0
  3 15  1  0
M  ISO  5   8  14   9  14  10   3  17  15  19  16
M  END
>  <DihAtoms>  (1) 
1,2,14,13

>  <DihDeg>  (1) 
178.19790618630904

$$$$
