
 OpenBabel03252506323D

 37 39  0  0  1  0  0  0  0  0999 V2000
   44.5390   35.7930   44.2420 C   0  0  0  0  0  0  0  0  0  0  0  0
   44.2890   35.3770   42.9130 C   0  0  0  0  0  0  0  0  0  0  0  0
   44.5410   34.0510   42.5570 C   0  0  0  0  0  0  0  0  0  0  0  0
   45.0190   33.2390   43.5320 N   0  0  0  0  0  0  0  0  0  0  0  0
   45.2470   33.6680   44.7890 C   0  0  0  0  0  0  0  0  0  0  0  0
   45.0150   34.9280   45.1590 N   0  0  0  0  0  0  0  0  0  0  0  0
   45.7590   32.7020   45.6990 N   0  0  0  0  0  0  0  0  0  0  0  0
   45.7780   32.9050   47.1590 C   0  0  0  0  0  0  0  0  0  0  0  0
   47.0230   32.1820   47.5480 C   0  0  0  0  0  0  0  0  0  0  0  0
   47.5860   31.5170   46.2860 C   0  0  0  0  0  0  0  0  0  0  0  0
   46.3330   31.4200   45.4990 C   0  0  2  0  0  0  0  0  0  0  0  0
   44.3590   36.8090   44.5660 H   0  0  0  0  0  0  0  0  0  0  0  0
   44.3390   33.7740   41.5390 H   0  0  0  0  0  0  0  0  0  0  0  0
   45.9210   33.9900   47.3440 H   0  0  0  0  0  0  0  0  0  0  0  0
   44.8550   32.5070   47.6220 H   0  0  0  0  0  0  0  0  0  0  0  0
   47.7750   32.7990   48.0720 H   0  0  0  0  0  0  0  0  0  0  0  0
   46.7880   31.3610   48.2880 H   0  0  0  0  0  0  0  0  0  0  0  0
   48.3330   32.2570   45.9620 H   0  0  0  0  0  0  0  0  0  0  0  0
   48.0340   30.5360   46.5490 H   0  0  0  0  0  0  0  0  0  0  0  0
   45.6710   30.7430   46.1700 H   0  0  0  0  0  0  0  0  0  0  0  0
   47.1430   31.0860   43.1430 C   0  0  0  0  0  0  0  0  0  0  0  0
   46.3540   30.7760   44.2290 C   0  0  0  0  0  0  0  0  0  0  0  0
   45.5050   29.6970   43.9220 C   0  0  0  0  0  0  0  0  0  0  0  0
   44.8140   29.3400   44.7030 H   0  0  0  0  0  0  0  0  0  0  0  0
   45.4630   29.0470   42.7210 C   0  0  0  0  0  0  0  0  0  0  0  0
   44.7720   28.2290   42.5870 H   0  0  0  0  0  0  0  0  0  0  0  0
   46.2840   29.4190   41.6850 C   0  0  0  0  0  3  0  0  0  0  0  0
   47.1340   30.4540   41.9070 C   0  0  0  0  0  3  0  0  0  0  0  0
   48.4140   33.3780   43.4360 N   0  0  0  0  0  0  0  0  0  0  0  0
   48.1130   32.1550   43.1980 C   0  0  0  0  0  0  0  0  0  0  0  0
   49.4830   31.9540   42.8580 N   0  0  0  0  0  0  0  0  0  0  0  0
   49.4280   33.6320   43.2830 H   0  0  0  0  0  0  0  0  0  0  0  0
   50.5010   31.8960   43.0400 H   0  0  0  0  0  0  0  0  0  0  0  0
   49.6510   31.7270   41.8500 H   0  0  0  0  0  0  0  0  0  0  0  0
   43.7840   36.3830   42.0240 N   0  0  0  0  0  0  0  0  0  0  0  0
   44.3730   36.8100   41.2760 H   0  0  0  0  0  0  0  0  0  0  0  0
   42.7850   36.6360   42.2030 H   0  0  0  0  0  0  0  0  0  0  0  0
  1 12  1  0  0  0  0
  1  6  1  0  0  0  0
  2  1  2  0  0  0  0
  3  2  1  0  0  0  0
  3  4  2  0  0  0  0
  4  5  1  0  0  0  0
  5  6  2  0  0  0  0
  5  7  1  0  0  0  0
  7  8  1  0  0  0  0
  8 14  1  0  0  0  0
  8  9  1  0  0  0  0
  8 15  1  0  0  0  0
  9 16  1  0  0  0  0
  9 17  1  0  0  0  0
 10 19  1  0  0  0  0
 10  9  1  0  0  0  0
 11  7  1  0  0  0  0
 11 20  1  1  0  0  0
 11 10  1  0  0  0  0
 13  3  1  0  0  0  0
 18 10  1  0  0  0  0
 21 30  1  0  0  0  0
 21 22  1  0  0  0  0
 22 11  1  0  0  0  0
 23 22  2  0  0  0  0
 23 24  1  0  0  0  0
 25 23  1  0  0  0  0
 26 25  1  0  0  0  0
 27 28  1  0  0  0  0
 27 25  2  0  0  0  0
 28 21  2  0  0  0  0
 30 29  2  0  0  0  0
 31 33  1  0  0  0  0
 31 30  1  0  0  0  0
 32 29  1  0  0  0  0
 34 31  1  0  0  0  0
 35 37  1  0  0  0  0
 35  2  1  0  0  0  0
 36 35  1  0  0  0  0
M  END
>  <minimizedAffinity>
-4.29258394

>  <minimizedRMSD>
2.38231611

$$$$
