
 OpenBabel03252501503D

 50 53  0  0  1  0  0  0  0  0999 V2000
   48.6860   34.6950   41.8240 N   0  0  0  0  0  0  0  0  0  0  0  0
   49.8170   34.7010   42.7210 C   0  0  0  0  0  0  0  0  0  0  0  0
   50.7650   33.6390   42.2660 C   0  0  0  0  0  0  0  0  0  0  0  0
   49.8810   32.6850   41.5290 C   0  0  0  0  0  0  0  0  0  0  0  0
   48.5980   33.4190   41.2080 C   0  0  2  0  0  0  0  0  0  0  0  0
   49.4440   34.4920   43.7610 H   0  0  0  0  0  0  0  0  0  0  0  0
   50.3160   35.7010   42.7050 H   0  0  0  0  0  0  0  0  0  0  0  0
   51.6040   34.0410   41.6790 H   0  0  0  0  0  0  0  0  0  0  0  0
   51.1630   33.1160   43.1680 H   0  0  0  0  0  0  0  0  0  0  0  0
   50.3970   32.4510   40.5540 H   0  0  0  0  0  0  0  0  0  0  0  0
   49.7330   31.7090   42.0120 H   0  0  0  0  0  0  0  0  0  0  0  0
   47.8070   32.8500   41.7810 H   0  0  0  0  0  0  0  0  0  0  0  0
   47.5930   32.3860   39.1150 C   0  0  0  0  0  0  0  0  0  0  0  0
   48.2490   33.3690   39.7950 C   0  0  0  0  0  0  0  0  0  0  0  0
   48.6030   34.4600   38.9880 C   0  0  0  0  0  0  0  0  0  0  0  0
   49.1360   35.2990   39.4590 H   0  0  0  0  0  0  0  0  0  0  0  0
   48.2960   34.4930   37.6450 C   0  0  0  0  0  0  0  0  0  0  0  0
   48.6140   35.3790   37.1180 H   0  0  0  0  0  0  0  0  0  0  0  0
   47.6300   33.4670   37.0140 C   0  0  0  0  0  3  0  0  0  0  0  0
   47.2700   32.3840   37.7760 C   0  0  0  0  0  3  0  0  0  0  0  0
   47.3910   30.0240   40.2870 N   0  0  0  0  0  0  0  0  0  0  0  0
   47.1780   31.1970   39.8190 C   0  0  0  0  0  0  0  0  0  0  0  0
   45.8480   31.0750   40.3630 N   0  0  0  0  0  0  0  0  0  0  0  0
   46.5700   29.5960   40.7870 H   0  0  0  0  0  0  0  0  0  0  0  0
   45.0480   30.9510   39.6750 H   0  0  0  0  0  0  0  0  0  0  0  0
   45.1880   31.0450   41.1900 H   0  0  0  0  0  0  0  0  0  0  0  0
   47.4910   35.0100   42.5750 C   0  0  0  0  0  0  0  0  0  0  0  0
   47.4920   34.3620   43.4750 H   0  0  0  0  0  0  0  0  0  0  0  0
   47.4500   36.0500   42.9170 H   0  0  0  0  0  0  0  0  0  0  0  0
   45.1030   35.3140   42.0420 C   0  0  0  0  0  3  0  0  0  0  0  0
   46.2430   34.6360   41.8130 C   0  0  0  0  0  3  0  0  0  0  0  0
   43.8110   34.0440   40.2630 C   0  0  0  0  0  0  0  0  0  0  0  0
   43.8600   34.9900   41.3260 C   0  0  0  0  0  0  0  0  0  0  0  0
   42.6740   35.6280   41.7010 C   0  0  0  0  0  0  0  0  0  0  0  0
   41.5300   35.3180   41.0350 N   0  0  0  0  0  0  0  0  0  0  0  0
   41.5250   34.4190   40.0350 C   0  0  0  0  0  0  0  0  0  0  0  0
   42.6590   33.7990   39.6650 N   0  0  0  0  0  0  0  0  0  0  0  0
   44.7580   33.5630   39.9930 H   0  0  0  0  0  0  0  0  0  0  0  0
   42.6640   36.3520   42.5040 H   0  0  0  0  0  0  0  0  0  0  0  0
   39.4530   33.0930   41.3250 F   0  0  0  0  0  0  0  0  0  0  0  0
   39.2520   33.4470   40.0280 C   0  0  0  0  0  0  0  0  0  0  0  0
   40.2750   34.1170   39.3490 C   0  0  0  0  0  0  0  0  0  0  0  0
   40.1480   34.5090   38.0360 C   0  0  0  0  0  0  0  0  0  0  0  0
   38.9450   34.2110   37.4000 C   0  0  0  0  0  0  0  0  0  0  0  0
   37.9020   33.5400   38.0570 C   0  0  0  0  0  0  0  0  0  0  0  0
   38.0640   33.1610   39.3760 C   0  0  0  0  0  0  0  0  0  0  0  0
   40.9420   35.0180   37.5420 H   0  0  0  0  0  0  0  0  0  0  0  0
   38.8810   34.5390   36.3610 H   0  0  0  0  0  0  0  0  0  0  0  0
   37.0110   33.3520   37.4910 H   0  0  0  0  0  0  0  0  0  0  0  0
   37.2620   32.6410   39.8940 H   0  0  0  0  0  0  0  0  0  0  0  0
  1 27  1  0  0  0  0
  1  2  1  0  0  0  0
  2  6  1  0  0  0  0
  3  2  1  0  0  0  0
  3  9  1  0  0  0  0
  4 11  1  0  0  0  0
  4  3  1  0  0  0  0
  5  4  1  0  0  0  0
  5 12  1  1  0  0  0
  5  1  1  0  0  0  0
  7  2  1  0  0  0  0
  8  3  1  0  0  0  0
 10  4  1  0  0  0  0
 13 14  1  0  0  0  0
 13 22  1  0  0  0  0
 14  5  1  0  0  0  0
 15 16  1  0  0  0  0
 15 14  2  0  0  0  0
 17 15  1  0  0  0  0
 18 17  1  0  0  0  0
 19 17  2  0  0  0  0
 19 20  1  0  0  0  0
 20 13  2  0  0  0  0
 21 24  1  0  0  0  0
 22 21  2  0  0  0  0
 22 23  1  0  0  0  0
 23 26  1  0  0  0  0
 25 23  1  0  0  0  0
 27 29  1  0  0  0  0
 27 28  1  0  0  0  0
 31 30  2  0  0  0  0
 31 27  1  0  0  0  0
 32 33  1  0  0  0  0
 33 34  2  0  0  0  0
 33 30  1  0  0  0  0
 34 39  1  0  0  0  0
 35 34  1  0  0  0  0
 36 35  2  0  0  0  0
 37 36  1  0  0  0  0
 37 32  2  0  0  0  0
 38 32  1  0  0  0  0
 41 40  1  0  0  0  0
 42 41  2  0  0  0  0
 42 36  1  0  0  0  0
 43 42  1  0  0  0  0
 44 43  2  0  0  0  0
 44 45  1  0  0  0  0
 45 46  2  0  0  0  0
 46 50  1  0  0  0  0
 46 41  1  0  0  0  0
 47 43  1  0  0  0  0
 48 44  1  0  0  0  0
 49 45  1  0  0  0  0
M  END
>  <minimizedAffinity>
-6.46756935

>  <minimizedRMSD>
0.814631879

$$$$
