
     RDKit          3D

 28 29  0  0  0  0  0  0  0  0999 V2000
   44.3840   35.7748   44.4307 C   0  0  0  0  0  0  0  0  0  0  0  0
   44.6714   35.0523   43.2637 C   0  0  0  0  0  0  0  0  0  0  0  0
   45.3039   33.8013   43.3849 C   0  0  0  0  0  0  0  0  0  0  0  0
   45.5841   33.3978   44.6274 N   0  0  0  0  0  0  0  0  0  0  0  0
   45.3050   34.0960   45.7340 C   0  0  0  0  0  0  0  0  0  0  0  0
   44.6940   35.3121   45.6764 N   0  0  0  0  0  0  0  0  0  0  0  0
   44.2565   35.7316   42.0200 C   0  0  0  0  0  0  0  0  0  0  0  0
   43.9031   36.7434   44.4708 H   0  0  0  0  0  0  0  0  0  0  0  0
   45.6455   33.5264   46.6046 H   0  0  0  0  0  0  0  0  0  0  0  0
   44.8851   35.3399   41.1750 H   0  0  0  0  0  0  0  0  0  0  0  0
   44.4836   36.8108   42.1130 H   0  0  0  0  0  0  0  0  0  0  0  0
   43.1894   35.5434   41.7756 H   0  0  0  0  0  0  0  0  0  0  0  0
   47.6008   35.4698   42.4800 N   0  0  0  0  0  0  0  0  0  0  0  0
   47.1334   34.9910   41.4073 C   0  0  0  0  0  0  0  0  0  0  0  0
   47.4157   35.8570   40.2878 N   0  0  0  0  0  0  0  0  0  0  0  0
   46.4017   33.7523   41.2344 C   0  0  0  0  0  0  0  0  0  0  0  0
   45.5426   33.1703   42.1289 C   0  0  0  0  0  0  0  0  0  0  0  0
   44.9448   31.9705   41.7514 C   0  0  0  0  0  0  0  0  0  0  0  0
   44.2584   31.4706   42.4232 H   0  0  0  0  0  0  0  0  0  0  0  0
   45.1660   31.3376   40.5365 C   0  0  0  0  0  0  0  0  0  0  0  0
   44.6860   30.4091   40.2773 H   0  0  0  0  0  0  0  0  0  0  0  0
   46.0392   31.9449   39.6478 C   0  0  0  0  0  0  0  0  0  0  0  0
   46.6297   33.1326   40.0238 C   0  0  0  0  0  0  0  0  0  0  0  0
   48.1144   36.3398   42.6112 H   0  0  0  0  0  0  0  0  0  0  0  0
   48.3171   35.7539   39.7830 H   0  0  0  0  0  0  0  0  0  0  0  0
   46.6704   36.5472   40.0571 H   0  0  0  0  0  0  0  0  0  0  0  0
   46.1949   31.4397   38.7163 H   0  0  0  0  0  0  0  0  0  0  0  0
   47.2905   33.5203   39.2583 H   0  0  0  0  0  0  0  0  0  0  0  0
  1  6  2  0
  2  3  2  0
  2  1  1  0
  3  4  1  0
  4  5  2  0
  6  5  1  0
  7  2  1  0
  1  8  1  0
  5  9  1  0
  7 10  1  0
  7 11  1  0
  7 12  1  0
 13 14  2  3
 14 15  1  0
 14 16  1  0
 16 17  2  0
 17 18  1  0
 18 19  1  0
 18 20  2  0
 20 21  1  0
 20 22  1  0
 22 23  2  0
 23 16  1  0
 13 24  1  0
 15 25  1  0
 15 26  1  0
 22 27  1  0
 23 28  1  0
  3 17  1  0
M  ISO  7   8  14   9  14  10   8  11   8  12   8  19  15  21  16
M  END
>  <DihAtoms>  (1) 
1,2,16,15

>  <DihDeg>  (1) 
124.43792537475268

$$$$
