REMARK  Name = 
REMARK  4 active torsions:
REMARK  status: ('A' for Active; 'I' for Inactive)
REMARK    1  A    between atoms: C_3  and  C_12
REMARK    2  A    between atoms: C_7  and  C_14
REMARK    3  A    between atoms: C_17  and  C_30
REMARK    4  A    between atoms: C_27  and  C_29
REMARK                            x       y       z     vdW  Elec       q    Type
REMARK                         _______ _______ _______ _____ _____    ______ ____
ROOT
ATOM      1  C   UNL     1      46.610  33.063  38.535  0.00  0.00    +0.000 A 
ATOM      2  C   UNL     1      46.849  33.595  37.277  0.00  0.00    +0.000 A 
ATOM      3  S   UNL     1      46.183  32.278  36.154  0.00  0.00    +0.000 S 
ATOM      4  C   UNL     1      45.693  31.229  37.654  0.00  0.00    +0.000 A 
ATOM      5  N   UNL     1      46.037  31.900  38.477  0.00  0.00    +0.000 NA
ATOM      6  H   UNL     1      47.306  34.534  36.987  0.00  0.00    +0.000 HD
ENDROOT
BRANCH   1  13
ATOM      7 CL   UNL     1      44.829  33.176  41.103  0.00  0.00    +0.000 Cl
ATOM      8  C   UNL     1      46.341  33.969  40.897  0.00  0.00    +0.000 A 
ATOM      9  C   UNL     1      46.861  34.732  41.915  0.00  0.00    +0.000 A 
ATOM     10  C   UNL     1      48.089  35.395  41.791  0.00  0.00    +0.000 A 
ATOM     11  C   UNL     1      48.738  35.236  40.596  0.00  0.00    +0.000 A 
ATOM     12  C   UNL     1      48.225  34.482  39.588  0.00  0.00    +0.000 A 
ATOM     13  C   UNL     1      47.006  33.827  39.717  0.00  0.00    +0.000 A 
ATOM     14  H   UNL     1      48.496  35.995  42.594  0.00  0.00    +0.000 HD
ATOM     15  H   UNL     1      49.690  35.752  40.505  0.00  0.00    +0.000 HD
ATOM     16  H   UNL     1      48.834  34.431  38.684  0.00  0.00    +0.000 HD
BRANCH   9  21
ATOM     17  C   UNL     1      45.595  34.062  45.321  0.00  0.00    +0.000 A 
ATOM     18  C   UNL     1      44.715  35.113  45.523  0.00  0.00    +0.000 A 
ATOM     19  C   UNL     1      44.554  36.042  44.506  0.00  0.00    +0.000 A 
ATOM     20  N   UNL     1      45.256  35.896  43.357  0.00  0.00    +0.000 NA
ATOM     21  C   UNL     1      46.118  34.863  43.166  0.00  0.00    +0.000 A 
ATOM     22  N   UNL     1      46.270  33.963  44.159  0.00  0.00    +0.000 NA
ATOM     23  H   UNL     1      45.755  33.312  46.085  0.00  0.00    +0.000 HD
ATOM     24  H   UNL     1      44.159  35.235  46.424  0.00  0.00    +0.000 HD
ATOM     25  H   UNL     1      43.883  36.907  44.567  0.00  0.00    +0.000 HD
ENDBRANCH   9  21
ENDBRANCH   1  13
BRANCH   4  27
ATOM     26  C   UNL     1      45.785  28.795  37.427  0.00  0.00    +0.000 A 
ATOM     27  C   UNL     1      45.057  29.959  37.334  0.00  0.00    +0.000 A 
ATOM     28  C   UNL     1      43.743  29.792  36.954  0.00  0.00    +0.000 A 
ATOM     29  H   UNL     1      43.123  30.664  36.864  0.00  0.00    +0.000 HD
ATOM     30  C   UNL     1      43.265  28.535  36.703  0.00  0.00    +0.000 A 
ATOM     31  H   UNL     1      42.223  28.489  36.409  0.00  0.00    +0.000 HD
ATOM     32  C   UNL     1      44.011  27.378  36.802  0.00  0.00    +0.000 A 
ATOM     33  C   UNL     1      45.324  27.530  37.181  0.00  0.00    +0.000 A 
BRANCH  26  35
ATOM     34  N   UNL     1      48.389  29.296  37.834  0.00  0.00    +0.000 NA
ATOM     35  C   UNL     1      47.187  28.882  37.785  0.00  0.00    +0.000 C 
ATOM     36  N   UNL     1      47.693  27.924  38.704  0.00  0.00    +0.000 N 
ATOM     37  H   UNL     1      48.759  30.106  37.306  0.00  0.00    +0.000 HD
ATOM     38  H   UNL     1      47.100  27.449  39.427  0.00  0.00    +0.000 HD
ATOM     39  H   UNL     1      48.097  27.226  39.363  0.00  0.00    +0.000 HD
ENDBRANCH  26  35
ENDBRANCH   4  27
TORSDOF 4
