REMARK  Name = 
REMARK  5 active torsions:
REMARK  status: ('A' for Active; 'I' for Inactive)
REMARK    1  A    between atoms: C_2  and  N_23
REMARK    2  A    between atoms: C_5  and  C_12
REMARK    3  A    between atoms: C_19  and  C_44
REMARK    4  A    between atoms: C_20  and  N_22
REMARK    5  A    between atoms: C_41  and  C_43
REMARK                            x       y       z     vdW  Elec       q    Type
REMARK                         _______ _______ _______ _____ _____    ______ ____
ROOT
ATOM      1  C   UNL     1      45.753  33.808  45.194  0.00  0.00    +0.000 A 
ATOM      2  N   UNL     1      44.883  34.780  45.490  0.00  0.00    +0.000 NA
ATOM      3  C   UNL     1      44.603  35.819  44.715  0.00  0.00    +0.000 A 
ATOM      4  N   UNL     1      45.219  35.953  43.521  0.00  0.00    +0.000 NA
ATOM      5  C   UNL     1      46.119  35.050  43.096  0.00  0.00    +0.000 A 
ATOM      6  C   UNL     1      46.766  35.170  41.883  0.00  0.00    +0.000 A 
ATOM      7  C   UNL     1      47.682  34.261  41.458  0.00  0.00    +0.000 A 
ATOM      8  C   UNL     1      47.947  33.202  42.286  0.00  0.00    +0.000 A 
ATOM      9  C   UNL     1      47.274  33.108  43.507  0.00  0.00    +0.000 A 
ATOM     10  C   UNL     1      46.360  33.993  43.957  0.00  0.00    +0.000 A 
ATOM     11  H   UNL     1      43.879  36.570  45.030  0.00  0.00    +0.000 HD
ATOM     12  H   UNL     1      46.530  36.021  41.254  0.00  0.00    +0.000 HD
ATOM     13  H   UNL     1      48.150  34.419  40.496  0.00  0.00    +0.000 HD
ENDROOT
BRANCH   1  18
ATOM     14  C   UNL     1      47.470  32.061  47.854  0.00  0.00    +0.000 A 
ATOM     15  C   UNL     1      46.933  30.769  47.891  0.00  0.00    +0.000 A 
ATOM     16  C   UNL     1      45.941  30.492  46.990  0.00  0.00    +0.000 A 
ATOM     17  N   UNL     1      45.535  31.430  46.131  0.00  0.00    +0.000 NA
ATOM     18  C   UNL     1      46.039  32.657  46.083  0.00  0.00    +0.000 A 
ATOM     19  N   UNL     1      47.010  32.949  46.962  0.00  0.00    +0.000 NA
ATOM     20  N   UNL     1      45.346  29.251  46.988  0.00  0.00    +0.000 N 
ATOM     21  C   UNL     1      44.152  28.890  46.176  0.00  0.00    +0.000 C 
ATOM     22  C   UNL     1      44.043  27.391  46.251  0.00  0.00    +0.000 C 
ATOM     23  C   UNL     1      44.657  27.083  47.579  0.00  0.00    +0.000 C 
ATOM     24  C   UNL     1      45.735  28.098  47.746  0.00  0.00    +0.000 C 
ATOM     25  H   UNL     1      48.264  32.329  48.557  0.00  0.00    +0.000 HD
ATOM     26  H   UNL     1      44.319  29.189  45.119  0.00  0.00    +0.000 HD
ATOM     27  H   UNL     1      43.251  29.394  46.620  0.00  0.00    +0.000 HD
ATOM     28  H   UNL     1      42.999  27.063  46.156  0.00  0.00    +0.000 HD
ATOM     29  H   UNL     1      44.702  26.959  45.459  0.00  0.00    +0.000 HD
ATOM     30  H   UNL     1      43.850  27.193  48.333  0.00  0.00    +0.000 HD
ATOM     31  H   UNL     1      45.036  26.033  47.621  0.00  0.00    +0.000 HD
ATOM     32  H   UNL     1      45.728  28.298  48.860  0.00  0.00    +0.000 HD
ATOM     33  H   UNL     1      46.682  27.640  47.403  0.00  0.00    +0.000 HD
BRANCH  15  34
ATOM     34  N   UNL     1      47.473  29.877  48.770  0.00  0.00    +0.000 N 
ATOM     35  H   UNL     1      48.143  29.087  48.639  0.00  0.00    +0.000 HD
ATOM     36  H   UNL     1      47.198  29.948  49.794  0.00  0.00    +0.000 HD
ENDBRANCH  15  34
ENDBRANCH   1  18
BRANCH   8  38
ATOM     37  C   UNL     1      48.838  31.493  40.633  0.00  0.00    +0.000 A 
ATOM     38  C   UNL     1      48.938  32.239  41.806  0.00  0.00    +0.000 A 
ATOM     39  C   UNL     1      50.039  32.116  42.646  0.00  0.00    +0.000 A 
ATOM     40  H   UNL     1      50.160  32.674  43.567  0.00  0.00    +0.000 HD
ATOM     41  C   UNL     1      51.065  31.233  42.315  0.00  0.00    +0.000 A 
ATOM     42  H   UNL     1      51.931  31.147  42.991  0.00  0.00    +0.000 HD
ATOM     43  C   UNL     1      50.967  30.493  41.153  0.00  0.00    +0.000 A 
ATOM     44  C   UNL     1      49.870  30.627  40.331  0.00  0.00    +0.000 A 
BRANCH  37  46
ATOM     45  N   UNL     1      47.061  32.846  39.841  0.00  0.00    +0.000 NA
ATOM     46  C   UNL     1      47.640  31.701  39.827  0.00  0.00    +0.000 C 
ATOM     47  N   UNL     1      47.281  30.514  39.104  0.00  0.00    +0.000 N 
ATOM     48  H   UNL     1      46.203  33.031  39.278  0.00  0.00    +0.000 HD
ATOM     49  H   UNL     1      46.417  29.934  39.155  0.00  0.00    +0.000 HD
ATOM     50  H   UNL     1      47.920  30.079  38.386  0.00  0.00    +0.000 HD
ENDBRANCH  37  46
ENDBRANCH   8  38
BRANCH   9  51
ATOM     51  N   UNL     1      47.677  31.929  44.211  0.00  0.00    +0.000 N 
ATOM     52  H   UNL     1      48.396  31.712  44.931  0.00  0.00    +0.000 HD
ATOM     53  H   UNL     1      47.039  31.187  43.828  0.00  0.00    +0.000 HD
ENDBRANCH   9  51
TORSDOF 5
