
 OpenBabel03242521503D

 25 26  0  0  0  0  0  0  0  0999 V2000
   37.8420   30.3490   41.5530 C   0  0  0  0  0  0  0  0  0  0  0  0
   39.1840   30.4360   41.2530 C   0  0  0  0  0  0  0  0  0  0  0  0
   40.0440   29.4710   41.7380 C   0  0  0  0  0  0  0  0  0  0  0  0
   41.1240   29.4430   41.5600 H   0  0  0  0  0  0  0  0  0  0  0  0
   39.5020   28.4520   42.5120 C   0  0  0  0  0  0  0  0  0  0  0  0
   40.1240   27.6780   42.9100 H   0  0  0  0  0  0  0  0  0  0  0  0
   38.1600   28.3540   42.8200 C   0  0  0  0  0  3  0  0  0  0  0  0
   37.3070   29.3220   42.3320 C   0  0  0  0  0  3  0  0  0  0  0  0
   40.7550   33.6010   40.2560 C   0  0  0  0  0  0  0  0  0  0  0  0
   40.7260   33.5220   38.8680 C   0  0  0  0  0  0  0  0  0  0  0  0
   40.1640   32.3760   38.2820 C   0  0  0  0  0  0  0  0  0  0  0  0
   39.6770   31.4070   39.1060 N   0  0  0  0  0  0  0  0  0  0  0  0
   39.7250   31.5260   40.4480 C   0  0  0  0  0  0  0  0  0  0  0  0
   40.2590   32.6150   40.9890 N   0  0  0  0  0  0  0  0  0  0  0  0
   41.1650   34.4420   40.8110 H   0  0  0  0  0  0  0  0  0  0  0  0
   41.1410   34.3490   38.2860 H   0  0  0  0  0  0  0  0  0  0  0  0
   40.1290   32.2820   36.8810 N   0  0  0  0  0  0  0  0  0  0  0  0
   41.1170   32.0260   36.6150 H   0  0  0  0  0  0  0  0  0  0  0  0
   39.3840   32.4070   36.1670 H   0  0  0  0  0  0  0  0  0  0  0  0
   36.9800   32.5380   40.4410 N   0  0  0  0  0  0  0  0  0  0  0  0
   36.9500   31.3700   41.0150 C   0  0  0  0  0  0  0  0  0  0  0  0
   35.6500   30.8670   41.2440 N   0  0  0  0  0  0  0  0  0  0  0  0
   37.8500   33.0590   40.1970 H   0  0  0  0  0  0  0  0  0  0  0  0
   34.8320   30.2540   41.3110 H   0  0  0  0  0  0  0  0  0  0  0  0
   34.7130   31.2250   41.5850 H   0  0  0  0  0  0  0  0  0  0  0  0
  1  8  1  0  0  0  0
  2  1  2  0  0  0  0
  2  3  1  0  0  0  0
  3  5  2  0  0  0  0
  4  3  1  0  0  0  0
  5  7  1  0  0  0  0
  5  6  1  0  0  0  0
  8  7  2  0  0  0  0
  9 15  1  0  0  0  0
  9 14  1  0  0  0  0
 10  9  2  0  0  0  0
 11 10  1  0  0  0  0
 11 12  2  0  0  0  0
 12 13  1  0  0  0  0
 13 14  2  0  0  0  0
 13  2  1  0  0  0  0
 16 10  1  0  0  0  0
 17 11  1  0  0  0  0
 18 17  1  0  0  0  0
 19 17  1  0  0  0  0
 20 21  2  0  0  0  0
 21 22  1  0  0  0  0
 21  1  1  0  0  0  0
 22 24  1  0  0  0  0
 22 25  1  0  0  0  0
 23 20  1  0  0  0  0
M  END
>  <minimizedAffinity>
-5.72200489

$$$$

 OpenBabel03242521503D

 25 26  0  0  0  0  0  0  0  0999 V2000
   37.2880   28.9730   42.0510 C   0  0  0  0  0  0  0  0  0  0  0  0
   38.5970   29.3690   41.8830 C   0  0  0  0  0  0  0  0  0  0  0  0
   39.5960   28.6840   42.5450 C   0  0  0  0  0  0  0  0  0  0  0  0
   40.6640   28.9130   42.4820 H   0  0  0  0  0  0  0  0  0  0  0  0
   39.2210   27.6180   43.3540 C   0  0  0  0  0  0  0  0  0  0  0  0
   39.9560   27.0520   43.8870 H   0  0  0  0  0  0  0  0  0  0  0  0
   37.9140   27.2120   43.5300 C   0  0  0  0  0  3  0  0  0  0  0  0
   36.9210   27.9010   42.8660 C   0  0  0  0  0  3  0  0  0  0  0  0
   39.7570   31.3800   39.0390 C   0  0  0  0  0  0  0  0  0  0  0  0
   39.5970   32.6790   39.5090 C   0  0  0  0  0  0  0  0  0  0  0  0
   39.0890   32.8550   40.8060 C   0  0  0  0  0  0  0  0  0  0  0  0
   38.7840   31.7440   41.5330 N   0  0  0  0  0  0  0  0  0  0  0  0
   38.9560   30.5010   41.0360 C   0  0  0  0  0  0  0  0  0  0  0  0
   39.4360   30.3500   39.8080 N   0  0  0  0  0  0  0  0  0  0  0  0
   40.1410   31.1310   38.0510 H   0  0  0  0  0  0  0  0  0  0  0  0
   39.8680   33.5110   38.8550 H   0  0  0  0  0  0  0  0  0  0  0  0
   38.9220   34.1610   41.2940 N   0  0  0  0  0  0  0  0  0  0  0  0
   38.0420   34.5020   40.8220 H   0  0  0  0  0  0  0  0  0  0  0  0
   39.4550   34.7590   41.9560 H   0  0  0  0  0  0  0  0  0  0  0  0
   35.6680   30.8640   41.2950 N   0  0  0  0  0  0  0  0  0  0  0  0
   36.2510   29.7000   41.3270 C   0  0  0  0  0  0  0  0  0  0  0  0
   35.7490   28.7720   40.3890 N   0  0  0  0  0  0  0  0  0  0  0  0
   35.9080   31.6670   41.9150 H   0  0  0  0  0  0  0  0  0  0  0  0
   35.6740   28.0430   39.6720 H   0  0  0  0  0  0  0  0  0  0  0  0
   34.8100   28.4570   40.0120 H   0  0  0  0  0  0  0  0  0  0  0  0
  1  8  1  0  0  0  0
  2  1  2  0  0  0  0
  2  3  1  0  0  0  0
  3  5  2  0  0  0  0
  4  3  1  0  0  0  0
  5  7  1  0  0  0  0
  5  6  1  0  0  0  0
  8  7  2  0  0  0  0
  9 10  2  0  0  0  0
  9 14  1  0  0  0  0
 10 11  1  0  0  0  0
 11 17  1  0  0  0  0
 11 12  2  0  0  0  0
 13 12  1  0  0  0  0
 13  2  1  0  0  0  0
 14 13  2  0  0  0  0
 15  9  1  0  0  0  0
 16 10  1  0  0  0  0
 17 19  1  0  0  0  0
 18 17  1  0  0  0  0
 20 21  2  0  0  0  0
 20 23  1  0  0  0  0
 21  1  1  0  0  0  0
 22 21  1  0  0  0  0
 24 22  1  0  0  0  0
 25 22  1  0  0  0  0
M  END
>  <minimizedAffinity>
-5.50547075

$$$$

 OpenBabel03242521503D

 25 26  0  0  0  0  0  0  0  0999 V2000
   36.6720   30.3340   38.1600 C   0  0  0  0  0  0  0  0  0  0  0  0
   36.6630   30.8190   39.4500 C   0  0  0  0  0  0  0  0  0  0  0  0
   35.7870   30.2710   40.3660 C   0  0  0  0  0  0  0  0  0  0  0  0
   35.6970   30.5780   41.4120 H   0  0  0  0  0  0  0  0  0  0  0  0
   34.9530   29.2480   39.9310 C   0  0  0  0  0  0  0  0  0  0  0  0
   34.2580   28.7870   40.6010 H   0  0  0  0  0  0  0  0  0  0  0  0
   34.9530   28.7540   38.6420 C   0  0  0  0  0  3  0  0  0  0  0  0
   35.8310   29.3060   37.7320 C   0  0  0  0  0  3  0  0  0  0  0  0
   38.0850   34.1610   39.9810 C   0  0  0  0  0  0  0  0  0  0  0  0
   39.2380   33.8800   40.7080 C   0  0  0  0  0  0  0  0  0  0  0  0
   39.5180   32.5380   41.0120 C   0  0  0  0  0  0  0  0  0  0  0  0
   38.6470   31.5860   40.5750 N   0  0  0  0  0  0  0  0  0  0  0  0
   37.5420   31.9040   39.8720 C   0  0  0  0  0  0  0  0  0  0  0  0
   37.2890   33.1770   39.5920 N   0  0  0  0  0  0  0  0  0  0  0  0
   37.7750   35.1630   39.6930 H   0  0  0  0  0  0  0  0  0  0  0  0
   39.8780   34.7100   41.0180 H   0  0  0  0  0  0  0  0  0  0  0  0
   40.6780   32.2400   41.7460 N   0  0  0  0  0  0  0  0  0  0  0  0
   40.4250   32.4910   42.7390 H   0  0  0  0  0  0  0  0  0  0  0  0
   41.6140   31.8630   41.4970 H   0  0  0  0  0  0  0  0  0  0  0  0
   37.8280   32.0070   36.5360 N   0  0  0  0  0  0  0  0  0  0  0  0
   37.6180   30.9160   37.2140 C   0  0  0  0  0  0  0  0  0  0  0  0
   38.5760   29.9020   36.9950 N   0  0  0  0  0  0  0  0  0  0  0  0
   37.2230   32.8560   36.5730 H   0  0  0  0  0  0  0  0  0  0  0  0
   39.2500   29.1410   37.1300 H   0  0  0  0  0  0  0  0  0  0  0  0
   39.1020   29.4730   36.1810 H   0  0  0  0  0  0  0  0  0  0  0  0
  1  2  1  0  0  0  0
  2 13  1  0  0  0  0
  2  3  2  0  0  0  0
  3  4  1  0  0  0  0
  5  3  1  0  0  0  0
  5  6  1  0  0  0  0
  7  5  2  0  0  0  0
  8  1  2  0  0  0  0
  8  7  1  0  0  0  0
  9 10  1  0  0  0  0
 10 11  2  0  0  0  0
 10 16  1  0  0  0  0
 11 17  1  0  0  0  0
 12 11  1  0  0  0  0
 13 12  2  0  0  0  0
 14 13  1  0  0  0  0
 14  9  2  0  0  0  0
 15  9  1  0  0  0  0
 17 18  1  0  0  0  0
 19 17  1  0  0  0  0
 20 23  1  0  0  0  0
 20 21  2  0  0  0  0
 21  1  1  0  0  0  0
 22 24  1  0  0  0  0
 22 21  1  0  0  0  0
 25 22  1  0  0  0  0
M  END
>  <minimizedAffinity>
-5.3886981

$$$$

 OpenBabel03242521503D

 25 26  0  0  0  0  0  0  0  0999 V2000
   36.1090   29.9360   39.0150 C   0  0  0  0  0  0  0  0  0  0  0  0
   37.0070   30.8210   38.4580 C   0  0  0  0  0  0  0  0  0  0  0  0
   37.3160   30.7080   37.1180 C   0  0  0  0  0  0  0  0  0  0  0  0
   38.0120   31.3550   36.5760 H   0  0  0  0  0  0  0  0  0  0  0  0
   36.6960   29.6960   36.3950 C   0  0  0  0  0  0  0  0  0  0  0  0
   36.8980   29.5670   35.3520 H   0  0  0  0  0  0  0  0  0  0  0  0
   35.7960   28.8040   36.9410 C   0  0  0  0  0  3  0  0  0  0  0  0
   35.4910   28.9230   38.2820 C   0  0  0  0  0  3  0  0  0  0  0  0
   37.8330   34.0750   39.9430 C   0  0  0  0  0  0  0  0  0  0  0  0
   38.9080   33.7600   40.7680 C   0  0  0  0  0  0  0  0  0  0  0  0
   39.3420   32.4260   40.8080 C   0  0  0  0  0  0  0  0  0  0  0  0
   38.6890   31.5140   40.0350 N   0  0  0  0  0  0  0  0  0  0  0  0
   37.6510   31.8650   39.2480 C   0  0  0  0  0  0  0  0  0  0  0  0
   37.2500   33.1300   39.2210 N   0  0  0  0  0  0  0  0  0  0  0  0
   37.4170   35.0750   39.8370 H   0  0  0  0  0  0  0  0  0  0  0  0
   39.3710   34.5580   41.3540 H   0  0  0  0  0  0  0  0  0  0  0  0
   40.4260   32.0930   41.6370 N   0  0  0  0  0  0  0  0  0  0  0  0
   40.0100   32.0660   42.6060 H   0  0  0  0  0  0  0  0  0  0  0  0
   41.4320   31.8960   41.4670 H   0  0  0  0  0  0  0  0  0  0  0  0
   35.6630   31.0010   41.3470 N   0  0  0  0  0  0  0  0  0  0  0  0
   35.7840   30.0860   40.4300 C   0  0  0  0  0  0  0  0  0  0  0  0
   35.5600   28.7690   40.8880 N   0  0  0  0  0  0  0  0  0  0  0  0
   35.7920   32.0230   41.1890 H   0  0  0  0  0  0  0  0  0  0  0  0
   35.2470   27.7960   40.9670 H   0  0  0  0  0  0  0  0  0  0  0  0
   35.8060   28.1720   41.7280 H   0  0  0  0  0  0  0  0  0  0  0  0
  1 21  1  0  0  0  0
  2  1  1  0  0  0  0
  2 13  1  0  0  0  0
  3  2  2  0  0  0  0
  4  3  1  0  0  0  0
  5  7  2  0  0  0  0
  5  3  1  0  0  0  0
  6  5  1  0  0  0  0
  7  8  1  0  0  0  0
  8  1  2  0  0  0  0
  9 10  1  0  0  0  0
 10 11  2  0  0  0  0
 10 16  1  0  0  0  0
 11 17  1  0  0  0  0
 12 11  1  0  0  0  0
 13 12  2  0  0  0  0
 14 13  1  0  0  0  0
 14  9  2  0  0  0  0
 15  9  1  0  0  0  0
 17 18  1  0  0  0  0
 19 17  1  0  0  0  0
 21 22  1  0  0  0  0
 21 20  2  0  0  0  0
 22 24  1  0  0  0  0
 22 25  1  0  0  0  0
 23 20  1  0  0  0  0
M  END
>  <minimizedAffinity>
-5.38685989

$$$$

 OpenBabel03242521503D

 25 26  0  0  0  0  0  0  0  0999 V2000
   37.1110   26.2710   41.8590 C   0  0  0  0  0  0  0  0  0  0  0  0
   36.9210   26.7350   40.5750 C   0  0  0  0  0  0  0  0  0  0  0  0
   36.5790   25.8400   39.5820 C   0  0  0  0  0  0  0  0  0  0  0  0
   36.4040   26.0990   38.5330 H   0  0  0  0  0  0  0  0  0  0  0  0
   36.4440   24.5030   39.9350 C   0  0  0  0  0  0  0  0  0  0  0  0
   36.1790   23.7680   39.2040 H   0  0  0  0  0  0  0  0  0  0  0  0
   36.6320   24.0260   41.2170 C   0  0  0  0  0  3  0  0  0  0  0  0
   36.9730   24.9270   42.2050 C   0  0  0  0  0  3  0  0  0  0  0  0
   38.0460   29.8350   38.9620 C   0  0  0  0  0  0  0  0  0  0  0  0
   37.3230   30.8050   39.6480 C   0  0  0  0  0  0  0  0  0  0  0  0
   36.4510   30.3850   40.6640 C   0  0  0  0  0  0  0  0  0  0  0  0
   36.3620   29.0510   40.9240 N   0  0  0  0  0  0  0  0  0  0  0  0
   37.0830   28.1440   40.2330 C   0  0  0  0  0  0  0  0  0  0  0  0
   37.9040   28.5560   39.2740 N   0  0  0  0  0  0  0  0  0  0  0  0
   38.7480   30.0510   38.1590 H   0  0  0  0  0  0  0  0  0  0  0  0
   37.4580   31.8540   39.3710 H   0  0  0  0  0  0  0  0  0  0  0  0
   35.7140   31.3540   41.3650 N   0  0  0  0  0  0  0  0  0  0  0  0
   34.9360   31.6160   40.7010 H   0  0  0  0  0  0  0  0  0  0  0  0
   35.8020   31.7910   42.3040 H   0  0  0  0  0  0  0  0  0  0  0  0
   38.4690   27.9090   43.3570 N   0  0  0  0  0  0  0  0  0  0  0  0
   37.4530   27.2390   42.8960 C   0  0  0  0  0  0  0  0  0  0  0  0
   36.2470   27.4530   43.5990 N   0  0  0  0  0  0  0  0  0  0  0  0
   39.4340   27.8730   42.9620 H   0  0  0  0  0  0  0  0  0  0  0  0
   35.2640   27.6190   43.8340 H   0  0  0  0  0  0  0  0  0  0  0  0
   35.9230   27.5430   44.6030 H   0  0  0  0  0  0  0  0  0  0  0  0
  1  8  1  0  0  0  0
  1 21  1  0  0  0  0
  2  1  2  0  0  0  0
  3  5  2  0  0  0  0
  3  2  1  0  0  0  0
  4  3  1  0  0  0  0
  5  7  1  0  0  0  0
  6  5  1  0  0  0  0
  7  8  2  0  0  0  0
  9 14  2  0  0  0  0
  9 10  1  0  0  0  0
 10 11  2  0  0  0  0
 11 12  1  0  0  0  0
 11 17  1  0  0  0  0
 13  2  1  0  0  0  0
 13 12  2  0  0  0  0
 14 13  1  0  0  0  0
 15  9  1  0  0  0  0
 16 10  1  0  0  0  0
 17 19  1  0  0  0  0
 18 17  1  0  0  0  0
 21 20  2  0  0  0  0
 21 22  1  0  0  0  0
 22 24  1  0  0  0  0
 22 25  1  0  0  0  0
 23 20  1  0  0  0  0
M  END
>  <minimizedAffinity>
-5.30963182

$$$$

 OpenBabel03242521503D

 25 26  0  0  0  0  0  0  0  0999 V2000
   37.3870   29.1730   42.1480 C   0  0  0  0  0  0  0  0  0  0  0  0
   38.6730   29.5620   41.8440 C   0  0  0  0  0  0  0  0  0  0  0  0
   39.7320   28.8960   42.4290 C   0  0  0  0  0  0  0  0  0  0  0  0
   40.7890   29.1220   42.2570 H   0  0  0  0  0  0  0  0  0  0  0  0
   39.4380   27.8570   43.3020 C   0  0  0  0  0  0  0  0  0  0  0  0
   40.2210   27.3060   43.7800 H   0  0  0  0  0  0  0  0  0  0  0  0
   38.1540   27.4570   43.6140 C   0  0  0  0  0  3  0  0  0  0  0  0
   37.1010   28.1280   43.0260 C   0  0  0  0  0  3  0  0  0  0  0  0
   39.2590   32.9320   40.5090 C   0  0  0  0  0  0  0  0  0  0  0  0
   39.4810   32.6810   39.1590 C   0  0  0  0  0  0  0  0  0  0  0  0
   39.4270   31.3510   38.7150 C   0  0  0  0  0  0  0  0  0  0  0  0
   39.1580   30.3790   39.6310 N   0  0  0  0  0  0  0  0  0  0  0  0
   38.9490   30.6680   40.9320 C   0  0  0  0  0  0  0  0  0  0  0  0
   39.0030   31.9310   41.3380 N   0  0  0  0  0  0  0  0  0  0  0  0
   39.2770   33.9230   40.9570 H   0  0  0  0  0  0  0  0  0  0  0  0
   39.6900   33.5250   38.4960 H   0  0  0  0  0  0  0  0  0  0  0  0
   39.6490   31.0830   37.3550 N   0  0  0  0  0  0  0  0  0  0  0  0
   40.6960   31.1560   37.2460 H   0  0  0  0  0  0  0  0  0  0  0  0
   39.0300   30.8540   36.5520 H   0  0  0  0  0  0  0  0  0  0  0  0
   35.8450   31.0860   41.2910 N   0  0  0  0  0  0  0  0  0  0  0  0
   36.2850   29.8790   41.5040 C   0  0  0  0  0  0  0  0  0  0  0  0
   35.4590   28.8580   40.9840 N   0  0  0  0  0  0  0  0  0  0  0  0
   36.3240   31.9580   41.6020 H   0  0  0  0  0  0  0  0  0  0  0  0
   35.1210   28.0070   40.5250 H   0  0  0  0  0  0  0  0  0  0  0  0
   34.4260   28.6310   40.9240 H   0  0  0  0  0  0  0  0  0  0  0  0
  1  8  1  0  0  0  0
  2  1  2  0  0  0  0
  2  3  1  0  0  0  0
  3  5  2  0  0  0  0
  4  3  1  0  0  0  0
  5  7  1  0  0  0  0
  5  6  1  0  0  0  0
  8  7  2  0  0  0  0
  9 15  1  0  0  0  0
  9 14  1  0  0  0  0
 10  9  2  0  0  0  0
 11 10  1  0  0  0  0
 11 12  2  0  0  0  0
 12 13  1  0  0  0  0
 13 14  2  0  0  0  0
 13  2  1  0  0  0  0
 16 10  1  0  0  0  0
 17 11  1  0  0  0  0
 18 17  1  0  0  0  0
 19 17  1  0  0  0  0
 20 21  2  0  0  0  0
 20 23  1  0  0  0  0
 21  1  1  0  0  0  0
 22 21  1  0  0  0  0
 24 22  1  0  0  0  0
 25 22  1  0  0  0  0
M  END
>  <minimizedAffinity>
-5.30405617

$$$$

 OpenBabel03242521503D

 25 26  0  0  0  0  0  0  0  0999 V2000
   37.1640   29.2960   41.6770 C   0  0  0  0  0  0  0  0  0  0  0  0
   36.7860   28.2210   40.9020 C   0  0  0  0  0  0  0  0  0  0  0  0
   36.9220   26.9460   41.4130 C   0  0  0  0  0  0  0  0  0  0  0  0
   36.6520   26.0250   40.8860 H   0  0  0  0  0  0  0  0  0  0  0  0
   37.4390   26.8150   42.6950 C   0  0  0  0  0  0  0  0  0  0  0  0
   37.5630   25.8490   43.1390 H   0  0  0  0  0  0  0  0  0  0  0  0
   37.8220   27.8830   43.4810 C   0  0  0  0  0  3  0  0  0  0  0  0
   37.6830   29.1550   42.9650 C   0  0  0  0  0  3  0  0  0  0  0  0
   36.5510   28.5200   37.2510 C   0  0  0  0  0  0  0  0  0  0  0  0
   35.1870   28.7100   37.0560 C   0  0  0  0  0  0  0  0  0  0  0  0
   34.3550   28.7350   38.1860 C   0  0  0  0  0  0  0  0  0  0  0  0
   34.9290   28.5730   39.4110 N   0  0  0  0  0  0  0  0  0  0  0  0
   36.2580   28.3920   39.5530 C   0  0  0  0  0  0  0  0  0  0  0  0
   37.0330   28.3700   38.4750 N   0  0  0  0  0  0  0  0  0  0  0  0
   37.2840   28.4850   36.4470 H   0  0  0  0  0  0  0  0  0  0  0  0
   34.8140   28.8310   36.0360 H   0  0  0  0  0  0  0  0  0  0  0  0
   32.9750   28.9260   38.0050 N   0  0  0  0  0  0  0  0  0  0  0  0
   32.6260   27.9860   37.6750 H   0  0  0  0  0  0  0  0  0  0  0  0
   32.3340   29.7350   38.1290 H   0  0  0  0  0  0  0  0  0  0  0  0
   37.6640   31.5680   40.5100 N   0  0  0  0  0  0  0  0  0  0  0  0
   36.9950   30.6360   41.1240 C   0  0  0  0  0  0  0  0  0  0  0  0
   35.6510   30.9700   41.4000 N   0  0  0  0  0  0  0  0  0  0  0  0
   38.6650   31.4940   40.2280 H   0  0  0  0  0  0  0  0  0  0  0  0
   34.6320   30.9360   41.5080 H   0  0  0  0  0  0  0  0  0  0  0  0
   35.1000   31.8050   41.7500 H   0  0  0  0  0  0  0  0  0  0  0  0
  1  8  1  0  0  0  0
  2  3  1  0  0  0  0
  2  1  2  0  0  0  0
  3  5  2  0  0  0  0
  4  3  1  0  0  0  0
  5  6  1  0  0  0  0
  5  7  1  0  0  0  0
  8  7  2  0  0  0  0
  9 14  1  0  0  0  0
 10  9  2  0  0  0  0
 10 11  1  0  0  0  0
 11 12  2  0  0  0  0
 12 13  1  0  0  0  0
 13  2  1  0  0  0  0
 14 13  2  0  0  0  0
 15  9  1  0  0  0  0
 16 10  1  0  0  0  0
 17 19  1  0  0  0  0
 17 11  1  0  0  0  0
 18 17  1  0  0  0  0
 20 21  2  0  0  0  0
 21 22  1  0  0  0  0
 21  1  1  0  0  0  0
 22 24  1  0  0  0  0
 22 25  1  0  0  0  0
 23 20  1  0  0  0  0
M  END
>  <minimizedAffinity>
-5.21355581

$$$$

 OpenBabel03242521503D

 25 26  0  0  0  0  0  0  0  0999 V2000
   36.6000   30.1130   38.1400 C   0  0  0  0  0  0  0  0  0  0  0  0
   36.7680   30.1410   39.5080 C   0  0  0  0  0  0  0  0  0  0  0  0
   35.8130   29.5540   40.3140 C   0  0  0  0  0  0  0  0  0  0  0  0
   35.8490   29.5180   41.4070 H   0  0  0  0  0  0  0  0  0  0  0  0
   34.7220   28.9590   39.6940 C   0  0  0  0  0  0  0  0  0  0  0  0
   33.9550   28.4870   40.2720 H   0  0  0  0  0  0  0  0  0  0  0  0
   34.5420   28.9240   38.3260 C   0  0  0  0  0  3  0  0  0  0  0  0
   35.5000   29.5130   37.5260 C   0  0  0  0  0  3  0  0  0  0  0  0
   40.0750   30.7130   40.9950 C   0  0  0  0  0  0  0  0  0  0  0  0
   40.0390   32.0730   41.2840 C   0  0  0  0  0  0  0  0  0  0  0  0
   38.8740   32.7870   40.9630 C   0  0  0  0  0  0  0  0  0  0  0  0
   37.8420   32.1070   40.3900 N   0  0  0  0  0  0  0  0  0  0  0  0
   37.9200   30.7860   40.1290 C   0  0  0  0  0  0  0  0  0  0  0  0
   39.0290   30.1240   40.4370 N   0  0  0  0  0  0  0  0  0  0  0  0
   40.9270   30.0670   41.2020 H   0  0  0  0  0  0  0  0  0  0  0  0
   40.9160   32.5360   41.7440 H   0  0  0  0  0  0  0  0  0  0  0  0
   38.8240   34.1610   41.2480 N   0  0  0  0  0  0  0  0  0  0  0  0
   39.3960   34.6040   40.4810 H   0  0  0  0  0  0  0  0  0  0  0  0
   38.3720   34.7290   41.9920 H   0  0  0  0  0  0  0  0  0  0  0  0
   38.0740   31.8920   36.9430 N   0  0  0  0  0  0  0  0  0  0  0  0
   37.6300   30.7240   37.3080 C   0  0  0  0  0  0  0  0  0  0  0  0
   38.3140   29.6340   36.7260 N   0  0  0  0  0  0  0  0  0  0  0  0
   37.6890   32.8040   37.2730 H   0  0  0  0  0  0  0  0  0  0  0  0
   38.7920   28.7390   36.5790 H   0  0  0  0  0  0  0  0  0  0  0  0
   38.7000   29.3580   35.7780 H   0  0  0  0  0  0  0  0  0  0  0  0
  1  2  1  0  0  0  0
  2 13  1  0  0  0  0
  2  3  2  0  0  0  0
  3  4  1  0  0  0  0
  5  6  1  0  0  0  0
  5  3  1  0  0  0  0
  7  5  2  0  0  0  0
  8  1  2  0  0  0  0
  8  7  1  0  0  0  0
  9 15  1  0  0  0  0
  9 10  1  0  0  0  0
 10 16  1  0  0  0  0
 11 17  1  0  0  0  0
 11 10  2  0  0  0  0
 12 11  1  0  0  0  0
 13 12  2  0  0  0  0
 13 14  1  0  0  0  0
 14  9  2  0  0  0  0
 17 19  1  0  0  0  0
 18 17  1  0  0  0  0
 20 23  1  0  0  0  0
 20 21  2  0  0  0  0
 21  1  1  0  0  0  0
 22 21  1  0  0  0  0
 24 22  1  0  0  0  0
 25 22  1  0  0  0  0
M  END
>  <minimizedAffinity>
-5.03332186

$$$$

 OpenBabel03242521503D

 25 26  0  0  0  0  0  0  0  0999 V2000
   35.8560   29.1270   39.4800 C   0  0  0  0  0  0  0  0  0  0  0  0
   36.3860   27.9600   39.9870 C   0  0  0  0  0  0  0  0  0  0  0  0
   36.2670   26.7960   39.2550 C   0  0  0  0  0  0  0  0  0  0  0  0
   36.6510   25.8180   39.5620 H   0  0  0  0  0  0  0  0  0  0  0  0
   35.6110   26.8650   38.0320 C   0  0  0  0  0  0  0  0  0  0  0  0
   35.4940   25.9930   37.4240 H   0  0  0  0  0  0  0  0  0  0  0  0
   35.0760   28.0270   37.5140 C   0  0  0  0  0  3  0  0  0  0  0  0
   35.1990   29.1880   38.2510 C   0  0  0  0  0  3  0  0  0  0  0  0
   37.0060   27.7730   43.6000 C   0  0  0  0  0  0  0  0  0  0  0  0
   38.3940   27.8350   43.6670 C   0  0  0  0  0  0  0  0  0  0  0  0
   39.1090   27.9400   42.4640 C   0  0  0  0  0  0  0  0  0  0  0  0
   38.4050   27.9790   41.2980 N   0  0  0  0  0  0  0  0  0  0  0  0
   37.0570   27.9180   41.2810 C   0  0  0  0  0  0  0  0  0  0  0  0
   36.3940   27.8170   42.4270 N   0  0  0  0  0  0  0  0  0  0  0  0
   36.3560   27.6910   44.4700 H   0  0  0  0  0  0  0  0  0  0  0  0
   38.8750   27.7960   44.6470 H   0  0  0  0  0  0  0  0  0  0  0  0
   40.5110   28.0030   42.5150 N   0  0  0  0  0  0  0  0  0  0  0  0
   40.8070   27.0050   42.6910 H   0  0  0  0  0  0  0  0  0  0  0  0
   41.2050   28.7710   42.4190 H   0  0  0  0  0  0  0  0  0  0  0  0
   35.6440   30.8760   41.3950 N   0  0  0  0  0  0  0  0  0  0  0  0
   36.0100   30.3490   40.2620 C   0  0  0  0  0  0  0  0  0  0  0  0
   36.8080   31.1920   39.4580 N   0  0  0  0  0  0  0  0  0  0  0  0
   35.0550   30.3990   42.1110 H   0  0  0  0  0  0  0  0  0  0  0  0
   37.5380   31.5530   38.8370 H   0  0  0  0  0  0  0  0  0  0  0  0
   36.8360   32.2090   39.1640 H   0  0  0  0  0  0  0  0  0  0  0  0
  1  2  1  0  0  0  0
  1 21  1  0  0  0  0
  2 13  1  0  0  0  0
  3  4  1  0  0  0  0
  3  2  2  0  0  0  0
  5  3  1  0  0  0  0
  6  5  1  0  0  0  0
  7  5  2  0  0  0  0
  7  8  1  0  0  0  0
  8  1  2  0  0  0  0
  9 10  1  0  0  0  0
  9 15  1  0  0  0  0
 10 16  1  0  0  0  0
 11 17  1  0  0  0  0
 11 10  2  0  0  0  0
 12 11  1  0  0  0  0
 13 12  2  0  0  0  0
 13 14  1  0  0  0  0
 14  9  2  0  0  0  0
 17 18  1  0  0  0  0
 19 17  1  0  0  0  0
 20 23  1  0  0  0  0
 21 20  2  0  0  0  0
 22 21  1  0  0  0  0
 24 22  1  0  0  0  0
 25 22  1  0  0  0  0
M  END
>  <minimizedAffinity>
-5.00071478

$$$$
