
     RDKit          3D

 26 27  0  0  0  0  0  0  0  0999 V2000
   44.5586   35.6213   45.0634 C   0  0  0  0  0  0  0  0  0  0  0  0
   45.0254   35.8862   43.7731 C   0  0  0  0  0  0  0  0  0  0  0  0
   45.9740   34.9821   43.2377 C   0  0  0  0  0  0  0  0  0  0  0  0
   46.3739   33.9166   44.0053 N   0  0  0  0  0  0  0  0  0  0  0  0
   45.8885   33.7113   45.2436 C   0  0  0  0  0  0  0  0  0  0  0  0
   44.9916   34.5601   45.7578 N   0  0  0  0  0  0  0  0  0  0  0  0
   44.6340   36.9595   42.9872 O   0  0  0  0  0  0  0  0  0  0  0  0
   43.8380   36.3103   45.4641 H   0  0  0  0  0  0  0  0  0  0  0  0
   46.2169   32.8647   45.8276 H   0  0  0  0  0  0  0  0  0  0  0  0
   45.1997   37.7821   42.9607 H   0  0  0  0  0  0  0  0  0  0  0  0
   43.8477   35.0887   39.7022 N   0  0  0  0  0  0  0  0  0  0  0  0
   44.4977   35.5022   40.7731 C   0  0  0  0  0  0  0  0  0  0  0  0
   43.3690   35.9051   41.5171 N   0  0  0  0  0  0  0  0  0  0  0  0
   45.9411   35.3863   40.7463 C   0  0  0  0  0  0  0  0  0  0  0  0
   46.5708   35.1078   41.9159 C   0  0  0  0  0  0  0  0  0  0  0  0
   47.9639   34.9540   41.9201 C   0  0  0  0  0  0  0  0  0  0  0  0
   48.6287   34.7329   42.7378 H   0  0  0  0  0  0  0  0  0  0  0  0
   48.6184   35.1018   40.7060 C   0  0  0  0  0  0  0  0  0  0  0  0
   49.6988   35.0132   40.5606 H   0  0  0  0  0  0  0  0  0  0  0  0
   47.9311   35.3920   39.5247 C   0  0  0  0  0  0  0  0  0  0  0  0
   46.5623   35.5390   39.5286 C   0  0  0  0  0  0  0  0  0  0  0  0
   44.3000   34.6942   38.8664 H   0  0  0  0  0  0  0  0  0  0  0  0
   42.8137   36.7978   41.3307 H   0  0  0  0  0  0  0  0  0  0  0  0
   43.1032   35.2389   42.2848 H   0  0  0  0  0  0  0  0  0  0  0  0
   48.4391   35.5073   38.5797 H   0  0  0  0  0  0  0  0  0  0  0  0
   46.0000   35.7641   38.6359 H   0  0  0  0  0  0  0  0  0  0  0  0
  1  6  2  0
  2  1  1  0
  3  2  2  0
  3  4  1  0
  4  5  2  0
  5  6  1  0
  7  2  1  0
  1  8  1  0
  5  9  1  0
  7 10  1  0
 11 12  2  3
 12 13  1  0
 12 14  1  0
 14 15  2  0
 15 16  1  0
 16 17  1  0
 16 18  2  0
 18 19  1  0
 18 20  1  0
 20 21  2  0
 21 14  1  0
 11 22  1  0
 13 23  1  0
 13 24  1  0
 20 25  1  0
 21 26  1  0
  3 15  1  0
M  ISO  5   8  14   9  14  10   3  17  15  19  16
M  END
>  <DihAtoms>  (1) 
1,2,14,13

>  <DihDeg>  (1) 
119.55260996944297

$$$$
