REMARK  Name = 
REMARK  4 active torsions:
REMARK  status: ('A' for Active; 'I' for Inactive)
REMARK    1  A    between atoms: C_2  and  N_22
REMARK    2  A    between atoms: C_5  and  C_12
REMARK    3  A    between atoms: C_20  and  C_42
REMARK    4  A    between atoms: C_39  and  C_41
REMARK                            x       y       z     vdW  Elec       q    Type
REMARK                         _______ _______ _______ _____ _____    ______ ____
ROOT
ATOM      1  C   UNL     1      45.855  33.846  45.062  0.00  0.00    +0.000 A 
ATOM      2  N   UNL     1      44.885  34.784  45.249  0.00  0.00    +0.000 NA
ATOM      3  C   UNL     1      44.621  35.788  44.415  0.00  0.00    +0.000 A 
ATOM      4  N   UNL     1      45.353  35.916  43.288  0.00  0.00    +0.000 NA
ATOM      5  C   UNL     1      46.340  35.051  42.994  0.00  0.00    +0.000 A 
ATOM      6  C   UNL     1      47.055  35.197  41.841  0.00  0.00    +0.000 A 
ATOM      7  C   UNL     1      48.057  34.300  41.529  0.00  0.00    +0.000 A 
ATOM      8  C   UNL     1      48.304  33.263  42.422  0.00  0.00    +0.000 A 
ATOM      9  C   UNL     1      47.540  33.178  43.574  0.00  0.00    +0.000 A 
ATOM     10  C   UNL     1      46.549  34.044  43.904  0.00  0.00    +0.000 A 
ATOM     11  H   UNL     1      43.815  36.461  44.694  0.00  0.00    +0.000 HD
ATOM     12  H   UNL     1      46.787  36.047  41.202  0.00  0.00    +0.000 HD
ATOM     13  H   UNL     1      48.544  34.530  40.582  0.00  0.00    +0.000 HD
ATOM     14  H   UNL     1      49.110  32.677  42.011  0.00  0.00    +0.000 HD
ENDROOT
BRANCH   1  19
ATOM     15  C   UNL     1      47.339  32.312  47.953  0.00  0.00    +0.000 A 
ATOM     16  C   UNL     1      46.848  31.014  48.016  0.00  0.00    +0.000 A 
ATOM     17  C   UNL     1      45.973  30.649  47.050  0.00  0.00    +0.000 A 
ATOM     18  N   UNL     1      45.618  31.513  46.091  0.00  0.00    +0.000 NA
ATOM     19  C   UNL     1      46.088  32.763  46.016  0.00  0.00    +0.000 A 
ATOM     20  N   UNL     1      46.951  33.120  46.982  0.00  0.00    +0.000 NA
ATOM     21  N   UNL     1      45.407  29.383  47.035  0.00  0.00    +0.000 N 
ATOM     22  C   UNL     1      44.262  28.968  46.195  0.00  0.00    +0.000 C 
ATOM     23  C   UNL     1      44.169  27.475  46.337  0.00  0.00    +0.000 C 
ATOM     24  C   UNL     1      44.787  27.209  47.679  0.00  0.00    +0.000 C 
ATOM     25  C   UNL     1      45.824  28.262  47.833  0.00  0.00    +0.000 C 
ATOM     26  H   UNL     1      48.045  32.619  48.734  0.00  0.00    +0.000 HD
ATOM     27  H   UNL     1      44.557  29.186  45.151  0.00  0.00    +0.000 HD
ATOM     28  H   UNL     1      43.350  29.515  46.497  0.00  0.00    +0.000 HD
ATOM     29  H   UNL     1      44.667  26.921  45.534  0.00  0.00    +0.000 HD
ATOM     30  H   UNL     1      43.073  27.205  46.319  0.00  0.00    +0.000 HD
ATOM     31  H   UNL     1      45.225  26.186  47.660  0.00  0.00    +0.000 HD
ATOM     32  H   UNL     1      43.979  27.194  48.412  0.00  0.00    +0.000 HD
ATOM     33  H   UNL     1      46.806  27.896  47.527  0.00  0.00    +0.000 HD
ATOM     34  H   UNL     1      45.739  28.453  48.948  0.00  0.00    +0.000 HD
BRANCH  16  35
ATOM     35  N   UNL     1      47.321  30.153  49.007  0.00  0.00    +0.000 N 
ATOM     36  H   UNL     1      48.032  29.384  48.959  0.00  0.00    +0.000 HD
ATOM     37  H   UNL     1      46.895  30.300  49.959  0.00  0.00    +0.000 HD
ENDBRANCH  16  35
ENDBRANCH   1  19
BRANCH   9  39
ATOM     38  C   UNL     1      48.874  31.046  43.589  0.00  0.00    +0.000 A 
ATOM     39  C   UNL     1      48.093  32.001  44.226  0.00  0.00    +0.000 A 
ATOM     40  C   UNL     1      47.836  31.663  45.571  0.00  0.00    +0.000 A 
ATOM     41  H   UNL     1      47.217  32.397  46.112  0.00  0.00    +0.000 HD
ATOM     42  C   UNL     1      48.325  30.509  46.141  0.00  0.00    +0.000 A 
ATOM     43  H   UNL     1      48.033  30.409  47.176  0.00  0.00    +0.000 HD
ATOM     44  C   UNL     1      49.094  29.630  45.413  0.00  0.00    +0.000 A 
ATOM     45  C   UNL     1      49.395  29.878  44.092  0.00  0.00    +0.000 A 
BRANCH  38  47
ATOM     46  N   UNL     1      49.421  32.077  41.207  0.00  0.00    +0.000 NA
ATOM     47  C   UNL     1      49.174  31.293  42.186  0.00  0.00    +0.000 C 
ATOM     48  N   UNL     1      49.284  30.237  41.258  0.00  0.00    +0.000 N 
ATOM     49  H   UNL     1      49.461  33.085  41.358  0.00  0.00    +0.000 HD
ATOM     50  H   UNL     1      49.108  29.211  41.308  0.00  0.00    +0.000 HD
ATOM     51  H   UNL     1      49.370  29.473  40.566  0.00  0.00    +0.000 HD
ENDBRANCH  38  47
ENDBRANCH   9  39
TORSDOF 4
