
     RDKit          3D

 53 57  0  0  0  0  0  0  0  0999 V2000
   47.3386   32.3118   47.9535 C   0  0  0  0  0  0  0  0  0  0  0  0
   46.8484   31.0135   48.0158 C   0  0  0  0  0  0  0  0  0  0  0  0
   45.9728   30.6491   47.0502 C   0  0  0  0  0  0  0  0  0  0  0  0
   45.6182   31.5127   46.0906 N   0  0  0  0  0  0  0  0  0  0  0  0
   46.0876   32.7632   46.0159 C   0  0  0  0  0  0  0  0  0  0  0  0
   46.9510   33.1197   46.9824 N   0  0  0  0  0  0  0  0  0  0  0  0
   45.4067   29.3833   47.0350 N   0  0  0  0  0  0  0  0  0  0  0  0
   44.2621   28.9676   46.1946 C   0  0  0  0  0  0  0  0  0  0  0  0
   44.1687   27.4751   46.3370 C   0  0  0  0  0  0  0  0  0  0  0  0
   44.7866   27.2092   47.6792 C   0  0  0  0  0  0  0  0  0  0  0  0
   45.8237   28.2624   47.8325 C   0  0  0  0  0  0  0  0  0  0  0  0
   45.8553   33.8464   45.0616 C   0  0  0  0  0  0  0  0  0  0  0  0
   44.8846   34.7840   45.2486 N   0  0  0  0  0  0  0  0  0  0  0  0
   44.6214   35.7876   44.4146 C   0  0  0  0  0  0  0  0  0  0  0  0
   45.3532   35.9161   43.2879 N   0  0  0  0  0  0  0  0  0  0  0  0
   46.3401   35.0514   42.9941 C   0  0  0  0  0  0  0  0  0  0  0  0
   47.0549   35.1969   41.8412 C   0  0  0  0  0  0  0  0  0  0  0  0
   48.0566   34.3002   41.5292 C   0  0  0  0  0  0  0  0  0  0  0  0
   48.3041   33.2629   42.4219 C   0  0  0  0  0  0  0  0  0  0  0  0
   47.5397   33.1781   43.5739 C   0  0  0  0  0  0  0  0  0  0  0  0
   46.5493   34.0437   43.9045 C   0  0  0  0  0  0  0  0  0  0  0  0
   47.3212   30.1531   49.0068 N   0  0  0  0  0  0  0  0  0  0  0  0
   48.0455   32.6194   48.7344 H   0  0  0  0  0  0  0  0  0  0  0  0
   44.5567   29.1862   45.1513 H   0  0  0  0  0  0  0  0  0  0  0  0
   43.3502   29.5148   46.4968 H   0  0  0  0  0  0  0  0  0  0  0  0
   44.6672   26.9207   45.5339 H   0  0  0  0  0  0  0  0  0  0  0  0
   43.0734   27.2050   46.3192 H   0  0  0  0  0  0  0  0  0  0  0  0
   45.2253   26.1858   47.6597 H   0  0  0  0  0  0  0  0  0  0  0  0
   43.9787   27.1937   48.4123 H   0  0  0  0  0  0  0  0  0  0  0  0
   46.8060   27.8960   47.5269 H   0  0  0  0  0  0  0  0  0  0  0  0
   45.7385   28.4525   48.9477 H   0  0  0  0  0  0  0  0  0  0  0  0
   43.8153   36.4610   44.6944 H   0  0  0  0  0  0  0  0  0  0  0  0
   46.7871   36.0475   41.2017 H   0  0  0  0  0  0  0  0  0  0  0  0
   48.5436   34.5296   40.5822 H   0  0  0  0  0  0  0  0  0  0  0  0
   49.1097   32.6771   42.0106 H   0  0  0  0  0  0  0  0  0  0  0  0
   48.0320   29.3840   48.9586 H   0  0  0  0  0  0  0  0  0  0  0  0
   46.8950   30.3000   49.9588 H   0  0  0  0  0  0  0  0  0  0  0  0
   50.6706   33.9155   43.4686 N   0  0  0  0  0  0  0  0  0  0  0  0
   50.3505   32.7091   43.7461 C   0  0  0  0  0  0  0  0  0  0  0  0
   51.5568   32.3346   43.1193 N   0  0  0  0  0  0  0  0  0  0  0  0
   49.4491   31.7182   44.3162 C   0  0  0  0  0  0  0  0  0  0  0  0
   48.0930   32.0005   44.2256 C   0  0  0  0  0  0  0  0  0  0  0  0
   47.3005   30.9744   44.7807 C   0  0  0  0  0  0  0  0  0  0  0  0
   46.2155   31.1607   44.7277 H   0  0  0  0  0  0  0  0  0  0  0  0
   47.8543   29.8433   45.3373 C   0  0  0  0  0  0  0  0  0  0  0  0
   47.1038   29.1635   45.7142 H   0  0  0  0  0  0  0  0  0  0  0  0
   49.2193   29.6673   45.3741 C   0  0  0  0  0  0  0  0  0  0  0  0
   50.0702   30.6172   44.8550 C   0  0  0  0  0  0  0  0  0  0  0  0
   50.0539   34.6819   43.7402 H   0  0  0  0  0  0  0  0  0  0  0  0
   51.9813   31.4189   42.8593 H   0  0  0  0  0  0  0  0  0  0  0  0
   52.4461   32.0761   42.6581 H   0  0  0  0  0  0  0  0  0  0  0  0
   49.5933   28.7571   45.8253 H   0  0  0  0  0  0  0  0  0  0  0  0
   51.1407   30.5056   44.8707 H   0  0  0  0  0  0  0  0  0  0  0  0
  1  2  2  0
  2 22  1  0
  3  2  1  0
  4  3  2  0
  5  4  1  0
  5  6  2  0
  6  1  1  0
  7  3  1  0
  7 11  1  0
  8  9  1  0
  8  7  1  0
  9 10  1  0
 11 10  1  0
 12 13  2  0
 12  5  1  0
 14 13  1  0
 15 14  2  0
 16 15  1  0
 16 21  2  0
 17 16  1  0
 18 17  2  0
 18 19  1  0
 19 20  2  0
 20 21  1  0
 21 12  1  0
  1 23  1  0
  8 24  1  0
  8 25  1  0
  9 26  1  0
  9 27  1  0
 10 28  1  0
 10 29  1  0
 11 30  1  0
 11 31  1  0
 14 32  1  0
 17 33  1  0
 18 34  1  0
 19 35  1  0
 22 36  1  0
 22 37  1  0
 38 39  2  3
 39 40  1  0
 39 41  1  0
 41 42  2  0
 42 43  1  0
 43 44  1  0
 43 45  2  0
 45 46  1  0
 45 47  1  0
 47 48  2  0
 48 41  1  0
 38 49  1  0
 40 50  1  0
 40 51  1  0
 47 52  1  0
 48 53  1  0
 20 42  1  0
M  ISO  8  23  14  24  13  25  13  26  13  27  13  28  13  29  13  30  13
M  ISO  7  31  13  32  14  33  14  34  14  35  14  44  15  46  16
M  END
>  <DihAtoms>  (1) 
18,19,41,40

>  <DihDeg>  (1) 
87.70982759537489

$$$$
