
     RDKit          3D

 26 27  0  0  0  0  0  0  0  0999 V2000
   44.5586   35.6213   45.0634 C   0  0  0  0  0  0  0  0  0  0  0  0
   45.0254   35.8862   43.7731 C   0  0  0  0  0  0  0  0  0  0  0  0
   45.9740   34.9821   43.2377 C   0  0  0  0  0  0  0  0  0  0  0  0
   46.3739   33.9166   44.0053 N   0  0  0  0  0  0  0  0  0  0  0  0
   45.8885   33.7113   45.2436 C   0  0  0  0  0  0  0  0  0  0  0  0
   44.9916   34.5601   45.7578 N   0  0  0  0  0  0  0  0  0  0  0  0
   44.6340   36.9595   42.9872 O   0  0  0  0  0  0  0  0  0  0  0  0
   43.8380   36.3103   45.4641 H   0  0  0  0  0  0  0  0  0  0  0  0
   46.2169   32.8647   45.8276 H   0  0  0  0  0  0  0  0  0  0  0  0
   45.1997   37.7821   42.9607 H   0  0  0  0  0  0  0  0  0  0  0  0
   49.8661   36.1525   42.5207 N   0  0  0  0  0  0  0  0  0  0  0  0
   48.8192   35.3729   42.7120 C   0  0  0  0  0  0  0  0  0  0  0  0
   49.1314   34.9828   44.0311 N   0  0  0  0  0  0  0  0  0  0  0  0
   47.8856   35.2514   41.6114 C   0  0  0  0  0  0  0  0  0  0  0  0
   46.5708   35.1078   41.9159 C   0  0  0  0  0  0  0  0  0  0  0  0
   45.6357   35.0226   40.8754 C   0  0  0  0  0  0  0  0  0  0  0  0
   44.5657   34.9102   40.9202 H   0  0  0  0  0  0  0  0  0  0  0  0
   46.1261   35.0897   39.5795 C   0  0  0  0  0  0  0  0  0  0  0  0
   45.5157   35.0331   38.6738 H   0  0  0  0  0  0  0  0  0  0  0  0
   47.4894   35.2347   39.3103 C   0  0  0  0  0  0  0  0  0  0  0  0
   48.4012   35.3203   40.3381 C   0  0  0  0  0  0  0  0  0  0  0  0
   50.0515   36.6705   41.6511 H   0  0  0  0  0  0  0  0  0  0  0  0
   49.8884   34.2740   44.2849 H   0  0  0  0  0  0  0  0  0  0  0  0
   48.5527   35.4607   44.7663 H   0  0  0  0  0  0  0  0  0  0  0  0
   47.8721   35.2870   38.3028 H   0  0  0  0  0  0  0  0  0  0  0  0
   49.4605   35.4315   40.1667 H   0  0  0  0  0  0  0  0  0  0  0  0
  1  6  2  0
  2  1  1  0
  3  2  2  0
  3  4  1  0
  4  5  2  0
  5  6  1  0
  7  2  1  0
  1  8  1  0
  5  9  1  0
  7 10  1  0
 11 12  2  3
 12 13  1  0
 12 14  1  0
 14 15  2  0
 15 16  1  0
 16 17  1  0
 16 18  2  0
 18 19  1  0
 18 20  1  0
 20 21  2  0
 21 14  1  0
 11 22  1  0
 13 23  1  0
 13 24  1  0
 20 25  1  0
 21 26  1  0
  3 15  1  0
M  ISO  5   8  14   9  14  10   3  17  15  19  16
M  END
>  <DihAtoms>  (1) 
1,2,14,13

>  <DihDeg>  (1) 
119.55260996944297

$$$$
