REMARK  Name = 
REMARK  3 active torsions:
REMARK  status: ('A' for Active; 'I' for Inactive)
REMARK    1  A    between atoms: C_2  and  C_7
REMARK    2  A    between atoms: C_3  and  C_17
REMARK    3  A    between atoms: C_14  and  C_16
REMARK                            x       y       z     vdW  Elec       q    Type
REMARK                         _______ _______ _______ _____ _____    ______ ____
ROOT
ATOM      1  C   UNL     1      46.141  33.879  41.121  0.00  0.00    +0.000 A 
ATOM      2  C   UNL     1      45.543  33.170  42.129  0.00  0.00    +0.000 A 
ATOM      3  C   UNL     1      45.200  31.847  41.862  0.00  0.00    +0.000 A 
ATOM      4  H   UNL     1      44.725  31.244  42.626  0.00  0.00    +0.000 HD
ATOM      5  C   UNL     1      45.427  31.213  40.649  0.00  0.00    +0.000 A 
ATOM      6  H   UNL     1      45.148  30.187  40.477  0.00  0.00    +0.000 HD
ATOM      7  C   UNL     1      46.033  31.950  39.644  0.00  0.00    +0.000 A 
ATOM      8  C   UNL     1      46.372  33.260  39.911  0.00  0.00    +0.000 A 
ENDROOT
BRANCH   2  11
ATOM      9  C   UNL     1      44.384  35.775  44.431  0.00  0.00    +0.000 A 
ATOM     10  C   UNL     1      44.671  35.052  43.264  0.00  0.00    +0.000 A 
ATOM     11  C   UNL     1      45.304  33.801  43.385  0.00  0.00    +0.000 A 
ATOM     12  N   UNL     1      45.584  33.398  44.627  0.00  0.00    +0.000 NA
ATOM     13  C   UNL     1      45.305  34.096  45.734  0.00  0.00    +0.000 A 
ATOM     14  N   UNL     1      44.694  35.312  45.676  0.00  0.00    +0.000 NA
ATOM     15  H   UNL     1      43.903  36.743  44.471  0.00  0.00    +0.000 HD
ATOM     16  H   UNL     1      45.645  33.526  46.605  0.00  0.00    +0.000 HD
BRANCH  10  17
ATOM     17  C   UNL     1      44.257  35.732  42.020  0.00  0.00    +0.000 C 
ATOM     18  H   UNL     1      44.885  35.340  41.175  0.00  0.00    +0.000 HD
ATOM     19  H   UNL     1      44.484  36.811  42.113  0.00  0.00    +0.000 HD
ATOM     20  H   UNL     1      43.189  35.543  41.776  0.00  0.00    +0.000 HD
ENDBRANCH  10  17
ENDBRANCH   2  11
BRANCH   1  22
ATOM     21  N   UNL     1      47.041  35.891  42.162  0.00  0.00    +0.000 NA
ATOM     22  C   UNL     1      46.582  35.259  41.168  0.00  0.00    +0.000 C 
ATOM     23  N   UNL     1      46.533  36.102  39.997  0.00  0.00    +0.000 N 
ATOM     24  H   UNL     1      47.351  36.860  42.205  0.00  0.00    +0.000 HD
ATOM     25  H   UNL     1      47.373  36.176  39.392  0.00  0.00    +0.000 HD
ATOM     26  H   UNL     1      45.628  36.592  39.837  0.00  0.00    +0.000 HD
ENDBRANCH   1  22
TORSDOF 3
