
 OpenBabel03242514063D

 48 51  0  0  1  0  0  0  0  0999 V2000
   45.8050   32.4620   38.7730 C   0  0  1  0  0  0  0  0  0  0  0  0
   44.4310   33.0130   38.3230 C   0  0  0  0  0  0  0  0  0  0  0  0
   43.7410   31.7930   37.6800 C   0  0  0  0  0  0  0  0  0  0  0  0
   44.4840   31.5750   36.3630 C   0  0  0  0  0  0  0  0  0  0  0  0
   45.9030   31.2510   36.6130 C   0  0  0  0  0  0  0  0  0  0  0  0
   46.6330   32.0470   37.6420 C   0  0  2  0  0  0  0  0  0  0  0  0
   45.4790   31.5710   39.3930 H   0  0  0  0  0  0  0  0  0  0  0  0
   43.8460   33.4090   39.1460 H   0  0  0  0  0  0  0  0  0  0  0  0
   44.6300   33.7420   37.5170 H   0  0  0  0  0  0  0  0  0  0  0  0
   42.7060   32.0560   37.4610 H   0  0  0  0  0  0  0  0  0  0  0  0
   43.8990   30.9650   38.3770 H   0  0  0  0  0  0  0  0  0  0  0  0
   44.0240   30.7530   35.8020 H   0  0  0  0  0  0  0  0  0  0  0  0
   44.4180   32.5350   35.8070 H   0  0  0  0  0  0  0  0  0  0  0  0
   46.4330   31.2300   35.6300 H   0  0  0  0  0  0  0  0  0  0  0  0
   45.9260   30.1690   36.9380 H   0  0  0  0  0  0  0  0  0  0  0  0
   47.1010   32.9180   37.1350 H   0  0  0  0  0  0  0  0  0  0  0  0
   46.5170   34.4330   41.7910 C   0  0  0  0  0  0  0  0  0  0  0  0
   47.7020   35.0380   41.4420 C   0  0  0  0  0  0  0  0  0  0  0  0
   48.3390   34.8640   40.2340 C   0  0  0  0  0  0  0  0  0  0  0  0
   47.6690   33.9940   39.3600 C   0  0  0  0  0  0  0  0  0  0  0  0
   46.4670   33.3700   39.7050 C   0  0  0  0  0  0  0  0  0  0  0  0
   45.9030   33.5960   40.9160 N   0  0  0  0  0  0  0  0  0  0  0  0
   48.1380   35.6930   42.1900 H   0  0  0  0  0  0  0  0  0  0  0  0
   49.2580   35.3520   39.9980 H   0  0  0  0  0  0  0  0  0  0  0  0
   48.1940   33.8950   38.4250 H   0  0  0  0  0  0  0  0  0  0  0  0
   45.4080   34.1110   45.2620 C   0  0  0  0  0  0  0  0  0  0  0  0
   44.7090   35.2810   45.5090 C   0  0  0  0  0  0  0  0  0  0  0  0
   44.6270   36.1840   44.4550 C   0  0  0  0  0  0  0  0  0  0  0  0
   45.2290   35.8720   43.2600 N   0  0  0  0  0  0  0  0  0  0  0  0
   45.9010   34.7030   43.0850 C   0  0  0  0  0  0  0  0  0  0  0  0
   45.9870   33.8410   44.0680 N   0  0  0  0  0  0  0  0  0  0  0  0
   45.4770   33.3910   46.0880 H   0  0  0  0  0  0  0  0  0  0  0  0
   44.2560   35.4720   46.4700 H   0  0  0  0  0  0  0  0  0  0  0  0
   44.1010   37.1160   44.5720 H   0  0  0  0  0  0  0  0  0  0  0  0
   48.9460   31.2420   37.3520 C   0  0  0  0  0  0  0  0  0  0  0  0
   47.7520   31.1290   38.0810 C   0  0  0  0  0  0  0  0  0  0  0  0
   47.7620   30.1980   39.0940 C   0  0  0  0  0  0  0  0  0  0  0  0
   46.8480   30.1100   39.6550 H   0  0  0  0  0  0  0  0  0  0  0  0
   48.8860   29.4480   39.3480 C   0  0  0  0  0  0  0  0  0  0  0  0
   48.7750   28.7540   40.1650 H   0  0  0  0  0  0  0  0  0  0  0  0
   50.0480   29.5720   38.6230 C   0  0  0  0  0  3  0  0  0  0  0  0
   50.0680   30.4890   37.6090 C   0  0  0  0  0  3  0  0  0  0  0  0
   49.9670   31.9260   35.2120 N   0  0  0  0  0  0  0  0  0  0  0  0
   49.1800   32.1690   36.2240 C   0  0  0  0  0  0  0  0  0  0  0  0
   48.7990   33.4480   35.7580 N   0  0  0  0  0  0  0  0  0  0  0  0
   50.5050   31.0470   35.1070 H   0  0  0  0  0  0  0  0  0  0  0  0
   49.3360   34.3240   35.9970 H   0  0  0  0  0  0  0  0  0  0  0  0
   47.9770   33.6810   35.1450 H   0  0  0  0  0  0  0  0  0  0  0  0
  1  7  1  1  0  0  0
  1 21  1  0  0  0  0
  2  1  1  0  0  0  0
  2  8  1  0  0  0  0
  3  2  1  0  0  0  0
  3 11  1  0  0  0  0
  4  5  1  0  0  0  0
  4  3  1  0  0  0  0
  5 15  1  0  0  0  0
  5  6  1  0  0  0  0
  6 16  1  6  0  0  0
  6 36  1  0  0  0  0
  6  1  1  0  0  0  0
  9  2  1  0  0  0  0
 10  3  1  0  0  0  0
 12  4  1  0  0  0  0
 13  4  1  0  0  0  0
 14  5  1  0  0  0  0
 17 30  1  0  0  0  0
 18 17  1  0  0  0  0
 18 23  1  0  0  0  0
 19 18  2  0  0  0  0
 20 21  2  0  0  0  0
 20 19  1  0  0  0  0
 21 22  1  0  0  0  0
 22 17  2  0  0  0  0
 24 19  1  0  0  0  0
 25 20  1  0  0  0  0
 26 27  1  0  0  0  0
 26 32  1  0  0  0  0
 27 33  1  0  0  0  0
 28 34  1  0  0  0  0
 28 27  2  0  0  0  0
 29 28  1  0  0  0  0
 30 29  2  0  0  0  0
 30 31  1  0  0  0  0
 31 26  2  0  0  0  0
 35 42  2  0  0  0  0
 35 36  1  0  0  0  0
 36 37  2  0  0  0  0
 37 39  1  0  0  0  0
 37 38  1  0  0  0  0
 39 40  1  0  0  0  0
 41 39  2  0  0  0  0
 42 41  1  0  0  0  0
 43 44  2  0  0  0  0
 44 35  1  0  0  0  0
 45 47  1  0  0  0  0
 45 44  1  0  0  0  0
 46 43  1  0  0  0  0
 48 45  1  0  0  0  0
M  END
>  <minimizedAffinity>
-5.63385534

>  <minimizedRMSD>
1.41536999

$$$$
