
 OpenBabel03242519063D

 48 51  0  0  1  0  0  0  0  0999 V2000
   48.1450   31.9990   38.6850 C   0  0  0  0  0  0  0  0  0  0  0  0
   48.3040   32.3320   40.0400 C   0  0  0  0  0  0  0  0  0  0  0  0
   48.3610   33.6810   40.2560 C   0  0  0  0  0  0  0  0  0  0  0  0
   48.2810   34.6580   39.3060 C   0  0  0  0  0  0  0  0  0  0  0  0
   48.1250   34.2820   37.9850 C   0  0  0  0  0  0  0  0  0  0  0  0
   48.0590   32.9300   37.6960 C   0  0  0  0  0  0  0  0  0  0  0  0
   48.4830   34.0530   41.2680 H   0  0  0  0  0  0  0  0  0  0  0  0
   48.3340   35.7220   39.5430 H   0  0  0  0  0  0  0  0  0  0  0  0
   48.0510   34.9750   37.1590 H   0  0  0  0  0  0  0  0  0  0  0  0
   46.5590   32.4520   35.9230 C   0  0  0  0  0  0  0  0  0  0  0  0
   47.8950   32.5140   36.3060 C   0  0  0  0  0  0  0  0  0  0  0  0
   48.9000   32.2050   35.4170 C   0  0  0  0  0  0  0  0  0  0  0  0
   49.9040   32.2820   35.8060 H   0  0  0  0  0  0  0  0  0  0  0  0
   48.6310   31.8240   34.1260 C   0  0  0  0  0  0  0  0  0  0  0  0
   49.4270   31.5820   33.4390 H   0  0  0  0  0  0  0  0  0  0  0  0
   47.3090   31.7610   33.7440 C   0  0  0  0  0  3  0  0  0  0  0  0
   46.2870   32.0640   34.6080 C   0  0  0  0  0  3  0  0  0  0  0  0
   44.8400   31.8710   37.5110 N   0  0  0  0  0  0  0  0  0  0  0  0
   45.4120   32.7570   36.7730 C   0  0  0  0  0  0  0  0  0  0  0  0
   44.8930   34.0820   36.7960 N   0  0  0  0  0  0  0  0  0  0  0  0
   44.0270   32.1810   38.0850 H   0  0  0  0  0  0  0  0  0  0  0  0
   45.5220   34.8880   37.0790 H   0  0  0  0  0  0  0  0  0  0  0  0
   44.1440   34.7850   36.6750 H   0  0  0  0  0  0  0  0  0  0  0  0
   48.3970   31.3940   41.0980 N   0  0  0  0  0  0  0  0  0  0  0  0
   49.1640   30.6600   41.0560 H   0  0  0  0  0  0  0  0  0  0  0  0
   47.4760   31.0960   44.5290 N   0  0  0  0  0  0  0  0  0  0  0  0
   48.2930   31.7410   43.5240 C   0  0  0  0  0  0  0  0  0  0  0  0
   47.5950   31.2430   42.2930 C   0  0  2  0  0  0  0  0  0  0  0  0
   47.5340   29.7560   42.5950 C   0  0  0  0  0  0  0  0  0  0  0  0
   47.2640   29.7290   44.0780 C   0  0  0  0  0  0  0  0  0  0  0  0
   48.2990   32.8400   43.6350 H   0  0  0  0  0  0  0  0  0  0  0  0
   49.3050   31.2910   43.5870 H   0  0  0  0  0  0  0  0  0  0  0  0
   46.5970   31.6780   42.2210 H   0  0  0  0  0  0  0  0  0  0  0  0
   48.5170   29.2840   42.4080 H   0  0  0  0  0  0  0  0  0  0  0  0
   46.7700   29.2240   41.9990 H   0  0  0  0  0  0  0  0  0  0  0  0
   46.1930   29.5000   44.2330 H   0  0  0  0  0  0  0  0  0  0  0  0
   47.9380   29.0130   44.5900 H   0  0  0  0  0  0  0  0  0  0  0  0
   45.5630   33.0320   47.0660 C   0  0  0  0  0  0  0  0  0  0  0  0
   46.0180   32.6240   45.8120 C   0  0  0  0  0  0  0  0  0  0  0  0
   46.9460   31.5920   45.7230 C   0  0  0  0  0  0  0  0  0  0  0  0
   47.3570   31.0360   46.9010 N   0  0  0  0  0  0  0  0  0  0  0  0
   46.9240   31.4210   48.1120 C   0  0  0  0  0  0  0  0  0  0  0  0
   46.0170   32.4310   48.1920 N   0  0  0  0  0  0  0  0  0  0  0  0
   44.8420   33.8390   47.0700 H   0  0  0  0  0  0  0  0  0  0  0  0
   45.7150   33.0410   44.8650 H   0  0  0  0  0  0  0  0  0  0  0  0
   47.3240   30.9050   48.9570 H   0  0  0  0  0  0  0  0  0  0  0  0
   48.0210   29.4360   38.1500 N   0  0  0  0  0  0  0  0  0  0  0  0
   48.0760   30.5720   38.3750 C   0  0  0  0  0  0  0  0  0  0  0  0
  1  2  1  0  0  0  0
  2  3  2  0  0  0  0
  2 24  1  0  0  0  0
  3  7  1  0  0  0  0
  4  8  1  0  0  0  0
  4  3  1  0  0  0  0
  5  4  2  0  0  0  0
  6  5  1  0  0  0  0
  6  1  2  0  0  0  0
  9  5  1  0  0  0  0
 10 11  1  0  0  0  0
 10 19  1  0  0  0  0
 11  6  1  0  0  0  0
 12 13  1  0  0  0  0
 12 11  2  0  0  0  0
 14 12  1  0  0  0  0
 15 14  1  0  0  0  0
 16 14  2  0  0  0  0
 16 17  1  0  0  0  0
 17 10  2  0  0  0  0
 18 21  1  0  0  0  0
 19 20  1  0  0  0  0
 19 18  2  0  0  0  0
 20 22  1  0  0  0  0
 23 20  1  0  0  0  0
 24 28  1  0  0  0  0
 25 24  1  0  0  0  0
 26 40  1  0  0  0  0
 27 32  1  0  0  0  0
 27 31  1  0  0  0  0
 27 26  1  0  0  0  0
 28 33  1  6  0  0  0
 28 29  1  0  0  0  0
 28 27  1  0  0  0  0
 29 30  1  0  0  0  0
 30 36  1  0  0  0  0
 30 26  1  0  0  0  0
 30 37  1  0  0  0  0
 34 29  1  0  0  0  0
 35 29  1  0  0  0  0
 38 44  1  0  0  0  0
 38 43  1  0  0  0  0
 39 38  2  0  0  0  0
 40 39  1  0  0  0  0
 40 41  2  0  0  0  0
 41 42  1  0  0  0  0
 42 43  2  0  0  0  0
 42 46  1  0  0  0  0
 45 39  1  0  0  0  0
 47 48  3  0  0  0  0
 48  1  1  0  0  0  0
M  END
>  <minimizedAffinity>
-4.72336817

>  <minimizedRMSD>
3.63650298

$$$$
