
     RDKit          3D

 26 27  0  0  0  0  0  0  0  0999 V2000
   44.5586   35.6213   45.0634 C   0  0  0  0  0  0  0  0  0  0  0  0
   45.0254   35.8862   43.7731 C   0  0  0  0  0  0  0  0  0  0  0  0
   45.9740   34.9821   43.2377 C   0  0  0  0  0  0  0  0  0  0  0  0
   46.3739   33.9166   44.0053 N   0  0  0  0  0  0  0  0  0  0  0  0
   45.8885   33.7113   45.2436 C   0  0  0  0  0  0  0  0  0  0  0  0
   44.9916   34.5601   45.7578 N   0  0  0  0  0  0  0  0  0  0  0  0
   44.6340   36.9595   42.9872 O   0  0  0  0  0  0  0  0  0  0  0  0
   43.8380   36.3103   45.4641 H   0  0  0  0  0  0  0  0  0  0  0  0
   46.2169   32.8647   45.8276 H   0  0  0  0  0  0  0  0  0  0  0  0
   45.1997   37.7821   42.9607 H   0  0  0  0  0  0  0  0  0  0  0  0
   47.1449   31.8047   40.8786 N   0  0  0  0  0  0  0  0  0  0  0  0
   46.4023   32.7760   41.3738 C   0  0  0  0  0  0  0  0  0  0  0  0
   45.5198   31.9609   42.1131 N   0  0  0  0  0  0  0  0  0  0  0  0
   46.7583   34.1280   40.9956 C   0  0  0  0  0  0  0  0  0  0  0  0
   46.5708   35.1078   41.9159 C   0  0  0  0  0  0  0  0  0  0  0  0
   46.9372   36.4223   41.5961 C   0  0  0  0  0  0  0  0  0  0  0  0
   46.8669   37.3189   42.1883 H   0  0  0  0  0  0  0  0  0  0  0  0
   47.4751   36.6383   40.3358 C   0  0  0  0  0  0  0  0  0  0  0  0
   47.8006   37.6087   39.9504 H   0  0  0  0  0  0  0  0  0  0  0  0
   47.6480   35.6004   39.4167 C   0  0  0  0  0  0  0  0  0  0  0  0
   47.2879   34.3115   39.7395 C   0  0  0  0  0  0  0  0  0  0  0  0
   47.9486   31.9514   40.2528 H   0  0  0  0  0  0  0  0  0  0  0  0
   44.7331   31.3819   41.6822 H   0  0  0  0  0  0  0  0  0  0  0  0
   45.7044   31.9598   43.1474 H   0  0  0  0  0  0  0  0  0  0  0  0
   48.0662   35.7672   38.4361 H   0  0  0  0  0  0  0  0  0  0  0  0
   47.4064   33.4867   39.0543 H   0  0  0  0  0  0  0  0  0  0  0  0
  1  6  2  0
  2  1  1  0
  3  2  2  0
  3  4  1  0
  4  5  2  0
  5  6  1  0
  7  2  1  0
  1  8  1  0
  5  9  1  0
  7 10  1  0
 11 12  2  3
 12 13  1  0
 12 14  1  0
 14 15  2  0
 15 16  1  0
 16 17  1  0
 16 18  2  0
 18 19  1  0
 18 20  1  0
 20 21  2  0
 21 14  1  0
 11 22  1  0
 13 23  1  0
 13 24  1  0
 20 25  1  0
 21 26  1  0
  3 15  1  0
M  ISO  5   8  14   9  14  10   3  17  15  19  16
M  END
>  <DihAtoms>  (1) 
1,2,14,13

>  <DihDeg>  (1) 
119.55260996944297

$$$$
