
 OpenBabel03252504563D

 36 36  0  0  1  0  0  0  0  0999 V2000
   45.3400   33.9640   42.5070 N   0  0  0  0  0  0  0  0  0  0  0  0
   45.1670   34.0820   43.9210 C   0  0  0  0  0  0  0  0  0  0  0  0
   44.6840   35.4880   44.0640 C   0  0  0  0  0  0  0  0  0  0  0  0
   44.5430   36.0930   42.6960 C   0  0  0  0  0  0  0  0  0  0  0  0
   44.5360   34.8170   41.7960 C   0  0  2  0  0  0  0  0  0  0  0  0
   45.2880   33.4840   44.7750 H   0  0  0  0  0  0  0  0  0  0  0  0
   44.4320   35.9920   45.0060 H   0  0  0  0  0  0  0  0  0  0  0  0
   43.6290   36.6620   42.6020 H   0  0  0  0  0  0  0  0  0  0  0  0
   45.4500   36.6920   42.5270 H   0  0  0  0  0  0  0  0  0  0  0  0
   44.9810   35.2280   40.8340 H   0  0  0  0  0  0  0  0  0  0  0  0
   42.3910   33.4440   41.4640 C   0  0  0  0  0  0  0  0  0  0  0  0
   43.1330   34.5780   41.5260 C   0  0  0  0  0  0  0  0  0  0  0  0
   42.3700   35.7410   41.3380 C   0  0  0  0  0  0  0  0  0  0  0  0
   42.8310   36.7360   41.3580 H   0  0  0  0  0  0  0  0  0  0  0  0
   41.0160   35.7850   41.1150 C   0  0  0  0  0  0  0  0  0  0  0  0
   40.4740   36.7020   40.9770 H   0  0  0  0  0  0  0  0  0  0  0  0
   40.3250   34.5940   41.0670 C   0  0  0  0  0  3  0  0  0  0  0  0
   41.0320   33.4050   41.2460 C   0  0  0  0  0  3  0  0  0  0  0  0
   42.8570   31.4420   42.6900 N   0  0  0  0  0  0  0  0  0  0  0  0
   42.9370   32.1190   41.5720 C   0  0  0  0  0  3  0  0  0  0  0  0
   43.5800   31.1910   40.7290 N   0  0  0  0  0  1  0  0  0  0  0  0
   43.2390   30.4580   42.7410 H   0  0  0  0  0  0  0  0  0  0  0  0
   43.4220   30.5690   39.9040 H   0  0  0  0  0 15  0  0  0  0  0  0
   44.0580   30.5330   40.1400 H   0  0  0  0  0  0  0  0  0  0  0  0
   46.3310   33.1480   42.0240 C   0  0  0  0  0  0  0  0  0  0  0  0
   47.2760   33.0640   42.6310 H   0  0  0  0  0  0  0  0  0  0  0  0
   45.9820   32.0690   42.0390 H   0  0  0  0  0  0  0  0  0  0  0  0
   48.1090   34.3220   38.9080 C   0  0  0  0  0  0  0  0  0  0  0  0
   47.7920   34.2360   40.2900 C   0  0  0  0  0  0  0  0  0  0  0  0
   46.7550   33.3800   40.6510 C   0  0  0  0  0  0  0  0  0  0  0  0
   46.1160   32.6900   39.6830 N   0  0  0  0  0  0  0  0  0  0  0  0
   46.4380   32.7880   38.3520 C   0  0  0  0  0  0  0  0  0  0  0  0
   47.4370   33.6090   37.9750 N   0  0  0  0  0  0  0  0  0  0  0  0
   48.9190   34.9960   38.6690 H   0  0  0  0  0  0  0  0  0  0  0  0
   48.3060   34.7890   41.0450 H   0  0  0  0  0  0  0  0  0  0  0  0
   45.8480   32.1830   37.6820 H   0  0  0  0  0  0  0  0  0  0  0  0
  1  2  1  0  0  0  0
  2  3  2  0  0  0  0
  2  6  1  0  0  0  0
  3  7  1  0  0  0  0
  4  3  1  0  0  0  0
  5 10  1  6  0  0  0
  5  1  1  0  0  0  0
  5  4  1  0  0  0  0
  8  4  1  0  0  0  0
  9  4  1  0  0  0  0
 11 12  1  0  0  0  0
 11 20  1  0  0  0  0
 12  5  1  0  0  0  0
 13 14  1  0  0  0  0
 13 12  2  0  0  0  0
 15 13  1  0  0  0  0
 16 15  1  0  0  0  0
 17 15  2  0  0  0  0
 17 18  1  0  0  0  0
 18 11  2  0  0  0  0
 19 22  1  0  0  0  0
 20 19  2  0  0  0  0
 24 21  1  0  0  0  0
 25 27  1  0  0  0  0
 25  1  1  0  0  0  0
 25 26  1  0  0  0  0
 28 29  1  0  0  0  0
 29 30  2  0  0  0  0
 29 35  1  0  0  0  0
 30 25  1  0  0  0  0
 31 30  1  0  0  0  0
 32 31  2  0  0  0  0
 33 32  1  0  0  0  0
 33 28  2  0  0  0  0
 34 28  1  0  0  0  0
 36 32  1  0  0  0  0
M  END
>  <minimizedAffinity>
-4.89959526

>  <minimizedRMSD>
6.67858362

$$$$
