REMARK  Name = 
REMARK  3 active torsions:
REMARK  status: ('A' for Active; 'I' for Inactive)
REMARK    1  A    between atoms: C_1  and  O_7
REMARK    2  A    between atoms: C_3  and  C_15
REMARK    3  A    between atoms: C_12  and  C_14
REMARK                            x       y       z     vdW  Elec       q    Type
REMARK                         _______ _______ _______ _____ _____    ______ ____
ROOT
ATOM      1  C   UNL     1      47.763  31.913  42.904  0.00  0.00    +0.000 A 
ATOM      2  C   UNL     1      47.714  33.274  42.959  0.00  0.00    +0.000 A 
ATOM      3  C   UNL     1      48.599  33.983  42.178  0.00  0.00    +0.000 A 
ATOM      4  H   UNL     1      48.578  35.052  42.207  0.00  0.00    +0.000 HD
ATOM      5  C   UNL     1      49.526  33.395  41.348  0.00  0.00    +0.000 A 
ATOM      6  H   UNL     1      50.192  34.025  40.760  0.00  0.00    +0.000 HD
ATOM      7  C   UNL     1      49.601  32.019  41.268  0.00  0.00    +0.000 A 
ATOM      8  C   UNL     1      48.700  31.299  42.063  0.00  0.00    +0.000 A 
ENDROOT
BRANCH   2  11
ATOM      9  C   UNL     1      45.002  35.486  44.185  0.00  0.00    +0.000 A 
ATOM     10  C   UNL     1      45.984  34.913  43.362  0.00  0.00    +0.000 A 
ATOM     11  C   UNL     1      46.719  33.827  43.837  0.00  0.00    +0.000 A 
ATOM     12  N   UNL     1      46.433  33.393  45.077  0.00  0.00    +0.000 NA
ATOM     13  C   UNL     1      45.496  33.943  45.858  0.00  0.00    +0.000 A 
ATOM     14  N   UNL     1      44.782  34.995  45.401  0.00  0.00    +0.000 NA
ATOM     15  H   UNL     1      46.079  35.385  42.407  0.00  0.00    +0.000 HD
ATOM     16  H   UNL     1      45.346  33.517  46.838  0.00  0.00    +0.000 HD
BRANCH   9  17
ATOM     17  O   UNL     1      44.282  36.546  43.725  0.00  0.00    +0.000 OA
ATOM     18  H   UNL     1      44.374  37.487  44.063  0.00  0.00    +0.000 HD
ENDBRANCH   9  17
ENDBRANCH   2  11
BRANCH   1  20
ATOM     19  N   UNL     1      46.585  29.777  43.083  0.00  0.00    +0.000 NA
ATOM     20  C   UNL     1      47.034  30.880  43.579  0.00  0.00    +0.000 C 
ATOM     21  N   UNL     1      46.589  30.651  44.894  0.00  0.00    +0.000 N 
ATOM     22  H   UNL     1      46.088  29.126  43.724  0.00  0.00    +0.000 HD
ATOM     23  H   UNL     1      47.178  30.636  45.749  0.00  0.00    +0.000 HD
ATOM     24  H   UNL     1      46.266  30.486  45.838  0.00  0.00    +0.000 HD
ENDBRANCH   1  20
TORSDOF 3
