
 OpenBabel03252504053D

 24 25  0  0  0  0  0  0  0  0999 V2000
   46.3110   34.0300   41.0590 C   0  0  0  0  0  0  0  0  0  0  0  0
   46.7200   34.6610   42.1890 C   0  0  0  0  0  0  0  0  0  0  0  0
   47.9420   35.3460   42.1840 C   0  0  0  0  0  0  0  0  0  0  0  0
   48.4260   35.8960   42.9730 H   0  0  0  0  0  0  0  0  0  0  0  0
   48.6650   35.3360   41.0000 C   0  0  0  0  0  0  0  0  0  0  0  0
   49.6300   35.8290   40.8500 H   0  0  0  0  0  0  0  0  0  0  0  0
   48.2060   34.6760   39.8580 C   0  0  0  0  0  3  0  0  0  0  0  0
   47.0050   34.0030   39.8720 C   0  0  0  0  0  3  0  0  0  0  0  0
   44.4730   35.7240   45.0250 C   0  0  0  0  0  0  0  0  0  0  0  0
   45.0570   35.7680   43.7560 C   0  0  0  0  0  0  0  0  0  0  0  0
   46.0080   34.7630   43.4560 C   0  0  0  0  0  0  0  0  0  0  0  0
   46.2960   33.8220   44.4110 N   0  0  0  0  0  0  0  0  0  0  0  0
   45.7000   33.8290   45.6180 C   0  0  0  0  0  0  0  0  0  0  0  0
   44.8000   34.7740   45.9120 N   0  0  0  0  0  0  0  0  0  0  0  0
   43.7510   36.4890   45.2470 H   0  0  0  0  0  0  0  0  0  0  0  0
   45.9410   33.0760   46.3540 H   0  0  0  0  0  0  0  0  0  0  0  0
   44.7810   36.7140   42.7820 O   0  0  0  0  0  0  0  0  0  0  0  0
   45.3820   37.5060   42.6800 H   0  0  0  0  0  0  0  0  0  0  0  0
   45.1410   31.9860   41.1730 N   0  0  0  0  0  0  0  0  0  0  0  0
   45.0610   33.3020   41.1120 C   0  0  0  0  0  0  0  0  0  0  0  0
   43.6530   33.3910   41.1280 N   0  0  0  0  0  0  0  0  0  0  0  0
   46.0250   31.4590   41.1860 H   0  0  0  0  0  0  0  0  0  0  0  0
   43.0270   33.1700   40.2920 H   0  0  0  0  0  0  0  0  0  0  0  0
   43.2540   33.6940   42.0520 H   0  0  0  0  0  0  0  0  0  0  0  0
  1 20  1  0  0  0  0
  1  2  1  0  0  0  0
  2 11  1  0  0  0  0
  3  2  2  0  0  0  0
  3  4  1  0  0  0  0
  5  3  1  0  0  0  0
  6  5  1  0  0  0  0
  7  8  1  0  0  0  0
  7  5  2  0  0  0  0
  8  1  2  0  0  0  0
  9 15  1  0  0  0  0
  9 14  1  0  0  0  0
 10  9  2  0  0  0  0
 11 10  1  0  0  0  0
 11 12  2  0  0  0  0
 12 13  1  0  0  0  0
 13 14  2  0  0  0  0
 13 16  1  0  0  0  0
 17 10  1  0  0  0  0
 18 17  1  0  0  0  0
 19 22  1  0  0  0  0
 20 21  1  0  0  0  0
 20 19  2  0  0  0  0
 21 24  1  0  0  0  0
 23 21  1  0  0  0  0
M  END
>  <minimizedAffinity>
-5.38803768

>  <minimizedRMSD>
1.41694438

$$$$
