
     RDKit          3D

 26 27  0  0  0  0  0  0  0  0999 V2000
   44.5586   35.6213   45.0634 C   0  0  0  0  0  0  0  0  0  0  0  0
   45.0254   35.8862   43.7731 C   0  0  0  0  0  0  0  0  0  0  0  0
   45.9740   34.9821   43.2377 C   0  0  0  0  0  0  0  0  0  0  0  0
   46.3739   33.9166   44.0053 N   0  0  0  0  0  0  0  0  0  0  0  0
   45.8885   33.7113   45.2436 C   0  0  0  0  0  0  0  0  0  0  0  0
   44.9916   34.5601   45.7578 N   0  0  0  0  0  0  0  0  0  0  0  0
   44.6340   36.9595   42.9872 O   0  0  0  0  0  0  0  0  0  0  0  0
   43.8380   36.3103   45.4641 H   0  0  0  0  0  0  0  0  0  0  0  0
   46.2169   32.8647   45.8276 H   0  0  0  0  0  0  0  0  0  0  0  0
   45.1997   37.7821   42.9607 H   0  0  0  0  0  0  0  0  0  0  0  0
   44.3658   33.4116   39.7766 N   0  0  0  0  0  0  0  0  0  0  0  0
   44.6579   34.2765   40.7289 C   0  0  0  0  0  0  0  0  0  0  0  0
   43.4048   34.2527   41.3761 N   0  0  0  0  0  0  0  0  0  0  0  0
   45.9950   34.8329   40.7180 C   0  0  0  0  0  0  0  0  0  0  0  0
   46.5708   35.1078   41.9159 C   0  0  0  0  0  0  0  0  0  0  0  0
   47.8773   35.6143   41.9438 C   0  0  0  0  0  0  0  0  0  0  0  0
   48.4913   35.8866   42.7855 H   0  0  0  0  0  0  0  0  0  0  0  0
   48.5055   35.8066   40.7220 C   0  0  0  0  0  0  0  0  0  0  0  0
   49.5187   36.1972   40.5919 H   0  0  0  0  0  0  0  0  0  0  0  0
   47.8743   35.5132   39.5106 C   0  0  0  0  0  0  0  0  0  0  0  0
   46.5917   35.0135   39.4919 C   0  0  0  0  0  0  0  0  0  0  0  0
   45.0227   33.1145   39.0424 H   0  0  0  0  0  0  0  0  0  0  0  0
   42.5277   34.7357   41.0054 H   0  0  0  0  0  0  0  0  0  0  0  0
   43.3965   33.7025   42.2711 H   0  0  0  0  0  0  0  0  0  0  0  0
   48.3618   35.6624   38.5596 H   0  0  0  0  0  0  0  0  0  0  0  0
   46.0740   34.7771   38.5754 H   0  0  0  0  0  0  0  0  0  0  0  0
  1  6  2  0
  2  1  1  0
  3  2  2  0
  3  4  1  0
  4  5  2  0
  5  6  1  0
  7  2  1  0
  1  8  1  0
  5  9  1  0
  7 10  1  0
 11 12  2  3
 12 13  1  0
 12 14  1  0
 14 15  2  0
 15 16  1  0
 16 17  1  0
 16 18  2  0
 18 19  1  0
 18 20  1  0
 20 21  2  0
 21 14  1  0
 11 22  1  0
 13 23  1  0
 13 24  1  0
 20 25  1  0
 21 26  1  0
  3 15  1  0
M  ISO  5   8  14   9  14  10   3  17  15  19  16
M  END
>  <DihAtoms>  (1) 
1,2,14,13

>  <DihDeg>  (1) 
119.55260996944297

$$$$
