
     RDKit          3D

 54 57  0  0  0  0  0  0  0  0999 V2000
   44.1113   33.5708   40.7036 C   0  0  0  0  0  0  0  0  0  0  0  0
   44.4090   34.7285   41.4785 C   0  0  0  0  0  0  0  0  0  0  0  0
   43.4209   35.7080   41.6130 C   0  0  0  0  0  0  0  0  0  0  0  0
   42.2231   35.5132   41.0004 N   0  0  0  0  0  0  0  0  0  0  0  0
   41.9805   34.4051   40.2766 C   0  0  0  0  0  0  0  0  0  0  0  0
   42.9222   33.4564   40.1397 N   0  0  0  0  0  0  0  0  0  0  0  0
   39.7542   33.5896   41.7236 F   0  0  0  0  0  0  0  0  0  0  0  0
   39.5803   33.8252   40.3958 C   0  0  0  0  0  0  0  0  0  0  0  0
   40.6815   34.2373   39.6382 C   0  0  0  0  0  0  0  0  0  0  0  0
   40.5870   34.4955   38.2900 C   0  0  0  0  0  0  0  0  0  0  0  0
   39.3347   34.3284   37.7002 C   0  0  0  0  0  0  0  0  0  0  0  0
   38.2139   33.9163   38.4358 C   0  0  0  0  0  0  0  0  0  0  0  0
   38.3465   33.6660   39.7889 C   0  0  0  0  0  0  0  0  0  0  0  0
   45.7073   34.9274   42.1394 C   0  0  0  0  0  0  0  0  0  0  0  0
   46.8674   34.7121   41.4901 C   0  0  0  0  0  0  0  0  0  0  0  0
   48.1719   34.9317   42.2148 C   0  0  0  0  0  0  0  0  0  0  0  0
   49.2800   34.3259   41.5095 N   0  0  0  0  0  0  0  0  0  0  0  0
   50.3265   34.0250   42.4568 C   0  0  0  0  0  0  0  0  0  0  0  0
   50.9876   32.7590   42.0168 C   0  0  0  0  0  0  0  0  0  0  0  0
   49.9237   32.0781   41.2173 C   0  0  0  0  0  0  0  0  0  0  0  0
   48.8944   33.1255   40.8580 C   0  0  2  0  0  0  0  0  0  0  0  0
   44.9075   32.8229   40.6183 H   0  0  0  0  0  0  0  0  0  0  0  0
   43.6028   36.6035   42.1919 H   0  0  0  0  0  0  0  0  0  0  0  0
   41.4403   34.8080   37.7355 H   0  0  0  0  0  0  0  0  0  0  0  0
   39.2995   34.5426   36.6304 H   0  0  0  0  0  0  0  0  0  0  0  0
   37.2907   33.8138   37.9012 H   0  0  0  0  0  0  0  0  0  0  0  0
   37.4829   33.3458   40.3685 H   0  0  0  0  0  0  0  0  0  0  0  0
   45.6749   35.2604   43.1894 H   0  0  0  0  0  0  0  0  0  0  0  0
   46.5154   34.3993   40.4930 H   0  0  0  0  0  0  0  0  0  0  0  0
   48.0671   34.3936   43.1802 H   0  0  0  0  0  0  0  0  0  0  0  0
   48.3254   35.9917   42.4426 H   0  0  0  0  0  0  0  0  0  0  0  0
   49.8625   33.9073   43.4731 H   0  0  0  0  0  0  0  0  0  0  0  0
   51.0687   34.8605   42.4889 H   0  0  0  0  0  0  0  0  0  0  0  0
   51.9313   32.9356   41.4787 H   0  0  0  0  0  0  0  0  0  0  0  0
   51.1910   32.1377   42.9224 H   0  0  0  0  0  0  0  0  0  0  0  0
   50.4100   31.7311   40.2596 H   0  0  0  0  0  0  0  0  0  0  0  0
   49.5044   31.1678   41.6667 H   0  0  0  0  0  0  0  0  0  0  0  0
   47.9550   32.7748   41.3808 H   0  0  0  0  0  0  0  0  0  0  0  0
   47.5115   30.1133   40.0984 N   0  0  0  0  0  0  0  0  0  0  0  0
   47.4438   31.0740   39.2544 C   0  0  0  0  0  0  0  0  0  0  0  0
   46.2183   30.4670   38.7962 N   0  0  0  0  0  0  0  0  0  0  0  0
   47.9489   32.2856   38.6537 C   0  0  0  0  0  0  0  0  0  0  0  0
   48.6147   33.1868   39.4296 C   0  0  0  0  0  0  0  0  0  0  0  0
   49.0586   34.3107   38.7185 C   0  0  0  0  0  0  0  0  0  0  0  0
   49.6065   35.0895   39.2696 H   0  0  0  0  0  0  0  0  0  0  0  0
   48.8219   34.4483   37.3681 C   0  0  0  0  0  0  0  0  0  0  0  0
   49.2065   35.3506   36.9184 H   0  0  0  0  0  0  0  0  0  0  0  0
   48.1413   33.5014   36.6364 C   0  0  0  0  0  0  0  0  0  0  0  0
   47.6937   32.3886   37.3049 C   0  0  0  0  0  0  0  0  0  0  0  0
   46.7170   29.4257   40.0434 H   0  0  0  0  0  0  0  0  0  0  0  0
   46.2331   29.9927   37.8455 H   0  0  0  0  0  0  0  0  0  0  0  0
   45.1974   30.2261   38.9386 H   0  0  0  0  0  0  0  0  0  0  0  0
   48.0236   33.7301   35.5884 H   0  0  0  0  0  0  0  0  0  0  0  0
   47.1646   31.6536   36.7323 H   0  0  0  0  0  0  0  0  0  0  0  0
  1  2  2  0
  2  3  1  0
  2 14  1  0
  4  3  2  0
  5  4  1  0
  6  5  2  0
  6  1  1  0
  8  7  1  0
  9  5  1  0
  9  8  2  0
 10  9  1  0
 11 10  2  0
 11 12  1  0
 12 13  2  0
 13  8  1  0
 15 14  2  0
 15 16  1  0
 17 16  1  0
 17 18  1  0
 19 18  1  0
 20 19  1  0
 21 20  1  0
 21 17  1  0
  1 22  1  0
  3 23  1  0
 10 24  1  0
 11 25  1  0
 12 26  1  0
 13 27  1  0
 14 28  1  0
 15 29  1  0
 16 30  1  0
 16 31  1  0
 18 32  1  0
 18 33  1  0
 19 34  1  0
 19 35  1  0
 20 36  1  0
 20 37  1  0
 21 38  1  1
 39 40  2  3
 40 41  1  0
 40 42  1  0
 42 43  2  0
 43 44  1  0
 44 45  1  0
 44 46  2  0
 46 47  1  0
 46 48  1  0
 48 49  2  0
 49 42  1  0
 39 50  1  0
 41 51  1  0
 41 52  1  0
 48 53  1  0
 49 54  1  0
 21 43  1  0
M  ISO  8  22  14  23  14  24  14  25  14  26  14  27  14  30   8  31   8
M  ISO  8  32  13  33  13  34  13  35  13  36  13  37  13  38  13  45  15
M  ISO  1  47  16
M  END
>  <DihAtoms>  (1) 
19,20,42,41

>  <DihDeg>  (1) 
-94.12927334365075

$$$$
