
 OpenBabel03242515323D

 45 48  0  0  1  0  0  0  0  0999 V2000
   44.1470   34.5400   40.5560 F   0  0  0  0  0  0  0  0  0  0  0  0
   44.8030   33.3250   40.5250 C   0  0  0  0  0  0  0  0  0  0  0  0
   46.1290   33.3340   40.8650 C   0  0  0  0  0  0  0  0  0  0  0  0
   46.7470   32.0910   40.8350 C   0  0  0  0  0  0  0  0  0  0  0  0
   46.0440   30.9570   40.4820 C   0  0  0  0  0  0  0  0  0  0  0  0
   44.6820   31.0160   40.1420 C   0  0  0  0  0  0  0  0  0  0  0  0
   44.0460   32.2640   40.1700 C   0  0  0  0  0  0  0  0  0  0  0  0
   47.7830   31.9440   41.0770 H   0  0  0  0  0  0  0  0  0  0  0  0
   46.4840   29.9620   40.4430 H   0  0  0  0  0  0  0  0  0  0  0  0
   44.0940   30.1510   39.8610 H   0  0  0  0  0  0  0  0  0  0  0  0
   47.2860   34.5850   42.6260 N   0  0  0  0  0  0  0  0  0  0  0  0
   48.7120   34.4370   42.6640 C   0  0  0  0  0  0  0  0  0  0  0  0
   49.0690   35.3580   41.5210 C   0  0  0  0  0  0  0  0  0  0  0  0
   48.1640   34.7420   40.4420 C   0  0  0  0  0  0  0  0  0  0  0  0
   46.9080   34.5200   41.2100 C   0  0  1  0  0  0  0  0  0  0  0  0
   49.0740   33.4180   42.4990 H   0  0  0  0  0  0  0  0  0  0  0  0
   49.1090   34.9050   43.5980 H   0  0  0  0  0  0  0  0  0  0  0  0
   48.7650   36.3850   41.7470 H   0  0  0  0  0  0  0  0  0  0  0  0
   50.1380   35.2540   41.2410 H   0  0  0  0  0  0  0  0  0  0  0  0
   48.0670   35.4000   39.5600 H   0  0  0  0  0  0  0  0  0  0  0  0
   48.6380   33.7610   40.2090 H   0  0  0  0  0  0  0  0  0  0  0  0
   46.2460   35.4250   41.0910 H   0  0  0  0  0  0  0  0  0  0  0  0
   44.4730   35.8940   44.6840 C   0  0  0  0  0  0  0  0  0  0  0  0
   45.3670   35.7780   43.6280 C   0  0  0  0  0  0  0  0  0  0  0  0
   46.3370   34.7690   43.6600 C   0  0  0  0  0  0  0  0  0  0  0  0
   46.3440   33.9590   44.7310 N   0  0  0  0  0  0  0  0  0  0  0  0
   45.4770   34.0730   45.7520 C   0  0  0  0  0  0  0  0  0  0  0  0
   44.5320   35.0540   45.7250 N   0  0  0  0  0  0  0  0  0  0  0  0
   43.7560   36.7060   44.5690 H   0  0  0  0  0  0  0  0  0  0  0  0
   45.3560   36.4360   42.7640 H   0  0  0  0  0  0  0  0  0  0  0  0
   45.5160   33.3940   46.6060 H   0  0  0  0  0  0  0  0  0  0  0  0
   42.2260   32.3900   38.4910 C   0  0  0  0  0  0  0  0  0  0  0  0
   42.6340   32.3330   39.8190 C   0  0  0  0  0  0  0  0  0  0  0  0
   41.6520   32.3460   40.8060 C   0  0  0  0  0  0  0  0  0  0  0  0
   41.9630   32.3030   41.8380 H   0  0  0  0  0  0  0  0  0  0  0  0
   40.2920   32.4110   40.5300 C   0  0  0  0  0  0  0  0  0  0  0  0
   39.5750   32.4180   41.3430 H   0  0  0  0  0  0  0  0  0  0  0  0
   39.8910   32.4650   39.2130 C   0  0  0  0  0  3  0  0  0  0  0  0
   40.8770   32.4530   38.2360 C   0  0  0  0  0  3  0  0  0  0  0  0
   44.0610   33.3330   37.2430 N   0  0  0  0  0  0  0  0  0  0  0  0
   43.2010   32.3790   37.4080 C   0  0  0  0  0  0  0  0  0  0  0  0
   43.1660   31.2640   36.5280 N   0  0  0  0  0  0  0  0  0  0  0  0
   44.7100   33.2130   36.4280 H   0  0  0  0  0  0  0  0  0  0  0  0
   42.2720   31.1490   35.9920 H   0  0  0  0  0  0  0  0  0  0  0  0
   43.5520   30.4080   36.0590 H   0  0  0  0  0  0  0  0  0  0  0  0
  2  1  1  0  0  0  0
  2  3  1  0  0  0  0
  3 15  1  0  0  0  0
  4  3  2  0  0  0  0
  4  8  1  0  0  0  0
  5  4  1  0  0  0  0
  6  7  1  0  0  0  0
  6  5  2  0  0  0  0
  7  2  2  0  0  0  0
  9  5  1  0  0  0  0
 10  6  1  0  0  0  0
 11 12  1  0  0  0  0
 11 25  1  0  0  0  0
 12 17  1  0  0  0  0
 13 18  1  0  0  0  0
 13 12  1  0  0  0  0
 14 15  1  0  0  0  0
 14 13  1  0  0  0  0
 15 22  1  6  0  0  0
 15 11  1  0  0  0  0
 16 12  1  0  0  0  0
 19 13  1  0  0  0  0
 20 14  1  0  0  0  0
 21 14  1  0  0  0  0
 23 28  1  0  0  0  0
 24 25  1  0  0  0  0
 24 23  2  0  0  0  0
 25 26  2  0  0  0  0
 26 27  1  0  0  0  0
 27 31  1  0  0  0  0
 28 27  2  0  0  0  0
 29 23  1  0  0  0  0
 30 24  1  0  0  0  0
 32 33  1  0  0  0  0
 33  7  1  0  0  0  0
 33 34  2  0  0  0  0
 34 35  1  0  0  0  0
 36 34  1  0  0  0  0
 36 37  1  0  0  0  0
 38 36  2  0  0  0  0
 39 32  2  0  0  0  0
 39 38  1  0  0  0  0
 40 41  2  0  0  0  0
 41 32  1  0  0  0  0
 42 41  1  0  0  0  0
 43 40  1  0  0  0  0
 44 42  1  0  0  0  0
 45 42  1  0  0  0  0
M  END
>  <minimizedAffinity>
-5.80853415

>  <minimizedRMSD>
0.745936453

$$$$
