
 OpenBabel03242511293D

 39 43  0  0  1  0  0  0  0  0999 V2000
   46.4410   33.1950   38.5280 C   0  0  0  0  0  0  0  0  0  0  0  0
   47.0520   33.4860   37.3180 C   0  0  0  0  0  0  0  0  0  0  0  0
   46.1570   32.3670   36.1410 S   0  0  0  0  0  0  0  0  0  0  0  0
   45.0950   31.7010   37.5620 C   0  0  0  0  0  0  0  0  0  0  0  0
   45.5140   32.2950   38.4090 N   0  0  0  0  0  0  0  0  0  0  0  0
   47.8490   34.1820   37.0830 H   0  0  0  0  0  0  0  0  0  0  0  0
   44.6750   33.3240   41.1060 Cl  0  0  0  0  0  0  0  0  0  0  0  0
   46.2300   34.0350   40.9210 C   0  0  0  0  0  0  0  0  0  0  0  0
   46.7960   34.7320   41.9610 C   0  0  0  0  0  0  0  0  0  0  0  0
   48.0600   35.3260   41.8550 C   0  0  0  0  0  0  0  0  0  0  0  0
   48.6960   35.1700   40.6530 C   0  0  0  0  0  0  0  0  0  0  0  0
   48.1380   34.4820   39.6220 C   0  0  0  0  0  0  0  0  0  0  0  0
   46.8840   33.8950   39.7340 C   0  0  0  0  0  0  0  0  0  0  0  0
   48.5030   35.8740   42.6760 H   0  0  0  0  0  0  0  0  0  0  0  0
   49.6760   35.6330   40.5750 H   0  0  0  0  0  0  0  0  0  0  0  0
   48.7410   34.4260   38.7140 H   0  0  0  0  0  0  0  0  0  0  0  0
   45.5300   34.0410   45.3630 C   0  0  0  0  0  0  0  0  0  0  0  0
   44.6830   35.1140   45.5890 C   0  0  0  0  0  0  0  0  0  0  0  0
   44.5450   36.0650   44.5890 C   0  0  0  0  0  0  0  0  0  0  0  0
   45.2360   35.9180   43.4340 N   0  0  0  0  0  0  0  0  0  0  0  0
   46.0650   34.8630   43.2190 C   0  0  0  0  0  0  0  0  0  0  0  0
   46.1950   33.9420   44.1950 N   0  0  0  0  0  0  0  0  0  0  0  0
   45.6710   33.2730   46.1130 H   0  0  0  0  0  0  0  0  0  0  0  0
   44.1370   35.2370   46.4950 H   0  0  0  0  0  0  0  0  0  0  0  0
   43.9010   36.9490   44.6700 H   0  0  0  0  0  0  0  0  0  0  0  0
   44.3310   29.3780   37.5090 C   0  0  0  0  0  0  0  0  0  0  0  0
   44.1150   30.6950   37.1770 C   0  0  0  0  0  0  0  0  0  0  0  0
   42.9350   30.9390   36.5080 C   0  0  0  0  0  0  0  0  0  0  0  0
   42.7090   31.9490   36.2210 H   0  0  0  0  0  0  0  0  0  0  0  0
   42.0890   29.9010   36.2260 C   0  0  0  0  0  0  0  0  0  0  0  0
   41.1840   30.1750   35.6970 H   0  0  0  0  0  0  0  0  0  0  0  0
   42.3230   28.5840   36.5680 C   0  0  0  0  0  3  0  0  0  0  0  0
   43.4960   28.3270   37.2380 C   0  0  0  0  0  3  0  0  0  0  0  0
   46.7820   29.0620   38.5520 N   0  0  0  0  0  0  0  0  0  0  0  0
   45.5650   29.0270   38.1830 C   0  0  1  0  0  3  0  0  0  0  0  0
   45.5390   27.9180   39.0710 N   0  0  0  0  0  4  0  0  0  0  0  0
   47.4820   29.7510   38.2230 H   0  0  0  0  0  0  0  0  0  0  0  0
   44.6760   27.6050   39.5780 H   0  0  0  0  0  0  0  0  0  0  0  0
   45.5560   27.1000   39.7150 H   0  0  0  0  0  0  0  0  0  0  0  0
  1 13  1  0  0  0  0
  2  1  2  0  0  0  0
  3  2  1  0  0  0  0
  3  4  1  0  0  0  0
  4  5  2  0  0  0  0
  5  1  1  0  0  0  0
  6  2  1  0  0  0  0
  8  7  1  0  0  0  0
  8  9  1  0  0  0  0
  9 21  1  0  0  0  0
 10  9  2  0  0  0  0
 10 14  1  0  0  0  0
 11 10  1  0  0  0  0
 12 13  1  0  0  0  0
 12 11  2  0  0  0  0
 13  8  2  0  0  0  0
 15 11  1  0  0  0  0
 16 12  1  0  0  0  0
 17 18  1  0  0  0  0
 17 23  1  0  0  0  0
 18 24  1  0  0  0  0
 19 25  1  0  0  0  0
 19 18  2  0  0  0  0
 20 19  1  0  0  0  0
 21 20  2  0  0  0  0
 21 22  1  0  0  0  0
 22 17  2  0  0  0  0
 27 26  2  0  0  0  0
 27  4  1  0  0  0  0
 28 27  1  0  0  0  0
 29 28  1  0  0  0  0
 30 28  2  0  0  0  0
 30 32  1  0  0  0  0
 31 30  1  0  0  0  0
 32 33  2  0  0  0  0
 33 26  1  0  0  0  0
 34 36  1  0  0  0  0
 35 26  1  1  0  0  0
 35 34  1  0  0  0  0
 35 36  1  0  0  0  0
 36 38  1  0  0  0  0
 36 39  1  0  0  0  0
 37 34  1  0  0  0  0
M  END
>  <minimizedAffinity>
-5.54981041

>  <minimizedRMSD>
1.05264556

$$$$
