REMARK  Name = 
REMARK  4 active torsions:
REMARK  status: ('A' for Active; 'I' for Inactive)
REMARK    1  A    between atoms: C_3  and  C_7
REMARK    2  A    between atoms: C_7  and  N_8
REMARK    3  A    between atoms: C_12  and  C_27
REMARK    4  A    between atoms: C_24  and  C_26
REMARK                            x       y       z     vdW  Elec       q    Type
REMARK                         _______ _______ _______ _____ _____    ______ ____
ROOT
ATOM      1  N   UNL     1      47.047  34.418  41.387  0.00  0.00    +0.000 N 
ATOM      2  C   UNL     1      47.463  33.876  40.132  0.00  0.00    +0.000 C 
ATOM      3  C   UNL     1      48.601  34.771  39.763  0.00  0.00    +0.000 C 
ATOM      4  C   UNL     1      48.821  35.757  40.876  0.00  0.00    +0.000 C 
ATOM      5  C   UNL     1      48.054  35.071  42.050  0.00  0.00    +0.000 C 
ATOM      6  H   UNL     1      47.187  33.094  39.489  0.00  0.00    +0.000 HD
ATOM      7  H   UNL     1      49.208  34.702  38.852  0.00  0.00    +0.000 HD
ATOM      8  H   UNL     1      49.872  35.884  41.096  0.00  0.00    +0.000 HD
ATOM      9  H   UNL     1      48.323  36.688  40.567  0.00  0.00    +0.000 HD
ATOM     10  H   UNL     1      47.738  35.976  42.660  0.00  0.00    +0.000 HD
ENDROOT
BRANCH   5  12
ATOM     11  C   UNL     1      49.601  33.150  42.767  0.00  0.00    +0.000 A 
ATOM     12  C   UNL     1      49.090  34.406  42.814  0.00  0.00    +0.000 A 
ATOM     13  C   UNL     1      49.733  35.223  43.756  0.00  0.00    +0.000 A 
ATOM     14  H   UNL     1      49.430  36.266  43.910  0.00  0.00    +0.000 HD
ATOM     15  C   UNL     1      50.774  34.845  44.568  0.00  0.00    +0.000 A 
ATOM     16  H   UNL     1      51.235  35.508  45.276  0.00  0.00    +0.000 HD
ATOM     17  C   UNL     1      51.244  33.555  44.467  0.00  0.00    +0.000 A 
ATOM     18  C   UNL     1      50.642  32.696  43.547  0.00  0.00    +0.000 A 
BRANCH  11  20
ATOM     19  N   UNL     1      49.888  31.374  41.191  0.00  0.00    +0.000 NA
ATOM     20  C   UNL     1      49.088  32.103  41.926  0.00  0.00    +0.000 C 
ATOM     21  N   UNL     1      47.837  31.523  41.642  0.00  0.00    +0.000 N 
ATOM     22  H   UNL     1      49.494  30.590  40.601  0.00  0.00    +0.000 HD
ATOM     23  H   UNL     1      47.077  30.939  42.059  0.00  0.00    +0.000 HD
ATOM     24  H   UNL     1      46.945  31.119  41.417  0.00  0.00    +0.000 HD
ENDBRANCH  11  20
ENDBRANCH   5  12
BRANCH   1  25
ATOM     25  C   UNL     1      45.721  34.352  41.733  0.00  0.00    +0.000 C 
ATOM     26  H   UNL     1      44.990  34.928  41.100  0.00  0.00    +0.000 HD
ATOM     27  H   UNL     1      45.336  33.296  41.580  0.00  0.00    +0.000 HD
BRANCH  25  30
ATOM     28  C   UNL     1      44.481  35.987  44.901  0.00  0.00    +0.000 A 
ATOM     29  C   UNL     1      44.770  35.847  43.518  0.00  0.00    +0.000 A 
ATOM     30  C   UNL     1      45.391  34.668  43.115  0.00  0.00    +0.000 A 
ATOM     31  N   UNL     1      45.681  33.736  44.047  0.00  0.00    +0.000 NA
ATOM     32  C   UNL     1      45.393  33.891  45.381  0.00  0.00    +0.000 A 
ATOM     33  N   UNL     1      44.792  35.022  45.797  0.00  0.00    +0.000 NA
ATOM     34  H   UNL     1      43.999  36.915  45.173  0.00  0.00    +0.000 HD
ATOM     35  H   UNL     1      44.536  36.594  42.791  0.00  0.00    +0.000 HD
ATOM     36  H   UNL     1      45.678  33.070  46.020  0.00  0.00    +0.000 HD
ENDBRANCH  25  30
ENDBRANCH   1  25
TORSDOF 4
