
 OpenBabel03242513243D

 50 53  0  0  1  0  0  0  0  0999 V2000
   45.8430   30.2140   46.0630 C   0  0  0  0  0  0  0  0  0  0  0  0
   44.7720   30.1030   45.8190 H   0  0  0  0  0  0  0  0  0  0  0  0
   46.3380   29.2600   45.7870 H   0  0  0  0  0  0  0  0  0  0  0  0
   45.9930   30.4140   47.5340 C   0  0  2  0  0  0  0  0  0  0  0  0
   44.7330   30.9940   48.1790 C   0  0  0  0  0  0  0  0  0  0  0  0
   45.3690   31.4180   49.4920 C   0  0  0  0  0  0  0  0  0  0  0  0
   46.5700   31.9690   49.1330 O   0  0  0  0  0  0  0  0  0  0  0  0
   46.9750   31.4620   47.9210 C   0  0  1  0  0  0  0  0  0  0  0  0
   46.1530   29.4350   47.9830 H   0  0  0  0  0  0  0  0  0  0  0  0
   44.4460   31.9010   47.6190 H   0  0  0  0  0  0  0  0  0  0  0  0
   43.9400   30.2520   48.3180 H   0  0  0  0  0  0  0  0  0  0  0  0
   44.7220   32.1150   50.0540 H   0  0  0  0  0  0  0  0  0  0  0  0
   45.5470   30.4920   50.0690 H   0  0  0  0  0  0  0  0  0  0  0  0
   46.9530   32.2990   47.1890 H   0  0  0  0  0  0  0  0  0  0  0  0
   48.3490   30.9010   48.0500 C   0  0  1  0  0  0  0  0  0  0  0  0
   49.0290   31.3850   49.3240 C   0  0  0  0  0  0  0  0  0  0  0  0
   49.6980   30.1170   49.8120 C   0  0  0  0  0  0  0  0  0  0  0  0
   49.6270   29.2000   48.7610 O   0  0  0  0  0  0  0  0  0  0  0  0
   48.3170   29.3990   48.3120 C   0  0  0  0  0  0  0  0  0  0  0  0
   48.9970   31.0760   47.1760 H   0  0  0  0  0  0  0  0  0  0  0  0
   49.7770   32.1740   49.1190 H   0  0  0  0  0  0  0  0  0  0  0  0
   48.2540   31.6570   50.0460 H   0  0  0  0  0  0  0  0  0  0  0  0
   50.7700   30.3360   49.9730 H   0  0  0  0  0  0  0  0  0  0  0  0
   49.2680   29.7340   50.7470 H   0  0  0  0  0  0  0  0  0  0  0  0
   48.0720   28.8040   47.4290 H   0  0  0  0  0  0  0  0  0  0  0  0
   47.6920   29.1710   49.2080 H   0  0  0  0  0  0  0  0  0  0  0  0
   47.2470   31.0340   44.2590 C   0  0  0  0  0  0  0  0  0  0  0  0
   46.4620   31.2960   45.2530 C   0  0  0  0  0  0  0  0  0  0  0  0
   48.1110   34.3460   43.0000 C   0  0  0  0  0  0  0  0  0  0  0  0
   49.0320   34.0460   41.9480 C   0  0  0  0  0  0  0  0  0  0  0  0
   49.3110   32.7050   41.7230 C   0  0  0  0  0  0  0  0  0  0  0  0
   48.7030   31.7830   42.5040 N   0  0  0  0  0  0  0  0  0  0  0  0
   47.8400   32.0950   43.4890 C   0  0  0  0  0  0  0  0  0  0  0  0
   47.5430   33.3650   43.7370 N   0  0  0  0  0  0  0  0  0  0  0  0
   47.9030   35.3970   43.1640 H   0  0  0  0  0  0  0  0  0  0  0  0
   49.4800   34.8250   41.4120 H   0  0  0  0  0  0  0  0  0  0  0  0
   50.0280   31.8680   39.4380 C   0  0  0  0  0  0  0  0  0  0  0  0
   50.2470   32.1810   40.7510 C   0  0  0  0  0  0  0  0  0  0  0  0
   51.5580   31.9420   41.1530 C   0  0  0  0  0  0  0  0  0  0  0  0
   51.8680   32.1480   42.1870 H   0  0  0  0  0  0  0  0  0  0  0  0
   52.5280   31.4460   40.3130 C   0  0  0  0  0  0  0  0  0  0  0  0
   53.5220   31.2830   40.6840 H   0  0  0  0  0  0  0  0  0  0  0  0
   52.2390   31.1530   38.9980 C   0  0  0  0  0  0  0  0  0  0  0  0
   50.9540   31.3720   38.5510 C   0  0  0  0  0  0  0  0  0  0  0  0
   48.0020   30.8790   39.2470 N   0  0  0  0  0  0  0  0  0  0  0  0
   48.6760   31.9630   38.9190 C   0  0  0  0  0  0  0  0  0  0  0  0
   48.4180   33.1730   38.2020 N   0  0  0  0  0  0  0  0  0  0  0  0
   47.0000   30.8050   38.9370 H   0  0  0  0  0  0  0  0  0  0  0  0
   48.8650   33.3380   37.2620 H   0  0  0  0  0  0  0  0  0  0  0  0
   47.7970   33.9240   38.5620 H   0  0  0  0  0  0  0  0  0  0  0  0
  1  4  1  0  0  0  0
  2  1  1  0  0  0  0
  3  1  1  0  0  0  0
  4  8  1  0  0  0  0
  4  9  1  1  0  0  0
  4  5  1  0  0  0  0
  5 11  1  0  0  0  0
  5  6  1  0  0  0  0
  6 12  1  0  0  0  0
  6 13  1  0  0  0  0
  7  6  1  0  0  0  0
  8 14  1  6  0  0  0
  8 15  1  0  0  0  0
  8  7  1  0  0  0  0
 10  5  1  0  0  0  0
 15 20  1  6  0  0  0
 15 19  1  0  0  0  0
 15 16  1  0  0  0  0
 16 17  1  0  0  0  0
 16 22  1  0  0  0  0
 17 23  1  0  0  0  0
 17 24  1  0  0  0  0
 18 17  1  0  0  0  0
 19 18  1  0  0  0  0
 19 26  1  0  0  0  0
 21 16  1  0  0  0  0
 25 19  1  0  0  0  0
 27 28  2  0  0  0  0
 28  1  1  0  0  0  0
 29 35  1  0  0  0  0
 29 34  1  0  0  0  0
 30 29  2  0  0  0  0
 31 30  1  0  0  0  0
 31 32  2  0  0  0  0
 32 33  1  0  0  0  0
 33 34  2  0  0  0  0
 33 27  1  0  0  0  0
 36 30  1  0  0  0  0
 37 38  1  0  0  0  0
 38 39  2  0  0  0  0
 38 31  1  0  0  0  0
 39 40  1  0  0  0  0
 41 42  1  0  0  0  0
 41 39  1  0  0  0  0
 43 41  2  0  0  0  0
 44 43  1  0  0  0  0
 44 37  2  0  0  0  0
 46 45  2  0  0  0  0
 46 37  1  0  0  0  0
 47 50  1  0  0  0  0
 47 46  1  0  0  0  0
 48 45  1  0  0  0  0
 49 47  1  0  0  0  0
M  END
>  <minimizedAffinity>
-5.08476591

>  <minimizedRMSD>
2.19799876

$$$$
