
 OpenBabel03252504053D

 24 25  0  0  0  0  0  0  0  0999 V2000
   47.2310   31.3860   45.0230 C   0  0  0  0  0  0  0  0  0  0  0  0
   46.6620   32.6170   45.0950 C   0  0  0  0  0  0  0  0  0  0  0  0
   46.4090   33.1790   46.3530 C   0  0  0  0  0  0  0  0  0  0  0  0
   45.9690   34.1290   46.6060 H   0  0  0  0  0  0  0  0  0  0  0  0
   46.7630   32.4260   47.4630 C   0  0  0  0  0  0  0  0  0  0  0  0
   46.6280   32.7380   48.5020 H   0  0  0  0  0  0  0  0  0  0  0  0
   47.3490   31.1630   47.3450 C   0  0  0  0  0  3  0  0  0  0  0  0
   47.5930   30.6170   46.1040 C   0  0  0  0  0  3  0  0  0  0  0  0
   46.7120   35.0630   42.2260 C   0  0  0  0  0  0  0  0  0  0  0  0
   47.2290   34.2680   43.2510 C   0  0  0  0  0  0  0  0  0  0  0  0
   46.3020   33.4940   43.9900 C   0  0  0  0  0  0  0  0  0  0  0  0
   44.9720   33.5700   43.6610 N   0  0  0  0  0  0  0  0  0  0  0  0
   44.5300   34.3550   42.6600 C   0  0  0  0  0  0  0  0  0  0  0  0
   45.3990   35.0900   41.9570 N   0  0  0  0  0  0  0  0  0  0  0  0
   47.4200   35.6480   41.6680 H   0  0  0  0  0  0  0  0  0  0  0  0
   43.4800   34.3960   42.4180 H   0  0  0  0  0  0  0  0  0  0  0  0
   48.5690   34.1840   43.5980 O   0  0  0  0  0  0  0  0  0  0  0  0
   48.9170   34.7370   44.3540 H   0  0  0  0  0  0  0  0  0  0  0  0
   48.6570   30.9380   43.2000 N   0  0  0  0  0  0  0  0  0  0  0  0
   47.4450   30.8230   43.7060 C   0  0  0  0  0  0  0  0  0  0  0  0
   46.8660   30.1370   42.6180 N   0  0  0  0  0  0  0  0  0  0  0  0
   49.4450   31.3950   43.6810 H   0  0  0  0  0  0  0  0  0  0  0  0
   46.5950   30.5960   41.6940 H   0  0  0  0  0  0  0  0  0  0  0  0
   46.7260   29.1090   42.7860 H   0  0  0  0  0  0  0  0  0  0  0  0
  1  2  2  0  0  0  0
  1  8  1  0  0  0  0
  2  3  1  0  0  0  0
  3  4  1  0  0  0  0
  3  5  2  0  0  0  0
  5  6  1  0  0  0  0
  7  5  1  0  0  0  0
  8  7  2  0  0  0  0
  9 10  1  0  0  0  0
 10 17  1  0  0  0  0
 10 11  2  0  0  0  0
 11  2  1  0  0  0  0
 12 11  1  0  0  0  0
 13 12  2  0  0  0  0
 14  9  2  0  0  0  0
 14 13  1  0  0  0  0
 15  9  1  0  0  0  0
 16 13  1  0  0  0  0
 17 18  1  0  0  0  0
 19 22  1  0  0  0  0
 19 20  2  0  0  0  0
 20  1  1  0  0  0  0
 21 24  1  0  0  0  0
 21 20  1  0  0  0  0
 23 21  1  0  0  0  0
M  END
>  <minimizedAffinity>
-3.98575449

>  <minimizedRMSD>
4.93305111

$$$$
