
     RDKit          3D

 39 41  0  0  0  0  0  0  0  0999 V2000
   44.4800   35.7450   45.0181 C   0  0  0  0  0  0  0  0  0  0  0  0
   45.1178   35.7045   43.7557 C   0  0  0  0  0  0  0  0  0  0  0  0
   46.0297   34.6831   43.4873 C   0  0  0  0  0  0  0  0  0  0  0  0
   46.2447   33.7821   44.4768 N   0  0  0  0  0  0  0  0  0  0  0  0
   45.6200   33.8498   45.6702 C   0  0  0  0  0  0  0  0  0  0  0  0
   44.7440   34.8139   45.9546 N   0  0  0  0  0  0  0  0  0  0  0  0
   45.9572   32.8404   46.6133 N   0  0  0  0  0  0  0  0  0  0  0  0
   45.1641   32.5804   47.8287 C   0  0  0  0  0  0  0  0  0  0  0  0
   46.2211   32.1604   48.7939 C   0  0  0  0  0  0  0  0  0  0  0  0
   47.5502   32.1046   48.0304 C   0  0  0  0  0  0  0  0  0  0  0  0
   47.0203   31.9006   46.6615 C   0  0  2  0  0  0  0  0  0  0  0  0
   44.7610   36.7472   42.8375 N   0  0  0  0  0  0  0  0  0  0  0  0
   43.7658   36.5163   45.2733 H   0  0  0  0  0  0  0  0  0  0  0  0
   46.4931   34.6866   42.5168 H   0  0  0  0  0  0  0  0  0  0  0  0
   44.7379   33.5492   48.1629 H   0  0  0  0  0  0  0  0  0  0  0  0
   44.3901   31.8131   47.6358 H   0  0  0  0  0  0  0  0  0  0  0  0
   46.2845   32.7743   49.7102 H   0  0  0  0  0  0  0  0  0  0  0  0
   46.0101   31.1200   49.1821 H   0  0  0  0  0  0  0  0  0  0  0  0
   47.9804   33.0902   48.2673 H   0  0  0  0  0  0  0  0  0  0  0  0
   48.1639   31.2624   48.4101 H   0  0  0  0  0  0  0  0  0  0  0  0
   46.4570   30.8924   46.7611 H   0  0  0  0  0  0  0  0  0  0  0  0
   45.4085   37.5333   42.6086 H   0  0  0  0  0  0  0  0  0  0  0  0
   43.8028   36.6365   42.4312 H   0  0  0  0  0  0  0  0  0  0  0  0
   46.4947   28.6628   45.6329 N   0  0  0  0  0  0  0  0  0  0  0  0
   47.1562   29.4770   44.8956 C   0  0  0  0  0  0  0  0  0  0  0  0
   46.6576   28.7582   43.7708 N   0  0  0  0  0  0  0  0  0  0  0  0
   48.0355   30.6149   44.7538 C   0  0  0  0  0  0  0  0  0  0  0  0
   47.9290   31.7126   45.5812 C   0  0  0  0  0  0  0  0  0  0  0  0
   48.8879   32.6799   45.2312 C   0  0  0  0  0  0  0  0  0  0  0  0
   48.9180   33.6164   45.8129 H   0  0  0  0  0  0  0  0  0  0  0  0
   49.7977   32.5568   44.2187 C   0  0  0  0  0  0  0  0  0  0  0  0
   50.4929   33.3598   44.0329 H   0  0  0  0  0  0  0  0  0  0  0  0
   49.8381   31.4269   43.4385 C   0  0  0  0  0  0  0  0  0  0  0  0
   48.9414   30.4474   43.7164 C   0  0  0  0  0  0  0  0  0  0  0  0
   45.9508   27.9229   45.1114 H   0  0  0  0  0  0  0  0  0  0  0  0
   45.9302   28.4161   43.1169 H   0  0  0  0  0  0  0  0  0  0  0  0
   47.3880   28.2443   43.2253 H   0  0  0  0  0  0  0  0  0  0  0  0
   50.5707   31.3947   42.6673 H   0  0  0  0  0  0  0  0  0  0  0  0
   48.9991   29.5734   43.0856 H   0  0  0  0  0  0  0  0  0  0  0  0
  1  6  2  0
  2  1  1  0
  3  2  2  0
  3  4  1  0
  4  5  2  0
  5  6  1  0
  5  7  1  0
  7 11  1  0
  7  8  1  0
  8  9  1  0
 10  9  1  0
 11 10  1  0
 12  2  1  0
  1 13  1  0
  3 14  1  0
  8 15  1  0
  8 16  1  0
  9 17  1  0
  9 18  1  0
 10 19  1  0
 10 20  1  0
 11 21  1  1
 12 22  1  0
 12 23  1  0
 24 25  2  3
 25 26  1  0
 25 27  1  0
 27 28  2  0
 28 29  1  0
 29 30  1  0
 29 31  2  0
 31 32  1  0
 31 33  1  0
 33 34  2  0
 34 27  1  0
 24 35  1  0
 26 36  1  0
 26 37  1  0
 33 38  1  0
 34 39  1  0
 11 28  1  0
M  ISO  8  13  14  14  14  15  13  16  13  17  13  18  13  19  13  20  13
M  ISO  3  21  13  30  15  32  16
M  END
>  <DihAtoms>  (1) 
6,10,27,26

>  <DihDeg>  (1) 
69.32716548019523

$$$$
