
     RDKit          3D

 41 44  0  0  0  0  0  0  0  0999 V2000
   44.8291   33.1765   41.1031 Cl  0  0  0  0  0  0  0  0  0  0  0  0
   46.3410   33.9692   40.8971 C   0  0  0  0  0  0  0  0  0  0  0  0
   46.8608   34.7320   41.9148 C   0  0  0  0  0  0  0  0  0  0  0  0
   48.0893   35.3953   41.7912 C   0  0  0  0  0  0  0  0  0  0  0  0
   48.7380   35.2365   40.5961 C   0  0  0  0  0  0  0  0  0  0  0  0
   48.2255   34.4823   39.5880 C   0  0  0  0  0  0  0  0  0  0  0  0
   47.0058   33.8268   39.7174 C   0  0  0  0  0  0  0  0  0  0  0  0
   45.5951   34.0624   45.3212 C   0  0  0  0  0  0  0  0  0  0  0  0
   44.7146   35.1130   45.5232 C   0  0  0  0  0  0  0  0  0  0  0  0
   44.5539   36.0421   44.5064 C   0  0  0  0  0  0  0  0  0  0  0  0
   45.2563   35.8956   43.3570 N   0  0  0  0  0  0  0  0  0  0  0  0
   46.1180   34.8627   43.1664 C   0  0  0  0  0  0  0  0  0  0  0  0
   46.2695   33.9630   44.1587 N   0  0  0  0  0  0  0  0  0  0  0  0
   46.6096   33.0634   38.5355 C   0  0  0  0  0  0  0  0  0  0  0  0
   46.8491   33.5947   37.2771 C   0  0  0  0  0  0  0  0  0  0  0  0
   46.1834   32.2778   36.1540 S   0  0  0  0  0  0  0  0  0  0  0  0
   45.6934   31.2285   37.6537 C   0  0  0  0  0  0  0  0  0  0  0  0
   46.0374   31.9002   38.4770 N   0  0  0  0  0  0  0  0  0  0  0  0
   48.4960   35.9951   42.5939 H   0  0  0  0  0  0  0  0  0  0  0  0
   49.6904   35.7523   40.5045 H   0  0  0  0  0  0  0  0  0  0  0  0
   48.8343   34.4313   38.6840 H   0  0  0  0  0  0  0  0  0  0  0  0
   45.7545   33.3121   46.0848 H   0  0  0  0  0  0  0  0  0  0  0  0
   44.1591   35.2347   46.4242 H   0  0  0  0  0  0  0  0  0  0  0  0
   43.8832   36.9075   44.5668 H   0  0  0  0  0  0  0  0  0  0  0  0
   47.3055   34.5338   36.9870 H   0  0  0  0  0  0  0  0  0  0  0  0
   48.4403   29.4809   36.9970 N   0  0  0  0  0  0  0  0  0  0  0  0
   47.2783   28.9914   37.1676 C   0  0  0  0  0  0  0  0  0  0  0  0
   48.0229   27.9780   37.8302 N   0  0  0  0  0  0  0  0  0  0  0  0
   45.8375   28.8457   37.1227 C   0  0  0  0  0  0  0  0  0  0  0  0
   45.0574   29.9587   37.3344 C   0  0  0  0  0  0  0  0  0  0  0  0
   43.6999   29.7420   37.2387 C   0  0  0  0  0  0  0  0  0  0  0  0
   43.0379   30.5733   37.3936 H   0  0  0  0  0  0  0  0  0  0  0  0
   43.2325   28.4885   36.9524 C   0  0  0  0  0  0  0  0  0  0  0  0
   42.1537   28.4018   36.8939 H   0  0  0  0  0  0  0  0  0  0  0  0
   44.0308   27.3830   36.7439 C   0  0  0  0  0  0  0  0  0  0  0  0
   45.3878   27.5849   36.8362 C   0  0  0  0  0  0  0  0  0  0  0  0
   48.6438   30.3665   36.5010 H   0  0  0  0  0  0  0  0  0  0  0  0
   47.6328   27.3888   38.6045 H   0  0  0  0  0  0  0  0  0  0  0  0
   48.5973   27.2437   38.2938 H   0  0  0  0  0  0  0  0  0  0  0  0
   43.6321   26.4044   36.5196 H   0  0  0  0  0  0  0  0  0  0  0  0
   46.0525   26.7473   36.6804 H   0  0  0  0  0  0  0  0  0  0  0  0
  2  1  1  0
  2  3  2  0
  3 12  1  0
  4  3  1  0
  5  4  2  0
  6  7  2  0
  6  5  1  0
  7  2  1  0
  8  9  2  0
 10  9  1  0
 11 10  2  0
 12 11  1  0
 12 13  2  0
 13  8  1  0
 14  7  1  0
 15 14  2  0
 16 15  1  0
 16 17  1  0
 17 18  2  0
 18 14  1  0
  4 19  1  0
  5 20  1  0
  6 21  1  0
  8 22  1  0
  9 23  1  0
 10 24  1  0
 15 25  1  0
 26 27  2  3
 27 28  1  0
 27 29  1  0
 29 30  2  0
 30 31  1  0
 31 32  1  0
 31 33  2  0
 33 34  1  0
 33 35  1  0
 35 36  2  0
 36 29  1  0
 26 37  1  0
 28 38  1  0
 28 39  1  0
 35 40  1  0
 36 41  1  0
 17 30  1  0
M  ISO  8  19  14  20  14  21  14  22  14  23  14  24  14  25  14  32  15
M  ISO  1  34  16
M  END
>  <DihAtoms>  (1) 
15,16,29,28

>  <DihDeg>  (1) 
177.9546671912236

$$$$
