
 OpenBabel03242521263D

 47 50  0  0  0  0  0  0  0  0999 V2000
   38.1990   31.7990   39.8200 C   0  0  0  0  0  0  0  0  0  0  0  0
   37.6740   33.0580   39.8430 C   0  0  0  0  0  0  0  0  0  0  0  0
   38.3770   34.1770   40.2340 C   0  0  0  0  0  0  0  0  0  0  0  0
   39.6630   33.9560   40.6090 N   0  0  0  0  0  0  0  0  0  0  0  0
   40.1840   32.7230   40.5890 C   0  0  0  0  0  0  0  0  0  0  0  0
   39.4840   31.6480   40.2050 N   0  0  0  0  0  0  0  0  0  0  0  0
   36.6460   33.1960   39.5370 H   0  0  0  0  0  0  0  0  0  0  0  0
   37.9600   35.1650   40.2500 H   0  0  0  0  0  0  0  0  0  0  0  0
   41.5890   32.5150   41.0020 C   0  0  0  0  0  0  0  0  0  0  0  0
   41.8720   31.7700   42.1120 C   0  0  0  0  0  0  0  0  0  0  0  0
   43.1410   31.5110   42.5860 C   0  0  0  0  0  0  0  0  0  0  0  0
   44.1950   32.0630   41.8570 C   0  0  0  0  0  0  0  0  0  0  0  0
   43.9260   32.8080   40.7480 C   0  0  0  0  0  0  0  0  0  0  0  0
   42.6470   33.0510   40.2970 C   0  0  0  0  0  0  0  0  0  0  0  0
   41.0440   31.3410   42.6770 H   0  0  0  0  0  0  0  0  0  0  0  0
   43.2840   30.9100   43.4760 H   0  0  0  0  0  0  0  0  0  0  0  0
   45.1970   31.8750   42.2090 H   0  0  0  0  0  0  0  0  0  0  0  0
   44.7190   33.2540   40.1550 H   0  0  0  0  0  0  0  0  0  0  0  0
   42.3410   33.8000   39.1780 O   0  0  0  0  0  0  0  0  0  0  0  0
   43.0880   32.0240   37.4170 O   0  0  0  0  0  0  0  0  0  0  0  0
   42.1650   33.2200   37.6020 P   0  0  0  0  0  0  0  0  0  0  0  0
   40.5860   32.8180   37.1870 O   0  0  0  0  0  0  0  0  0  0  0  0
   40.3960   32.9330   36.2360 H   0  0  0  0  0  0  0  0  0  0  0  0
   42.6930   34.4180   36.5250 O   0  0  0  0  0  0  0  0  0  0  0  0
   42.2330   34.2750   35.6760 H   0  0  0  0  0  0  0  0  0  0  0  0
   35.8810   29.7040   37.9220 C   0  0  0  0  0  0  0  0  0  0  0  0
   35.9550   28.4900   38.6290 C   0  0  0  0  0  0  0  0  0  0  0  0
   36.7790   28.3910   39.7310 C   0  0  0  0  0  0  0  0  0  0  0  0
   37.4960   29.5040   40.0860 N   0  0  0  0  0  0  0  0  0  0  0  0
   37.4130   30.6550   39.3980 C   0  0  0  0  0  0  0  0  0  0  0  0
   36.6170   30.7440   38.3350 N   0  0  0  0  0  0  0  0  0  0  0  0
   35.2470   29.8360   37.0440 H   0  0  0  0  0  0  0  0  0  0  0  0
   35.3240   27.7300   38.2060 H   0  0  0  0  0  0  0  0  0  0  0  0
   37.0780   27.0140   41.7920 C   0  0  0  0  0  0  0  0  0  0  0  0
   36.8450   27.1320   40.4450 C   0  0  0  0  0  0  0  0  0  0  0  0
   36.6700   25.9260   39.8150 C   0  0  0  0  0  0  0  0  0  0  0  0
   36.4770   25.8370   38.7590 H   0  0  0  0  0  0  0  0  0  0  0  0
   36.7250   24.7200   40.4770 C   0  0  0  0  0  0  0  0  0  0  0  0
   36.5860   23.7820   39.9650 H   0  0  0  0  0  0  0  0  0  0  0  0
   36.9610   24.6420   41.8250 C   0  0  0  0  0  3  0  0  0  0  0  0
   37.1430   25.8310   42.4970 C   0  0  0  0  0  3  0  0  0  0  0  0
   36.9220   29.1680   43.3200 N   0  0  0  0  0  0  0  0  0  0  0  0
   37.3030   28.1790   42.6050 C   0  0  0  0  0  0  0  0  0  0  0  0
   38.6450   28.6200   42.8810 N   0  0  0  0  0  0  0  0  0  0  0  0
   37.6260   29.7970   43.7460 H   0  0  0  0  0  0  0  0  0  0  0  0
   39.2420   29.1550   42.2060 H   0  0  0  0  0  0  0  0  0  0  0  0
   39.5720   28.8230   43.3060 H   0  0  0  0  0  0  0  0  0  0  0  0
  1  2  2  0  0  0  0
  1  6  1  0  0  0  0
  2  3  1  0  0  0  0
  3  8  1  0  0  0  0
  3  4  2  0  0  0  0
  5  4  1  0  0  0  0
  5  9  1  0  0  0  0
  6  5  2  0  0  0  0
  7  2  1  0  0  0  0
  9 10  1  0  0  0  0
 10 11  2  0  0  0  0
 10 15  1  0  0  0  0
 11 16  1  0  0  0  0
 12 17  1  0  0  0  0
 12 11  1  0  0  0  0
 13 12  2  0  0  0  0
 14 13  1  0  0  0  0
 14  9  2  0  0  0  0
 18 13  1  0  0  0  0
 19 14  1  0  0  0  0
 20 21  2  0  0  0  0
 21 19  1  0  0  0  0
 22 21  1  0  0  0  0
 23 22  1  0  0  0  0
 24 21  1  0  0  0  0
 25 24  1  0  0  0  0
 26 31  2  0  0  0  0
 26 27  1  0  0  0  0
 27 28  2  0  0  0  0
 28 29  1  0  0  0  0
 28 35  1  0  0  0  0
 30  1  1  0  0  0  0
 30 29  2  0  0  0  0
 31 30  1  0  0  0  0
 32 26  1  0  0  0  0
 33 27  1  0  0  0  0
 34 41  1  0  0  0  0
 34 43  1  0  0  0  0
 35 34  2  0  0  0  0
 36 35  1  0  0  0  0
 36 38  2  0  0  0  0
 37 36  1  0  0  0  0
 38 40  1  0  0  0  0
 39 38  1  0  0  0  0
 40 41  2  0  0  0  0
 42 45  1  0  0  0  0
 43 44  1  0  0  0  0
 43 42  2  0  0  0  0
 44 47  1  0  0  0  0
 46 44  1  0  0  0  0
M  END
>  <minimizedAffinity>
-7.92861938

$$$$

 OpenBabel03242521263D

 47 50  0  0  0  0  0  0  0  0999 V2000
   35.6140   27.7890   37.5710 C   0  0  0  0  0  0  0  0  0  0  0  0
   36.7250   27.8210   36.7790 C   0  0  0  0  0  0  0  0  0  0  0  0
   38.0140   27.8400   37.2660 C   0  0  0  0  0  0  0  0  0  0  0  0
   38.1280   27.8260   38.6190 N   0  0  0  0  0  0  0  0  0  0  0  0
   37.0410   27.7950   39.4000 C   0  0  0  0  0  0  0  0  0  0  0  0
   35.7960   27.7760   38.9080 N   0  0  0  0  0  0  0  0  0  0  0  0
   36.5960   27.8310   35.7060 H   0  0  0  0  0  0  0  0  0  0  0  0
   38.8850   27.8650   36.6400 H   0  0  0  0  0  0  0  0  0  0  0  0
   37.1970   27.7790   40.8710 C   0  0  0  0  0  0  0  0  0  0  0  0
   36.8650   26.6600   41.5810 C   0  0  0  0  0  0  0  0  0  0  0  0
   36.9710   26.5330   42.9510 C   0  0  0  0  0  0  0  0  0  0  0  0
   37.4570   27.6480   43.6360 C   0  0  0  0  0  0  0  0  0  0  0  0
   37.7930   28.7700   42.9390 C   0  0  0  0  0  0  0  0  0  0  0  0
   37.6760   28.8680   41.5700 C   0  0  0  0  0  0  0  0  0  0  0  0
   36.4850   25.7920   41.0410 H   0  0  0  0  0  0  0  0  0  0  0  0
   36.6860   25.6110   43.4420 H   0  0  0  0  0  0  0  0  0  0  0  0
   37.5480   27.5730   44.7080 H   0  0  0  0  0  0  0  0  0  0  0  0
   38.1740   29.6570   43.4370 H   0  0  0  0  0  0  0  0  0  0  0  0
   38.0060   29.9900   40.8340 O   0  0  0  0  0  0  0  0  0  0  0  0
   37.6050   32.5550   40.5630 O   0  0  0  0  0  0  0  0  0  0  0  0
   36.9460   31.2030   40.3270 P   0  0  0  0  0  0  0  0  0  0  0  0
   36.4460   31.0590   38.7280 O   0  0  0  0  0  0  0  0  0  0  0  0
   35.5540   31.4200   38.5690 H   0  0  0  0  0  0  0  0  0  0  0  0
   35.5640   31.1540   41.3070 O   0  0  0  0  0  0  0  0  0  0  0  0
   34.8250   31.5320   40.7940 H   0  0  0  0  0  0  0  0  0  0  0  0
   32.4970   26.5690   36.1000 C   0  0  0  0  0  0  0  0  0  0  0  0
   31.7690   27.7630   35.9530 C   0  0  0  0  0  0  0  0  0  0  0  0
   32.3310   28.9590   36.3480 C   0  0  0  0  0  0  0  0  0  0  0  0
   33.5980   28.9190   36.8720 N   0  0  0  0  0  0  0  0  0  0  0  0
   34.2780   27.7690   37.0060 C   0  0  0  0  0  0  0  0  0  0  0  0
   33.7290   26.6170   36.6240 N   0  0  0  0  0  0  0  0  0  0  0  0
   32.1000   25.5960   35.8050 H   0  0  0  0  0  0  0  0  0  0  0  0
   30.7970   27.6000   35.5240 H   0  0  0  0  0  0  0  0  0  0  0  0
   30.7490   30.7120   37.1570 C   0  0  0  0  0  0  0  0  0  0  0  0
   31.5650   30.1780   36.1910 C   0  0  0  0  0  0  0  0  0  0  0  0
   31.5990   30.9180   35.0370 C   0  0  0  0  0  0  0  0  0  0  0  0
   32.1890   30.6430   34.1790 H   0  0  0  0  0  0  0  0  0  0  0  0
   30.8800   32.0810   34.8710 C   0  0  0  0  0  0  0  0  0  0  0  0
   30.9180   32.6490   33.9560 H   0  0  0  0  0  0  0  0  0  0  0  0
   30.0740   32.5830   35.8590 C   0  0  0  0  0  3  0  0  0  0  0  0
   30.0110   31.8710   37.0360 C   0  0  0  0  0  3  0  0  0  0  0  0
   30.9400   29.7460   39.6120 N   0  0  0  0  0  0  0  0  0  0  0  0
   30.5800   30.0540   38.4250 C   0  0  0  0  0  0  0  0  0  0  0  0
   29.4050   29.2630   38.6790 N   0  0  0  0  0  0  0  0  0  0  0  0
   30.3330   29.1410   40.1940 H   0  0  0  0  0  0  0  0  0  0  0  0
   29.2570   28.2900   38.3190 H   0  0  0  0  0  0  0  0  0  0  0  0
   28.4810   28.9020   38.9920 H   0  0  0  0  0  0  0  0  0  0  0  0
  1  6  1  0  0  0  0
  2  3  1  0  0  0  0
  2  1  2  0  0  0  0
  3  4  2  0  0  0  0
  4  5  1  0  0  0  0
  5  9  1  0  0  0  0
  6  5  2  0  0  0  0
  7  2  1  0  0  0  0
  8  3  1  0  0  0  0
  9 14  2  0  0  0  0
  9 10  1  0  0  0  0
 10 11  2  0  0  0  0
 11 16  1  0  0  0  0
 11 12  1  0  0  0  0
 12 17  1  0  0  0  0
 13 18  1  0  0  0  0
 13 12  2  0  0  0  0
 14 13  1  0  0  0  0
 15 10  1  0  0  0  0
 19 14  1  0  0  0  0
 21 20  2  0  0  0  0
 21 19  1  0  0  0  0
 21 24  1  0  0  0  0
 22 21  1  0  0  0  0
 23 22  1  0  0  0  0
 25 24  1  0  0  0  0
 26 31  1  0  0  0  0
 27 26  2  0  0  0  0
 27 28  1  0  0  0  0
 28 29  2  0  0  0  0
 29 30  1  0  0  0  0
 30  1  1  0  0  0  0
 31 30  2  0  0  0  0
 32 26  1  0  0  0  0
 33 27  1  0  0  0  0
 34 43  1  0  0  0  0
 35 28  1  0  0  0  0
 35 34  2  0  0  0  0
 36 35  1  0  0  0  0
 37 36  1  0  0  0  0
 38 36  2  0  0  0  0
 38 40  1  0  0  0  0
 39 38  1  0  0  0  0
 40 41  2  0  0  0  0
 41 34  1  0  0  0  0
 42 45  1  0  0  0  0
 43 44  1  0  0  0  0
 43 42  2  0  0  0  0
 44 47  1  0  0  0  0
 46 44  1  0  0  0  0
M  END
>  <minimizedAffinity>
-7.72741032

$$$$

 OpenBabel03242521263D

 47 50  0  0  0  0  0  0  0  0999 V2000
   38.0560   31.0480   39.4610 C   0  0  0  0  0  0  0  0  0  0  0  0
   36.8570   30.9670   38.8140 C   0  0  0  0  0  0  0  0  0  0  0  0
   36.2430   29.7800   38.4820 C   0  0  0  0  0  0  0  0  0  0  0  0
   36.9120   28.6550   38.8420 N   0  0  0  0  0  0  0  0  0  0  0  0
   38.0890   28.7290   39.4770 C   0  0  0  0  0  0  0  0  0  0  0  0
   38.6700   29.8930   39.7920 N   0  0  0  0  0  0  0  0  0  0  0  0
   36.3530   31.8840   38.5420 H   0  0  0  0  0  0  0  0  0  0  0  0
   35.3000   29.7200   37.9730 H   0  0  0  0  0  0  0  0  0  0  0  0
   38.7940   27.4850   39.8590 C   0  0  0  0  0  0  0  0  0  0  0  0
   39.9000   27.0860   39.1640 C   0  0  0  0  0  0  0  0  0  0  0  0
   40.6340   25.9490   39.4320 C   0  0  0  0  0  0  0  0  0  0  0  0
   40.1890   25.1670   40.4990 C   0  0  0  0  0  0  0  0  0  0  0  0
   39.0860   25.5540   41.2000 C   0  0  0  0  0  0  0  0  0  0  0  0
   38.3720   26.6960   40.9090 C   0  0  0  0  0  0  0  0  0  0  0  0
   40.2440   27.7010   38.3310 H   0  0  0  0  0  0  0  0  0  0  0  0
   41.5020   25.7000   38.8340 H   0  0  0  0  0  0  0  0  0  0  0  0
   40.7460   24.2730   40.7270 H   0  0  0  0  0  0  0  0  0  0  0  0
   38.7090   24.9720   42.0370 H   0  0  0  0  0  0  0  0  0  0  0  0
   37.2520   27.1160   41.5990 O   0  0  0  0  0  0  0  0  0  0  0  0
   38.5400   27.9410   43.7150 O   0  0  0  0  0  0  0  0  0  0  0  0
   37.2300   28.1170   42.9590 P   0  0  0  0  0  0  0  0  0  0  0  0
   36.9600   29.7410   42.6170 O   0  0  0  0  0  0  0  0  0  0  0  0
   36.5040   30.2160   43.3370 H   0  0  0  0  0  0  0  0  0  0  0  0
   35.9930   27.5950   43.9930 O   0  0  0  0  0  0  0  0  0  0  0  0
   35.7140   28.3600   44.5290 H   0  0  0  0  0  0  0  0  0  0  0  0
   38.4200   34.5740   40.3540 C   0  0  0  0  0  0  0  0  0  0  0  0
   39.8200   34.7100   40.4010 C   0  0  0  0  0  0  0  0  0  0  0  0
   40.6200   33.6200   40.1310 C   0  0  0  0  0  0  0  0  0  0  0  0
   39.9970   32.4380   39.8260 N   0  0  0  0  0  0  0  0  0  0  0  0
   38.6590   32.3270   39.7870 C   0  0  0  0  0  0  0  0  0  0  0  0
   37.8910   33.3830   40.0490 N   0  0  0  0  0  0  0  0  0  0  0  0
   37.7410   35.4030   40.5600 H   0  0  0  0  0  0  0  0  0  0  0  0
   40.1260   35.7080   40.6560 H   0  0  0  0  0  0  0  0  0  0  0  0
   42.8840   33.7760   39.0890 C   0  0  0  0  0  0  0  0  0  0  0  0
   42.0600   33.7780   40.1870 C   0  0  0  0  0  0  0  0  0  0  0  0
   42.7290   33.9520   41.3710 C   0  0  0  0  0  0  0  0  0  0  0  0
   42.2350   33.9790   42.3280 H   0  0  0  0  0  0  0  0  0  0  0  0
   44.0960   34.1070   41.4430 C   0  0  0  0  0  0  0  0  0  0  0  0
   44.6050   34.2420   42.3830 H   0  0  0  0  0  0  0  0  0  0  0  0
   44.8870   34.0990   40.3240 C   0  0  0  0  0  3  0  0  0  0  0  0
   44.2540   33.9270   39.1130 C   0  0  0  0  0  3  0  0  0  0  0  0
   41.6020   33.0100   36.9060 N   0  0  0  0  0  0  0  0  0  0  0  0
   42.3510   33.5860   37.7670 C   0  0  0  0  0  0  0  0  0  0  0  0
   42.7820   34.4300   36.6850 N   0  0  0  0  0  0  0  0  0  0  0  0
   41.6050   33.3330   35.9220 H   0  0  0  0  0  0  0  0  0  0  0  0
   43.6920   34.3210   36.1760 H   0  0  0  0  0  0  0  0  0  0  0  0
   42.8690   35.1580   35.9470 H   0  0  0  0  0  0  0  0  0  0  0  0
  1 30  1  0  0  0  0
  1  6  1  0  0  0  0
  2  1  2  0  0  0  0
  3  2  1  0  0  0  0
  3  4  2  0  0  0  0
  4  5  1  0  0  0  0
  5  6  2  0  0  0  0
  5  9  1  0  0  0  0
  7  2  1  0  0  0  0
  8  3  1  0  0  0  0
  9 14  1  0  0  0  0
 10 11  1  0  0  0  0
 10  9  2  0  0  0  0
 11 12  2  0  0  0  0
 12 17  1  0  0  0  0
 12 13  1  0  0  0  0
 13 18  1  0  0  0  0
 14 13  2  0  0  0  0
 14 19  1  0  0  0  0
 15 10  1  0  0  0  0
 16 11  1  0  0  0  0
 19 21  1  0  0  0  0
 21 20  2  0  0  0  0
 21 24  1  0  0  0  0
 22 21  1  0  0  0  0
 22 23  1  0  0  0  0
 24 25  1  0  0  0  0
 26 27  1  0  0  0  0
 26 32  1  0  0  0  0
 27 33  1  0  0  0  0
 28 35  1  0  0  0  0
 28 27  2  0  0  0  0
 29 28  1  0  0  0  0
 30 29  2  0  0  0  0
 30 31  1  0  0  0  0
 31 26  2  0  0  0  0
 34 41  2  0  0  0  0
 34 35  1  0  0  0  0
 35 36  2  0  0  0  0
 36 38  1  0  0  0  0
 36 37  1  0  0  0  0
 38 39  1  0  0  0  0
 40 38  2  0  0  0  0
 41 40  1  0  0  0  0
 42 43  2  0  0  0  0
 43 34  1  0  0  0  0
 44 43  1  0  0  0  0
 45 42  1  0  0  0  0
 46 44  1  0  0  0  0
 47 44  1  0  0  0  0
M  END
>  <minimizedAffinity>
-7.40445137

$$$$

 OpenBabel03242521263D

 47 50  0  0  0  0  0  0  0  0999 V2000
   37.8900   31.0730   40.8460 C   0  0  0  0  0  0  0  0  0  0  0  0
   36.5550   30.8840   40.6330 C   0  0  0  0  0  0  0  0  0  0  0  0
   35.9000   29.6960   40.8730 C   0  0  0  0  0  0  0  0  0  0  0  0
   36.6750   28.6870   41.3470 N   0  0  0  0  0  0  0  0  0  0  0  0
   37.9850   28.8670   41.5570 C   0  0  0  0  0  0  0  0  0  0  0  0
   38.6040   30.0300   41.3180 N   0  0  0  0  0  0  0  0  0  0  0  0
   35.9690   31.7100   40.2550 H   0  0  0  0  0  0  0  0  0  0  0  0
   34.8500   29.5520   40.7050 H   0  0  0  0  0  0  0  0  0  0  0  0
   38.8040   27.7490   42.0750 C   0  0  0  0  0  0  0  0  0  0  0  0
   38.8940   27.5340   43.4210 C   0  0  0  0  0  0  0  0  0  0  0  0
   39.6240   26.5250   44.0140 C   0  0  0  0  0  0  0  0  0  0  0  0
   40.3140   25.6750   43.1480 C   0  0  0  0  0  0  0  0  0  0  0  0
   40.2320   25.8780   41.8030 C   0  0  0  0  0  0  0  0  0  0  0  0
   39.4940   26.8960   41.2390 C   0  0  0  0  0  0  0  0  0  0  0  0
   38.3530   28.2020   44.0940 H   0  0  0  0  0  0  0  0  0  0  0  0
   39.6450   26.4200   45.0920 H   0  0  0  0  0  0  0  0  0  0  0  0
   40.8920   24.8790   43.5880 H   0  0  0  0  0  0  0  0  0  0  0  0
   40.7540   25.2380   41.0970 H   0  0  0  0  0  0  0  0  0  0  0  0
   39.3910   27.1290   39.8810 O   0  0  0  0  0  0  0  0  0  0  0  0
   41.9340   27.4470   39.3790 O   0  0  0  0  0  0  0  0  0  0  0  0
   40.5520   27.8690   38.9020 P   0  0  0  0  0  0  0  0  0  0  0  0
   40.3710   27.5540   37.2600 O   0  0  0  0  0  0  0  0  0  0  0  0
   40.6910   28.2800   36.6910 H   0  0  0  0  0  0  0  0  0  0  0  0
   40.4500   29.5470   39.1200 O   0  0  0  0  0  0  0  0  0  0  0  0
   40.7890   29.9710   38.3100 H   0  0  0  0  0  0  0  0  0  0  0  0
   38.3560   34.6200   40.0930 C   0  0  0  0  0  0  0  0  0  0  0  0
   39.7590   34.7230   40.0800 C   0  0  0  0  0  0  0  0  0  0  0  0
   40.5280   33.6050   40.3240 C   0  0  0  0  0  0  0  0  0  0  0  0
   39.8710   32.4270   40.5690 N   0  0  0  0  0  0  0  0  0  0  0  0
   38.5300   32.3470   40.5770 C   0  0  0  0  0  0  0  0  0  0  0  0
   37.7920   33.4310   40.3420 N   0  0  0  0  0  0  0  0  0  0  0  0
   37.7010   35.4730   39.9080 H   0  0  0  0  0  0  0  0  0  0  0  0
   40.0940   35.7220   39.8710 H   0  0  0  0  0  0  0  0  0  0  0  0
   42.7390   33.7430   39.1730 C   0  0  0  0  0  0  0  0  0  0  0  0
   41.9710   33.7310   40.3100 C   0  0  0  0  0  0  0  0  0  0  0  0
   42.7030   33.8560   41.4630 C   0  0  0  0  0  0  0  0  0  0  0  0
   42.2590   33.8660   42.4440 H   0  0  0  0  0  0  0  0  0  0  0  0
   44.0750   33.9810   41.4700 C   0  0  0  0  0  0  0  0  0  0  0  0
   44.6340   34.0770   42.3860 H   0  0  0  0  0  0  0  0  0  0  0  0
   44.8080   33.9880   40.3120 C   0  0  0  0  0  3  0  0  0  0  0  0
   44.1120   33.8640   39.1310 C   0  0  0  0  0  3  0  0  0  0  0  0
   41.3000   33.0990   37.0490 N   0  0  0  0  0  0  0  0  0  0  0  0
   42.1360   33.6020   37.8750 C   0  0  0  0  0  0  0  0  0  0  0  0
   42.6030   34.3970   36.7700 N   0  0  0  0  0  0  0  0  0  0  0  0
   41.2940   33.4180   36.0630 H   0  0  0  0  0  0  0  0  0  0  0  0
   43.4760   34.2000   36.2250 H   0  0  0  0  0  0  0  0  0  0  0  0
   42.7290   35.1120   36.0240 H   0  0  0  0  0  0  0  0  0  0  0  0
  1  6  1  0  0  0  0
  2  1  2  0  0  0  0
  2  3  1  0  0  0  0
  3  4  2  0  0  0  0
  4  5  1  0  0  0  0
  5  9  1  0  0  0  0
  6  5  2  0  0  0  0
  7  2  1  0  0  0  0
  8  3  1  0  0  0  0
  9 10  1  0  0  0  0
 10 11  2  0  0  0  0
 10 15  1  0  0  0  0
 11 16  1  0  0  0  0
 12 17  1  0  0  0  0
 12 11  1  0  0  0  0
 13 12  2  0  0  0  0
 14 13  1  0  0  0  0
 14  9  2  0  0  0  0
 18 13  1  0  0  0  0
 19 14  1  0  0  0  0
 21 24  1  0  0  0  0
 21 20  2  0  0  0  0
 21 19  1  0  0  0  0
 22 21  1  0  0  0  0
 23 22  1  0  0  0  0
 25 24  1  0  0  0  0
 26 31  1  0  0  0  0
 27 26  2  0  0  0  0
 27 28  1  0  0  0  0
 28 29  2  0  0  0  0
 29 30  1  0  0  0  0
 30  1  1  0  0  0  0
 31 30  2  0  0  0  0
 32 26  1  0  0  0  0
 33 27  1  0  0  0  0
 34 35  1  0  0  0  0
 35 28  1  0  0  0  0
 35 36  2  0  0  0  0
 36 38  1  0  0  0  0
 36 37  1  0  0  0  0
 38 39  1  0  0  0  0
 40 38  2  0  0  0  0
 41 34  2  0  0  0  0
 41 40  1  0  0  0  0
 42 43  2  0  0  0  0
 43 34  1  0  0  0  0
 44 43  1  0  0  0  0
 45 42  1  0  0  0  0
 46 44  1  0  0  0  0
 47 44  1  0  0  0  0
M  END
>  <minimizedAffinity>
-7.19632769

$$$$

 OpenBabel03242521263D

 47 50  0  0  0  0  0  0  0  0999 V2000
   37.9870   31.6870   39.2900 C   0  0  0  0  0  0  0  0  0  0  0  0
   37.3950   32.7940   39.8240 C   0  0  0  0  0  0  0  0  0  0  0  0
   38.0690   33.9610   40.1140 C   0  0  0  0  0  0  0  0  0  0  0  0
   39.3970   33.9530   39.8330 N   0  0  0  0  0  0  0  0  0  0  0  0
   39.9830   32.8690   39.3090 C   0  0  0  0  0  0  0  0  0  0  0  0
   39.3110   31.7450   39.0340 N   0  0  0  0  0  0  0  0  0  0  0  0
   36.3350   32.7630   40.0350 H   0  0  0  0  0  0  0  0  0  0  0  0
   37.5990   34.8290   40.5330 H   0  0  0  0  0  0  0  0  0  0  0  0
   41.4320   32.8920   39.0120 C   0  0  0  0  0  0  0  0  0  0  0  0
   41.9380   33.8220   38.1480 C   0  0  0  0  0  0  0  0  0  0  0  0
   43.2680   33.9360   37.8000 C   0  0  0  0  0  0  0  0  0  0  0  0
   44.1390   33.0190   38.3900 C   0  0  0  0  0  0  0  0  0  0  0  0
   43.6470   32.0860   39.2540 C   0  0  0  0  0  0  0  0  0  0  0  0
   42.3120   31.9950   39.5830 C   0  0  0  0  0  0  0  0  0  0  0  0
   41.2530   34.5370   37.6900 H   0  0  0  0  0  0  0  0  0  0  0  0
   43.5920   34.7020   37.1070 H   0  0  0  0  0  0  0  0  0  0  0  0
   45.1840   33.0880   38.1340 H   0  0  0  0  0  0  0  0  0  0  0  0
   44.2930   31.3550   39.7330 H   0  0  0  0  0  0  0  0  0  0  0  0
   41.7820   31.0630   40.4530 O   0  0  0  0  0  0  0  0  0  0  0  0
   41.6180   29.9340   42.8010 O   0  0  0  0  0  0  0  0  0  0  0  0
   41.4980   31.2820   42.1040 P   0  0  0  0  0  0  0  0  0  0  0  0
   42.5020   32.4170   42.8320 O   0  0  0  0  0  0  0  0  0  0  0  0
   42.0840   32.8720   43.5880 H   0  0  0  0  0  0  0  0  0  0  0  0
   39.8970   31.7990   42.3110 O   0  0  0  0  0  0  0  0  0  0  0  0
   39.8550   32.3000   43.1470 H   0  0  0  0  0  0  0  0  0  0  0  0
   35.6940   29.3450   37.6710 C   0  0  0  0  0  0  0  0  0  0  0  0
   35.8270   28.2090   38.4900 C   0  0  0  0  0  0  0  0  0  0  0  0
   36.6810   28.2440   39.5720 C   0  0  0  0  0  0  0  0  0  0  0  0
   37.3690   29.4080   39.7970 N   0  0  0  0  0  0  0  0  0  0  0  0
   37.2300   30.4830   39.0040 C   0  0  0  0  0  0  0  0  0  0  0  0
   36.4040   30.4430   37.9600 N   0  0  0  0  0  0  0  0  0  0  0  0
   35.0330   29.3710   36.8030 H   0  0  0  0  0  0  0  0  0  0  0  0
   35.2110   27.3920   38.1610 H   0  0  0  0  0  0  0  0  0  0  0  0
   37.0820   27.0850   41.7470 C   0  0  0  0  0  0  0  0  0  0  0  0
   36.8070   27.0630   40.4020 C   0  0  0  0  0  0  0  0  0  0  0  0
   36.6520   25.7970   39.8980 C   0  0  0  0  0  0  0  0  0  0  0  0
   36.4320   25.5990   38.8630 H   0  0  0  0  0  0  0  0  0  0  0  0
   36.7650   24.6640   40.6730 C   0  0  0  0  0  0  0  0  0  0  0  0
   36.6400   23.6760   40.2590 H   0  0  0  0  0  0  0  0  0  0  0  0
   37.0420   24.7250   42.0130 C   0  0  0  0  0  3  0  0  0  0  0  0
   37.2050   25.9780   42.5600 C   0  0  0  0  0  3  0  0  0  0  0  0
   36.9030   29.3720   43.0630 N   0  0  0  0  0  0  0  0  0  0  0  0
   37.2940   28.3290   42.4360 C   0  0  0  0  0  0  0  0  0  0  0  0
   38.6280   28.8350   42.6210 N   0  0  0  0  0  0  0  0  0  0  0  0
   37.5990   30.0600   43.4030 H   0  0  0  0  0  0  0  0  0  0  0  0
   39.1870   29.3190   41.8770 H   0  0  0  0  0  0  0  0  0  0  0  0
   39.5610   29.1060   42.9930 H   0  0  0  0  0  0  0  0  0  0  0  0
  1  2  1  0  0  0  0
  2  7  1  0  0  0  0
  2  3  2  0  0  0  0
  3  8  1  0  0  0  0
  4  3  1  0  0  0  0
  5  4  2  0  0  0  0
  6  1  2  0  0  0  0
  6  5  1  0  0  0  0
  9  5  1  0  0  0  0
  9 14  1  0  0  0  0
 10  9  2  0  0  0  0
 11 10  1  0  0  0  0
 11 12  2  0  0  0  0
 12 13  1  0  0  0  0
 13 14  2  0  0  0  0
 13 18  1  0  0  0  0
 14 19  1  0  0  0  0
 15 10  1  0  0  0  0
 16 11  1  0  0  0  0
 17 12  1  0  0  0  0
 19 21  1  0  0  0  0
 21 24  1  0  0  0  0
 21 20  2  0  0  0  0
 21 22  1  0  0  0  0
 22 23  1  0  0  0  0
 24 25  1  0  0  0  0
 26 31  2  0  0  0  0
 26 27  1  0  0  0  0
 27 28  2  0  0  0  0
 28 29  1  0  0  0  0
 28 35  1  0  0  0  0
 30  1  1  0  0  0  0
 30 29  2  0  0  0  0
 31 30  1  0  0  0  0
 32 26  1  0  0  0  0
 33 27  1  0  0  0  0
 34 43  1  0  0  0  0
 34 41  1  0  0  0  0
 35 34  2  0  0  0  0
 36 35  1  0  0  0  0
 36 38  2  0  0  0  0
 37 36  1  0  0  0  0
 38 40  1  0  0  0  0
 39 38  1  0  0  0  0
 40 41  2  0  0  0  0
 42 45  1  0  0  0  0
 43 44  1  0  0  0  0
 43 42  2  0  0  0  0
 44 47  1  0  0  0  0
 46 44  1  0  0  0  0
M  END
>  <minimizedAffinity>
-7.18260622

$$$$

 OpenBabel03242521263D

 47 50  0  0  0  0  0  0  0  0999 V2000
   38.0920   31.0360   40.6960 C   0  0  0  0  0  0  0  0  0  0  0  0
   38.3430   30.2710   41.7990 C   0  0  0  0  0  0  0  0  0  0  0  0
   37.7620   29.0430   42.0290 C   0  0  0  0  0  0  0  0  0  0  0  0
   36.8970   28.6170   41.0740 N   0  0  0  0  0  0  0  0  0  0  0  0
   36.6470   29.3630   39.9910 C   0  0  0  0  0  0  0  0  0  0  0  0
   37.2220   30.5540   39.7830 N   0  0  0  0  0  0  0  0  0  0  0  0
   39.0370   30.6430   42.5390 H   0  0  0  0  0  0  0  0  0  0  0  0
   37.9620   28.4450   42.8980 H   0  0  0  0  0  0  0  0  0  0  0  0
   35.7010   28.8710   38.9650 C   0  0  0  0  0  0  0  0  0  0  0  0
   34.3780   29.2030   39.0400 C   0  0  0  0  0  0  0  0  0  0  0  0
   33.4110   28.8030   38.1410 C   0  0  0  0  0  0  0  0  0  0  0  0
   33.8460   27.9990   37.0870 C   0  0  0  0  0  0  0  0  0  0  0  0
   35.1640   27.6600   37.0010 C   0  0  0  0  0  0  0  0  0  0  0  0
   36.1080   28.0750   37.9140 C   0  0  0  0  0  0  0  0  0  0  0  0
   34.0440   29.8320   39.8660 H   0  0  0  0  0  0  0  0  0  0  0  0
   32.3800   29.1090   38.2690 H   0  0  0  0  0  0  0  0  0  0  0  0
   33.1080   27.6730   36.3720 H   0  0  0  0  0  0  0  0  0  0  0  0
   35.5410   27.0360   36.1950 H   0  0  0  0  0  0  0  0  0  0  0  0
   37.4490   27.7500   37.8560 O   0  0  0  0  0  0  0  0  0  0  0  0
   39.7610   27.3740   36.7010 O   0  0  0  0  0  0  0  0  0  0  0  0
   38.5710   28.3230   36.7300 P   0  0  0  0  0  0  0  0  0  0  0  0
   37.9470   28.5370   35.1830 O   0  0  0  0  0  0  0  0  0  0  0  0
   38.3890   29.2510   34.6850 H   0  0  0  0  0  0  0  0  0  0  0  0
   39.1530   29.8220   37.2650 O   0  0  0  0  0  0  0  0  0  0  0  0
   39.4500   30.3210   36.4800 H   0  0  0  0  0  0  0  0  0  0  0  0
   38.5600   34.6230   40.1710 C   0  0  0  0  0  0  0  0  0  0  0  0
   39.9630   34.7230   40.1450 C   0  0  0  0  0  0  0  0  0  0  0  0
   40.7310   33.5890   40.3030 C   0  0  0  0  0  0  0  0  0  0  0  0
   40.0730   32.3990   40.4790 N   0  0  0  0  0  0  0  0  0  0  0  0
   38.7320   32.3230   40.5020 C   0  0  0  0  0  0  0  0  0  0  0  0
   37.9960   33.4220   40.3500 N   0  0  0  0  0  0  0  0  0  0  0  0
   37.9050   35.4880   40.0530 H   0  0  0  0  0  0  0  0  0  0  0  0
   40.2990   35.7330   39.9970 H   0  0  0  0  0  0  0  0  0  0  0  0
   42.9340   33.6960   39.1330 C   0  0  0  0  0  0  0  0  0  0  0  0
   42.1750   33.7120   40.2760 C   0  0  0  0  0  0  0  0  0  0  0  0
   42.9150   33.8620   41.4210 C   0  0  0  0  0  0  0  0  0  0  0  0
   42.4770   33.8960   42.4040 H   0  0  0  0  0  0  0  0  0  0  0  0
   44.2870   33.9840   41.4150 C   0  0  0  0  0  0  0  0  0  0  0  0
   44.8520   34.1010   42.3250 H   0  0  0  0  0  0  0  0  0  0  0  0
   45.0120   33.9630   40.2530 C   0  0  0  0  0  3  0  0  0  0  0  0
   44.3070   33.8140   39.0790 C   0  0  0  0  0  3  0  0  0  0  0  0
   41.5560   32.9350   37.0080 N   0  0  0  0  0  0  0  0  0  0  0  0
   42.3220   33.5270   37.8430 C   0  0  0  0  0  0  0  0  0  0  0  0
   42.6120   34.4490   36.7780 N   0  0  0  0  0  0  0  0  0  0  0  0
   41.4650   33.3020   36.0430 H   0  0  0  0  0  0  0  0  0  0  0  0
   43.4880   34.4330   36.2030 H   0  0  0  0  0  0  0  0  0  0  0  0
   42.5930   35.2150   36.0730 H   0  0  0  0  0  0  0  0  0  0  0  0
  1  2  1  0  0  0  0
  2  3  2  0  0  0  0
  2  7  1  0  0  0  0
  3  8  1  0  0  0  0
  4  3  1  0  0  0  0
  5  4  2  0  0  0  0
  6  5  1  0  0  0  0
  6  1  2  0  0  0  0
  9 10  1  0  0  0  0
  9  5  1  0  0  0  0
 10 15  1  0  0  0  0
 11 16  1  0  0  0  0
 11 10  2  0  0  0  0
 12 11  1  0  0  0  0
 13 12  2  0  0  0  0
 13 14  1  0  0  0  0
 14  9  2  0  0  0  0
 17 12  1  0  0  0  0
 18 13  1  0  0  0  0
 19 14  1  0  0  0  0
 20 21  2  0  0  0  0
 21 24  1  0  0  0  0
 21 19  1  0  0  0  0
 22 21  1  0  0  0  0
 23 22  1  0  0  0  0
 25 24  1  0  0  0  0
 26 31  1  0  0  0  0
 27 26  2  0  0  0  0
 27 28  1  0  0  0  0
 28 29  2  0  0  0  0
 29 30  1  0  0  0  0
 30  1  1  0  0  0  0
 31 30  2  0  0  0  0
 32 26  1  0  0  0  0
 33 27  1  0  0  0  0
 34 35  1  0  0  0  0
 35 28  1  0  0  0  0
 35 36  2  0  0  0  0
 36 37  1  0  0  0  0
 38 36  1  0  0  0  0
 38 39  1  0  0  0  0
 40 38  2  0  0  0  0
 41 34  2  0  0  0  0
 41 40  1  0  0  0  0
 42 43  2  0  0  0  0
 43 34  1  0  0  0  0
 44 43  1  0  0  0  0
 45 42  1  0  0  0  0
 46 44  1  0  0  0  0
 47 44  1  0  0  0  0
M  END
>  <minimizedAffinity>
-7.15501022

$$$$

 OpenBabel03242521263D

 47 50  0  0  0  0  0  0  0  0999 V2000
   35.3770   28.6830   38.6640 C   0  0  0  0  0  0  0  0  0  0  0  0
   35.2240   28.6410   40.0190 C   0  0  0  0  0  0  0  0  0  0  0  0
   36.2480   28.8640   40.9140 C   0  0  0  0  0  0  0  0  0  0  0  0
   37.4570   29.1370   40.3620 N   0  0  0  0  0  0  0  0  0  0  0  0
   37.6130   29.1790   39.0330 C   0  0  0  0  0  0  0  0  0  0  0  0
   36.6060   28.9600   38.1790 N   0  0  0  0  0  0  0  0  0  0  0  0
   34.2460   28.4200   40.4230 H   0  0  0  0  0  0  0  0  0  0  0  0
   36.1230   28.8300   41.9790 H   0  0  0  0  0  0  0  0  0  0  0  0
   38.9440   29.4800   38.4600 C   0  0  0  0  0  0  0  0  0  0  0  0
   39.8180   28.4660   38.1930 C   0  0  0  0  0  0  0  0  0  0  0  0
   41.0800   28.6300   37.6590 C   0  0  0  0  0  0  0  0  0  0  0  0
   41.4640   29.9430   37.3830 C   0  0  0  0  0  0  0  0  0  0  0  0
   40.6010   30.9650   37.6460 C   0  0  0  0  0  0  0  0  0  0  0  0
   39.3460   30.7700   38.1790 C   0  0  0  0  0  0  0  0  0  0  0  0
   39.5130   27.4410   38.4100 H   0  0  0  0  0  0  0  0  0  0  0  0
   41.7160   27.7730   37.4760 H   0  0  0  0  0  0  0  0  0  0  0  0
   42.4460   30.0970   36.9660 H   0  0  0  0  0  0  0  0  0  0  0  0
   40.8640   31.9990   37.4440 H   0  0  0  0  0  0  0  0  0  0  0  0
   38.4480   31.7820   38.4570 O   0  0  0  0  0  0  0  0  0  0  0  0
   39.6010   33.7730   39.6920 O   0  0  0  0  0  0  0  0  0  0  0  0
   38.4540   32.7800   39.8200 P   0  0  0  0  0  0  0  0  0  0  0  0
   37.0030   33.5840   40.0930 O   0  0  0  0  0  0  0  0  0  0  0  0
   36.8330   33.7650   41.0370 H   0  0  0  0  0  0  0  0  0  0  0  0
   38.7800   31.8270   41.1840 O   0  0  0  0  0  0  0  0  0  0  0  0
   38.3930   32.2780   41.9580 H   0  0  0  0  0  0  0  0  0  0  0  0
   33.0740   26.9850   36.3880 C   0  0  0  0  0  0  0  0  0  0  0  0
   32.1630   28.0140   36.0890 C   0  0  0  0  0  0  0  0  0  0  0  0
   32.3340   29.2610   36.6520 C   0  0  0  0  0  0  0  0  0  0  0  0
   33.4040   29.4350   37.4910 N   0  0  0  0  0  0  0  0  0  0  0  0
   34.2640   28.4400   37.7660 C   0  0  0  0  0  0  0  0  0  0  0  0
   34.0930   27.2380   37.2190 N   0  0  0  0  0  0  0  0  0  0  0  0
   32.9850   25.9800   35.9710 H   0  0  0  0  0  0  0  0  0  0  0  0
   31.3900   27.6950   35.4150 H   0  0  0  0  0  0  0  0  0  0  0  0
   30.3390   30.6810   37.1430 C   0  0  0  0  0  0  0  0  0  0  0  0
   31.3840   30.3090   36.3350 C   0  0  0  0  0  0  0  0  0  0  0  0
   31.4590   31.0330   35.1730 C   0  0  0  0  0  0  0  0  0  0  0  0
   32.2200   30.8720   34.4270 H   0  0  0  0  0  0  0  0  0  0  0  0
   30.5690   32.0350   34.8550 C   0  0  0  0  0  0  0  0  0  0  0  0
   30.6430   32.5930   33.9370 H   0  0  0  0  0  0  0  0  0  0  0  0
   29.5360   32.3770   35.6880 C   0  0  0  0  0  3  0  0  0  0  0  0
   29.4230   31.6740   36.8670 C   0  0  0  0  0  3  0  0  0  0  0  0
   30.3080   29.7960   39.6350 N   0  0  0  0  0  0  0  0  0  0  0  0
   30.0990   30.0110   38.3930 C   0  0  0  0  0  0  0  0  0  0  0  0
   29.0930   28.9870   38.4830 N   0  0  0  0  0  0  0  0  0  0  0  0
   29.7530   29.0790   40.1350 H   0  0  0  0  0  0  0  0  0  0  0  0
   29.2180   28.0020   38.1470 H   0  0  0  0  0  0  0  0  0  0  0  0
   28.2260   28.4370   38.6560 H   0  0  0  0  0  0  0  0  0  0  0  0
  1  2  1  0  0  0  0
  2  7  1  0  0  0  0
  2  3  2  0  0  0  0
  3  8  1  0  0  0  0
  4  3  1  0  0  0  0
  5  4  2  0  0  0  0
  6  1  2  0  0  0  0
  6  5  1  0  0  0  0
  9  5  1  0  0  0  0
 10 15  1  0  0  0  0
 10  9  1  0  0  0  0
 11 10  2  0  0  0  0
 12 13  2  0  0  0  0
 12 11  1  0  0  0  0
 13 14  1  0  0  0  0
 14 19  1  0  0  0  0
 14  9  2  0  0  0  0
 16 11  1  0  0  0  0
 17 12  1  0  0  0  0
 18 13  1  0  0  0  0
 19 21  1  0  0  0  0
 20 21  2  0  0  0  0
 21 22  1  0  0  0  0
 21 24  1  0  0  0  0
 22 23  1  0  0  0  0
 24 25  1  0  0  0  0
 26 31  1  0  0  0  0
 27 26  2  0  0  0  0
 27 28  1  0  0  0  0
 28 29  2  0  0  0  0
 29 30  1  0  0  0  0
 30  1  1  0  0  0  0
 31 30  2  0  0  0  0
 32 26  1  0  0  0  0
 33 27  1  0  0  0  0
 34 43  1  0  0  0  0
 35 28  1  0  0  0  0
 35 34  2  0  0  0  0
 36 35  1  0  0  0  0
 37 36  1  0  0  0  0
 38 36  2  0  0  0  0
 38 40  1  0  0  0  0
 39 38  1  0  0  0  0
 40 41  2  0  0  0  0
 41 34  1  0  0  0  0
 42 45  1  0  0  0  0
 43 44  1  0  0  0  0
 43 42  2  0  0  0  0
 44 47  1  0  0  0  0
 46 44  1  0  0  0  0
M  END
>  <minimizedAffinity>
-6.75940275

$$$$

 OpenBabel03242521263D

 47 50  0  0  0  0  0  0  0  0999 V2000
   35.2620   28.0020   36.9520 C   0  0  0  0  0  0  0  0  0  0  0  0
   36.2580   28.6680   36.2990 C   0  0  0  0  0  0  0  0  0  0  0  0
   37.5720   28.6800   36.7130 C   0  0  0  0  0  0  0  0  0  0  0  0
   37.8360   27.9740   37.8410 N   0  0  0  0  0  0  0  0  0  0  0  0
   36.8630   27.3190   38.4860 C   0  0  0  0  0  0  0  0  0  0  0  0
   35.5910   27.3180   38.0680 N   0  0  0  0  0  0  0  0  0  0  0  0
   36.0100   29.2210   35.4040 H   0  0  0  0  0  0  0  0  0  0  0  0
   38.3530   29.2060   36.1960 H   0  0  0  0  0  0  0  0  0  0  0  0
   37.1820   26.5550   39.7120 C   0  0  0  0  0  0  0  0  0  0  0  0
   37.8570   25.3710   39.6240 C   0  0  0  0  0  0  0  0  0  0  0  0
   38.2080   24.5790   40.6980 C   0  0  0  0  0  0  0  0  0  0  0  0
   37.8300   25.0480   41.9570 C   0  0  0  0  0  0  0  0  0  0  0  0
   37.1550   26.2290   42.0590 C   0  0  0  0  0  0  0  0  0  0  0  0
   36.8180   26.9990   40.9680 C   0  0  0  0  0  0  0  0  0  0  0  0
   38.1500   25.0100   38.6370 H   0  0  0  0  0  0  0  0  0  0  0  0
   38.7450   23.6510   40.5460 H   0  0  0  0  0  0  0  0  0  0  0  0
   38.0920   24.4460   42.8120 H   0  0  0  0  0  0  0  0  0  0  0  0
   36.8440   26.6260   43.0210 H   0  0  0  0  0  0  0  0  0  0  0  0
   36.1360   28.1970   41.0360 O   0  0  0  0  0  0  0  0  0  0  0  0
   38.0540   29.9530   40.7940 O   0  0  0  0  0  0  0  0  0  0  0  0
   36.7630   29.6790   41.5530 P   0  0  0  0  0  0  0  0  0  0  0  0
   35.6990   30.9710   41.3950 O   0  0  0  0  0  0  0  0  0  0  0  0
   35.8380   31.6690   42.0630 H   0  0  0  0  0  0  0  0  0  0  0  0
   37.1760   29.5460   43.1910 O   0  0  0  0  0  0  0  0  0  0  0  0
   37.1380   30.4410   43.5780 H   0  0  0  0  0  0  0  0  0  0  0  0
   32.2290   27.1290   35.1070 C   0  0  0  0  0  0  0  0  0  0  0  0
   31.3170   28.0820   35.5960 C   0  0  0  0  0  0  0  0  0  0  0  0
   31.7310   29.0030   36.5350 C   0  0  0  0  0  0  0  0  0  0  0  0
   33.0360   28.9400   36.9500 N   0  0  0  0  0  0  0  0  0  0  0  0
   33.8930   28.0220   36.4730 C   0  0  0  0  0  0  0  0  0  0  0  0
   33.4870   27.1350   35.5670 N   0  0  0  0  0  0  0  0  0  0  0  0
   31.9540   26.3770   34.3650 H   0  0  0  0  0  0  0  0  0  0  0  0
   30.3420   27.9800   35.1570 H   0  0  0  0  0  0  0  0  0  0  0  0
   30.4180   31.1190   36.3620 C   0  0  0  0  0  0  0  0  0  0  0  0
   30.7770   29.9760   37.0300 C   0  0  0  0  0  0  0  0  0  0  0  0
   30.1390   29.8240   38.2340 C   0  0  0  0  0  0  0  0  0  0  0  0
   30.3040   28.9830   38.8860 H   0  0  0  0  0  0  0  0  0  0  0  0
   29.2270   30.7360   38.7190 C   0  0  0  0  0  0  0  0  0  0  0  0
   28.7360   30.6000   39.6680 H   0  0  0  0  0  0  0  0  0  0  0  0
   28.8940   31.8680   38.0230 C   0  0  0  0  0  3  0  0  0  0  0  0
   29.5120   32.0590   36.8070 C   0  0  0  0  0  3  0  0  0  0  0  0
   31.9530   31.4460   34.2330 N   0  0  0  0  0  0  0  0  0  0  0  0
   31.0060   31.4470   35.0910 C   0  0  0  0  0  0  0  0  0  0  0  0
   30.2460   32.1720   34.1080 N   0  0  0  0  0  0  0  0  0  0  0  0
   31.8150   31.9000   33.3130 H   0  0  0  0  0  0  0  0  0  0  0  0
   30.0790   33.2070   34.1340 H   0  0  0  0  0  0  0  0  0  0  0  0
   29.6680   32.4620   33.2930 H   0  0  0  0  0  0  0  0  0  0  0  0
  1  6  1  0  0  0  0
  2  3  1  0  0  0  0
  2  1  2  0  0  0  0
  3  4  2  0  0  0  0
  4  5  1  0  0  0  0
  5  9  1  0  0  0  0
  6  5  2  0  0  0  0
  7  2  1  0  0  0  0
  8  3  1  0  0  0  0
  9 14  1  0  0  0  0
 10  9  2  0  0  0  0
 10 11  1  0  0  0  0
 11 12  2  0  0  0  0
 12 13  1  0  0  0  0
 12 17  1  0  0  0  0
 13 18  1  0  0  0  0
 14 19  1  0  0  0  0
 14 13  2  0  0  0  0
 15 10  1  0  0  0  0
 16 11  1  0  0  0  0
 19 21  1  0  0  0  0
 20 21  2  0  0  0  0
 21 24  1  0  0  0  0
 22 21  1  0  0  0  0
 22 23  1  0  0  0  0
 24 25  1  0  0  0  0
 26 31  2  0  0  0  0
 26 27  1  0  0  0  0
 27 28  2  0  0  0  0
 28 29  1  0  0  0  0
 28 35  1  0  0  0  0
 30 29  2  0  0  0  0
 30  1  1  0  0  0  0
 31 30  1  0  0  0  0
 32 26  1  0  0  0  0
 33 27  1  0  0  0  0
 34 41  2  0  0  0  0
 34 35  1  0  0  0  0
 35 36  2  0  0  0  0
 36 38  1  0  0  0  0
 36 37  1  0  0  0  0
 38 39  1  0  0  0  0
 40 38  2  0  0  0  0
 41 40  1  0  0  0  0
 42 43  2  0  0  0  0
 43 34  1  0  0  0  0
 44 46  1  0  0  0  0
 44 43  1  0  0  0  0
 45 42  1  0  0  0  0
 47 44  1  0  0  0  0
M  END
>  <minimizedAffinity>
-6.57559633

$$$$

 OpenBabel03242521263D

 47 50  0  0  0  0  0  0  0  0999 V2000
   35.1660   28.4120   38.7530 C   0  0  0  0  0  0  0  0  0  0  0  0
   35.0210   29.1860   39.8680 C   0  0  0  0  0  0  0  0  0  0  0  0
   36.0070   29.3630   40.8130 C   0  0  0  0  0  0  0  0  0  0  0  0
   37.1710   28.7060   40.5730 N   0  0  0  0  0  0  0  0  0  0  0  0
   37.3190   27.9460   39.4810 C   0  0  0  0  0  0  0  0  0  0  0  0
   36.3480   27.7870   38.5730 N   0  0  0  0  0  0  0  0  0  0  0  0
   34.0800   29.6940   40.0270 H   0  0  0  0  0  0  0  0  0  0  0  0
   35.8890   29.9720   41.6890 H   0  0  0  0  0  0  0  0  0  0  0  0
   38.5990   27.2430   39.2460 C   0  0  0  0  0  0  0  0  0  0  0  0
   39.3980   27.6100   38.2000 C   0  0  0  0  0  0  0  0  0  0  0  0
   40.6090   27.0280   37.8880 C   0  0  0  0  0  0  0  0  0  0  0  0
   41.0240   25.9880   38.7210 C   0  0  0  0  0  0  0  0  0  0  0  0
   40.2370   25.6130   39.7690 C   0  0  0  0  0  0  0  0  0  0  0  0
   39.0310   26.2130   40.0560 C   0  0  0  0  0  0  0  0  0  0  0  0
   39.0680   28.4240   37.5520 H   0  0  0  0  0  0  0  0  0  0  0  0
   41.1850   27.3760   37.0400 H   0  0  0  0  0  0  0  0  0  0  0  0
   41.9670   25.5170   38.4970 H   0  0  0  0  0  0  0  0  0  0  0  0
   40.5260   24.8080   40.4390 H   0  0  0  0  0  0  0  0  0  0  0  0
   38.2100   25.8570   41.1080 O   0  0  0  0  0  0  0  0  0  0  0  0
   36.3720   24.3710   39.9960 O   0  0  0  0  0  0  0  0  0  0  0  0
   37.2760   24.4530   41.2190 P   0  0  0  0  0  0  0  0  0  0  0  0
   38.1720   23.0400   41.3880 O   0  0  0  0  0  0  0  0  0  0  0  0
   37.7060   22.3460   41.8910 H   0  0  0  0  0  0  0  0  0  0  0  0
   36.2620   24.5860   42.5700 O   0  0  0  0  0  0  0  0  0  0  0  0
   36.0480   23.6820   42.8680 H   0  0  0  0  0  0  0  0  0  0  0  0
   32.9480   26.9390   36.2480 C   0  0  0  0  0  0  0  0  0  0  0  0
   32.0690   28.0060   35.9880 C   0  0  0  0  0  0  0  0  0  0  0  0
   32.2320   29.2020   36.6540 C   0  0  0  0  0  0  0  0  0  0  0  0
   33.2640   29.2910   37.5520 N   0  0  0  0  0  0  0  0  0  0  0  0
   34.0930   28.2610   37.7880 C   0  0  0  0  0  0  0  0  0  0  0  0
   33.9310   27.1080   37.1420 N   0  0  0  0  0  0  0  0  0  0  0  0
   32.8640   25.9720   35.7500 H   0  0  0  0  0  0  0  0  0  0  0  0
   31.3240   27.7540   35.2550 H   0  0  0  0  0  0  0  0  0  0  0  0
   30.3220   30.7060   37.2270 C   0  0  0  0  0  0  0  0  0  0  0  0
   31.3140   30.2890   36.3750 C   0  0  0  0  0  0  0  0  0  0  0  0
   31.3690   31.0080   35.2090 C   0  0  0  0  0  0  0  0  0  0  0  0
   32.0890   30.8140   34.4310 H   0  0  0  0  0  0  0  0  0  0  0  0
   30.5090   32.0470   34.9290 C   0  0  0  0  0  0  0  0  0  0  0  0
   30.5660   32.6010   34.0060 H   0  0  0  0  0  0  0  0  0  0  0  0
   29.5290   32.4340   35.8050 C   0  0  0  0  0  3  0  0  0  0  0  0
   29.4390   31.7370   36.9890 C   0  0  0  0  0  3  0  0  0  0  0  0
   30.4350   29.7280   39.6820 N   0  0  0  0  0  0  0  0  0  0  0  0
   30.1090   30.0480   38.4880 C   0  0  0  0  0  0  0  0  0  0  0  0
   28.9110   29.2840   38.7120 N   0  0  0  0  0  0  0  0  0  0  0  0
   29.8010   29.1350   40.2480 H   0  0  0  0  0  0  0  0  0  0  0  0
   28.7490   28.3160   38.3450 H   0  0  0  0  0  0  0  0  0  0  0  0
   27.9720   28.9430   39.0040 H   0  0  0  0  0  0  0  0  0  0  0  0
  1  2  1  0  0  0  0
  2  7  1  0  0  0  0
  2  3  2  0  0  0  0
  3  8  1  0  0  0  0
  4  3  1  0  0  0  0
  5  4  2  0  0  0  0
  6  1  2  0  0  0  0
  6  5  1  0  0  0  0
  9  5  1  0  0  0  0
  9 14  1  0  0  0  0
 10  9  2  0  0  0  0
 11 10  1  0  0  0  0
 11 12  2  0  0  0  0
 12 13  1  0  0  0  0
 13 14  2  0  0  0  0
 13 18  1  0  0  0  0
 14 19  1  0  0  0  0
 15 10  1  0  0  0  0
 16 11  1  0  0  0  0
 17 12  1  0  0  0  0
 19 21  1  0  0  0  0
 20 21  2  0  0  0  0
 21 22  1  0  0  0  0
 21 24  1  0  0  0  0
 22 23  1  0  0  0  0
 24 25  1  0  0  0  0
 26 31  1  0  0  0  0
 27 26  2  0  0  0  0
 27 28  1  0  0  0  0
 28 29  2  0  0  0  0
 29 30  1  0  0  0  0
 30  1  1  0  0  0  0
 31 30  2  0  0  0  0
 32 26  1  0  0  0  0
 33 27  1  0  0  0  0
 34 43  1  0  0  0  0
 35 28  1  0  0  0  0
 35 34  2  0  0  0  0
 36 35  1  0  0  0  0
 37 36  1  0  0  0  0
 38 36  2  0  0  0  0
 38 40  1  0  0  0  0
 39 38  1  0  0  0  0
 40 41  2  0  0  0  0
 41 34  1  0  0  0  0
 42 45  1  0  0  0  0
 43 44  1  0  0  0  0
 43 42  2  0  0  0  0
 44 47  1  0  0  0  0
 46 44  1  0  0  0  0
M  END
>  <minimizedAffinity>
-6.56615019

$$$$
