REMARK  Name = 
REMARK  3 active torsions:
REMARK  status: ('A' for Active; 'I' for Inactive)
REMARK    1  A    between atoms: C_2  and  O_7
REMARK    2  A    between atoms: C_3  and  C_15
REMARK    3  A    between atoms: C_12  and  C_14
REMARK                            x       y       z     vdW  Elec       q    Type
REMARK                         _______ _______ _______ _____ _____    ______ ____
ROOT
ATOM      1  C   UNL     1      46.513  34.217  40.893  0.00  0.00    +0.000 A 
ATOM      2  C   UNL     1      46.571  35.108  41.916  0.00  0.00    +0.000 A 
ATOM      3  C   UNL     1      47.234  36.327  41.721  0.00  0.00    +0.000 A 
ATOM      4  H   UNL     1      47.383  37.145  42.405  0.00  0.00    +0.000 HD
ATOM      5  C   UNL     1      47.796  36.547  40.472  0.00  0.00    +0.000 A 
ATOM      6  H   UNL     1      48.337  37.450  40.178  0.00  0.00    +0.000 HD
ATOM      7  C   UNL     1      47.710  35.604  39.445  0.00  0.00    +0.000 A 
ATOM      8  C   UNL     1      47.059  34.407  39.645  0.00  0.00    +0.000 A 
ENDROOT
BRANCH   2  11
ATOM      9  C   UNL     1      44.559  35.621  45.063  0.00  0.00    +0.000 A 
ATOM     10  C   UNL     1      45.025  35.886  43.773  0.00  0.00    +0.000 A 
ATOM     11  C   UNL     1      45.974  34.982  43.238  0.00  0.00    +0.000 A 
ATOM     12  N   UNL     1      46.374  33.917  44.005  0.00  0.00    +0.000 NA
ATOM     13  C   UNL     1      45.889  33.711  45.244  0.00  0.00    +0.000 A 
ATOM     14  N   UNL     1      44.992  34.560  45.758  0.00  0.00    +0.000 NA
ATOM     15  H   UNL     1      43.838  36.310  45.464  0.00  0.00    +0.000 HD
ATOM     16  H   UNL     1      46.217  32.865  45.828  0.00  0.00    +0.000 HD
BRANCH  10  17
ATOM     17  O   UNL     1      44.634  36.959  42.987  0.00  0.00    +0.000 OA
ATOM     18  H   UNL     1      45.200  37.782  42.961  0.00  0.00    +0.000 HD
ENDBRANCH  10  17
ENDBRANCH   2  11
BRANCH   1  20
ATOM     19  N   UNL     1      46.338  31.895  40.523  0.00  0.00    +0.000 NA
ATOM     20  C   UNL     1      45.851  32.953  41.142  0.00  0.00    +0.000 C 
ATOM     21  N   UNL     1      44.808  32.292  41.823  0.00  0.00    +0.000 N 
ATOM     22  H   UNL     1      47.148  31.917  39.888  0.00  0.00    +0.000 HD
ATOM     23  H   UNL     1      43.903  31.963  41.363  0.00  0.00    +0.000 HD
ATOM     24  H   UNL     1      44.997  32.135  42.845  0.00  0.00    +0.000 HD
ENDBRANCH   1  20
TORSDOF 3
