
     RDKit          3D

 41 44  0  0  0  0  0  0  0  0999 V2000
   44.8291   33.1765   41.1031 Cl  0  0  0  0  0  0  0  0  0  0  0  0
   46.3410   33.9692   40.8971 C   0  0  0  0  0  0  0  0  0  0  0  0
   46.8608   34.7320   41.9148 C   0  0  0  0  0  0  0  0  0  0  0  0
   48.0893   35.3953   41.7912 C   0  0  0  0  0  0  0  0  0  0  0  0
   48.7380   35.2365   40.5961 C   0  0  0  0  0  0  0  0  0  0  0  0
   48.2255   34.4823   39.5880 C   0  0  0  0  0  0  0  0  0  0  0  0
   47.0058   33.8268   39.7174 C   0  0  0  0  0  0  0  0  0  0  0  0
   45.5951   34.0624   45.3212 C   0  0  0  0  0  0  0  0  0  0  0  0
   44.7146   35.1130   45.5232 C   0  0  0  0  0  0  0  0  0  0  0  0
   44.5539   36.0421   44.5064 C   0  0  0  0  0  0  0  0  0  0  0  0
   45.2563   35.8956   43.3570 N   0  0  0  0  0  0  0  0  0  0  0  0
   46.1180   34.8627   43.1664 C   0  0  0  0  0  0  0  0  0  0  0  0
   46.2695   33.9630   44.1587 N   0  0  0  0  0  0  0  0  0  0  0  0
   46.6096   33.0634   38.5355 C   0  0  0  0  0  0  0  0  0  0  0  0
   46.8491   33.5947   37.2771 C   0  0  0  0  0  0  0  0  0  0  0  0
   46.1834   32.2778   36.1540 S   0  0  0  0  0  0  0  0  0  0  0  0
   45.6934   31.2285   37.6537 C   0  0  0  0  0  0  0  0  0  0  0  0
   46.0374   31.9002   38.4770 N   0  0  0  0  0  0  0  0  0  0  0  0
   48.4960   35.9951   42.5939 H   0  0  0  0  0  0  0  0  0  0  0  0
   49.6904   35.7523   40.5045 H   0  0  0  0  0  0  0  0  0  0  0  0
   48.8343   34.4313   38.6840 H   0  0  0  0  0  0  0  0  0  0  0  0
   45.7545   33.3121   46.0848 H   0  0  0  0  0  0  0  0  0  0  0  0
   44.1591   35.2347   46.4242 H   0  0  0  0  0  0  0  0  0  0  0  0
   43.8832   36.9075   44.5668 H   0  0  0  0  0  0  0  0  0  0  0  0
   47.3055   34.5338   36.9870 H   0  0  0  0  0  0  0  0  0  0  0  0
   43.0274   31.5348   39.6106 N   0  0  0  0  0  0  0  0  0  0  0  0
   43.1740   30.6628   38.6957 C   0  0  0  0  0  0  0  0  0  0  0  0
   41.7920   30.9307   38.4988 N   0  0  0  0  0  0  0  0  0  0  0  0
   43.8006   29.6896   37.8242 C   0  0  0  0  0  0  0  0  0  0  0  0
   45.0574   29.9587   37.3344 C   0  0  0  0  0  0  0  0  0  0  0  0
   45.5962   28.9670   36.5438 C   0  0  0  0  0  0  0  0  0  0  0  0
   46.5762   29.1184   36.1316 H   0  0  0  0  0  0  0  0  0  0  0  0
   44.8791   27.8266   36.3048 C   0  0  0  0  0  0  0  0  0  0  0  0
   45.3730   27.0959   35.6747 H   0  0  0  0  0  0  0  0  0  0  0  0
   43.6183   27.5745   36.8044 C   0  0  0  0  0  0  0  0  0  0  0  0
   43.0685   28.5557   37.5953 C   0  0  0  0  0  0  0  0  0  0  0  0
   43.7783   31.8623   40.2435 H   0  0  0  0  0  0  0  0  0  0  0  0
   41.3080   30.8152   37.5762 H   0  0  0  0  0  0  0  0  0  0  0  0
   40.7771   31.1363   38.3905 H   0  0  0  0  0  0  0  0  0  0  0  0
   43.0759   26.6633   36.5977 H   0  0  0  0  0  0  0  0  0  0  0  0
   42.0821   28.4019   38.0089 H   0  0  0  0  0  0  0  0  0  0  0  0
  2  1  1  0
  2  3  2  0
  3 12  1  0
  4  3  1  0
  5  4  2  0
  6  7  2  0
  6  5  1  0
  7  2  1  0
  8  9  2  0
 10  9  1  0
 11 10  2  0
 12 11  1  0
 12 13  2  0
 13  8  1  0
 14  7  1  0
 15 14  2  0
 16 15  1  0
 16 17  1  0
 17 18  2  0
 18 14  1  0
  4 19  1  0
  5 20  1  0
  6 21  1  0
  8 22  1  0
  9 23  1  0
 10 24  1  0
 15 25  1  0
 26 27  2  3
 27 28  1  0
 27 29  1  0
 29 30  2  0
 30 31  1  0
 31 32  1  0
 31 33  2  0
 33 34  1  0
 33 35  1  0
 35 36  2  0
 36 29  1  0
 26 37  1  0
 28 38  1  0
 28 39  1  0
 35 40  1  0
 36 41  1  0
 17 30  1  0
M  ISO  8  19  14  20  14  21  14  22  14  23  14  24  14  25  14  32  15
M  ISO  1  34  16
M  END
>  <DihAtoms>  (1) 
15,16,29,28

>  <DihDeg>  (1) 
177.9546671912236

$$$$
