
 OpenBabel03242515393D

 41 44  0  0  0  0  0  0  0  0999 V2000
   43.8590   34.6790   40.8650 C   0  0  0  0  0  0  0  0  0  0  0  0
   43.7900   33.9230   39.7180 C   0  0  0  0  0  0  0  0  0  0  0  0
   44.9630   33.3420   39.2430 C   0  0  0  0  0  0  0  0  0  0  0  0
   46.1020   33.5530   39.9410 N   0  0  0  0  0  0  0  0  0  0  0  0
   46.1400   34.3000   41.0660 C   0  0  0  0  0  0  0  0  0  0  0  0
   45.0170   34.8470   41.5030 N   0  0  0  0  0  0  0  0  0  0  0  0
   42.8630   33.7530   39.2120 H   0  0  0  0  0  0  0  0  0  0  0  0
   44.9650   31.1370   38.0760 C   0  0  0  0  0  0  0  0  0  0  0  0
   45.1120   32.4790   38.0950 C   0  0  0  0  0  0  0  0  0  0  0  0
   45.4250   33.0200   36.8670 C   0  0  0  0  0  0  0  0  0  0  0  0
   45.5670   34.0890   36.7480 H   0  0  0  0  0  0  0  0  0  0  0  0
   45.5850   32.2990   35.7060 C   0  0  0  0  0  0  0  0  0  0  0  0
   45.8320   32.7740   34.7630 H   0  0  0  0  0  0  0  0  0  0  0  0
   45.4300   30.9330   35.7280 C   0  0  0  0  0  3  0  0  0  0  0  0
   45.1100   30.3370   36.9490 C   0  0  0  0  0  3  0  0  0  0  0  0
   43.3440   29.9990   39.6180 N   0  0  0  0  0  0  0  0  0  0  0  0
   44.5240   30.3440   39.2030 C   0  0  0  0  0  0  0  0  0  0  0  0
   45.3730   29.7330   40.1610 N   0  0  0  0  0  0  0  0  0  0  0  0
   43.2760   29.4150   40.4680 H   0  0  0  0  0  0  0  0  0  0  0  0
   45.6060   28.7250   39.9420 H   0  0  0  0  0  0  0  0  0  0  0  0
   45.9090   29.8450   41.0500 H   0  0  0  0  0  0  0  0  0  0  0  0
   42.3040   35.4040   41.4210 S   0  0  0  0  0  0  0  0  0  0  0  0
   39.9360   34.8490   40.2890 C   0  0  0  0  0  0  0  0  0  0  0  0
   40.9370   34.3210   41.0850 C   0  0  0  0  0  0  0  0  0  0  0  0
   40.8470   33.0350   41.5690 C   0  0  0  0  0  0  0  0  0  0  0  0
   39.7680   32.2210   41.2860 C   0  0  0  0  0  0  0  0  0  0  0  0
   38.7500   32.7610   40.4750 C   0  0  0  0  0  0  0  0  0  0  0  0
   38.8170   34.0560   39.9750 C   0  0  0  0  0  0  0  0  0  0  0  0
   37.7670   31.7610   40.3250 O   0  0  0  0  0  0  0  0  0  0  0  0
   38.0460   30.7770   41.2960 C   0  0  0  0  0  0  0  0  0  0  0  0
   39.4110   30.9170   41.6230 O   0  0  0  0  0  0  0  0  0  0  0  0
   39.9340   35.8530   39.8690 H   0  0  0  0  0  0  0  0  0  0  0  0
   41.6330   32.6470   42.1820 H   0  0  0  0  0  0  0  0  0  0  0  0
   38.0100   34.4300   39.3540 H   0  0  0  0  0  0  0  0  0  0  0  0
   37.9180   29.7770   40.8180 H   0  0  0  0  0  0  0  0  0  0  0  0
   37.3800   30.8320   42.1740 H   0  0  0  0  0  0  0  0  0  0  0  0
   47.2740   34.5380   41.8030 O   0  0  0  0  0  0  0  0  0  0  0  0
   48.4430   34.9670   41.1720 C   0  0  0  0  0  0  0  0  0  0  0  0
   49.4940   34.1270   41.3590 F   0  0  0  0  0  0  0  0  0  0  0  0
   48.0860   35.1290   39.8190 F   0  0  0  0  0  0  0  0  0  0  0  0
   48.7760   36.2020   41.7290 F   0  0  0  0  0  0  0  0  0  0  0  0
  1 22  1  0  0  0  0
  1  6  1  0  0  0  0
  2  1  2  0  0  0  0
  3  2  1  0  0  0  0
  3  4  2  0  0  0  0
  4  5  1  0  0  0  0
  5  6  2  0  0  0  0
  5 37  1  0  0  0  0
  7  2  1  0  0  0  0
  8  9  1  0  0  0  0
  8 17  1  0  0  0  0
  9  3  1  0  0  0  0
 10  9  2  0  0  0  0
 11 10  1  0  0  0  0
 12 14  2  0  0  0  0
 12 10  1  0  0  0  0
 13 12  1  0  0  0  0
 14 15  1  0  0  0  0
 15  8  2  0  0  0  0
 16 19  1  0  0  0  0
 17 16  2  0  0  0  0
 17 18  1  0  0  0  0
 18 21  1  0  0  0  0
 20 18  1  0  0  0  0
 23 24  1  0  0  0  0
 24 22  1  0  0  0  0
 24 25  2  0  0  0  0
 25 33  1  0  0  0  0
 26 25  1  0  0  0  0
 26 31  1  0  0  0  0
 27 26  2  0  0  0  0
 28 23  2  0  0  0  0
 28 27  1  0  0  0  0
 29 27  1  0  0  0  0
 29 30  1  0  0  0  0
 30 31  1  0  0  0  0
 30 36  1  0  0  0  0
 32 23  1  0  0  0  0
 34 28  1  0  0  0  0
 35 30  1  0  0  0  0
 38 39  1  0  0  0  0
 38 41  1  0  0  0  0
 38 37  1  0  0  0  0
 40 38  1  0  0  0  0
M  END
>  <minimizedAffinity>
-5.79343128

>  <minimizedRMSD>
0.744651616

$$$$
