
     RDKit          3D

 47 50  0  0  0  0  0  0  0  0999 V2000
   47.2836   34.5579   42.5932 N   0  0  0  0  0  0  0  0  0  0  0  0
   48.6827   34.2456   42.6170 C   0  0  0  0  0  0  0  0  0  0  0  0
   49.1596   35.2483   41.5929 C   0  0  0  0  0  0  0  0  0  0  0  0
   48.2101   34.8697   40.4456 C   0  0  0  0  0  0  0  0  0  0  0  0
   46.9241   34.7029   41.1779 C   0  0  1  0  0  0  0  0  0  0  0  0
   44.4966   35.8409   44.7017 C   0  0  0  0  0  0  0  0  0  0  0  0
   45.3812   35.7421   43.6359 C   0  0  0  0  0  0  0  0  0  0  0  0
   46.3438   34.7263   43.6380 C   0  0  0  0  0  0  0  0  0  0  0  0
   46.3544   33.8916   44.6911 N   0  0  0  0  0  0  0  0  0  0  0  0
   45.4965   33.9901   45.7211 C   0  0  0  0  0  0  0  0  0  0  0  0
   44.5580   34.9777   45.7228 N   0  0  0  0  0  0  0  0  0  0  0  0
   44.1619   35.0816   40.6480 F   0  0  0  0  0  0  0  0  0  0  0  0
   44.6940   33.8296   40.4089 C   0  0  0  0  0  0  0  0  0  0  0  0
   46.0235   33.6616   40.6921 C   0  0  0  0  0  0  0  0  0  0  0  0
   46.5139   32.3857   40.4507 C   0  0  0  0  0  0  0  0  0  0  0  0
   45.6931   31.3896   39.9621 C   0  0  0  0  0  0  0  0  0  0  0  0
   44.3349   31.6275   39.6914 C   0  0  0  0  0  0  0  0  0  0  0  0
   43.8261   32.9113   39.9307 C   0  0  0  0  0  0  0  0  0  0  0  0
   48.9314   33.2195   42.3340 H   0  0  0  0  0  0  0  0  0  0  0  0
   49.1139   34.5522   43.6022 H   0  0  0  0  0  0  0  0  0  0  0  0
   48.9699   36.2688   41.9381 H   0  0  0  0  0  0  0  0  0  0  0  0
   50.2154   35.0570   41.3060 H   0  0  0  0  0  0  0  0  0  0  0  0
   48.2016   35.6336   39.6475 H   0  0  0  0  0  0  0  0  0  0  0  0
   48.5744   33.8758   40.0994 H   0  0  0  0  0  0  0  0  0  0  0  0
   46.3702   35.6855   41.1647 H   0  0  0  0  0  0  0  0  0  0  0  0
   43.7853   36.6611   44.6111 H   0  0  0  0  0  0  0  0  0  0  0  0
   45.3688   36.4187   42.7871 H   0  0  0  0  0  0  0  0  0  0  0  0
   45.5365   33.2925   46.5592 H   0  0  0  0  0  0  0  0  0  0  0  0
   47.5363   32.1074   40.6261 H   0  0  0  0  0  0  0  0  0  0  0  0
   46.0305   30.3761   39.7574 H   0  0  0  0  0  0  0  0  0  0  0  0
   43.6570   30.8752   39.3079 H   0  0  0  0  0  0  0  0  0  0  0  0
   43.8691   32.1660   37.3174 N   0  0  0  0  0  0  0  0  0  0  0  0
   42.5993   31.9782   37.4860 C   0  0  0  0  0  0  0  0  0  0  0  0
   41.8890   31.0300   36.7022 N   0  0  0  0  0  0  0  0  0  0  0  0
   41.8276   32.7175   38.4773 C   0  0  0  0  0  0  0  0  0  0  0  0
   42.4194   33.1654   39.6525 C   0  0  0  0  0  0  0  0  0  0  0  0
   41.6265   33.8657   40.5578 C   0  0  0  0  0  0  0  0  0  0  0  0
   42.0807   34.2156   41.4716 H   0  0  0  0  0  0  0  0  0  0  0  0
   40.2805   34.1371   40.3455 C   0  0  0  0  0  0  0  0  0  0  0  0
   39.7158   34.6877   41.0892 H   0  0  0  0  0  0  0  0  0  0  0  0
   39.6981   33.6914   39.1797 C   0  0  0  0  0  0  0  0  0  0  0  0
   40.4963   32.9943   38.2832 C   0  0  0  0  0  0  0  0  0  0  0  0
   44.3135   31.5745   36.5740 H   0  0  0  0  0  0  0  0  0  0  0  0
   41.1268   31.4315   36.1021 H   0  0  0  0  0  0  0  0  0  0  0  0
   41.6621   30.0710   36.3405 H   0  0  0  0  0  0  0  0  0  0  0  0
   38.6605   33.8979   39.0106 H   0  0  0  0  0  0  0  0  0  0  0  0
   40.0061   32.6596   37.3791 H   0  0  0  0  0  0  0  0  0  0  0  0
  1  2  1  0
  1  8  1  0
  3  2  1  0
  4  5  1  0
  4  3  1  0
  5  1  1  0
  6 11  2  0
  7  8  2  0
  7  6  1  0
  8  9  1  0
  9 10  2  0
 10 11  1  0
 13 12  1  0
 13 14  2  0
 14  5  1  0
 15 14  1  0
 16 15  2  0
 17 18  2  0
 17 16  1  0
 18 13  1  0
  2 19  1  0
  2 20  1  0
  3 21  1  0
  3 22  1  0
  4 23  1  0
  4 24  1  0
  5 25  1  1
  6 26  1  0
  7 27  1  0
 10 28  1  0
 15 29  1  0
 16 30  1  0
 17 31  1  0
 32 33  2  3
 33 34  1  0
 33 35  1  0
 35 36  2  0
 36 37  1  0
 37 38  1  0
 37 39  2  0
 39 40  1  0
 39 41  1  0
 41 42  2  0
 42 35  1  0
 32 43  1  0
 34 44  1  0
 34 45  1  0
 41 46  1  0
 42 47  1  0
 18 36  1  0
M  ISO  8  19  13  20  13  21  13  22  13  23  13  24  13  25  13  26  14
M  ISO  7  27  14  28  14  29  14  30  14  31  14  38  15  40  16
M  END
>  <DihAtoms>  (1) 
16,17,35,34

>  <DihDeg>  (1) 
90.00052557331412

$$$$
