
 OpenBabel03242514073D

 48 51  0  0  1  0  0  0  0  0999 V2000
   39.4280   26.7950   40.7270 C   0  0  1  0  0  0  0  0  0  0  0  0
   40.4800   25.6960   41.0090 C   0  0  0  0  0  0  0  0  0  0  0  0
   40.0730   24.5500   40.0600 C   0  0  0  0  0  0  0  0  0  0  0  0
   38.7920   23.9790   40.6660 C   0  0  0  0  0  0  0  0  0  0  0  0
   37.7230   24.9980   40.6790 C   0  0  0  0  0  0  0  0  0  0  0  0
   38.0790   26.3820   41.1070 C   0  0  2  0  0  0  0  0  0  0  0  0
   39.5270   26.8950   39.6020 H   0  0  0  0  0  0  0  0  0  0  0  0
   41.4950   26.0250   40.8170 H   0  0  0  0  0  0  0  0  0  0  0  0
   40.3040   25.3460   42.0420 H   0  0  0  0  0  0  0  0  0  0  0  0
   40.8480   23.7840   40.0900 H   0  0  0  0  0  0  0  0  0  0  0  0
   39.8880   25.0230   39.0920 H   0  0  0  0  0  0  0  0  0  0  0  0
   38.4530   23.1140   40.0850 H   0  0  0  0  0  0  0  0  0  0  0  0
   39.0430   23.6960   41.7100 H   0  0  0  0  0  0  0  0  0  0  0  0
   36.8550   24.5830   41.2450 H   0  0  0  0  0  0  0  0  0  0  0  0
   37.3320   25.0580   39.6200 H   0  0  0  0  0  0  0  0  0  0  0  0
   37.9220   26.4540   42.2050 H   0  0  0  0  0  0  0  0  0  0  0  0
   39.6400   30.4170   41.3110 C   0  0  0  0  0  0  0  0  0  0  0  0
   40.5920   30.4730   42.3020 C   0  0  0  0  0  0  0  0  0  0  0  0
   41.2250   29.3740   42.8370 C   0  0  0  0  0  0  0  0  0  0  0  0
   40.8100   28.1550   42.2790 C   0  0  0  0  0  0  0  0  0  0  0  0
   39.8420   28.0850   41.2750 C   0  0  0  0  0  0  0  0  0  0  0  0
   39.2670   29.2160   40.8010 N   0  0  0  0  0  0  0  0  0  0  0  0
   40.8410   31.4660   42.6640 H   0  0  0  0  0  0  0  0  0  0  0  0
   41.9600   29.4570   43.6050 H   0  0  0  0  0  0  0  0  0  0  0  0
   41.3370   27.3240   42.7160 H   0  0  0  0  0  0  0  0  0  0  0  0
   39.1140   33.9080   40.3530 C   0  0  0  0  0  0  0  0  0  0  0  0
   37.8580   33.9190   39.7680 C   0  0  0  0  0  0  0  0  0  0  0  0
   37.1950   32.6970   39.7100 C   0  0  0  0  0  0  0  0  0  0  0  0
   37.8090   31.5800   40.2220 N   0  0  0  0  0  0  0  0  0  0  0  0
   39.0450   31.6410   40.7840 C   0  0  0  0  0  0  0  0  0  0  0  0
   39.6830   32.7840   40.8470 N   0  0  0  0  0  0  0  0  0  0  0  0
   39.6440   34.8680   40.4050 H   0  0  0  0  0  0  0  0  0  0  0  0
   37.4260   34.8290   39.3810 H   0  0  0  0  0  0  0  0  0  0  0  0
   36.2160   32.6260   39.2680 H   0  0  0  0  0  0  0  0  0  0  0  0
   36.3570   28.1380   41.2980 C   0  0  0  0  0  0  0  0  0  0  0  0
   37.0270   27.2460   40.4450 C   0  0  0  0  0  0  0  0  0  0  0  0
   36.6360   27.2790   39.1280 C   0  0  0  0  0  0  0  0  0  0  0  0
   37.1480   26.5970   38.4720 H   0  0  0  0  0  0  0  0  0  0  0  0
   35.6510   28.1420   38.7100 C   0  0  0  0  0  0  0  0  0  0  0  0
   35.4300   28.0770   37.6550 H   0  0  0  0  0  0  0  0  0  0  0  0
   35.0040   29.0090   39.5570 C   0  0  0  0  0  3  0  0  0  0  0  0
   35.3720   28.9990   40.8760 C   0  0  0  0  0  3  0  0  0  0  0  0
   36.0720   27.5410   43.6760 N   0  0  0  0  0  0  0  0  0  0  0  0
   36.6030   28.2890   42.7490 C   0  0  0  0  0  0  0  0  0  0  0  0
   37.3260   29.0910   43.6620 N   0  0  0  0  0  0  0  0  0  0  0  0
   35.4240   26.7580   43.4730 H   0  0  0  0  0  0  0  0  0  0  0  0
   36.9210   29.9610   44.0990 H   0  0  0  0  0  0  0  0  0  0  0  0
   38.3080   28.9350   44.0040 H   0  0  0  0  0  0  0  0  0  0  0  0
  1  7  1  6  0  0  0
  1  2  1  0  0  0  0
  1  6  1  0  0  0  0
  1 21  1  0  0  0  0
  2  9  1  0  0  0  0
  3 10  1  0  0  0  0
  3  4  1  0  0  0  0
  3  2  1  0  0  0  0
  4  5  1  0  0  0  0
  4 13  1  0  0  0  0
  5  6  1  0  0  0  0
  5 14  1  0  0  0  0
  6 16  1  1  0  0  0
  8  2  1  0  0  0  0
 11  3  1  0  0  0  0
 12  4  1  0  0  0  0
 15  5  1  0  0  0  0
 17 18  1  0  0  0  0
 18 23  1  0  0  0  0
 18 19  2  0  0  0  0
 19 24  1  0  0  0  0
 20 25  1  0  0  0  0
 20 19  1  0  0  0  0
 21 20  2  0  0  0  0
 22 21  1  0  0  0  0
 22 17  2  0  0  0  0
 26 32  1  0  0  0  0
 26 31  1  0  0  0  0
 27 26  2  0  0  0  0
 28 27  1  0  0  0  0
 28 29  2  0  0  0  0
 29 30  1  0  0  0  0
 30 31  2  0  0  0  0
 30 17  1  0  0  0  0
 33 27  1  0  0  0  0
 34 28  1  0  0  0  0
 35 44  1  0  0  0  0
 36  6  1  0  0  0  0
 36 35  2  0  0  0  0
 37 36  1  0  0  0  0
 38 37  1  0  0  0  0
 39 37  2  0  0  0  0
 39 41  1  0  0  0  0
 40 39  1  0  0  0  0
 41 42  2  0  0  0  0
 42 35  1  0  0  0  0
 44 45  1  0  0  0  0
 44 43  2  0  0  0  0
 45 48  1  0  0  0  0
 45 47  1  0  0  0  0
 46 43  1  0  0  0  0
M  END
>  <minimizedAffinity>
-6.60026979

$$$$

 OpenBabel03242514073D

 48 51  0  0  1  0  0  0  0  0999 V2000
   37.2270   26.1640   40.3160 C   0  0  1  0  0  0  0  0  0  0  0  0
   36.7600   24.7430   40.7140 C   0  0  0  0  0  0  0  0  0  0  0  0
   36.8550   23.9460   39.3980 C   0  0  0  0  0  0  0  0  0  0  0  0
   35.7050   24.4690   38.5410 C   0  0  0  0  0  0  0  0  0  0  0  0
   35.8850   25.9060   38.2490 C   0  0  0  0  0  0  0  0  0  0  0  0
   36.3190   26.7990   39.3630 C   0  0  2  0  0  0  0  0  0  0  0  0
   38.2270   25.9280   39.8380 H   0  0  0  0  0  0  0  0  0  0  0  0
   37.3750   24.3000   41.4900 H   0  0  0  0  0  0  0  0  0  0  0  0
   35.6900   24.8220   40.9750 H   0  0  0  0  0  0  0  0  0  0  0  0
   36.6790   22.8920   39.6180 H   0  0  0  0  0  0  0  0  0  0  0  0
   37.8290   24.2010   38.9700 H   0  0  0  0  0  0  0  0  0  0  0  0
   35.6570   23.9170   37.5950 H   0  0  0  0  0  0  0  0  0  0  0  0
   34.7810   24.3290   39.1420 H   0  0  0  0  0  0  0  0  0  0  0  0
   34.9640   26.2750   37.7370 H   0  0  0  0  0  0  0  0  0  0  0  0
   36.6690   25.9660   37.4370 H   0  0  0  0  0  0  0  0  0  0  0  0
   35.4080   27.1920   39.8630 H   0  0  0  0  0  0  0  0  0  0  0  0
   39.0060   28.3940   42.6320 C   0  0  0  0  0  0  0  0  0  0  0  0
   38.0950   28.4960   43.6580 C   0  0  0  0  0  0  0  0  0  0  0  0
   36.8720   27.8630   43.6790 C   0  0  0  0  0  0  0  0  0  0  0  0
   36.6180   27.0840   42.5400 C   0  0  0  0  0  0  0  0  0  0  0  0
   37.5330   26.9760   41.4910 C   0  0  0  0  0  0  0  0  0  0  0  0
   38.7170   27.6310   41.5470 N   0  0  0  0  0  0  0  0  0  0  0  0
   38.3890   29.1240   44.4930 H   0  0  0  0  0  0  0  0  0  0  0  0
   36.1910   27.9660   44.4950 H   0  0  0  0  0  0  0  0  0  0  0  0
   35.6590   26.5980   42.6030 H   0  0  0  0  0  0  0  0  0  0  0  0
   42.5880   29.0640   42.9460 C   0  0  0  0  0  0  0  0  0  0  0  0
   42.6890   30.4430   42.8550 C   0  0  0  0  0  0  0  0  0  0  0  0
   41.4960   31.1380   42.6830 C   0  0  0  0  0  0  0  0  0  0  0  0
   40.3180   30.4350   42.6150 N   0  0  0  0  0  0  0  0  0  0  0  0
   40.2910   29.0790   42.7120 C   0  0  0  0  0  0  0  0  0  0  0  0
   41.4050   28.4090   42.8750 N   0  0  0  0  0  0  0  0  0  0  0  0
   43.5230   28.5070   43.0840 H   0  0  0  0  0  0  0  0  0  0  0  0
   43.6440   30.9420   42.9160 H   0  0  0  0  0  0  0  0  0  0  0  0
   41.4950   32.2110   42.6020 H   0  0  0  0  0  0  0  0  0  0  0  0
   36.4530   29.2270   38.9550 C   0  0  0  0  0  0  0  0  0  0  0  0
   36.9810   27.9610   38.6560 C   0  0  0  0  0  0  0  0  0  0  0  0
   38.0260   27.9520   37.7630 C   0  0  0  0  0  0  0  0  0  0  0  0
   38.4330   26.9830   37.5320 H   0  0  0  0  0  0  0  0  0  0  0  0
   38.4960   29.1240   37.2190 C   0  0  0  0  0  0  0  0  0  0  0  0
   39.3170   28.9900   36.5320 H   0  0  0  0  0  0  0  0  0  0  0  0
   37.9670   30.3550   37.5220 C   0  0  0  0  0  3  0  0  0  0  0  0
   36.9250   30.3970   38.4080 C   0  0  0  0  0  3  0  0  0  0  0  0
   35.4450   30.1190   41.0240 N   0  0  0  0  0  0  0  0  0  0  0  0
   35.3330   29.4950   39.8850 C   0  0  0  0  0  0  0  0  0  0  0  0
   33.9420   29.2820   40.0160 N   0  0  0  0  0  0  0  0  0  0  0  0
   36.3430   30.4920   41.3820 H   0  0  0  0  0  0  0  0  0  0  0  0
   33.5390   28.4320   40.4940 H   0  0  0  0  0  0  0  0  0  0  0  0
   33.1690   29.9070   39.6740 H   0  0  0  0  0  0  0  0  0  0  0  0
  1  7  1  6  0  0  0
  1  2  1  0  0  0  0
  1 21  1  0  0  0  0
  2  9  1  0  0  0  0
  2  8  1  0  0  0  0
  3 10  1  0  0  0  0
  3  2  1  0  0  0  0
  4 13  1  0  0  0  0
  4  3  1  0  0  0  0
  5  4  1  0  0  0  0
  5  6  1  0  0  0  0
  6 16  1  1  0  0  0
  6  1  1  0  0  0  0
 11  3  1  0  0  0  0
 12  4  1  0  0  0  0
 14  5  1  0  0  0  0
 15  5  1  0  0  0  0
 17 30  1  0  0  0  0
 17 18  1  0  0  0  0
 18 19  2  0  0  0  0
 18 23  1  0  0  0  0
 19 24  1  0  0  0  0
 20 25  1  0  0  0  0
 20 19  1  0  0  0  0
 21 22  1  0  0  0  0
 21 20  2  0  0  0  0
 22 17  2  0  0  0  0
 26 32  1  0  0  0  0
 27 33  1  0  0  0  0
 27 26  2  0  0  0  0
 28 27  1  0  0  0  0
 29 28  2  0  0  0  0
 29 30  1  0  0  0  0
 30 31  2  0  0  0  0
 31 26  1  0  0  0  0
 34 28  1  0  0  0  0
 35 44  1  0  0  0  0
 36 35  1  0  0  0  0
 36  6  1  0  0  0  0
 37 36  2  0  0  0  0
 38 37  1  0  0  0  0
 39 41  2  0  0  0  0
 39 37  1  0  0  0  0
 40 39  1  0  0  0  0
 41 42  1  0  0  0  0
 42 35  2  0  0  0  0
 43 46  1  0  0  0  0
 44 45  1  0  0  0  0
 44 43  2  0  0  0  0
 45 47  1  0  0  0  0
 48 45  1  0  0  0  0
M  END
>  <minimizedAffinity>
-6.52843666

$$$$

 OpenBabel03242514073D

 48 51  0  0  1  0  0  0  0  0999 V2000
   39.1010   28.5890   41.6990 C   0  0  1  0  0  0  0  0  0  0  0  0
   39.6240   28.2590   43.1170 C   0  0  0  0  0  0  0  0  0  0  0  0
   38.9610   26.9060   43.4450 C   0  0  0  0  0  0  0  0  0  0  0  0
   37.4900   27.2400   43.6790 C   0  0  0  0  0  0  0  0  0  0  0  0
   36.8790   27.7920   42.4530 C   0  0  0  0  0  0  0  0  0  0  0  0
   37.6550   28.8030   41.6780 C   0  0  2  0  0  0  0  0  0  0  0  0
   39.3850   27.6420   41.1460 H   0  0  0  0  0  0  0  0  0  0  0  0
   40.7060   28.1900   43.1610 H   0  0  0  0  0  0  0  0  0  0  0  0
   39.1900   29.0130   43.7990 H   0  0  0  0  0  0  0  0  0  0  0  0
   39.3890   26.5270   44.3740 H   0  0  0  0  0  0  0  0  0  0  0  0
   39.1000   26.2880   42.5540 H   0  0  0  0  0  0  0  0  0  0  0  0
   36.9410   26.3390   43.9760 H   0  0  0  0  0  0  0  0  0  0  0  0
   37.4700   28.0110   44.4790 H   0  0  0  0  0  0  0  0  0  0  0  0
   35.8490   28.1420   42.7050 H   0  0  0  0  0  0  0  0  0  0  0  0
   36.6900   26.9100   41.7720 H   0  0  0  0  0  0  0  0  0  0  0  0
   37.3840   29.8110   42.0580 H   0  0  0  0  0  0  0  0  0  0  0  0
   41.2030   30.4130   39.2990 C   0  0  0  0  0  0  0  0  0  0  0  0
   41.3030   31.6410   39.9110 C   0  0  0  0  0  0  0  0  0  0  0  0
   40.7200   31.9600   41.1160 C   0  0  0  0  0  0  0  0  0  0  0  0
   39.9910   30.9070   41.6890 C   0  0  0  0  0  0  0  0  0  0  0  0
   39.8780   29.6570   41.0760 C   0  0  0  0  0  0  0  0  0  0  0  0
   40.4850   29.4220   39.8880 N   0  0  0  0  0  0  0  0  0  0  0  0
   41.8910   32.3860   39.3840 H   0  0  0  0  0  0  0  0  0  0  0  0
   40.8210   32.9250   41.5610 H   0  0  0  0  0  0  0  0  0  0  0  0
   39.5620   31.1960   42.6340 H   0  0  0  0  0  0  0  0  0  0  0  0
   43.1180   30.8630   36.2150 C   0  0  0  0  0  0  0  0  0  0  0  0
   43.1500   29.6010   35.6430 C   0  0  0  0  0  0  0  0  0  0  0  0
   42.4980   28.5910   36.3430 C   0  0  0  0  0  0  0  0  0  0  0  0
   41.8760   28.8950   37.5300 N   0  0  0  0  0  0  0  0  0  0  0  0
   41.8830   30.1570   38.0340 C   0  0  0  0  0  0  0  0  0  0  0  0
   42.4920   31.1210   37.3880 N   0  0  0  0  0  0  0  0  0  0  0  0
   43.6280   31.6670   35.6700 H   0  0  0  0  0  0  0  0  0  0  0  0
   43.6550   29.4220   34.7060 H   0  0  0  0  0  0  0  0  0  0  0  0
   42.4800   27.5840   35.9620 H   0  0  0  0  0  0  0  0  0  0  0  0
   36.5250   29.8600   39.7570 C   0  0  0  0  0  0  0  0  0  0  0  0
   37.0980   28.6870   40.2760 C   0  0  0  0  0  0  0  0  0  0  0  0
   37.0730   27.5960   39.4400 C   0  0  0  0  0  0  0  0  0  0  0  0
   37.5110   26.6960   39.8340 H   0  0  0  0  0  0  0  0  0  0  0  0
   36.5170   27.6850   38.1860 C   0  0  0  0  0  0  0  0  0  0  0  0
   36.5560   26.7650   37.6230 H   0  0  0  0  0  0  0  0  0  0  0  0
   35.9600   28.8400   37.6930 C   0  0  0  0  0  3  0  0  0  0  0  0
   35.9690   29.9440   38.5020 C   0  0  0  0  0  3  0  0  0  0  0  0
   35.7000   31.3840   41.5140 N   0  0  0  0  0  0  0  0  0  0  0  0
   36.4350   31.1580   40.4610 C   0  0  0  0  0  0  0  0  0  0  0  0
   36.9400   32.4770   40.3990 N   0  0  0  0  0  0  0  0  0  0  0  0
   35.1070   30.6600   41.9590 H   0  0  0  0  0  0  0  0  0  0  0  0
   36.4550   33.2460   39.8650 H   0  0  0  0  0  0  0  0  0  0  0  0
   37.8170   32.8430   40.8500 H   0  0  0  0  0  0  0  0  0  0  0  0
  1  7  1  6  0  0  0
  1  2  1  0  0  0  0
  2  8  1  0  0  0  0
  2  3  1  0  0  0  0
  2  9  1  0  0  0  0
  3  4  1  0  0  0  0
  3 10  1  0  0  0  0
  4 12  1  0  0  0  0
  4 13  1  0  0  0  0
  5 14  1  0  0  0  0
  5  4  1  0  0  0  0
  6  1  1  0  0  0  0
  6 16  1  1  0  0  0
  6  5  1  0  0  0  0
 11  3  1  0  0  0  0
 15  5  1  0  0  0  0
 17 22  2  0  0  0  0
 17 18  1  0  0  0  0
 18 19  2  0  0  0  0
 19 24  1  0  0  0  0
 19 20  1  0  0  0  0
 20 25  1  0  0  0  0
 21 20  2  0  0  0  0
 21  1  1  0  0  0  0
 22 21  1  0  0  0  0
 23 18  1  0  0  0  0
 26 31  1  0  0  0  0
 27 26  2  0  0  0  0
 27 28  1  0  0  0  0
 28 29  2  0  0  0  0
 29 30  1  0  0  0  0
 30 17  1  0  0  0  0
 31 30  2  0  0  0  0
 32 26  1  0  0  0  0
 33 27  1  0  0  0  0
 34 28  1  0  0  0  0
 35 36  1  0  0  0  0
 35 44  1  0  0  0  0
 36  6  1  0  0  0  0
 37 38  1  0  0  0  0
 37 36  2  0  0  0  0
 39 37  1  0  0  0  0
 40 39  1  0  0  0  0
 41 39  2  0  0  0  0
 41 42  1  0  0  0  0
 42 35  2  0  0  0  0
 43 46  1  0  0  0  0
 44 43  2  0  0  0  0
 45 44  1  0  0  0  0
 45 48  1  0  0  0  0
 47 45  1  0  0  0  0
M  END
>  <minimizedAffinity>
-6.49670553

$$$$

 OpenBabel03242514073D

 48 51  0  0  1  0  0  0  0  0999 V2000
   38.8130   26.8110   39.9400 C   0  0  1  0  0  0  0  0  0  0  0  0
   39.8290   26.0370   40.8140 C   0  0  0  0  0  0  0  0  0  0  0  0
   39.0890   24.7300   41.1620 C   0  0  0  0  0  0  0  0  0  0  0  0
   38.0090   25.1470   42.1590 C   0  0  0  0  0  0  0  0  0  0  0  0
   37.0580   26.0880   41.5330 C   0  0  0  0  0  0  0  0  0  0  0  0
   37.6110   27.1830   40.6840 C   0  0  2  0  0  0  0  0  0  0  0  0
   38.5830   26.0320   39.1490 H   0  0  0  0  0  0  0  0  0  0  0  0
   40.7620   25.8380   40.2980 H   0  0  0  0  0  0  0  0  0  0  0  0
   39.9430   26.6110   41.7510 H   0  0  0  0  0  0  0  0  0  0  0  0
   39.7890   24.0590   41.6620 H   0  0  0  0  0  0  0  0  0  0  0  0
   38.6580   24.3760   40.2220 H   0  0  0  0  0  0  0  0  0  0  0  0
   37.4600   24.2660   42.5110 H   0  0  0  0  0  0  0  0  0  0  0  0
   38.5370   25.6580   42.9920 H   0  0  0  0  0  0  0  0  0  0  0  0
   36.3700   26.4650   42.3270 H   0  0  0  0  0  0  0  0  0  0  0  0
   36.3780   25.4610   40.8830 H   0  0  0  0  0  0  0  0  0  0  0  0
   37.7880   28.0660   41.3340 H   0  0  0  0  0  0  0  0  0  0  0  0
   39.9180   30.2050   39.0700 C   0  0  0  0  0  0  0  0  0  0  0  0
   40.6460   29.9650   37.9280 C   0  0  0  0  0  0  0  0  0  0  0  0
   40.8250   28.7210   37.3650 C   0  0  0  0  0  0  0  0  0  0  0  0
   40.1890   27.6860   38.0680 C   0  0  0  0  0  0  0  0  0  0  0  0
   39.4500   27.9170   39.2300 C   0  0  0  0  0  0  0  0  0  0  0  0
   39.3220   29.1730   39.7190 N   0  0  0  0  0  0  0  0  0  0  0  0
   41.0970   30.8360   37.4610 H   0  0  0  0  0  0  0  0  0  0  0  0
   41.3970   28.5740   36.4760 H   0  0  0  0  0  0  0  0  0  0  0  0
   40.3440   26.7340   37.5880 H   0  0  0  0  0  0  0  0  0  0  0  0
   38.7440   33.1120   40.9560 C   0  0  0  0  0  0  0  0  0  0  0  0
   39.5160   34.1610   40.4860 C   0  0  0  0  0  0  0  0  0  0  0  0
   40.4500   33.8470   39.5040 C   0  0  0  0  0  0  0  0  0  0  0  0
   40.5510   32.5480   39.0700 N   0  0  0  0  0  0  0  0  0  0  0  0
   39.7600   31.5640   39.5760 C   0  0  0  0  0  0  0  0  0  0  0  0
   38.8750   31.8430   40.5000 N   0  0  0  0  0  0  0  0  0  0  0  0
   38.0030   33.3500   41.7300 H   0  0  0  0  0  0  0  0  0  0  0  0
   39.3920   35.1640   40.8650 H   0  0  0  0  0  0  0  0  0  0  0  0
   41.0880   34.6100   39.0910 H   0  0  0  0  0  0  0  0  0  0  0  0
   35.8300   28.7530   40.0180 C   0  0  0  0  0  0  0  0  0  0  0  0
   36.4690   27.5300   39.7550 C   0  0  0  0  0  0  0  0  0  0  0  0
   35.9690   26.8180   38.6910 C   0  0  0  0  0  0  0  0  0  0  0  0
   36.4560   25.8810   38.4860 H   0  0  0  0  0  0  0  0  0  0  0  0
   34.9130   27.3020   37.9550 C   0  0  0  0  0  0  0  0  0  0  0  0
   34.6090   26.6560   37.1470 H   0  0  0  0  0  0  0  0  0  0  0  0
   34.2980   28.5010   38.2260 C   0  0  0  0  0  3  0  0  0  0  0  0
   34.7730   29.2330   39.2810 C   0  0  0  0  0  3  0  0  0  0  0  0
   35.7180   30.9050   41.2200 N   0  0  0  0  0  0  0  0  0  0  0  0
   36.1870   29.6940   41.1020 C   0  0  0  0  0  0  0  0  0  0  0  0
   36.9940   29.7790   42.2590 N   0  0  0  0  0  0  0  0  0  0  0  0
   35.0400   31.3200   40.5550 H   0  0  0  0  0  0  0  0  0  0  0  0
   37.9850   30.1390   42.2360 H   0  0  0  0  0  0  0  0  0  0  0  0
   36.7280   29.5090   43.2400 H   0  0  0  0  0  0  0  0  0  0  0  0
  1  7  1  6  0  0  0
  1  6  1  0  0  0  0
  1  2  1  0  0  0  0
  2  3  1  0  0  0  0
  2  9  1  0  0  0  0
  3 10  1  0  0  0  0
  3  4  1  0  0  0  0
  4 12  1  0  0  0  0
  4 13  1  0  0  0  0
  5  4  1  0  0  0  0
  5 14  1  0  0  0  0
  6 16  1  1  0  0  0
  6  5  1  0  0  0  0
  8  2  1  0  0  0  0
 11  3  1  0  0  0  0
 15  5  1  0  0  0  0
 17 30  1  0  0  0  0
 17 22  1  0  0  0  0
 18 17  2  0  0  0  0
 19 18  1  0  0  0  0
 19 20  2  0  0  0  0
 20 21  1  0  0  0  0
 21 22  2  0  0  0  0
 21  1  1  0  0  0  0
 23 18  1  0  0  0  0
 24 19  1  0  0  0  0
 25 20  1  0  0  0  0
 26 32  1  0  0  0  0
 27 33  1  0  0  0  0
 27 26  2  0  0  0  0
 28 27  1  0  0  0  0
 29 28  2  0  0  0  0
 29 30  1  0  0  0  0
 30 31  2  0  0  0  0
 31 26  1  0  0  0  0
 34 28  1  0  0  0  0
 35 44  1  0  0  0  0
 36 35  1  0  0  0  0
 36  6  1  0  0  0  0
 37 36  2  0  0  0  0
 38 37  1  0  0  0  0
 39 41  2  0  0  0  0
 39 37  1  0  0  0  0
 40 39  1  0  0  0  0
 41 42  1  0  0  0  0
 42 35  2  0  0  0  0
 44 43  2  0  0  0  0
 44 45  1  0  0  0  0
 45 48  1  0  0  0  0
 46 43  1  0  0  0  0
 47 45  1  0  0  0  0
M  END
>  <minimizedAffinity>
-6.41677475

$$$$

 OpenBabel03242514073D

 48 51  0  0  1  0  0  0  0  0999 V2000
   38.8820   27.6380   40.9370 C   0  0  1  0  0  0  0  0  0  0  0  0
   39.2080   26.6910   42.1160 C   0  0  0  0  0  0  0  0  0  0  0  0
   38.9990   25.2830   41.5230 C   0  0  0  0  0  0  0  0  0  0  0  0
   37.4860   25.1470   41.3670 C   0  0  0  0  0  0  0  0  0  0  0  0
   36.9670   26.1530   40.4180 C   0  0  0  0  0  0  0  0  0  0  0  0
   37.4820   27.5490   40.5250 C   0  0  2  0  0  0  0  0  0  0  0  0
   39.5730   27.2230   40.1400 H   0  0  0  0  0  0  0  0  0  0  0  0
   40.2190   26.8160   42.4900 H   0  0  0  0  0  0  0  0  0  0  0  0
   38.4220   26.8490   42.8760 H   0  0  0  0  0  0  0  0  0  0  0  0
   39.3460   24.5470   42.2490 H   0  0  0  0  0  0  0  0  0  0  0  0
   39.5070   25.2940   40.5550 H   0  0  0  0  0  0  0  0  0  0  0  0
   37.2330   24.1460   40.9990 H   0  0  0  0  0  0  0  0  0  0  0  0
   37.0520   25.3330   42.3730 H   0  0  0  0  0  0  0  0  0  0  0  0
   35.8520   26.1040   40.4350 H   0  0  0  0  0  0  0  0  0  0  0  0
   37.2240   25.7720   39.3850 H   0  0  0  0  0  0  0  0  0  0  0  0
   36.8160   28.1100   41.2150 H   0  0  0  0  0  0  0  0  0  0  0  0
   40.3250   30.9760   40.4120 C   0  0  0  0  0  0  0  0  0  0  0  0
   40.2010   31.5220   41.6680 C   0  0  0  0  0  0  0  0  0  0  0  0
   39.6610   30.8660   42.7520 C   0  0  0  0  0  0  0  0  0  0  0  0
   39.2330   29.5610   42.4680 C   0  0  0  0  0  0  0  0  0  0  0  0
   39.3500   28.9970   41.1960 C   0  0  0  0  0  0  0  0  0  0  0  0
   39.8950   29.7100   40.1810 N   0  0  0  0  0  0  0  0  0  0  0  0
   40.5630   32.5390   41.7820 H   0  0  0  0  0  0  0  0  0  0  0  0
   39.5820   31.3230   43.7130 H   0  0  0  0  0  0  0  0  0  0  0  0
   38.8290   29.0810   43.3440 H   0  0  0  0  0  0  0  0  0  0  0  0
   41.6070   33.7330   38.3790 C   0  0  0  0  0  0  0  0  0  0  0  0
   42.1140   33.1180   37.2460 C   0  0  0  0  0  0  0  0  0  0  0  0
   42.0050   31.7320   37.1960 C   0  0  0  0  0  0  0  0  0  0  0  0
   41.4160   31.0710   38.2470 N   0  0  0  0  0  0  0  0  0  0  0  0
   40.9390   31.7390   39.3300 C   0  0  0  0  0  0  0  0  0  0  0  0
   41.0330   33.0440   39.3930 N   0  0  0  0  0  0  0  0  0  0  0  0
   41.6870   34.8270   38.4260 H   0  0  0  0  0  0  0  0  0  0  0  0
   42.5670   33.6910   36.4500 H   0  0  0  0  0  0  0  0  0  0  0  0
   42.3770   31.1840   36.3480 H   0  0  0  0  0  0  0  0  0  0  0  0
   36.3730   29.1900   39.0560 C   0  0  0  0  0  0  0  0  0  0  0  0
   37.2750   28.1170   39.1380 C   0  0  0  0  0  0  0  0  0  0  0  0
   37.8450   27.7310   37.9490 C   0  0  0  0  0  0  0  0  0  0  0  0
   38.5370   26.9090   38.0080 H   0  0  0  0  0  0  0  0  0  0  0  0
   37.5290   28.3760   36.7760 C   0  0  0  0  0  0  0  0  0  0  0  0
   38.0380   27.9840   35.9090 H   0  0  0  0  0  0  0  0  0  0  0  0
   36.6430   29.4240   36.7130 C   0  0  0  0  0  3  0  0  0  0  0  0
   36.0590   29.8320   37.8820 C   0  0  0  0  0  3  0  0  0  0  0  0
   34.4690   29.3900   40.6140 N   0  0  0  0  0  0  0  0  0  0  0  0
   35.6380   29.7860   40.1940 C   0  0  0  0  0  0  0  0  0  0  0  0
   35.7580   30.8090   41.1620 N   0  0  0  0  0  0  0  0  0  0  0  0
   33.9440   28.6080   40.1820 H   0  0  0  0  0  0  0  0  0  0  0  0
   35.3970   31.7870   41.0040 H   0  0  0  0  0  0  0  0  0  0  0  0
   36.1990   30.7330   42.1140 H   0  0  0  0  0  0  0  0  0  0  0  0
  1  7  1  6  0  0  0
  1 21  1  0  0  0  0
  1  2  1  0  0  0  0
  2  8  1  0  0  0  0
  2  9  1  0  0  0  0
  3  2  1  0  0  0  0
  3 10  1  0  0  0  0
  4  3  1  0  0  0  0
  4 13  1  0  0  0  0
  5 14  1  0  0  0  0
  5  6  1  0  0  0  0
  5  4  1  0  0  0  0
  6  1  1  0  0  0  0
  6 16  1  1  0  0  0
 11  3  1  0  0  0  0
 12  4  1  0  0  0  0
 15  5  1  0  0  0  0
 17 18  1  0  0  0  0
 18 23  1  0  0  0  0
 18 19  2  0  0  0  0
 19 24  1  0  0  0  0
 20 19  1  0  0  0  0
 20 25  1  0  0  0  0
 21 20  2  0  0  0  0
 22 17  2  0  0  0  0
 22 21  1  0  0  0  0
 26 32  1  0  0  0  0
 26 31  1  0  0  0  0
 27 26  2  0  0  0  0
 28 27  1  0  0  0  0
 28 29  2  0  0  0  0
 29 30  1  0  0  0  0
 30 31  2  0  0  0  0
 30 17  1  0  0  0  0
 33 27  1  0  0  0  0
 34 28  1  0  0  0  0
 35 36  1  0  0  0  0
 35 44  1  0  0  0  0
 36  6  1  0  0  0  0
 37 38  1  0  0  0  0
 37 36  2  0  0  0  0
 39 37  1  0  0  0  0
 40 39  1  0  0  0  0
 41 39  2  0  0  0  0
 41 42  1  0  0  0  0
 42 35  2  0  0  0  0
 44 43  2  0  0  0  0
 44 45  1  0  0  0  0
 45 48  1  0  0  0  0
 46 43  1  0  0  0  0
 47 45  1  0  0  0  0
M  END
>  <minimizedAffinity>
-6.2554369

$$$$

 OpenBabel03242514073D

 48 51  0  0  1  0  0  0  0  0999 V2000
   39.3510   30.1480   39.5480 C   0  0  1  0  0  0  0  0  0  0  0  0
   40.0150   31.2480   38.6860 C   0  0  0  0  0  0  0  0  0  0  0  0
   41.3290   31.5540   39.4330 C   0  0  0  0  0  0  0  0  0  0  0  0
   40.8960   32.3030   40.6920 C   0  0  0  0  0  0  0  0  0  0  0  0
   40.0440   31.4460   41.5410 C   0  0  0  0  0  0  0  0  0  0  0  0
   38.9850   30.6320   40.8780 C   0  0  2  0  0  0  0  0  0  0  0  0
   40.1910   29.3900   39.6020 H   0  0  0  0  0  0  0  0  0  0  0  0
   40.2060   30.9270   37.6670 H   0  0  0  0  0  0  0  0  0  0  0  0
   39.3740   32.1450   38.7660 H   0  0  0  0  0  0  0  0  0  0  0  0
   41.9310   32.2210   38.8160 H   0  0  0  0  0  0  0  0  0  0  0  0
   41.7650   30.5800   39.6710 H   0  0  0  0  0  0  0  0  0  0  0  0
   41.7740   32.6150   41.2670 H   0  0  0  0  0  0  0  0  0  0  0  0
   40.3050   33.1780   40.3440 H   0  0  0  0  0  0  0  0  0  0  0  0
   39.6460   32.0710   42.3770 H   0  0  0  0  0  0  0  0  0  0  0  0
   40.7450   30.7320   42.0690 H   0  0  0  0  0  0  0  0  0  0  0  0
   38.0530   31.2350   40.8530 H   0  0  0  0  0  0  0  0  0  0  0  0
   37.1290   27.5180   38.2650 C   0  0  0  0  0  0  0  0  0  0  0  0
   36.2490   28.2560   37.5090 C   0  0  0  0  0  0  0  0  0  0  0  0
   36.3100   29.6230   37.3570 C   0  0  0  0  0  0  0  0  0  0  0  0
   37.3690   30.2240   38.0540 C   0  0  0  0  0  0  0  0  0  0  0  0
   38.2670   29.4850   38.8270 C   0  0  0  0  0  0  0  0  0  0  0  0
   38.1390   28.1400   38.9250 N   0  0  0  0  0  0  0  0  0  0  0  0
   35.4650   27.6940   37.0100 H   0  0  0  0  0  0  0  0  0  0  0  0
   35.6080   30.1620   36.7600 H   0  0  0  0  0  0  0  0  0  0  0  0
   37.3870   31.2890   37.8980 H   0  0  0  0  0  0  0  0  0  0  0  0
   37.3140   23.9520   37.4700 C   0  0  0  0  0  0  0  0  0  0  0  0
   36.7280   23.3260   38.5590 C   0  0  0  0  0  0  0  0  0  0  0  0
   36.2680   24.1590   39.5740 C   0  0  0  0  0  0  0  0  0  0  0  0
   36.4170   25.5180   39.4410 N   0  0  0  0  0  0  0  0  0  0  0  0
   37.0020   26.0670   38.3430 C   0  0  0  0  0  0  0  0  0  0  0  0
   37.4410   25.2970   37.3780 N   0  0  0  0  0  0  0  0  0  0  0  0
   37.6780   23.3030   36.6630 H   0  0  0  0  0  0  0  0  0  0  0  0
   36.6380   22.2510   38.6080 H   0  0  0  0  0  0  0  0  0  0  0  0
   35.8030   23.7460   40.4520 H   0  0  0  0  0  0  0  0  0  0  0  0
   37.4090   29.1820   42.1010 C   0  0  0  0  0  0  0  0  0  0  0  0
   38.7550   29.4870   41.8400 C   0  0  0  0  0  0  0  0  0  0  0  0
   39.6760   28.7040   42.4940 C   0  0  0  0  0  0  0  0  0  0  0  0
   40.7090   28.9350   42.2950 H   0  0  0  0  0  0  0  0  0  0  0  0
   39.2710   27.6990   43.3390 C   0  0  0  0  0  0  0  0  0  0  0  0
   40.0840   27.1540   43.7940 H   0  0  0  0  0  0  0  0  0  0  0  0
   37.9490   27.4140   43.5850 C   0  0  0  0  0  3  0  0  0  0  0  0
   37.0070   28.1770   42.9480 C   0  0  0  0  0  3  0  0  0  0  0  0
   35.2370   29.2840   40.9350 N   0  0  0  0  0  0  0  0  0  0  0  0
   36.2410   29.8770   41.5180 C   0  0  0  0  0  0  0  0  0  0  0  0
   35.7230   31.1780   41.3240 N   0  0  0  0  0  0  0  0  0  0  0  0
   35.1670   28.2550   40.8300 H   0  0  0  0  0  0  0  0  0  0  0  0
   35.9210   31.7460   40.4580 H   0  0  0  0  0  0  0  0  0  0  0  0
   35.1060   31.7210   41.9810 H   0  0  0  0  0  0  0  0  0  0  0  0
  1  7  1  1  0  0  0
  1  6  1  0  0  0  0
  2  9  1  0  0  0  0
  2  3  1  0  0  0  0
  2  1  1  0  0  0  0
  3 11  1  0  0  0  0
  3  4  1  0  0  0  0
  4 12  1  0  0  0  0
  4  5  1  0  0  0  0
  5 15  1  0  0  0  0
  5 14  1  0  0  0  0
  6 16  1  6  0  0  0
  6  5  1  0  0  0  0
  6 36  1  0  0  0  0
  8  2  1  0  0  0  0
 10  3  1  0  0  0  0
 13  4  1  0  0  0  0
 17 30  1  0  0  0  0
 17 22  1  0  0  0  0
 18 17  2  0  0  0  0
 19 18  1  0  0  0  0
 19 20  2  0  0  0  0
 20 21  1  0  0  0  0
 21 22  2  0  0  0  0
 21  1  1  0  0  0  0
 23 18  1  0  0  0  0
 24 19  1  0  0  0  0
 25 20  1  0  0  0  0
 26 27  1  0  0  0  0
 27 33  1  0  0  0  0
 27 28  2  0  0  0  0
 28 34  1  0  0  0  0
 29 28  1  0  0  0  0
 30 29  2  0  0  0  0
 31 26  2  0  0  0  0
 31 30  1  0  0  0  0
 32 26  1  0  0  0  0
 35 42  1  0  0  0  0
 36 35  2  0  0  0  0
 36 37  1  0  0  0  0
 37 39  2  0  0  0  0
 38 37  1  0  0  0  0
 39 41  1  0  0  0  0
 39 40  1  0  0  0  0
 42 41  2  0  0  0  0
 43 44  2  0  0  0  0
 44 35  1  0  0  0  0
 45 44  1  0  0  0  0
 45 48  1  0  0  0  0
 46 43  1  0  0  0  0
 47 45  1  0  0  0  0
M  END
>  <minimizedAffinity>
-6.10661459

$$$$

 OpenBabel03242514073D

 48 51  0  0  1  0  0  0  0  0999 V2000
   36.3400   29.3700   39.1180 C   0  0  1  0  0  0  0  0  0  0  0  0
   35.6400   29.3390   37.7390 C   0  0  0  0  0  0  0  0  0  0  0  0
   34.5410   28.2710   37.9120 C   0  0  0  0  0  0  0  0  0  0  0  0
   35.2910   26.9420   37.9600 C   0  0  0  0  0  0  0  0  0  0  0  0
   36.1970   26.8970   39.1260 C   0  0  0  0  0  0  0  0  0  0  0  0
   37.0110   28.1100   39.4290 C   0  0  2  0  0  0  0  0  0  0  0  0
   35.4510   29.5430   39.8000 H   0  0  0  0  0  0  0  0  0  0  0  0
   35.2190   30.2980   37.4580 H   0  0  0  0  0  0  0  0  0  0  0  0
   36.3770   28.9390   37.0190 H   0  0  0  0  0  0  0  0  0  0  0  0
   33.9030   28.2840   37.0280 H   0  0  0  0  0  0  0  0  0  0  0  0
   34.0590   28.4990   38.8670 H   0  0  0  0  0  0  0  0  0  0  0  0
   34.5820   26.1100   38.0270 H   0  0  0  0  0  0  0  0  0  0  0  0
   35.8920   26.8920   37.0260 H   0  0  0  0  0  0  0  0  0  0  0  0
   36.8170   25.9720   39.0480 H   0  0  0  0  0  0  0  0  0  0  0  0
   35.5420   26.6910   40.0240 H   0  0  0  0  0  0  0  0  0  0  0  0
   37.9790   28.0170   38.8930 H   0  0  0  0  0  0  0  0  0  0  0  0
   39.1640   31.6930   38.7510 C   0  0  0  0  0  0  0  0  0  0  0  0
   38.7380   32.7550   39.5150 C   0  0  0  0  0  0  0  0  0  0  0  0
   37.5410   32.7950   40.1940 C   0  0  0  0  0  0  0  0  0  0  0  0
   36.7630   31.6370   40.0400 C   0  0  0  0  0  0  0  0  0  0  0  0
   37.1830   30.5540   39.2640 C   0  0  0  0  0  0  0  0  0  0  0  0
   38.3790   30.5930   38.6280 N   0  0  0  0  0  0  0  0  0  0  0  0
   39.4150   33.6020   39.5690 H   0  0  0  0  0  0  0  0  0  0  0  0
   37.2450   33.6370   40.7790 H   0  0  0  0  0  0  0  0  0  0  0  0
   35.8430   31.7050   40.5950 H   0  0  0  0  0  0  0  0  0  0  0  0
   42.2620   32.8810   37.2100 C   0  0  0  0  0  0  0  0  0  0  0  0
   42.9280   31.7230   36.8430 C   0  0  0  0  0  0  0  0  0  0  0  0
   42.2880   30.5240   37.1370 C   0  0  0  0  0  0  0  0  0  0  0  0
   41.0640   30.5560   37.7600 N   0  0  0  0  0  0  0  0  0  0  0  0
   40.4650   31.7300   38.0920 C   0  0  0  0  0  0  0  0  0  0  0  0
   41.0540   32.8690   37.8220 N   0  0  0  0  0  0  0  0  0  0  0  0
   42.7580   33.8320   36.9800 H   0  0  0  0  0  0  0  0  0  0  0  0
   43.8910   31.7600   36.3550 H   0  0  0  0  0  0  0  0  0  0  0  0
   42.7450   29.5830   36.8830 H   0  0  0  0  0  0  0  0  0  0  0  0
   38.6610   28.0490   41.2610 C   0  0  0  0  0  0  0  0  0  0  0  0
   37.3030   27.9870   40.9090 C   0  0  0  0  0  0  0  0  0  0  0  0
   36.4270   27.8220   41.9550 C   0  0  0  0  0  0  0  0  0  0  0  0
   35.3860   27.7740   41.6880 H   0  0  0  0  0  0  0  0  0  0  0  0
   36.8860   27.7300   43.2480 C   0  0  0  0  0  0  0  0  0  0  0  0
   36.1060   27.6020   43.9820 H   0  0  0  0  0  0  0  0  0  0  0  0
   38.2190   27.7920   43.5760 C   0  0  0  0  0  3  0  0  0  0  0  0
   39.1160   27.9550   42.5550 C   0  0  0  0  0  3  0  0  0  0  0  0
   40.7940   29.0320   40.5030 N   0  0  0  0  0  0  0  0  0  0  0  0
   39.7870   28.2240   40.3180 C   0  0  0  0  0  0  0  0  0  0  0  0
   40.2540   27.7580   39.0680 N   0  0  0  0  0  0  0  0  0  0  0  0
   40.8960   29.6300   41.3430 H   0  0  0  0  0  0  0  0  0  0  0  0
   40.0110   28.2300   38.1580 H   0  0  0  0  0  0  0  0  0  0  0  0
   40.8700   26.9240   38.8920 H   0  0  0  0  0  0  0  0  0  0  0  0
  1 21  1  0  0  0  0
  1  6  1  0  0  0  0
  1  7  1  1  0  0  0
  2  3  1  0  0  0  0
  2  1  1  0  0  0  0
  3  4  1  0  0  0  0
  3 11  1  0  0  0  0
  4 12  1  0  0  0  0
  4  5  1  0  0  0  0
  5  6  1  0  0  0  0
  5 15  1  0  0  0  0
  6 16  1  6  0  0  0
  6 36  1  0  0  0  0
  8  2  1  0  0  0  0
  9  2  1  0  0  0  0
 10  3  1  0  0  0  0
 13  4  1  0  0  0  0
 14  5  1  0  0  0  0
 17 18  1  0  0  0  0
 18 23  1  0  0  0  0
 18 19  2  0  0  0  0
 19 24  1  0  0  0  0
 20 19  1  0  0  0  0
 20 25  1  0  0  0  0
 21 20  2  0  0  0  0
 22 17  2  0  0  0  0
 22 21  1  0  0  0  0
 26 31  1  0  0  0  0
 27 28  1  0  0  0  0
 27 26  2  0  0  0  0
 28 29  2  0  0  0  0
 29 30  1  0  0  0  0
 30 17  1  0  0  0  0
 31 30  2  0  0  0  0
 32 26  1  0  0  0  0
 33 27  1  0  0  0  0
 34 28  1  0  0  0  0
 35 42  1  0  0  0  0
 36 35  2  0  0  0  0
 36 37  1  0  0  0  0
 37 39  2  0  0  0  0
 38 37  1  0  0  0  0
 39 41  1  0  0  0  0
 39 40  1  0  0  0  0
 42 41  2  0  0  0  0
 43 46  1  0  0  0  0
 44 43  2  0  0  0  0
 44 35  1  0  0  0  0
 45 44  1  0  0  0  0
 47 45  1  0  0  0  0
 48 45  1  0  0  0  0
M  END
>  <minimizedAffinity>
-6.09640026

$$$$

 OpenBabel03242514073D

 48 51  0  0  1  0  0  0  0  0999 V2000
   38.9220   31.3690   40.0250 C   0  0  1  0  0  0  0  0  0  0  0  0
   39.8550   32.5780   40.2720 C   0  0  0  0  0  0  0  0  0  0  0  0
   38.9350   33.6170   40.9440 C   0  0  0  0  0  0  0  0  0  0  0  0
   38.0130   34.1020   39.8270 C   0  0  0  0  0  0  0  0  0  0  0  0
   37.1900   32.9900   39.3110 C   0  0  0  0  0  0  0  0  0  0  0  0
   37.8550   31.6760   39.0750 C   0  0  2  0  0  0  0  0  0  0  0  0
   38.5100   31.2070   41.0690 H   0  0  0  0  0  0  0  0  0  0  0  0
   40.7020   32.3350   40.9030 H   0  0  0  0  0  0  0  0  0  0  0  0
   40.1290   32.9750   39.2780 H   0  0  0  0  0  0  0  0  0  0  0  0
   39.5470   34.4540   41.2830 H   0  0  0  0  0  0  0  0  0  0  0  0
   38.3850   33.0690   41.7140 H   0  0  0  0  0  0  0  0  0  0  0  0
   37.3510   34.8930   40.2000 H   0  0  0  0  0  0  0  0  0  0  0  0
   38.6760   34.4740   39.0170 H   0  0  0  0  0  0  0  0  0  0  0  0
   36.6320   33.3570   38.4170 H   0  0  0  0  0  0  0  0  0  0  0  0
   36.3700   32.8260   40.0730 H   0  0  0  0  0  0  0  0  0  0  0  0
   38.2220   31.6600   38.0270 H   0  0  0  0  0  0  0  0  0  0  0  0
   40.3730   28.0040   40.3010 C   0  0  0  0  0  0  0  0  0  0  0  0
   41.0740   27.9170   39.1210 C   0  0  0  0  0  0  0  0  0  0  0  0
   41.1330   28.9170   38.1750 C   0  0  0  0  0  0  0  0  0  0  0  0
   40.4010   30.0640   38.5170 C   0  0  0  0  0  0  0  0  0  0  0  0
   39.6820   30.1620   39.7100 C   0  0  0  0  0  0  0  0  0  0  0  0
   39.6760   29.1320   40.5900 N   0  0  0  0  0  0  0  0  0  0  0  0
   41.6070   26.9870   38.9530 H   0  0  0  0  0  0  0  0  0  0  0  0
   41.6890   28.8130   37.2710 H   0  0  0  0  0  0  0  0  0  0  0  0
   40.4840   30.8230   37.7580 H   0  0  0  0  0  0  0  0  0  0  0  0
   41.4610   25.1430   42.3050 C   0  0  0  0  0  0  0  0  0  0  0  0
   40.3600   24.8330   43.0870 C   0  0  0  0  0  0  0  0  0  0  0  0
   39.2350   25.6300   42.9100 C   0  0  0  0  0  0  0  0  0  0  0  0
   39.2780   26.6530   41.9930 N   0  0  0  0  0  0  0  0  0  0  0  0
   40.3930   26.9020   41.2570 C   0  0  0  0  0  0  0  0  0  0  0  0
   41.4620   26.1610   41.4110 N   0  0  0  0  0  0  0  0  0  0  0  0
   42.3540   24.5190   42.4360 H   0  0  0  0  0  0  0  0  0  0  0  0
   40.3850   24.0160   43.7920 H   0  0  0  0  0  0  0  0  0  0  0  0
   38.3410   25.4510   43.4830 H   0  0  0  0  0  0  0  0  0  0  0  0
   36.4080   30.0090   37.9750 C   0  0  0  0  0  0  0  0  0  0  0  0
   36.7230   30.6770   39.1700 C   0  0  0  0  0  0  0  0  0  0  0  0
   35.9600   30.3300   40.2600 C   0  0  0  0  0  0  0  0  0  0  0  0
   36.2000   30.8400   41.1770 H   0  0  0  0  0  0  0  0  0  0  0  0
   34.9650   29.3890   40.1500 C   0  0  0  0  0  0  0  0  0  0  0  0
   34.4350   29.2020   41.0710 H   0  0  0  0  0  0  0  0  0  0  0  0
   34.6680   28.7460   38.9730 C   0  0  0  0  0  3  0  0  0  0  0  0
   35.4100   29.0690   37.8690 C   0  0  0  0  0  3  0  0  0  0  0  0
   37.7500   29.2860   36.0350 N   0  0  0  0  0  0  0  0  0  0  0  0
   37.0850   30.2070   36.6750 C   0  0  0  0  0  0  0  0  0  0  0  0
   37.3210   31.2040   35.7010 N   0  0  0  0  0  0  0  0  0  0  0  0
   37.8620   28.3170   36.3850 H   0  0  0  0  0  0  0  0  0  0  0  0
   38.1670   31.8330   35.7240 H   0  0  0  0  0  0  0  0  0  0  0  0
   36.7170   31.4380   34.8720 H   0  0  0  0  0  0  0  0  0  0  0  0
  1  2  1  0  0  0  0
  1  7  1  1  0  0  0
  2  8  1  0  0  0  0
  2  3  1  0  0  0  0
  3 10  1  0  0  0  0
  3 11  1  0  0  0  0
  4 12  1  0  0  0  0
  4  3  1  0  0  0  0
  5  4  1  0  0  0  0
  5 15  1  0  0  0  0
  6 16  1  6  0  0  0
  6 36  1  0  0  0  0
  6  5  1  0  0  0  0
  6  1  1  0  0  0  0
  9  2  1  0  0  0  0
 13  4  1  0  0  0  0
 14  5  1  0  0  0  0
 17 22  1  0  0  0  0
 17 30  1  0  0  0  0
 18 17  2  0  0  0  0
 19 20  2  0  0  0  0
 19 18  1  0  0  0  0
 20 21  1  0  0  0  0
 21  1  1  0  0  0  0
 21 22  2  0  0  0  0
 23 18  1  0  0  0  0
 24 19  1  0  0  0  0
 25 20  1  0  0  0  0
 26 32  1  0  0  0  0
 26 27  1  0  0  0  0
 27 33  1  0  0  0  0
 28 27  2  0  0  0  0
 28 34  1  0  0  0  0
 29 28  1  0  0  0  0
 30 31  1  0  0  0  0
 30 29  2  0  0  0  0
 31 26  2  0  0  0  0
 35 36  1  0  0  0  0
 36 37  2  0  0  0  0
 37 38  1  0  0  0  0
 39 37  1  0  0  0  0
 39 40  1  0  0  0  0
 41 39  2  0  0  0  0
 42 35  2  0  0  0  0
 42 41  1  0  0  0  0
 43 46  1  0  0  0  0
 43 44  2  0  0  0  0
 44 35  1  0  0  0  0
 45 47  1  0  0  0  0
 45 44  1  0  0  0  0
 48 45  1  0  0  0  0
M  END
>  <minimizedAffinity>
-6.07999325

$$$$

 OpenBabel03242514073D

 48 51  0  0  1  0  0  0  0  0999 V2000
   36.1720   28.8250   38.0050 C   0  0  1  0  0  0  0  0  0  0  0  0
   34.6700   29.0890   37.7410 C   0  0  0  0  0  0  0  0  0  0  0  0
   34.4140   28.4090   36.3810 C   0  0  0  0  0  0  0  0  0  0  0  0
   35.1150   29.3020   35.3600 C   0  0  0  0  0  0  0  0  0  0  0  0
   36.5700   29.3410   35.6140 C   0  0  0  0  0  0  0  0  0  0  0  0
   37.0310   29.4870   37.0250 C   0  0  2  0  0  0  0  0  0  0  0  0
   36.2080   27.6980   37.8910 H   0  0  0  0  0  0  0  0  0  0  0  0
   34.0290   28.6810   38.5140 H   0  0  0  0  0  0  0  0  0  0  0  0
   34.5610   30.1780   37.5900 H   0  0  0  0  0  0  0  0  0  0  0  0
   33.3410   28.4230   36.1840 H   0  0  0  0  0  0  0  0  0  0  0  0
   34.8860   27.4250   36.4510 H   0  0  0  0  0  0  0  0  0  0  0  0
   34.9410   28.9250   34.3460 H   0  0  0  0  0  0  0  0  0  0  0  0
   34.6910   30.3200   35.4950 H   0  0  0  0  0  0  0  0  0  0  0  0
   37.0210   30.1020   34.9330 H   0  0  0  0  0  0  0  0  0  0  0  0
   36.9840   28.3660   35.2180 H   0  0  0  0  0  0  0  0  0  0  0  0
   37.1410   30.5710   37.2410 H   0  0  0  0  0  0  0  0  0  0  0  0
   37.6190   28.4340   41.3590 C   0  0  0  0  0  0  0  0  0  0  0  0
   37.2000   29.5940   41.9690 C   0  0  0  0  0  0  0  0  0  0  0  0
   36.4320   30.5610   41.3580 C   0  0  0  0  0  0  0  0  0  0  0  0
   36.1030   30.2650   40.0270 C   0  0  0  0  0  0  0  0  0  0  0  0
   36.5260   29.0920   39.3960 C   0  0  0  0  0  0  0  0  0  0  0  0
   37.2790   28.1890   40.0690 N   0  0  0  0  0  0  0  0  0  0  0  0
   37.5090   29.7260   43.0010 H   0  0  0  0  0  0  0  0  0  0  0  0
   36.1250   31.4480   41.8650 H   0  0  0  0  0  0  0  0  0  0  0  0
   35.4940   31.0390   39.5920 H   0  0  0  0  0  0  0  0  0  0  0  0
   40.0060   26.8990   43.6670 C   0  0  0  0  0  0  0  0  0  0  0  0
   39.8590   25.5370   43.4590 C   0  0  0  0  0  0  0  0  0  0  0  0
   38.9190   25.1580   42.5060 C   0  0  0  0  0  0  0  0  0  0  0  0
   38.2090   26.1310   41.8440 N   0  0  0  0  0  0  0  0  0  0  0  0
   38.4050   27.4520   42.0980 C   0  0  0  0  0  0  0  0  0  0  0  0
   39.2870   27.8260   42.9920 N   0  0  0  0  0  0  0  0  0  0  0  0
   40.7470   27.2080   44.4160 H   0  0  0  0  0  0  0  0  0  0  0  0
   40.4450   24.8180   44.0100 H   0  0  0  0  0  0  0  0  0  0  0  0
   38.7470   24.1180   42.2900 H   0  0  0  0  0  0  0  0  0  0  0  0
   39.4570   29.7660   37.3710 C   0  0  0  0  0  0  0  0  0  0  0  0
   38.4210   28.8880   37.0130 C   0  0  0  0  0  0  0  0  0  0  0  0
   38.8120   27.6080   36.7020 C   0  0  0  0  0  0  0  0  0  0  0  0
   38.0200   26.9330   36.4270 H   0  0  0  0  0  0  0  0  0  0  0  0
   40.1370   27.2470   36.7480 C   0  0  0  0  0  0  0  0  0  0  0  0
   40.3210   26.2170   36.4830 H   0  0  0  0  0  0  0  0  0  0  0  0
   41.1400   28.1180   37.1000 C   0  0  0  0  0  3  0  0  0  0  0  0
   40.7820   29.4020   37.4150 C   0  0  0  0  0  3  0  0  0  0  0  0
   39.4040   32.1940   36.9290 N   0  0  0  0  0  0  0  0  0  0  0  0
   39.2890   31.1870   37.7490 C   0  0  0  0  0  0  0  0  0  0  0  0
   39.0020   31.9970   38.8720 N   0  0  0  0  0  0  0  0  0  0  0  0
   39.6240   32.0850   35.9210 H   0  0  0  0  0  0  0  0  0  0  0  0
   39.7550   32.3890   39.4970 H   0  0  0  0  0  0  0  0  0  0  0  0
   38.0540   32.2970   39.2120 H   0  0  0  0  0  0  0  0  0  0  0  0
  1  7  1  6  0  0  0
  1 21  1  0  0  0  0
  2  1  1  0  0  0  0
  2  8  1  0  0  0  0
  3 11  1  0  0  0  0
  3  2  1  0  0  0  0
  4 13  1  0  0  0  0
  4  5  1  0  0  0  0
  4  3  1  0  0  0  0
  5  6  1  0  0  0  0
  6 16  1  1  0  0  0
  6  1  1  0  0  0  0
  9  2  1  0  0  0  0
 10  3  1  0  0  0  0
 12  4  1  0  0  0  0
 14  5  1  0  0  0  0
 15  5  1  0  0  0  0
 17 18  1  0  0  0  0
 17 30  1  0  0  0  0
 18 23  1  0  0  0  0
 19 24  1  0  0  0  0
 19 18  2  0  0  0  0
 20 19  1  0  0  0  0
 21 20  2  0  0  0  0
 21 22  1  0  0  0  0
 22 17  2  0  0  0  0
 25 20  1  0  0  0  0
 26 32  1  0  0  0  0
 27 26  1  0  0  0  0
 27 33  1  0  0  0  0
 28 27  2  0  0  0  0
 29 30  2  0  0  0  0
 29 28  1  0  0  0  0
 30 31  1  0  0  0  0
 31 26  2  0  0  0  0
 34 28  1  0  0  0  0
 35 42  1  0  0  0  0
 35 44  1  0  0  0  0
 36  6  1  0  0  0  0
 36 35  2  0  0  0  0
 37 39  2  0  0  0  0
 37 36  1  0  0  0  0
 38 37  1  0  0  0  0
 39 41  1  0  0  0  0
 40 39  1  0  0  0  0
 41 42  2  0  0  0  0
 43 44  2  0  0  0  0
 44 45  1  0  0  0  0
 45 48  1  0  0  0  0
 45 47  1  0  0  0  0
 46 43  1  0  0  0  0
M  END
>  <minimizedAffinity>
-6.06723833

$$$$
