REMARK  Name = 
REMARK  3 active torsions:
REMARK  status: ('A' for Active; 'I' for Inactive)
REMARK    1  A    between atoms: C_2  and  N_12
REMARK    2  A    between atoms: C_11  and  C_28
REMARK    3  A    between atoms: C_25  and  C_27
REMARK                            x       y       z     vdW  Elec       q    Type
REMARK                         _______ _______ _______ _____ _____    ______ ____
ROOT
ATOM      1  C   UNL     1      44.480  35.745  45.018  0.00  0.00    +0.000 A 
ATOM      2  C   UNL     1      45.118  35.705  43.756  0.00  0.00    +0.000 A 
ATOM      3  C   UNL     1      46.030  34.683  43.487  0.00  0.00    +0.000 A 
ATOM      4  N   UNL     1      46.245  33.782  44.477  0.00  0.00    +0.000 NA
ATOM      5  C   UNL     1      45.620  33.850  45.670  0.00  0.00    +0.000 A 
ATOM      6  N   UNL     1      44.744  34.814  45.955  0.00  0.00    +0.000 NA
ATOM      7  N   UNL     1      45.957  32.840  46.613  0.00  0.00    +0.000 N 
ATOM      8  C   UNL     1      45.164  32.580  47.829  0.00  0.00    +0.000 C 
ATOM      9  C   UNL     1      46.221  32.160  48.794  0.00  0.00    +0.000 C 
ATOM     10  C   UNL     1      47.550  32.105  48.030  0.00  0.00    +0.000 C 
ATOM     11  C   UNL     1      47.020  31.901  46.661  0.00  0.00    +0.000 C 
ATOM     12  H   UNL     1      43.766  36.516  45.273  0.00  0.00    +0.000 HD
ATOM     13  H   UNL     1      46.493  34.687  42.517  0.00  0.00    +0.000 HD
ATOM     14  H   UNL     1      44.738  33.549  48.163  0.00  0.00    +0.000 HD
ATOM     15  H   UNL     1      44.390  31.813  47.636  0.00  0.00    +0.000 HD
ATOM     16  H   UNL     1      46.285  32.774  49.710  0.00  0.00    +0.000 HD
ATOM     17  H   UNL     1      46.010  31.120  49.182  0.00  0.00    +0.000 HD
ATOM     18  H   UNL     1      47.980  33.090  48.267  0.00  0.00    +0.000 HD
ATOM     19  H   UNL     1      48.164  31.262  48.410  0.00  0.00    +0.000 HD
ATOM     20  H   UNL     1      46.457  30.892  46.761  0.00  0.00    +0.000 HD
ENDROOT
BRANCH  11  22
ATOM     21  C   UNL     1      48.673  30.588  45.295  0.00  0.00    +0.000 A 
ATOM     22  C   UNL     1      47.929  31.713  45.581  0.00  0.00    +0.000 A 
ATOM     23  C   UNL     1      48.196  32.724  44.641  0.00  0.00    +0.000 A 
ATOM     24  H   UNL     1      47.667  33.686  44.748  0.00  0.00    +0.000 HD
ATOM     25  C   UNL     1      49.066  32.615  43.593  0.00  0.00    +0.000 A 
ATOM     26  H   UNL     1      49.199  33.454  42.928  0.00  0.00    +0.000 HD
ATOM     27  C   UNL     1      49.771  31.456  43.377  0.00  0.00    +0.000 A 
ATOM     28  C   UNL     1      49.566  30.433  44.244  0.00  0.00    +0.000 A 
BRANCH  21  30
ATOM     29  N   UNL     1      48.452  28.831  47.250  0.00  0.00    +0.000 NA
ATOM     30  C   UNL     1      48.578  29.395  46.106  0.00  0.00    +0.000 C 
ATOM     31  N   UNL     1      48.624  28.088  45.541  0.00  0.00    +0.000 N 
ATOM     32  H   UNL     1      48.443  27.776  47.234  0.00  0.00    +0.000 HD
ATOM     33  H   UNL     1      48.246  27.158  45.284  0.00  0.00    +0.000 HD
ATOM     34  H   UNL     1      49.542  27.834  45.109  0.00  0.00    +0.000 HD
ENDBRANCH  21  30
ENDBRANCH  11  22
BRANCH   2  35
ATOM     35  N   UNL     1      44.761  36.747  42.837  0.00  0.00    +0.000 N 
ATOM     36  H   UNL     1      45.408  37.533  42.609  0.00  0.00    +0.000 HD
ATOM     37  H   UNL     1      43.803  36.636  42.431  0.00  0.00    +0.000 HD
ENDBRANCH   2  35
TORSDOF 3
