
     RDKit          3D

 28 29  0  0  0  0  0  0  0  0999 V2000
   44.3840   35.7748   44.4307 C   0  0  0  0  0  0  0  0  0  0  0  0
   44.6714   35.0523   43.2637 C   0  0  0  0  0  0  0  0  0  0  0  0
   45.3039   33.8013   43.3849 C   0  0  0  0  0  0  0  0  0  0  0  0
   45.5841   33.3978   44.6274 N   0  0  0  0  0  0  0  0  0  0  0  0
   45.3050   34.0960   45.7340 C   0  0  0  0  0  0  0  0  0  0  0  0
   44.6940   35.3121   45.6764 N   0  0  0  0  0  0  0  0  0  0  0  0
   44.2565   35.7316   42.0200 C   0  0  0  0  0  0  0  0  0  0  0  0
   43.9031   36.7434   44.4708 H   0  0  0  0  0  0  0  0  0  0  0  0
   45.6455   33.5264   46.6046 H   0  0  0  0  0  0  0  0  0  0  0  0
   44.8851   35.3399   41.1750 H   0  0  0  0  0  0  0  0  0  0  0  0
   44.4836   36.8108   42.1130 H   0  0  0  0  0  0  0  0  0  0  0  0
   43.1894   35.5434   41.7756 H   0  0  0  0  0  0  0  0  0  0  0  0
   46.6095   31.3143   44.3792 N   0  0  0  0  0  0  0  0  0  0  0  0
   47.0089   31.4085   43.1835 C   0  0  0  0  0  0  0  0  0  0  0  0
   48.2885   30.7629   43.0128 N   0  0  0  0  0  0  0  0  0  0  0  0
   46.3400   32.0576   42.0741 C   0  0  0  0  0  0  0  0  0  0  0  0
   45.5426   33.1703   42.1289 C   0  0  0  0  0  0  0  0  0  0  0  0
   44.9986   33.6252   40.9303 C   0  0  0  0  0  0  0  0  0  0  0  0
   44.3614   34.5005   40.9206 H   0  0  0  0  0  0  0  0  0  0  0  0
   45.2147   33.0243   39.6984 C   0  0  0  0  0  0  0  0  0  0  0  0
   44.7773   33.4036   38.7903 H   0  0  0  0  0  0  0  0  0  0  0  0
   46.0245   31.8999   39.6676 C   0  0  0  0  0  0  0  0  0  0  0  0
   46.5618   31.4516   40.8554 C   0  0  0  0  0  0  0  0  0  0  0  0
   47.0734   30.8619   45.1655 H   0  0  0  0  0  0  0  0  0  0  0  0
   48.3183   29.7469   42.8010 H   0  0  0  0  0  0  0  0  0  0  0  0
   49.1195   31.3822   43.1174 H   0  0  0  0  0  0  0  0  0  0  0  0
   46.1781   31.4525   38.7067 H   0  0  0  0  0  0  0  0  0  0  0  0
   47.1773   30.5709   40.7185 H   0  0  0  0  0  0  0  0  0  0  0  0
  1  6  2  0
  2  3  2  0
  2  1  1  0
  3  4  1  0
  4  5  2  0
  6  5  1  0
  7  2  1  0
  1  8  1  0
  5  9  1  0
  7 10  1  0
  7 11  1  0
  7 12  1  0
 13 14  2  3
 14 15  1  0
 14 16  1  0
 16 17  2  0
 17 18  1  0
 18 19  1  0
 18 20  2  0
 20 21  1  0
 20 22  1  0
 22 23  2  0
 23 16  1  0
 13 24  1  0
 15 25  1  0
 15 26  1  0
 22 27  1  0
 23 28  1  0
  3 17  1  0
M  ISO  7   8  14   9  14  10   8  11   8  12   8  19  15  21  16
M  END
>  <DihAtoms>  (1) 
1,2,16,15

>  <DihDeg>  (1) 
124.43792537475268

$$$$
