
 OpenBabel03242515393D

 41 44  0  0  0  0  0  0  0  0999 V2000
   43.8670   34.6620   40.8920 C   0  0  0  0  0  0  0  0  0  0  0  0
   43.8150   33.6050   40.0140 C   0  0  0  0  0  0  0  0  0  0  0  0
   45.0050   32.9570   39.6940 C   0  0  0  0  0  0  0  0  0  0  0  0
   46.1440   33.4050   40.2680 N   0  0  0  0  0  0  0  0  0  0  0  0
   46.1660   34.4470   41.1280 C   0  0  0  0  0  0  0  0  0  0  0  0
   45.0270   35.0530   41.4210 N   0  0  0  0  0  0  0  0  0  0  0  0
   42.8890   33.2590   39.6050 H   0  0  0  0  0  0  0  0  0  0  0  0
   45.4590   31.8180   37.5210 C   0  0  0  0  0  0  0  0  0  0  0  0
   45.1750   31.8050   38.8400 C   0  0  0  0  0  0  0  0  0  0  0  0
   45.0600   30.5370   39.3700 C   0  0  0  0  0  0  0  0  0  0  0  0
   44.8370   30.3900   40.4220 H   0  0  0  0  0  0  0  0  0  0  0  0
   45.2090   29.3700   38.6580 C   0  0  0  0  0  0  0  0  0  0  0  0
   45.1090   28.3960   39.1230 H   0  0  0  0  0  0  0  0  0  0  0  0
   45.4950   29.4250   37.3130 C   0  0  0  0  0  0  0  0  0  0  0  0
   45.6220   30.6870   36.7320 C   0  0  0  0  0  0  0  0  0  0  0  0
   46.5500   34.0090   36.9620 N   0  0  0  0  0  0  0  0  0  0  0  0
   45.7440   33.0130   36.7550 C   0  0  0  0  0  0  0  0  0  0  0  0
   45.1450   33.3590   35.5180 N   0  0  0  0  0  0  0  0  0  0  0  0
   46.5840   34.7650   36.2590 H   0  0  0  0  0  0  0  0  0  0  0  0
   45.7090   33.0600   34.6750 H   0  0  0  0  0  0  0  0  0  0  0  0
   44.3360   33.8090   35.0340 H   0  0  0  0  0  0  0  0  0  0  0  0
   42.2900   35.4560   41.2590 S   0  0  0  0  0  0  0  0  0  0  0  0
   39.9170   34.8260   40.1780 C   0  0  0  0  0  0  0  0  0  0  0  0
   40.9340   34.3430   40.9820 C   0  0  0  0  0  0  0  0  0  0  0  0
   40.8680   33.0760   41.5170 C   0  0  0  0  0  0  0  0  0  0  0  0
   39.7970   32.2380   41.2790 C   0  0  0  0  0  0  0  0  0  0  0  0
   38.7610   32.7320   40.4610 C   0  0  0  0  0  0  0  0  0  0  0  0
   38.8040   34.0070   39.9090 C   0  0  0  0  0  0  0  0  0  0  0  0
   37.7910   31.7140   40.3610 O   0  0  0  0  0  0  0  0  0  0  0  0
   38.0940   30.7730   41.3670 C   0  0  0  0  0  0  0  0  0  0  0  0
   39.4610   30.9430   41.6710 O   0  0  0  0  0  0  0  0  0  0  0  0
   39.8960   35.8130   39.7200 H   0  0  0  0  0  0  0  0  0  0  0  0
   41.6660   32.7230   42.1350 H   0  0  0  0  0  0  0  0  0  0  0  0
   37.9850   34.3460   39.2840 H   0  0  0  0  0  0  0  0  0  0  0  0
   37.9740   29.7530   40.9300 H   0  0  0  0  0  0  0  0  0  0  0  0
   37.4380   30.8530   42.2500 H   0  0  0  0  0  0  0  0  0  0  0  0
   47.3000   34.9330   41.7330 O   0  0  0  0  0  0  0  0  0  0  0  0
   48.4960   35.0110   41.0190 C   0  0  0  0  0  0  0  0  0  0  0  0
   49.3320   33.9660   41.2540 F   0  0  0  0  0  0  0  0  0  0  0  0
   48.1060   35.1260   39.6700 F   0  0  0  0  0  0  0  0  0  0  0  0
   49.1410   36.1770   41.4310 F   0  0  0  0  0  0  0  0  0  0  0  0
  1 22  1  0  0  0  0
  1  6  1  0  0  0  0
  2  1  2  0  0  0  0
  3  2  1  0  0  0  0
  3  4  2  0  0  0  0
  4  5  1  0  0  0  0
  5  6  2  0  0  0  0
  5 37  1  0  0  0  0
  7  2  1  0  0  0  0
  8  9  1  0  0  0  0
  9 10  2  0  0  0  0
  9  3  1  0  0  0  0
 10 11  1  0  0  0  0
 12 13  1  0  0  0  0
 12 10  1  0  0  0  0
 14 12  2  0  0  0  0
 15 14  1  0  0  0  0
 15  8  2  0  0  0  0
 17 16  2  0  0  0  0
 17  8  1  0  0  0  0
 18 17  1  0  0  0  0
 19 16  1  0  0  0  0
 20 18  1  0  0  0  0
 21 18  1  0  0  0  0
 23 24  1  0  0  0  0
 24 22  1  0  0  0  0
 24 25  2  0  0  0  0
 25 33  1  0  0  0  0
 26 25  1  0  0  0  0
 26 31  1  0  0  0  0
 27 26  2  0  0  0  0
 28 23  2  0  0  0  0
 28 27  1  0  0  0  0
 29 27  1  0  0  0  0
 29 30  1  0  0  0  0
 30 31  1  0  0  0  0
 30 36  1  0  0  0  0
 32 23  1  0  0  0  0
 34 28  1  0  0  0  0
 35 30  1  0  0  0  0
 38 39  1  0  0  0  0
 38 41  1  0  0  0  0
 38 37  1  0  0  0  0
 40 38  1  0  0  0  0
M  END
>  <minimizedAffinity>
-6.63916492

>  <minimizedRMSD>
0.361851633

$$$$
