
     RDKit          3D

 27 28  0  0  0  0  0  0  0  0999 V2000
   45.1088   35.3539   44.1672 C   0  0  0  0  0  0  0  0  0  0  0  0
   46.1272   34.7893   43.3836 C   0  0  0  0  0  0  0  0  0  0  0  0
   46.8639   33.7100   43.9183 C   0  0  0  0  0  0  0  0  0  0  0  0
   46.5136   33.3052   45.1715 N   0  0  0  0  0  0  0  0  0  0  0  0
   45.5423   33.8517   45.9054 C   0  0  0  0  0  0  0  0  0  0  0  0
   44.8696   34.8634   45.3744 N   0  0  0  0  0  0  0  0  0  0  0  0
   44.3386   36.4487   43.6635 N   0  0  0  0  0  0  0  0  0  0  0  0
   46.3214   35.1836   42.4104 H   0  0  0  0  0  0  0  0  0  0  0  0
   47.6414   33.2672   43.3385 H   0  0  0  0  0  0  0  0  0  0  0  0
   44.5387   36.8697   42.7489 H   0  0  0  0  0  0  0  0  0  0  0  0
   43.5691   36.8289   44.2176 H   0  0  0  0  0  0  0  0  0  0  0  0
   45.2609   30.3917   45.1544 N   0  0  0  0  0  0  0  0  0  0  0  0
   45.3996   30.9437   46.2881 C   0  0  0  0  0  0  0  0  0  0  0  0
   46.2202   29.7720   46.4931 N   0  0  0  0  0  0  0  0  0  0  0  0
   45.2895   31.8898   47.3815 C   0  0  0  0  0  0  0  0  0  0  0  0
   45.3353   33.2523   47.2173 C   0  0  0  0  0  0  0  0  0  0  0  0
   45.1909   34.0543   48.3270 C   0  0  0  0  0  0  0  0  0  0  0  0
   45.2140   35.1353   48.2887 H   0  0  0  0  0  0  0  0  0  0  0  0
   45.0099   33.3982   49.5289 C   0  0  0  0  0  0  0  0  0  0  0  0
   44.8965   34.0308   50.3962 H   0  0  0  0  0  0  0  0  0  0  0  0
   44.9579   32.0376   49.7420 C   0  0  0  0  0  0  0  0  0  0  0  0
   45.1045   31.2592   48.6179 C   0  0  0  0  0  0  0  0  0  0  0  0
   44.7282   30.6890   44.3436 H   0  0  0  0  0  0  0  0  0  0  0  0
   46.0912   28.9525   47.1460 H   0  0  0  0  0  0  0  0  0  0  0  0
   46.9131   28.9819   46.5305 H   0  0  0  0  0  0  0  0  0  0  0  0
   44.8112   31.6449   50.7334 H   0  0  0  0  0  0  0  0  0  0  0  0
   45.0681   30.1869   48.7555 H   0  0  0  0  0  0  0  0  0  0  0  0
  1  6  2  0
  2  3  2  0
  2  1  1  0
  3  4  1  0
  4  5  2  0
  6  5  1  0
  7  1  1  0
  2  8  1  0
  3  9  1  0
  7 10  1  0
  7 11  1  0
 12 13  2  3
 13 14  1  0
 13 15  1  0
 15 16  2  0
 16 17  1  0
 17 18  1  0
 17 19  2  0
 19 20  1  0
 19 21  1  0
 21 22  2  0
 22 15  1  0
 12 23  1  0
 14 24  1  0
 14 25  1  0
 21 26  1  0
 22 27  1  0
  5 16  1  0
M  ISO  4   8  14   9  14  18  15  20  16
M  END
>  <DihAtoms>  (1) 
3,4,15,14

>  <DihDeg>  (1) 
179.49719233284992

$$$$
