
 OpenBabel03242522303D

 44 47  0  0  0  0  0  0  0  0999 V2000
   45.3890   33.1560   41.1450 F   0  0  0  0  0  0  0  0  0  0  0  0
   46.5150   33.9020   40.9820 C   0  0  0  0  0  0  0  0  0  0  0  0
   46.9480   34.7220   41.9650 C   0  0  0  0  0  0  0  0  0  0  0  0
   48.1050   35.4450   41.7130 C   0  0  0  0  0  0  0  0  0  0  0  0
   48.7910   35.3460   40.5310 C   0  0  0  0  0  0  0  0  0  0  0  0
   48.2850   34.4930   39.5890 C   0  0  0  0  0  0  0  0  0  0  0  0
   47.1520   33.7540   39.7760 C   0  0  0  0  0  0  0  0  0  0  0  0
   48.4660   36.1100   42.4950 H   0  0  0  0  0  0  0  0  0  0  0  0
   49.6870   35.9280   40.3790 H   0  0  0  0  0  0  0  0  0  0  0  0
   48.8430   34.4250   38.6520 H   0  0  0  0  0  0  0  0  0  0  0  0
   46.7290   32.8960   38.7040 C   0  0  0  0  0  0  0  0  0  0  0  0
   46.3300   31.6030   38.9890 C   0  0  0  0  0  0  0  0  0  0  0  0
   45.9300   30.7970   37.9680 C   0  0  0  0  0  0  0  0  0  0  0  0
   45.9190   31.2550   36.6500 C   0  0  0  0  0  0  0  0  0  0  0  0
   46.3320   32.5690   36.4120 C   0  0  0  0  0  0  0  0  0  0  0  0
   46.7350   33.3850   37.4400 C   0  0  0  0  0  0  0  0  0  0  0  0
   46.3500   31.2780   40.0240 H   0  0  0  0  0  0  0  0  0  0  0  0
   45.6270   29.7960   38.2390 H   0  0  0  0  0  0  0  0  0  0  0  0
   45.5910   30.5650   35.8860 H   0  0  0  0  0  0  0  0  0  0  0  0
   46.2780   32.8010   35.3640 H   0  0  0  0  0  0  0  0  0  0  0  0
   47.0910   34.6220   36.9560 O   0  0  0  0  0  0  0  0  0  0  0  0
   46.3870   35.3490   36.9230 H   0  0  0  0  0  0  0  0  0  0  0  0
   44.5810   35.8300   44.6830 C   0  0  0  0  0  0  0  0  0  0  0  0
   45.2830   35.8040   43.4830 C   0  0  0  0  0  0  0  0  0  0  0  0
   46.1820   34.7970   43.2100 C   0  0  0  0  0  0  0  0  0  0  0  0
   46.2970   33.8930   44.1800 N   0  0  0  0  0  0  0  0  0  0  0  0
   45.6480   33.8830   45.3340 C   0  0  0  0  0  0  0  0  0  0  0  0
   44.7750   34.8810   45.5720 N   0  0  0  0  0  0  0  0  0  0  0  0
   43.8800   36.6480   44.8520 H   0  0  0  0  0  0  0  0  0  0  0  0
   45.1180   36.5890   42.7550 H   0  0  0  0  0  0  0  0  0  0  0  0
   46.4140   31.6740   46.2130 C   0  0  0  0  0  0  0  0  0  0  0  0
   45.7910   32.8800   46.3830 C   0  0  0  0  0  0  0  0  0  0  0  0
   45.2900   33.0890   47.6490 C   0  0  0  0  0  0  0  0  0  0  0  0
   44.7790   34.0410   47.8450 H   0  0  0  0  0  0  0  0  0  0  0  0
   45.4250   32.1410   48.6370 C   0  0  0  0  0  0  0  0  0  0  0  0
   44.9980   32.4060   49.5870 H   0  0  0  0  0  0  0  0  0  0  0  0
   46.0590   30.9380   48.4280 C   0  0  0  0  0  0  0  0  0  0  0  0
   46.5690   30.7020   47.1710 C   0  0  0  0  0  0  0  0  0  0  0  0
   47.9570   31.2630   44.0930 N   0  0  0  0  0  0  0  0  0  0  0  0
   47.0000   31.3220   44.9400 C   0  0  0  0  0  0  0  0  0  0  0  0
   46.2330   30.6640   43.9210 N   0  0  0  0  0  0  0  0  0  0  0  0
   47.6970   30.8030   43.1740 H   0  0  0  0  0  0  0  0  0  0  0  0
   45.9340   29.6480   44.0000 H   0  0  0  0  0  0  0  0  0  0  0  0
   45.7090   30.5150   43.0350 H   0  0  0  0  0  0  0  0  0  0  0  0
  2  1  1  0  0  0  0
  2  3  1  0  0  0  0
  3 25  1  0  0  0  0
  4  3  2  0  0  0  0
  4  8  1  0  0  0  0
  5  4  1  0  0  0  0
  6  7  1  0  0  0  0
  6  5  2  0  0  0  0
  7  2  2  0  0  0  0
  9  5  1  0  0  0  0
 10  6  1  0  0  0  0
 11 12  1  0  0  0  0
 11  7  1  0  0  0  0
 12 17  1  0  0  0  0
 13 18  1  0  0  0  0
 13 12  2  0  0  0  0
 14 13  1  0  0  0  0
 15 14  2  0  0  0  0
 15 16  1  0  0  0  0
 16 11  2  0  0  0  0
 19 14  1  0  0  0  0
 20 15  1  0  0  0  0
 21 16  1  0  0  0  0
 22 21  1  0  0  0  0
 23 29  1  0  0  0  0
 23 28  1  0  0  0  0
 24 23  2  0  0  0  0
 25 24  1  0  0  0  0
 25 26  2  0  0  0  0
 26 27  1  0  0  0  0
 27 28  2  0  0  0  0
 27 32  1  0  0  0  0
 30 24  1  0  0  0  0
 31 32  2  0  0  0  0
 31 38  1  0  0  0  0
 32 33  1  0  0  0  0
 33 34  1  0  0  0  0
 33 35  2  0  0  0  0
 35 36  1  0  0  0  0
 37 35  1  0  0  0  0
 38 37  2  0  0  0  0
 39 40  2  0  0  0  0
 40 31  1  0  0  0  0
 41 43  1  0  0  0  0
 41 40  1  0  0  0  0
 42 39  1  0  0  0  0
 44 41  1  0  0  0  0
M  END
>  <minimizedAffinity>
-7.54096556

>  <minimizedRMSD>
0.453727543

$$$$
