
 OpenBabel03242511293D

 39 43  0  0  1  0  0  0  0  0999 V2000
   46.4600   33.2170   38.5200 C   0  0  0  0  0  0  0  0  0  0  0  0
   47.0860   33.5000   37.3160 C   0  0  0  0  0  0  0  0  0  0  0  0
   46.1880   32.3930   36.1300 S   0  0  0  0  0  0  0  0  0  0  0  0
   45.1030   31.7410   37.5400 C   0  0  0  0  0  0  0  0  0  0  0  0
   45.5220   32.3290   38.3910 N   0  0  0  0  0  0  0  0  0  0  0  0
   47.8960   34.1850   37.0890 H   0  0  0  0  0  0  0  0  0  0  0  0
   44.6860   33.3370   41.0930 Cl  0  0  0  0  0  0  0  0  0  0  0  0
   46.2430   34.0460   40.9160 C   0  0  0  0  0  0  0  0  0  0  0  0
   46.8070   34.7370   41.9620 C   0  0  0  0  0  0  0  0  0  0  0  0
   48.0720   35.3300   41.8620 C   0  0  0  0  0  0  0  0  0  0  0  0
   48.7120   35.1790   40.6610 C   0  0  0  0  0  0  0  0  0  0  0  0
   48.1560   34.4960   39.6250 C   0  0  0  0  0  0  0  0  0  0  0  0
   46.9000   33.9100   39.7300 C   0  0  0  0  0  0  0  0  0  0  0  0
   48.5130   35.8730   42.6870 H   0  0  0  0  0  0  0  0  0  0  0  0
   49.6930   35.6400   40.5880 H   0  0  0  0  0  0  0  0  0  0  0  0
   48.7610   34.4440   38.7190 H   0  0  0  0  0  0  0  0  0  0  0  0
   45.5350   34.0360   45.3590 C   0  0  0  0  0  0  0  0  0  0  0  0
   44.6830   35.1060   45.5840 C   0  0  0  0  0  0  0  0  0  0  0  0
   44.5430   36.0580   44.5860 C   0  0  0  0  0  0  0  0  0  0  0  0
   45.2380   35.9150   43.4310 N   0  0  0  0  0  0  0  0  0  0  0  0
   46.0710   34.8640   43.2180 C   0  0  0  0  0  0  0  0  0  0  0  0
   46.2030   33.9410   44.1930 N   0  0  0  0  0  0  0  0  0  0  0  0
   45.6780   33.2680   46.1080 H   0  0  0  0  0  0  0  0  0  0  0  0
   44.1340   35.2250   46.4900 H   0  0  0  0  0  0  0  0  0  0  0  0
   43.8960   36.9390   44.6650 H   0  0  0  0  0  0  0  0  0  0  0  0
   44.3810   29.4140   37.3350 C   0  0  0  0  0  0  0  0  0  0  0  0
   44.1130   30.7490   37.1450 C   0  0  0  0  0  0  0  0  0  0  0  0
   42.8780   31.0210   36.6000 C   0  0  0  0  0  0  0  0  0  0  0  0
   42.6100   32.0460   36.4270 H   0  0  0  0  0  0  0  0  0  0  0  0
   42.0310   29.9900   36.2940 C   0  0  0  0  0  0  0  0  0  0  0  0
   41.0800   30.2880   35.8680 H   0  0  0  0  0  0  0  0  0  0  0  0
   42.3170   28.6560   36.4920 C   0  0  0  0  0  3  0  0  0  0  0  0
   43.5470   28.3700   37.0360 C   0  0  0  0  0  3  0  0  0  0  0  0
   46.8930   28.6780   37.9180 N   0  0  0  0  0  0  0  0  0  0  0  0
   45.6730   29.0350   37.8710 C   0  0  1  0  0  3  0  0  0  0  0  0
   45.8230   29.0210   39.2840 N   0  0  0  0  0  4  0  0  0  0  0  0
   47.4880   28.4850   37.0940 H   0  0  0  0  0  0  0  0  0  0  0  0
   45.2580   29.6240   39.9300 H   0  0  0  0  0  0  0  0  0  0  0  0
   45.9600   28.9860   40.3150 H   0  0  0  0  0  0  0  0  0  0  0  0
  1 13  1  0  0  0  0
  2  1  2  0  0  0  0
  3  2  1  0  0  0  0
  3  4  1  0  0  0  0
  4  5  2  0  0  0  0
  5  1  1  0  0  0  0
  6  2  1  0  0  0  0
  8  7  1  0  0  0  0
  8  9  1  0  0  0  0
  9 21  1  0  0  0  0
 10  9  2  0  0  0  0
 10 14  1  0  0  0  0
 11 10  1  0  0  0  0
 12 13  1  0  0  0  0
 12 11  2  0  0  0  0
 13  8  2  0  0  0  0
 15 11  1  0  0  0  0
 16 12  1  0  0  0  0
 17 18  1  0  0  0  0
 17 23  1  0  0  0  0
 18 24  1  0  0  0  0
 19 25  1  0  0  0  0
 19 18  2  0  0  0  0
 20 19  1  0  0  0  0
 21 20  2  0  0  0  0
 21 22  1  0  0  0  0
 22 17  2  0  0  0  0
 27 26  1  0  0  0  0
 27  4  1  0  0  0  0
 28 27  2  0  0  0  0
 29 28  1  0  0  0  0
 30 32  2  0  0  0  0
 30 28  1  0  0  0  0
 31 30  1  0  0  0  0
 32 33  1  0  0  0  0
 33 26  2  0  0  0  0
 34 36  1  0  0  0  0
 35 26  1  6  0  0  0
 35 34  1  0  0  0  0
 35 36  1  0  0  0  0
 36 38  1  0  0  0  0
 36 39  1  0  0  0  0
 37 34  1  0  0  0  0
M  END
>  <minimizedAffinity>
-5.58119011

>  <minimizedRMSD>
1.15327764

$$$$
