
 OpenBabel03242515473D

 46 50  0  0  1  0  0  0  0  0999 V2000
   36.5900   28.9420   37.0400 C   0  0  0  0  0  0  0  0  0  0  0  0
   37.2330   28.2130   38.0440 C   0  0  0  0  0  0  0  0  0  0  0  0
   38.3000   28.7460   38.7360 C   0  0  0  0  0  0  0  0  0  0  0  0
   38.7580   30.0070   38.4570 C   0  0  0  0  0  0  0  0  0  0  0  0
   38.1300   30.7370   37.4670 C   0  0  0  0  0  0  0  0  0  0  0  0
   37.0700   30.2410   36.7600 C   0  0  0  0  0  0  0  0  0  0  0  0
   38.8010   31.9810   37.3950 O   0  0  0  0  0  0  0  0  0  0  0  0
   39.9520   31.8920   38.1690 C   0  0  2  0  0  0  0  0  0  0  0  0
   39.7920   30.7800   38.9840 O   0  0  0  0  0  0  0  0  0  0  0  0
   35.7640   28.6020   36.4640 H   0  0  0  0  0  0  0  0  0  0  0  0
   38.7340   28.1100   39.4930 H   0  0  0  0  0  0  0  0  0  0  0  0
   36.5690   30.8120   35.9790 H   0  0  0  0  0  0  0  0  0  0  0  0
   40.8880   31.8240   37.5510 H   0  0  0  0  0  0  0  0  0  0  0  0
   40.9270   34.1590   38.8460 C   0  0  0  0  0  0  0  0  0  0  0  0
   40.0730   33.1110   38.9950 C   0  0  0  0  0  0  0  0  0  0  0  0
   39.1660   33.1690   40.0600 C   0  0  0  0  0  0  0  0  0  0  0  0
   38.4290   32.3930   40.2880 H   0  0  0  0  0  0  0  0  0  0  0  0
   39.2330   34.2880   40.8510 C   0  0  0  0  0  0  0  0  0  0  0  0
   38.5340   34.3520   41.6870 H   0  0  0  0  0  0  0  0  0  0  0  0
   40.0900   35.3580   40.7150 C   0  0  0  0  0  3  0  0  0  0  0  0
   40.9590   35.2680   39.6680 C   0  0  0  0  0  3  0  0  0  0  0  0
   42.6180   33.9040   36.7600 N   0  0  0  0  0  0  0  0  0  0  0  0
   41.9090   34.1490   37.7800 C   0  0  1  0  0  3  0  0  0  0  0  0
   42.8500   35.2510   37.8370 N   0  0  0  0  0  4  0  0  0  0  0  0
   42.5800   33.1640   36.0700 H   0  0  0  0  0  0  0  0  0  0  0  0
   43.5600   35.4770   38.5850 H   0  0  0  0  0  0  0  0  0  0  0  0
   43.4770   36.0870   37.7610 H   0  0  0  0  0  0  0  0  0  0  0  0
   36.5120   26.5960   38.2980 S   0  0  0  0  0  0  0  0  0  0  0  0
   36.9080   26.0040   39.9760 C   0  0  0  0  0  0  0  0  0  0  0  0
   37.5210   24.8070   40.0570 C   0  0  0  0  0  0  0  0  0  0  0  0
   37.7990   24.3580   41.3520 C   0  0  0  0  0  0  0  0  0  0  0  0
   37.4620   25.1060   42.4260 N   0  0  0  0  0  0  0  0  0  0  0  0
   36.8590   26.2840   42.3030 C   0  0  0  0  0  0  0  0  0  0  0  0
   36.6030   26.6930   41.0700 N   0  0  0  0  0  0  0  0  0  0  0  0
   38.4350   23.0760   41.5430 N   0  0  0  0  0  0  0  0  0  0  0  0
   39.4440   22.8750   41.3810 H   0  0  0  0  0  0  0  0  0  0  0  0
   38.0640   22.1520   41.8530 H   0  0  0  0  0  0  0  0  0  0  0  0
   38.0150   23.8130   39.0460 C   0  0  0  0  0  0  0  0  0  0  0  0
   37.2570   23.0070   38.9900 H   0  0  0  0  0  0  0  0  0  0  0  0
   38.1710   24.3180   38.0600 H   0  0  0  0  0  0  0  0  0  0  0  0
   39.0280   23.4360   39.3190 H   0  0  0  0  0  0  0  0  0  0  0  0
   36.4930   27.0930   43.3500 O   0  0  0  0  0  0  0  0  0  0  0  0
   37.4050   28.0850   43.7730 C   0  0  0  0  0  0  0  0  0  0  0  0
   37.5740   29.0580   42.8380 F   0  0  0  0  0  0  0  0  0  0  0  0
   36.9040   28.5910   44.9920 F   0  0  0  0  0  0  0  0  0  0  0  0
   38.6360   27.4670   43.9910 F   0  0  0  0  0  0  0  0  0  0  0  0
  1  2  1  0  0  0  0
  2 28  1  0  0  0  0
  2  3  2  0  0  0  0
  3 11  1  0  0  0  0
  4  3  1  0  0  0  0
  4  9  1  0  0  0  0
  5  4  2  0  0  0  0
  6  1  2  0  0  0  0
  6  5  1  0  0  0  0
  7  5  1  0  0  0  0
  7  8  1  0  0  0  0
  8 13  1  6  0  0  0
  8  9  1  0  0  0  0
  8 15  1  0  0  0  0
 10  1  1  0  0  0  0
 12  6  1  0  0  0  0
 14 15  2  0  0  0  0
 14 21  1  0  0  0  0
 15 16  1  0  0  0  0
 16 17  1  0  0  0  0
 16 18  2  0  0  0  0
 18 19  1  0  0  0  0
 20 18  1  0  0  0  0
 21 20  2  0  0  0  0
 22 23  1  0  0  0  0
 22 24  1  0  0  0  0
 23 24  1  0  0  0  0
 23 14  1  6  0  0  0
 24 26  1  0  0  0  0
 25 22  1  0  0  0  0
 27 24  1  0  0  0  0
 28 29  1  0  0  0  0
 29 30  2  0  0  0  0
 29 34  1  0  0  0  0
 30 31  1  0  0  0  0
 31 35  1  0  0  0  0
 31 32  2  0  0  0  0
 33 32  1  0  0  0  0
 33 42  1  0  0  0  0
 34 33  2  0  0  0  0
 35 37  1  0  0  0  0
 36 35  1  0  0  0  0
 38 41  1  0  0  0  0
 38 30  1  0  0  0  0
 39 38  1  0  0  0  0
 40 38  1  0  0  0  0
 42 43  1  0  0  0  0
 43 46  1  0  0  0  0
 43 45  1  0  0  0  0
 44 43  1  0  0  0  0
M  END
>  <minimizedAffinity>
-7.71406412

$$$$

 OpenBabel03242515473D

 46 50  0  0  1  0  0  0  0  0999 V2000
   36.8060   29.2020   37.1180 C   0  0  0  0  0  0  0  0  0  0  0  0
   37.5540   28.4390   38.0200 C   0  0  0  0  0  0  0  0  0  0  0  0
   38.6360   28.9800   38.6810 C   0  0  0  0  0  0  0  0  0  0  0  0
   39.0060   30.2830   38.4730 C   0  0  0  0  0  0  0  0  0  0  0  0
   38.2750   31.0470   37.5850 C   0  0  0  0  0  0  0  0  0  0  0  0
   37.1970   30.5440   36.9100 C   0  0  0  0  0  0  0  0  0  0  0  0
   38.8730   32.3290   37.5670 O   0  0  0  0  0  0  0  0  0  0  0  0
   40.0770   32.2500   38.2570 C   0  0  2  0  0  0  0  0  0  0  0  0
   40.0310   31.0730   38.9920 O   0  0  0  0  0  0  0  0  0  0  0  0
   35.9630   28.8590   36.5720 H   0  0  0  0  0  0  0  0  0  0  0  0
   39.1530   28.3170   39.3580 H   0  0  0  0  0  0  0  0  0  0  0  0
   36.6150   31.1410   36.2090 H   0  0  0  0  0  0  0  0  0  0  0  0
   40.9710   32.2820   37.5770 H   0  0  0  0  0  0  0  0  0  0  0  0
   39.2590   33.9170   40.0180 C   0  0  0  0  0  0  0  0  0  0  0  0
   40.1890   33.4090   39.1650 C   0  0  0  0  0  0  0  0  0  0  0  0
   41.4370   34.0440   39.1270 C   0  0  0  0  0  0  0  0  0  0  0  0
   42.2690   33.7340   38.4850 H   0  0  0  0  0  0  0  0  0  0  0  0
   41.5950   35.1220   39.9610 C   0  0  0  0  0  0  0  0  0  0  0  0
   42.5600   35.6290   39.9440 H   0  0  0  0  0  0  0  0  0  0  0  0
   40.6640   35.6490   40.8300 C   0  0  0  0  0  3  0  0  0  0  0  0
   39.4620   35.0060   40.8430 C   0  0  0  0  0  3  0  0  0  0  0  0
   36.9150   32.6200   40.3340 N   0  0  0  0  0  0  0  0  0  0  0  0
   37.9390   33.3240   40.0880 C   0  0  1  0  0  3  0  0  0  0  0  0
   36.9370   34.0240   39.3060 N   0  0  0  0  0  4  0  0  0  0  0  0
   36.7810   31.7940   40.9060 H   0  0  0  0  0  0  0  0  0  0  0  0
   36.8960   34.1670   38.2610 H   0  0  0  0  0  0  0  0  0  0  0  0
   36.1540   34.5560   38.8580 H   0  0  0  0  0  0  0  0  0  0  0  0
   36.9380   26.7680   38.1930 S   0  0  0  0  0  0  0  0  0  0  0  0
   37.1760   26.2020   39.9090 C   0  0  0  0  0  0  0  0  0  0  0  0
   37.7670   25.0010   40.0640 C   0  0  0  0  0  0  0  0  0  0  0  0
   37.9230   24.5720   41.3860 C   0  0  0  0  0  0  0  0  0  0  0  0
   37.4980   25.3400   42.4130 N   0  0  0  0  0  0  0  0  0  0  0  0
   36.9200   26.5210   42.2180 C   0  0  0  0  0  0  0  0  0  0  0  0
   36.7800   26.9120   40.9600 N   0  0  0  0  0  0  0  0  0  0  0  0
   38.5270   23.2880   41.6530 N   0  0  0  0  0  0  0  0  0  0  0  0
   39.5450   23.0760   41.5870 H   0  0  0  0  0  0  0  0  0  0  0  0
   38.1200   22.3730   41.9440 H   0  0  0  0  0  0  0  0  0  0  0  0
   38.3420   23.9860   39.1170 C   0  0  0  0  0  0  0  0  0  0  0  0
   37.5840   23.1860   39.0070 H   0  0  0  0  0  0  0  0  0  0  0  0
   38.5900   24.4740   38.1420 H   0  0  0  0  0  0  0  0  0  0  0  0
   39.3220   23.6060   39.4870 H   0  0  0  0  0  0  0  0  0  0  0  0
   36.4680   27.3510   43.2140 O   0  0  0  0  0  0  0  0  0  0  0  0
   37.3630   28.3130   43.7320 C   0  0  0  0  0  0  0  0  0  0  0  0
   38.6230   27.8200   43.8710 F   0  0  0  0  0  0  0  0  0  0  0  0
   37.3100   29.4170   42.8530 F   0  0  0  0  0  0  0  0  0  0  0  0
   36.8990   28.6930   44.9920 F   0  0  0  0  0  0  0  0  0  0  0  0
  1  2  1  0  0  0  0
  2 28  1  0  0  0  0
  2  3  2  0  0  0  0
  3 11  1  0  0  0  0
  4  3  1  0  0  0  0
  4  9  1  0  0  0  0
  5  4  2  0  0  0  0
  6  1  2  0  0  0  0
  6  5  1  0  0  0  0
  7  5  1  0  0  0  0
  7  8  1  0  0  0  0
  8 13  1  6  0  0  0
  8  9  1  0  0  0  0
  8 15  1  0  0  0  0
 10  1  1  0  0  0  0
 12  6  1  0  0  0  0
 14 21  1  0  0  0  0
 15 14  2  0  0  0  0
 16 15  1  0  0  0  0
 16 18  2  0  0  0  0
 17 16  1  0  0  0  0
 18 20  1  0  0  0  0
 19 18  1  0  0  0  0
 20 21  2  0  0  0  0
 22 25  1  0  0  0  0
 23 14  1  1  0  0  0
 23 22  1  0  0  0  0
 24 23  1  0  0  0  0
 24 22  1  0  0  0  0
 26 24  1  0  0  0  0
 27 24  1  0  0  0  0
 28 29  1  0  0  0  0
 29 30  2  0  0  0  0
 29 34  1  0  0  0  0
 30 31  1  0  0  0  0
 31 35  1  0  0  0  0
 31 32  2  0  0  0  0
 33 32  1  0  0  0  0
 33 42  1  0  0  0  0
 34 33  2  0  0  0  0
 35 37  1  0  0  0  0
 36 35  1  0  0  0  0
 38 41  1  0  0  0  0
 38 30  1  0  0  0  0
 39 38  1  0  0  0  0
 40 38  1  0  0  0  0
 42 43  1  0  0  0  0
 43 44  1  0  0  0  0
 43 46  1  0  0  0  0
 45 43  1  0  0  0  0
M  END
>  <minimizedAffinity>
-7.62401247

$$$$

 OpenBabel03242515473D

 46 50  0  0  1  0  0  0  0  0999 V2000
   36.8660   31.6460   40.6410 C   0  0  0  0  0  0  0  0  0  0  0  0
   38.2060   31.7480   41.0220 C   0  0  0  0  0  0  0  0  0  0  0  0
   38.8610   30.6840   41.6060 C   0  0  0  0  0  0  0  0  0  0  0  0
   38.2140   29.4970   41.8280 C   0  0  0  0  0  0  0  0  0  0  0  0
   36.8890   29.3850   41.4540 C   0  0  0  0  0  0  0  0  0  0  0  0
   36.2070   30.4180   40.8740 C   0  0  0  0  0  0  0  0  0  0  0  0
   36.4830   28.0720   41.7960 O   0  0  0  0  0  0  0  0  0  0  0  0
   37.4870   27.5020   42.5700 C   0  0  2  0  0  0  0  0  0  0  0  0
   38.6180   28.2850   42.3860 O   0  0  0  0  0  0  0  0  0  0  0  0
   36.2940   32.4170   40.1870 H   0  0  0  0  0  0  0  0  0  0  0  0
   39.8950   30.8550   41.8680 H   0  0  0  0  0  0  0  0  0  0  0  0
   35.1630   30.3350   40.5760 H   0  0  0  0  0  0  0  0  0  0  0  0
   37.2070   27.4230   43.6550 H   0  0  0  0  0  0  0  0  0  0  0  0
   38.7370   25.2730   42.4480 C   0  0  0  0  0  0  0  0  0  0  0  0
   37.7400   26.1270   42.0930 C   0  0  0  0  0  0  0  0  0  0  0  0
   36.8040   25.6670   41.1580 C   0  0  0  0  0  0  0  0  0  0  0  0
   35.9570   26.2540   40.7900 H   0  0  0  0  0  0  0  0  0  0  0  0
   36.9920   24.3900   40.6920 C   0  0  0  0  0  0  0  0  0  0  0  0
   36.2730   24.0140   39.9630 H   0  0  0  0  0  0  0  0  0  0  0  0
   37.9950   23.5120   41.0400 C   0  0  0  0  0  3  0  0  0  0  0  0
   38.8870   23.9920   41.9520 C   0  0  0  0  0  3  0  0  0  0  0  0
   40.4350   26.2540   44.3000 N   0  0  0  0  0  0  0  0  0  0  0  0
   39.7540   25.6960   43.3900 C   0  0  1  0  0  3  0  0  0  0  0  0
   40.9820   24.9270   43.3150 N   0  0  0  0  0  4  0  0  0  0  0  0
   40.2280   27.0220   44.9280 H   0  0  0  0  0  0  0  0  0  0  0  0
   41.6610   24.8430   42.5120 H   0  0  0  0  0  0  0  0  0  0  0  0
   41.8410   24.3310   43.3860 H   0  0  0  0  0  0  0  0  0  0  0  0
   38.9130   33.3500   40.6550 S   0  0  0  0  0  0  0  0  0  0  0  0
   40.1380   33.1890   39.3160 C   0  0  0  0  0  0  0  0  0  0  0  0
   40.9330   34.2550   39.1030 C   0  0  0  0  0  0  0  0  0  0  0  0
   41.8530   34.1220   38.0570 C   0  0  0  0  0  0  0  0  0  0  0  0
   41.9100   32.9830   37.3330 N   0  0  0  0  0  0  0  0  0  0  0  0
   41.1070   31.9510   37.5760 C   0  0  0  0  0  0  0  0  0  0  0  0
   40.2430   32.0940   38.5680 N   0  0  0  0  0  0  0  0  0  0  0  0
   42.7350   35.2190   37.7380 N   0  0  0  0  0  0  0  0  0  0  0  0
   43.5760   35.4950   38.2880 H   0  0  0  0  0  0  0  0  0  0  0  0
   42.7290   35.9160   36.9620 H   0  0  0  0  0  0  0  0  0  0  0  0
   41.0880   35.5950   39.7630 C   0  0  0  0  0  0  0  0  0  0  0  0
   40.5560   36.3290   39.1260 H   0  0  0  0  0  0  0  0  0  0  0  0
   40.6770   35.5560   40.8020 H   0  0  0  0  0  0  0  0  0  0  0  0
   42.1640   35.8460   39.9080 H   0  0  0  0  0  0  0  0  0  0  0  0
   41.1160   30.7670   36.8810 O   0  0  0  0  0  0  0  0  0  0  0  0
   42.3300   30.0500   36.8070 C   0  0  0  0  0  0  0  0  0  0  0  0
   43.1080   30.2420   37.9060 F   0  0  0  0  0  0  0  0  0  0  0  0
   41.9790   28.6940   36.6270 F   0  0  0  0  0  0  0  0  0  0  0  0
   43.0290   30.5070   35.6900 F   0  0  0  0  0  0  0  0  0  0  0  0
  1  6  2  0  0  0  0
  1  2  1  0  0  0  0
  2  3  2  0  0  0  0
  3  4  1  0  0  0  0
  3 11  1  0  0  0  0
  4  9  1  0  0  0  0
  5  7  1  0  0  0  0
  5  4  2  0  0  0  0
  6  5  1  0  0  0  0
  7  8  1  0  0  0  0
  8 13  1  1  0  0  0
  9  8  1  0  0  0  0
 10  1  1  0  0  0  0
 12  6  1  0  0  0  0
 15 14  1  0  0  0  0
 15  8  1  0  0  0  0
 16 15  2  0  0  0  0
 17 16  1  0  0  0  0
 18 20  2  0  0  0  0
 18 16  1  0  0  0  0
 19 18  1  0  0  0  0
 20 21  1  0  0  0  0
 21 14  2  0  0  0  0
 22 25  1  0  0  0  0
 23 14  1  1  0  0  0
 23 22  1  0  0  0  0
 24 27  1  0  0  0  0
 24 23  1  0  0  0  0
 24 22  1  0  0  0  0
 26 24  1  0  0  0  0
 28  2  1  0  0  0  0
 29 28  1  0  0  0  0
 30 29  1  0  0  0  0
 30 38  1  0  0  0  0
 31 30  2  0  0  0  0
 32 33  2  0  0  0  0
 32 31  1  0  0  0  0
 33 34  1  0  0  0  0
 34 29  2  0  0  0  0
 35 31  1  0  0  0  0
 35 36  1  0  0  0  0
 37 35  1  0  0  0  0
 38 41  1  0  0  0  0
 38 40  1  0  0  0  0
 39 38  1  0  0  0  0
 42 33  1  0  0  0  0
 43 42  1  0  0  0  0
 43 44  1  0  0  0  0
 45 43  1  0  0  0  0
 46 43  1  0  0  0  0
M  END
>  <minimizedAffinity>
-7.5640192

$$$$

 OpenBabel03242515473D

 46 50  0  0  1  0  0  0  0  0999 V2000
   36.2120   30.0900   41.1690 C   0  0  0  0  0  0  0  0  0  0  0  0
   37.2460   29.2130   41.5040 C   0  0  0  0  0  0  0  0  0  0  0  0
   38.4960   29.3360   40.9340 C   0  0  0  0  0  0  0  0  0  0  0  0
   38.7570   30.3260   40.0230 C   0  0  0  0  0  0  0  0  0  0  0  0
   37.7430   31.2000   39.6840 C   0  0  0  0  0  0  0  0  0  0  0  0
   36.4910   31.1070   40.2280 C   0  0  0  0  0  0  0  0  0  0  0  0
   38.2860   32.1020   38.7390 O   0  0  0  0  0  0  0  0  0  0  0  0
   39.5320   31.6210   38.3550 C   0  0  2  0  0  0  0  0  0  0  0  0
   39.8990   30.6790   39.3050 O   0  0  0  0  0  0  0  0  0  0  0  0
   35.2270   30.0600   41.5630 H   0  0  0  0  0  0  0  0  0  0  0  0
   39.2320   28.6130   41.2530 H   0  0  0  0  0  0  0  0  0  0  0  0
   35.6870   31.7940   39.9660 H   0  0  0  0  0  0  0  0  0  0  0  0
   39.5300   31.1870   37.3180 H   0  0  0  0  0  0  0  0  0  0  0  0
   40.5610   33.8150   39.1760 C   0  0  0  0  0  0  0  0  0  0  0  0
   40.4990   32.7370   38.3490 C   0  0  0  0  0  0  0  0  0  0  0  0
   41.4780   32.6370   37.3520 C   0  0  0  0  0  0  0  0  0  0  0  0
   41.5390   31.8210   36.6240 H   0  0  0  0  0  0  0  0  0  0  0  0
   42.4070   33.6460   37.3110 C   0  0  0  0  0  0  0  0  0  0  0  0
   43.1760   33.5860   36.5410 H   0  0  0  0  0  0  0  0  0  0  0  0
   42.4840   34.7450   38.1400 C   0  0  0  0  0  3  0  0  0  0  0  0
   41.5170   34.8100   39.0990 C   0  0  0  0  0  3  0  0  0  0  0  0
   38.8710   33.9760   41.2720 N   0  0  0  0  0  0  0  0  0  0  0  0
   39.5640   33.9930   40.2120 C   0  0  1  0  0  3  0  0  0  0  0  0
   38.4730   34.8720   39.8330 N   0  0  0  0  0  4  0  0  0  0  0  0
   38.9990   33.5010   42.1570 H   0  0  0  0  0  0  0  0  0  0  0  0
   37.7580   34.7460   39.0680 H   0  0  0  0  0  0  0  0  0  0  0  0
   37.7290   35.5880   39.6580 H   0  0  0  0  0  0  0  0  0  0  0  0
   36.7540   27.9890   42.7130 S   0  0  0  0  0  0  0  0  0  0  0  0
   38.0780   26.7520   42.9080 C   0  0  0  0  0  0  0  0  0  0  0  0
   37.8950   25.5770   42.2740 C   0  0  0  0  0  0  0  0  0  0  0  0
   38.9110   24.6310   42.4520 C   0  0  0  0  0  0  0  0  0  0  0  0
   39.9890   24.9160   43.2140 N   0  0  0  0  0  0  0  0  0  0  0  0
   40.1330   26.0890   43.8220 C   0  0  0  0  0  0  0  0  0  0  0  0
   39.1630   26.9720   43.6440 N   0  0  0  0  0  0  0  0  0  0  0  0
   38.7950   23.3340   41.8290 N   0  0  0  0  0  0  0  0  0  0  0  0
   38.9460   23.1360   40.8170 H   0  0  0  0  0  0  0  0  0  0  0  0
   38.5550   22.3950   42.2130 H   0  0  0  0  0  0  0  0  0  0  0  0
   36.8290   25.0300   41.3690 C   0  0  0  0  0  0  0  0  0  0  0  0
   36.1870   24.3740   41.9880 H   0  0  0  0  0  0  0  0  0  0  0  0
   36.2560   25.8720   40.9060 H   0  0  0  0  0  0  0  0  0  0  0  0
   37.2790   24.5000   40.4980 H   0  0  0  0  0  0  0  0  0  0  0  0
   41.2030   26.4420   44.6070 O   0  0  0  0  0  0  0  0  0  0  0  0
   42.3670   26.9200   43.9650 C   0  0  0  0  0  0  0  0  0  0  0  0
   42.1460   27.2210   42.6580 F   0  0  0  0  0  0  0  0  0  0  0  0
   42.8000   28.0380   44.7110 F   0  0  0  0  0  0  0  0  0  0  0  0
   43.3310   25.9130   44.0260 F   0  0  0  0  0  0  0  0  0  0  0  0
  1  2  1  0  0  0  0
  1 10  1  0  0  0  0
  2 28  1  0  0  0  0
  3 11  1  0  0  0  0
  3  2  2  0  0  0  0
  4  3  1  0  0  0  0
  5  4  2  0  0  0  0
  5  6  1  0  0  0  0
  6  1  2  0  0  0  0
  7  5  1  0  0  0  0
  8 13  1  6  0  0  0
  8  7  1  0  0  0  0
  8  9  1  0  0  0  0
  9  4  1  0  0  0  0
 12  6  1  0  0  0  0
 15  8  1  0  0  0  0
 15 14  2  0  0  0  0
 16 15  1  0  0  0  0
 17 16  1  0  0  0  0
 18 16  2  0  0  0  0
 18 20  1  0  0  0  0
 19 18  1  0  0  0  0
 20 21  2  0  0  0  0
 21 14  1  0  0  0  0
 22 25  1  0  0  0  0
 23 14  1  1  0  0  0
 23 22  1  0  0  0  0
 24 23  1  0  0  0  0
 24 22  1  0  0  0  0
 26 24  1  0  0  0  0
 27 24  1  0  0  0  0
 28 29  1  0  0  0  0
 29 34  1  0  0  0  0
 30 31  1  0  0  0  0
 30 29  2  0  0  0  0
 31 32  2  0  0  0  0
 32 33  1  0  0  0  0
 33 42  1  0  0  0  0
 34 33  2  0  0  0  0
 35 37  1  0  0  0  0
 35 31  1  0  0  0  0
 36 35  1  0  0  0  0
 38 39  1  0  0  0  0
 38 30  1  0  0  0  0
 40 38  1  0  0  0  0
 41 38  1  0  0  0  0
 43 46  1  0  0  0  0
 43 42  1  0  0  0  0
 43 45  1  0  0  0  0
 44 43  1  0  0  0  0
M  END
>  <minimizedAffinity>
-7.49299574

$$$$

 OpenBabel03242515473D

 46 50  0  0  1  0  0  0  0  0999 V2000
   36.5820   30.0700   41.6050 C   0  0  0  0  0  0  0  0  0  0  0  0
   37.6790   29.2670   41.9280 C   0  0  0  0  0  0  0  0  0  0  0  0
   38.8930   29.4350   41.2960 C   0  0  0  0  0  0  0  0  0  0  0  0
   39.0550   30.3950   40.3320 C   0  0  0  0  0  0  0  0  0  0  0  0
   37.9780   31.1950   40.0040 C   0  0  0  0  0  0  0  0  0  0  0  0
   36.7590   31.0570   40.6090 C   0  0  0  0  0  0  0  0  0  0  0  0
   38.4260   32.0820   38.9970 O   0  0  0  0  0  0  0  0  0  0  0  0
   39.6790   31.6550   38.5760 C   0  0  2  0  0  0  0  0  0  0  0  0
   40.1420   30.7790   39.5480 O   0  0  0  0  0  0  0  0  0  0  0  0
   35.6180   30.0020   42.0450 H   0  0  0  0  0  0  0  0  0  0  0  0
   39.6820   28.7690   41.6110 H   0  0  0  0  0  0  0  0  0  0  0  0
   35.9060   31.6850   40.3560 H   0  0  0  0  0  0  0  0  0  0  0  0
   39.6570   31.1760   37.5600 H   0  0  0  0  0  0  0  0  0  0  0  0
   40.5910   33.9550   39.2300 C   0  0  0  0  0  0  0  0  0  0  0  0
   40.5790   32.8220   38.4770 C   0  0  0  0  0  0  0  0  0  0  0  0
   41.5460   32.7120   37.4700 C   0  0  0  0  0  0  0  0  0  0  0  0
   41.6440   31.8540   36.7970 H   0  0  0  0  0  0  0  0  0  0  0  0
   42.4130   33.7680   37.3450 C   0  0  0  0  0  0  0  0  0  0  0  0
   43.1730   33.7010   36.5650 H   0  0  0  0  0  0  0  0  0  0  0  0
   42.4390   34.9220   38.0970 C   0  0  0  0  0  3  0  0  0  0  0  0
   41.4850   34.9950   39.0690 C   0  0  0  0  0  3  0  0  0  0  0  0
   38.9270   34.1570   41.3430 N   0  0  0  0  0  0  0  0  0  0  0  0
   39.6010   34.1440   40.2710 C   0  0  1  0  0  3  0  0  0  0  0  0
   38.4570   34.9350   39.8590 N   0  0  0  0  0  4  0  0  0  0  0  0
   39.0940   33.7480   42.2540 H   0  0  0  0  0  0  0  0  0  0  0  0
   37.7380   34.7220   39.1160 H   0  0  0  0  0  0  0  0  0  0  0  0
   37.6710   35.5970   39.6520 H   0  0  0  0  0  0  0  0  0  0  0  0
   37.3120   28.0740   43.2100 S   0  0  0  0  0  0  0  0  0  0  0  0
   38.0260   26.4570   42.7660 C   0  0  0  0  0  0  0  0  0  0  0  0
   39.3090   26.2530   43.1240 C   0  0  0  0  0  0  0  0  0  0  0  0
   39.8480   25.0160   42.7570 C   0  0  0  0  0  0  0  0  0  0  0  0
   39.0990   24.1110   42.0880 N   0  0  0  0  0  0  0  0  0  0  0  0
   37.8360   24.3510   41.7530 C   0  0  0  0  0  0  0  0  0  0  0  0
   37.3410   25.5270   42.1090 N   0  0  0  0  0  0  0  0  0  0  0  0
   41.2220   24.7120   43.0790 N   0  0  0  0  0  0  0  0  0  0  0  0
   41.5760   24.4540   44.0240 H   0  0  0  0  0  0  0  0  0  0  0  0
   42.0860   24.6850   42.4950 H   0  0  0  0  0  0  0  0  0  0  0  0
   40.3280   27.0610   43.8750 C   0  0  0  0  0  0  0  0  0  0  0  0
   40.9990   27.5140   43.1180 H   0  0  0  0  0  0  0  0  0  0  0  0
   39.8150   27.8310   44.5030 H   0  0  0  0  0  0  0  0  0  0  0  0
   40.8730   26.4290   44.6130 H   0  0  0  0  0  0  0  0  0  0  0  0
   37.0210   23.4760   41.0790 O   0  0  0  0  0  0  0  0  0  0  0  0
   36.7920   23.7080   39.7040 C   0  0  0  0  0  0  0  0  0  0  0  0
   37.8520   24.3090   39.1020 F   0  0  0  0  0  0  0  0  0  0  0  0
   36.4910   22.4510   39.1350 F   0  0  0  0  0  0  0  0  0  0  0  0
   35.6870   24.5510   39.5920 F   0  0  0  0  0  0  0  0  0  0  0  0
  1  2  1  0  0  0  0
  1 10  1  0  0  0  0
  2 28  1  0  0  0  0
  3 11  1  0  0  0  0
  3  2  2  0  0  0  0
  4  3  1  0  0  0  0
  5  4  2  0  0  0  0
  5  6  1  0  0  0  0
  6  1  2  0  0  0  0
  7  5  1  0  0  0  0
  8 13  1  6  0  0  0
  8  7  1  0  0  0  0
  8  9  1  0  0  0  0
  9  4  1  0  0  0  0
 12  6  1  0  0  0  0
 15  8  1  0  0  0  0
 15 14  2  0  0  0  0
 16 15  1  0  0  0  0
 17 16  1  0  0  0  0
 18 16  2  0  0  0  0
 18 20  1  0  0  0  0
 19 18  1  0  0  0  0
 20 21  2  0  0  0  0
 21 14  1  0  0  0  0
 22 25  1  0  0  0  0
 23 14  1  1  0  0  0
 23 22  1  0  0  0  0
 24 23  1  0  0  0  0
 24 22  1  0  0  0  0
 26 24  1  0  0  0  0
 27 24  1  0  0  0  0
 29 30  1  0  0  0  0
 29 28  1  0  0  0  0
 30 38  1  0  0  0  0
 31 35  1  0  0  0  0
 31 30  2  0  0  0  0
 32 31  1  0  0  0  0
 33 32  2  0  0  0  0
 33 34  1  0  0  0  0
 34 29  2  0  0  0  0
 35 36  1  0  0  0  0
 37 35  1  0  0  0  0
 38 40  1  0  0  0  0
 38 41  1  0  0  0  0
 39 38  1  0  0  0  0
 42 33  1  0  0  0  0
 43 42  1  0  0  0  0
 44 43  1  0  0  0  0
 45 43  1  0  0  0  0
 46 43  1  0  0  0  0
M  END
>  <minimizedAffinity>
-7.39045572

$$$$

 OpenBabel03242515473D

 46 50  0  0  1  0  0  0  0  0999 V2000
   36.7720   31.9030   40.4790 C   0  0  0  0  0  0  0  0  0  0  0  0
   38.1310   32.1790   40.6500 C   0  0  0  0  0  0  0  0  0  0  0  0
   38.9520   31.3100   41.3380 C   0  0  0  0  0  0  0  0  0  0  0  0
   38.4550   30.1490   41.8720 C   0  0  0  0  0  0  0  0  0  0  0  0
   37.1140   29.8660   41.7090 C   0  0  0  0  0  0  0  0  0  0  0  0
   36.2700   30.7040   41.0340 C   0  0  0  0  0  0  0  0  0  0  0  0
   36.8820   28.6260   42.3510 O   0  0  0  0  0  0  0  0  0  0  0  0
   38.0210   28.3030   43.0800 C   0  0  2  0  0  0  0  0  0  0  0  0
   39.0390   29.1120   42.5970 O   0  0  0  0  0  0  0  0  0  0  0  0
   36.0780   32.5200   39.9650 H   0  0  0  0  0  0  0  0  0  0  0  0
   39.9870   31.6060   41.4200 H   0  0  0  0  0  0  0  0  0  0  0  0
   35.2110   30.4850   40.9010 H   0  0  0  0  0  0  0  0  0  0  0  0
   37.8780   28.4290   44.1880 H   0  0  0  0  0  0  0  0  0  0  0  0
   39.5390   26.2430   43.0340 C   0  0  0  0  0  0  0  0  0  0  0  0
   38.3520   26.8820   42.8520 C   0  0  0  0  0  0  0  0  0  0  0  0
   37.2740   26.1120   42.3960 C   0  0  0  0  0  0  0  0  0  0  0  0
   36.2690   26.5040   42.2100 H   0  0  0  0  0  0  0  0  0  0  0  0
   37.5290   24.7810   42.1780 C   0  0  0  0  0  0  0  0  0  0  0  0
   36.7020   24.1660   41.8220 H   0  0  0  0  0  0  0  0  0  0  0  0
   38.7240   24.1190   42.3580 C   0  0  0  0  0  3  0  0  0  0  0  0
   39.7510   24.8980   42.8020 C   0  0  0  0  0  3  0  0  0  0  0  0
   41.6790   27.7790   43.6140 N   0  0  0  0  0  0  0  0  0  0  0  0
   40.7010   26.9870   43.4790 C   0  0  1  0  0  3  0  0  0  0  0  0
   41.1870   26.5900   44.7870 N   0  0  0  0  0  4  0  0  0  0  0  0
   42.0560   28.5010   43.0110 H   0  0  0  0  0  0  0  0  0  0  0  0
   41.5780   25.6590   45.0930 H   0  0  0  0  0  0  0  0  0  0  0  0
   41.5060   26.4290   45.7710 H   0  0  0  0  0  0  0  0  0  0  0  0
   38.6280   33.7190   39.8860 S   0  0  0  0  0  0  0  0  0  0  0  0
   40.4460   33.7870   39.7700 C   0  0  0  0  0  0  0  0  0  0  0  0
   41.0040   33.1100   38.7470 C   0  0  0  0  0  0  0  0  0  0  0  0
   42.4010   33.1550   38.6850 C   0  0  0  0  0  0  0  0  0  0  0  0
   43.1080   33.8450   39.6070 N   0  0  0  0  0  0  0  0  0  0  0  0
   42.5180   34.5010   40.6010 C   0  0  0  0  0  0  0  0  0  0  0  0
   41.1960   34.4480   40.6450 N   0  0  0  0  0  0  0  0  0  0  0  0
   43.0920   32.4440   37.6360 N   0  0  0  0  0  0  0  0  0  0  0  0
   43.1530   32.7470   36.6420 H   0  0  0  0  0  0  0  0  0  0  0  0
   43.6320   31.5510   37.6380 H   0  0  0  0  0  0  0  0  0  0  0  0
   40.4590   32.3070   37.6010 C   0  0  0  0  0  0  0  0  0  0  0  0
   40.5620   31.2400   37.8790 H   0  0  0  0  0  0  0  0  0  0  0  0
   39.3950   32.5950   37.4070 H   0  0  0  0  0  0  0  0  0  0  0  0
   40.9840   32.5600   36.6510 H   0  0  0  0  0  0  0  0  0  0  0  0
   43.1760   35.2220   41.5670 O   0  0  0  0  0  0  0  0  0  0  0  0
   44.0090   34.5200   42.4670 C   0  0  0  0  0  0  0  0  0  0  0  0
   45.2260   34.2420   41.9300 F   0  0  0  0  0  0  0  0  0  0  0  0
   44.1010   35.3200   43.6270 F   0  0  0  0  0  0  0  0  0  0  0  0
   43.3800   33.3130   42.7770 F   0  0  0  0  0  0  0  0  0  0  0  0
  1  2  2  0  0  0  0
  1  6  1  0  0  0  0
  2  3  1  0  0  0  0
  3 11  1  0  0  0  0
  3  4  2  0  0  0  0
  4  9  1  0  0  0  0
  5  4  1  0  0  0  0
  5  7  1  0  0  0  0
  6  5  2  0  0  0  0
  7  8  1  0  0  0  0
  8 13  1  1  0  0  0
  9  8  1  0  0  0  0
 10  1  1  0  0  0  0
 12  6  1  0  0  0  0
 15 14  1  0  0  0  0
 15  8  1  0  0  0  0
 16 15  2  0  0  0  0
 17 16  1  0  0  0  0
 18 20  2  0  0  0  0
 18 16  1  0  0  0  0
 19 18  1  0  0  0  0
 20 21  1  0  0  0  0
 21 14  2  0  0  0  0
 22 24  1  0  0  0  0
 23 14  1  1  0  0  0
 23 22  1  0  0  0  0
 23 24  1  0  0  0  0
 24 26  1  0  0  0  0
 24 27  1  0  0  0  0
 25 22  1  0  0  0  0
 28  2  1  0  0  0  0
 29 28  1  0  0  0  0
 29 34  1  0  0  0  0
 30 29  2  0  0  0  0
 31 30  1  0  0  0  0
 31 32  2  0  0  0  0
 32 33  1  0  0  0  0
 33 34  2  0  0  0  0
 33 42  1  0  0  0  0
 35 37  1  0  0  0  0
 35 31  1  0  0  0  0
 36 35  1  0  0  0  0
 38 39  1  0  0  0  0
 38 30  1  0  0  0  0
 40 38  1  0  0  0  0
 41 38  1  0  0  0  0
 42 43  1  0  0  0  0
 43 46  1  0  0  0  0
 43 45  1  0  0  0  0
 44 43  1  0  0  0  0
M  END
>  <minimizedAffinity>
-7.29083729

$$$$

 OpenBabel03242515473D

 46 50  0  0  1  0  0  0  0  0999 V2000
   36.3680   30.7320   39.9070 C   0  0  0  0  0  0  0  0  0  0  0  0
   37.0070   29.7690   39.1220 C   0  0  0  0  0  0  0  0  0  0  0  0
   38.2920   29.9660   38.6620 C   0  0  0  0  0  0  0  0  0  0  0  0
   38.9780   31.1130   38.9640 C   0  0  0  0  0  0  0  0  0  0  0  0
   38.3570   32.0720   39.7400 C   0  0  0  0  0  0  0  0  0  0  0  0
   37.0840   31.9120   40.2130 C   0  0  0  0  0  0  0  0  0  0  0  0
   39.2830   33.1310   39.8910 O   0  0  0  0  0  0  0  0  0  0  0  0
   40.3440   32.9000   39.0230 C   0  0  2  0  0  0  0  0  0  0  0  0
   40.2560   31.5680   38.6430 O   0  0  0  0  0  0  0  0  0  0  0  0
   35.3840   30.6550   40.2970 H   0  0  0  0  0  0  0  0  0  0  0  0
   38.7040   29.1680   38.0620 H   0  0  0  0  0  0  0  0  0  0  0  0
   36.5890   32.6640   40.8260 H   0  0  0  0  0  0  0  0  0  0  0  0
   40.3360   33.5870   38.1340 H   0  0  0  0  0  0  0  0  0  0  0  0
   42.7370   33.7630   39.2930 C   0  0  0  0  0  0  0  0  0  0  0  0
   41.6130   33.1400   39.7380 C   0  0  0  0  0  0  0  0  0  0  0  0
   41.6260   32.6590   41.0530 C   0  0  0  0  0  0  0  0  0  0  0  0
   40.7870   32.1400   41.5310 H   0  0  0  0  0  0  0  0  0  0  0  0
   42.7810   32.8660   41.7640 C   0  0  0  0  0  0  0  0  0  0  0  0
   42.8100   32.4970   42.7900 H   0  0  0  0  0  0  0  0  0  0  0  0
   43.9280   33.4940   41.3290 C   0  0  0  0  0  3  0  0  0  0  0  0
   43.8810   33.9510   40.0450 C   0  0  0  0  0  3  0  0  0  0  0  0
   42.9330   34.4210   36.6840 N   0  0  0  0  0  0  0  0  0  0  0  0
   42.8000   34.2610   37.9340 C   0  0  1  0  0  3  0  0  0  0  0  0
   42.4160   35.6540   37.7990 N   0  0  0  0  0  4  0  0  0  0  0  0
   43.2220   33.7890   35.9470 H   0  0  0  0  0  0  0  0  0  0  0  0
   42.8780   36.5090   38.2100 H   0  0  0  0  0  0  0  0  0  0  0  0
   42.0360   36.6150   37.6280 H   0  0  0  0  0  0  0  0  0  0  0  0
   35.9900   28.3270   38.8270 S   0  0  0  0  0  0  0  0  0  0  0  0
   36.4950   26.9810   39.9470 C   0  0  0  0  0  0  0  0  0  0  0  0
   36.3350   25.7270   39.4810 C   0  0  0  0  0  0  0  0  0  0  0  0
   36.7080   24.7050   40.3620 C   0  0  0  0  0  0  0  0  0  0  0  0
   37.1930   24.9980   41.5880 N   0  0  0  0  0  0  0  0  0  0  0  0
   37.3360   26.2500   42.0100 C   0  0  0  0  0  0  0  0  0  0  0  0
   36.9780   27.2040   41.1650 N   0  0  0  0  0  0  0  0  0  0  0  0
   36.5550   23.3270   39.9610 N   0  0  0  0  0  0  0  0  0  0  0  0
   37.1760   22.8210   39.2950 H   0  0  0  0  0  0  0  0  0  0  0  0
   35.8550   22.5980   40.2220 H   0  0  0  0  0  0  0  0  0  0  0  0
   35.8570   25.1440   38.1830 C   0  0  0  0  0  0  0  0  0  0  0  0
   34.8090   24.8220   38.3420 H   0  0  0  0  0  0  0  0  0  0  0  0
   35.9490   25.9050   37.3680 H   0  0  0  0  0  0  0  0  0  0  0  0
   36.5190   24.3120   37.8510 H   0  0  0  0  0  0  0  0  0  0  0  0
   37.8240   26.6150   43.2400 O   0  0  0  0  0  0  0  0  0  0  0  0
   39.1480   27.1010   43.3110 C   0  0  0  0  0  0  0  0  0  0  0  0
   39.8990   26.7020   42.2500 F   0  0  0  0  0  0  0  0  0  0  0  0
   39.0490   28.5070   43.4030 F   0  0  0  0  0  0  0  0  0  0  0  0
   39.7270   26.5940   44.4740 F   0  0  0  0  0  0  0  0  0  0  0  0
  1  6  1  0  0  0  0
  1 10  1  0  0  0  0
  2  1  2  0  0  0  0
  3  4  2  0  0  0  0
  3  2  1  0  0  0  0
  4  5  1  0  0  0  0
  5  7  1  0  0  0  0
  5  6  2  0  0  0  0
  6 12  1  0  0  0  0
  8 13  1  6  0  0  0
  8 15  1  0  0  0  0
  8  7  1  0  0  0  0
  9  4  1  0  0  0  0
  9  8  1  0  0  0  0
 11  3  1  0  0  0  0
 14 15  2  0  0  0  0
 14 21  1  0  0  0  0
 15 16  1  0  0  0  0
 16 17  1  0  0  0  0
 16 18  2  0  0  0  0
 18 19  1  0  0  0  0
 20 18  1  0  0  0  0
 21 20  2  0  0  0  0
 22 24  1  0  0  0  0
 22 23  1  0  0  0  0
 23 14  1  6  0  0  0
 24 23  1  0  0  0  0
 24 26  1  0  0  0  0
 25 22  1  0  0  0  0
 27 24  1  0  0  0  0
 28  2  1  0  0  0  0
 28 29  1  0  0  0  0
 29 34  1  0  0  0  0
 30 29  2  0  0  0  0
 30 31  1  0  0  0  0
 31 32  2  0  0  0  0
 32 33  1  0  0  0  0
 33 42  1  0  0  0  0
 34 33  2  0  0  0  0
 35 37  1  0  0  0  0
 35 31  1  0  0  0  0
 36 35  1  0  0  0  0
 38 39  1  0  0  0  0
 38 30  1  0  0  0  0
 40 38  1  0  0  0  0
 41 38  1  0  0  0  0
 42 43  1  0  0  0  0
 43 45  1  0  0  0  0
 43 46  1  0  0  0  0
 44 43  1  0  0  0  0
M  END
>  <minimizedAffinity>
-7.26511097

$$$$

 OpenBabel03242515473D

 46 50  0  0  1  0  0  0  0  0999 V2000
   36.5700   30.3830   39.1880 C   0  0  0  0  0  0  0  0  0  0  0  0
   37.2880   29.3710   39.8290 C   0  0  0  0  0  0  0  0  0  0  0  0
   38.6300   29.5180   40.1070 C   0  0  0  0  0  0  0  0  0  0  0  0
   39.2960   30.6650   39.7630 C   0  0  0  0  0  0  0  0  0  0  0  0
   38.5970   31.6730   39.1290 C   0  0  0  0  0  0  0  0  0  0  0  0
   37.2660   31.5620   38.8350 C   0  0  0  0  0  0  0  0  0  0  0  0
   39.5210   32.7200   38.8950 O   0  0  0  0  0  0  0  0  0  0  0  0
   40.7940   32.2390   39.1780 C   0  0  2  0  0  0  0  0  0  0  0  0
   40.6190   31.0770   39.9180 O   0  0  0  0  0  0  0  0  0  0  0  0
   35.5380   30.3450   38.9390 H   0  0  0  0  0  0  0  0  0  0  0  0
   39.1010   28.6840   40.6050 H   0  0  0  0  0  0  0  0  0  0  0  0
   36.7090   32.3540   38.3370 H   0  0  0  0  0  0  0  0  0  0  0  0
   41.4040   32.0550   38.2520 H   0  0  0  0  0  0  0  0  0  0  0  0
   41.0700   34.4220   40.4840 C   0  0  0  0  0  0  0  0  0  0  0  0
   41.5230   33.2440   39.9780 C   0  0  0  0  0  0  0  0  0  0  0  0
   42.8550   32.9030   40.2420 C   0  0  0  0  0  0  0  0  0  0  0  0
   43.3410   31.9860   39.8920 H   0  0  0  0  0  0  0  0  0  0  0  0
   43.5730   33.8010   40.9910 C   0  0  0  0  0  0  0  0  0  0  0  0
   44.6130   33.5540   41.2060 H   0  0  0  0  0  0  0  0  0  0  0  0
   43.1300   34.9980   41.5110 C   0  0  0  0  0  3  0  0  0  0  0  0
   41.8290   35.2970   41.2350 C   0  0  0  0  0  3  0  0  0  0  0  0
   38.6290   35.2970   39.7400 N   0  0  0  0  0  0  0  0  0  0  0  0
   39.7080   34.8460   40.2250 C   0  0  1  0  0  3  0  0  0  0  0  0
   38.7870   34.5610   41.3090 N   0  0  0  0  0  4  0  0  0  0  0  0
   38.4170   35.7400   38.8540 H   0  0  0  0  0  0  0  0  0  0  0  0
   38.7920   34.9350   42.2960 H   0  0  0  0  0  0  0  0  0  0  0  0
   38.0600   34.2720   42.0060 H   0  0  0  0  0  0  0  0  0  0  0  0
   36.2780   27.9480   40.2250 S   0  0  0  0  0  0  0  0  0  0  0  0
   37.2620   26.7410   41.1720 C   0  0  0  0  0  0  0  0  0  0  0  0
   37.1430   25.4520   40.8000 C   0  0  0  0  0  0  0  0  0  0  0  0
   37.8890   24.5370   41.5510 C   0  0  0  0  0  0  0  0  0  0  0  0
   38.6670   24.9580   42.5720 N   0  0  0  0  0  0  0  0  0  0  0  0
   38.7580   26.2410   42.9070 C   0  0  0  0  0  0  0  0  0  0  0  0
   38.0450   27.0930   42.1860 N   0  0  0  0  0  0  0  0  0  0  0  0
   37.8110   23.1290   41.2420 N   0  0  0  0  0  0  0  0  0  0  0  0
   38.2730   22.6640   40.4310 H   0  0  0  0  0  0  0  0  0  0  0  0
   37.3230   22.3370   41.7130 H   0  0  0  0  0  0  0  0  0  0  0  0
   36.3890   24.7400   39.7140 C   0  0  0  0  0  0  0  0  0  0  0  0
   35.4860   24.3030   40.1840 H   0  0  0  0  0  0  0  0  0  0  0  0
   36.1370   25.4570   38.8940 H   0  0  0  0  0  0  0  0  0  0  0  0
   37.0310   23.9770   39.2170 H   0  0  0  0  0  0  0  0  0  0  0  0
   39.5300   26.7350   43.9290 O   0  0  0  0  0  0  0  0  0  0  0  0
   40.7410   27.3800   43.5940 C   0  0  0  0  0  0  0  0  0  0  0  0
   40.5540   28.6890   43.2780 F   0  0  0  0  0  0  0  0  0  0  0  0
   41.6000   27.2100   44.7020 F   0  0  0  0  0  0  0  0  0  0  0  0
   41.2760   26.7320   42.4800 F   0  0  0  0  0  0  0  0  0  0  0  0
  1  2  1  0  0  0  0
  2  3  2  0  0  0  0
  2 28  1  0  0  0  0
  3 11  1  0  0  0  0
  4  9  1  0  0  0  0
  4  3  1  0  0  0  0
  5  4  2  0  0  0  0
  6  5  1  0  0  0  0
  6  1  2  0  0  0  0
  7  5  1  0  0  0  0
  7  8  1  0  0  0  0
  8 13  1  6  0  0  0
  8  9  1  0  0  0  0
  8 15  1  0  0  0  0
 10  1  1  0  0  0  0
 12  6  1  0  0  0  0
 14 21  1  0  0  0  0
 15 16  1  0  0  0  0
 15 14  2  0  0  0  0
 16 18  2  0  0  0  0
 17 16  1  0  0  0  0
 18 19  1  0  0  0  0
 18 20  1  0  0  0  0
 21 20  2  0  0  0  0
 22 23  1  0  0  0  0
 22 24  1  0  0  0  0
 23 14  1  6  0  0  0
 23 24  1  0  0  0  0
 24 27  1  0  0  0  0
 24 26  1  0  0  0  0
 25 22  1  0  0  0  0
 28 29  1  0  0  0  0
 29 34  1  0  0  0  0
 30 29  2  0  0  0  0
 30 31  1  0  0  0  0
 31 32  2  0  0  0  0
 32 33  1  0  0  0  0
 33 42  1  0  0  0  0
 34 33  2  0  0  0  0
 35 31  1  0  0  0  0
 35 37  1  0  0  0  0
 36 35  1  0  0  0  0
 38 39  1  0  0  0  0
 38 30  1  0  0  0  0
 40 38  1  0  0  0  0
 41 38  1  0  0  0  0
 43 42  1  0  0  0  0
 43 45  1  0  0  0  0
 44 43  1  0  0  0  0
 46 43  1  0  0  0  0
M  END
>  <minimizedAffinity>
-7.16479158

$$$$

 OpenBabel03242515473D

 46 50  0  0  1  0  0  0  0  0999 V2000
   36.8580   31.9910   40.3070 C   0  0  0  0  0  0  0  0  0  0  0  0
   37.4170   30.7130   40.3640 C   0  0  0  0  0  0  0  0  0  0  0  0
   38.7600   30.5130   40.1200 C   0  0  0  0  0  0  0  0  0  0  0  0
   39.5820   31.5670   39.8160 C   0  0  0  0  0  0  0  0  0  0  0  0
   39.0400   32.8350   39.7570 C   0  0  0  0  0  0  0  0  0  0  0  0
   37.7140   33.0710   39.9920 C   0  0  0  0  0  0  0  0  0  0  0  0
   40.1010   33.7130   39.4280 O   0  0  0  0  0  0  0  0  0  0  0  0
   41.1990   32.9410   39.0700 C   0  0  2  0  0  0  0  0  0  0  0  0
   40.9440   31.6570   39.5300 O   0  0  0  0  0  0  0  0  0  0  0  0
   35.8370   32.2260   40.4810 H   0  0  0  0  0  0  0  0  0  0  0  0
   39.1030   29.4920   40.1860 H   0  0  0  0  0  0  0  0  0  0  0  0
   37.2800   34.0690   39.9490 H   0  0  0  0  0  0  0  0  0  0  0  0
   41.3990   32.9550   37.9640 H   0  0  0  0  0  0  0  0  0  0  0  0
   43.6410   33.6970   39.2010 C   0  0  0  0  0  0  0  0  0  0  0  0
   42.4050   33.4830   39.7280 C   0  0  0  0  0  0  0  0  0  0  0  0
   42.2150   33.8230   41.0740 C   0  0  0  0  0  0  0  0  0  0  0  0
   41.2710   33.7010   41.6160 H   0  0  0  0  0  0  0  0  0  0  0  0
   43.3050   34.3420   41.7270 C   0  0  0  0  0  0  0  0  0  0  0  0
   43.1760   34.6120   42.7760 H   0  0  0  0  0  0  0  0  0  0  0  0
   44.5620   34.5640   41.2090 C   0  0  0  0  0  3  0  0  0  0  0  0
   44.7110   34.2230   39.8980 C   0  0  0  0  0  3  0  0  0  0  0  0
   44.2710   32.7950   36.7380 N   0  0  0  0  0  0  0  0  0  0  0  0
   43.9120   33.3420   37.8220 C   0  0  1  0  0  3  0  0  0  0  0  0
   43.3940   34.2940   36.8580 N   0  0  0  0  0  4  0  0  0  0  0  0
   44.7760   31.9390   36.5460 H   0  0  0  0  0  0  0  0  0  0  0  0
   43.6560   35.3080   36.7230 H   0  0  0  0  0  0  0  0  0  0  0  0
   42.9400   34.8820   36.1180 H   0  0  0  0  0  0  0  0  0  0  0  0
   36.2220   29.4490   40.7850 S   0  0  0  0  0  0  0  0  0  0  0  0
   37.0880   27.9060   41.2210 C   0  0  0  0  0  0  0  0  0  0  0  0
   37.7720   27.9130   42.3820 C   0  0  0  0  0  0  0  0  0  0  0  0
   38.4480   26.7280   42.6900 C   0  0  0  0  0  0  0  0  0  0  0  0
   38.3930   25.6680   41.8540 N   0  0  0  0  0  0  0  0  0  0  0  0
   37.7060   25.7010   40.7170 C   0  0  0  0  0  0  0  0  0  0  0  0
   37.0730   26.8300   40.4400 N   0  0  0  0  0  0  0  0  0  0  0  0
   39.2260   26.6450   43.9030 N   0  0  0  0  0  0  0  0  0  0  0  0
   38.8340   26.5350   44.8630 H   0  0  0  0  0  0  0  0  0  0  0  0
   40.2540   26.6740   44.0770 H   0  0  0  0  0  0  0  0  0  0  0  0
   37.9670   28.9220   43.4760 C   0  0  0  0  0  0  0  0  0  0  0  0
   38.9630   29.3820   43.3150 H   0  0  0  0  0  0  0  0  0  0  0  0
   37.1420   29.6760   43.4500 H   0  0  0  0  0  0  0  0  0  0  0  0
   37.8670   28.4470   44.4790 H   0  0  0  0  0  0  0  0  0  0  0  0
   37.6070   24.6610   39.8260 O   0  0  0  0  0  0  0  0  0  0  0  0
   36.9840   23.4710   40.2630 C   0  0  0  0  0  0  0  0  0  0  0  0
   37.8330   22.6740   40.9650 F   0  0  0  0  0  0  0  0  0  0  0  0
   35.8630   23.8670   41.0250 F   0  0  0  0  0  0  0  0  0  0  0  0
   36.5600   22.7720   39.1320 F   0  0  0  0  0  0  0  0  0  0  0  0
  1  2  1  0  0  0  0
  1 10  1  0  0  0  0
  2 28  1  0  0  0  0
  3 11  1  0  0  0  0
  3  2  2  0  0  0  0
  4  3  1  0  0  0  0
  5  4  2  0  0  0  0
  5  6  1  0  0  0  0
  6  1  2  0  0  0  0
  7  5  1  0  0  0  0
  8 13  1  6  0  0  0
  8  7  1  0  0  0  0
  8  9  1  0  0  0  0
  8 15  1  0  0  0  0
  9  4  1  0  0  0  0
 12  6  1  0  0  0  0
 14 15  2  0  0  0  0
 14 21  1  0  0  0  0
 15 16  1  0  0  0  0
 16 17  1  0  0  0  0
 16 18  2  0  0  0  0
 18 19  1  0  0  0  0
 20 18  1  0  0  0  0
 21 20  2  0  0  0  0
 22 24  1  0  0  0  0
 22 23  1  0  0  0  0
 23 14  1  6  0  0  0
 24 23  1  0  0  0  0
 25 22  1  0  0  0  0
 26 24  1  0  0  0  0
 27 24  1  0  0  0  0
 28 29  1  0  0  0  0
 29 30  1  0  0  0  0
 30 31  2  0  0  0  0
 30 38  1  0  0  0  0
 31 35  1  0  0  0  0
 32 31  1  0  0  0  0
 33 32  2  0  0  0  0
 34 33  1  0  0  0  0
 34 29  2  0  0  0  0
 35 37  1  0  0  0  0
 35 36  1  0  0  0  0
 38 41  1  0  0  0  0
 39 38  1  0  0  0  0
 40 38  1  0  0  0  0
 42 43  1  0  0  0  0
 42 33  1  0  0  0  0
 43 44  1  0  0  0  0
 43 45  1  0  0  0  0
 46 43  1  0  0  0  0
M  END
>  <minimizedAffinity>
-7.03107119

$$$$
