REMARK  Name = 
REMARK  6 active torsions:
REMARK  status: ('A' for Active; 'I' for Inactive)
REMARK    1  A    between atoms: C_2  and  C_14
REMARK    2  A    between atoms: C_5  and  C_9
REMARK    3  A    between atoms: C_15  and  C_16
REMARK    4  A    between atoms: C_16  and  N_17
REMARK    5  A    between atoms: C_21  and  C_43
REMARK    6  A    between atoms: C_40  and  C_42
REMARK                            x       y       z     vdW  Elec       q    Type
REMARK                         _______ _______ _______ _____ _____    ______ ____
ROOT
ATOM      1  N   UNL     1      49.280  34.326  41.510  0.00  0.00    +0.000 NA
ATOM      2  C   UNL     1      50.327  34.025  42.457  0.00  0.00    +0.000 C 
ATOM      3  C   UNL     1      50.988  32.759  42.017  0.00  0.00    +0.000 C 
ATOM      4  C   UNL     1      49.924  32.078  41.217  0.00  0.00    +0.000 C 
ATOM      5  C   UNL     1      48.894  33.126  40.858  0.00  0.00    +0.000 C 
ATOM      6  H   UNL     1      49.862  33.907  43.473  0.00  0.00    +0.000 HD
ATOM      7  H   UNL     1      51.069  34.861  42.489  0.00  0.00    +0.000 HD
ATOM      8  H   UNL     1      51.931  32.936  41.479  0.00  0.00    +0.000 HD
ATOM      9  H   UNL     1      51.191  32.138  42.922  0.00  0.00    +0.000 HD
ATOM     10  H   UNL     1      50.410  31.731  40.260  0.00  0.00    +0.000 HD
ATOM     11  H   UNL     1      49.504  31.168  41.667  0.00  0.00    +0.000 HD
ATOM     12  H   UNL     1      47.955  32.775  41.381  0.00  0.00    +0.000 HD
ENDROOT
BRANCH   5  14
ATOM     13  C   UNL     1      48.994  32.318  38.450  0.00  0.00    +0.000 A 
ATOM     14  C   UNL     1      48.615  33.187  39.430  0.00  0.00    +0.000 A 
ATOM     15  C   UNL     1      47.845  34.258  38.954  0.00  0.00    +0.000 A 
ATOM     16  H   UNL     1      47.496  35.008  39.679  0.00  0.00    +0.000 HD
ATOM     17  C   UNL     1      47.527  34.379  37.619  0.00  0.00    +0.000 A 
ATOM     18  H   UNL     1      46.931  35.240  37.359  0.00  0.00    +0.000 HD
ATOM     19  C   UNL     1      47.940  33.466  36.674  0.00  0.00    +0.000 A 
ATOM     20  C   UNL     1      48.696  32.406  37.109  0.00  0.00    +0.000 A 
BRANCH  13  22
ATOM     21  N   UNL     1      50.704  30.590  39.494  0.00  0.00    +0.000 NA
ATOM     22  C   UNL     1      49.800  31.172  38.797  0.00  0.00    +0.000 C 
ATOM     23  N   UNL     1      49.656  29.918  38.099  0.00  0.00    +0.000 N 
ATOM     24  H   UNL     1      50.875  29.584  39.236  0.00  0.00    +0.000 HD
ATOM     25  H   UNL     1      50.014  29.870  37.100  0.00  0.00    +0.000 HD
ATOM     26  H   UNL     1      49.341  28.908  38.071  0.00  0.00    +0.000 HD
ENDBRANCH  13  22
ENDBRANCH   5  14
BRANCH   1  27
ATOM     27  C   UNL     1      48.172  34.932  42.215  0.00  0.00    +0.000 C 
ATOM     28  H   UNL     1      48.067  34.394  43.180  0.00  0.00    +0.000 HD
ATOM     29  H   UNL     1      48.325  35.992  42.443  0.00  0.00    +0.000 HD
BRANCH  27  31
ATOM     30  C   UNL     1      45.707  34.927  42.139  0.00  0.00    +0.000 C 
ATOM     31  C   UNL     1      46.867  34.712  41.490  0.00  0.00    +0.000 C 
BRANCH  30  33
ATOM     32  C   UNL     1      44.111  33.571  40.704  0.00  0.00    +0.000 A 
ATOM     33  C   UNL     1      44.409  34.728  41.478  0.00  0.00    +0.000 A 
ATOM     34  C   UNL     1      43.421  35.708  41.613  0.00  0.00    +0.000 A 
ATOM     35  N   UNL     1      42.223  35.513  41.000  0.00  0.00    +0.000 NA
ATOM     36  C   UNL     1      41.980  34.405  40.277  0.00  0.00    +0.000 A 
ATOM     37  N   UNL     1      42.922  33.456  40.140  0.00  0.00    +0.000 NA
ATOM     38  H   UNL     1      44.907  32.823  40.618  0.00  0.00    +0.000 HD
ATOM     39  H   UNL     1      43.603  36.603  42.192  0.00  0.00    +0.000 HD
BRANCH  36  42
ATOM     40  F   UNL     1      39.754  33.590  41.724  0.00  0.00    +0.000 F 
ATOM     41  C   UNL     1      39.580  33.825  40.396  0.00  0.00    +0.000 A 
ATOM     42  C   UNL     1      40.681  34.237  39.638  0.00  0.00    +0.000 A 
ATOM     43  C   UNL     1      40.587  34.495  38.290  0.00  0.00    +0.000 A 
ATOM     44  C   UNL     1      39.335  34.328  37.700  0.00  0.00    +0.000 A 
ATOM     45  C   UNL     1      38.214  33.916  38.436  0.00  0.00    +0.000 A 
ATOM     46  C   UNL     1      38.346  33.666  39.789  0.00  0.00    +0.000 A 
ATOM     47  H   UNL     1      41.440  34.808  37.736  0.00  0.00    +0.000 HD
ATOM     48  H   UNL     1      39.300  34.543  36.630  0.00  0.00    +0.000 HD
ATOM     49  H   UNL     1      37.291  33.814  37.901  0.00  0.00    +0.000 HD
ATOM     50  H   UNL     1      37.483  33.346  40.368  0.00  0.00    +0.000 HD
ENDBRANCH  36  42
ENDBRANCH  30  33
ENDBRANCH  27  31
ENDBRANCH   1  27
TORSDOF 6
