
 OpenBabel03252508273D

 44 49  0  0  1  0  0  0  0  0999 V2000
   38.2720   29.1980   42.7720 C   0  0  1  0  0  0  0  0  0  0  0  0
   37.3220   28.7420   43.7980 C   0  0  0  0  0  0  0  0  0  0  0  0
   37.7600   27.8610   42.5650 C   0  0  2  0  0  0  0  0  0  0  0  0
   39.2300   29.4680   43.3480 H   0  0  0  0  0  0  0  0  0  0  0  0
   37.5900   28.3270   44.7770 H   0  0  0  0  0  0  0  0  0  0  0  0
   36.3030   29.1510   43.7080 H   0  0  0  0  0  0  0  0  0  0  0  0
   36.7790   27.6270   42.0390 H   0  0  0  0  0  0  0  0  0  0  0  0
   38.5050   26.6190   42.7870 C   0  0  0  0  0  0  0  0  0  0  0  0
   39.5830   26.4310   43.5940 C   0  0  0  0  0  0  0  0  0  0  0  0
   40.3360   25.2690   43.6820 C   0  0  0  0  0  0  0  0  0  0  0  0
   39.9410   24.2030   42.8620 C   0  0  0  0  0  0  0  0  0  0  0  0
   38.8360   24.3660   42.0260 C   0  0  0  0  0  0  0  0  0  0  0  0
   38.4450   23.2690   41.2830 C   0  0  0  0  0  0  0  0  0  0  0  0
   37.3070   23.3650   40.4910 C   0  0  0  0  0  0  0  0  0  0  0  0
   36.5750   24.5310   40.4470 C   0  0  0  0  0  0  0  0  0  0  0  0
   37.0080   25.5940   41.2050 C   0  0  0  0  0  0  0  0  0  0  0  0
   38.1410   25.5520   42.0030 C   0  0  0  0  0  0  0  0  0  0  0  0
   39.8540   27.2850   44.2110 H   0  0  0  0  0  0  0  0  0  0  0  0
   41.1850   25.1910   44.3500 H   0  0  0  0  0  0  0  0  0  0  0  0
   40.5200   23.2900   42.9160 H   0  0  0  0  0  0  0  0  0  0  0  0
   39.0340   22.3640   41.3380 H   0  0  0  0  0  0  0  0  0  0  0  0
   37.0900   22.4340   39.9420 H   0  0  0  0  0  0  0  0  0  0  0  0
   35.7370   24.4100   39.7880 H   0  0  0  0  0  0  0  0  0  0  0  0
   36.2570   26.3190   41.0730 H   0  0  0  0  0  0  0  0  0  0  0  0
   36.2790   31.3520   40.5350 C   0  0  0  0  0  0  0  0  0  0  0  0
   37.2760   32.2470   40.0050 C   0  0  0  0  0  0  0  0  0  0  0  0
   38.6270   32.0740   40.4590 C   0  0  0  0  0  0  0  0  0  0  0  0
   38.9030   31.1100   41.3390 N   0  0  0  0  0  0  0  0  0  0  0  0
   37.9060   30.2820   41.8130 C   0  0  0  0  0  0  0  0  0  0  0  0
   36.6410   30.4020   41.4230 N   0  0  0  0  0  0  0  0  0  0  0  0
   35.2940   31.5420   40.1510 H   0  0  0  0  0  0  0  0  0  0  0  0
   36.9920   33.0100   39.2940 H   0  0  0  0  0  0  0  0  0  0  0  0
   39.6180   32.9540   39.9380 N   0  0  0  0  0  0  0  0  0  0  0  0
   39.9250   34.2110   40.3160 C   0  0  0  0  0  0  0  0  0  0  0  0
   39.3950   34.7060   41.1220 H   0  0  0  0  0  0  0  0  0  0  0  0
   40.9260   34.7230   39.5840 N   0  0  0  0  0  0  0  0  0  0  0  0
   41.2930   33.7700   38.6930 C   0  0  0  0  0  0  0  0  0  0  0  0
   42.2380   33.6820   37.6910 C   0  0  0  0  0  0  0  0  0  0  0  0
   42.8860   34.5490   37.5090 H   0  0  0  0  0  0  0  0  0  0  0  0
   42.3530   32.5480   36.9550 N   0  0  0  0  0  0  0  0  0  0  0  0
   41.5450   31.4850   37.1900 C   0  0  0  0  0  0  0  0  0  0  0  0
   41.6350   30.5760   36.6030 H   0  0  0  0  0  0  0  0  0  0  0  0
   40.6060   31.5520   38.1750 N   0  0  0  0  0  0  0  0  0  0  0  0
   40.4730   32.6580   38.9130 C   0  0  0  0  0  0  0  0  0  0  0  0
  1  4  1  1  0  0  0
  1  2  1  0  0  0  0
  2  5  1  0  0  0  0
  3  7  1  6  0  0  0
  3  1  1  0  0  0  0
  3  8  1  0  0  0  0
  3  2  1  0  0  0  0
  6  2  1  0  0  0  0
  8  9  1  0  0  0  0
  9 10  2  0  0  0  0
  9 18  1  0  0  0  0
 10 19  1  0  0  0  0
 11 20  1  0  0  0  0
 11 10  1  0  0  0  0
 12 11  2  0  0  0  0
 13 21  1  0  0  0  0
 13 12  1  0  0  0  0
 14 13  2  0  0  0  0
 15 14  1  0  0  0  0
 15 16  2  0  0  0  0
 16 17  1  0  0  0  0
 17 12  1  0  0  0  0
 17  8  2  0  0  0  0
 22 14  1  0  0  0  0
 23 15  1  0  0  0  0
 24 16  1  0  0  0  0
 25 30  1  0  0  0  0
 26 27  1  0  0  0  0
 26 25  2  0  0  0  0
 27 28  2  0  0  0  0
 28 29  1  0  0  0  0
 29  1  1  0  0  0  0
 30 29  2  0  0  0  0
 31 25  1  0  0  0  0
 32 26  1  0  0  0  0
 33 34  1  0  0  0  0
 33 27  1  0  0  0  0
 34 35  1  0  0  0  0
 36 34  2  0  0  0  0
 37 44  1  0  0  0  0
 37 36  1  0  0  0  0
 38 37  2  0  0  0  0
 39 38  1  0  0  0  0
 40 41  2  0  0  0  0
 40 38  1  0  0  0  0
 41 43  1  0  0  0  0
 42 41  1  0  0  0  0
 43 44  2  0  0  0  0
 44 33  1  0  0  0  0
M  END
>  <minimizedAffinity>
-7.57998657

$$$$

 OpenBabel03252508273D

 44 49  0  0  1  0  0  0  0  0999 V2000
   34.5820   28.6280   37.5770 C   0  0  1  0  0  0  0  0  0  0  0  0
   33.9050   27.4420   37.0310 C   0  0  0  0  0  0  0  0  0  0  0  0
   33.1410   28.7390   37.5030 C   0  0  2  0  0  0  0  0  0  0  0  0
   35.3220   28.9530   36.7600 H   0  0  0  0  0  0  0  0  0  0  0  0
   33.7920   27.2040   35.9670 H   0  0  0  0  0  0  0  0  0  0  0  0
   33.8080   26.5950   37.7290 H   0  0  0  0  0  0  0  0  0  0  0  0
   32.4300   28.3570   38.3040 H   0  0  0  0  0  0  0  0  0  0  0  0
   32.3970   29.5400   36.5280 C   0  0  0  0  0  0  0  0  0  0  0  0
   32.7330   29.7960   35.2350 C   0  0  0  0  0  0  0  0  0  0  0  0
   32.0640   30.6600   34.3810 C   0  0  0  0  0  0  0  0  0  0  0  0
   30.9470   31.3230   34.9080 C   0  0  0  0  0  0  0  0  0  0  0  0
   30.5770   31.0780   36.2310 C   0  0  0  0  0  0  0  0  0  0  0  0
   29.4350   31.7040   36.6890 C   0  0  0  0  0  0  0  0  0  0  0  0
   28.9890   31.4330   37.9770 C   0  0  0  0  0  0  0  0  0  0  0  0
   29.6710   30.5520   38.7870 C   0  0  0  0  0  0  0  0  0  0  0  0
   30.8040   29.9560   38.2840 C   0  0  0  0  0  0  0  0  0  0  0  0
   31.2940   30.2000   37.0100 C   0  0  0  0  0  0  0  0  0  0  0  0
   33.6060   29.2610   34.8690 H   0  0  0  0  0  0  0  0  0  0  0  0
   32.3890   30.8150   33.3590 H   0  0  0  0  0  0  0  0  0  0  0  0
   30.4160   32.0040   34.2550 H   0  0  0  0  0  0  0  0  0  0  0  0
   28.9150   32.3890   36.0320 H   0  0  0  0  0  0  0  0  0  0  0  0
   28.0720   31.9880   38.2370 H   0  0  0  0  0  0  0  0  0  0  0  0
   29.1750   30.4720   39.7350 H   0  0  0  0  0  0  0  0  0  0  0  0
   31.0890   29.2800   39.0380 H   0  0  0  0  0  0  0  0  0  0  0  0
   35.8770   29.6860   40.8660 C   0  0  0  0  0  0  0  0  0  0  0  0
   36.5320   28.4910   41.3350 C   0  0  0  0  0  0  0  0  0  0  0  0
   36.4910   27.3380   40.4810 C   0  0  0  0  0  0  0  0  0  0  0  0
   35.8590   27.4130   39.3090 N   0  0  0  0  0  0  0  0  0  0  0  0
   35.2480   28.5860   38.9120 C   0  0  0  0  0  0  0  0  0  0  0  0
   35.2590   29.6800   39.6660 N   0  0  0  0  0  0  0  0  0  0  0  0
   35.9490   30.5060   41.5570 H   0  0  0  0  0  0  0  0  0  0  0  0
   37.0280   28.4900   42.2950 H   0  0  0  0  0  0  0  0  0  0  0  0
   37.1370   26.1530   40.9380 N   0  0  0  0  0  0  0  0  0  0  0  0
   36.9470   24.8760   40.5520 C   0  0  0  0  0  0  0  0  0  0  0  0
   36.2180   24.6170   39.7910 H   0  0  0  0  0  0  0  0  0  0  0  0
   37.7480   24.0280   41.2140 N   0  0  0  0  0  0  0  0  0  0  0  0
   38.4940   24.7720   42.0660 C   0  0  0  0  0  0  0  0  0  0  0  0
   39.4770   24.5010   42.9960 C   0  0  0  0  0  0  0  0  0  0  0  0
   39.7840   23.4570   43.1390 H   0  0  0  0  0  0  0  0  0  0  0  0
   40.0420   25.5070   43.7100 N   0  0  0  0  0  0  0  0  0  0  0  0
   39.6530   26.7920   43.5230 C   0  0  0  0  0  0  0  0  0  0  0  0
   40.1030   27.6000   44.0930 H   0  0  0  0  0  0  0  0  0  0  0  0
   38.6840   27.0810   42.6100 N   0  0  0  0  0  0  0  0  0  0  0  0
   38.1120   26.1080   41.8940 C   0  0  0  0  0  0  0  0  0  0  0  0
  1  4  1  6  0  0  0
  1 29  1  0  0  0  0
  2  3  1  0  0  0  0
  2  1  1  0  0  0  0
  2  6  1  0  0  0  0
  3  1  1  0  0  0  0
  3  7  1  1  0  0  0
  5  2  1  0  0  0  0
  8 17  1  0  0  0  0
  8  3  1  0  0  0  0
  9  8  2  0  0  0  0
 10 11  2  0  0  0  0
 10  9  1  0  0  0  0
 11 12  1  0  0  0  0
 12 13  2  0  0  0  0
 12 17  1  0  0  0  0
 13 14  1  0  0  0  0
 14 22  1  0  0  0  0
 14 15  2  0  0  0  0
 15 23  1  0  0  0  0
 16 15  1  0  0  0  0
 16 24  1  0  0  0  0
 17 16  2  0  0  0  0
 18  9  1  0  0  0  0
 19 10  1  0  0  0  0
 20 11  1  0  0  0  0
 21 13  1  0  0  0  0
 25 26  1  0  0  0  0
 25 31  1  0  0  0  0
 26 32  1  0  0  0  0
 27 33  1  0  0  0  0
 27 26  2  0  0  0  0
 28 27  1  0  0  0  0
 29 28  2  0  0  0  0
 29 30  1  0  0  0  0
 30 25  2  0  0  0  0
 33 44  1  0  0  0  0
 34 33  1  0  0  0  0
 34 36  2  0  0  0  0
 35 34  1  0  0  0  0
 36 37  1  0  0  0  0
 37 38  1  0  0  0  0
 38 39  1  0  0  0  0
 38 40  2  0  0  0  0
 41 40  1  0  0  0  0
 41 42  1  0  0  0  0
 43 41  2  0  0  0  0
 44 37  2  0  0  0  0
 44 43  1  0  0  0  0
M  END
>  <minimizedAffinity>
-7.10461903

$$$$

 OpenBabel03252508273D

 44 49  0  0  1  0  0  0  0  0999 V2000
   37.6380   31.5840   40.9620 C   0  0  1  0  0  0  0  0  0  0  0  0
   36.5640   31.0840   40.0900 C   0  0  0  0  0  0  0  0  0  0  0  0
   37.7420   30.1810   40.6230 C   0  0  2  0  0  0  0  0  0  0  0  0
   37.1010   32.0140   41.8830 H   0  0  0  0  0  0  0  0  0  0  0  0
   35.5650   30.7780   40.4190 H   0  0  0  0  0  0  0  0  0  0  0  0
   36.6630   31.3530   39.0250 H   0  0  0  0  0  0  0  0  0  0  0  0
   38.2320   29.7880   39.6750 H   0  0  0  0  0  0  0  0  0  0  0  0
   37.4500   29.0630   41.5240 C   0  0  0  0  0  0  0  0  0  0  0  0
   37.4250   29.0780   42.8830 C   0  0  0  0  0  0  0  0  0  0  0  0
   37.2650   27.9690   43.7030 C   0  0  0  0  0  0  0  0  0  0  0  0
   37.1190   26.7320   43.0600 C   0  0  0  0  0  0  0  0  0  0  0  0
   37.1380   26.6870   41.6660 C   0  0  0  0  0  0  0  0  0  0  0  0
   36.9280   25.4560   41.0750 C   0  0  0  0  0  0  0  0  0  0  0  0
   36.8670   25.3770   39.6890 C   0  0  0  0  0  0  0  0  0  0  0  0
   37.0110   26.5050   38.9120 C   0  0  0  0  0  0  0  0  0  0  0  0
   37.2200   27.7060   39.5490 C   0  0  0  0  0  0  0  0  0  0  0  0
   37.2970   27.8360   40.9280 C   0  0  0  0  0  0  0  0  0  0  0  0
   37.5420   30.0590   43.3380 H   0  0  0  0  0  0  0  0  0  0  0  0
   37.2540   28.0570   44.7820 H   0  0  0  0  0  0  0  0  0  0  0  0
   36.9960   25.8560   43.6850 H   0  0  0  0  0  0  0  0  0  0  0  0
   36.8150   24.5850   41.7080 H   0  0  0  0  0  0  0  0  0  0  0  0
   36.6990   24.3490   39.3280 H   0  0  0  0  0  0  0  0  0  0  0  0
   36.9320   26.2440   37.8750 H   0  0  0  0  0  0  0  0  0  0  0  0
   37.2120   28.4100   38.7680 H   0  0  0  0  0  0  0  0  0  0  0  0
   39.4690   34.7230   40.3180 C   0  0  0  0  0  0  0  0  0  0  0  0
   40.5260   34.2850   39.4420 C   0  0  0  0  0  0  0  0  0  0  0  0
   40.5710   32.8900   39.1090 C   0  0  0  0  0  0  0  0  0  0  0  0
   39.6520   32.0650   39.6140 N   0  0  0  0  0  0  0  0  0  0  0  0
   38.6620   32.5420   40.4490 C   0  0  0  0  0  0  0  0  0  0  0  0
   38.5770   33.8240   40.7870 N   0  0  0  0  0  0  0  0  0  0  0  0
   39.4990   35.7770   40.5220 H   0  0  0  0  0  0  0  0  0  0  0  0
   41.2430   35.0000   39.0630 H   0  0  0  0  0  0  0  0  0  0  0  0
   41.6130   32.4500   38.2420 N   0  0  0  0  0  0  0  0  0  0  0  0
   41.5520   31.5920   37.2040 C   0  0  0  0  0  0  0  0  0  0  0  0
   40.6200   31.1200   36.9120 H   0  0  0  0  0  0  0  0  0  0  0  0
   42.7500   31.4240   36.6230 N   0  0  0  0  0  0  0  0  0  0  0  0
   43.6320   32.1980   37.3020 C   0  0  0  0  0  0  0  0  0  0  0  0
   44.9830   32.4580   37.2000 C   0  0  0  0  0  0  0  0  0  0  0  0
   45.5510   31.9570   36.4060 H   0  0  0  0  0  0  0  0  0  0  0  0
   45.5840   33.3120   38.0660 N   0  0  0  0  0  0  0  0  0  0  0  0
   44.8700   33.9240   39.0420 C   0  0  0  0  0  0  0  0  0  0  0  0
   45.3470   34.6100   39.7370 H   0  0  0  0  0  0  0  0  0  0  0  0
   43.5350   33.6810   39.1600 N   0  0  0  0  0  0  0  0  0  0  0  0
   42.9190   32.8430   38.3190 C   0  0  0  0  0  0  0  0  0  0  0  0
  1  4  1  1  0  0  0
  2  5  1  0  0  0  0
  2  3  1  0  0  0  0
  2  1  1  0  0  0  0
  3  7  1  6  0  0  0
  3  1  1  0  0  0  0
  3  8  1  0  0  0  0
  6  2  1  0  0  0  0
  8  9  1  0  0  0  0
  9 18  1  0  0  0  0
  9 10  2  0  0  0  0
 10 19  1  0  0  0  0
 11 20  1  0  0  0  0
 11 10  1  0  0  0  0
 12 11  2  0  0  0  0
 13 12  1  0  0  0  0
 13 21  1  0  0  0  0
 14 13  2  0  0  0  0
 15 16  2  0  0  0  0
 15 14  1  0  0  0  0
 16 17  1  0  0  0  0
 17  8  2  0  0  0  0
 17 12  1  0  0  0  0
 22 14  1  0  0  0  0
 23 15  1  0  0  0  0
 24 16  1  0  0  0  0
 25 31  1  0  0  0  0
 25 30  1  0  0  0  0
 26 25  2  0  0  0  0
 27 26  1  0  0  0  0
 27 28  2  0  0  0  0
 28 29  1  0  0  0  0
 29 30  2  0  0  0  0
 29  1  1  0  0  0  0
 32 26  1  0  0  0  0
 33 44  1  0  0  0  0
 33 27  1  0  0  0  0
 34 33  1  0  0  0  0
 35 34  1  0  0  0  0
 36 34  2  0  0  0  0
 36 37  1  0  0  0  0
 37 44  1  0  0  0  0
 38 37  2  0  0  0  0
 38 40  1  0  0  0  0
 39 38  1  0  0  0  0
 40 41  2  0  0  0  0
 41 43  1  0  0  0  0
 41 42  1  0  0  0  0
 44 43  2  0  0  0  0
M  END
>  <minimizedAffinity>
-6.92016172

$$$$

 OpenBabel03252508273D

 44 49  0  0  1  0  0  0  0  0999 V2000
   38.2310   30.9220   40.1640 C   0  0  1  0  0  0  0  0  0  0  0  0
   38.5830   29.8380   39.2340 C   0  0  0  0  0  0  0  0  0  0  0  0
   38.9620   29.8270   40.7650 C   0  0  2  0  0  0  0  0  0  0  0  0
   37.0870   31.0100   40.1020 H   0  0  0  0  0  0  0  0  0  0  0  0
   37.9180   29.0260   38.9190 H   0  0  0  0  0  0  0  0  0  0  0  0
   39.4370   30.0500   38.5700 H   0  0  0  0  0  0  0  0  0  0  0  0
   40.0960   29.7380   40.7620 H   0  0  0  0  0  0  0  0  0  0  0  0
   38.3920   28.8040   41.6470 C   0  0  0  0  0  0  0  0  0  0  0  0
   37.0780   28.5670   41.9010 C   0  0  0  0  0  0  0  0  0  0  0  0
   36.5840   27.6700   42.8380 C   0  0  0  0  0  0  0  0  0  0  0  0
   37.5320   26.9540   43.5800 C   0  0  0  0  0  0  0  0  0  0  0  0
   38.8890   27.1750   43.3390 C   0  0  0  0  0  0  0  0  0  0  0  0
   39.7860   26.4020   44.0490 C   0  0  0  0  0  0  0  0  0  0  0  0
   41.1440   26.5380   43.7890 C   0  0  0  0  0  0  0  0  0  0  0  0
   41.5940   27.4260   42.8360 C   0  0  0  0  0  0  0  0  0  0  0  0
   40.6590   28.1730   42.1580 C   0  0  0  0  0  0  0  0  0  0  0  0
   39.2940   28.0800   42.3870 C   0  0  0  0  0  0  0  0  0  0  0  0
   36.3790   29.1450   41.3020 H   0  0  0  0  0  0  0  0  0  0  0  0
   35.5200   27.5320   42.9860 H   0  0  0  0  0  0  0  0  0  0  0  0
   37.1630   26.2520   44.3180 H   0  0  0  0  0  0  0  0  0  0  0  0
   39.4080   25.7100   44.7900 H   0  0  0  0  0  0  0  0  0  0  0  0
   41.7670   25.8760   44.4130 H   0  0  0  0  0  0  0  0  0  0  0  0
   42.6640   27.3860   42.7780 H   0  0  0  0  0  0  0  0  0  0  0  0
   41.2260   28.6980   41.4440 H   0  0  0  0  0  0  0  0  0  0  0  0
   38.7440   34.5710   40.3520 C   0  0  0  0  0  0  0  0  0  0  0  0
   40.0650   34.7230   39.7970 C   0  0  0  0  0  0  0  0  0  0  0  0
   40.7460   33.5300   39.3800 C   0  0  0  0  0  0  0  0  0  0  0  0
   40.1430   32.3480   39.5200 N   0  0  0  0  0  0  0  0  0  0  0  0
   38.8750   32.2640   40.0590 C   0  0  0  0  0  0  0  0  0  0  0  0
   38.2040   33.3380   40.4590 N   0  0  0  0  0  0  0  0  0  0  0  0
   38.2980   35.5050   40.6410 H   0  0  0  0  0  0  0  0  0  0  0  0
   40.5030   35.7070   39.7090 H   0  0  0  0  0  0  0  0  0  0  0  0
   42.0520   33.6720   38.8300 N   0  0  0  0  0  0  0  0  0  0  0  0
   42.4550   33.5520   37.5490 C   0  0  0  0  0  0  0  0  0  0  0  0
   41.7560   33.3150   36.7550 H   0  0  0  0  0  0  0  0  0  0  0  0
   43.7740   33.7570   37.4180 N   0  0  0  0  0  0  0  0  0  0  0  0
   44.2590   34.0240   38.6550 C   0  0  0  0  0  0  0  0  0  0  0  0
   45.5030   34.3130   39.1750 C   0  0  0  0  0  0  0  0  0  0  0  0
   46.3570   34.3570   38.4870 H   0  0  0  0  0  0  0  0  0  0  0  0
   45.6560   34.5360   40.5050 N   0  0  0  0  0  0  0  0  0  0  0  0
   44.5930   34.4780   41.3430 C   0  0  0  0  0  0  0  0  0  0  0  0
   44.7110   34.6560   42.4080 H   0  0  0  0  0  0  0  0  0  0  0  0
   43.3550   34.1930   40.8500 N   0  0  0  0  0  0  0  0  0  0  0  0
   43.1790   33.9700   39.5440 C   0  0  0  0  0  0  0  0  0  0  0  0
  1  4  1  1  0  0  0
  1  3  1  0  0  0  0
  2  1  1  0  0  0  0
  2  3  1  0  0  0  0
  3  7  1  1  0  0  0
  3  8  1  0  0  0  0
  5  2  1  0  0  0  0
  6  2  1  0  0  0  0
  8  9  2  0  0  0  0
  8 17  1  0  0  0  0
  9 10  1  0  0  0  0
 10 19  1  0  0  0  0
 10 11  2  0  0  0  0
 11 20  1  0  0  0  0
 12 11  1  0  0  0  0
 12 13  1  0  0  0  0
 13 21  1  0  0  0  0
 14 13  2  0  0  0  0
 14 22  1  0  0  0  0
 15 14  1  0  0  0  0
 16 17  1  0  0  0  0
 16 15  2  0  0  0  0
 17 12  2  0  0  0  0
 18  9  1  0  0  0  0
 23 15  1  0  0  0  0
 24 16  1  0  0  0  0
 25 30  1  0  0  0  0
 25 31  1  0  0  0  0
 26 25  2  0  0  0  0
 27 28  2  0  0  0  0
 27 26  1  0  0  0  0
 28 29  1  0  0  0  0
 29  1  1  0  0  0  0
 29 30  2  0  0  0  0
 32 26  1  0  0  0  0
 33 27  1  0  0  0  0
 33 44  1  0  0  0  0
 34 33  1  0  0  0  0
 35 34  1  0  0  0  0
 36 34  2  0  0  0  0
 36 37  1  0  0  0  0
 37 38  2  0  0  0  0
 37 44  1  0  0  0  0
 38 40  1  0  0  0  0
 39 38  1  0  0  0  0
 40 41  2  0  0  0  0
 41 42  1  0  0  0  0
 43 41  1  0  0  0  0
 44 43  2  0  0  0  0
M  END
>  <minimizedAffinity>
-6.8898406

$$$$

 OpenBabel03252508273D

 44 49  0  0  1  0  0  0  0  0999 V2000
   37.6450   31.1910   39.0900 C   0  0  1  0  0  0  0  0  0  0  0  0
   37.6900   30.5900   37.7480 C   0  0  0  0  0  0  0  0  0  0  0  0
   38.3390   29.9230   39.0220 C   0  0  2  0  0  0  0  0  0  0  0  0
   36.5270   31.3320   39.3180 H   0  0  0  0  0  0  0  0  0  0  0  0
   36.8880   30.0070   37.2820 H   0  0  0  0  0  0  0  0  0  0  0  0
   38.4280   31.0360   37.0610 H   0  0  0  0  0  0  0  0  0  0  0  0
   39.4340   29.8090   38.7390 H   0  0  0  0  0  0  0  0  0  0  0  0
   37.8240   28.6420   39.5120 C   0  0  0  0  0  0  0  0  0  0  0  0
   37.3030   27.6220   38.7800 C   0  0  0  0  0  0  0  0  0  0  0  0
   36.7120   26.4760   39.2930 C   0  0  0  0  0  0  0  0  0  0  0  0
   36.6530   26.3730   40.6900 C   0  0  0  0  0  0  0  0  0  0  0  0
   37.1830   27.4040   41.4670 C   0  0  0  0  0  0  0  0  0  0  0  0
   37.1590   27.2310   42.8370 C   0  0  0  0  0  0  0  0  0  0  0  0
   37.7400   28.2000   43.6470 C   0  0  0  0  0  0  0  0  0  0  0  0
   38.3340   29.3140   43.0970 C   0  0  0  0  0  0  0  0  0  0  0  0
   38.3300   29.4390   41.7270 C   0  0  0  0  0  0  0  0  0  0  0  0
   37.7550   28.5050   40.8770 C   0  0  0  0  0  0  0  0  0  0  0  0
   37.3700   27.7440   37.7020 H   0  0  0  0  0  0  0  0  0  0  0  0
   36.3180   25.7010   38.6470 H   0  0  0  0  0  0  0  0  0  0  0  0
   36.1920   25.4860   41.1070 H   0  0  0  0  0  0  0  0  0  0  0  0
   36.6890   26.3460   43.2450 H   0  0  0  0  0  0  0  0  0  0  0  0
   37.6610   27.9610   44.7200 H   0  0  0  0  0  0  0  0  0  0  0  0
   38.7260   29.9390   43.8760 H   0  0  0  0  0  0  0  0  0  0  0  0
   38.9020   30.3030   41.5510 H   0  0  0  0  0  0  0  0  0  0  0  0
   38.4620   34.5700   40.3260 C   0  0  0  0  0  0  0  0  0  0  0  0
   39.8340   34.7230   39.9110 C   0  0  0  0  0  0  0  0  0  0  0  0
   40.4390   33.6240   39.2150 C   0  0  0  0  0  0  0  0  0  0  0  0
   39.7230   32.5220   38.9820 N   0  0  0  0  0  0  0  0  0  0  0  0
   38.4120   32.4320   39.4030 C   0  0  0  0  0  0  0  0  0  0  0  0
   37.8070   33.4220   40.0520 N   0  0  0  0  0  0  0  0  0  0  0  0
   38.0780   35.4310   40.8410 H   0  0  0  0  0  0  0  0  0  0  0  0
   40.3630   35.6400   40.1280 H   0  0  0  0  0  0  0  0  0  0  0  0
   41.7940   33.7680   38.8010 N   0  0  0  0  0  0  0  0  0  0  0  0
   42.3050   33.8090   37.5540 C   0  0  0  0  0  0  0  0  0  0  0  0
   41.6700   33.7280   36.6790 H   0  0  0  0  0  0  0  0  0  0  0  0
   43.6380   33.9560   37.5630 N   0  0  0  0  0  0  0  0  0  0  0  0
   44.0210   34.0150   38.8630 C   0  0  0  0  0  0  0  0  0  0  0  0
   45.2250   34.1560   39.5200 C   0  0  0  0  0  0  0  0  0  0  0  0
   46.1390   34.2490   38.9190 H   0  0  0  0  0  0  0  0  0  0  0  0
   45.2680   34.1780   40.8760 N   0  0  0  0  0  0  0  0  0  0  0  0
   44.1320   34.0620   41.6060 C   0  0  0  0  0  0  0  0  0  0  0  0
   44.1620   34.0800   42.6920 H   0  0  0  0  0  0  0  0  0  0  0  0
   42.9320   33.9210   40.9760 N   0  0  0  0  0  0  0  0  0  0  0  0
   42.8640   33.8970   39.6410 C   0  0  0  0  0  0  0  0  0  0  0  0
  1  4  1  1  0  0  0
  1 29  1  0  0  0  0
  2  3  1  0  0  0  0
  2  1  1  0  0  0  0
  3  7  1  1  0  0  0
  3  1  1  0  0  0  0
  3  8  1  0  0  0  0
  5  2  1  0  0  0  0
  6  2  1  0  0  0  0
  8 17  1  0  0  0  0
  9 10  1  0  0  0  0
  9  8  2  0  0  0  0
 10 11  2  0  0  0  0
 11 20  1  0  0  0  0
 11 12  1  0  0  0  0
 12 13  1  0  0  0  0
 13 21  1  0  0  0  0
 13 14  2  0  0  0  0
 14 22  1  0  0  0  0
 15 14  1  0  0  0  0
 15 23  1  0  0  0  0
 16 15  2  0  0  0  0
 17 12  2  0  0  0  0
 17 16  1  0  0  0  0
 18  9  1  0  0  0  0
 19 10  1  0  0  0  0
 24 16  1  0  0  0  0
 25 31  1  0  0  0  0
 26 32  1  0  0  0  0
 26 25  2  0  0  0  0
 27 26  1  0  0  0  0
 28 27  2  0  0  0  0
 28 29  1  0  0  0  0
 29 30  2  0  0  0  0
 30 25  1  0  0  0  0
 33 27  1  0  0  0  0
 33 44  1  0  0  0  0
 34 36  2  0  0  0  0
 34 33  1  0  0  0  0
 35 34  1  0  0  0  0
 36 37  1  0  0  0  0
 37 38  2  0  0  0  0
 37 44  1  0  0  0  0
 38 40  1  0  0  0  0
 39 38  1  0  0  0  0
 40 41  2  0  0  0  0
 41 42  1  0  0  0  0
 43 41  1  0  0  0  0
 44 43  2  0  0  0  0
M  END
>  <minimizedAffinity>
-6.87566996

$$$$

 OpenBabel03252508273D

 44 49  0  0  1  0  0  0  0  0999 V2000
   34.0910   29.1060   35.2090 C   0  0  1  0  0  0  0  0  0  0  0  0
   33.0830   28.0350   35.2690 C   0  0  0  0  0  0  0  0  0  0  0  0
   32.9250   29.4200   36.0070 C   0  0  2  0  0  0  0  0  0  0  0  0
   34.2190   29.3350   34.0900 H   0  0  0  0  0  0  0  0  0  0  0  0
   32.3230   27.8320   34.5070 H   0  0  0  0  0  0  0  0  0  0  0  0
   33.3270   27.2000   35.9460 H   0  0  0  0  0  0  0  0  0  0  0  0
   32.8030   29.1310   37.1000 H   0  0  0  0  0  0  0  0  0  0  0  0
   31.8470   30.3320   35.6180 C   0  0  0  0  0  0  0  0  0  0  0  0
   31.7230   31.0210   34.4530 C   0  0  0  0  0  0  0  0  0  0  0  0
   30.7500   31.9700   34.1720 C   0  0  0  0  0  0  0  0  0  0  0  0
   29.8200   32.2330   35.1870 C   0  0  0  0  0  0  0  0  0  0  0  0
   29.9210   31.5390   36.3940 C   0  0  0  0  0  0  0  0  0  0  0  0
   28.9480   31.7840   37.3410 C   0  0  0  0  0  0  0  0  0  0  0  0
   28.9680   31.0630   38.5290 C   0  0  0  0  0  0  0  0  0  0  0  0
   29.9400   30.1150   38.7610 C   0  0  0  0  0  0  0  0  0  0  0  0
   30.8880   29.9090   37.7860 C   0  0  0  0  0  0  0  0  0  0  0  0
   30.9150   30.6100   36.5880 C   0  0  0  0  0  0  0  0  0  0  0  0
   32.4660   30.7850   33.6940 H   0  0  0  0  0  0  0  0  0  0  0  0
   30.7120   32.4800   33.2170 H   0  0  0  0  0  0  0  0  0  0  0  0
   29.0560   32.9730   34.9860 H   0  0  0  0  0  0  0  0  0  0  0  0
   28.1930   32.5320   37.1350 H   0  0  0  0  0  0  0  0  0  0  0  0
   28.1480   31.3420   39.2120 H   0  0  0  0  0  0  0  0  0  0  0  0
   29.7880   29.6660   39.7230 H   0  0  0  0  0  0  0  0  0  0  0  0
   31.4510   29.1000   38.1490 H   0  0  0  0  0  0  0  0  0  0  0  0
   37.6180   28.1910   35.7930 C   0  0  0  0  0  0  0  0  0  0  0  0
   37.8260   28.6280   37.1500 C   0  0  0  0  0  0  0  0  0  0  0  0
   36.7170   29.2450   37.8220 C   0  0  0  0  0  0  0  0  0  0  0  0
   35.5590   29.3890   37.1770 N   0  0  0  0  0  0  0  0  0  0  0  0
   35.4170   28.9510   35.8760 C   0  0  0  0  0  0  0  0  0  0  0  0
   36.4130   28.3740   35.2110 N   0  0  0  0  0  0  0  0  0  0  0  0
   38.4900   27.7410   35.3560 H   0  0  0  0  0  0  0  0  0  0  0  0
   38.7880   28.4840   37.6210 H   0  0  0  0  0  0  0  0  0  0  0  0
   36.9150   29.6780   39.1640 N   0  0  0  0  0  0  0  0  0  0  0  0
   37.0520   30.9300   39.6440 C   0  0  0  0  0  0  0  0  0  0  0  0
   37.0210   31.7940   38.9900 H   0  0  0  0  0  0  0  0  0  0  0  0
   37.2230   30.9410   40.9750 N   0  0  0  0  0  0  0  0  0  0  0  0
   37.1970   29.6500   41.3880 C   0  0  0  0  0  0  0  0  0  0  0  0
   37.3130   29.0110   42.6050 C   0  0  0  0  0  0  0  0  0  0  0  0
   37.4650   29.6250   43.5020 H   0  0  0  0  0  0  0  0  0  0  0  0
   37.2400   27.6590   42.6800 N   0  0  0  0  0  0  0  0  0  0  0  0
   37.0520   26.9130   41.5640 C   0  0  0  0  0  0  0  0  0  0  0  0
   36.9930   25.8300   41.6200 H   0  0  0  0  0  0  0  0  0  0  0  0
   36.9350   27.5240   40.3520 N   0  0  0  0  0  0  0  0  0  0  0  0
   37.0040   28.8550   40.2520 C   0  0  0  0  0  0  0  0  0  0  0  0
  1  4  1  6  0  0  0
  1  2  1  0  0  0  0
  1 29  1  0  0  0  0
  1  3  1  0  0  0  0
  2  6  1  0  0  0  0
  2  3  1  0  0  0  0
  3  7  1  1  0  0  0
  5  2  1  0  0  0  0
  8  3  1  0  0  0  0
  8 17  1  0  0  0  0
  9  8  2  0  0  0  0
 10  9  1  0  0  0  0
 10 11  2  0  0  0  0
 11 12  1  0  0  0  0
 12 17  2  0  0  0  0
 12 13  1  0  0  0  0
 13 14  2  0  0  0  0
 14 15  1  0  0  0  0
 14 22  1  0  0  0  0
 15 23  1  0  0  0  0
 16 24  1  0  0  0  0
 16 15  2  0  0  0  0
 17 16  1  0  0  0  0
 18  9  1  0  0  0  0
 19 10  1  0  0  0  0
 20 11  1  0  0  0  0
 21 13  1  0  0  0  0
 25 26  1  0  0  0  0
 26 32  1  0  0  0  0
 26 27  2  0  0  0  0
 27 33  1  0  0  0  0
 28 27  1  0  0  0  0
 29 28  2  0  0  0  0
 30 25  2  0  0  0  0
 30 29  1  0  0  0  0
 31 25  1  0  0  0  0
 33 34  1  0  0  0  0
 33 44  1  0  0  0  0
 34 36  2  0  0  0  0
 35 34  1  0  0  0  0
 36 37  1  0  0  0  0
 37 38  1  0  0  0  0
 38 40  2  0  0  0  0
 38 39  1  0  0  0  0
 41 42  1  0  0  0  0
 41 40  1  0  0  0  0
 43 41  2  0  0  0  0
 44 43  1  0  0  0  0
 44 37  2  0  0  0  0
M  END
>  <minimizedAffinity>
-6.77469587

$$$$

 OpenBabel03252508273D

 44 49  0  0  1  0  0  0  0  0999 V2000
   38.2360   29.2740   41.6780 C   0  0  1  0  0  0  0  0  0  0  0  0
   37.6990   29.0820   43.0330 C   0  0  0  0  0  0  0  0  0  0  0  0
   37.0050   28.5150   41.7350 C   0  0  2  0  0  0  0  0  0  0  0  0
   39.2970   28.8340   41.7100 H   0  0  0  0  0  0  0  0  0  0  0  0
   38.0280   28.3190   43.7480 H   0  0  0  0  0  0  0  0  0  0  0  0
   37.1840   29.9570   43.4620 H   0  0  0  0  0  0  0  0  0  0  0  0
   35.9680   28.9820   41.7580 H   0  0  0  0  0  0  0  0  0  0  0  0
   36.8870   27.0670   41.5470 C   0  0  0  0  0  0  0  0  0  0  0  0
   37.1520   26.0890   42.4530 C   0  0  0  0  0  0  0  0  0  0  0  0
   37.1470   24.7250   42.1970 C   0  0  0  0  0  0  0  0  0  0  0  0
   36.8410   24.3350   40.8860 C   0  0  0  0  0  0  0  0  0  0  0  0
   36.5620   25.3180   39.9350 C   0  0  0  0  0  0  0  0  0  0  0  0
   36.2050   24.8850   38.6730 C   0  0  0  0  0  0  0  0  0  0  0  0
   35.8490   25.8270   37.7150 C   0  0  0  0  0  0  0  0  0  0  0  0
   35.8480   27.1720   38.0150 C   0  0  0  0  0  0  0  0  0  0  0  0
   36.2130   27.5500   39.2870 C   0  0  0  0  0  0  0  0  0  0  0  0
   36.5850   26.6490   40.2740 C   0  0  0  0  0  0  0  0  0  0  0  0
   37.3850   26.4370   43.4560 H   0  0  0  0  0  0  0  0  0  0  0  0
   37.3680   24.0000   42.9710 H   0  0  0  0  0  0  0  0  0  0  0  0
   36.8360   23.2740   40.6680 H   0  0  0  0  0  0  0  0  0  0  0  0
   36.2110   23.8240   38.4630 H   0  0  0  0  0  0  0  0  0  0  0  0
   35.5860   25.3720   36.7460 H   0  0  0  0  0  0  0  0  0  0  0  0
   35.5440   27.7360   37.1560 H   0  0  0  0  0  0  0  0  0  0  0  0
   36.0540   28.5890   39.2950 H   0  0  0  0  0  0  0  0  0  0  0  0
   37.0520   32.3740   40.0640 C   0  0  0  0  0  0  0  0  0  0  0  0
   38.2840   33.0750   39.8070 C   0  0  0  0  0  0  0  0  0  0  0  0
   39.5030   32.4390   40.2210 C   0  0  0  0  0  0  0  0  0  0  0  0
   39.4500   31.2470   40.8170 N   0  0  0  0  0  0  0  0  0  0  0  0
   38.2390   30.6220   41.0360 C   0  0  0  0  0  0  0  0  0  0  0  0
   37.0840   31.1690   40.6720 N   0  0  0  0  0  0  0  0  0  0  0  0
   36.1830   32.9100   39.7280 H   0  0  0  0  0  0  0  0  0  0  0  0
   38.2640   34.0400   39.3210 H   0  0  0  0  0  0  0  0  0  0  0  0
   40.7250   33.1250   39.9700 N   0  0  0  0  0  0  0  0  0  0  0  0
   41.2600   34.1790   40.6180 C   0  0  0  0  0  0  0  0  0  0  0  0
   40.7590   34.6380   41.4630 H   0  0  0  0  0  0  0  0  0  0  0  0
   42.4340   34.5510   40.0870 N   0  0  0  0  0  0  0  0  0  0  0  0
   42.6850   33.7110   39.0520 C   0  0  0  0  0  0  0  0  0  0  0  0
   43.7020   33.5720   38.1320 C   0  0  0  0  0  0  0  0  0  0  0  0
   44.5480   34.2700   38.1820 H   0  0  0  0  0  0  0  0  0  0  0  0
   43.6490   32.5950   37.1920 N   0  0  0  0  0  0  0  0  0  0  0  0
   42.5980   31.7400   37.1420 C   0  0  0  0  0  0  0  0  0  0  0  0
   42.5520   30.9570   36.3910 H   0  0  0  0  0  0  0  0  0  0  0  0
   41.5830   31.8600   38.0420 N   0  0  0  0  0  0  0  0  0  0  0  0
   41.6120   32.8150   38.9770 C   0  0  0  0  0  0  0  0  0  0  0  0
  1  4  1  6  0  0  0
  1  3  1  0  0  0  0
  1  2  1  0  0  0  0
  2  6  1  0  0  0  0
  2  5  1  0  0  0  0
  3  7  1  6  0  0  0
  3  2  1  0  0  0  0
  8  3  1  0  0  0  0
  8  9  1  0  0  0  0
  9 18  1  0  0  0  0
 10  9  2  0  0  0  0
 10 19  1  0  0  0  0
 11 10  1  0  0  0  0
 12 17  1  0  0  0  0
 12 11  2  0  0  0  0
 13 12  1  0  0  0  0
 14 15  1  0  0  0  0
 14 13  2  0  0  0  0
 15 16  2  0  0  0  0
 16 24  1  0  0  0  0
 16 17  1  0  0  0  0
 17  8  2  0  0  0  0
 20 11  1  0  0  0  0
 21 13  1  0  0  0  0
 22 14  1  0  0  0  0
 23 15  1  0  0  0  0
 25 30  1  0  0  0  0
 26 25  2  0  0  0  0
 26 27  1  0  0  0  0
 27 28  2  0  0  0  0
 28 29  1  0  0  0  0
 29  1  1  0  0  0  0
 30 29  2  0  0  0  0
 31 25  1  0  0  0  0
 32 26  1  0  0  0  0
 33 27  1  0  0  0  0
 33 34  1  0  0  0  0
 34 35  1  0  0  0  0
 36 34  2  0  0  0  0
 37 36  1  0  0  0  0
 38 39  1  0  0  0  0
 38 37  2  0  0  0  0
 40 38  1  0  0  0  0
 41 40  2  0  0  0  0
 41 43  1  0  0  0  0
 42 41  1  0  0  0  0
 43 44  2  0  0  0  0
 44 37  1  0  0  0  0
 44 33  1  0  0  0  0
M  END
>  <minimizedAffinity>
-6.75286055

$$$$

 OpenBabel03252508273D

 44 49  0  0  1  0  0  0  0  0999 V2000
   37.7540   31.6250   40.9580 C   0  0  1  0  0  0  0  0  0  0  0  0
   36.5870   31.2240   40.1570 C   0  0  0  0  0  0  0  0  0  0  0  0
   37.7390   30.2300   40.5730 C   0  0  2  0  0  0  0  0  0  0  0  0
   37.3160   32.0580   41.9290 H   0  0  0  0  0  0  0  0  0  0  0  0
   35.5970   30.9710   40.5530 H   0  0  0  0  0  0  0  0  0  0  0  0
   36.6240   31.5210   39.0960 H   0  0  0  0  0  0  0  0  0  0  0  0
   38.1300   29.8380   39.5800 H   0  0  0  0  0  0  0  0  0  0  0  0
   37.4410   29.1050   41.4630 C   0  0  0  0  0  0  0  0  0  0  0  0
   37.4260   29.1020   42.8220 C   0  0  0  0  0  0  0  0  0  0  0  0
   37.2600   27.9860   43.6290 C   0  0  0  0  0  0  0  0  0  0  0  0
   37.0960   26.7580   42.9720 C   0  0  0  0  0  0  0  0  0  0  0  0
   37.1050   26.7300   41.5770 C   0  0  0  0  0  0  0  0  0  0  0  0
   36.8780   25.5090   40.9730 C   0  0  0  0  0  0  0  0  0  0  0  0
   36.8070   25.4480   39.5870 C   0  0  0  0  0  0  0  0  0  0  0  0
   36.9570   26.5840   38.8220 C   0  0  0  0  0  0  0  0  0  0  0  0
   37.1830   27.7740   39.4730 C   0  0  0  0  0  0  0  0  0  0  0  0
   37.2710   27.8860   40.8520 C   0  0  0  0  0  0  0  0  0  0  0  0
   37.5570   30.0760   43.2880 H   0  0  0  0  0  0  0  0  0  0  0  0
   37.2570   28.0600   44.7090 H   0  0  0  0  0  0  0  0  0  0  0  0
   36.9690   25.8760   43.5870 H   0  0  0  0  0  0  0  0  0  0  0  0
   36.7600   24.6320   41.5960 H   0  0  0  0  0  0  0  0  0  0  0  0
   36.6240   24.4260   39.2140 H   0  0  0  0  0  0  0  0  0  0  0  0
   36.8680   26.3370   37.7820 H   0  0  0  0  0  0  0  0  0  0  0  0
   37.1770   28.4880   38.7000 H   0  0  0  0  0  0  0  0  0  0  0  0
   39.6800   34.6770   40.1890 C   0  0  0  0  0  0  0  0  0  0  0  0
   40.6960   34.1800   39.2970 C   0  0  0  0  0  0  0  0  0  0  0  0
   40.6820   32.7770   38.9980 C   0  0  0  0  0  0  0  0  0  0  0  0
   39.7480   31.9990   39.5470 N   0  0  0  0  0  0  0  0  0  0  0  0
   38.7980   32.5320   40.3950 C   0  0  0  0  0  0  0  0  0  0  0  0
   38.7690   33.8240   40.7030 N   0  0  0  0  0  0  0  0  0  0  0  0
   39.7540   35.7340   40.3660 H   0  0  0  0  0  0  0  0  0  0  0  0
   41.4290   34.8590   38.8830 H   0  0  0  0  0  0  0  0  0  0  0  0
   41.6840   32.2780   38.1160 N   0  0  0  0  0  0  0  0  0  0  0  0
   42.7940   32.8870   37.6550 C   0  0  0  0  0  0  0  0  0  0  0  0
   43.0440   33.9030   37.9420 H   0  0  0  0  0  0  0  0  0  0  0  0
   43.4990   32.0920   36.8360 N   0  0  0  0  0  0  0  0  0  0  0  0
   42.8300   30.9150   36.7550 C   0  0  0  0  0  0  0  0  0  0  0  0
   43.0300   29.7220   36.0930 C   0  0  0  0  0  0  0  0  0  0  0  0
   43.9220   29.6210   35.4600 H   0  0  0  0  0  0  0  0  0  0  0  0
   42.1420   28.7050   36.2260 N   0  0  0  0  0  0  0  0  0  0  0  0
   41.0450   28.8440   37.0110 C   0  0  0  0  0  0  0  0  0  0  0  0
   40.3320   28.0320   37.1210 H   0  0  0  0  0  0  0  0  0  0  0  0
   40.8290   30.0140   37.6730 N   0  0  0  0  0  0  0  0  0  0  0  0
   41.6890   31.0300   37.5580 C   0  0  0  0  0  0  0  0  0  0  0  0
  1  4  1  1  0  0  0
  2  5  1  0  0  0  0
  2  3  1  0  0  0  0
  2  1  1  0  0  0  0
  3  7  1  6  0  0  0
  3  1  1  0  0  0  0
  3  8  1  0  0  0  0
  6  2  1  0  0  0  0
  8  9  1  0  0  0  0
  9 18  1  0  0  0  0
  9 10  2  0  0  0  0
 10 19  1  0  0  0  0
 11 20  1  0  0  0  0
 11 10  1  0  0  0  0
 12 11  2  0  0  0  0
 13 12  1  0  0  0  0
 13 21  1  0  0  0  0
 14 13  2  0  0  0  0
 15 16  2  0  0  0  0
 15 14  1  0  0  0  0
 16 17  1  0  0  0  0
 17  8  2  0  0  0  0
 17 12  1  0  0  0  0
 22 14  1  0  0  0  0
 23 15  1  0  0  0  0
 24 16  1  0  0  0  0
 25 31  1  0  0  0  0
 25 30  1  0  0  0  0
 26 25  2  0  0  0  0
 27 26  1  0  0  0  0
 27 28  2  0  0  0  0
 28 29  1  0  0  0  0
 29 30  2  0  0  0  0
 29  1  1  0  0  0  0
 32 26  1  0  0  0  0
 33 27  1  0  0  0  0
 34 35  1  0  0  0  0
 34 33  1  0  0  0  0
 36 34  2  0  0  0  0
 37 36  1  0  0  0  0
 37 44  1  0  0  0  0
 38 40  1  0  0  0  0
 38 37  2  0  0  0  0
 39 38  1  0  0  0  0
 40 41  2  0  0  0  0
 41 42  1  0  0  0  0
 41 43  1  0  0  0  0
 44 43  2  0  0  0  0
 44 33  1  0  0  0  0
M  END
>  <minimizedAffinity>
-6.71649551

$$$$

 OpenBabel03252508273D

 44 49  0  0  1  0  0  0  0  0999 V2000
   35.9970   28.7760   39.4150 C   0  0  1  0  0  0  0  0  0  0  0  0
   35.5660   29.8620   40.3100 C   0  0  0  0  0  0  0  0  0  0  0  0
   35.8240   28.3840   40.7980 C   0  0  2  0  0  0  0  0  0  0  0  0
   36.9750   29.1490   38.9410 H   0  0  0  0  0  0  0  0  0  0  0  0
   36.2220   30.6150   40.7610 H   0  0  0  0  0  0  0  0  0  0  0  0
   34.4980   30.1250   40.2470 H   0  0  0  0  0  0  0  0  0  0  0  0
   34.8300   28.0730   41.2540 H   0  0  0  0  0  0  0  0  0  0  0  0
   36.9060   28.1110   41.7470 C   0  0  0  0  0  0  0  0  0  0  0  0
   37.5870   29.0070   42.5100 C   0  0  0  0  0  0  0  0  0  0  0  0
   38.6880   28.7230   43.3050 C   0  0  0  0  0  0  0  0  0  0  0  0
   39.1290   27.3930   43.3120 C   0  0  0  0  0  0  0  0  0  0  0  0
   38.4480   26.4500   42.5410 C   0  0  0  0  0  0  0  0  0  0  0  0
   38.8780   25.1410   42.6280 C   0  0  0  0  0  0  0  0  0  0  0  0
   38.1840   24.1580   41.9330 C   0  0  0  0  0  0  0  0  0  0  0  0
   37.0820   24.4780   41.1700 C   0  0  0  0  0  0  0  0  0  0  0  0
   36.6960   25.7970   41.1160 C   0  0  0  0  0  0  0  0  0  0  0  0
   37.3600   26.8150   41.7840 C   0  0  0  0  0  0  0  0  0  0  0  0
   37.2110   30.0270   42.4730 H   0  0  0  0  0  0  0  0  0  0  0  0
   39.1810   29.4910   43.8880 H   0  0  0  0  0  0  0  0  0  0  0  0
   39.9890   27.1540   43.9250 H   0  0  0  0  0  0  0  0  0  0  0  0
   39.7440   24.9140   43.2360 H   0  0  0  0  0  0  0  0  0  0  0  0
   38.6140   23.1520   42.0720 H   0  0  0  0  0  0  0  0  0  0  0  0
   36.6840   23.5920   40.7170 H   0  0  0  0  0  0  0  0  0  0  0  0
   35.8060   25.7760   40.5570 H   0  0  0  0  0  0  0  0  0  0  0  0
   34.3820   26.4240   37.0750 C   0  0  0  0  0  0  0  0  0  0  0  0
   33.4110   27.2630   36.4200 C   0  0  0  0  0  0  0  0  0  0  0  0
   33.3440   28.6370   36.8290 C   0  0  0  0  0  0  0  0  0  0  0  0
   34.1660   29.0780   37.7830 N   0  0  0  0  0  0  0  0  0  0  0  0
   35.0770   28.2270   38.3760 C   0  0  0  0  0  0  0  0  0  0  0  0
   35.1780   26.9470   38.0320 N   0  0  0  0  0  0  0  0  0  0  0  0
   34.3740   25.4110   36.7180 H   0  0  0  0  0  0  0  0  0  0  0  0
   32.7710   26.8500   35.6540 H   0  0  0  0  0  0  0  0  0  0  0  0
   32.3870   29.4740   36.1850 N   0  0  0  0  0  0  0  0  0  0  0  0
   32.3420   29.8870   34.9030 C   0  0  0  0  0  0  0  0  0  0  0  0
   33.1000   29.5910   34.1860 H   0  0  0  0  0  0  0  0  0  0  0  0
   31.2810   30.6730   34.6670 N   0  0  0  0  0  0  0  0  0  0  0  0
   30.6010   30.7810   35.8350 C   0  0  0  0  0  0  0  0  0  0  0  0
   29.4540   31.4310   36.2410 C   0  0  0  0  0  0  0  0  0  0  0  0
   28.9030   32.0240   35.5000 H   0  0  0  0  0  0  0  0  0  0  0  0
   29.0280   31.3340   37.5250 N   0  0  0  0  0  0  0  0  0  0  0  0
   29.7190   30.5990   38.4300 C   0  0  0  0  0  0  0  0  0  0  0  0
   29.3810   30.5180   39.4590 H   0  0  0  0  0  0  0  0  0  0  0  0
   30.8540   29.9490   38.0500 N   0  0  0  0  0  0  0  0  0  0  0  0
   31.2950   30.0290   36.7900 C   0  0  0  0  0  0  0  0  0  0  0  0
  1  4  1  6  0  0  0
  1  2  1  0  0  0  0
  1  3  1  0  0  0  0
  2  5  1  0  0  0  0
  2  3  1  0  0  0  0
  3  7  1  1  0  0  0
  3  8  1  0  0  0  0
  6  2  1  0  0  0  0
  8 17  2  0  0  0  0
  8  9  1  0  0  0  0
  9 10  2  0  0  0  0
 10 11  1  0  0  0  0
 10 19  1  0  0  0  0
 11 20  1  0  0  0  0
 12 13  1  0  0  0  0
 12 11  2  0  0  0  0
 13 21  1  0  0  0  0
 14 22  1  0  0  0  0
 14 13  2  0  0  0  0
 15 14  1  0  0  0  0
 16 15  2  0  0  0  0
 16 17  1  0  0  0  0
 17 12  1  0  0  0  0
 18  9  1  0  0  0  0
 23 15  1  0  0  0  0
 24 16  1  0  0  0  0
 25 30  1  0  0  0  0
 26 27  1  0  0  0  0
 26 25  2  0  0  0  0
 27 28  2  0  0  0  0
 28 29  1  0  0  0  0
 29  1  1  0  0  0  0
 30 29  2  0  0  0  0
 31 25  1  0  0  0  0
 32 26  1  0  0  0  0
 33 44  1  0  0  0  0
 33 27  1  0  0  0  0
 34 33  1  0  0  0  0
 35 34  1  0  0  0  0
 36 34  2  0  0  0  0
 36 37  1  0  0  0  0
 37 38  2  0  0  0  0
 37 44  1  0  0  0  0
 38 40  1  0  0  0  0
 39 38  1  0  0  0  0
 40 41  2  0  0  0  0
 41 42  1  0  0  0  0
 43 41  1  0  0  0  0
 44 43  2  0  0  0  0
M  END
>  <minimizedAffinity>
-6.71508837

$$$$
