
 OpenBabel03242520223D

 47 51  0  0  0  0  0  0  0  0999 V2000
   39.1310   33.1950   40.3150 C   0  0  0  0  0  0  0  0  0  0  0  0
   39.3520   33.0450   41.5600 O   0  0  0  0  0  0  0  0  0  0  0  0
   39.1590   34.4200   39.6250 N   0  0  0  0  0  0  0  0  0  0  0  0
   38.8620   34.5370   38.6390 H   0  0  0  0  0  0  0  0  0  0  0  0
   38.8170   31.9890   39.5130 C   0  0  0  0  0  0  0  0  0  0  0  0
   39.0050   32.0410   38.1370 C   0  0  0  0  0  0  0  0  0  0  0  0
   38.7620   31.0000   37.2650 C   0  0  0  0  0  0  0  0  0  0  0  0
   38.2920   29.8180   37.8300 C   0  0  0  0  0  0  0  0  0  0  0  0
   38.1230   29.8200   39.1980 C   0  0  0  0  0  0  0  0  0  0  0  0
   38.3640   30.8370   40.0250 N   0  0  0  0  0  0  0  0  0  0  0  0
   39.3740   32.9520   37.6530 H   0  0  0  0  0  0  0  0  0  0  0  0
   38.9220   31.0870   36.2080 H   0  0  0  0  0  0  0  0  0  0  0  0
   38.0740   28.9510   37.2210 H   0  0  0  0  0  0  0  0  0  0  0  0
   37.6390   28.6360   39.8640 N   0  0  0  0  0  0  0  0  0  0  0  0
   37.5700   28.2710   41.1520 C   0  0  0  0  0  0  0  0  0  0  0  0
   37.9230   28.9270   41.9350 H   0  0  0  0  0  0  0  0  0  0  0  0
   37.0250   27.0460   41.2190 N   0  0  0  0  0  0  0  0  0  0  0  0
   36.7240   26.5790   39.9800 C   0  0  0  0  0  0  0  0  0  0  0  0
   36.1680   25.4270   39.4620 C   0  0  0  0  0  0  0  0  0  0  0  0
   35.8660   24.6440   40.1470 H   0  0  0  0  0  0  0  0  0  0  0  0
   36.0030   25.2840   38.1130 N   0  0  0  0  0  0  0  0  0  0  0  0
   36.3980   26.2940   37.3080 C   0  0  0  0  0  0  0  0  0  0  0  0
   36.3050   26.2660   36.2150 H   0  0  0  0  0  0  0  0  0  0  0  0
   36.9350   27.4050   37.8160 N   0  0  0  0  0  0  0  0  0  0  0  0
   37.1240   27.6100   39.1350 C   0  0  0  0  0  0  0  0  0  0  0  0
   39.6320   35.5730   40.3590 C   0  0  0  0  0  0  0  0  0  0  0  0
   38.8070   36.3410   40.2960 H   0  0  0  0  0  0  0  0  0  0  0  0
   39.7310   35.3770   41.4440 H   0  0  0  0  0  0  0  0  0  0  0  0
   40.9300   36.1310   39.8040 C   0  0  0  0  0  0  0  0  0  0  0  0
   41.1190   37.1230   40.2620 H   0  0  0  0  0  0  0  0  0  0  0  0
   40.8690   36.1550   38.7060 H   0  0  0  0  0  0  0  0  0  0  0  0
   43.8430   34.5630   41.6500 C   0  0  0  0  0  0  0  0  0  0  0  0
   42.7770   35.4460   41.3320 C   0  0  0  0  0  0  0  0  0  0  0  0
   42.0580   35.2400   40.1710 C   0  0  0  0  0  0  0  0  0  0  0  0
   42.4380   34.1720   39.3920 N   0  0  0  0  0  0  0  0  0  0  0  0
   43.4740   33.3550   39.7500 C   0  0  0  0  0  0  0  0  0  0  0  0
   44.1660   33.5540   40.8690 N   0  0  0  0  0  0  0  0  0  0  0  0
   42.5530   36.2610   42.0090 H   0  0  0  0  0  0  0  0  0  0  0  0
   43.7030   32.5400   39.0760 H   0  0  0  0  0  0  0  0  0  0  0  0
   44.6170   34.8110   42.9080 C   0  0  0  0  0  0  0  0  0  0  0  0
   46.0760   35.3150   42.5830 C   0  0  0  0  0  0  0  0  0  0  0  0
   45.0800   36.0590   43.3610 C   0  0  0  0  0  0  0  0  0  0  0  0
   44.6280   33.8990   43.5740 H   0  0  0  0  0  0  0  0  0  0  0  0
   46.8760   34.7940   43.1450 H   0  0  0  0  0  0  0  0  0  0  0  0
   46.3090   35.5380   41.5430 H   0  0  0  0  0  0  0  0  0  0  0  0
   45.2150   36.2520   44.4410 H   0  0  0  0  0  0  0  0  0  0  0  0
   44.7030   36.9930   42.8510 H   0  0  0  0  0  0  0  0  0  0  0  0
  1  2  2  0  0  0  0
  3  1  1  0  0  0  0
  3 26  1  0  0  0  0
  4  3  1  0  0  0  0
  5 10  1  0  0  0  0
  5  1  1  0  0  0  0
  6  5  2  0  0  0  0
  7  8  2  0  0  0  0
  7  6  1  0  0  0  0
  8  9  1  0  0  0  0
  9 14  1  0  0  0  0
  9 10  2  0  0  0  0
 11  6  1  0  0  0  0
 12  7  1  0  0  0  0
 13  8  1  0  0  0  0
 14 15  1  0  0  0  0
 15 17  2  0  0  0  0
 15 16  1  0  0  0  0
 18 17  1  0  0  0  0
 19 18  1  0  0  0  0
 19 20  1  0  0  0  0
 21 19  2  0  0  0  0
 22 24  2  0  0  0  0
 22 21  1  0  0  0  0
 23 22  1  0  0  0  0
 24 25  1  0  0  0  0
 25 14  1  0  0  0  0
 25 18  2  0  0  0  0
 26 28  1  0  0  0  0
 27 26  1  0  0  0  0
 29 34  1  0  0  0  0
 29 30  1  0  0  0  0
 29 26  1  0  0  0  0
 31 29  1  0  0  0  0
 32 40  1  0  0  0  0
 33 32  1  0  0  0  0
 33 38  1  0  0  0  0
 34 33  2  0  0  0  0
 35 36  2  0  0  0  0
 35 34  1  0  0  0  0
 36 37  1  0  0  0  0
 37 32  2  0  0  0  0
 39 36  1  0  0  0  0
 40 42  1  0  0  0  0
 40 43  1  0  0  0  0
 41 40  1  0  0  0  0
 41 44  1  0  0  0  0
 41 42  1  0  0  0  0
 42 46  1  0  0  0  0
 45 41  1  0  0  0  0
 47 42  1  0  0  0  0
M  END
>  <minimizedAffinity>
-5.48272228

>  <minimizedRMSD>
1.78503323

$$$$
