REMARK  Name = 
REMARK  2 active torsions:
REMARK  status: ('A' for Active; 'I' for Inactive)
REMARK    1  A    between atoms: C_1  and  C_15
REMARK    2  A    between atoms: C_12  and  N_17
REMARK                            x       y       z     vdW  Elec       q    Type
REMARK                         _______ _______ _______ _____ _____    ______ ____
ROOT
ATOM      1  C   UNL     1      47.657  32.287  48.196  0.00  0.00    +0.000 A 
ATOM      2  C   UNL     1      47.282  30.964  48.289  0.00  0.00    +0.000 A 
ATOM      3  C   UNL     1      46.385  30.528  47.359  0.00  0.00    +0.000 A 
ATOM      4  N   UNL     1      45.913  31.362  46.421  0.00  0.00    +0.000 NA
ATOM      5  C   UNL     1      46.281  32.643  46.339  0.00  0.00    +0.000 A 
ATOM      6  N   UNL     1      47.154  33.067  47.243  0.00  0.00    +0.000 NA
ATOM      7  H   UNL     1      48.380  32.636  48.946  0.00  0.00    +0.000 HD
ATOM      8  N   UNL     1      45.929  29.210  47.349  0.00  0.00    +0.000 N 
ATOM      9  C   UNL     1      44.807  28.676  46.831  0.00  0.00    +0.000 A 
ATOM     10  H   UNL     1      44.038  29.230  46.310  0.00  0.00    +0.000 HD
ATOM     11  N   UNL     1      44.782  27.348  47.058  0.00  0.00    +0.000 NA
ATOM     12  C   UNL     1      45.896  27.006  47.731  0.00  0.00    +0.000 A 
ATOM     13  C   UNL     1      46.357  25.794  48.203  0.00  0.00    +0.000 A 
ATOM     14  H   UNL     1      45.758  24.902  48.037  0.00  0.00    +0.000 HD
ATOM     15  N   UNL     1      47.538  25.805  48.847  0.00  0.00    +0.000 NA
ATOM     16  C   UNL     1      48.254  26.936  49.034  0.00  0.00    +0.000 A 
ATOM     17  H   UNL     1      49.207  26.878  49.566  0.00  0.00    +0.000 HD
ATOM     18  N   UNL     1      47.785  28.097  48.566  0.00  0.00    +0.000 NA
ATOM     19  C   UNL     1      46.599  28.158  47.906  0.00  0.00    +0.000 A 
ENDROOT
BRANCH   5  20
ATOM     20  C   UNL     1      45.898  33.716  45.411  0.00  0.00    +0.000 A 
ATOM     21  N   UNL     1      44.925  34.619  45.672  0.00  0.00    +0.000 NA
ATOM     22  C   UNL     1      44.548  35.603  44.860  0.00  0.00    +0.000 A 
ATOM     23  N   UNL     1      45.160  35.751  43.667  0.00  0.00    +0.000 NA
ATOM     24  C   UNL     1      46.147  34.914  43.288  0.00  0.00    +0.000 A 
ATOM     25  C   UNL     1      46.771  35.071  42.063  0.00  0.00    +0.000 A 
ATOM     26  C   UNL     1      47.775  34.225  41.675  0.00  0.00    +0.000 A 
ATOM     27  C   UNL     1      48.134  33.221  42.543  0.00  0.00    +0.000 A 
ATOM     28  C   UNL     1      47.492  33.097  43.748  0.00  0.00    +0.000 A 
ATOM     29  C   UNL     1      46.483  33.916  44.185  0.00  0.00    +0.000 A 
ATOM     30  H   UNL     1      43.755  36.270  45.172  0.00  0.00    +0.000 HD
ATOM     31  H   UNL     1      46.468  35.871  41.398  0.00  0.00    +0.000 HD
ATOM     32  H   UNL     1      48.294  34.303  40.731  0.00  0.00    +0.000 HD
ATOM     33  H   UNL     1      48.920  32.525  42.286  0.00  0.00    +0.000 HD
ATOM     34  H   UNL     1      47.814  32.282  44.404  0.00  0.00    +0.000 HD
ENDBRANCH   5  20
BRANCH   2  35
ATOM     35  N   UNL     1      47.812  30.136  49.295  0.00  0.00    +0.000 N 
ATOM     36  H   UNL     1      47.324  29.975  50.202  0.00  0.00    +0.000 HD
ATOM     37  H   UNL     1      48.716  29.595  49.284  0.00  0.00    +0.000 HD
ENDBRANCH   2  35
TORSDOF 2
