
     RDKit          3D

 37 41  0  0  0  0  0  0  0  0999 V2000
   45.8981   33.7156   45.4112 C   0  0  0  0  0  0  0  0  0  0  0  0
   44.9247   34.6187   45.6725 N   0  0  0  0  0  0  0  0  0  0  0  0
   44.5480   35.6031   44.8602 C   0  0  0  0  0  0  0  0  0  0  0  0
   45.1595   35.7513   43.6668 N   0  0  0  0  0  0  0  0  0  0  0  0
   46.1473   34.9139   43.2879 C   0  0  0  0  0  0  0  0  0  0  0  0
   46.7714   35.0707   42.0635 C   0  0  0  0  0  0  0  0  0  0  0  0
   47.7745   34.2247   41.6748 C   0  0  0  0  0  0  0  0  0  0  0  0
   48.1338   33.2213   42.5426 C   0  0  0  0  0  0  0  0  0  0  0  0
   47.4922   33.0967   43.7485 C   0  0  0  0  0  0  0  0  0  0  0  0
   46.4825   33.9165   44.1855 C   0  0  0  0  0  0  0  0  0  0  0  0
   47.6566   32.2871   48.1959 C   0  0  0  0  0  0  0  0  0  0  0  0
   47.2825   30.9636   48.2891 C   0  0  0  0  0  0  0  0  0  0  0  0
   46.3848   30.5277   47.3586 C   0  0  0  0  0  0  0  0  0  0  0  0
   45.9129   31.3620   46.4213 N   0  0  0  0  0  0  0  0  0  0  0  0
   46.2814   32.6428   46.3392 C   0  0  0  0  0  0  0  0  0  0  0  0
   47.1539   33.0669   47.2434 N   0  0  0  0  0  0  0  0  0  0  0  0
   47.8120   30.1364   49.2949 N   0  0  0  0  0  0  0  0  0  0  0  0
   43.7552   36.2695   45.1724 H   0  0  0  0  0  0  0  0  0  0  0  0
   46.4680   35.8714   41.3976 H   0  0  0  0  0  0  0  0  0  0  0  0
   48.2939   34.3031   40.7308 H   0  0  0  0  0  0  0  0  0  0  0  0
   48.9202   32.5247   42.2858 H   0  0  0  0  0  0  0  0  0  0  0  0
   47.8141   32.2824   44.4042 H   0  0  0  0  0  0  0  0  0  0  0  0
   48.3798   32.6364   48.9464 H   0  0  0  0  0  0  0  0  0  0  0  0
   47.3237   29.9746   50.2017 H   0  0  0  0  0  0  0  0  0  0  0  0
   48.7164   29.5950   49.2841 H   0  0  0  0  0  0  0  0  0  0  0  0
   45.9293   29.2096   47.3486 N   0  0  0  0  0  0  0  0  0  0  0  0
   46.1288   28.2220   46.4561 C   0  0  0  0  0  0  0  0  0  0  0  0
   46.7136   28.3114   45.5501 H   0  0  0  0  0  0  0  0  0  0  0  0
   45.4926   27.1044   46.8568 N   0  0  0  0  0  0  0  0  0  0  0  0
   44.8695   27.3583   48.0220 C   0  0  0  0  0  0  0  0  0  0  0  0
   44.0905   26.5721   48.8465 C   0  0  0  0  0  0  0  0  0  0  0  0
   43.9015   25.5391   48.5639 H   0  0  0  0  0  0  0  0  0  0  0  0
   43.6126   27.1527   49.9615 N   0  0  0  0  0  0  0  0  0  0  0  0
   43.8704   28.4412   50.2780 C   0  0  0  0  0  0  0  0  0  0  0  0
   43.4516   28.8546   51.2004 H   0  0  0  0  0  0  0  0  0  0  0  0
   44.6276   29.1810   49.4626 N   0  0  0  0  0  0  0  0  0  0  0  0
   45.1430   28.6575   48.3191 C   0  0  0  0  0  0  0  0  0  0  0  0
  1  2  2  0
  1 15  1  0
  3  2  1  0
  4  3  2  0
  5  4  1  0
  5 10  2  0
  6  5  1  0
  7  6  2  0
  7  8  1  0
  8  9  2  0
  9 10  1  0
 10  1  1  0
 11 12  2  0
 12 17  1  0
 13 12  1  0
 14 13  2  0
 15 14  1  0
 15 16  2  0
 16 11  1  0
  3 18  1  0
  6 19  1  0
  7 20  1  0
  8 21  1  0
  9 22  1  0
 11 23  1  0
 17 24  1  0
 17 25  1  0
 26 27  1  0
 27 28  1  0
 27 29  2  0
 29 30  1  0
 30 31  2  0
 31 32  1  0
 31 33  1  0
 33 34  2  0
 34 35  1  0
 34 36  1  0
 36 37  2  0
 37 26  1  0
 37 30  1  0
 13 26  1  0
M  ISO  8  18  14  19  14  20  14  21  14  22  14  23  14  28  15  32  16
M  ISO  1  35  16
M  END
>  <DihAtoms>  (1) 
11,12,25,26

>  <DihDeg>  (1) 
-37.6835030483173

$$$$
