
     RDKit          3D

 43 47  0  0  0  0  0  0  0  0999 V2000
   48.0781   35.4738   41.8080 C   0  0  1  0  0  0  0  0  0  0  0  0
   49.3193   34.6993   41.6923 C   0  0  0  0  0  0  0  0  0  0  0  0
   48.4859   35.0736   40.4550 C   0  0  1  0  0  0  0  0  0  0  0  0
   46.0509   32.9327   43.7538 C   0  0  0  0  0  0  0  0  0  0  0  0
   47.1429   33.6174   43.2285 C   0  0  0  0  0  0  0  0  0  0  0  0
   46.9119   34.7296   42.3944 C   0  0  0  0  0  0  0  0  0  0  0  0
   45.6387   35.1037   42.1247 N   0  0  0  0  0  0  0  0  0  0  0  0
   44.5884   34.4181   42.6499 C   0  0  0  0  0  0  0  0  0  0  0  0
   44.7966   33.3328   43.4645 N   0  0  0  0  0  0  0  0  0  0  0  0
   47.7670   34.1414   39.8099 O   0  0  0  0  0  0  0  0  0  0  0  0
   48.5202   32.4010   37.9874 O   0  0  0  0  0  0  0  0  0  0  0  0
   48.0942   33.8477   38.2354 P   0  0  2  0  0  0  0  0  0  0  0  0
   49.3349   34.7990   37.5797 O   0  0  0  0  0  0  0  0  0  0  0  0
   46.7302   34.0642   37.2791 O   0  0  0  0  0  0  0  0  0  0  0  0
   45.7840   33.0877   37.0348 C   0  0  0  0  0  0  0  0  0  0  0  0
   45.6555   32.2962   35.9049 C   0  0  0  0  0  0  0  0  0  0  0  0
   44.6627   31.3692   35.8110 C   0  0  0  0  0  0  0  0  0  0  0  0
   43.7579   31.1946   36.8410 C   0  0  0  0  0  0  0  0  0  0  0  0
   43.9281   32.0159   37.9597 C   0  0  0  0  0  0  0  0  0  0  0  0
   44.9217   32.9323   38.0350 N   0  0  0  0  0  0  0  0  0  0  0  0
   48.1226   36.5528   42.0243 H   0  0  0  0  0  0  0  0  0  0  0  0
   49.3385   33.5929   41.8426 H   0  0  0  0  0  0  0  0  0  0  0  0
   50.2913   35.1557   41.8616 H   0  0  0  0  0  0  0  0  0  0  0  0
   49.0706   35.7638   39.8157 H   0  0  0  0  0  0  0  0  0  0  0  0
   46.1823   32.0747   44.3981 H   0  0  0  0  0  0  0  0  0  0  0  0
   48.1346   33.2876   43.4670 H   0  0  0  0  0  0  0  0  0  0  0  0
   43.6057   34.7870   42.3813 H   0  0  0  0  0  0  0  0  0  0  0  0
   48.9941   35.6819   37.2689 H   0  0  0  0  0  0  0  0  0  0  0  0
   46.3978   32.4873   35.1396 H   0  0  0  0  0  0  0  0  0  0  0  0
   44.6139   30.7847   34.9093 H   0  0  0  0  0  0  0  0  0  0  0  0
   42.9655   30.4632   36.7802 H   0  0  0  0  0  0  0  0  0  0  0  0
   42.9750   31.8029   38.9963 N   0  0  0  0  0  0  0  0  0  0  0  0
   42.8183   30.7893   39.8950 C   0  0  0  0  0  0  0  0  0  0  0  0
   43.4943   29.9406   39.9037 H   0  0  0  0  0  0  0  0  0  0  0  0
   41.7506   31.0808   40.6617 N   0  0  0  0  0  0  0  0  0  0  0  0
   41.2034   32.2579   40.2900 C   0  0  0  0  0  0  0  0  0  0  0  0
   40.1273   33.0039   40.7263 C   0  0  0  0  0  0  0  0  0  0  0  0
   39.5363   32.6312   41.5481 H   0  0  0  0  0  0  0  0  0  0  0  0
   39.8315   34.1675   40.1328 N   0  0  0  0  0  0  0  0  0  0  0  0
   40.5935   34.5927   39.1143 C   0  0  0  0  0  0  0  0  0  0  0  0
   40.4957   35.4973   38.5313 H   0  0  0  0  0  0  0  0  0  0  0  0
   41.6462   33.8768   38.6772 N   0  0  0  0  0  0  0  0  0  0  0  0
   41.9888   32.6977   39.2389 C   0  0  0  0  0  0  0  0  0  0  0  0
  1  6  1  0
  2  1  1  0
  3  2  1  0
  3  1  1  0
  5  4  2  0
  6  5  1  0
  7  6  2  0
  7  8  1  0
  8  9  2  0
  9  4  1  0
 10  3  1  0
 12 11  2  0
 12 10  1  1
 13 12  1  0
 14 12  1  0
 15 14  1  0
 15 20  1  0
 16 15  2  0
 17 16  1  0
 17 18  2  0
 18 19  1  0
 19 20  2  0
  1 21  1  6
  2 22  1  0
  2 23  1  0
  3 24  1  6
  4 25  1  0
  5 26  1  0
  8 27  1  0
 13 28  1  0
 16 29  1  0
 17 30  1  0
 18 31  1  0
 32 33  1  0
 33 34  1  0
 33 35  2  0
 35 36  1  0
 36 37  2  0
 37 38  1  0
 37 39  1  0
 39 40  2  0
 40 41  1  0
 40 42  1  0
 42 43  2  0
 43 32  1  0
 43 36  1  0
 19 32  1  0
M  ISO  8  21  13  22  13  23  13  24  13  25  14  26  14  27  14  28   3
M  ISO  6  29  14  30  14  31  14  34  15  38  16  41  16
M  END
>  <DihAtoms>  (1) 
17,18,31,32

>  <DihDeg>  (1) 
-107.07861882110524

$$$$
