
 OpenBabel03252500143D

 41 45  0  0  0  0  0  0  0  0999 V2000
   45.5750   32.5520   40.2790 Cl  0  0  0  0  0  0  0  0  0  0  0  0
   46.9000   33.6570   40.0510 C   0  0  0  0  0  0  0  0  0  0  0  0
   47.4400   34.3260   41.1220 C   0  0  0  0  0  0  0  0  0  0  0  0
   48.5020   35.2160   40.9760 C   0  0  0  0  0  0  0  0  0  0  0  0
   48.9760   35.3860   39.6930 C   0  0  0  0  0  0  0  0  0  0  0  0
   48.4350   34.7140   38.6130 C   0  0  0  0  0  0  0  0  0  0  0  0
   47.4190   33.8660   38.7800 C   0  0  0  0  0  0  0  0  0  0  0  0
   48.9050   35.7290   41.8380 H   0  0  0  0  0  0  0  0  0  0  0  0
   49.7960   36.0720   39.5690 H   0  0  0  0  0  0  0  0  0  0  0  0
   48.8270   34.8650   37.6170 H   0  0  0  0  0  0  0  0  0  0  0  0
   46.7620   32.8000   44.4080 C   0  0  0  0  0  0  0  0  0  0  0  0
   45.8450   33.7090   44.9790 C   0  0  0  0  0  0  0  0  0  0  0  0
   45.4750   34.8260   44.2320 C   0  0  0  0  0  0  0  0  0  0  0  0
   46.0160   34.9890   42.9860 N   0  0  0  0  0  0  0  0  0  0  0  0
   46.8900   34.1040   42.4650 C   0  0  0  0  0  0  0  0  0  0  0  0
   47.2530   33.0200   43.1810 N   0  0  0  0  0  0  0  0  0  0  0  0
   47.0220   31.9470   45.0190 H   0  0  0  0  0  0  0  0  0  0  0  0
   45.4230   33.5750   45.9590 H   0  0  0  0  0  0  0  0  0  0  0  0
   44.5140   35.8560   44.7320 C   0  0  0  0  0  0  0  0  0  0  0  0
   44.9900   37.1120   44.5150 F   0  0  0  0  0  0  0  0  0  0  0  0
   43.3200   35.6990   44.0560 F   0  0  0  0  0  0  0  0  0  0  0  0
   44.3260   35.5990   46.0680 F   0  0  0  0  0  0  0  0  0  0  0  0
   46.8210   33.1390   37.6720 C   0  0  0  0  0  0  0  0  0  0  0  0
   45.4490   33.1090   37.3870 C   0  0  0  0  0  0  0  0  0  0  0  0
   45.2240   32.3280   36.2750 C   0  0  0  0  0  0  0  0  0  0  0  0
   46.4920   31.9140   35.9300 C   0  0  0  0  0  0  0  0  0  0  0  0
   47.3980   32.4000   36.7570 O   0  0  0  0  0  0  0  0  0  0  0  0
   44.6360   33.6140   37.9370 H   0  0  0  0  0  0  0  0  0  0  0  0
   44.3170   32.0680   35.7550 H   0  0  0  0  0  0  0  0  0  0  0  0
   46.8340   31.0690   34.8300 N   0  0  0  0  0  0  0  0  0  0  0  0
   46.5500   29.7560   34.7480 C   0  0  0  0  0  0  0  0  0  0  0  0
   46.0410   29.1030   35.4420 H   0  0  0  0  0  0  0  0  0  0  0  0
   47.0280   29.2830   33.5590 N   0  0  0  0  0  0  0  0  0  0  0  0
   47.6140   30.2950   32.8890 C   0  0  0  0  0  0  0  0  0  0  0  0
   48.2680   30.5110   31.6920 C   0  0  0  0  0  0  0  0  0  0  0  0
   48.3750   29.6370   31.0450 H   0  0  0  0  0  0  0  0  0  0  0  0
   48.7410   31.7320   31.3530 N   0  0  0  0  0  0  0  0  0  0  0  0
   48.5960   32.7920   32.1660 C   0  0  0  0  0  0  0  0  0  0  0  0
   48.9540   33.7830   31.9410 H   0  0  0  0  0  0  0  0  0  0  0  0
   47.9610   32.6200   33.3490 N   0  0  0  0  0  0  0  0  0  0  0  0
   47.4850   31.4120   33.7010 C   0  0  0  0  0  0  0  0  0  0  0  0
  2  1  1  0  0  0  0
  2  3  1  0  0  0  0
  3 15  1  0  0  0  0
  4  3  2  0  0  0  0
  4  8  1  0  0  0  0
  5  4  1  0  0  0  0
  6  7  1  0  0  0  0
  6  5  2  0  0  0  0
  7  2  2  0  0  0  0
  9  5  1  0  0  0  0
 10  6  1  0  0  0  0
 11 12  1  0  0  0  0
 11 17  1  0  0  0  0
 12 18  1  0  0  0  0
 13 19  1  0  0  0  0
 13 12  2  0  0  0  0
 14 13  1  0  0  0  0
 15 14  2  0  0  0  0
 15 16  1  0  0  0  0
 16 11  2  0  0  0  0
 19 22  1  0  0  0  0
 20 19  1  0  0  0  0
 21 19  1  0  0  0  0
 23  7  1  0  0  0  0
 24 23  2  0  0  0  0
 24 28  1  0  0  0  0
 25 24  1  0  0  0  0
 26 25  2  0  0  0  0
 26 27  1  0  0  0  0
 27 23  1  0  0  0  0
 29 25  1  0  0  0  0
 30 26  1  0  0  0  0
 31 30  1  0  0  0  0
 31 32  1  0  0  0  0
 33 31  2  0  0  0  0
 34 33  1  0  0  0  0
 34 41  1  0  0  0  0
 35 34  2  0  0  0  0
 36 35  1  0  0  0  0
 37 35  1  0  0  0  0
 37 38  2  0  0  0  0
 38 40  1  0  0  0  0
 39 38  1  0  0  0  0
 40 41  2  0  0  0  0
 41 30  1  0  0  0  0
M  END
>  <minimizedAffinity>
-7.02694607

>  <minimizedRMSD>
1.88229644

$$$$
