
 OpenBabel03252501063D

 43 47  0  0  1  0  0  0  0  0999 V2000
   46.7730   33.3260   37.8590 O   0  0  0  0  0  0  0  0  0  0  0  0
   45.6880   32.8400   38.5620 C   0  0  0  0  0  0  0  0  0  0  0  0
   45.6260   31.6940   39.3390 C   0  0  0  0  0  0  0  0  0  0  0  0
   44.4740   31.3440   39.9750 C   0  0  0  0  0  0  0  0  0  0  0  0
   43.3380   32.1230   39.8620 C   0  0  0  0  0  0  0  0  0  0  0  0
   43.4500   33.2690   39.0680 C   0  0  0  0  0  0  0  0  0  0  0  0
   44.6040   33.6010   38.4430 N   0  0  0  0  0  0  0  0  0  0  0  0
   46.5510   31.1340   39.3820 H   0  0  0  0  0  0  0  0  0  0  0  0
   44.4870   30.4430   40.5630 H   0  0  0  0  0  0  0  0  0  0  0  0
   42.4170   31.8570   40.3610 H   0  0  0  0  0  0  0  0  0  0  0  0
   42.2570   34.0410   38.9800 N   0  0  0  0  0  0  0  0  0  0  0  0
   41.9790   35.2190   38.3480 C   0  0  0  0  0  0  0  0  0  0  0  0
   42.7410   35.7420   37.7820 H   0  0  0  0  0  0  0  0  0  0  0  0
   40.6870   35.5160   38.5830 N   0  0  0  0  0  0  0  0  0  0  0  0
   40.1110   34.5660   39.3510 C   0  0  0  0  0  0  0  0  0  0  0  0
   38.8460   34.3810   39.8720 C   0  0  0  0  0  0  0  0  0  0  0  0
   38.0860   35.1180   39.6650 H   0  0  0  0  0  0  0  0  0  0  0  0
   38.5790   33.3020   40.6190 N   0  0  0  0  0  0  0  0  0  0  0  0
   39.5530   32.4100   40.8500 C   0  0  0  0  0  0  0  0  0  0  0  0
   39.5080   31.4960   41.4250 H   0  0  0  0  0  0  0  0  0  0  0  0
   40.7920   32.5760   40.3490 N   0  0  0  0  0  0  0  0  0  0  0  0
   41.1160   33.6450   39.5910 C   0  0  0  0  0  0  0  0  0  0  0  0
   49.1370   32.4520   38.2020 O   0  0  0  0  0  0  0  0  0  0  0  0
   48.2710   33.6650   38.5390 P   0  0  1  0  0  0  0  0  0  0  0  0
   48.9480   34.9540   37.6710 O   0  0  0  0  0  0  0  0  0  0  0  0
   48.2630   35.6390   37.4380 H   0  0  0  0  0  0  0  0  0  0  0  0
   48.1480   33.9160   40.1500 O   0  0  0  0  0  0  0  0  0  0  0  0
   47.9750   35.6110   41.8720 C   0  0  1  0  0  0  0  0  0  0  0  0
   49.3410   35.0910   42.0100 C   0  0  0  0  0  0  0  0  0  0  0  0
   48.6050   35.0710   40.6600 C   0  0  1  0  0  0  0  0  0  0  0  0
   47.7980   36.6980   41.8780 H   0  0  0  0  0  0  0  0  0  0  0  0
   49.5420   34.0550   42.3730 H   0  0  0  0  0  0  0  0  0  0  0  0
   50.1870   35.7550   42.1680 H   0  0  0  0  0  0  0  0  0  0  0  0
   49.1270   35.7420   39.9500 H   0  0  0  0  0  0  0  0  0  0  0  0
   46.2260   33.0940   44.0990 C   0  0  0  0  0  0  0  0  0  0  0  0
   47.2310   33.8800   43.5420 C   0  0  0  0  0  0  0  0  0  0  0  0
   46.9020   34.7620   42.4930 C   0  0  0  0  0  0  0  0  0  0  0  0
   45.6230   34.8220   42.0530 N   0  0  0  0  0  0  0  0  0  0  0  0
   44.6590   34.0420   42.6120 C   0  0  0  0  0  0  0  0  0  0  0  0
   44.9640   33.1790   43.6360 N   0  0  0  0  0  0  0  0  0  0  0  0
   46.4340   32.4050   44.9050 H   0  0  0  0  0  0  0  0  0  0  0  0
   48.2310   33.8020   43.9210 H   0  0  0  0  0  0  0  0  0  0  0  0
   43.6650   34.1550   42.1970 H   0  0  0  0  0  0  0  0  0  0  0  0
  1 24  1  0  0  0  0
  1  2  1  0  0  0  0
  2  3  1  0  0  0  0
  3  8  1  0  0  0  0
  3  4  2  0  0  0  0
  4  9  1  0  0  0  0
  5  4  1  0  0  0  0
  5 10  1  0  0  0  0
  6  5  2  0  0  0  0
  7  2  2  0  0  0  0
  7  6  1  0  0  0  0
 11  6  1  0  0  0  0
 11 22  1  0  0  0  0
 12 14  2  0  0  0  0
 12 11  1  0  0  0  0
 13 12  1  0  0  0  0
 14 15  1  0  0  0  0
 15 22  2  0  0  0  0
 15 16  1  0  0  0  0
 16 18  2  0  0  0  0
 17 16  1  0  0  0  0
 18 19  1  0  0  0  0
 19 20  1  0  0  0  0
 21 19  2  0  0  0  0
 22 21  1  0  0  0  0
 24 23  2  6  0  0  0
 24 27  1  0  0  0  0
 25 24  1  0  0  0  0
 26 25  1  0  0  0  0
 27 30  1  0  0  0  0
 28 31  1  1  0  0  0
 28 29  1  0  0  0  0
 28 37  1  0  0  0  0
 29 33  1  0  0  0  0
 29 32  1  0  0  0  0
 30 34  1  6  0  0  0
 30 28  1  0  0  0  0
 30 29  1  0  0  0  0
 35 41  1  0  0  0  0
 36 42  1  0  0  0  0
 36 35  2  0  0  0  0
 37 36  1  0  0  0  0
 38 37  2  0  0  0  0
 38 39  1  0  0  0  0
 39 40  2  0  0  0  0
 40 35  1  0  0  0  0
 43 39  1  0  0  0  0
M  END
>  <minimizedAffinity>
-6.17638016

>  <minimizedRMSD>
2.51808047

$$$$
