
 OpenBabel03252509023D

 48 51  0  0  1  0  0  0  0  0999 V2000
   36.8650   29.0630   40.7440 N   0  0  0  0  0  0  0  0  0  0  0  0
   35.9670   28.1230   40.1700 C   0  0  0  0  0  0  0  0  0  0  0  0
   35.1170   28.6610   39.0370 C   0  0  0  0  0  0  0  0  0  0  0  0
   35.7970   29.6950   38.1870 C   0  0  0  0  0  0  0  0  0  0  0  0
   37.2270   29.9260   38.6150 C   0  0  0  0  0  0  0  0  0  0  0  0
   37.1010   30.2880   40.1390 C   0  0  2  0  0  0  0  0  0  0  0  0
   36.6030   27.3170   39.7110 H   0  0  0  0  0  0  0  0  0  0  0  0
   35.3000   27.6140   40.8670 H   0  0  0  0  0  0  0  0  0  0  0  0
   34.2370   29.1560   39.5070 H   0  0  0  0  0  0  0  0  0  0  0  0
   34.7330   27.7930   38.4690 H   0  0  0  0  0  0  0  0  0  0  0  0
   35.2760   30.6530   38.1200 H   0  0  0  0  0  0  0  0  0  0  0  0
   35.8400   29.2850   37.1390 H   0  0  0  0  0  0  0  0  0  0  0  0
   37.8270   29.0080   38.5060 H   0  0  0  0  0  0  0  0  0  0  0  0
   37.6160   30.8090   38.0840 H   0  0  0  0  0  0  0  0  0  0  0  0
   36.3110   31.0600   40.1850 H   0  0  0  0  0  0  0  0  0  0  0  0
   36.9930   28.9620   42.1700 C   0  0  0  0  0  0  0  0  0  0  0  0
   38.0160   29.2400   42.4580 H   0  0  0  0  0  0  0  0  0  0  0  0
   36.3140   29.6830   42.6550 H   0  0  0  0  0  0  0  0  0  0  0  0
   36.6200   27.5650   42.5850 C   0  0  0  0  0  0  0  0  0  0  0  0
   36.0840   27.0410   41.7660 H   0  0  0  0  0  0  0  0  0  0  0  0
   35.9820   27.5200   43.4790 H   0  0  0  0  0  0  0  0  0  0  0  0
   40.1080   26.6730   43.6800 C   0  0  0  0  0  0  0  0  0  0  0  0
   38.9230   27.3990   43.4480 C   0  0  0  0  0  0  0  0  0  0  0  0
   37.8670   26.7860   42.8230 C   0  0  0  0  0  0  0  0  0  0  0  0
   38.0190   25.5030   42.4600 N   0  0  0  0  0  0  0  0  0  0  0  0
   39.1480   24.8130   42.6820 C   0  0  0  0  0  0  0  0  0  0  0  0
   40.2040   25.3930   43.2950 N   0  0  0  0  0  0  0  0  0  0  0  0
   40.9240   27.1880   44.1760 H   0  0  0  0  0  0  0  0  0  0  0  0
   38.8970   28.4290   43.7780 H   0  0  0  0  0  0  0  0  0  0  0  0
   39.0880   23.7920   42.3210 H   0  0  0  0  0  0  0  0  0  0  0  0
   38.3780   30.7620   40.4190 O   0  0  0  0  0  0  0  0  0  0  0  0
   39.2830   33.1170   41.2570 O   0  0  0  0  0  0  0  0  0  0  0  0
   38.5370   32.4110   40.1260 P   0  0  2  0  0  0  0  0  0  0  0  0
   36.9520   33.0560   40.1750 O   0  0  0  0  0  0  0  0  0  0  0  0
   36.4500   32.6190   39.4280 H   0  0  0  0  0  0  0  0  0  0  0  0
   39.1690   32.7420   38.6270 O   0  0  0  0  0  0  0  0  0  0  0  0
   39.8840   30.7030   36.9420 H   0  0  0  0  0  0  0  0  0  0  0  0
   40.5800   31.3920   37.3160 N   0  0  0  0  0  0  0  0  0  0  0  0
   40.4310   32.4590   38.1520 C   0  0  0  0  0  0  0  0  0  0  0  0
   41.6480   33.0380   38.3350 N   0  0  0  0  0  0  0  0  0  0  0  0
   42.5850   32.3500   37.6230 C   0  0  0  0  0  0  0  0  0  0  0  0
   43.9470   32.5300   37.4760 C   0  0  0  0  0  0  0  0  0  0  0  0
   44.3750   33.3640   38.0150 H   0  0  0  0  0  0  0  0  0  0  0  0
   44.5970   31.6570   36.6820 N   0  0  0  0  0  0  0  0  0  0  0  0
   43.9190   30.6670   36.0770 C   0  0  0  0  0  0  0  0  0  0  0  0
   44.4460   29.9630   35.4370 H   0  0  0  0  0  0  0  0  0  0  0  0
   42.5800   30.4760   36.2110 N   0  0  0  0  0  0  0  0  0  0  0  0
   41.8870   31.3370   37.0040 C   0  0  0  0  0  0  0  0  0  0  0  0
  1 16  1  0  0  0  0
  2  1  1  0  0  0  0
  2  8  1  0  0  0  0
  3  9  1  0  0  0  0
  3  2  1  0  0  0  0
  4  5  1  0  0  0  0
  4  3  1  0  0  0  0
  5  6  1  0  0  0  0
  6 15  1  1  0  0  0
  6 31  1  0  0  0  0
  6  1  1  0  0  0  0
  7  2  1  0  0  0  0
 10  3  1  0  0  0  0
 11  4  1  0  0  0  0
 12  4  1  0  0  0  0
 13  5  1  0  0  0  0
 14  5  1  0  0  0  0
 16 17  1  0  0  0  0
 16 19  1  0  0  0  0
 16 18  1  0  0  0  0
 19 24  1  0  0  0  0
 19 21  1  0  0  0  0
 20 19  1  0  0  0  0
 22 28  1  0  0  0  0
 23 22  1  0  0  0  0
 23 29  1  0  0  0  0
 24 23  2  0  0  0  0
 25 26  2  0  0  0  0
 25 24  1  0  0  0  0
 26 27  1  0  0  0  0
 27 22  2  0  0  0  0
 30 26  1  0  0  0  0
 33 34  1  0  0  0  0
 33 31  1  0  0  0  0
 33 32  2  1  0  0  0
 35 34  1  0  0  0  0
 36 33  1  0  0  0  0
 37 38  1  0  0  0  0
 38 39  1  0  0  0  0
 39 40  2  0  0  0  0
 39 36  1  0  0  0  0
 41 40  1  0  0  0  0
 42 41  1  0  0  0  0
 42 43  1  0  0  0  0
 44 42  2  0  0  0  0
 45 47  2  0  0  0  0
 45 44  1  0  0  0  0
 46 45  1  0  0  0  0
 47 48  1  0  0  0  0
 48 38  1  0  0  0  0
 48 41  2  0  0  0  0
M  END
>  <minimizedAffinity>
-6.02479315

$$$$

 OpenBabel03252509023D

 48 51  0  0  1  0  0  0  0  0999 V2000
   35.8950   29.4140   38.5680 N   0  0  0  0  0  0  0  0  0  0  0  0
   34.7210   28.6910   38.2280 C   0  0  0  0  0  0  0  0  0  0  0  0
   34.2170   28.9190   36.8170 C   0  0  0  0  0  0  0  0  0  0  0  0
   35.2980   29.1550   35.8010 C   0  0  0  0  0  0  0  0  0  0  0  0
   36.6760   29.0440   36.4100 C   0  0  0  0  0  0  0  0  0  0  0  0
   36.6370   30.0710   37.5990 C   0  0  2  0  0  0  0  0  0  0  0  0
   34.9940   27.6020   38.2770 H   0  0  0  0  0  0  0  0  0  0  0  0
   33.8720   28.8150   38.9020 H   0  0  0  0  0  0  0  0  0  0  0  0
   33.5940   29.8410   36.8460 H   0  0  0  0  0  0  0  0  0  0  0  0
   33.5400   28.0800   36.5670 H   0  0  0  0  0  0  0  0  0  0  0  0
   35.2160   30.0940   35.2500 H   0  0  0  0  0  0  0  0  0  0  0  0
   35.2190   28.3300   35.0380 H   0  0  0  0  0  0  0  0  0  0  0  0
   36.8560   28.0320   36.8060 H   0  0  0  0  0  0  0  0  0  0  0  0
   37.4160   29.3990   35.6750 H   0  0  0  0  0  0  0  0  0  0  0  0
   36.2290   31.0010   37.1610 H   0  0  0  0  0  0  0  0  0  0  0  0
   35.9040   29.9280   39.9090 C   0  0  0  0  0  0  0  0  0  0  0  0
   36.9110   30.3030   40.1420 H   0  0  0  0  0  0  0  0  0  0  0  0
   35.2160   30.7860   39.9820 H   0  0  0  0  0  0  0  0  0  0  0  0
   35.4480   28.8380   40.8400 C   0  0  0  0  0  0  0  0  0  0  0  0
   35.1720   27.9250   40.2730 H   0  0  0  0  0  0  0  0  0  0  0  0
   34.5830   29.1160   41.4610 H   0  0  0  0  0  0  0  0  0  0  0  0
   38.0400   26.7510   42.5940 C   0  0  0  0  0  0  0  0  0  0  0  0
   36.9650   27.1320   41.7680 C   0  0  0  0  0  0  0  0  0  0  0  0
   36.5860   28.4490   41.7180 C   0  0  0  0  0  0  0  0  0  0  0  0
   37.2730   29.3230   42.4710 N   0  0  0  0  0  0  0  0  0  0  0  0
   38.2970   28.9580   43.2570 C   0  0  0  0  0  0  0  0  0  0  0  0
   38.6910   27.6660   43.3250 N   0  0  0  0  0  0  0  0  0  0  0  0
   38.3150   25.7010   42.6100 H   0  0  0  0  0  0  0  0  0  0  0  0
   36.4740   26.3540   41.1980 H   0  0  0  0  0  0  0  0  0  0  0  0
   38.7300   29.7970   43.7900 H   0  0  0  0  0  0  0  0  0  0  0  0
   37.9820   30.1470   37.9450 O   0  0  0  0  0  0  0  0  0  0  0  0
   37.5660   32.6940   38.5830 O   0  0  0  0  0  0  0  0  0  0  0  0
   38.5630   31.7260   37.9480 P   0  0  2  0  0  0  0  0  0  0  0  0
   38.6530   32.2020   36.3060 O   0  0  0  0  0  0  0  0  0  0  0  0
   39.3170   31.5900   35.8750 H   0  0  0  0  0  0  0  0  0  0  0  0
   40.0880   31.8510   38.5920 O   0  0  0  0  0  0  0  0  0  0  0  0
   40.6070   30.2090   36.4600 H   0  0  0  0  0  0  0  0  0  0  0  0
   41.3500   30.7970   36.9100 N   0  0  0  0  0  0  0  0  0  0  0  0
   41.2980   31.6640   37.9610 C   0  0  0  0  0  0  0  0  0  0  0  0
   42.5420   32.1800   38.1550 N   0  0  0  0  0  0  0  0  0  0  0  0
   43.3980   31.6500   37.2360 C   0  0  0  0  0  0  0  0  0  0  0  0
   44.7480   31.8450   37.0130 C   0  0  0  0  0  0  0  0  0  0  0  0
   45.2400   32.5420   37.6760 H   0  0  0  0  0  0  0  0  0  0  0  0
   45.3060   31.1540   36.0010 N   0  0  0  0  0  0  0  0  0  0  0  0
   44.5540   30.3200   35.2630 C   0  0  0  0  0  0  0  0  0  0  0  0
   45.0070   29.7620   34.4460 H   0  0  0  0  0  0  0  0  0  0  0  0
   43.2260   30.1170   35.4680 N   0  0  0  0  0  0  0  0  0  0  0  0
   42.6240   30.7970   36.4820 C   0  0  0  0  0  0  0  0  0  0  0  0
  1 16  1  0  0  0  0
  2  7  1  0  0  0  0
  2  1  1  0  0  0  0
  2  8  1  0  0  0  0
  3  9  1  0  0  0  0
  3  2  1  0  0  0  0
  4  5  1  0  0  0  0
  4  3  1  0  0  0  0
  5 13  1  0  0  0  0
  5  6  1  0  0  0  0
  6 15  1  6  0  0  0
  6 31  1  0  0  0  0
  6  1  1  0  0  0  0
 10  3  1  0  0  0  0
 11  4  1  0  0  0  0
 12  4  1  0  0  0  0
 14  5  1  0  0  0  0
 16 18  1  0  0  0  0
 16 17  1  0  0  0  0
 16 19  1  0  0  0  0
 19 21  1  0  0  0  0
 19 24  1  0  0  0  0
 20 19  1  0  0  0  0
 22 28  1  0  0  0  0
 22 27  1  0  0  0  0
 23 22  2  0  0  0  0
 24 23  1  0  0  0  0
 24 25  2  0  0  0  0
 25 26  1  0  0  0  0
 26 27  2  0  0  0  0
 26 30  1  0  0  0  0
 29 23  1  0  0  0  0
 31 33  1  0  0  0  0
 33 32  2  1  0  0  0
 33 36  1  0  0  0  0
 34 33  1  0  0  0  0
 35 34  1  0  0  0  0
 37 38  1  0  0  0  0
 38 39  1  0  0  0  0
 39 40  2  0  0  0  0
 39 36  1  0  0  0  0
 41 40  1  0  0  0  0
 42 41  1  0  0  0  0
 42 43  1  0  0  0  0
 44 42  2  0  0  0  0
 45 47  2  0  0  0  0
 45 44  1  0  0  0  0
 46 45  1  0  0  0  0
 47 48  1  0  0  0  0
 48 38  1  0  0  0  0
 48 41  2  0  0  0  0
M  END
>  <minimizedAffinity>
-6.02043915

$$$$

 OpenBabel03252509023D

 48 51  0  0  1  0  0  0  0  0999 V2000
   37.9740   27.4270   43.0220 N   0  0  0  0  0  0  0  0  0  0  0  0
   39.1940   27.0480   43.6450 C   0  0  0  0  0  0  0  0  0  0  0  0
   40.4290   27.7350   43.0990 C   0  0  0  0  0  0  0  0  0  0  0  0
   40.2040   29.1480   42.6420 C   0  0  0  0  0  0  0  0  0  0  0  0
   38.7860   29.6020   42.8930 C   0  0  0  0  0  0  0  0  0  0  0  0
   37.9160   28.5140   42.1640 C   0  0  2  0  0  0  0  0  0  0  0  0
   39.1170   27.3750   44.7170 H   0  0  0  0  0  0  0  0  0  0  0  0
   39.4020   25.9780   43.6750 H   0  0  0  0  0  0  0  0  0  0  0  0
   40.7490   27.1540   42.2060 H   0  0  0  0  0  0  0  0  0  0  0  0
   41.2290   27.6300   43.8570 H   0  0  0  0  0  0  0  0  0  0  0  0
   40.4720   29.3450   41.6020 H   0  0  0  0  0  0  0  0  0  0  0  0
   40.8660   29.8080   43.2700 H   0  0  0  0  0  0  0  0  0  0  0  0
   38.5510   29.5970   43.9690 H   0  0  0  0  0  0  0  0  0  0  0  0
   38.6280   30.5650   42.3820 H   0  0  0  0  0  0  0  0  0  0  0  0
   38.3640   28.4170   41.1580 H   0  0  0  0  0  0  0  0  0  0  0  0
   37.0500   26.3450   42.8280 C   0  0  0  0  0  0  0  0  0  0  0  0
   36.7000   25.9940   43.8080 H   0  0  0  0  0  0  0  0  0  0  0  0
   36.1650   26.7080   42.2800 H   0  0  0  0  0  0  0  0  0  0  0  0
   37.7330   25.2730   42.0240 C   0  0  0  0  0  0  0  0  0  0  0  0
   37.7340   24.3090   42.5740 H   0  0  0  0  0  0  0  0  0  0  0  0
   38.7760   25.5070   41.7630 H   0  0  0  0  0  0  0  0  0  0  0  0
   35.5330   23.6110   39.4640 C   0  0  0  0  0  0  0  0  0  0  0  0
   36.2770   23.8490   40.6360 C   0  0  0  0  0  0  0  0  0  0  0  0
   36.9510   25.0350   40.7790 C   0  0  0  0  0  0  0  0  0  0  0  0
   36.8630   25.9240   39.7780 N   0  0  0  0  0  0  0  0  0  0  0  0
   36.1550   25.6960   38.6620 C   0  0  0  0  0  0  0  0  0  0  0  0
   35.4810   24.5360   38.4950 N   0  0  0  0  0  0  0  0  0  0  0  0
   35.0120   22.6630   39.3820 H   0  0  0  0  0  0  0  0  0  0  0  0
   36.2860   23.0700   41.3870 H   0  0  0  0  0  0  0  0  0  0  0  0
   36.2000   26.5260   37.9650 H   0  0  0  0  0  0  0  0  0  0  0  0
   36.6600   29.1100   42.1740 O   0  0  0  0  0  0  0  0  0  0  0  0
   34.7850   29.3140   40.2990 O   0  0  0  0  0  0  0  0  0  0  0  0
   36.2150   29.7090   40.6650 P   0  0  2  0  0  0  0  0  0  0  0  0
   37.2000   28.9000   39.5240 O   0  0  0  0  0  0  0  0  0  0  0  0
   38.1430   29.1610   39.7350 H   0  0  0  0  0  0  0  0  0  0  0  0
   36.4970   31.3370   40.5090 O   0  0  0  0  0  0  0  0  0  0  0  0
   38.0210   30.7480   38.3090 H   0  0  0  0  0  0  0  0  0  0  0  0
   38.2680   31.5210   38.9720 N   0  0  0  0  0  0  0  0  0  0  0  0
   37.6540   31.9670   40.1040 C   0  0  0  0  0  0  0  0  0  0  0  0
   38.3760   33.0050   40.6060 N   0  0  0  0  0  0  0  0  0  0  0  0
   39.4550   33.2320   39.8050 C   0  0  0  0  0  0  0  0  0  0  0  0
   40.4790   34.1570   39.8770 C   0  0  0  0  0  0  0  0  0  0  0  0
   40.4410   34.8390   40.7140 H   0  0  0  0  0  0  0  0  0  0  0  0
   41.4110   34.1140   38.9050 N   0  0  0  0  0  0  0  0  0  0  0  0
   41.3170   33.1990   37.9250 C   0  0  0  0  0  0  0  0  0  0  0  0
   42.0700   33.1670   37.1410 H   0  0  0  0  0  0  0  0  0  0  0  0
   40.3160   32.2830   37.8390 N   0  0  0  0  0  0  0  0  0  0  0  0
   39.3560   32.2930   38.8020 C   0  0  0  0  0  0  0  0  0  0  0  0
  1  2  1  0  0  0  0
  2  8  1  0  0  0  0
  2  7  1  0  0  0  0
  3  2  1  0  0  0  0
  3 10  1  0  0  0  0
  4  5  1  0  0  0  0
  4  3  1  0  0  0  0
  4 12  1  0  0  0  0
  5 13  1  0  0  0  0
  6 15  1  6  0  0  0
  6 31  1  0  0  0  0
  6  5  1  0  0  0  0
  6  1  1  0  0  0  0
  9  3  1  0  0  0  0
 11  4  1  0  0  0  0
 14  5  1  0  0  0  0
 16  1  1  0  0  0  0
 16 17  1  0  0  0  0
 18 16  1  0  0  0  0
 19 20  1  0  0  0  0
 19 16  1  0  0  0  0
 21 19  1  0  0  0  0
 22 23  1  0  0  0  0
 23 24  2  0  0  0  0
 23 29  1  0  0  0  0
 24 19  1  0  0  0  0
 25 24  1  0  0  0  0
 26 25  2  0  0  0  0
 27 26  1  0  0  0  0
 27 22  2  0  0  0  0
 28 22  1  0  0  0  0
 30 26  1  0  0  0  0
 33 32  2  6  0  0  0
 33 31  1  0  0  0  0
 34 35  1  0  0  0  0
 34 33  1  0  0  0  0
 36 33  1  0  0  0  0
 37 38  1  0  0  0  0
 38 39  1  0  0  0  0
 39 36  1  0  0  0  0
 39 40  2  0  0  0  0
 41 42  1  0  0  0  0
 41 40  1  0  0  0  0
 42 43  1  0  0  0  0
 44 42  2  0  0  0  0
 45 44  1  0  0  0  0
 46 45  1  0  0  0  0
 47 45  2  0  0  0  0
 47 48  1  0  0  0  0
 48 38  1  0  0  0  0
 48 41  2  0  0  0  0
M  END
>  <minimizedAffinity>
-5.67906761

$$$$

 OpenBabel03252509023D

 48 51  0  0  1  0  0  0  0  0999 V2000
   40.8080   32.0260   41.6820 N   0  0  0  0  0  0  0  0  0  0  0  0
   42.2290   32.0080   41.6790 C   0  0  0  0  0  0  0  0  0  0  0  0
   42.8680   32.3120   40.3390 C   0  0  0  0  0  0  0  0  0  0  0  0
   42.1090   33.2970   39.4970 C   0  0  0  0  0  0  0  0  0  0  0  0
   40.8880   33.8270   40.2130 C   0  0  0  0  0  0  0  0  0  0  0  0
   40.0970   32.5260   40.6020 C   0  0  2  0  0  0  0  0  0  0  0  0
   42.5590   32.8350   42.3640 H   0  0  0  0  0  0  0  0  0  0  0  0
   42.6950   31.1000   42.0640 H   0  0  0  0  0  0  0  0  0  0  0  0
   42.8920   31.3540   39.7730 H   0  0  0  0  0  0  0  0  0  0  0  0
   43.9190   32.6000   40.5310 H   0  0  0  0  0  0  0  0  0  0  0  0
   41.8230   32.9350   38.5070 H   0  0  0  0  0  0  0  0  0  0  0  0
   42.7880   34.1800   39.3280 H   0  0  0  0  0  0  0  0  0  0  0  0
   41.1700   34.3720   41.1290 H   0  0  0  0  0  0  0  0  0  0  0  0
   40.2780   34.3970   39.4950 H   0  0  0  0  0  0  0  0  0  0  0  0
   40.0560   31.9270   39.6740 H   0  0  0  0  0  0  0  0  0  0  0  0
   40.2070   31.0040   42.4900 C   0  0  0  0  0  0  0  0  0  0  0  0
   40.8090   30.8660   43.3990 H   0  0  0  0  0  0  0  0  0  0  0  0
   39.2040   31.3290   42.8150 H   0  0  0  0  0  0  0  0  0  0  0  0
   40.0860   29.7520   41.6650 C   0  0  0  0  0  0  0  0  0  0  0  0
   40.9100   29.0460   41.8980 H   0  0  0  0  0  0  0  0  0  0  0  0
   40.1000   29.9310   40.5800 H   0  0  0  0  0  0  0  0  0  0  0  0
   37.6310   27.5840   43.5160 C   0  0  0  0  0  0  0  0  0  0  0  0
   38.8160   28.2530   43.1530 C   0  0  0  0  0  0  0  0  0  0  0  0
   38.8260   29.0510   42.0370 C   0  0  0  0  0  0  0  0  0  0  0  0
   37.6860   29.1560   41.3380 N   0  0  0  0  0  0  0  0  0  0  0  0
   36.5580   28.5190   41.6850 C   0  0  0  0  0  0  0  0  0  0  0  0
   36.5200   27.7260   42.7800 N   0  0  0  0  0  0  0  0  0  0  0  0
   37.6560   26.9620   44.4040 H   0  0  0  0  0  0  0  0  0  0  0  0
   39.6840   28.1050   43.7810 H   0  0  0  0  0  0  0  0  0  0  0  0
   35.7390   28.7230   41.0040 H   0  0  0  0  0  0  0  0  0  0  0  0
   38.8710   33.0540   40.9950 O   0  0  0  0  0  0  0  0  0  0  0  0
   37.0080   34.0170   39.3610 O   0  0  0  0  0  0  0  0  0  0  0  0
   37.6430   32.7330   39.8900 P   0  0  2  0  0  0  0  0  0  0  0  0
   36.3990   31.9600   40.7760 O   0  0  0  0  0  0  0  0  0  0  0  0
   36.7900   31.1040   41.1170 H   0  0  0  0  0  0  0  0  0  0  0  0
   38.1170   31.6990   38.6820 O   0  0  0  0  0  0  0  0  0  0  0  0
   38.4640   30.9980   36.0550 H   0  0  0  0  0  0  0  0  0  0  0  0
   37.6780   30.6210   36.6370 N   0  0  0  0  0  0  0  0  0  0  0  0
   37.3350   30.8410   37.9380 C   0  0  0  0  0  0  0  0  0  0  0  0
   36.2240   30.1090   38.2210 N   0  0  0  0  0  0  0  0  0  0  0  0
   35.8450   29.4180   37.1090 C   0  0  0  0  0  0  0  0  0  0  0  0
   34.7970   28.5470   36.8770 C   0  0  0  0  0  0  0  0  0  0  0  0
   34.1420   28.3610   37.7170 H   0  0  0  0  0  0  0  0  0  0  0  0
   34.7020   28.0220   35.6400 N   0  0  0  0  0  0  0  0  0  0  0  0
   35.6010   28.3540   34.6990 C   0  0  0  0  0  0  0  0  0  0  0  0
   35.5220   27.9290   33.7010 H   0  0  0  0  0  0  0  0  0  0  0  0
   36.6370   29.2080   34.9110 N   0  0  0  0  0  0  0  0  0  0  0  0
   36.7690   29.7600   36.1470 C   0  0  0  0  0  0  0  0  0  0  0  0
  1 16  1  0  0  0  0
  2  1  1  0  0  0  0
  2  8  1  0  0  0  0
  2  7  1  0  0  0  0
  3 10  1  0  0  0  0
  3  2  1  0  0  0  0
  4  5  1  0  0  0  0
  4  3  1  0  0  0  0
  5  6  1  0  0  0  0
  5 13  1  0  0  0  0
  6 15  1  6  0  0  0
  6 31  1  0  0  0  0
  6  1  1  0  0  0  0
  9  3  1  0  0  0  0
 11  4  1  0  0  0  0
 12  4  1  0  0  0  0
 14  5  1  0  0  0  0
 16 18  1  0  0  0  0
 16 17  1  0  0  0  0
 19 20  1  0  0  0  0
 19 24  1  0  0  0  0
 19 16  1  0  0  0  0
 21 19  1  0  0  0  0
 22 28  1  0  0  0  0
 23 22  1  0  0  0  0
 23 29  1  0  0  0  0
 24 23  2  0  0  0  0
 25 26  2  0  0  0  0
 25 24  1  0  0  0  0
 26 27  1  0  0  0  0
 27 22  2  0  0  0  0
 30 26  1  0  0  0  0
 33 32  2  6  0  0  0
 33 34  1  0  0  0  0
 33 31  1  0  0  0  0
 34 35  1  0  0  0  0
 36 33  1  0  0  0  0
 37 38  1  0  0  0  0
 38 39  1  0  0  0  0
 39 40  2  0  0  0  0
 39 36  1  0  0  0  0
 41 40  1  0  0  0  0
 42 41  1  0  0  0  0
 42 43  1  0  0  0  0
 44 42  2  0  0  0  0
 45 47  2  0  0  0  0
 45 44  1  0  0  0  0
 46 45  1  0  0  0  0
 47 48  1  0  0  0  0
 48 38  1  0  0  0  0
 48 41  2  0  0  0  0
M  END
>  <minimizedAffinity>
-5.56678104

$$$$

 OpenBabel03252509023D

 48 51  0  0  1  0  0  0  0  0999 V2000
   36.9800   28.1160   40.1050 N   0  0  0  0  0  0  0  0  0  0  0  0
   36.8400   28.2250   41.5150 C   0  0  0  0  0  0  0  0  0  0  0  0
   36.9440   29.6350   42.0600 C   0  0  0  0  0  0  0  0  0  0  0  0
   36.3970   30.6950   41.1470 C   0  0  0  0  0  0  0  0  0  0  0  0
   35.7940   30.1050   39.8950 C   0  0  0  0  0  0  0  0  0  0  0  0
   36.9620   29.2410   39.2950 C   0  0  2  0  0  0  0  0  0  0  0  0
   35.7960   27.8850   41.7570 H   0  0  0  0  0  0  0  0  0  0  0  0
   37.5030   27.5950   42.1100 H   0  0  0  0  0  0  0  0  0  0  0  0
   38.0280   29.8480   42.1890 H   0  0  0  0  0  0  0  0  0  0  0  0
   36.4920   29.6340   43.0700 H   0  0  0  0  0  0  0  0  0  0  0  0
   37.1060   31.4810   40.8770 H   0  0  0  0  0  0  0  0  0  0  0  0
   35.5560   31.2030   41.6980 H   0  0  0  0  0  0  0  0  0  0  0  0
   34.9410   29.4500   40.1350 H   0  0  0  0  0  0  0  0  0  0  0  0
   35.5750   30.9220   39.1900 H   0  0  0  0  0  0  0  0  0  0  0  0
   37.8430   29.9090   39.3000 H   0  0  0  0  0  0  0  0  0  0  0  0
   37.7240   26.9670   39.6730 C   0  0  0  0  0  0  0  0  0  0  0  0
   37.4840   26.7600   38.6210 H   0  0  0  0  0  0  0  0  0  0  0  0
   38.8040   27.1860   39.7190 H   0  0  0  0  0  0  0  0  0  0  0  0
   37.4050   25.8190   40.5900 C   0  0  0  0  0  0  0  0  0  0  0  0
   37.1200   24.9180   40.0080 H   0  0  0  0  0  0  0  0  0  0  0  0
   36.5900   26.0270   41.2990 H   0  0  0  0  0  0  0  0  0  0  0  0
   41.0230   25.5400   41.5840 C   0  0  0  0  0  0  0  0  0  0  0  0
   39.8520   25.8830   40.8810 C   0  0  0  0  0  0  0  0  0  0  0  0
   38.6360   25.4490   41.3430 C   0  0  0  0  0  0  0  0  0  0  0  0
   38.6240   24.7080   42.4620 N   0  0  0  0  0  0  0  0  0  0  0  0
   39.7410   24.3820   43.1300 C   0  0  0  0  0  0  0  0  0  0  0  0
   40.9520   24.7970   42.6960 N   0  0  0  0  0  0  0  0  0  0  0  0
   41.9690   25.9000   41.1920 H   0  0  0  0  0  0  0  0  0  0  0  0
   39.9640   26.4860   39.9890 H   0  0  0  0  0  0  0  0  0  0  0  0
   39.5380   23.7800   44.0090 H   0  0  0  0  0  0  0  0  0  0  0  0
   36.4720   28.9530   38.0260 O   0  0  0  0  0  0  0  0  0  0  0  0
   36.4650   29.7890   35.5020 O   0  0  0  0  0  0  0  0  0  0  0  0
   37.2390   29.8390   36.8180 P   0  0  2  0  0  0  0  0  0  0  0  0
   38.7090   29.0250   36.4940 O   0  0  0  0  0  0  0  0  0  0  0  0
   39.2410   29.0620   37.3410 H   0  0  0  0  0  0  0  0  0  0  0  0
   37.6140   31.3850   37.2910 O   0  0  0  0  0  0  0  0  0  0  0  0
   39.8270   31.9970   35.7950 H   0  0  0  0  0  0  0  0  0  0  0  0
   39.8040   32.1120   36.8370 N   0  0  0  0  0  0  0  0  0  0  0  0
   38.8210   31.8680   37.7490 C   0  0  0  0  0  0  0  0  0  0  0  0
   39.2920   32.1810   38.9860 N   0  0  0  0  0  0  0  0  0  0  0  0
   40.5760   32.6250   38.8790 C   0  0  0  0  0  0  0  0  0  0  0  0
   41.4840   33.0590   39.8270 C   0  0  0  0  0  0  0  0  0  0  0  0
   41.1360   33.0560   40.8500 H   0  0  0  0  0  0  0  0  0  0  0  0
   42.6970   33.4400   39.3820 N   0  0  0  0  0  0  0  0  0  0  0  0
   42.9770   33.3850   38.0690 C   0  0  0  0  0  0  0  0  0  0  0  0
   43.9580   33.6920   37.7120 H   0  0  0  0  0  0  0  0  0  0  0  0
   42.0970   32.9610   37.1240 N   0  0  0  0  0  0  0  0  0  0  0  0
   40.8600   32.5680   37.5330 C   0  0  0  0  0  0  0  0  0  0  0  0
  1  2  1  0  0  0  0
  2  7  1  0  0  0  0
  2  3  1  0  0  0  0
  2  8  1  0  0  0  0
  3  9  1  0  0  0  0
  3 10  1  0  0  0  0
  4 12  1  0  0  0  0
  4  3  1  0  0  0  0
  5 13  1  0  0  0  0
  5  4  1  0  0  0  0
  6 15  1  6  0  0  0
  6  5  1  0  0  0  0
  6  1  1  0  0  0  0
 11  4  1  0  0  0  0
 14  5  1  0  0  0  0
 16 18  1  0  0  0  0
 16  1  1  0  0  0  0
 16 19  1  0  0  0  0
 17 16  1  0  0  0  0
 19 21  1  0  0  0  0
 19 24  1  0  0  0  0
 20 19  1  0  0  0  0
 22 27  1  0  0  0  0
 23 24  1  0  0  0  0
 23 22  2  0  0  0  0
 24 25  2  0  0  0  0
 25 26  1  0  0  0  0
 26 30  1  0  0  0  0
 27 26  2  0  0  0  0
 28 22  1  0  0  0  0
 29 23  1  0  0  0  0
 31  6  1  0  0  0  0
 33 32  2  6  0  0  0
 33 36  1  0  0  0  0
 33 31  1  0  0  0  0
 34 33  1  0  0  0  0
 34 35  1  0  0  0  0
 36 39  1  0  0  0  0
 37 38  1  0  0  0  0
 38 48  1  0  0  0  0
 38 39  1  0  0  0  0
 39 40  2  0  0  0  0
 41 40  1  0  0  0  0
 41 42  1  0  0  0  0
 42 43  1  0  0  0  0
 44 42  2  0  0  0  0
 45 44  1  0  0  0  0
 46 45  1  0  0  0  0
 47 48  1  0  0  0  0
 47 45  2  0  0  0  0
 48 41  2  0  0  0  0
M  END
>  <minimizedAffinity>
-5.56442738

$$$$

 OpenBabel03252509023D

 48 51  0  0  1  0  0  0  0  0999 V2000
   40.2150   31.6750   39.9480 N   0  0  0  0  0  0  0  0  0  0  0  0
   41.0040   32.8520   39.8450 C   0  0  0  0  0  0  0  0  0  0  0  0
   40.2200   34.1270   39.6120 C   0  0  0  0  0  0  0  0  0  0  0  0
   38.8730   34.1590   40.2760 C   0  0  0  0  0  0  0  0  0  0  0  0
   38.6210   32.9170   41.0980 C   0  0  0  0  0  0  0  0  0  0  0  0
   38.8360   31.7460   40.0720 C   0  0  2  0  0  0  0  0  0  0  0  0
   41.5070   32.9850   40.8410 H   0  0  0  0  0  0  0  0  0  0  0  0
   41.8080   32.8240   39.1080 H   0  0  0  0  0  0  0  0  0  0  0  0
   40.0410   34.1960   38.5160 H   0  0  0  0  0  0  0  0  0  0  0  0
   40.8770   34.9750   39.8860 H   0  0  0  0  0  0  0  0  0  0  0  0
   38.0300   34.3290   39.6030 H   0  0  0  0  0  0  0  0  0  0  0  0
   38.8810   35.0230   40.9980 H   0  0  0  0  0  0  0  0  0  0  0  0
   39.3540   32.8260   41.9160 H   0  0  0  0  0  0  0  0  0  0  0  0
   37.5650   32.9090   41.4110 H   0  0  0  0  0  0  0  0  0  0  0  0
   38.2400   32.0300   39.1850 H   0  0  0  0  0  0  0  0  0  0  0  0
   40.7920   30.5210   39.3190 C   0  0  0  0  0  0  0  0  0  0  0  0
   41.8660   30.4870   39.5500 H   0  0  0  0  0  0  0  0  0  0  0  0
   40.3440   29.6050   39.7400 H   0  0  0  0  0  0  0  0  0  0  0  0
   40.5040   30.5870   37.8450 C   0  0  0  0  0  0  0  0  0  0  0  0
   40.0860   31.5780   37.5690 H   0  0  0  0  0  0  0  0  0  0  0  0
   39.7990   29.8200   37.4930 H   0  0  0  0  0  0  0  0  0  0  0  0
   43.2440   29.1840   35.6800 C   0  0  0  0  0  0  0  0  0  0  0  0
   42.0340   29.3140   36.3900 C   0  0  0  0  0  0  0  0  0  0  0  0
   41.7870   30.4620   37.0990 C   0  0  0  0  0  0  0  0  0  0  0  0
   42.7280   31.4200   37.0780 N   0  0  0  0  0  0  0  0  0  0  0  0
   43.8800   31.2940   36.4020 C   0  0  0  0  0  0  0  0  0  0  0  0
   44.1480   30.1730   35.6950 N   0  0  0  0  0  0  0  0  0  0  0  0
   43.4070   28.2640   35.1300 H   0  0  0  0  0  0  0  0  0  0  0  0
   41.3380   28.4870   36.3450 H   0  0  0  0  0  0  0  0  0  0  0  0
   44.5160   32.1660   36.5000 H   0  0  0  0  0  0  0  0  0  0  0  0
   38.3270   30.6610   40.7780 O   0  0  0  0  0  0  0  0  0  0  0  0
   36.5310   30.7170   38.8180 O   0  0  0  0  0  0  0  0  0  0  0  0
   36.8160   30.1750   40.2170 P   0  0  2  0  0  0  0  0  0  0  0  0
   35.6660   30.9400   41.2280 O   0  0  0  0  0  0  0  0  0  0  0  0
   35.8250   30.5840   42.1500 H   0  0  0  0  0  0  0  0  0  0  0  0
   36.5800   28.5370   40.3380 O   0  0  0  0  0  0  0  0  0  0  0  0
   38.6650   29.0500   42.0410 H   0  0  0  0  0  0  0  0  0  0  0  0
   38.3320   28.0770   41.8390 N   0  0  0  0  0  0  0  0  0  0  0  0
   37.3300   27.6160   41.0370 C   0  0  0  0  0  0  0  0  0  0  0  0
   37.3010   26.2580   41.1200 N   0  0  0  0  0  0  0  0  0  0  0  0
   38.2800   25.8380   41.9710 C   0  0  0  0  0  0  0  0  0  0  0  0
   38.6600   24.5770   42.3890 C   0  0  0  0  0  0  0  0  0  0  0  0
   38.0920   23.7530   41.9800 H   0  0  0  0  0  0  0  0  0  0  0  0
   39.6890   24.5040   43.2550 N   0  0  0  0  0  0  0  0  0  0  0  0
   40.2950   25.6290   43.6720 C   0  0  0  0  0  0  0  0  0  0  0  0
   41.1260   25.5680   44.3730 H   0  0  0  0  0  0  0  0  0  0  0  0
   39.9340   26.8760   43.2730 N   0  0  0  0  0  0  0  0  0  0  0  0
   38.8990   26.9920   42.3970 C   0  0  0  0  0  0  0  0  0  0  0  0
  1  6  1  0  0  0  0
  2  1  1  0  0  0  0
  2  7  1  0  0  0  0
  3  2  1  0  0  0  0
  3 10  1  0  0  0  0
  3  4  1  0  0  0  0
  4 12  1  0  0  0  0
  4  5  1  0  0  0  0
  5 14  1  0  0  0  0
  5 13  1  0  0  0  0
  6 15  1  6  0  0  0
  6 31  1  0  0  0  0
  6  5  1  0  0  0  0
  8  2  1  0  0  0  0
  9  3  1  0  0  0  0
 11  4  1  0  0  0  0
 16 17  1  0  0  0  0
 16 18  1  0  0  0  0
 16  1  1  0  0  0  0
 19 16  1  0  0  0  0
 20 19  1  0  0  0  0
 21 19  1  0  0  0  0
 22 27  2  0  0  0  0
 22 23  1  0  0  0  0
 23 24  2  0  0  0  0
 24 19  1  0  0  0  0
 25 24  1  0  0  0  0
 26 30  1  0  0  0  0
 26 25  2  0  0  0  0
 27 26  1  0  0  0  0
 28 22  1  0  0  0  0
 29 23  1  0  0  0  0
 33 32  2  6  0  0  0
 33 36  1  0  0  0  0
 33 31  1  0  0  0  0
 33 34  1  0  0  0  0
 34 35  1  0  0  0  0
 36 39  1  0  0  0  0
 38 37  1  0  0  0  0
 38 48  1  0  0  0  0
 39 40  2  0  0  0  0
 39 38  1  0  0  0  0
 40 41  1  0  0  0  0
 41 42  2  0  0  0  0
 41 48  1  0  0  0  0
 42 44  1  0  0  0  0
 43 42  1  0  0  0  0
 44 45  2  0  0  0  0
 45 46  1  0  0  0  0
 47 45  1  0  0  0  0
 48 47  2  0  0  0  0
M  END
>  <minimizedAffinity>
-5.5492506

$$$$

 OpenBabel03252509023D

 48 51  0  0  1  0  0  0  0  0999 V2000
   37.0640   26.6220   41.3870 N   0  0  0  0  0  0  0  0  0  0  0  0
   37.2880   25.3550   41.9900 C   0  0  0  0  0  0  0  0  0  0  0  0
   36.6740   24.1810   41.2550 C   0  0  0  0  0  0  0  0  0  0  0  0
   36.6450   24.3290   39.7600 C   0  0  0  0  0  0  0  0  0  0  0  0
   37.3070   25.6090   39.3090 C   0  0  0  0  0  0  0  0  0  0  0  0
   36.5400   26.7230   40.1080 C   0  0  2  0  0  0  0  0  0  0  0  0
   38.3980   25.1810   41.9590 H   0  0  0  0  0  0  0  0  0  0  0  0
   37.0030   25.2690   43.0390 H   0  0  0  0  0  0  0  0  0  0  0  0
   35.6150   24.1120   41.5930 H   0  0  0  0  0  0  0  0  0  0  0  0
   37.1850   23.2650   41.6060 H   0  0  0  0  0  0  0  0  0  0  0  0
   35.6540   24.2510   39.3080 H   0  0  0  0  0  0  0  0  0  0  0  0
   37.2560   23.4850   39.3330 H   0  0  0  0  0  0  0  0  0  0  0  0
   38.3730   25.6260   39.5890 H   0  0  0  0  0  0  0  0  0  0  0  0
   37.1020   25.7540   38.2360 H   0  0  0  0  0  0  0  0  0  0  0  0
   35.4680   26.4970   39.9570 H   0  0  0  0  0  0  0  0  0  0  0  0
   36.8140   27.6830   42.3210 C   0  0  0  0  0  0  0  0  0  0  0  0
   36.8000   28.6400   41.7800 H   0  0  0  0  0  0  0  0  0  0  0  0
   35.8160   27.5540   42.7720 H   0  0  0  0  0  0  0  0  0  0  0  0
   37.8620   27.6280   43.3980 C   0  0  0  0  0  0  0  0  0  0  0  0
   38.3090   26.6140   43.4610 H   0  0  0  0  0  0  0  0  0  0  0  0
   37.4870   27.8860   44.3990 H   0  0  0  0  0  0  0  0  0  0  0  0
   39.7290   30.7200   42.3440 C   0  0  0  0  0  0  0  0  0  0  0  0
   38.6840   29.8420   42.6920 C   0  0  0  0  0  0  0  0  0  0  0  0
   38.9760   28.5460   43.0320 C   0  0  0  0  0  0  0  0  0  0  0  0
   40.2660   28.1750   43.0170 N   0  0  0  0  0  0  0  0  0  0  0  0
   41.2600   29.0130   42.6850 C   0  0  0  0  0  0  0  0  0  0  0  0
   41.0000   30.2950   42.3460 N   0  0  0  0  0  0  0  0  0  0  0  0
   39.4640   31.7380   42.0810 H   0  0  0  0  0  0  0  0  0  0  0  0
   37.6760   30.2350   42.6760 H   0  0  0  0  0  0  0  0  0  0  0  0
   42.2340   28.5380   42.7290 H   0  0  0  0  0  0  0  0  0  0  0  0
   36.9750   27.8770   39.4640 O   0  0  0  0  0  0  0  0  0  0  0  0
   34.5910   29.0030   39.8060 O   0  0  0  0  0  0  0  0  0  0  0  0
   35.7100   28.7620   38.7950 P   0  0  2  0  0  0  0  0  0  0  0  0
   35.0110   27.7590   37.5970 O   0  0  0  0  0  0  0  0  0  0  0  0
   35.7250   27.6030   36.9130 H   0  0  0  0  0  0  0  0  0  0  0  0
   36.2200   30.1540   38.0490 O   0  0  0  0  0  0  0  0  0  0  0  0
   36.1080   32.1220   39.9530 H   0  0  0  0  0  0  0  0  0  0  0  0
   36.9790   31.9210   39.4040 N   0  0  0  0  0  0  0  0  0  0  0  0
   37.2370   31.0020   38.4310 C   0  0  0  0  0  0  0  0  0  0  0  0
   38.5310   31.1460   38.0340 N   0  0  0  0  0  0  0  0  0  0  0  0
   39.1100   32.1540   38.7460 C   0  0  0  0  0  0  0  0  0  0  0  0
   40.3860   32.6850   38.7220 C   0  0  0  0  0  0  0  0  0  0  0  0
   41.0710   32.2360   38.0170 H   0  0  0  0  0  0  0  0  0  0  0  0
   40.6430   33.6980   39.5720 N   0  0  0  0  0  0  0  0  0  0  0  0
   39.6770   34.1460   40.3920 C   0  0  0  0  0  0  0  0  0  0  0  0
   39.8870   34.9640   41.0780 H   0  0  0  0  0  0  0  0  0  0  0  0
   38.4180   33.6350   40.4290 N   0  0  0  0  0  0  0  0  0  0  0  0
   38.1190   32.6110   39.5850 C   0  0  0  0  0  0  0  0  0  0  0  0
  1  2  1  0  0  0  0
  1 16  1  0  0  0  0
  2  8  1  0  0  0  0
  3  9  1  0  0  0  0
  3 10  1  0  0  0  0
  3  2  1  0  0  0  0
  4  3  1  0  0  0  0
  5 13  1  0  0  0  0
  5  4  1  0  0  0  0
  5  6  1  0  0  0  0
  6 15  1  6  0  0  0
  6  1  1  0  0  0  0
  7  2  1  0  0  0  0
 11  4  1  0  0  0  0
 12  4  1  0  0  0  0
 14  5  1  0  0  0  0
 16 18  1  0  0  0  0
 16 19  1  0  0  0  0
 17 16  1  0  0  0  0
 19 20  1  0  0  0  0
 19 21  1  0  0  0  0
 22 27  2  0  0  0  0
 22 23  1  0  0  0  0
 23 24  2  0  0  0  0
 24 19  1  0  0  0  0
 25 24  1  0  0  0  0
 26 30  1  0  0  0  0
 26 25  2  0  0  0  0
 27 26  1  0  0  0  0
 28 22  1  0  0  0  0
 29 23  1  0  0  0  0
 31  6  1  0  0  0  0
 33 31  1  0  0  0  0
 33 32  2  1  0  0  0
 34 33  1  0  0  0  0
 35 34  1  0  0  0  0
 36 39  1  0  0  0  0
 36 33  1  0  0  0  0
 38 48  1  0  0  0  0
 38 37  1  0  0  0  0
 39 38  1  0  0  0  0
 40 39  2  0  0  0  0
 40 41  1  0  0  0  0
 41 48  1  0  0  0  0
 42 41  2  0  0  0  0
 42 44  1  0  0  0  0
 43 42  1  0  0  0  0
 44 45  2  0  0  0  0
 45 47  1  0  0  0  0
 45 46  1  0  0  0  0
 48 47  2  0  0  0  0
M  END
>  <minimizedAffinity>
-5.54503727

$$$$

 OpenBabel03252509023D

 48 51  0  0  1  0  0  0  0  0999 V2000
   37.9570   27.3740   42.9390 N   0  0  0  0  0  0  0  0  0  0  0  0
   39.1680   27.0230   43.5940 C   0  0  0  0  0  0  0  0  0  0  0  0
   40.4000   27.7480   43.0910 C   0  0  0  0  0  0  0  0  0  0  0  0
   40.1490   29.1590   42.6400 C   0  0  0  0  0  0  0  0  0  0  0  0
   38.7120   29.5720   42.8530 C   0  0  0  0  0  0  0  0  0  0  0  0
   37.8940   28.4680   42.0890 C   0  0  2  0  0  0  0  0  0  0  0  0
   39.0510   27.3370   44.6660 H   0  0  0  0  0  0  0  0  0  0  0  0
   39.4040   25.9580   43.6200 H   0  0  0  0  0  0  0  0  0  0  0  0
   40.7610   27.1840   42.2020 H   0  0  0  0  0  0  0  0  0  0  0  0
   41.1790   27.6570   43.8700 H   0  0  0  0  0  0  0  0  0  0  0  0
   40.4410   29.3730   41.6090 H   0  0  0  0  0  0  0  0  0  0  0  0
   40.7740   29.8300   43.2930 H   0  0  0  0  0  0  0  0  0  0  0  0
   38.4460   29.5490   43.9230 H   0  0  0  0  0  0  0  0  0  0  0  0
   38.5420   30.5350   42.3470 H   0  0  0  0  0  0  0  0  0  0  0  0
   38.3730   28.3930   41.0960 H   0  0  0  0  0  0  0  0  0  0  0  0
   37.0690   26.2700   42.7080 C   0  0  0  0  0  0  0  0  0  0  0  0
   36.7560   25.8540   43.6760 H   0  0  0  0  0  0  0  0  0  0  0  0
   36.1580   26.6260   42.2000 H   0  0  0  0  0  0  0  0  0  0  0  0
   37.7710   25.2680   41.8330 C   0  0  0  0  0  0  0  0  0  0  0  0
   37.8570   24.2880   42.3470 H   0  0  0  0  0  0  0  0  0  0  0  0
   38.7840   25.5730   41.5300 H   0  0  0  0  0  0  0  0  0  0  0  0
   35.4860   23.5900   39.3590 C   0  0  0  0  0  0  0  0  0  0  0  0
   36.2750   23.8320   40.5010 C   0  0  0  0  0  0  0  0  0  0  0  0
   36.9420   25.0250   40.6200 C   0  0  0  0  0  0  0  0  0  0  0  0
   36.8050   25.9160   39.6260 N   0  0  0  0  0  0  0  0  0  0  0  0
   36.0540   25.6830   38.5390 C   0  0  0  0  0  0  0  0  0  0  0  0
   35.3870   24.5160   38.3960 N   0  0  0  0  0  0  0  0  0  0  0  0
   34.9720   22.6370   39.2960 H   0  0  0  0  0  0  0  0  0  0  0  0
   36.3210   23.0520   41.2490 H   0  0  0  0  0  0  0  0  0  0  0  0
   36.0630   26.5150   37.8430 H   0  0  0  0  0  0  0  0  0  0  0  0
   36.6220   29.0290   42.0680 O   0  0  0  0  0  0  0  0  0  0  0  0
   36.4650   31.3460   40.7730 O   0  0  0  0  0  0  0  0  0  0  0  0
   36.2930   29.8350   40.6280 P   0  0  2  0  0  0  0  0  0  0  0  0
   34.6220   29.6110   40.3290 O   0  0  0  0  0  0  0  0  0  0  0  0
   34.4900   28.6260   40.2120 H   0  0  0  0  0  0  0  0  0  0  0  0
   37.1230   29.2100   39.3340 O   0  0  0  0  0  0  0  0  0  0  0  0
   37.8350   31.8190   38.8900 H   0  0  0  0  0  0  0  0  0  0  0  0
   38.4580   31.0150   38.6340 N   0  0  0  0  0  0  0  0  0  0  0  0
   38.2930   29.6690   38.7690 C   0  0  0  0  0  0  0  0  0  0  0  0
   39.4000   29.0470   38.2800 N   0  0  0  0  0  0  0  0  0  0  0  0
   40.2800   29.9850   37.8280 C   0  0  0  0  0  0  0  0  0  0  0  0
   41.5300   29.8740   37.2500 C   0  0  0  0  0  0  0  0  0  0  0  0
   41.9030   28.8680   37.1210 H   0  0  0  0  0  0  0  0  0  0  0  0
   42.1510   31.0210   36.9120 N   0  0  0  0  0  0  0  0  0  0  0  0
   41.5510   32.2010   37.1390 C   0  0  0  0  0  0  0  0  0  0  0  0
   42.0550   33.1260   36.8650 H   0  0  0  0  0  0  0  0  0  0  0  0
   40.3230   32.3280   37.7070 N   0  0  0  0  0  0  0  0  0  0  0  0
   39.6630   31.1930   38.0640 C   0  0  0  0  0  0  0  0  0  0  0  0
  1  2  1  0  0  0  0
  2  8  1  0  0  0  0
  2  7  1  0  0  0  0
  3  2  1  0  0  0  0
  3 10  1  0  0  0  0
  4  5  1  0  0  0  0
  4  3  1  0  0  0  0
  4 12  1  0  0  0  0
  5 13  1  0  0  0  0
  6 15  1  6  0  0  0
  6  5  1  0  0  0  0
  6  1  1  0  0  0  0
  9  3  1  0  0  0  0
 11  4  1  0  0  0  0
 14  5  1  0  0  0  0
 16  1  1  0  0  0  0
 16 17  1  0  0  0  0
 18 16  1  0  0  0  0
 19 20  1  0  0  0  0
 19 16  1  0  0  0  0
 21 19  1  0  0  0  0
 22 23  1  0  0  0  0
 23 24  2  0  0  0  0
 23 29  1  0  0  0  0
 24 19  1  0  0  0  0
 25 24  1  0  0  0  0
 26 25  2  0  0  0  0
 27 26  1  0  0  0  0
 27 22  2  0  0  0  0
 28 22  1  0  0  0  0
 30 26  1  0  0  0  0
 31  6  1  0  0  0  0
 33 32  2  1  0  0  0
 33 31  1  0  0  0  0
 34 33  1  0  0  0  0
 35 34  1  0  0  0  0
 36 33  1  0  0  0  0
 38 39  1  0  0  0  0
 38 37  1  0  0  0  0
 39 36  1  0  0  0  0
 40 39  2  0  0  0  0
 41 48  1  0  0  0  0
 41 40  1  0  0  0  0
 42 41  2  0  0  0  0
 43 42  1  0  0  0  0
 44 45  2  0  0  0  0
 44 42  1  0  0  0  0
 45 47  1  0  0  0  0
 46 45  1  0  0  0  0
 47 48  2  0  0  0  0
 48 38  1  0  0  0  0
M  END
>  <minimizedAffinity>
-5.51212263

$$$$

 OpenBabel03252509023D

 48 51  0  0  1  0  0  0  0  0999 V2000
   38.6060   29.2280   42.2370 N   0  0  0  0  0  0  0  0  0  0  0  0
   39.4750   28.3750   42.9680 C   0  0  0  0  0  0  0  0  0  0  0  0
   40.9520   28.6560   42.7810 C   0  0  0  0  0  0  0  0  0  0  0  0
   41.2880   30.1060   42.5760 C   0  0  0  0  0  0  0  0  0  0  0  0
   40.0650   30.9860   42.6710 C   0  0  0  0  0  0  0  0  0  0  0  0
   39.0840   30.3690   41.6100 C   0  0  2  0  0  0  0  0  0  0  0  0
   39.2680   28.5690   44.0560 H   0  0  0  0  0  0  0  0  0  0  0  0
   39.3250   27.3040   42.8230 H   0  0  0  0  0  0  0  0  0  0  0  0
   41.2640   28.1190   41.8570 H   0  0  0  0  0  0  0  0  0  0  0  0
   41.4890   28.1840   43.6250 H   0  0  0  0  0  0  0  0  0  0  0  0
   41.8290   30.3290   41.6540 H   0  0  0  0  0  0  0  0  0  0  0  0
   41.9670   30.4100   43.4220 H   0  0  0  0  0  0  0  0  0  0  0  0
   39.6070   30.9250   43.6710 H   0  0  0  0  0  0  0  0  0  0  0  0
   40.3340   32.0010   42.3390 H   0  0  0  0  0  0  0  0  0  0  0  0
   39.6900   30.2530   40.6930 H   0  0  0  0  0  0  0  0  0  0  0  0
   37.4580   28.5680   41.6840 C   0  0  0  0  0  0  0  0  0  0  0  0
   36.5820   29.2240   41.7880 H   0  0  0  0  0  0  0  0  0  0  0  0
   37.6080   28.4020   40.6040 H   0  0  0  0  0  0  0  0  0  0  0  0
   37.2900   27.2430   42.3760 C   0  0  0  0  0  0  0  0  0  0  0  0
   36.4230   27.2670   43.0680 H   0  0  0  0  0  0  0  0  0  0  0  0
   38.1690   26.9300   42.9590 H   0  0  0  0  0  0  0  0  0  0  0  0
   36.6990   23.8930   40.7700 C   0  0  0  0  0  0  0  0  0  0  0  0
   36.9970   24.8840   41.7250 C   0  0  0  0  0  0  0  0  0  0  0  0
   36.9730   26.2050   41.3570 C   0  0  0  0  0  0  0  0  0  0  0  0
   36.6600   26.4900   40.0830 N   0  0  0  0  0  0  0  0  0  0  0  0
   36.3760   25.5440   39.1740 C   0  0  0  0  0  0  0  0  0  0  0  0
   36.3920   24.2350   39.5110 N   0  0  0  0  0  0  0  0  0  0  0  0
   36.7260   22.8580   41.0930 H   0  0  0  0  0  0  0  0  0  0  0  0
   37.2370   24.5550   42.7270 H   0  0  0  0  0  0  0  0  0  0  0  0
   36.1470   25.9610   38.2000 H   0  0  0  0  0  0  0  0  0  0  0  0
   38.1080   31.3560   41.5260 O   0  0  0  0  0  0  0  0  0  0  0  0
   39.4450   33.3400   40.3660 O   0  0  0  0  0  0  0  0  0  0  0  0
   38.3000   32.3460   40.1780 P   0  0  2  0  0  0  0  0  0  0  0  0
   36.8890   33.3110   40.0930 O   0  0  0  0  0  0  0  0  0  0  0  0
   36.1270   32.6780   39.9510 H   0  0  0  0  0  0  0  0  0  0  0  0
   38.4110   31.4910   38.7600 O   0  0  0  0  0  0  0  0  0  0  0  0
   35.9460   30.8340   39.7610 H   0  0  0  0  0  0  0  0  0  0  0  0
   36.3370   30.3900   38.8960 N   0  0  0  0  0  0  0  0  0  0  0  0
   37.5210   30.5730   38.2460 C   0  0  0  0  0  0  0  0  0  0  0  0
   37.5500   29.7510   37.1630 N   0  0  0  0  0  0  0  0  0  0  0  0
   36.3910   29.0350   37.1100 C   0  0  0  0  0  0  0  0  0  0  0  0
   35.9370   28.0800   36.2200 C   0  0  0  0  0  0  0  0  0  0  0  0
   36.6050   27.8370   35.4050 H   0  0  0  0  0  0  0  0  0  0  0  0
   34.7190   27.5550   36.4560 N   0  0  0  0  0  0  0  0  0  0  0  0
   34.0060   27.9650   37.5190 C   0  0  0  0  0  0  0  0  0  0  0  0
   33.0230   27.5400   37.7070 H   0  0  0  0  0  0  0  0  0  0  0  0
   34.4380   28.9030   38.4030 N   0  0  0  0  0  0  0  0  0  0  0  0
   35.6630   29.4570   38.2000 C   0  0  0  0  0  0  0  0  0  0  0  0
  1  2  1  0  0  0  0
  2  7  1  0  0  0  0
  3  2  1  0  0  0  0
  3 10  1  0  0  0  0
  4  5  1  0  0  0  0
  4  3  1  0  0  0  0
  4 12  1  0  0  0  0
  5 13  1  0  0  0  0
  6 15  1  6  0  0  0
  6  1  1  0  0  0  0
  6  5  1  0  0  0  0
  8  2  1  0  0  0  0
  9  3  1  0  0  0  0
 11  4  1  0  0  0  0
 14  5  1  0  0  0  0
 16 17  1  0  0  0  0
 16  1  1  0  0  0  0
 16 19  1  0  0  0  0
 18 16  1  0  0  0  0
 19 21  1  0  0  0  0
 19 20  1  0  0  0  0
 22 28  1  0  0  0  0
 22 23  1  0  0  0  0
 23 29  1  0  0  0  0
 24 23  2  0  0  0  0
 24 19  1  0  0  0  0
 25 24  1  0  0  0  0
 26 27  1  0  0  0  0
 26 25  2  0  0  0  0
 27 22  2  0  0  0  0
 30 26  1  0  0  0  0
 31  6  1  0  0  0  0
 33 32  2  1  0  0  0
 33 31  1  0  0  0  0
 34 33  1  0  0  0  0
 35 34  1  0  0  0  0
 36 33  1  0  0  0  0
 38 37  1  0  0  0  0
 39 36  1  0  0  0  0
 39 38  1  0  0  0  0
 40 39  2  0  0  0  0
 41 40  1  0  0  0  0
 41 48  1  0  0  0  0
 42 44  1  0  0  0  0
 42 41  2  0  0  0  0
 43 42  1  0  0  0  0
 44 45  2  0  0  0  0
 45 46  1  0  0  0  0
 45 47  1  0  0  0  0
 48 47  2  0  0  0  0
 48 38  1  0  0  0  0
M  END
>  <minimizedAffinity>
-5.39890194

$$$$
