
 OpenBabel03252504303D

 36 38  0  0  0  0  0  0  0  0999 V2000
   45.1180   35.7670   43.4980 C   0  0  0  0  0  0  0  0  0  0  0  0
   45.9970   35.4430   42.9100 H   0  0  0  0  0  0  0  0  0  0  0  0
   45.1150   36.8640   43.7120 H   0  0  0  0  0  0  0  0  0  0  0  0
   43.8130   35.5560   41.3230 C   0  0  0  0  0  0  0  0  0  0  0  0
   43.8810   35.4970   42.6600 C   0  0  0  0  0  0  0  0  0  0  0  0
   42.5840   35.2690   40.7530 O   0  0  0  0  0  0  0  0  0  0  0  0
   41.3390   35.6780   41.1850 C   0  0  0  0  0  0  0  0  0  0  0  0
   41.3780   35.6510   42.3180 H   0  0  0  0  0  0  0  0  0  0  0  0
   41.0880   36.6640   40.7970 H   0  0  0  0  0  0  0  0  0  0  0  0
   40.2800   33.5490   41.6190 C   0  0  0  0  0  0  0  0  0  0  0  0
   40.2470   34.7290   40.8490 C   0  0  0  0  0  0  0  0  0  0  0  0
   39.2520   34.8510   39.9340 C   0  0  0  0  0  0  0  0  0  0  0  0
   38.3790   33.8480   39.8280 N   0  0  0  0  0  0  0  0  0  0  0  0
   38.4100   32.7320   40.5580 C   0  0  0  0  0  0  0  0  0  0  0  0
   39.4030   32.5360   41.5190 N   0  0  0  0  0  0  0  0  0  0  0  0
   41.0330   33.3580   42.3760 H   0  0  0  0  0  0  0  0  0  0  0  0
   39.2750   35.7720   39.3720 H   0  0  0  0  0  0  0  0  0  0  0  0
   37.6540   31.9780   40.3950 H   0  0  0  0  0  0  0  0  0  0  0  0
   44.9700   35.0700   44.6760 O   0  0  0  0  0  0  0  0  0  0  0  0
   45.2460   32.5470   43.8830 O   0  0  0  0  0  0  0  0  0  0  0  0
   45.8860   33.6450   44.6840 P   0  0  1  0  0  0  0  0  0  0  0  0
   47.4210   33.9490   44.0520 O   0  0  0  0  0  0  0  0  0  0  0  0
   47.7720   33.1720   43.5550 H   0  0  0  0  0  0  0  0  0  0  0  0
   46.0940   33.1470   46.3010 O   0  0  0  0  0  0  0  0  0  0  0  0
   44.0860   31.2910   46.7210 H   0  0  0  0  0  0  0  0  0  0  0  0
   45.0810   30.9710   46.7830 N   0  0  0  0  0  0  0  0  0  0  0  0
   46.1380   31.7890   46.5960 C   0  0  0  0  0  0  0  0  0  0  0  0
   47.2240   31.0060   46.7580 N   0  0  0  0  0  0  0  0  0  0  0  0
   46.8560   29.7460   47.0370 C   0  0  0  0  0  0  0  0  0  0  0  0
   47.4980   28.5510   47.2920 C   0  0  0  0  0  0  0  0  0  0  0  0
   48.5950   28.6130   47.2690 H   0  0  0  0  0  0  0  0  0  0  0  0
   46.8730   27.3900   47.5500 N   0  0  0  0  0  0  0  0  0  0  0  0
   45.5110   27.4230   47.5540 C   0  0  0  0  0  0  0  0  0  0  0  0
   45.0240   26.4850   47.7630 H   0  0  0  0  0  0  0  0  0  0  0  0
   44.8190   28.5570   47.3120 N   0  0  0  0  0  0  0  0  0  0  0  0
   45.4750   29.7150   47.0540 C   0  0  0  0  0  0  0  0  0  0  0  0
  1  3  1  0  0  0  0
  1 19  1  0  0  0  0
  2  1  1  0  0  0  0
  4  5  2  0  0  0  0
  5  1  1  0  0  0  0
  6  7  1  0  0  0  0
  6  4  1  0  0  0  0
  7  8  1  0  0  0  0
  9  7  1  0  0  0  0
 10 16  1  0  0  0  0
 11  7  1  0  0  0  0
 11 10  2  0  0  0  0
 12 11  1  0  0  0  0
 13 12  2  0  0  0  0
 13 14  1  0  0  0  0
 14 15  2  0  0  0  0
 15 10  1  0  0  0  0
 17 12  1  0  0  0  0
 18 14  1  0  0  0  0
 19 21  1  0  0  0  0
 21 20  2  6  0  0  0
 21 24  1  0  0  0  0
 22 21  1  0  0  0  0
 23 22  1  0  0  0  0
 24 27  1  0  0  0  0
 25 26  1  0  0  0  0
 26 36  1  0  0  0  0
 27 28  2  0  0  0  0
 27 26  1  0  0  0  0
 28 29  1  0  0  0  0
 29 36  2  0  0  0  0
 29 30  1  0  0  0  0
 30 32  2  0  0  0  0
 31 30  1  0  0  0  0
 32 33  1  0  0  0  0
 33 34  1  0  0  0  0
 35 33  2  0  0  0  0
 36 35  1  0  0  0  0
M  END
>  <minimizedAffinity>
-5.43396854

>  <minimizedRMSD>
1.36314631

$$$$
