
 OpenBabel03252507463D

 40 43  0  0  0  0  0  0  0  0999 V2000
   48.4550   33.9440   41.3010 C   0  0  0  0  0  0  0  0  0  0  0  0
   48.9580   32.7540   40.8110 C   0  0  0  0  0  0  0  0  0  0  0  0
   50.2090   32.2630   41.1660 C   0  0  0  0  0  0  0  0  0  0  0  0
   50.9220   33.0520   42.0500 N   0  0  0  0  0  0  0  0  0  0  0  0
   50.4060   34.2050   42.5110 C   0  0  0  0  0  0  0  0  0  0  0  0
   49.2020   34.6340   42.1400 N   0  0  0  0  0  0  0  0  0  0  0  0
   50.5530   31.3380   40.7590 H   0  0  0  0  0  0  0  0  0  0  0  0
   51.0670   34.7270   43.1950 H   0  0  0  0  0  0  0  0  0  0  0  0
   47.1160   34.3280   40.8320 C   0  0  0  0  0  0  0  0  0  0  0  0
   47.1390   35.0030   39.9350 H   0  0  0  0  0  0  0  0  0  0  0  0
   46.5120   33.4500   40.5240 H   0  0  0  0  0  0  0  0  0  0  0  0
   46.3020   35.0140   41.9020 C   0  0  0  0  0  0  0  0  0  0  0  0
   46.5750   36.0900   41.8910 H   0  0  0  0  0  0  0  0  0  0  0  0
   46.5930   34.6640   42.9310 H   0  0  0  0  0  0  0  0  0  0  0  0
   44.8380   34.9450   41.6860 C   0  0  0  0  0  0  0  0  0  0  0  0
   43.9560   35.4100   42.7000 C   0  0  0  0  0  0  0  0  0  0  0  0
   42.2960   35.1230   41.9780 S   0  0  0  0  0  0  0  0  0  0  0  0
   43.0910   34.4090   40.3960 C   0  0  0  0  0  0  0  0  0  0  0  0
   44.2010   34.4940   40.6380 N   0  0  0  0  0  0  0  0  0  0  0  0
   44.2160   35.8290   43.6630 H   0  0  0  0  0  0  0  0  0  0  0  0
   42.3410   33.9510   39.3240 O   0  0  0  0  0  0  0  0  0  0  0  0
   40.3910   34.4010   37.5870 O   0  0  0  0  0  0  0  0  0  0  0  0
   41.4740   35.0790   38.4070 P   0  0  0  0  0  0  0  0  0  0  0  0
   40.7480   36.1690   39.4840 O   0  0  0  0  0  0  0  0  0  0  0  0
   40.3900   35.6240   40.2320 H   0  0  0  0  0  0  0  0  0  0  0  0
   42.5540   35.9460   37.4140 O   0  0  0  0  0  0  0  0  0  0  0  0
   42.8460   35.3490   36.6610 H   0  0  0  0  0  0  0  0  0  0  0  0
   47.9870   31.7690   39.6310 S   0  0  0  0  0  0  0  0  0  0  0  0
   49.7650   29.2100   39.3690 H   0  0  0  0  0  0  0  0  0  0  0  0
   49.7870   29.8470   38.5430 N   0  0  0  0  0  0  0  0  0  0  0  0
   49.0920   30.9960   38.4600 C   0  0  0  0  0  0  0  0  0  0  0  0
   49.3300   31.5870   37.2760 N   0  0  0  0  0  0  0  0  0  0  0  0
   50.1860   30.8350   36.5590 C   0  0  0  0  0  0  0  0  0  0  0  0
   50.7700   30.9370   35.3110 C   0  0  0  0  0  0  0  0  0  0  0  0
   50.4900   31.8340   34.7410 H   0  0  0  0  0  0  0  0  0  0  0  0
   51.6190   29.9700   34.8690 N   0  0  0  0  0  0  0  0  0  0  0  0
   51.8590   28.9240   35.6970 C   0  0  0  0  0  0  0  0  0  0  0  0
   52.5510   28.1970   35.2630 H   0  0  0  0  0  0  0  0  0  0  0  0
   51.3090   28.7790   36.9330 N   0  0  0  0  0  0  0  0  0  0  0  0
   50.4590   29.7470   37.3740 C   0  0  0  0  0  0  0  0  0  0  0  0
  1  6  1  0  0  0  0
  2  3  1  0  0  0  0
  2  1  2  0  0  0  0
  3  4  2  0  0  0  0
  4  5  1  0  0  0  0
  5  8  1  0  0  0  0
  6  5  2  0  0  0  0
  7  3  1  0  0  0  0
  9  1  1  0  0  0  0
  9 12  1  0  0  0  0
 10  9  1  0  0  0  0
 11  9  1  0  0  0  0
 12 14  1  0  0  0  0
 13 12  1  0  0  0  0
 15 12  1  0  0  0  0
 15 16  2  0  0  0  0
 16 20  1  0  0  0  0
 17 16  1  0  0  0  0
 18 19  2  0  0  0  0
 18 17  1  0  0  0  0
 19 15  1  0  0  0  0
 21 18  1  0  0  0  0
 22 23  2  0  0  0  0
 23 21  1  0  0  0  0
 23 24  1  0  0  0  0
 24 25  1  0  0  0  0
 26 23  1  0  0  0  0
 27 26  1  0  0  0  0
 28  2  1  0  0  0  0
 30 29  1  0  0  0  0
 31 30  1  0  0  0  0
 31 28  1  0  0  0  0
 32 31  2  0  0  0  0
 33 32  1  0  0  0  0
 33 40  1  0  0  0  0
 34 33  2  0  0  0  0
 35 34  1  0  0  0  0
 36 34  1  0  0  0  0
 36 37  2  0  0  0  0
 37 39  1  0  0  0  0
 38 37  1  0  0  0  0
 39 40  2  0  0  0  0
 40 30  1  0  0  0  0
M  END
>  <minimizedAffinity>
-4.77639675

>  <minimizedRMSD>
1.51997352

$$$$
