REMARK  Name = 
REMARK  7 active torsions:
REMARK  status: ('A' for Active; 'I' for Inactive)
REMARK    1  A    between atoms: C_1  and  C_4
REMARK    2  A    between atoms: C_1  and  C_9
REMARK    3  A    between atoms: C_9  and  O_10
REMARK    4  A    between atoms: O_10  and  P_12
REMARK    5  A    between atoms: P_12  and  O_13
REMARK    6  A    between atoms: P_12  and  O_14
REMARK    7  A    between atoms: O_14  and  C_26
REMARK                            x       y       z     vdW  Elec       q    Type
REMARK                         _______ _______ _______ _____ _____    ______ ____
ROOT
ATOM      1  O   UNL     1      49.292  32.260  42.417  0.00  0.00    +0.000 OA
ENDROOT
BRANCH   1   2
ATOM      2  C   UNL     1      49.175  33.596  42.738  0.00  0.00    +0.000 C 
ATOM      3  H   UNL     1      49.255  33.713  43.857  0.00  0.00    +0.000 HD
ATOM      4  H   UNL     1      50.049  34.162  42.304  0.00  0.00    +0.000 HD
BRANCH   2   5
ATOM      5  C   UNL     1      47.877  34.156  42.254  0.00  0.00    +0.000 C 
ATOM      6  H   UNL     1      47.479  33.566  41.399  0.00  0.00    +0.000 HD
ATOM      7  H   UNL     1      48.054  35.209  41.940  0.00  0.00    +0.000 HD
BRANCH   5  10
ATOM      8  C   UNL     1      44.889  35.086  44.358  0.00  0.00    +0.000 A 
ATOM      9  C   UNL     1      45.821  35.040  43.274  0.00  0.00    +0.000 A 
ATOM     10  C   UNL     1      46.919  34.195  43.383  0.00  0.00    +0.000 A 
ATOM     11  N   UNL     1      47.052  33.466  44.494  0.00  0.00    +0.000 NA
ATOM     12  C   UNL     1      46.163  33.521  45.509  0.00  0.00    +0.000 A 
ATOM     13  N   UNL     1      45.088  34.319  45.453  0.00  0.00    +0.000 NA
ATOM     14  N   UNL     1      43.769  35.929  44.279  0.00  0.00    +0.000 N 
ATOM     15  H   UNL     1      45.606  35.675  42.428  0.00  0.00    +0.000 HD
ATOM     16  H   UNL     1      46.335  32.901  46.381  0.00  0.00    +0.000 HD
ATOM     17  H   UNL     1      43.364  36.289  45.172  0.00  0.00    +0.000 HD
ATOM     18  H   UNL     1      43.290  36.240  43.404  0.00  0.00    +0.000 HD
ENDBRANCH   5  10
ENDBRANCH   2   5
ENDBRANCH   1   2
BRANCH   1  20
ATOM     19  O   UNL     1      50.874  30.538  41.244  0.00  0.00    +0.000 OA
ATOM     20  P   UNL     1      50.474  31.982  41.238  0.00  0.00    +0.000 P 
BRANCH  20  21
ATOM     21  O   UNL     1      51.769  33.011  41.599  0.00  0.00    +0.000 OA
ATOM     22  H   UNL     1      51.697  33.890  41.127  0.00  0.00    +0.000 HD
ENDBRANCH  20  21
BRANCH  20  23
ATOM     23  O   UNL     1      49.896  32.480  39.723  0.00  0.00    +0.000 OA
BRANCH  23  26
ATOM     24  H   UNL     1      49.034  30.577  37.789  0.00  0.00    +0.000 HD
ATOM     25  N   UNL     1      48.303  31.072  38.337  0.00  0.00    +0.000 N 
ATOM     26  C   UNL     1      48.691  31.974  39.254  0.00  0.00    +0.000 A 
ATOM     27  N   UNL     1      47.593  32.504  39.855  0.00  0.00    +0.000 NA
ATOM     28  C   UNL     1      46.481  31.940  39.322  0.00  0.00    +0.000 A 
ATOM     29  C   UNL     1      45.110  32.000  39.449  0.00  0.00    +0.000 A 
ATOM     30  H   UNL     1      44.740  32.702  40.194  0.00  0.00    +0.000 HD
ATOM     31  N   UNL     1      44.312  31.239  38.696  0.00  0.00    +0.000 NA
ATOM     32  C   UNL     1      44.785  30.375  37.778  0.00  0.00    +0.000 A 
ATOM     33  H   UNL     1      44.130  29.765  37.176  0.00  0.00    +0.000 HD
ATOM     34  N   UNL     1      46.133  30.297  37.635  0.00  0.00    +0.000 NA
ATOM     35  C   UNL     1      46.964  31.051  38.377  0.00  0.00    +0.000 A 
ENDBRANCH  23  26
ENDBRANCH  20  23
ENDBRANCH   1  20
TORSDOF 7
