
 OpenBabel03252500453D

 37 40  0  0  1  0  0  0  0  0999 V2000
   39.0650   29.0120   42.7750 C   0  0  1  0  0  0  0  0  0  0  0  0
   39.6960   30.4030   42.7060 C   0  0  0  0  0  0  0  0  0  0  0  0
   38.3150   30.1600   42.1700 C   0  0  1  0  0  0  0  0  0  0  0  0
   38.7040   28.7580   43.7890 H   0  0  0  0  0  0  0  0  0  0  0  0
   39.8910   30.9290   43.6380 H   0  0  0  0  0  0  0  0  0  0  0  0
   40.5480   30.5170   41.9750 H   0  0  0  0  0  0  0  0  0  0  0  0
   37.5040   30.6640   42.7420 H   0  0  0  0  0  0  0  0  0  0  0  0
   39.5760   28.0130   41.8130 C   0  0  0  0  0  0  0  0  0  0  0  0
   40.6910   27.9970   41.7890 H   0  0  0  0  0  0  0  0  0  0  0  0
   39.2400   28.3170   40.7900 H   0  0  0  0  0  0  0  0  0  0  0  0
   39.0820   26.6440   42.0320 C   0  0  0  0  0  0  0  0  0  0  0  0
   37.7730   26.4660   41.6710 C   0  0  0  0  0  0  0  0  0  0  0  0
   37.1590   25.2180   41.8330 C   0  0  0  0  0  0  0  0  0  0  0  0
   37.9580   24.2260   42.3630 N   0  0  0  0  0  0  0  0  0  0  0  0
   39.2440   24.4230   42.7090 C   0  0  0  0  0  0  0  0  0  0  0  0
   39.7860   25.6210   42.5400 N   0  0  0  0  0  0  0  0  0  0  0  0
   36.9990   27.0890   41.2440 H   0  0  0  0  0  0  0  0  0  0  0  0
   36.1530   24.9010   41.6080 H   0  0  0  0  0  0  0  0  0  0  0  0
   39.7680   23.5770   43.1110 H   0  0  0  0  0  0  0  0  0  0  0  0
   38.1360   30.1360   40.8070 O   0  0  0  0  0  0  0  0  0  0  0  0
   36.4060   30.8220   38.8930 O   0  0  0  0  0  0  0  0  0  0  0  0
   36.9080   31.1610   40.2850 P   0  0  1  0  0  0  0  0  0  0  0  0
   35.5860   31.0090   41.3490 O   0  0  0  0  0  0  0  0  0  0  0  0
   35.8460   30.6200   42.2160 H   0  0  0  0  0  0  0  0  0  0  0  0
   37.4870   32.7620   40.3450 O   0  0  0  0  0  0  0  0  0  0  0  0
   38.7160   31.6560   38.0820 H   0  0  0  0  0  0  0  0  0  0  0  0
   39.1820   32.4000   38.6420 N   0  0  0  0  0  0  0  0  0  0  0  0
   38.7150   33.0250   39.7520 C   0  0  0  0  0  0  0  0  0  0  0  0
   39.6330   33.9270   40.1680 N   0  0  0  0  0  0  0  0  0  0  0  0
   40.7060   33.9170   39.3550 C   0  0  0  0  0  0  0  0  0  0  0  0
   41.9300   34.5360   39.2000 C   0  0  0  0  0  0  0  0  0  0  0  0
   42.1600   35.2910   39.9480 H   0  0  0  0  0  0  0  0  0  0  0  0
   42.7760   34.2360   38.2020 N   0  0  0  0  0  0  0  0  0  0  0  0
   42.4520   33.2850   37.2860 C   0  0  0  0  0  0  0  0  0  0  0  0
   43.1130   33.0250   36.4750 H   0  0  0  0  0  0  0  0  0  0  0  0
   41.2620   32.6750   37.4270 N   0  0  0  0  0  0  0  0  0  0  0  0
   40.3890   32.9520   38.4150 C   0  0  0  0  0  0  0  0  0  0  0  0
  1  4  1  1  0  0  0
  2  1  1  0  0  0  0
  2  5  1  0  0  0  0
  3  2  1  0  0  0  0
  3  7  1  1  0  0  0
  3  1  1  0  0  0  0
  6  2  1  0  0  0  0
  8 11  1  0  0  0  0
  8  1  1  0  0  0  0
  9  8  1  0  0  0  0
 10  8  1  0  0  0  0
 11 16  1  0  0  0  0
 12 13  1  0  0  0  0
 12 11  2  0  0  0  0
 13 14  2  0  0  0  0
 14 15  1  0  0  0  0
 15 19  1  0  0  0  0
 16 15  2  0  0  0  0
 17 12  1  0  0  0  0
 18 13  1  0  0  0  0
 20  3  1  0  0  0  0
 22 21  2  6  0  0  0
 22 25  1  0  0  0  0
 22 20  1  0  0  0  0
 22 23  1  0  0  0  0
 23 24  1  0  0  0  0
 26 27  1  0  0  0  0
 27 28  1  0  0  0  0
 28 29  2  0  0  0  0
 28 25  1  0  0  0  0
 30 29  1  0  0  0  0
 31 30  1  0  0  0  0
 31 32  1  0  0  0  0
 33 31  2  0  0  0  0
 34 36  2  0  0  0  0
 34 33  1  0  0  0  0
 35 34  1  0  0  0  0
 36 37  1  0  0  0  0
 37 27  1  0  0  0  0
 37 30  2  0  0  0  0
M  END
>  <minimizedAffinity>
-5.77064943

$$$$

 OpenBabel03252500453D

 37 40  0  0  1  0  0  0  0  0999 V2000
   37.6040   27.0060   43.0020 C   0  0  1  0  0  0  0  0  0  0  0  0
   36.2660   27.3930   43.6330 C   0  0  0  0  0  0  0  0  0  0  0  0
   36.6210   27.8510   42.2490 C   0  0  1  0  0  0  0  0  0  0  0  0
   37.6210   25.9590   42.6470 H   0  0  0  0  0  0  0  0  0  0  0  0
   35.5430   26.6050   43.8340 H   0  0  0  0  0  0  0  0  0  0  0  0
   36.3230   28.1360   44.4810 H   0  0  0  0  0  0  0  0  0  0  0  0
   35.9990   27.4030   41.4420 H   0  0  0  0  0  0  0  0  0  0  0  0
   38.7960   27.7200   43.5060 C   0  0  0  0  0  0  0  0  0  0  0  0
   38.6470   28.0860   44.5490 H   0  0  0  0  0  0  0  0  0  0  0  0
   38.9490   28.6270   42.8700 H   0  0  0  0  0  0  0  0  0  0  0  0
   40.0450   26.9440   43.4440 C   0  0  0  0  0  0  0  0  0  0  0  0
   39.8900   25.6920   42.9140 C   0  0  0  0  0  0  0  0  0  0  0  0
   40.9900   24.8310   42.8020 C   0  0  0  0  0  0  0  0  0  0  0  0
   42.1910   25.3380   43.2520 N   0  0  0  0  0  0  0  0  0  0  0  0
   42.3200   26.5760   43.7680 C   0  0  0  0  0  0  0  0  0  0  0  0
   41.2540   27.3570   43.8570 N   0  0  0  0  0  0  0  0  0  0  0  0
   39.0650   25.1220   42.5080 H   0  0  0  0  0  0  0  0  0  0  0  0
   41.0520   23.8250   42.4170 H   0  0  0  0  0  0  0  0  0  0  0  0
   43.3050   26.8630   44.0850 H   0  0  0  0  0  0  0  0  0  0  0  0
   36.9530   29.1720   42.0610 O   0  0  0  0  0  0  0  0  0  0  0  0
   37.0400   29.2850   39.3950 O   0  0  0  0  0  0  0  0  0  0  0  0
   36.3350   29.8110   40.6320 P   0  0  1  0  0  0  0  0  0  0  0  0
   34.6950   29.3680   40.5050 O   0  0  0  0  0  0  0  0  0  0  0  0
   34.3100   29.1030   41.3730 H   0  0  0  0  0  0  0  0  0  0  0  0
   36.4460   31.5090   40.7160 O   0  0  0  0  0  0  0  0  0  0  0  0
   38.9850   30.4560   41.2630 H   0  0  0  0  0  0  0  0  0  0  0  0
   38.8650   31.4340   40.9260 N   0  0  0  0  0  0  0  0  0  0  0  0
   37.7100   32.0760   40.6220 C   0  0  0  0  0  0  0  0  0  0  0  0
   37.9990   33.3360   40.2210 N   0  0  0  0  0  0  0  0  0  0  0  0
   39.3270   33.5470   40.2510 C   0  0  0  0  0  0  0  0  0  0  0  0
   40.2550   34.5360   39.9900 C   0  0  0  0  0  0  0  0  0  0  0  0
   39.8360   35.4770   39.6410 H   0  0  0  0  0  0  0  0  0  0  0  0
   41.5750   34.3570   40.1500 N   0  0  0  0  0  0  0  0  0  0  0  0
   42.0610   33.1650   40.5880 C   0  0  0  0  0  0  0  0  0  0  0  0
   43.1160   32.9940   40.7260 H   0  0  0  0  0  0  0  0  0  0  0  0
   41.1660   32.1940   40.8460 N   0  0  0  0  0  0  0  0  0  0  0  0
   39.8360   32.3390   40.6950 C   0  0  0  0  0  0  0  0  0  0  0  0
  1  4  1  6  0  0  0
  1  8  1  0  0  0  0
  1  2  1  0  0  0  0
  2  5  1  0  0  0  0
  2  6  1  0  0  0  0
  3  7  1  6  0  0  0
  3  1  1  0  0  0  0
  3  2  1  0  0  0  0
  8  9  1  0  0  0  0
 10  8  1  0  0  0  0
 11  8  1  0  0  0  0
 11 16  1  0  0  0  0
 12 11  2  0  0  0  0
 13 12  1  0  0  0  0
 13 14  2  0  0  0  0
 14 15  1  0  0  0  0
 15 16  2  0  0  0  0
 15 19  1  0  0  0  0
 17 12  1  0  0  0  0
 18 13  1  0  0  0  0
 20  3  1  0  0  0  0
 22 21  2  6  0  0  0
 22 25  1  0  0  0  0
 22 20  1  0  0  0  0
 23 22  1  0  0  0  0
 23 24  1  0  0  0  0
 27 26  1  0  0  0  0
 28 25  1  0  0  0  0
 28 27  1  0  0  0  0
 29 30  1  0  0  0  0
 29 28  2  0  0  0  0
 30 37  1  0  0  0  0
 31 33  1  0  0  0  0
 31 30  2  0  0  0  0
 32 31  1  0  0  0  0
 33 34  2  0  0  0  0
 34 35  1  0  0  0  0
 34 36  1  0  0  0  0
 37 36  2  0  0  0  0
 37 27  1  0  0  0  0
M  END
>  <minimizedAffinity>
-5.76614046

$$$$

 OpenBabel03252500453D

 37 40  0  0  1  0  0  0  0  0999 V2000
   37.2710   26.0720   39.6380 C   0  0  1  0  0  0  0  0  0  0  0  0
   36.0880   26.4050   38.7280 C   0  0  0  0  0  0  0  0  0  0  0  0
   36.8620   27.4960   39.4080 C   0  0  1  0  0  0  0  0  0  0  0  0
   38.1800   25.7970   39.0720 H   0  0  0  0  0  0  0  0  0  0  0  0
   36.1750   26.1840   37.6660 H   0  0  0  0  0  0  0  0  0  0  0  0
   35.0700   26.1320   39.1310 H   0  0  0  0  0  0  0  0  0  0  0  0
   37.4490   28.1440   38.7190 H   0  0  0  0  0  0  0  0  0  0  0  0
   36.9380   25.5260   40.9710 C   0  0  0  0  0  0  0  0  0  0  0  0
   36.4420   24.5300   40.8950 H   0  0  0  0  0  0  0  0  0  0  0  0
   36.1970   26.2140   41.4500 H   0  0  0  0  0  0  0  0  0  0  0  0
   38.0800   25.4250   41.8930 C   0  0  0  0  0  0  0  0  0  0  0  0
   38.5080   26.6320   42.3740 C   0  0  0  0  0  0  0  0  0  0  0  0
   39.5960   26.6970   43.2550 C   0  0  0  0  0  0  0  0  0  0  0  0
   40.1690   25.4860   43.5810 N   0  0  0  0  0  0  0  0  0  0  0  0
   39.7300   24.3080   43.0970 C   0  0  0  0  0  0  0  0  0  0  0  0
   38.6980   24.2930   42.2650 N   0  0  0  0  0  0  0  0  0  0  0  0
   38.2030   27.6630   42.2550 H   0  0  0  0  0  0  0  0  0  0  0  0
   40.0630   27.5480   43.7250 H   0  0  0  0  0  0  0  0  0  0  0  0
   40.2540   23.4300   43.4220 H   0  0  0  0  0  0  0  0  0  0  0  0
   36.2770   28.1530   40.4650 O   0  0  0  0  0  0  0  0  0  0  0  0
   33.9860   29.2700   39.6710 O   0  0  0  0  0  0  0  0  0  0  0  0
   35.4430   29.5390   40.0010 P   0  0  1  0  0  0  0  0  0  0  0  0
   35.4720   30.6480   41.2940 O   0  0  0  0  0  0  0  0  0  0  0  0
   36.1890   30.4520   41.9400 H   0  0  0  0  0  0  0  0  0  0  0  0
   36.2490   30.2240   38.6650 O   0  0  0  0  0  0  0  0  0  0  0  0
   38.9910   30.2400   38.0800 H   0  0  0  0  0  0  0  0  0  0  0  0
   38.5380   31.0370   38.5750 N   0  0  0  0  0  0  0  0  0  0  0  0
   37.2330   31.1690   38.9230 C   0  0  0  0  0  0  0  0  0  0  0  0
   37.0640   32.3560   39.5510 N   0  0  0  0  0  0  0  0  0  0  0  0
   38.2320   33.0190   39.6290 C   0  0  0  0  0  0  0  0  0  0  0  0
   38.7540   34.2040   40.1070 C   0  0  0  0  0  0  0  0  0  0  0  0
   38.0330   34.8610   40.5900 H   0  0  0  0  0  0  0  0  0  0  0  0
   40.0510   34.5290   39.9880 N   0  0  0  0  0  0  0  0  0  0  0  0
   40.9210   33.6820   39.3780 C   0  0  0  0  0  0  0  0  0  0  0  0
   41.9660   33.9180   39.2690 H   0  0  0  0  0  0  0  0  0  0  0  0
   40.4230   32.5240   38.9080 N   0  0  0  0  0  0  0  0  0  0  0  0
   39.1290   32.1660   39.0100 C   0  0  0  0  0  0  0  0  0  0  0  0
  1  4  1  6  0  0  0
  1  8  1  0  0  0  0
  2  6  1  0  0  0  0
  2  3  1  0  0  0  0
  2  1  1  0  0  0  0
  3  7  1  6  0  0  0
  3  1  1  0  0  0  0
  3 20  1  0  0  0  0
  5  2  1  0  0  0  0
  8 10  1  0  0  0  0
  8 11  1  0  0  0  0
  9  8  1  0  0  0  0
 11 16  2  0  0  0  0
 11 12  1  0  0  0  0
 12 13  2  0  0  0  0
 13 14  1  0  0  0  0
 13 18  1  0  0  0  0
 15 19  1  0  0  0  0
 15 14  2  0  0  0  0
 16 15  1  0  0  0  0
 17 12  1  0  0  0  0
 22 21  2  6  0  0  0
 22 20  1  0  0  0  0
 22 23  1  0  0  0  0
 23 24  1  0  0  0  0
 25 28  1  0  0  0  0
 25 22  1  0  0  0  0
 26 27  1  0  0  0  0
 27 28  1  0  0  0  0
 27 37  1  0  0  0  0
 28 29  2  0  0  0  0
 29 30  1  0  0  0  0
 30 31  1  0  0  0  0
 31 32  1  0  0  0  0
 33 31  2  0  0  0  0
 34 33  1  0  0  0  0
 35 34  1  0  0  0  0
 36 37  1  0  0  0  0
 36 34  2  0  0  0  0
 37 30  2  0  0  0  0
M  END
>  <minimizedAffinity>
-5.56389189

$$$$

 OpenBabel03252500453D

 37 40  0  0  1  0  0  0  0  0999 V2000
   37.0360   26.7350   42.7850 C   0  0  1  0  0  0  0  0  0  0  0  0
   37.1610   27.9340   43.7250 C   0  0  0  0  0  0  0  0  0  0  0  0
   36.4490   28.0620   42.4100 C   0  0  1  0  0  0  0  0  0  0  0  0
   36.2680   26.0120   43.1160 H   0  0  0  0  0  0  0  0  0  0  0  0
   36.6450   27.8960   44.6830 H   0  0  0  0  0  0  0  0  0  0  0  0
   38.1970   28.3700   43.8250 H   0  0  0  0  0  0  0  0  0  0  0  0
   35.3530   28.2350   42.4950 H   0  0  0  0  0  0  0  0  0  0  0  0
   38.2580   26.3530   42.0460 C   0  0  0  0  0  0  0  0  0  0  0  0
   39.1300   26.2270   42.7290 H   0  0  0  0  0  0  0  0  0  0  0  0
   38.5160   27.1900   41.3500 H   0  0  0  0  0  0  0  0  0  0  0  0
   38.1190   25.1430   41.2190 C   0  0  0  0  0  0  0  0  0  0  0  0
   36.8350   24.6780   41.1340 C   0  0  0  0  0  0  0  0  0  0  0  0
   36.5480   23.5260   40.3900 C   0  0  0  0  0  0  0  0  0  0  0  0
   37.6300   22.9300   39.7760 N   0  0  0  0  0  0  0  0  0  0  0  0
   38.8860   23.4070   39.8720 C   0  0  0  0  0  0  0  0  0  0  0  0
   39.1130   24.4990   40.5870 N   0  0  0  0  0  0  0  0  0  0  0  0
   35.8740   24.9910   41.5190 H   0  0  0  0  0  0  0  0  0  0  0  0
   35.6100   23.0230   40.2170 H   0  0  0  0  0  0  0  0  0  0  0  0
   39.6480   22.8590   39.3510 H   0  0  0  0  0  0  0  0  0  0  0  0
   37.0690   28.7520   41.3940 O   0  0  0  0  0  0  0  0  0  0  0  0
   34.7050   29.0160   40.1820 O   0  0  0  0  0  0  0  0  0  0  0  0
   36.0110   29.7170   40.5110 P   0  0  1  0  0  0  0  0  0  0  0  0
   35.6270   31.0920   41.4410 O   0  0  0  0  0  0  0  0  0  0  0  0
   36.2820   31.2540   42.1580 H   0  0  0  0  0  0  0  0  0  0  0  0
   36.8050   30.2140   39.0880 O   0  0  0  0  0  0  0  0  0  0  0  0
   38.1790   31.0780   41.3730 H   0  0  0  0  0  0  0  0  0  0  0  0
   38.5180   31.3120   40.4170 N   0  0  0  0  0  0  0  0  0  0  0  0
   37.9630   30.9680   39.2280 C   0  0  0  0  0  0  0  0  0  0  0  0
   38.7190   31.4750   38.2270 N   0  0  0  0  0  0  0  0  0  0  0  0
   39.7690   32.1520   38.7250 C   0  0  0  0  0  0  0  0  0  0  0  0
   40.8680   32.8750   38.3040 C   0  0  0  0  0  0  0  0  0  0  0  0
   40.9750   32.9590   37.2250 H   0  0  0  0  0  0  0  0  0  0  0  0
   41.7430   33.4320   39.1560 N   0  0  0  0  0  0  0  0  0  0  0  0
   41.5750   33.3040   40.4990 C   0  0  0  0  0  0  0  0  0  0  0  0
   42.2620   33.7410   41.2040 H   0  0  0  0  0  0  0  0  0  0  0  0
   40.5080   32.6020   40.9210 N   0  0  0  0  0  0  0  0  0  0  0  0
   39.6110   32.0290   40.0940 C   0  0  0  0  0  0  0  0  0  0  0  0
  1  4  1  1  0  0  0
  1  2  1  0  0  0  0
  2  6  1  0  0  0  0
  2  5  1  0  0  0  0
  3  7  1  1  0  0  0
  3  1  1  0  0  0  0
  3  2  1  0  0  0  0
  8  9  1  0  0  0  0
  8  1  1  0  0  0  0
 10  8  1  0  0  0  0
 11  8  1  0  0  0  0
 12 11  1  0  0  0  0
 12 17  1  0  0  0  0
 13 12  2  0  0  0  0
 14 15  2  0  0  0  0
 14 13  1  0  0  0  0
 15 16  1  0  0  0  0
 16 11  2  0  0  0  0
 18 13  1  0  0  0  0
 19 15  1  0  0  0  0
 20  3  1  0  0  0  0
 22 21  2  6  0  0  0
 22 20  1  0  0  0  0
 22 23  1  0  0  0  0
 23 24  1  0  0  0  0
 25 28  1  0  0  0  0
 25 22  1  0  0  0  0
 27 26  1  0  0  0  0
 28 27  1  0  0  0  0
 29 30  1  0  0  0  0
 29 28  2  0  0  0  0
 30 37  1  0  0  0  0
 31 30  2  0  0  0  0
 31 33  1  0  0  0  0
 32 31  1  0  0  0  0
 33 34  2  0  0  0  0
 34 36  1  0  0  0  0
 34 35  1  0  0  0  0
 37 27  1  0  0  0  0
 37 36  2  0  0  0  0
M  END
>  <minimizedAffinity>
-5.51817608

$$$$

 OpenBabel03252500453D

 37 40  0  0  1  0  0  0  0  0999 V2000
   35.5890   28.3190   39.2640 C   0  0  1  0  0  0  0  0  0  0  0  0
   34.5810   28.5650   38.1410 C   0  0  0  0  0  0  0  0  0  0  0  0
   35.9810   29.0970   38.0440 C   0  0  1  0  0  0  0  0  0  0  0  0
   35.9920   27.2900   39.2560 H   0  0  0  0  0  0  0  0  0  0  0  0
   34.2260   27.7100   37.5680 H   0  0  0  0  0  0  0  0  0  0  0  0
   33.7440   29.2820   38.3840 H   0  0  0  0  0  0  0  0  0  0  0  0
   36.6010   28.6230   37.2510 H   0  0  0  0  0  0  0  0  0  0  0  0
   35.4070   29.1190   40.4930 C   0  0  0  0  0  0  0  0  0  0  0  0
   34.4740   28.8350   41.0350 H   0  0  0  0  0  0  0  0  0  0  0  0
   35.2870   30.1900   40.1930 H   0  0  0  0  0  0  0  0  0  0  0  0
   36.5400   29.0660   41.4300 C   0  0  0  0  0  0  0  0  0  0  0  0
   36.5480   27.9510   42.2240 C   0  0  0  0  0  0  0  0  0  0  0  0
   37.5600   27.7670   43.1750 C   0  0  0  0  0  0  0  0  0  0  0  0
   38.5080   28.7660   43.2350 N   0  0  0  0  0  0  0  0  0  0  0  0
   38.4820   29.8550   42.4430 C   0  0  0  0  0  0  0  0  0  0  0  0
   37.5050   29.9900   41.5570 N   0  0  0  0  0  0  0  0  0  0  0  0
   35.9240   27.0730   42.3270 H   0  0  0  0  0  0  0  0  0  0  0  0
   37.7200   26.9620   43.8750 H   0  0  0  0  0  0  0  0  0  0  0  0
   39.2740   30.5670   42.5790 H   0  0  0  0  0  0  0  0  0  0  0  0
   36.1800   30.4480   38.2070 O   0  0  0  0  0  0  0  0  0  0  0  0
   38.7130   29.7970   37.6740 O   0  0  0  0  0  0  0  0  0  0  0  0
   37.7250   30.9450   37.7620 P   0  0  1  0  0  0  0  0  0  0  0  0
   37.6410   31.6590   36.2170 O   0  0  0  0  0  0  0  0  0  0  0  0
   36.7260   31.9380   35.9830 H   0  0  0  0  0  0  0  0  0  0  0  0
   38.2540   32.1130   38.8840 O   0  0  0  0  0  0  0  0  0  0  0  0
   39.8830   32.5440   36.6440 H   0  0  0  0  0  0  0  0  0  0  0  0
   40.2330   32.7180   37.6100 N   0  0  0  0  0  0  0  0  0  0  0  0
   39.5660   32.5560   38.7800 C   0  0  0  0  0  0  0  0  0  0  0  0
   40.3840   32.8940   39.8030 N   0  0  0  0  0  0  0  0  0  0  0  0
   41.5860   33.2800   39.3380 C   0  0  0  0  0  0  0  0  0  0  0  0
   42.8120   33.7250   39.7920 C   0  0  0  0  0  0  0  0  0  0  0  0
   42.8950   33.8150   40.8730 H   0  0  0  0  0  0  0  0  0  0  0  0
   43.8280   34.0270   38.9690 N   0  0  0  0  0  0  0  0  0  0  0  0
   43.6850   33.9010   37.6230 C   0  0  0  0  0  0  0  0  0  0  0  0
   44.4850   34.1370   36.9400 H   0  0  0  0  0  0  0  0  0  0  0  0
   42.4950   33.4690   37.1680 N   0  0  0  0  0  0  0  0  0  0  0  0
   41.4550   33.1580   37.9660 C   0  0  0  0  0  0  0  0  0  0  0  0
  1  4  1  1  0  0  0
  1  8  1  0  0  0  0
  2  6  1  0  0  0  0
  2  1  1  0  0  0  0
  3  7  1  6  0  0  0
  3  2  1  0  0  0  0
  3 20  1  0  0  0  0
  3  1  1  0  0  0  0
  5  2  1  0  0  0  0
  8  9  1  0  0  0  0
  8 11  1  0  0  0  0
 10  8  1  0  0  0  0
 11 16  2  0  0  0  0
 11 12  1  0  0  0  0
 12 17  1  0  0  0  0
 12 13  2  0  0  0  0
 13 14  1  0  0  0  0
 13 18  1  0  0  0  0
 15 19  1  0  0  0  0
 15 14  2  0  0  0  0
 16 15  1  0  0  0  0
 22 21  2  6  0  0  0
 22 20  1  0  0  0  0
 22 25  1  0  0  0  0
 23 22  1  0  0  0  0
 24 23  1  0  0  0  0
 26 27  1  0  0  0  0
 27 37  1  0  0  0  0
 27 28  1  0  0  0  0
 28 25  1  0  0  0  0
 28 29  2  0  0  0  0
 30 31  1  0  0  0  0
 30 29  1  0  0  0  0
 31 32  1  0  0  0  0
 33 31  2  0  0  0  0
 34 33  1  0  0  0  0
 35 34  1  0  0  0  0
 36 34  2  0  0  0  0
 36 37  1  0  0  0  0
 37 30  2  0  0  0  0
M  END
>  <minimizedAffinity>
-5.49568653

$$$$

 OpenBabel03252500453D

 37 40  0  0  1  0  0  0  0  0999 V2000
   35.8860   28.5140   40.2470 C   0  0  1  0  0  0  0  0  0  0  0  0
   34.5510   29.0810   39.7650 C   0  0  0  0  0  0  0  0  0  0  0  0
   35.8300   29.8300   39.5310 C   0  0  1  0  0  0  0  0  0  0  0  0
   36.2600   27.6980   39.6010 H   0  0  0  0  0  0  0  0  0  0  0  0
   34.0170   28.5500   38.9790 H   0  0  0  0  0  0  0  0  0  0  0  0
   33.8530   29.4420   40.5750 H   0  0  0  0  0  0  0  0  0  0  0  0
   36.1340   29.9010   38.4620 H   0  0  0  0  0  0  0  0  0  0  0  0
   36.1460   28.5950   41.6990 C   0  0  0  0  0  0  0  0  0  0  0  0
   35.2780   28.2240   42.2940 H   0  0  0  0  0  0  0  0  0  0  0  0
   36.2780   29.6730   41.9660 H   0  0  0  0  0  0  0  0  0  0  0  0
   37.3640   27.8980   42.1420 C   0  0  0  0  0  0  0  0  0  0  0  0
   37.2850   26.5350   42.0450 C   0  0  0  0  0  0  0  0  0  0  0  0
   38.3630   25.7330   42.4420 C   0  0  0  0  0  0  0  0  0  0  0  0
   39.4660   26.4130   42.9160 N   0  0  0  0  0  0  0  0  0  0  0  0
   39.5230   27.7560   43.0020 C   0  0  0  0  0  0  0  0  0  0  0  0
   38.4780   28.4760   42.6160 N   0  0  0  0  0  0  0  0  0  0  0  0
   36.5410   25.8280   41.7040 H   0  0  0  0  0  0  0  0  0  0  0  0
   38.4740   24.6610   42.4360 H   0  0  0  0  0  0  0  0  0  0  0  0
   40.4330   28.1740   43.3860 H   0  0  0  0  0  0  0  0  0  0  0  0
   36.0770   30.9560   40.2810 O   0  0  0  0  0  0  0  0  0  0  0  0
   37.3120   31.8960   38.1090 O   0  0  0  0  0  0  0  0  0  0  0  0
   37.2790   31.9340   39.6260 P   0  0  1  0  0  0  0  0  0  0  0  0
   36.9760   33.5470   40.0840 O   0  0  0  0  0  0  0  0  0  0  0  0
   36.3780   33.6080   40.8640 H   0  0  0  0  0  0  0  0  0  0  0  0
   38.7770   31.4460   40.2760 O   0  0  0  0  0  0  0  0  0  0  0  0
   39.1950   33.7620   38.7540 H   0  0  0  0  0  0  0  0  0  0  0  0
   39.9780   33.1120   38.9770 N   0  0  0  0  0  0  0  0  0  0  0  0
   39.9280   31.9630   39.6960 C   0  0  0  0  0  0  0  0  0  0  0  0
   41.1680   31.4240   39.7490 N   0  0  0  0  0  0  0  0  0  0  0  0
   42.0450   32.1920   39.0780 C   0  0  0  0  0  0  0  0  0  0  0  0
   43.3850   32.2380   38.7470 C   0  0  0  0  0  0  0  0  0  0  0  0
   43.9800   31.4090   39.1240 H   0  0  0  0  0  0  0  0  0  0  0  0
   43.9210   33.2280   38.0170 N   0  0  0  0  0  0  0  0  0  0  0  0
   43.1450   34.2480   37.5630 C   0  0  0  0  0  0  0  0  0  0  0  0
   43.5490   35.0560   36.9750 H   0  0  0  0  0  0  0  0  0  0  0  0
   41.8380   34.2140   37.8800 N   0  0  0  0  0  0  0  0  0  0  0  0
   41.2680   33.2370   38.6110 C   0  0  0  0  0  0  0  0  0  0  0  0
  1  4  1  6  0  0  0
  1  8  1  0  0  0  0
  2  1  1  0  0  0  0
  2  6  1  0  0  0  0
  3  7  1  6  0  0  0
  3  2  1  0  0  0  0
  3  1  1  0  0  0  0
  3 20  1  0  0  0  0
  5  2  1  0  0  0  0
  8 10  1  0  0  0  0
  8 11  1  0  0  0  0
  8  9  1  0  0  0  0
 11 16  1  0  0  0  0
 12 11  2  0  0  0  0
 12 13  1  0  0  0  0
 13 14  2  0  0  0  0
 14 15  1  0  0  0  0
 15 19  1  0  0  0  0
 16 15  2  0  0  0  0
 17 12  1  0  0  0  0
 18 13  1  0  0  0  0
 22 21  2  6  0  0  0
 22 23  1  0  0  0  0
 22 25  1  0  0  0  0
 22 20  1  0  0  0  0
 23 24  1  0  0  0  0
 26 27  1  0  0  0  0
 27 28  1  0  0  0  0
 28 29  2  0  0  0  0
 28 25  1  0  0  0  0
 30 29  1  0  0  0  0
 31 30  1  0  0  0  0
 31 32  1  0  0  0  0
 33 31  2  0  0  0  0
 34 36  2  0  0  0  0
 34 33  1  0  0  0  0
 35 34  1  0  0  0  0
 36 37  1  0  0  0  0
 37 27  1  0  0  0  0
 37 30  2  0  0  0  0
M  END
>  <minimizedAffinity>
-5.44995928

$$$$

 OpenBabel03252500453D

 37 40  0  0  1  0  0  0  0  0999 V2000
   36.3260   30.9950   39.9310 C   0  0  1  0  0  0  0  0  0  0  0  0
   35.6110   29.6440   39.9290 C   0  0  0  0  0  0  0  0  0  0  0  0
   36.5410   30.0160   41.0460 C   0  0  1  0  0  0  0  0  0  0  0  0
   35.6610   31.8280   40.2240 H   0  0  0  0  0  0  0  0  0  0  0  0
   34.5270   29.6320   40.0330 H   0  0  0  0  0  0  0  0  0  0  0  0
   35.9650   28.9050   39.1520 H   0  0  0  0  0  0  0  0  0  0  0  0
   36.0430   30.1670   42.0290 H   0  0  0  0  0  0  0  0  0  0  0  0
   37.4560   31.1390   38.9890 C   0  0  0  0  0  0  0  0  0  0  0  0
   37.1040   31.2240   37.9340 H   0  0  0  0  0  0  0  0  0  0  0  0
   38.0720   30.2080   39.0450 H   0  0  0  0  0  0  0  0  0  0  0  0
   38.3590   32.2630   39.2850 C   0  0  0  0  0  0  0  0  0  0  0  0
   37.7230   33.3610   39.7980 C   0  0  0  0  0  0  0  0  0  0  0  0
   38.4500   34.5150   40.1180 C   0  0  0  0  0  0  0  0  0  0  0  0
   39.8070   34.4450   39.8820 N   0  0  0  0  0  0  0  0  0  0  0  0
   40.4130   33.3530   39.3780 C   0  0  0  0  0  0  0  0  0  0  0  0
   39.6860   32.2830   39.0880 N   0  0  0  0  0  0  0  0  0  0  0  0
   36.7030   33.6100   40.0590 H   0  0  0  0  0  0  0  0  0  0  0  0
   38.1190   35.4570   40.5230 H   0  0  0  0  0  0  0  0  0  0  0  0
   41.4750   33.4150   39.2380 H   0  0  0  0  0  0  0  0  0  0  0  0
   37.7710   29.4030   41.1050 O   0  0  0  0  0  0  0  0  0  0  0  0
   39.1990   30.4260   43.1150 O   0  0  0  0  0  0  0  0  0  0  0  0
   38.3540   29.2450   42.6760 P   0  0  1  0  0  0  0  0  0  0  0  0
   37.0260   29.1500   43.7400 O   0  0  0  0  0  0  0  0  0  0  0  0
   36.1930   28.8970   43.2780 H   0  0  0  0  0  0  0  0  0  0  0  0
   39.2450   27.7950   42.7710 O   0  0  0  0  0  0  0  0  0  0  0  0
   36.7100   27.3270   41.6700 H   0  0  0  0  0  0  0  0  0  0  0  0
   37.4450   26.5890   41.6710 N   0  0  0  0  0  0  0  0  0  0  0  0
   38.7060   26.6690   42.1630 C   0  0  0  0  0  0  0  0  0  0  0  0
   39.3320   25.4860   41.9620 N   0  0  0  0  0  0  0  0  0  0  0  0
   38.5120   24.6180   41.3440 C   0  0  0  0  0  0  0  0  0  0  0  0
   38.4960   23.3220   40.8670 C   0  0  0  0  0  0  0  0  0  0  0  0
   39.4240   22.7710   41.0060 H   0  0  0  0  0  0  0  0  0  0  0  0
   37.4230   22.7770   40.2730 N   0  0  0  0  0  0  0  0  0  0  0  0
   36.2810   23.4980   40.1180 C   0  0  0  0  0  0  0  0  0  0  0  0
   35.4050   23.0860   39.6450 H   0  0  0  0  0  0  0  0  0  0  0  0
   36.2840   24.7620   40.5790 N   0  0  0  0  0  0  0  0  0  0  0  0
   37.3430   25.3400   41.1780 C   0  0  0  0  0  0  0  0  0  0  0  0
  1  4  1  1  0  0  0
  1  3  1  0  0  0  0
  2  1  1  0  0  0  0
  2  5  1  0  0  0  0
  2  3  1  0  0  0  0
  3 20  1  0  0  0  0
  3  7  1  1  0  0  0
  6  2  1  0  0  0  0
  8 10  1  0  0  0  0
  8 11  1  0  0  0  0
  8  1  1  0  0  0  0
  9  8  1  0  0  0  0
 11 12  1  0  0  0  0
 12 17  1  0  0  0  0
 12 13  2  0  0  0  0
 13 18  1  0  0  0  0
 14 13  1  0  0  0  0
 15 14  2  0  0  0  0
 16 11  2  0  0  0  0
 16 15  1  0  0  0  0
 19 15  1  0  0  0  0
 20 22  1  0  0  0  0
 22 25  1  0  0  0  0
 22 21  2  1  0  0  0
 22 23  1  0  0  0  0
 24 23  1  0  0  0  0
 26 27  1  0  0  0  0
 27 28  1  0  0  0  0
 28 25  1  0  0  0  0
 29 28  2  0  0  0  0
 30 29  1  0  0  0  0
 31 32  1  0  0  0  0
 31 30  2  0  0  0  0
 33 31  1  0  0  0  0
 34 33  2  0  0  0  0
 34 36  1  0  0  0  0
 35 34  1  0  0  0  0
 36 37  2  0  0  0  0
 37 30  1  0  0  0  0
 37 27  1  0  0  0  0
M  END
>  <minimizedAffinity>
-5.41622019

$$$$

 OpenBabel03252500453D

 37 40  0  0  1  0  0  0  0  0999 V2000
   40.1290   30.6080   42.4530 C   0  0  1  0  0  0  0  0  0  0  0  0
   41.5840   31.0790   42.4720 C   0  0  0  0  0  0  0  0  0  0  0  0
   40.5250   31.8880   41.7810 C   0  0  1  0  0  0  0  0  0  0  0  0
   39.6140   30.7780   43.4160 H   0  0  0  0  0  0  0  0  0  0  0  0
   42.0230   31.3610   43.4260 H   0  0  0  0  0  0  0  0  0  0  0  0
   42.3010   30.4750   41.8430 H   0  0  0  0  0  0  0  0  0  0  0  0
   40.3050   32.8660   42.2630 H   0  0  0  0  0  0  0  0  0  0  0  0
   39.8170   29.4860   41.5430 C   0  0  0  0  0  0  0  0  0  0  0  0
   40.7210   28.8710   41.3210 H   0  0  0  0  0  0  0  0  0  0  0  0
   39.4780   29.9170   40.5680 H   0  0  0  0  0  0  0  0  0  0  0  0
   38.7380   28.6010   42.0110 C   0  0  0  0  0  0  0  0  0  0  0  0
   38.2410   28.9410   43.2400 C   0  0  0  0  0  0  0  0  0  0  0  0
   37.2170   28.1830   43.8230 C   0  0  0  0  0  0  0  0  0  0  0  0
   36.7730   27.1110   43.0770 N   0  0  0  0  0  0  0  0  0  0  0  0
   37.2760   26.7960   41.8680 C   0  0  0  0  0  0  0  0  0  0  0  0
   38.2450   27.5390   41.3540 N   0  0  0  0  0  0  0  0  0  0  0  0
   38.4360   29.7220   43.9620 H   0  0  0  0  0  0  0  0  0  0  0  0
   36.7130   28.3020   44.7690 H   0  0  0  0  0  0  0  0  0  0  0  0
   36.8510   25.9390   41.3800 H   0  0  0  0  0  0  0  0  0  0  0  0
   40.5030   31.9000   40.4060 O   0  0  0  0  0  0  0  0  0  0  0  0
   40.9090   34.5360   40.5260 O   0  0  0  0  0  0  0  0  0  0  0  0
   40.2060   33.4270   39.7650 P   0  0  1  0  0  0  0  0  0  0  0  0
   40.7870   33.4660   38.1640 O   0  0  0  0  0  0  0  0  0  0  0  0
   40.9050   32.5640   37.7860 H   0  0  0  0  0  0  0  0  0  0  0  0
   38.5200   33.6790   39.7480 O   0  0  0  0  0  0  0  0  0  0  0  0
   37.0800   32.2900   41.7110 H   0  0  0  0  0  0  0  0  0  0  0  0
   37.0630   31.9910   40.7140 N   0  0  0  0  0  0  0  0  0  0  0  0
   37.7030   32.5600   39.6620 C   0  0  0  0  0  0  0  0  0  0  0  0
   37.4130   31.8600   38.5400 N   0  0  0  0  0  0  0  0  0  0  0  0
   36.5890   30.8350   38.8240 C   0  0  0  0  0  0  0  0  0  0  0  0
   35.9380   29.7890   38.2020 C   0  0  0  0  0  0  0  0  0  0  0  0
   36.1050   29.7170   37.1300 H   0  0  0  0  0  0  0  0  0  0  0  0
   35.1540   28.9220   38.8640 N   0  0  0  0  0  0  0  0  0  0  0  0
   34.9710   29.0450   40.2050 C   0  0  0  0  0  0  0  0  0  0  0  0
   34.3470   28.3640   40.7600 H   0  0  0  0  0  0  0  0  0  0  0  0
   35.6000   30.0610   40.8220 N   0  0  0  0  0  0  0  0  0  0  0  0
   36.3920   30.9480   40.1890 C   0  0  0  0  0  0  0  0  0  0  0  0
  1  2  1  0  0  0  0
  1  4  1  1  0  0  0
  2  5  1  0  0  0  0
  3  7  1  1  0  0  0
  3  1  1  0  0  0  0
  3  2  1  0  0  0  0
  6  2  1  0  0  0  0
  8 11  1  0  0  0  0
  8  1  1  0  0  0  0
  9  8  1  0  0  0  0
 10  8  1  0  0  0  0
 11 12  1  0  0  0  0
 12 13  2  0  0  0  0
 12 17  1  0  0  0  0
 13 18  1  0  0  0  0
 14 13  1  0  0  0  0
 15 14  2  0  0  0  0
 16 15  1  0  0  0  0
 16 11  2  0  0  0  0
 19 15  1  0  0  0  0
 20  3  1  0  0  0  0
 22 20  1  0  0  0  0
 22 21  2  1  0  0  0
 23 22  1  0  0  0  0
 24 23  1  0  0  0  0
 25 22  1  0  0  0  0
 27 26  1  0  0  0  0
 28 25  1  0  0  0  0
 28 27  1  0  0  0  0
 29 30  1  0  0  0  0
 29 28  2  0  0  0  0
 30 37  1  0  0  0  0
 31 30  2  0  0  0  0
 31 33  1  0  0  0  0
 32 31  1  0  0  0  0
 33 34  2  0  0  0  0
 34 35  1  0  0  0  0
 34 36  1  0  0  0  0
 37 27  1  0  0  0  0
 37 36  2  0  0  0  0
M  END
>  <minimizedAffinity>
-5.39909315

$$$$

 OpenBabel03252500453D

 37 40  0  0  1  0  0  0  0  0999 V2000
   37.2300   27.2680   40.5830 C   0  0  1  0  0  0  0  0  0  0  0  0
   36.1060   28.0880   39.9490 C   0  0  0  0  0  0  0  0  0  0  0  0
   37.5120   28.6110   39.9800 C   0  0  1  0  0  0  0  0  0  0  0  0
   37.5660   26.4360   39.9370 H   0  0  0  0  0  0  0  0  0  0  0  0
   35.6310   27.7040   39.0480 H   0  0  0  0  0  0  0  0  0  0  0  0
   35.3510   28.5200   40.6680 H   0  0  0  0  0  0  0  0  0  0  0  0
   37.9970   28.6870   38.9810 H   0  0  0  0  0  0  0  0  0  0  0  0
   37.2530   27.2210   42.0600 C   0  0  0  0  0  0  0  0  0  0  0  0
   36.3350   26.7370   42.4710 H   0  0  0  0  0  0  0  0  0  0  0  0
   37.2540   28.2730   42.4380 H   0  0  0  0  0  0  0  0  0  0  0  0
   38.4380   26.5630   42.6320 C   0  0  0  0  0  0  0  0  0  0  0  0
   39.2860   27.4210   43.2780 C   0  0  0  0  0  0  0  0  0  0  0  0
   40.4650   26.9420   43.8650 C   0  0  0  0  0  0  0  0  0  0  0  0
   40.6820   25.5850   43.7400 N   0  0  0  0  0  0  0  0  0  0  0  0
   39.8320   24.7590   43.1010 C   0  0  0  0  0  0  0  0  0  0  0  0
   38.7290   25.2540   42.5590 N   0  0  0  0  0  0  0  0  0  0  0  0
   39.2970   28.4810   43.4900 H   0  0  0  0  0  0  0  0  0  0  0  0
   41.2380   27.4650   44.4040 H   0  0  0  0  0  0  0  0  0  0  0  0
   40.1060   23.7220   43.0680 H   0  0  0  0  0  0  0  0  0  0  0  0
   37.8120   29.6320   40.8500 O   0  0  0  0  0  0  0  0  0  0  0  0
   36.6150   31.1580   39.0160 O   0  0  0  0  0  0  0  0  0  0  0  0
   37.0270   31.0720   40.4740 P   0  0  1  0  0  0  0  0  0  0  0  0
   35.6050   31.1750   41.4080 O   0  0  0  0  0  0  0  0  0  0  0  0
   35.6290   30.5790   42.1920 H   0  0  0  0  0  0  0  0  0  0  0  0
   38.0570   32.3660   40.8890 O   0  0  0  0  0  0  0  0  0  0  0  0
   39.1710   31.1950   43.1790 H   0  0  0  0  0  0  0  0  0  0  0  0
   39.7660   31.4870   42.3760 N   0  0  0  0  0  0  0  0  0  0  0  0
   39.3720   32.0610   41.2120 C   0  0  0  0  0  0  0  0  0  0  0  0
   40.4620   32.2800   40.4390 N   0  0  0  0  0  0  0  0  0  0  0  0
   41.5760   31.8620   41.0660 C   0  0  0  0  0  0  0  0  0  0  0  0
   42.9410   31.7850   40.8740 C   0  0  0  0  0  0  0  0  0  0  0  0
   43.2930   32.1730   39.9200 H   0  0  0  0  0  0  0  0  0  0  0  0
   43.7770   31.2690   41.7880 N   0  0  0  0  0  0  0  0  0  0  0  0
   43.3000   30.7930   42.9680 C   0  0  0  0  0  0  0  0  0  0  0  0
   43.9490   30.3740   43.7190 H   0  0  0  0  0  0  0  0  0  0  0  0
   41.9710   30.8630   43.1670 N   0  0  0  0  0  0  0  0  0  0  0  0
   41.1040   31.3730   42.2710 C   0  0  0  0  0  0  0  0  0  0  0  0
  1  4  1  6  0  0  0
  1  8  1  0  0  0  0
  2  3  1  0  0  0  0
  2  1  1  0  0  0  0
  2  6  1  0  0  0  0
  3  7  1  6  0  0  0
  3  1  1  0  0  0  0
  3 20  1  0  0  0  0
  5  2  1  0  0  0  0
  8 10  1  0  0  0  0
  8  9  1  0  0  0  0
  8 11  1  0  0  0  0
 11 12  1  0  0  0  0
 12 17  1  0  0  0  0
 12 13  2  0  0  0  0
 13 18  1  0  0  0  0
 14 13  1  0  0  0  0
 15 14  2  0  0  0  0
 16 11  2  0  0  0  0
 16 15  1  0  0  0  0
 19 15  1  0  0  0  0
 22 21  2  6  0  0  0
 22 20  1  0  0  0  0
 22 25  1  0  0  0  0
 22 23  1  0  0  0  0
 23 24  1  0  0  0  0
 25 28  1  0  0  0  0
 27 26  1  0  0  0  0
 28 27  1  0  0  0  0
 29 30  1  0  0  0  0
 29 28  2  0  0  0  0
 30 37  1  0  0  0  0
 31 30  2  0  0  0  0
 31 33  1  0  0  0  0
 32 31  1  0  0  0  0
 33 34  2  0  0  0  0
 34 36  1  0  0  0  0
 34 35  1  0  0  0  0
 37 27  1  0  0  0  0
 37 36  2  0  0  0  0
M  END
>  <minimizedAffinity>
-5.2953043

$$$$
