
 OpenBabel03252508193D

 50 55  0  0  1  0  0  0  0  0999 V2000
   36.7240   24.8840   40.5760 C   0  0  1  0  0  0  0  0  0  0  0  0
   37.9510   24.3940   41.2670 C   0  0  0  0  0  0  0  0  0  0  0  0
   37.1210   25.4200   41.8950 C   0  0  1  0  0  0  0  0  0  0  0  0
   36.0040   24.0210   40.4540 H   0  0  0  0  0  0  0  0  0  0  0  0
   38.9500   24.7510   40.9070 H   0  0  0  0  0  0  0  0  0  0  0  0
   38.0270   23.3950   41.7140 H   0  0  0  0  0  0  0  0  0  0  0  0
   36.5100   25.0970   42.7640 H   0  0  0  0  0  0  0  0  0  0  0  0
   37.5740   26.8440   41.9640 C   0  0  2  0  0  0  0  0  0  0  0  0
   37.4880   27.4520   43.3880 C   0  0  0  0  0  0  0  0  0  0  0  0
   36.5380   27.8970   42.3620 C   0  0  1  0  0  0  0  0  0  0  0  0
   38.5200   27.1580   41.4870 H   0  0  0  0  0  0  0  0  0  0  0  0
   37.0660   26.8170   44.1920 H   0  0  0  0  0  0  0  0  0  0  0  0
   38.2220   28.1790   43.7200 H   0  0  0  0  0  0  0  0  0  0  0  0
   35.4750   27.5280   42.3490 H   0  0  0  0  0  0  0  0  0  0  0  0
   36.7000   29.1420   41.6370 N   0  0  0  0  0  0  0  0  0  0  0  0
   35.8010   29.5990   40.7460 C   0  0  0  0  0  0  0  0  0  0  0  0
   34.8670   29.1520   40.4320 H   0  0  0  0  0  0  0  0  0  0  0  0
   36.2330   30.7750   40.2450 N   0  0  0  0  0  0  0  0  0  0  0  0
   37.4050   31.0160   40.8510 C   0  0  0  0  0  0  0  0  0  0  0  0
   38.2660   32.1000   40.6920 C   0  0  0  0  0  0  0  0  0  0  0  0
   38.0870   32.9320   40.0210 H   0  0  0  0  0  0  0  0  0  0  0  0
   39.3930   32.0950   41.4310 N   0  0  0  0  0  0  0  0  0  0  0  0
   39.6780   31.0990   42.2800 C   0  0  0  0  0  0  0  0  0  0  0  0
   40.5830   31.0970   42.8730 H   0  0  0  0  0  0  0  0  0  0  0  0
   38.8670   30.0350   42.4590 N   0  0  0  0  0  0  0  0  0  0  0  0
   37.7350   29.9990   41.7430 C   0  0  0  0  0  0  0  0  0  0  0  0
   36.9820   25.6690   39.3380 C   0  0  0  0  0  0  0  0  0  0  0  0
   37.7950   25.1260   38.7780 H   0  0  0  0  0  0  0  0  0  0  0  0
   37.2100   26.7150   39.4400 H   0  0  0  0  0  0  0  0  0  0  0  0
   35.3310   26.7200   38.0240 C   0  0  0  0  0  3  0  0  0  0  0  0
   35.7940   25.6040   38.4060 C   0  0  0  0  0  3  0  0  0  0  0  0
   32.5350   25.6890   35.8540 C   0  0  0  0  0  0  0  0  0  0  0  0
   31.8990   26.8920   35.5690 C   0  0  0  0  0  0  0  0  0  0  0  0
   32.4450   28.0030   36.1250 C   0  0  0  0  0  0  0  0  0  0  0  0
   33.5520   27.9170   36.9120 N   0  0  0  0  0  0  0  0  0  0  0  0
   34.1430   26.7270   37.1670 C   0  0  0  0  0  0  0  0  0  0  0  0
   33.6140   25.6470   36.6270 N   0  0  0  0  0  0  0  0  0  0  0  0
   32.1310   24.7820   35.4310 H   0  0  0  0  0  0  0  0  0  0  0  0
   31.0290   26.9990   34.9560 H   0  0  0  0  0  0  0  0  0  0  0  0
   31.8880   29.3380   35.9160 C   0  0  0  0  0  0  0  0  0  0  0  0
   31.1920   30.0480   36.8610 C   0  0  0  0  0  0  0  0  0  0  0  0
   30.6710   31.3070   36.6570 C   0  0  0  0  0  0  0  0  0  0  0  0
   30.8420   31.9240   35.4270 C   0  0  0  0  0  0  0  0  0  0  0  0
   31.5300   31.2560   34.4460 C   0  0  0  0  0  0  0  0  0  0  0  0
   32.0270   29.9960   34.7160 C   0  0  0  0  0  0  0  0  0  0  0  0
   31.0400   29.5850   37.8480 H   0  0  0  0  0  0  0  0  0  0  0  0
   30.1240   31.8400   37.4320 H   0  0  0  0  0  0  0  0  0  0  0  0
   30.4410   32.9020   35.2560 H   0  0  0  0  0  0  0  0  0  0  0  0
   31.6840   31.6990   33.4820 H   0  0  0  0  0  0  0  0  0  0  0  0
   32.5690   29.5070   33.9000 H   0  0  0  0  0  0  0  0  0  0  0  0
  1  4  1  6  0  0  0
  1  2  1  0  0  0  0
  1  3  1  0  0  0  0
  2  6  1  0  0  0  0
  2  3  1  0  0  0  0
  3  8  1  0  0  0  0
  3  7  1  1  0  0  0
  5  2  1  0  0  0  0
  8 11  1  6  0  0  0
  8 10  1  0  0  0  0
  8  9  1  0  0  0  0
  9 13  1  0  0  0  0
  9 12  1  0  0  0  0
 10 14  1  1  0  0  0
 10  9  1  0  0  0  0
 15 26  1  0  0  0  0
 15 10  1  0  0  0  0
 16 15  1  0  0  0  0
 17 16  1  0  0  0  0
 18 16  2  0  0  0  0
 18 19  1  0  0  0  0
 19 26  1  0  0  0  0
 20 19  2  0  0  0  0
 20 22  1  0  0  0  0
 21 20  1  0  0  0  0
 22 23  2  0  0  0  0
 23 25  1  0  0  0  0
 23 24  1  0  0  0  0
 26 25  2  0  0  0  0
 27 29  1  0  0  0  0
 27  1  1  0  0  0  0
 28 27  1  0  0  0  0
 30 31  2  0  0  0  0
 31 27  1  0  0  0  0
 32 37  1  0  0  0  0
 33 32  2  0  0  0  0
 33 34  1  0  0  0  0
 34 35  2  0  0  0  0
 35 36  1  0  0  0  0
 36 30  1  0  0  0  0
 37 36  2  0  0  0  0
 38 32  1  0  0  0  0
 39 33  1  0  0  0  0
 40 34  1  0  0  0  0
 40 41  1  0  0  0  0
 41 46  1  0  0  0  0
 42 41  2  0  0  0  0
 42 47  1  0  0  0  0
 43 42  1  0  0  0  0
 44 45  1  0  0  0  0
 44 43  2  0  0  0  0
 45 40  2  0  0  0  0
 48 43  1  0  0  0  0
 49 44  1  0  0  0  0
 50 45  1  0  0  0  0
M  END
>  <minimizedAffinity>
-6.48014975

$$$$

 OpenBabel03252508193D

 50 55  0  0  1  0  0  0  0  0999 V2000
   36.8160   26.0380   40.3080 C   0  0  1  0  0  0  0  0  0  0  0  0
   37.6240   25.0470   41.0750 C   0  0  0  0  0  0  0  0  0  0  0  0
   36.9520   26.1400   41.7760 C   0  0  1  0  0  0  0  0  0  0  0  0
   35.9600   25.5000   39.8040 H   0  0  0  0  0  0  0  0  0  0  0  0
   38.7410   25.1240   41.0440 H   0  0  0  0  0  0  0  0  0  0  0  0
   37.3050   24.0090   41.2340 H   0  0  0  0  0  0  0  0  0  0  0  0
   36.0590   25.8650   42.3750 H   0  0  0  0  0  0  0  0  0  0  0  0
   37.7260   27.2930   42.3290 C   0  0  2  0  0  0  0  0  0  0  0  0
   37.1160   27.8810   43.6280 C   0  0  0  0  0  0  0  0  0  0  0  0
   37.0270   28.6520   42.3830 C   0  0  1  0  0  0  0  0  0  0  0  0
   38.8250   27.2370   42.4320 H   0  0  0  0  0  0  0  0  0  0  0  0
   36.1660   27.4430   43.9920 H   0  0  0  0  0  0  0  0  0  0  0  0
   37.7600   28.2820   44.4040 H   0  0  0  0  0  0  0  0  0  0  0  0
   36.0690   28.7040   41.7940 H   0  0  0  0  0  0  0  0  0  0  0  0
   37.9210   29.7540   42.0820 N   0  0  0  0  0  0  0  0  0  0  0  0
   39.0680   29.9770   42.7480 C   0  0  0  0  0  0  0  0  0  0  0  0
   39.4980   29.4170   43.5680 H   0  0  0  0  0  0  0  0  0  0  0  0
   39.6720   31.0690   42.2360 N   0  0  0  0  0  0  0  0  0  0  0  0
   38.8680   31.4970   41.2510 C   0  0  0  0  0  0  0  0  0  0  0  0
   39.0300   32.5910   40.4030 C   0  0  0  0  0  0  0  0  0  0  0  0
   39.8720   33.2720   40.4340 H   0  0  0  0  0  0  0  0  0  0  0  0
   38.0610   32.8000   39.4900 N   0  0  0  0  0  0  0  0  0  0  0  0
   36.9930   31.9980   39.3960 C   0  0  0  0  0  0  0  0  0  0  0  0
   36.2170   32.1670   38.6610 H   0  0  0  0  0  0  0  0  0  0  0  0
   36.8050   30.9290   40.2000 N   0  0  0  0  0  0  0  0  0  0  0  0
   37.7450   30.6860   41.1230 C   0  0  0  0  0  0  0  0  0  0  0  0
   37.6110   26.9270   39.4170 C   0  0  0  0  0  0  0  0  0  0  0  0
   38.4080   26.2830   38.9500 H   0  0  0  0  0  0  0  0  0  0  0  0
   38.0310   27.8230   39.8390 H   0  0  0  0  0  0  0  0  0  0  0  0
   35.6130   27.7940   38.5160 C   0  0  0  0  0  3  0  0  0  0  0  0
   36.7810   27.3870   38.2410 C   0  0  0  0  0  3  0  0  0  0  0  0
   34.1660   28.3320   35.1690 C   0  0  0  0  0  0  0  0  0  0  0  0
   32.9890   29.0190   35.4420 C   0  0  0  0  0  0  0  0  0  0  0  0
   32.7350   29.2720   36.7510 C   0  0  0  0  0  0  0  0  0  0  0  0
   33.5990   28.8650   37.7200 N   0  0  0  0  0  0  0  0  0  0  0  0
   34.7360   28.1980   37.4150 C   0  0  0  0  0  0  0  0  0  0  0  0
   34.9840   27.9520   36.1430 N   0  0  0  0  0  0  0  0  0  0  0  0
   34.4040   28.1120   34.1390 H   0  0  0  0  0  0  0  0  0  0  0  0
   32.2860   29.3550   34.7090 H   0  0  0  0  0  0  0  0  0  0  0  0
   31.5370   29.9840   37.1930 C   0  0  0  0  0  0  0  0  0  0  0  0
   30.8890   29.7560   38.3800 C   0  0  0  0  0  0  0  0  0  0  0  0
   29.7610   30.4330   38.7890 C   0  0  0  0  0  0  0  0  0  0  0  0
   29.2210   31.4140   37.9720 C   0  0  0  0  0  0  0  0  0  0  0  0
   29.8310   31.6810   36.7730 C   0  0  0  0  0  0  0  0  0  0  0  0
   30.9590   30.9660   36.4230 C   0  0  0  0  0  0  0  0  0  0  0  0
   31.2940   28.9830   39.0510 H   0  0  0  0  0  0  0  0  0  0  0  0
   29.2730   30.2240   39.7400 H   0  0  0  0  0  0  0  0  0  0  0  0
   28.3450   31.9470   38.2800 H   0  0  0  0  0  0  0  0  0  0  0  0
   29.4450   32.4330   36.1140 H   0  0  0  0  0  0  0  0  0  0  0  0
   31.4090   31.2180   35.4570 H   0  0  0  0  0  0  0  0  0  0  0  0
  1  4  1  6  0  0  0
  1  2  1  0  0  0  0
  1  3  1  0  0  0  0
  2  6  1  0  0  0  0
  2  3  1  0  0  0  0
  3  8  1  0  0  0  0
  3  7  1  1  0  0  0
  5  2  1  0  0  0  0
  8 10  1  0  0  0  0
  8 11  1  6  0  0  0
  8  9  1  0  0  0  0
  9 12  1  0  0  0  0
  9 13  1  0  0  0  0
 10 14  1  6  0  0  0
 10  9  1  0  0  0  0
 15 10  1  0  0  0  0
 15 16  1  0  0  0  0
 16 17  1  0  0  0  0
 18 16  2  0  0  0  0
 19 18  1  0  0  0  0
 20 21  1  0  0  0  0
 20 19  2  0  0  0  0
 22 20  1  0  0  0  0
 23 22  2  0  0  0  0
 23 25  1  0  0  0  0
 24 23  1  0  0  0  0
 25 26  2  0  0  0  0
 26 19  1  0  0  0  0
 26 15  1  0  0  0  0
 27 29  1  0  0  0  0
 27  1  1  0  0  0  0
 28 27  1  0  0  0  0
 31 30  2  0  0  0  0
 31 27  1  0  0  0  0
 32 33  2  0  0  0  0
 32 37  1  0  0  0  0
 33 34  1  0  0  0  0
 34 40  1  0  0  0  0
 34 35  2  0  0  0  0
 36 35  1  0  0  0  0
 36 30  1  0  0  0  0
 37 36  2  0  0  0  0
 38 32  1  0  0  0  0
 39 33  1  0  0  0  0
 40 41  1  0  0  0  0
 41 42  2  0  0  0  0
 41 46  1  0  0  0  0
 42 47  1  0  0  0  0
 43 48  1  0  0  0  0
 43 42  1  0  0  0  0
 44 43  2  0  0  0  0
 45 44  1  0  0  0  0
 45 40  2  0  0  0  0
 49 44  1  0  0  0  0
 50 45  1  0  0  0  0
M  END
>  <minimizedAffinity>
-6.45914745

$$$$

 OpenBabel03252508193D

 50 55  0  0  1  0  0  0  0  0999 V2000
   35.2720   28.4090   39.0710 C   0  0  1  0  0  0  0  0  0  0  0  0
   34.3510   28.9180   38.0140 C   0  0  0  0  0  0  0  0  0  0  0  0
   35.7960   29.0950   37.8720 C   0  0  1  0  0  0  0  0  0  0  0  0
   35.1630   27.2860   39.1410 H   0  0  0  0  0  0  0  0  0  0  0  0
   33.7780   29.8600   38.2070 H   0  0  0  0  0  0  0  0  0  0  0  0
   33.8060   28.2570   37.3280 H   0  0  0  0  0  0  0  0  0  0  0  0
   36.2990   28.4550   37.1170 H   0  0  0  0  0  0  0  0  0  0  0  0
   36.4300   30.4370   38.0530 C   0  0  2  0  0  0  0  0  0  0  0  0
   37.3120   30.8710   36.8540 C   0  0  0  0  0  0  0  0  0  0  0  0
   37.9570   30.4940   38.1170 C   0  0  1  0  0  0  0  0  0  0  0  0
   35.8340   31.3000   38.4020 H   0  0  0  0  0  0  0  0  0  0  0  0
   37.4320   30.1530   36.0190 H   0  0  0  0  0  0  0  0  0  0  0  0
   37.3750   31.9160   36.5690 H   0  0  0  0  0  0  0  0  0  0  0  0
   38.4520   29.4910   38.2440 H   0  0  0  0  0  0  0  0  0  0  0  0
   38.4410   31.4750   39.0690 N   0  0  0  0  0  0  0  0  0  0  0  0
   37.8420   31.7150   40.2490 C   0  0  0  0  0  0  0  0  0  0  0  0
   36.9570   31.2550   40.6690 H   0  0  0  0  0  0  0  0  0  0  0  0
   38.5270   32.6750   40.9050 N   0  0  0  0  0  0  0  0  0  0  0  0
   39.5460   33.0050   40.0990 C   0  0  0  0  0  0  0  0  0  0  0  0
   40.5530   33.9470   40.3020 C   0  0  0  0  0  0  0  0  0  0  0  0
   40.6440   34.5670   41.1870 H   0  0  0  0  0  0  0  0  0  0  0  0
   41.4650   34.0830   39.3190 N   0  0  0  0  0  0  0  0  0  0  0  0
   41.4130   33.3520   38.2000 C   0  0  0  0  0  0  0  0  0  0  0  0
   42.1470   33.4620   37.4120 H   0  0  0  0  0  0  0  0  0  0  0  0
   40.4530   32.4300   37.9700 N   0  0  0  0  0  0  0  0  0  0  0  0
   39.5250   32.2630   38.9210 C   0  0  0  0  0  0  0  0  0  0  0  0
   35.1820   29.1320   40.3690 C   0  0  0  0  0  0  0  0  0  0  0  0
   34.3120   28.6830   40.9270 H   0  0  0  0  0  0  0  0  0  0  0  0
   35.1190   30.2050   40.3490 H   0  0  0  0  0  0  0  0  0  0  0  0
   36.9650   27.7220   40.9920 C   0  0  0  0  0  3  0  0  0  0  0  0
   36.3740   28.8150   41.2420 C   0  0  0  0  0  3  0  0  0  0  0  0
   39.2410   25.8220   43.1820 C   0  0  0  0  0  0  0  0  0  0  0  0
   40.2760   26.7210   43.4150 C   0  0  0  0  0  0  0  0  0  0  0  0
   40.1580   27.9340   42.8200 C   0  0  0  0  0  0  0  0  0  0  0  0
   39.0800   28.2290   42.0450 N   0  0  0  0  0  0  0  0  0  0  0  0
   38.0920   27.3270   41.8410 C   0  0  0  0  0  0  0  0  0  0  0  0
   38.2050   26.1470   42.4190 N   0  0  0  0  0  0  0  0  0  0  0  0
   39.2980   24.8450   43.6380 H   0  0  0  0  0  0  0  0  0  0  0  0
   41.1380   26.5260   44.0180 H   0  0  0  0  0  0  0  0  0  0  0  0
   41.1650   28.9820   42.9730 C   0  0  0  0  0  0  0  0  0  0  0  0
   42.4340   28.7790   43.4560 C   0  0  0  0  0  0  0  0  0  0  0  0
   43.3780   29.7720   43.5950 C   0  0  0  0  0  0  0  0  0  0  0  0
   43.0580   31.0720   43.2340 C   0  0  0  0  0  0  0  0  0  0  0  0
   41.8020   31.3300   42.7460 C   0  0  0  0  0  0  0  0  0  0  0  0
   40.9030   30.2880   42.6310 C   0  0  0  0  0  0  0  0  0  0  0  0
   42.7180   27.7570   43.7500 H   0  0  0  0  0  0  0  0  0  0  0  0
   44.3760   29.5730   43.9820 H   0  0  0  0  0  0  0  0  0  0  0  0
   43.7840   31.8520   43.3380 H   0  0  0  0  0  0  0  0  0  0  0  0
   41.5170   32.3210   42.4560 H   0  0  0  0  0  0  0  0  0  0  0  0
   39.9150   30.5470   42.2360 H   0  0  0  0  0  0  0  0  0  0  0  0
  1  4  1  1  0  0  0
  1 27  1  0  0  0  0
  2  5  1  0  0  0  0
  2  1  1  0  0  0  0
  3  7  1  6  0  0  0
  3  2  1  0  0  0  0
  3  8  1  0  0  0  0
  3  1  1  0  0  0  0
  6  2  1  0  0  0  0
  8 10  1  0  0  0  0
  8 11  1  1  0  0  0
  9  8  1  0  0  0  0
  9 10  1  0  0  0  0
 10 14  1  1  0  0  0
 10 15  1  0  0  0  0
 12  9  1  0  0  0  0
 13  9  1  0  0  0  0
 15 16  1  0  0  0  0
 16 17  1  0  0  0  0
 16 18  2  0  0  0  0
 19 20  1  0  0  0  0
 19 18  1  0  0  0  0
 20 21  1  0  0  0  0
 22 20  2  0  0  0  0
 23 22  1  0  0  0  0
 24 23  1  0  0  0  0
 25 23  2  0  0  0  0
 25 26  1  0  0  0  0
 26 15  1  0  0  0  0
 26 19  2  0  0  0  0
 27 28  1  0  0  0  0
 27 31  1  0  0  0  0
 29 27  1  0  0  0  0
 30 31  2  0  0  0  0
 30 36  1  0  0  0  0
 32 33  1  0  0  0  0
 32 38  1  0  0  0  0
 33 39  1  0  0  0  0
 34 40  1  0  0  0  0
 34 33  2  0  0  0  0
 35 34  1  0  0  0  0
 36 35  2  0  0  0  0
 36 37  1  0  0  0  0
 37 32  2  0  0  0  0
 40 41  1  0  0  0  0
 41 42  2  0  0  0  0
 41 46  1  0  0  0  0
 42 47  1  0  0  0  0
 43 48  1  0  0  0  0
 43 42  1  0  0  0  0
 44 43  2  0  0  0  0
 45 44  1  0  0  0  0
 45 40  2  0  0  0  0
 49 44  1  0  0  0  0
 50 45  1  0  0  0  0
M  END
>  <minimizedAffinity>
-6.30400515

$$$$

 OpenBabel03252508193D

 50 55  0  0  1  0  0  0  0  0999 V2000
   37.4620   24.7810   40.9550 C   0  0  1  0  0  0  0  0  0  0  0  0
   37.8230   24.0320   42.1940 C   0  0  0  0  0  0  0  0  0  0  0  0
   36.9580   25.2080   42.2770 C   0  0  1  0  0  0  0  0  0  0  0  0
   36.8840   24.0940   40.2680 H   0  0  0  0  0  0  0  0  0  0  0  0
   38.8470   24.1690   42.6260 H   0  0  0  0  0  0  0  0  0  0  0  0
   37.4250   23.0360   42.4280 H   0  0  0  0  0  0  0  0  0  0  0  0
   35.8840   25.0160   42.4820 H   0  0  0  0  0  0  0  0  0  0  0  0
   37.4640   26.5000   42.8350 C   0  0  2  0  0  0  0  0  0  0  0  0
   36.4110   27.2630   43.6800 C   0  0  0  0  0  0  0  0  0  0  0  0
   36.7870   27.7870   42.3620 C   0  0  1  0  0  0  0  0  0  0  0  0
   38.4460   26.5500   43.3400 H   0  0  0  0  0  0  0  0  0  0  0  0
   35.3960   26.8250   43.7520 H   0  0  0  0  0  0  0  0  0  0  0  0
   36.7170   27.8470   44.5410 H   0  0  0  0  0  0  0  0  0  0  0  0
   36.1180   27.6560   41.4670 H   0  0  0  0  0  0  0  0  0  0  0  0
   37.7230   28.8830   42.1960 N   0  0  0  0  0  0  0  0  0  0  0  0
   38.9600   28.8830   42.7250 C   0  0  0  0  0  0  0  0  0  0  0  0
   39.4430   28.1240   43.3250 H   0  0  0  0  0  0  0  0  0  0  0  0
   39.5820   30.0350   42.3940 N   0  0  0  0  0  0  0  0  0  0  0  0
   38.6970   30.7240   41.6590 C   0  0  0  0  0  0  0  0  0  0  0  0
   38.8380   31.9780   41.0690 C   0  0  0  0  0  0  0  0  0  0  0  0
   39.7300   32.5900   41.1350 H   0  0  0  0  0  0  0  0  0  0  0  0
   37.7810   32.4460   40.3760 N   0  0  0  0  0  0  0  0  0  0  0  0
   36.6480   31.7440   40.2540 C   0  0  0  0  0  0  0  0  0  0  0  0
   35.8010   32.1210   39.6960 H   0  0  0  0  0  0  0  0  0  0  0  0
   36.4770   30.5260   40.8110 N   0  0  0  0  0  0  0  0  0  0  0  0
   37.5030   30.0230   41.5110 C   0  0  0  0  0  0  0  0  0  0  0  0
   38.5960   25.5020   40.3160 C   0  0  0  0  0  0  0  0  0  0  0  0
   39.1050   24.7600   39.6370 H   0  0  0  0  0  0  0  0  0  0  0  0
   39.3060   25.9970   40.9540 H   0  0  0  0  0  0  0  0  0  0  0  0
   38.8330   27.5840   39.2380 C   0  0  0  0  0  3  0  0  0  0  0  0
   38.0890   26.5670   39.3720 C   0  0  0  0  0  3  0  0  0  0  0  0
   38.6460   30.7140   37.2990 C   0  0  0  0  0  0  0  0  0  0  0  0
   37.3670   30.6700   36.7560 C   0  0  0  0  0  0  0  0  0  0  0  0
   36.6210   29.5820   37.0700 C   0  0  0  0  0  0  0  0  0  0  0  0
   37.1200   28.6020   37.8720 N   0  0  0  0  0  0  0  0  0  0  0  0
   38.3700   28.6800   38.3830 C   0  0  0  0  0  0  0  0  0  0  0  0
   39.0960   29.7380   38.0780 N   0  0  0  0  0  0  0  0  0  0  0  0
   39.2710   31.5650   37.0730 H   0  0  0  0  0  0  0  0  0  0  0  0
   36.9410   31.4190   36.1220 H   0  0  0  0  0  0  0  0  0  0  0  0
   35.2590   29.3960   36.5730 C   0  0  0  0  0  0  0  0  0  0  0  0
   34.8830   29.5320   35.2610 C   0  0  0  0  0  0  0  0  0  0  0  0
   33.5970   29.3540   34.8000 C   0  0  0  0  0  0  0  0  0  0  0  0
   32.5930   29.0160   35.6960 C   0  0  0  0  0  0  0  0  0  0  0  0
   32.9160   28.8680   37.0210 C   0  0  0  0  0  0  0  0  0  0  0  0
   34.2250   29.0610   37.4160 C   0  0  0  0  0  0  0  0  0  0  0  0
   35.6570   29.7990   34.5260 H   0  0  0  0  0  0  0  0  0  0  0  0
   33.3360   29.4700   33.7500 H   0  0  0  0  0  0  0  0  0  0  0  0
   31.5900   28.8750   35.3490 H   0  0  0  0  0  0  0  0  0  0  0  0
   32.1690   28.6070   37.7440 H   0  0  0  0  0  0  0  0  0  0  0  0
   34.4300   28.9300   38.4840 H   0  0  0  0  0  0  0  0  0  0  0  0
  1  4  1  6  0  0  0
  1  2  1  0  0  0  0
  1  3  1  0  0  0  0
  2  3  1  0  0  0  0
  2  6  1  0  0  0  0
  2  5  1  0  0  0  0
  3  7  1  1  0  0  0
  3  8  1  0  0  0  0
  8 11  1  1  0  0  0
  8  9  1  0  0  0  0
  9 12  1  0  0  0  0
  9 13  1  0  0  0  0
 10 14  1  6  0  0  0
 10  8  1  0  0  0  0
 10  9  1  0  0  0  0
 15 10  1  0  0  0  0
 15 16  1  0  0  0  0
 16 17  1  0  0  0  0
 18 16  2  0  0  0  0
 19 18  1  0  0  0  0
 20 21  1  0  0  0  0
 20 19  2  0  0  0  0
 22 20  1  0  0  0  0
 23 22  2  0  0  0  0
 23 25  1  0  0  0  0
 24 23  1  0  0  0  0
 25 26  2  0  0  0  0
 26 19  1  0  0  0  0
 26 15  1  0  0  0  0
 27 29  1  0  0  0  0
 27  1  1  0  0  0  0
 28 27  1  0  0  0  0
 30 31  2  0  0  0  0
 31 27  1  0  0  0  0
 32 37  1  0  0  0  0
 33 34  1  0  0  0  0
 33 32  2  0  0  0  0
 34 35  2  0  0  0  0
 35 36  1  0  0  0  0
 36 30  1  0  0  0  0
 37 36  2  0  0  0  0
 38 32  1  0  0  0  0
 39 33  1  0  0  0  0
 40 34  1  0  0  0  0
 40 45  1  0  0  0  0
 41 40  2  0  0  0  0
 42 41  1  0  0  0  0
 42 43  2  0  0  0  0
 43 44  1  0  0  0  0
 44 45  2  0  0  0  0
 44 49  1  0  0  0  0
 45 50  1  0  0  0  0
 46 41  1  0  0  0  0
 47 42  1  0  0  0  0
 48 43  1  0  0  0  0
M  END
>  <minimizedAffinity>
-5.94549036

$$$$

 OpenBabel03252508193D

 50 55  0  0  1  0  0  0  0  0999 V2000
   37.2880   30.9570   39.2050 C   0  0  1  0  0  0  0  0  0  0  0  0
   37.1670   32.1740   40.0590 C   0  0  0  0  0  0  0  0  0  0  0  0
   38.3430   31.3120   40.1770 C   0  0  1  0  0  0  0  0  0  0  0  0
   37.3190   31.2740   38.1200 H   0  0  0  0  0  0  0  0  0  0  0  0
   36.4730   32.1470   40.9380 H   0  0  0  0  0  0  0  0  0  0  0  0
   37.2670   33.1930   39.6660 H   0  0  0  0  0  0  0  0  0  0  0  0
   39.2900   31.7100   39.7570 H   0  0  0  0  0  0  0  0  0  0  0  0
   38.5290   30.4200   41.3630 C   0  0  2  0  0  0  0  0  0  0  0  0
   39.9510   30.4970   41.9770 C   0  0  0  0  0  0  0  0  0  0  0  0
   39.5530   29.2900   41.2440 C   0  0  1  0  0  0  0  0  0  0  0  0
   37.7800   30.3980   42.1750 H   0  0  0  0  0  0  0  0  0  0  0  0
   40.6940   31.1450   41.4710 H   0  0  0  0  0  0  0  0  0  0  0  0
   40.0940   30.3910   43.0470 H   0  0  0  0  0  0  0  0  0  0  0  0
   39.9100   29.0990   40.1940 H   0  0  0  0  0  0  0  0  0  0  0  0
   39.1260   28.0760   41.9120 N   0  0  0  0  0  0  0  0  0  0  0  0
   39.4110   27.8030   43.1980 C   0  0  0  0  0  0  0  0  0  0  0  0
   39.9680   28.3950   43.9120 H   0  0  0  0  0  0  0  0  0  0  0  0
   38.8780   26.6070   43.5250 N   0  0  0  0  0  0  0  0  0  0  0  0
   38.2700   26.1680   42.4130 C   0  0  0  0  0  0  0  0  0  0  0  0
   37.5660   24.9820   42.2120 C   0  0  0  0  0  0  0  0  0  0  0  0
   37.4130   24.2220   42.9690 H   0  0  0  0  0  0  0  0  0  0  0  0
   37.0490   24.7840   40.9820 N   0  0  0  0  0  0  0  0  0  0  0  0
   37.2000   25.6800   39.9990 C   0  0  0  0  0  0  0  0  0  0  0  0
   36.7830   25.5200   39.0140 H   0  0  0  0  0  0  0  0  0  0  0  0
   37.8750   26.8390   40.1600 N   0  0  0  0  0  0  0  0  0  0  0  0
   38.4060   27.0750   41.3660 C   0  0  0  0  0  0  0  0  0  0  0  0
   36.3090   29.8810   39.5170 C   0  0  0  0  0  0  0  0  0  0  0  0
   35.5760   30.3190   40.2520 H   0  0  0  0  0  0  0  0  0  0  0  0
   36.6890   28.9360   39.8630 H   0  0  0  0  0  0  0  0  0  0  0  0
   34.4360   28.8500   38.5270 C   0  0  0  0  0  3  0  0  0  0  0  0
   35.4630   29.5590   38.3080 C   0  0  0  0  0  3  0  0  0  0  0  0
   32.7630   26.8960   35.8860 C   0  0  0  0  0  0  0  0  0  0  0  0
   31.9930   27.8500   35.2300 C   0  0  0  0  0  0  0  0  0  0  0  0
   32.0740   29.1160   35.7110 C   0  0  0  0  0  0  0  0  0  0  0  0
   32.8700   29.4090   36.7750 N   0  0  0  0  0  0  0  0  0  0  0  0
   33.6050   28.4530   37.3880 C   0  0  0  0  0  0  0  0  0  0  0  0
   33.5270   27.2210   36.9220 N   0  0  0  0  0  0  0  0  0  0  0  0
   32.7260   25.8760   35.5340 H   0  0  0  0  0  0  0  0  0  0  0  0
   31.3560   27.6580   34.3920 H   0  0  0  0  0  0  0  0  0  0  0  0
   31.3230   30.2250   35.1250 C   0  0  0  0  0  0  0  0  0  0  0  0
   30.9590   30.3080   33.8040 C   0  0  0  0  0  0  0  0  0  0  0  0
   30.2500   31.3560   33.2600 C   0  0  0  0  0  0  0  0  0  0  0  0
   29.8640   32.4120   34.0710 C   0  0  0  0  0  0  0  0  0  0  0  0
   30.2040   32.3790   35.4000 C   0  0  0  0  0  0  0  0  0  0  0  0
   30.9150   31.2980   35.8820 C   0  0  0  0  0  0  0  0  0  0  0  0
   31.2500   29.4840   33.1350 H   0  0  0  0  0  0  0  0  0  0  0  0
   29.9790   31.3860   32.2060 H   0  0  0  0  0  0  0  0  0  0  0  0
   29.3130   33.2320   33.6590 H   0  0  0  0  0  0  0  0  0  0  0  0
   29.9240   33.1760   36.0600 H   0  0  0  0  0  0  0  0  0  0  0  0
   31.1600   31.3190   36.9490 H   0  0  0  0  0  0  0  0  0  0  0  0
  1  4  1  6  0  0  0
  1 27  1  0  0  0  0
  1  2  1  0  0  0  0
  1  3  1  0  0  0  0
  2  3  1  0  0  0  0
  2  5  1  0  0  0  0
  3  7  1  6  0  0  0
  3  8  1  0  0  0  0
  6  2  1  0  0  0  0
  8  9  1  0  0  0  0
  8 11  1  1  0  0  0
  9 13  1  0  0  0  0
 10 14  1  6  0  0  0
 10  8  1  0  0  0  0
 10 15  1  0  0  0  0
 10  9  1  0  0  0  0
 12  9  1  0  0  0  0
 15 16  1  0  0  0  0
 16 18  2  0  0  0  0
 16 17  1  0  0  0  0
 19 18  1  0  0  0  0
 20 19  1  0  0  0  0
 20 21  1  0  0  0  0
 22 20  2  0  0  0  0
 23 25  2  0  0  0  0
 23 22  1  0  0  0  0
 24 23  1  0  0  0  0
 25 26  1  0  0  0  0
 26 15  1  0  0  0  0
 26 19  2  0  0  0  0
 27 29  1  0  0  0  0
 27 28  1  0  0  0  0
 31 30  2  0  0  0  0
 31 27  1  0  0  0  0
 32 37  1  0  0  0  0
 33 34  1  0  0  0  0
 33 32  2  0  0  0  0
 34 35  2  0  0  0  0
 35 36  1  0  0  0  0
 36 30  1  0  0  0  0
 37 36  2  0  0  0  0
 38 32  1  0  0  0  0
 39 33  1  0  0  0  0
 40 34  1  0  0  0  0
 40 45  1  0  0  0  0
 41 40  2  0  0  0  0
 42 41  1  0  0  0  0
 42 43  2  0  0  0  0
 43 44  1  0  0  0  0
 44 45  2  0  0  0  0
 44 49  1  0  0  0  0
 45 50  1  0  0  0  0
 46 41  1  0  0  0  0
 47 42  1  0  0  0  0
 48 43  1  0  0  0  0
M  END
>  <minimizedAffinity>
-5.92988443

$$$$

 OpenBabel03252508193D

 50 55  0  0  1  0  0  0  0  0999 V2000
   34.8850   28.4050   36.8390 C   0  0  1  0  0  0  0  0  0  0  0  0
   34.4360   27.0580   36.3840 C   0  0  0  0  0  0  0  0  0  0  0  0
   33.9390   28.2590   35.7130 C   0  0  1  0  0  0  0  0  0  0  0  0
   36.0040   28.4850   36.6970 H   0  0  0  0  0  0  0  0  0  0  0  0
   33.6730   26.5110   36.9950 H   0  0  0  0  0  0  0  0  0  0  0  0
   35.0910   26.3580   35.8500 H   0  0  0  0  0  0  0  0  0  0  0  0
   34.3440   28.4590   34.6990 H   0  0  0  0  0  0  0  0  0  0  0  0
   32.5340   28.7300   35.9130 C   0  0  2  0  0  0  0  0  0  0  0  0
   31.5830   28.3510   34.7480 C   0  0  0  0  0  0  0  0  0  0  0  0
   31.9830   29.7520   34.9180 C   0  0  1  0  0  0  0  0  0  0  0  0
   32.0170   28.5680   36.8770 H   0  0  0  0  0  0  0  0  0  0  0  0
   32.0230   27.8270   33.8770 H   0  0  0  0  0  0  0  0  0  0  0  0
   30.5430   28.1150   34.9440 H   0  0  0  0  0  0  0  0  0  0  0  0
   32.7640   30.2220   34.2580 H   0  0  0  0  0  0  0  0  0  0  0  0
   31.1250   30.7380   35.5470 N   0  0  0  0  0  0  0  0  0  0  0  0
   30.9300   31.9720   35.0470 C   0  0  0  0  0  0  0  0  0  0  0  0
   31.3470   32.4180   34.1540 H   0  0  0  0  0  0  0  0  0  0  0  0
   30.0840   32.6470   35.8530 N   0  0  0  0  0  0  0  0  0  0  0  0
   29.7760   31.7970   36.8440 C   0  0  0  0  0  0  0  0  0  0  0  0
   28.9390   31.9980   37.9400 C   0  0  0  0  0  0  0  0  0  0  0  0
   28.4010   32.9170   38.1410 H   0  0  0  0  0  0  0  0  0  0  0  0
   28.8020   30.9660   38.7970 N   0  0  0  0  0  0  0  0  0  0  0  0
   29.4360   29.8030   38.6100 C   0  0  0  0  0  0  0  0  0  0  0  0
   29.3250   28.9760   39.2990 H   0  0  0  0  0  0  0  0  0  0  0  0
   30.2540   29.5740   37.5600 N   0  0  0  0  0  0  0  0  0  0  0  0
   30.4190   30.5730   36.6830 C   0  0  0  0  0  0  0  0  0  0  0  0
   34.3920   28.8000   38.1870 C   0  0  0  0  0  0  0  0  0  0  0  0
   34.0430   27.8540   38.6900 H   0  0  0  0  0  0  0  0  0  0  0  0
   33.6450   29.5720   38.2470 H   0  0  0  0  0  0  0  0  0  0  0  0
   35.6980   28.6400   40.1420 C   0  0  0  0  0  3  0  0  0  0  0  0
   35.5330   29.2730   39.0570 C   0  0  0  0  0  3  0  0  0  0  0  0
   37.9860   28.9370   43.0170 C   0  0  0  0  0  0  0  0  0  0  0  0
   38.7650   30.0390   42.6860 C   0  0  0  0  0  0  0  0  0  0  0  0
   38.4820   30.6370   41.5010 C   0  0  0  0  0  0  0  0  0  0  0  0
   37.4880   30.1640   40.7010 N   0  0  0  0  0  0  0  0  0  0  0  0
   36.7500   29.0870   41.0590 C   0  0  0  0  0  0  0  0  0  0  0  0
   37.0240   28.5050   42.2100 N   0  0  0  0  0  0  0  0  0  0  0  0
   38.1810   28.4330   43.9520 H   0  0  0  0  0  0  0  0  0  0  0  0
   39.5540   30.4400   43.2870 H   0  0  0  0  0  0  0  0  0  0  0  0
   39.2150   31.8050   41.0180 C   0  0  0  0  0  0  0  0  0  0  0  0
   40.5550   31.8170   40.7220 C   0  0  0  0  0  0  0  0  0  0  0  0
   41.2390   32.9220   40.2660 C   0  0  0  0  0  0  0  0  0  0  0  0
   40.5590   34.1170   40.0840 C   0  0  0  0  0  0  0  0  0  0  0  0
   39.2170   34.1600   40.3670 C   0  0  0  0  0  0  0  0  0  0  0  0
   38.5920   33.0150   40.8210 C   0  0  0  0  0  0  0  0  0  0  0  0
   41.1220   30.8830   40.8550 H   0  0  0  0  0  0  0  0  0  0  0  0
   42.3030   32.8930   40.0410 H   0  0  0  0  0  0  0  0  0  0  0  0
   41.0800   34.9820   39.7310 H   0  0  0  0  0  0  0  0  0  0  0  0
   38.6560   35.0650   40.2390 H   0  0  0  0  0  0  0  0  0  0  0  0
   37.5210   33.1020   41.0310 H   0  0  0  0  0  0  0  0  0  0  0  0
  1  4  1  6  0  0  0
  1 27  1  0  0  0  0
  2  1  1  0  0  0  0
  2  5  1  0  0  0  0
  3  7  1  6  0  0  0
  3  8  1  0  0  0  0
  3  2  1  0  0  0  0
  3  1  1  0  0  0  0
  6  2  1  0  0  0  0
  8 11  1  1  0  0  0
  9 10  1  0  0  0  0
  9 13  1  0  0  0  0
  9  8  1  0  0  0  0
 10 14  1  6  0  0  0
 10 15  1  0  0  0  0
 10  8  1  0  0  0  0
 12  9  1  0  0  0  0
 15 26  1  0  0  0  0
 16 15  1  0  0  0  0
 16 18  2  0  0  0  0
 17 16  1  0  0  0  0
 18 19  1  0  0  0  0
 19 20  1  0  0  0  0
 20 21  1  0  0  0  0
 20 22  2  0  0  0  0
 23 22  1  0  0  0  0
 23 24  1  0  0  0  0
 25 23  2  0  0  0  0
 26 19  2  0  0  0  0
 26 25  1  0  0  0  0
 27 29  1  0  0  0  0
 27 28  1  0  0  0  0
 27 31  1  0  0  0  0
 30 36  1  0  0  0  0
 31 30  2  0  0  0  0
 32 38  1  0  0  0  0
 33 32  1  0  0  0  0
 33 39  1  0  0  0  0
 34 33  2  0  0  0  0
 35 36  2  0  0  0  0
 35 34  1  0  0  0  0
 36 37  1  0  0  0  0
 37 32  2  0  0  0  0
 40 34  1  0  0  0  0
 41 46  1  0  0  0  0
 41 40  2  0  0  0  0
 42 41  1  0  0  0  0
 43 42  2  0  0  0  0
 43 44  1  0  0  0  0
 44 45  2  0  0  0  0
 45 40  1  0  0  0  0
 45 50  1  0  0  0  0
 47 42  1  0  0  0  0
 48 43  1  0  0  0  0
 49 44  1  0  0  0  0
M  END
>  <minimizedAffinity>
-5.92161608

$$$$

 OpenBabel03252508193D

 50 55  0  0  1  0  0  0  0  0999 V2000
   37.6140   25.9550   42.3600 C   0  0  1  0  0  0  0  0  0  0  0  0
   36.8920   24.6690   42.1410 C   0  0  0  0  0  0  0  0  0  0  0  0
   37.5250   25.3520   41.0140 C   0  0  1  0  0  0  0  0  0  0  0  0
   38.4810   25.7720   43.0610 H   0  0  0  0  0  0  0  0  0  0  0  0
   35.7720   24.6760   42.1270 H   0  0  0  0  0  0  0  0  0  0  0  0
   37.2760   23.7000   42.4860 H   0  0  0  0  0  0  0  0  0  0  0  0
   38.4540   24.8910   40.6170 H   0  0  0  0  0  0  0  0  0  0  0  0
   36.7070   26.0610   39.9820 C   0  0  2  0  0  0  0  0  0  0  0  0
   36.4030   25.1950   38.7330 C   0  0  0  0  0  0  0  0  0  0  0  0
   37.3500   26.3090   38.6180 C   0  0  1  0  0  0  0  0  0  0  0  0
   35.7990   26.6220   40.2710 H   0  0  0  0  0  0  0  0  0  0  0  0
   36.8450   24.1800   38.6920 H   0  0  0  0  0  0  0  0  0  0  0  0
   35.4590   25.3020   38.2070 H   0  0  0  0  0  0  0  0  0  0  0  0
   38.4610   26.1310   38.5910 H   0  0  0  0  0  0  0  0  0  0  0  0
   36.9820   27.5920   38.0500 N   0  0  0  0  0  0  0  0  0  0  0  0
   35.7700   27.8460   37.5260 C   0  0  0  0  0  0  0  0  0  0  0  0
   34.9150   27.1880   37.4390 H   0  0  0  0  0  0  0  0  0  0  0  0
   35.7380   29.1200   37.0830 N   0  0  0  0  0  0  0  0  0  0  0  0
   36.9510   29.6250   37.3500 C   0  0  0  0  0  0  0  0  0  0  0  0
   37.4410   30.9040   37.0950 C   0  0  0  0  0  0  0  0  0  0  0  0
   36.8740   31.6960   36.6210 H   0  0  0  0  0  0  0  0  0  0  0  0
   38.7130   31.1530   37.4690 N   0  0  0  0  0  0  0  0  0  0  0  0
   39.4720   30.2210   38.0590 C   0  0  0  0  0  0  0  0  0  0  0  0
   40.4910   30.4230   38.3590 H   0  0  0  0  0  0  0  0  0  0  0  0
   39.0280   28.9730   38.3220 N   0  0  0  0  0  0  0  0  0  0  0  0
   37.7700   28.6830   37.9660 C   0  0  0  0  0  0  0  0  0  0  0  0
   36.7380   27.1010   42.7290 C   0  0  0  0  0  0  0  0  0  0  0  0
   36.6430   27.0840   43.8510 H   0  0  0  0  0  0  0  0  0  0  0  0
   35.7740   27.1740   42.2580 H   0  0  0  0  0  0  0  0  0  0  0  0
   36.8040   29.2100   41.6800 C   0  0  0  0  0  3  0  0  0  0  0  0
   37.4280   28.4150   42.4440 C   0  0  0  0  0  3  0  0  0  0  0  0
   37.4450   32.5970   40.3730 C   0  0  0  0  0  0  0  0  0  0  0  0
   38.7800   32.8100   40.6960 C   0  0  0  0  0  0  0  0  0  0  0  0
   39.4080   31.7970   41.3430 C   0  0  0  0  0  0  0  0  0  0  0  0
   38.7460   30.6470   41.6470 N   0  0  0  0  0  0  0  0  0  0  0  0
   37.4450   30.4770   41.3160 C   0  0  0  0  0  0  0  0  0  0  0  0
   36.8340   31.4610   40.6870 N   0  0  0  0  0  0  0  0  0  0  0  0
   36.9110   33.3800   39.8570 H   0  0  0  0  0  0  0  0  0  0  0  0
   39.3340   33.6990   40.4740 H   0  0  0  0  0  0  0  0  0  0  0  0
   40.8110   31.8750   41.7470 C   0  0  0  0  0  0  0  0  0  0  0  0
   41.7490   32.6800   41.1520 C   0  0  0  0  0  0  0  0  0  0  0  0
   43.0690   32.7490   41.5400 C   0  0  0  0  0  0  0  0  0  0  0  0
   43.5100   31.9670   42.5970 C   0  0  0  0  0  0  0  0  0  0  0  0
   42.6120   31.1440   43.2260 C   0  0  0  0  0  0  0  0  0  0  0  0
   41.3030   31.1230   42.7880 C   0  0  0  0  0  0  0  0  0  0  0  0
   41.4290   33.3130   40.3100 H   0  0  0  0  0  0  0  0  0  0  0  0
   43.7850   33.4000   41.0430 H   0  0  0  0  0  0  0  0  0  0  0  0
   44.5340   32.0130   42.9070 H   0  0  0  0  0  0  0  0  0  0  0  0
   42.9140   30.5250   44.0480 H   0  0  0  0  0  0  0  0  0  0  0  0
   40.6260   30.4500   43.3250 H   0  0  0  0  0  0  0  0  0  0  0  0
  1 27  1  0  0  0  0
  1  4  1  1  0  0  0
  2  1  1  0  0  0  0
  2  6  1  0  0  0  0
  3  7  1  6  0  0  0
  3  2  1  0  0  0  0
  3  1  1  0  0  0  0
  5  2  1  0  0  0  0
  8 11  1  1  0  0  0
  8  3  1  0  0  0  0
  9  8  1  0  0  0  0
 10 14  1  6  0  0  0
 10  9  1  0  0  0  0
 10  8  1  0  0  0  0
 12  9  1  0  0  0  0
 13  9  1  0  0  0  0
 15 10  1  0  0  0  0
 16 15  1  0  0  0  0
 17 16  1  0  0  0  0
 18 19  1  0  0  0  0
 18 16  2  0  0  0  0
 19 26  1  0  0  0  0
 20 19  2  0  0  0  0
 20 22  1  0  0  0  0
 21 20  1  0  0  0  0
 22 23  2  0  0  0  0
 23 25  1  0  0  0  0
 23 24  1  0  0  0  0
 26 15  1  0  0  0  0
 26 25  2  0  0  0  0
 27 28  1  0  0  0  0
 29 27  1  0  0  0  0
 30 31  2  0  0  0  0
 31 27  1  0  0  0  0
 32 37  2  0  0  0  0
 32 33  1  0  0  0  0
 33 34  2  0  0  0  0
 34 35  1  0  0  0  0
 34 40  1  0  0  0  0
 36 35  2  0  0  0  0
 36 30  1  0  0  0  0
 37 36  1  0  0  0  0
 38 32  1  0  0  0  0
 39 33  1  0  0  0  0
 40 45  1  0  0  0  0
 41 42  1  0  0  0  0
 41 40  2  0  0  0  0
 42 43  2  0  0  0  0
 43 48  1  0  0  0  0
 43 44  1  0  0  0  0
 44 49  1  0  0  0  0
 45 44  2  0  0  0  0
 45 50  1  0  0  0  0
 46 41  1  0  0  0  0
 47 42  1  0  0  0  0
M  END
>  <minimizedAffinity>
-5.90063238

$$$$

 OpenBabel03252508193D

 50 55  0  0  1  0  0  0  0  0999 V2000
   35.9050   28.2430   40.0570 C   0  0  1  0  0  0  0  0  0  0  0  0
   36.5620   26.9050   40.1170 C   0  0  0  0  0  0  0  0  0  0  0  0
   36.8710   27.9160   41.1270 C   0  0  1  0  0  0  0  0  0  0  0  0
   34.7890   28.1070   40.1730 H   0  0  0  0  0  0  0  0  0  0  0  0
   37.3950   26.6820   39.4030 H   0  0  0  0  0  0  0  0  0  0  0  0
   36.0270   25.9880   40.3990 H   0  0  0  0  0  0  0  0  0  0  0  0
   36.4480   27.7460   42.1400 H   0  0  0  0  0  0  0  0  0  0  0  0
   38.1840   28.6310   41.1270 C   0  0  2  0  0  0  0  0  0  0  0  0
   39.0370   28.3590   42.3930 C   0  0  0  0  0  0  0  0  0  0  0  0
   38.4190   29.6780   42.2160 C   0  0  1  0  0  0  0  0  0  0  0  0
   38.8360   28.6120   40.2340 H   0  0  0  0  0  0  0  0  0  0  0  0
   38.5920   27.7210   43.1830 H   0  0  0  0  0  0  0  0  0  0  0  0
   40.1190   28.3150   42.3270 H   0  0  0  0  0  0  0  0  0  0  0  0
   37.4920   29.9710   42.7840 H   0  0  0  0  0  0  0  0  0  0  0  0
   39.1600   30.8290   41.7360 N   0  0  0  0  0  0  0  0  0  0  0  0
   40.4740   31.0070   41.9630 C   0  0  0  0  0  0  0  0  0  0  0  0
   41.1630   30.3730   42.5060 H   0  0  0  0  0  0  0  0  0  0  0  0
   40.8680   32.1640   41.3920 N   0  0  0  0  0  0  0  0  0  0  0  0
   39.7690   32.6750   40.8180 C   0  0  0  0  0  0  0  0  0  0  0  0
   39.6300   33.8590   40.0960 C   0  0  0  0  0  0  0  0  0  0  0  0
   40.4360   34.5550   39.8960 H   0  0  0  0  0  0  0  0  0  0  0  0
   38.3990   34.1400   39.6230 N   0  0  0  0  0  0  0  0  0  0  0  0
   37.3570   33.3260   39.8330 C   0  0  0  0  0  0  0  0  0  0  0  0
   36.3710   33.5540   39.4510 H   0  0  0  0  0  0  0  0  0  0  0  0
   37.4570   32.1720   40.5270 N   0  0  0  0  0  0  0  0  0  0  0  0
   38.6630   31.8540   41.0150 C   0  0  0  0  0  0  0  0  0  0  0  0
   36.3200   29.0850   38.9030 C   0  0  0  0  0  0  0  0  0  0  0  0
   37.3640   28.7610   38.6290 H   0  0  0  0  0  0  0  0  0  0  0  0
   36.2590   30.1540   39.0070 H   0  0  0  0  0  0  0  0  0  0  0  0
   34.2480   28.7290   37.8380 C   0  0  0  0  0  3  0  0  0  0  0  0
   35.5050   28.7510   37.6750 C   0  0  0  0  0  3  0  0  0  0  0  0
   32.4700   26.8120   35.2390 C   0  0  0  0  0  0  0  0  0  0  0  0
   31.7750   27.7950   34.5440 C   0  0  0  0  0  0  0  0  0  0  0  0
   31.9390   29.0670   34.9850 C   0  0  0  0  0  0  0  0  0  0  0  0
   32.7430   29.3390   36.0490 N   0  0  0  0  0  0  0  0  0  0  0  0
   33.4030   28.3540   36.7010 C   0  0  0  0  0  0  0  0  0  0  0  0
   33.2450   27.1160   36.2730 N   0  0  0  0  0  0  0  0  0  0  0  0
   32.3660   25.7860   34.9190 H   0  0  0  0  0  0  0  0  0  0  0  0
   31.1350   27.6210   33.7050 H   0  0  0  0  0  0  0  0  0  0  0  0
   31.2730   30.2060   34.3550 C   0  0  0  0  0  0  0  0  0  0  0  0
   30.5000   30.1290   33.2250 C   0  0  0  0  0  0  0  0  0  0  0  0
   29.8750   31.2060   32.6380 C   0  0  0  0  0  0  0  0  0  0  0  0
   30.0160   32.4660   33.2010 C   0  0  0  0  0  0  0  0  0  0  0  0
   30.7800   32.5980   34.3320 C   0  0  0  0  0  0  0  0  0  0  0  0
   31.3800   31.4770   34.8700 C   0  0  0  0  0  0  0  0  0  0  0  0
   30.3680   29.1420   32.7550 H   0  0  0  0  0  0  0  0  0  0  0  0
   29.2680   31.1060   31.7400 H   0  0  0  0  0  0  0  0  0  0  0  0
   29.5350   33.3110   32.7540 H   0  0  0  0  0  0  0  0  0  0  0  0
   30.9140   33.5550   34.7980 H   0  0  0  0  0  0  0  0  0  0  0  0
   31.9780   31.6360   35.7740 H   0  0  0  0  0  0  0  0  0  0  0  0
  1  2  1  0  0  0  0
  1  4  1  1  0  0  0
  1  3  1  0  0  0  0
  2  6  1  0  0  0  0
  2  3  1  0  0  0  0
  3  8  1  0  0  0  0
  3  7  1  1  0  0  0
  5  2  1  0  0  0  0
  8 11  1  6  0  0  0
  8 10  1  0  0  0  0
  8  9  1  0  0  0  0
  9 12  1  0  0  0  0
 10  9  1  0  0  0  0
 10 14  1  1  0  0  0
 13  9  1  0  0  0  0
 15 16  1  0  0  0  0
 15 10  1  0  0  0  0
 16 17  1  0  0  0  0
 18 16  2  0  0  0  0
 19 26  1  0  0  0  0
 19 18  1  0  0  0  0
 20 19  2  0  0  0  0
 21 20  1  0  0  0  0
 22 23  2  0  0  0  0
 22 20  1  0  0  0  0
 23 25  1  0  0  0  0
 24 23  1  0  0  0  0
 25 26  2  0  0  0  0
 26 15  1  0  0  0  0
 27 29  1  0  0  0  0
 27  1  1  0  0  0  0
 28 27  1  0  0  0  0
 31 30  2  0  0  0  0
 31 27  1  0  0  0  0
 32 37  1  0  0  0  0
 33 34  1  0  0  0  0
 33 32  2  0  0  0  0
 34 35  2  0  0  0  0
 35 36  1  0  0  0  0
 36 30  1  0  0  0  0
 37 36  2  0  0  0  0
 38 32  1  0  0  0  0
 39 33  1  0  0  0  0
 40 45  1  0  0  0  0
 40 34  1  0  0  0  0
 41 40  2  0  0  0  0
 42 43  2  0  0  0  0
 42 41  1  0  0  0  0
 43 44  1  0  0  0  0
 44 49  1  0  0  0  0
 44 45  2  0  0  0  0
 45 50  1  0  0  0  0
 46 41  1  0  0  0  0
 47 42  1  0  0  0  0
 48 43  1  0  0  0  0
M  END
>  <minimizedAffinity>
-5.90053177

$$$$

 OpenBabel03252508193D

 50 55  0  0  1  0  0  0  0  0999 V2000
   38.1140   32.7810   39.5250 C   0  0  1  0  0  0  0  0  0  0  0  0
   38.5120   33.9900   40.3010 C   0  0  0  0  0  0  0  0  0  0  0  0
   39.3990   32.8290   40.2530 C   0  0  1  0  0  0  0  0  0  0  0  0
   38.0130   33.0630   38.4350 H   0  0  0  0  0  0  0  0  0  0  0  0
   38.0300   34.1740   41.2960 H   0  0  0  0  0  0  0  0  0  0  0  0
   38.8110   34.9340   39.8270 H   0  0  0  0  0  0  0  0  0  0  0  0
   40.3150   32.9340   39.6340 H   0  0  0  0  0  0  0  0  0  0  0  0
   39.5650   31.9350   41.4400 C   0  0  2  0  0  0  0  0  0  0  0  0
   41.0420   31.5660   41.7360 C   0  0  0  0  0  0  0  0  0  0  0  0
   40.1420   30.5390   41.1990 C   0  0  1  0  0  0  0  0  0  0  0  0
   39.0440   32.1560   42.3900 H   0  0  0  0  0  0  0  0  0  0  0  0
   41.8140   31.9440   41.0370 H   0  0  0  0  0  0  0  0  0  0  0  0
   41.3790   31.4310   42.7580 H   0  0  0  0  0  0  0  0  0  0  0  0
   40.1810   30.2360   40.1160 H   0  0  0  0  0  0  0  0  0  0  0  0
   39.5260   29.5270   42.0350 N   0  0  0  0  0  0  0  0  0  0  0  0
   38.3210   29.6800   42.6130 C   0  0  0  0  0  0  0  0  0  0  0  0
   37.6460   30.5240   42.5640 H   0  0  0  0  0  0  0  0  0  0  0  0
   38.0270   28.5700   43.3220 N   0  0  0  0  0  0  0  0  0  0  0  0
   39.0740   27.7490   43.1580 C   0  0  0  0  0  0  0  0  0  0  0  0
   39.2750   26.4730   43.6800 C   0  0  0  0  0  0  0  0  0  0  0  0
   38.5710   25.9530   44.3190 H   0  0  0  0  0  0  0  0  0  0  0  0
   40.4310   25.8590   43.3560 N   0  0  0  0  0  0  0  0  0  0  0  0
   41.3450   26.4420   42.5710 C   0  0  0  0  0  0  0  0  0  0  0  0
   42.2720   25.9470   42.3120 H   0  0  0  0  0  0  0  0  0  0  0  0
   41.1830   27.6770   42.0480 N   0  0  0  0  0  0  0  0  0  0  0  0
   40.0480   28.3230   42.3460 C   0  0  0  0  0  0  0  0  0  0  0  0
   36.9580   32.0340   40.0910 C   0  0  0  0  0  0  0  0  0  0  0  0
   36.0460   32.6720   39.9110 H   0  0  0  0  0  0  0  0  0  0  0  0
   37.0140   31.7150   41.1160 H   0  0  0  0  0  0  0  0  0  0  0  0
   36.0150   29.8840   39.8830 C   0  0  0  0  0  3  0  0  0  0  0  0
   36.6860   30.7810   39.2910 C   0  0  0  0  0  3  0  0  0  0  0  0
   34.7800   27.3360   37.5230 C   0  0  0  0  0  0  0  0  0  0  0  0
   35.3970   26.1720   37.9670 C   0  0  0  0  0  0  0  0  0  0  0  0
   36.2060   26.3000   39.0490 C   0  0  0  0  0  0  0  0  0  0  0  0
   36.3870   27.5090   39.6460 N   0  0  0  0  0  0  0  0  0  0  0  0
   35.7680   28.6210   39.1850 C   0  0  0  0  0  0  0  0  0  0  0  0
   34.9820   28.4980   38.1330 N   0  0  0  0  0  0  0  0  0  0  0  0
   34.1290   27.2760   36.6650 H   0  0  0  0  0  0  0  0  0  0  0  0
   35.2810   25.2050   37.5240 H   0  0  0  0  0  0  0  0  0  0  0  0
   36.9220   25.1650   39.6290 C   0  0  0  0  0  0  0  0  0  0  0  0
   36.9750   24.8810   40.9700 C   0  0  0  0  0  0  0  0  0  0  0  0
   37.6520   23.8090   41.5090 C   0  0  0  0  0  0  0  0  0  0  0  0
   38.3330   22.9410   40.6690 C   0  0  0  0  0  0  0  0  0  0  0  0
   38.3130   23.1810   39.3190 C   0  0  0  0  0  0  0  0  0  0  0  0
   37.6160   24.2740   38.8440 C   0  0  0  0  0  0  0  0  0  0  0  0
   36.4430   25.5510   41.6620 H   0  0  0  0  0  0  0  0  0  0  0  0
   37.6710   23.6150   42.5800 H   0  0  0  0  0  0  0  0  0  0  0  0
   38.8620   22.1040   41.0770 H   0  0  0  0  0  0  0  0  0  0  0  0
   38.8280   22.5330   38.6370 H   0  0  0  0  0  0  0  0  0  0  0  0
   37.6300   24.4200   37.7590 H   0  0  0  0  0  0  0  0  0  0  0  0
  1  4  1  6  0  0  0
  1 27  1  0  0  0  0
  1  3  1  0  0  0  0
  1  2  1  0  0  0  0
  2  5  1  0  0  0  0
  3  7  1  6  0  0  0
  3  2  1  0  0  0  0
  3  8  1  0  0  0  0
  6  2  1  0  0  0  0
  8  9  1  0  0  0  0
  8 11  1  1  0  0  0
  9 13  1  0  0  0  0
 10 14  1  6  0  0  0
 10  8  1  0  0  0  0
 10  9  1  0  0  0  0
 10 15  1  0  0  0  0
 12  9  1  0  0  0  0
 15 26  1  0  0  0  0
 15 16  1  0  0  0  0
 16 18  2  0  0  0  0
 17 16  1  0  0  0  0
 19 18  1  0  0  0  0
 19 20  1  0  0  0  0
 20 21  1  0  0  0  0
 22 20  2  0  0  0  0
 23 22  1  0  0  0  0
 24 23  1  0  0  0  0
 25 26  1  0  0  0  0
 25 23  2  0  0  0  0
 26 19  2  0  0  0  0
 27 29  1  0  0  0  0
 28 27  1  0  0  0  0
 31 30  2  0  0  0  0
 31 27  1  0  0  0  0
 32 33  2  0  0  0  0
 32 37  1  0  0  0  0
 33 34  1  0  0  0  0
 34 40  1  0  0  0  0
 34 35  2  0  0  0  0
 36 35  1  0  0  0  0
 36 30  1  0  0  0  0
 37 36  2  0  0  0  0
 38 32  1  0  0  0  0
 39 33  1  0  0  0  0
 40 41  1  0  0  0  0
 41 42  2  0  0  0  0
 41 46  1  0  0  0  0
 42 47  1  0  0  0  0
 43 48  1  0  0  0  0
 43 42  1  0  0  0  0
 44 43  2  0  0  0  0
 45 44  1  0  0  0  0
 45 40  2  0  0  0  0
 49 44  1  0  0  0  0
 50 45  1  0  0  0  0
M  END
>  <minimizedAffinity>
-5.87901258

$$$$
