
 OpenBabel03242520233D

 47 51  0  0  0  0  0  0  0  0999 V2000
   37.8400   33.0770   39.7530 C   0  0  0  0  0  0  0  0  0  0  0  0
   36.9400   33.8820   39.3480 O   0  0  0  0  0  0  0  0  0  0  0  0
   39.0010   33.4410   40.4570 N   0  0  0  0  0  0  0  0  0  0  0  0
   39.7760   32.7870   40.6740 H   0  0  0  0  0  0  0  0  0  0  0  0
   37.6610   31.6330   39.4670 C   0  0  0  0  0  0  0  0  0  0  0  0
   37.3550   31.2490   38.1680 C   0  0  0  0  0  0  0  0  0  0  0  0
   37.1650   29.9470   37.7510 C   0  0  0  0  0  0  0  0  0  0  0  0
   37.2950   28.9620   38.7260 C   0  0  0  0  0  0  0  0  0  0  0  0
   37.5990   29.3970   39.9980 C   0  0  0  0  0  0  0  0  0  0  0  0
   37.7790   30.6610   40.3810 N   0  0  0  0  0  0  0  0  0  0  0  0
   37.2440   31.9930   37.3710 H   0  0  0  0  0  0  0  0  0  0  0  0
   36.9290   29.6970   36.7350 H   0  0  0  0  0  0  0  0  0  0  0  0
   37.1620   27.9150   38.4890 H   0  0  0  0  0  0  0  0  0  0  0  0
   37.7510   28.4420   41.0680 N   0  0  0  0  0  0  0  0  0  0  0  0
   38.2300   28.5310   42.3160 C   0  0  0  0  0  0  0  0  0  0  0  0
   38.6060   29.4690   42.7010 H   0  0  0  0  0  0  0  0  0  0  0  0
   38.1400   27.3240   42.8940 N   0  0  0  0  0  0  0  0  0  0  0  0
   37.6010   26.4150   42.0410 C   0  0  0  0  0  0  0  0  0  0  0  0
   37.2840   25.0720   42.0910 C   0  0  0  0  0  0  0  0  0  0  0  0
   37.4820   24.5270   43.0070 H   0  0  0  0  0  0  0  0  0  0  0  0
   36.7320   24.4510   41.0080 N   0  0  0  0  0  0  0  0  0  0  0  0
   36.5070   25.1810   39.8940 C   0  0  0  0  0  0  0  0  0  0  0  0
   36.0690   24.7660   38.9780 H   0  0  0  0  0  0  0  0  0  0  0  0
   36.8170   26.4790   39.8520 N   0  0  0  0  0  0  0  0  0  0  0  0
   37.3620   27.1520   40.8860 C   0  0  0  0  0  0  0  0  0  0  0  0
   39.0980   34.8160   40.8910 C   0  0  0  0  0  0  0  0  0  0  0  0
   38.0460   35.2250   40.8670 H   0  0  0  0  0  0  0  0  0  0  0  0
   39.3940   34.9090   41.9540 H   0  0  0  0  0  0  0  0  0  0  0  0
   40.0180   35.6470   40.0140 C   0  0  0  0  0  0  0  0  0  0  0  0
   40.1010   36.6660   40.4450 H   0  0  0  0  0  0  0  0  0  0  0  0
   39.6380   35.6320   38.9830 H   0  0  0  0  0  0  0  0  0  0  0  0
   43.4700   34.4960   41.0670 C   0  0  0  0  0  0  0  0  0  0  0  0
   42.1810   35.0910   41.1200 C   0  0  0  0  0  0  0  0  0  0  0  0
   41.3750   35.0480   40.0000 C   0  0  0  0  0  0  0  0  0  0  0  0
   41.8930   34.4200   38.8920 N   0  0  0  0  0  0  0  0  0  0  0  0
   43.1430   33.8660   38.8990 C   0  0  0  0  0  0  0  0  0  0  0  0
   43.9190   33.9070   39.9790 N   0  0  0  0  0  0  0  0  0  0  0  0
   41.8610   35.5640   42.0410 H   0  0  0  0  0  0  0  0  0  0  0  0
   43.4680   33.3920   37.9820 H   0  0  0  0  0  0  0  0  0  0  0  0
   44.3330   34.5640   42.2890 C   0  0  0  0  0  0  0  0  0  0  0  0
   45.4730   35.6410   42.1170 C   0  0  0  0  0  0  0  0  0  0  0  0
   44.4450   35.6600   43.1620 C   0  0  0  0  0  0  0  0  0  0  0  0
   44.7520   33.5510   42.5570 H   0  0  0  0  0  0  0  0  0  0  0  0
   46.4840   35.2870   42.4030 H   0  0  0  0  0  0  0  0  0  0  0  0
   45.4360   36.2730   41.2300 H   0  0  0  0  0  0  0  0  0  0  0  0
   44.6990   35.5090   44.2280 H   0  0  0  0  0  0  0  0  0  0  0  0
   43.7060   36.5080   43.0630 H   0  0  0  0  0  0  0  0  0  0  0  0
  1  3  1  0  0  0  0
  2  1  2  0  0  0  0
  3  4  1  0  0  0  0
  3 26  1  0  0  0  0
  5  1  1  0  0  0  0
  5 10  1  0  0  0  0
  6  5  2  0  0  0  0
  7  6  1  0  0  0  0
  7  8  2  0  0  0  0
  8  9  1  0  0  0  0
  9 10  2  0  0  0  0
  9 14  1  0  0  0  0
 11  6  1  0  0  0  0
 12  7  1  0  0  0  0
 13  8  1  0  0  0  0
 14 15  1  0  0  0  0
 15 16  1  0  0  0  0
 15 17  2  0  0  0  0
 18 19  1  0  0  0  0
 18 17  1  0  0  0  0
 19 20  1  0  0  0  0
 21 19  2  0  0  0  0
 22 21  1  0  0  0  0
 23 22  1  0  0  0  0
 24 22  2  0  0  0  0
 24 25  1  0  0  0  0
 25 14  1  0  0  0  0
 25 18  2  0  0  0  0
 26 28  1  0  0  0  0
 27 26  1  0  0  0  0
 29 30  1  0  0  0  0
 29 26  1  0  0  0  0
 31 29  1  0  0  0  0
 32 33  1  0  0  0  0
 32 40  1  0  0  0  0
 33 38  1  0  0  0  0
 34 29  1  0  0  0  0
 34 33  2  0  0  0  0
 35 36  2  0  0  0  0
 35 34  1  0  0  0  0
 36 37  1  0  0  0  0
 37 32  2  0  0  0  0
 39 36  1  0  0  0  0
 40 43  1  0  0  0  0
 40 42  1  0  0  0  0
 41 40  1  0  0  0  0
 41 44  1  0  0  0  0
 41 42  1  0  0  0  0
 42 46  1  0  0  0  0
 45 41  1  0  0  0  0
 47 42  1  0  0  0  0
M  END
>  <minimizedAffinity>
-6.61376858

$$$$

 OpenBabel03242520233D

 47 51  0  0  0  0  0  0  0  0999 V2000
   37.3640   27.3500   39.0160 C   0  0  0  0  0  0  0  0  0  0  0  0
   38.1460   27.0020   38.0730 O   0  0  0  0  0  0  0  0  0  0  0  0
   36.4490   26.5050   39.6680 N   0  0  0  0  0  0  0  0  0  0  0  0
   35.7420   26.8330   40.3510 H   0  0  0  0  0  0  0  0  0  0  0  0
   37.4110   28.7580   39.4760 C   0  0  0  0  0  0  0  0  0  0  0  0
   36.2940   29.2850   40.1110 C   0  0  0  0  0  0  0  0  0  0  0  0
   36.1930   30.5730   40.5960 C   0  0  0  0  0  0  0  0  0  0  0  0
   37.3080   31.3870   40.4220 C   0  0  0  0  0  0  0  0  0  0  0  0
   38.3880   30.8160   39.7860 C   0  0  0  0  0  0  0  0  0  0  0  0
   38.4670   29.5680   39.3240 N   0  0  0  0  0  0  0  0  0  0  0  0
   35.3960   28.6770   40.2680 H   0  0  0  0  0  0  0  0  0  0  0  0
   35.3070   30.9370   41.0810 H   0  0  0  0  0  0  0  0  0  0  0  0
   37.3160   32.4120   40.7700 H   0  0  0  0  0  0  0  0  0  0  0  0
   39.5850   31.5910   39.5640 N   0  0  0  0  0  0  0  0  0  0  0  0
   40.8270   31.2700   39.1770 C   0  0  0  0  0  0  0  0  0  0  0  0
   41.0940   30.2450   38.9590 H   0  0  0  0  0  0  0  0  0  0  0  0
   41.5620   32.3920   39.1320 N   0  0  0  0  0  0  0  0  0  0  0  0
   40.8220   33.4730   39.4890 C   0  0  0  0  0  0  0  0  0  0  0  0
   41.0450   34.8290   39.6180 C   0  0  0  0  0  0  0  0  0  0  0  0
   42.0330   35.2160   39.4000 H   0  0  0  0  0  0  0  0  0  0  0  0
   40.0360   35.6610   40.0130 N   0  0  0  0  0  0  0  0  0  0  0  0
   38.8240   35.1230   40.2710 C   0  0  0  0  0  0  0  0  0  0  0  0
   37.9580   35.7140   40.5940 H   0  0  0  0  0  0  0  0  0  0  0  0
   38.6160   33.8110   40.1450 N   0  0  0  0  0  0  0  0  0  0  0  0
   39.5670   32.9360   39.7580 C   0  0  0  0  0  0  0  0  0  0  0  0
   36.5180   25.0960   39.3490 C   0  0  0  0  0  0  0  0  0  0  0  0
   35.5960   24.8710   38.7380 H   0  0  0  0  0  0  0  0  0  0  0  0
   37.3550   24.8530   38.6660 H   0  0  0  0  0  0  0  0  0  0  0  0
   36.5730   24.2150   40.5840 C   0  0  0  0  0  0  0  0  0  0  0  0
   36.8410   23.1830   40.2770 H   0  0  0  0  0  0  0  0  0  0  0  0
   35.6130   24.2830   41.1160 H   0  0  0  0  0  0  0  0  0  0  0  0
   38.4830   26.2800   43.1220 C   0  0  0  0  0  0  0  0  0  0  0  0
   37.4490   25.8530   42.2470 C   0  0  0  0  0  0  0  0  0  0  0  0
   37.6300   24.7030   41.5040 C   0  0  0  0  0  0  0  0  0  0  0  0
   38.8260   24.0450   41.6690 N   0  0  0  0  0  0  0  0  0  0  0  0
   39.7860   24.5040   42.5270 C   0  0  0  0  0  0  0  0  0  0  0  0
   39.6100   25.6110   43.2440 N   0  0  0  0  0  0  0  0  0  0  0  0
   36.5400   26.4400   42.1840 H   0  0  0  0  0  0  0  0  0  0  0  0
   40.6960   23.9220   42.5930 H   0  0  0  0  0  0  0  0  0  0  0  0
   38.2700   27.5350   43.9110 C   0  0  0  0  0  0  0  0  0  0  0  0
   38.6470   28.8080   43.0590 C   0  0  0  0  0  0  0  0  0  0  0  0
   37.3240   28.5370   43.6310 C   0  0  0  0  0  0  0  0  0  0  0  0
   38.8290   27.5080   44.8920 H   0  0  0  0  0  0  0  0  0  0  0  0
   39.2910   29.5390   43.5880 H   0  0  0  0  0  0  0  0  0  0  0  0
   38.8860   28.6540   42.0070 H   0  0  0  0  0  0  0  0  0  0  0  0
   36.9050   29.1600   44.4430 H   0  0  0  0  0  0  0  0  0  0  0  0
   36.5260   28.3260   42.8610 H   0  0  0  0  0  0  0  0  0  0  0  0
  1  5  1  0  0  0  0
  1  3  1  0  0  0  0
  2  1  2  0  0  0  0
  3  4  1  0  0  0  0
  5  6  1  0  0  0  0
  6 11  1  0  0  0  0
  6  7  2  0  0  0  0
  7 12  1  0  0  0  0
  8  7  1  0  0  0  0
  8 13  1  0  0  0  0
  9  8  2  0  0  0  0
 10  5  2  0  0  0  0
 10  9  1  0  0  0  0
 14 25  1  0  0  0  0
 14  9  1  0  0  0  0
 15 14  1  0  0  0  0
 16 15  1  0  0  0  0
 17 15  2  0  0  0  0
 17 18  1  0  0  0  0
 18 19  2  0  0  0  0
 18 25  1  0  0  0  0
 19 21  1  0  0  0  0
 20 19  1  0  0  0  0
 21 22  2  0  0  0  0
 22 23  1  0  0  0  0
 24 22  1  0  0  0  0
 25 24  2  0  0  0  0
 26  3  1  0  0  0  0
 26 29  1  0  0  0  0
 27 26  1  0  0  0  0
 28 26  1  0  0  0  0
 29 31  1  0  0  0  0
 29 34  1  0  0  0  0
 30 29  1  0  0  0  0
 32 37  1  0  0  0  0
 32 40  1  0  0  0  0
 33 32  2  0  0  0  0
 34 35  2  0  0  0  0
 34 33  1  0  0  0  0
 35 36  1  0  0  0  0
 36 39  1  0  0  0  0
 36 37  2  0  0  0  0
 38 33  1  0  0  0  0
 40 43  1  0  0  0  0
 41 44  1  0  0  0  0
 41 42  1  0  0  0  0
 41 40  1  0  0  0  0
 42 40  1  0  0  0  0
 42 46  1  0  0  0  0
 45 41  1  0  0  0  0
 47 42  1  0  0  0  0
M  END
>  <minimizedAffinity>
-6.59363556

$$$$

 OpenBabel03242520233D

 47 51  0  0  0  0  0  0  0  0999 V2000
   38.1370   32.7610   40.0070 C   0  0  0  0  0  0  0  0  0  0  0  0
   37.3450   33.6830   39.6260 O   0  0  0  0  0  0  0  0  0  0  0  0
   37.7570   31.5870   40.6800 N   0  0  0  0  0  0  0  0  0  0  0  0
   38.4270   30.9080   41.0840 H   0  0  0  0  0  0  0  0  0  0  0  0
   39.5830   32.9250   39.7230 C   0  0  0  0  0  0  0  0  0  0  0  0
   40.2860   33.9060   40.4110 C   0  0  0  0  0  0  0  0  0  0  0  0
   41.6310   34.1720   40.2560 C   0  0  0  0  0  0  0  0  0  0  0  0
   42.3130   33.3840   39.3330 C   0  0  0  0  0  0  0  0  0  0  0  0
   41.5690   32.4270   38.6790 C   0  0  0  0  0  0  0  0  0  0  0  0
   40.2690   32.1850   38.8420 N   0  0  0  0  0  0  0  0  0  0  0  0
   39.7860   34.5470   41.1450 H   0  0  0  0  0  0  0  0  0  0  0  0
   42.1320   34.9410   40.8110 H   0  0  0  0  0  0  0  0  0  0  0  0
   43.3710   33.5230   39.1480 H   0  0  0  0  0  0  0  0  0  0  0  0
   42.1990   31.5680   37.7060 N   0  0  0  0  0  0  0  0  0  0  0  0
   41.8080   30.4500   37.0790 C   0  0  0  0  0  0  0  0  0  0  0  0
   40.8350   30.0180   37.2690 H   0  0  0  0  0  0  0  0  0  0  0  0
   42.7950   30.0520   36.2620 N   0  0  0  0  0  0  0  0  0  0  0  0
   43.8560   30.8970   36.3330 C   0  0  0  0  0  0  0  0  0  0  0  0
   45.1000   30.9800   35.7400 C   0  0  0  0  0  0  0  0  0  0  0  0
   45.3840   30.2190   35.0220 H   0  0  0  0  0  0  0  0  0  0  0  0
   45.9480   32.0030   36.0550 N   0  0  0  0  0  0  0  0  0  0  0  0
   45.5400   32.9220   36.9550 C   0  0  0  0  0  0  0  0  0  0  0  0
   46.1540   33.7760   37.2680 H   0  0  0  0  0  0  0  0  0  0  0  0
   44.3360   32.8350   37.5250 N   0  0  0  0  0  0  0  0  0  0  0  0
   43.4510   31.8530   37.2590 C   0  0  0  0  0  0  0  0  0  0  0  0
   36.3390   31.3360   40.8060 C   0  0  0  0  0  0  0  0  0  0  0  0
   36.0830   31.5360   41.8880 H   0  0  0  0  0  0  0  0  0  0  0  0
   35.7240   32.0670   40.2480 H   0  0  0  0  0  0  0  0  0  0  0  0
   35.9550   29.9190   40.4170 C   0  0  0  0  0  0  0  0  0  0  0  0
   36.3380   29.7100   39.3980 H   0  0  0  0  0  0  0  0  0  0  0  0
   34.8660   29.8050   40.5130 H   0  0  0  0  0  0  0  0  0  0  0  0
   37.1940   26.7080   42.0010 C   0  0  0  0  0  0  0  0  0  0  0  0
   36.5650   27.5970   41.0890 C   0  0  0  0  0  0  0  0  0  0  0  0
   36.5900   28.9530   41.3480 C   0  0  0  0  0  0  0  0  0  0  0  0
   37.2360   29.3500   42.4950 N   0  0  0  0  0  0  0  0  0  0  0  0
   37.8230   28.4470   43.3370 C   0  0  0  0  0  0  0  0  0  0  0  0
   37.7990   27.1410   43.0870 N   0  0  0  0  0  0  0  0  0  0  0  0
   36.0800   27.1890   40.2100 H   0  0  0  0  0  0  0  0  0  0  0  0
   38.3090   28.8490   44.2170 H   0  0  0  0  0  0  0  0  0  0  0  0
   37.1450   25.2410   41.7080 C   0  0  0  0  0  0  0  0  0  0  0  0
   38.4660   24.7640   40.9870 C   0  0  0  0  0  0  0  0  0  0  0  0
   37.9750   24.2560   42.2720 C   0  0  0  0  0  0  0  0  0  0  0  0
   36.2240   24.9670   41.1150 H   0  0  0  0  0  0  0  0  0  0  0  0
   38.2960   24.1330   40.0920 H   0  0  0  0  0  0  0  0  0  0  0  0
   39.2770   25.4850   40.9010 H   0  0  0  0  0  0  0  0  0  0  0  0
   37.6190   23.2160   42.3860 H   0  0  0  0  0  0  0  0  0  0  0  0
   38.6230   24.5360   43.1540 H   0  0  0  0  0  0  0  0  0  0  0  0
  1  3  1  0  0  0  0
  2  1  2  0  0  0  0
  3 26  1  0  0  0  0
  3  4  1  0  0  0  0
  5  1  1  0  0  0  0
  5  6  1  0  0  0  0
  6 11  1  0  0  0  0
  7  6  2  0  0  0  0
  7 12  1  0  0  0  0
  8  7  1  0  0  0  0
  9 10  1  0  0  0  0
  9  8  2  0  0  0  0
 10  5  2  0  0  0  0
 13  8  1  0  0  0  0
 14  9  1  0  0  0  0
 15 16  1  0  0  0  0
 15 14  1  0  0  0  0
 17 18  1  0  0  0  0
 17 15  2  0  0  0  0
 18 25  1  0  0  0  0
 19 21  1  0  0  0  0
 19 18  2  0  0  0  0
 20 19  1  0  0  0  0
 21 22  2  0  0  0  0
 22 23  1  0  0  0  0
 22 24  1  0  0  0  0
 25 24  2  0  0  0  0
 25 14  1  0  0  0  0
 26 27  1  0  0  0  0
 28 26  1  0  0  0  0
 29 31  1  0  0  0  0
 29 26  1  0  0  0  0
 29 34  1  0  0  0  0
 30 29  1  0  0  0  0
 32 37  1  0  0  0  0
 33 34  1  0  0  0  0
 33 32  2  0  0  0  0
 34 35  2  0  0  0  0
 35 36  1  0  0  0  0
 36 39  1  0  0  0  0
 37 36  2  0  0  0  0
 38 33  1  0  0  0  0
 40 32  1  0  0  0  0
 40 42  1  0  0  0  0
 41 40  1  0  0  0  0
 41 42  1  0  0  0  0
 42 46  1  0  0  0  0
 42 47  1  0  0  0  0
 43 40  1  0  0  0  0
 44 41  1  0  0  0  0
 45 41  1  0  0  0  0
M  END
>  <minimizedAffinity>
-6.40472126

$$$$

 OpenBabel03242520233D

 47 51  0  0  0  0  0  0  0  0999 V2000
   38.8950   32.2970   40.2600 C   0  0  0  0  0  0  0  0  0  0  0  0
   38.9810   32.3150   38.9900 O   0  0  0  0  0  0  0  0  0  0  0  0
   38.8970   33.4290   41.0930 N   0  0  0  0  0  0  0  0  0  0  0  0
   38.9430   33.3880   42.1280 H   0  0  0  0  0  0  0  0  0  0  0  0
   38.7810   30.9790   40.9310 C   0  0  0  0  0  0  0  0  0  0  0  0
   39.3320   30.8320   42.1980 C   0  0  0  0  0  0  0  0  0  0  0  0
   39.3010   29.6720   42.9450 C   0  0  0  0  0  0  0  0  0  0  0  0
   38.6650   28.5800   42.3620 C   0  0  0  0  0  0  0  0  0  0  0  0
   38.1360   28.7800   41.1050 C   0  0  0  0  0  0  0  0  0  0  0  0
   38.1760   29.9090   40.3990 N   0  0  0  0  0  0  0  0  0  0  0  0
   39.8410   31.6670   42.6920 H   0  0  0  0  0  0  0  0  0  0  0  0
   39.7410   29.6050   43.9210 H   0  0  0  0  0  0  0  0  0  0  0  0
   38.5940   27.6300   42.8760 H   0  0  0  0  0  0  0  0  0  0  0  0
   37.4600   27.6990   40.4290 N   0  0  0  0  0  0  0  0  0  0  0  0
   36.6900   27.6410   39.3340 C   0  0  0  0  0  0  0  0  0  0  0  0
   36.4670   28.5320   38.7640 H   0  0  0  0  0  0  0  0  0  0  0  0
   36.3130   26.3680   39.1450 N   0  0  0  0  0  0  0  0  0  0  0  0
   36.8260   25.5610   40.1100 C   0  0  0  0  0  0  0  0  0  0  0  0
   36.7720   24.2140   40.4090 C   0  0  0  0  0  0  0  0  0  0  0  0
   36.1980   23.5610   39.7620 H   0  0  0  0  0  0  0  0  0  0  0  0
   37.4320   23.7210   41.4990 N   0  0  0  0  0  0  0  0  0  0  0  0
   38.1320   24.5820   42.2690 C   0  0  0  0  0  0  0  0  0  0  0  0
   38.6910   24.2750   43.1630 H   0  0  0  0  0  0  0  0  0  0  0  0
   38.1790   25.8820   41.9750 N   0  0  0  0  0  0  0  0  0  0  0  0
   37.5520   26.4330   40.9150 C   0  0  0  0  0  0  0  0  0  0  0  0
   38.8310   34.7190   40.4430 C   0  0  0  0  0  0  0  0  0  0  0  0
   38.9070   34.5120   39.3360 H   0  0  0  0  0  0  0  0  0  0  0  0
   37.8420   35.2040   40.5560 H   0  0  0  0  0  0  0  0  0  0  0  0
   39.9340   35.6610   40.8910 C   0  0  0  0  0  0  0  0  0  0  0  0
   39.8800   35.7790   41.9920 H   0  0  0  0  0  0  0  0  0  0  0  0
   39.8420   36.6080   40.3390 H   0  0  0  0  0  0  0  0  0  0  0  0
   43.5160   34.4530   41.1470 C   0  0  0  0  0  0  0  0  0  0  0  0
   42.2670   35.0300   41.5020 C   0  0  0  0  0  0  0  0  0  0  0  0
   41.2580   35.0770   40.5610 C   0  0  0  0  0  0  0  0  0  0  0  0
   41.5450   34.5530   39.3220 N   0  0  0  0  0  0  0  0  0  0  0  0
   42.7670   34.0110   39.0370 C   0  0  0  0  0  0  0  0  0  0  0  0
   43.7380   33.9640   39.9450 N   0  0  0  0  0  0  0  0  0  0  0  0
   42.1360   35.4180   42.5050 H   0  0  0  0  0  0  0  0  0  0  0  0
   42.9030   33.6220   38.0370 H   0  0  0  0  0  0  0  0  0  0  0  0
   44.6000   34.4210   42.1790 C   0  0  0  0  0  0  0  0  0  0  0  0
   45.5700   35.6550   42.0170 C   0  0  0  0  0  0  0  0  0  0  0  0
   44.7820   35.3530   43.2160 C   0  0  0  0  0  0  0  0  0  0  0  0
   45.1630   33.4420   42.1590 H   0  0  0  0  0  0  0  0  0  0  0  0
   46.6480   35.3960   42.0370 H   0  0  0  0  0  0  0  0  0  0  0  0
   45.2900   36.4210   41.2960 H   0  0  0  0  0  0  0  0  0  0  0  0
   45.2630   35.0530   44.1660 H   0  0  0  0  0  0  0  0  0  0  0  0
   43.9590   36.0970   43.4240 H   0  0  0  0  0  0  0  0  0  0  0  0
  1  5  1  0  0  0  0
  1  3  1  0  0  0  0
  2  1  2  0  0  0  0
  3  4  1  0  0  0  0
  5  6  1  0  0  0  0
  6 11  1  0  0  0  0
  6  7  2  0  0  0  0
  7 12  1  0  0  0  0
  8 13  1  0  0  0  0
  8  7  1  0  0  0  0
  9  8  2  0  0  0  0
 10  5  2  0  0  0  0
 10  9  1  0  0  0  0
 14 25  1  0  0  0  0
 14  9  1  0  0  0  0
 15 14  1  0  0  0  0
 16 15  1  0  0  0  0
 17 15  2  0  0  0  0
 17 18  1  0  0  0  0
 18 19  2  0  0  0  0
 18 25  1  0  0  0  0
 19 21  1  0  0  0  0
 20 19  1  0  0  0  0
 21 22  2  0  0  0  0
 22 23  1  0  0  0  0
 24 22  1  0  0  0  0
 25 24  2  0  0  0  0
 26 28  1  0  0  0  0
 26 29  1  0  0  0  0
 26  3  1  0  0  0  0
 27 26  1  0  0  0  0
 29 30  1  0  0  0  0
 31 29  1  0  0  0  0
 32 33  1  0  0  0  0
 32 40  1  0  0  0  0
 33 38  1  0  0  0  0
 34 29  1  0  0  0  0
 34 33  2  0  0  0  0
 35 34  1  0  0  0  0
 36 35  2  0  0  0  0
 36 37  1  0  0  0  0
 37 32  2  0  0  0  0
 39 36  1  0  0  0  0
 40 42  1  0  0  0  0
 41 44  1  0  0  0  0
 41 40  1  0  0  0  0
 41 42  1  0  0  0  0
 42 47  1  0  0  0  0
 42 46  1  0  0  0  0
 43 40  1  0  0  0  0
 45 41  1  0  0  0  0
M  END
>  <minimizedAffinity>
-6.36423254

$$$$

 OpenBabel03242520233D

 47 51  0  0  0  0  0  0  0  0999 V2000
   38.0040   33.1650   40.2460 C   0  0  0  0  0  0  0  0  0  0  0  0
   37.1850   33.7450   39.4630 O   0  0  0  0  0  0  0  0  0  0  0  0
   39.0950   33.7800   40.8850 N   0  0  0  0  0  0  0  0  0  0  0  0
   39.8160   33.2670   41.4240 H   0  0  0  0  0  0  0  0  0  0  0  0
   37.8050   31.7210   40.5160 C   0  0  0  0  0  0  0  0  0  0  0  0
   36.5080   31.2220   40.5260 C   0  0  0  0  0  0  0  0  0  0  0  0
   36.1680   29.9050   40.7570 C   0  0  0  0  0  0  0  0  0  0  0  0
   37.2230   29.0290   40.9980 C   0  0  0  0  0  0  0  0  0  0  0  0
   38.4880   29.5750   40.9780 C   0  0  0  0  0  0  0  0  0  0  0  0
   38.7960   30.8510   40.7520 N   0  0  0  0  0  0  0  0  0  0  0  0
   35.6510   31.8780   40.3400 H   0  0  0  0  0  0  0  0  0  0  0  0
   35.1510   29.5650   40.7550 H   0  0  0  0  0  0  0  0  0  0  0  0
   37.0480   27.9780   41.1900 H   0  0  0  0  0  0  0  0  0  0  0  0
   39.6370   28.7370   41.2190 N   0  0  0  0  0  0  0  0  0  0  0  0
   40.9550   28.9210   41.0660 C   0  0  0  0  0  0  0  0  0  0  0  0
   41.3460   29.8570   40.6920 H   0  0  0  0  0  0  0  0  0  0  0  0
   41.5890   27.8000   41.4440 N   0  0  0  0  0  0  0  0  0  0  0  0
   40.7030   26.8550   41.8530 C   0  0  0  0  0  0  0  0  0  0  0  0
   40.7810   25.5620   42.3300 C   0  0  0  0  0  0  0  0  0  0  0  0
   41.7590   25.1080   42.4380 H   0  0  0  0  0  0  0  0  0  0  0  0
   39.6470   24.8770   42.6580 N   0  0  0  0  0  0  0  0  0  0  0  0
   38.4560   25.4940   42.5030 C   0  0  0  0  0  0  0  0  0  0  0  0
   37.4940   25.0210   42.7400 H   0  0  0  0  0  0  0  0  0  0  0  0
   38.3870   26.7440   42.0400 N   0  0  0  0  0  0  0  0  0  0  0  0
   39.4680   27.4760   41.7000 C   0  0  0  0  0  0  0  0  0  0  0  0
   39.1950   35.2180   40.7680 C   0  0  0  0  0  0  0  0  0  0  0  0
   38.2230   35.5600   40.3080 H   0  0  0  0  0  0  0  0  0  0  0  0
   39.2190   35.7260   41.7510 H   0  0  0  0  0  0  0  0  0  0  0  0
   40.3750   35.6580   39.9190 C   0  0  0  0  0  0  0  0  0  0  0  0
   40.6530   36.6940   40.2000 H   0  0  0  0  0  0  0  0  0  0  0  0
   40.1140   35.5430   38.8570 H   0  0  0  0  0  0  0  0  0  0  0  0
   43.4830   34.1650   41.4870 C   0  0  0  0  0  0  0  0  0  0  0  0
   42.3820   35.0330   41.2580 C   0  0  0  0  0  0  0  0  0  0  0  0
   41.5430   34.7840   40.1900 C   0  0  0  0  0  0  0  0  0  0  0  0
   41.8440   33.6920   39.4110 N   0  0  0  0  0  0  0  0  0  0  0  0
   42.9190   32.8920   39.6800 C   0  0  0  0  0  0  0  0  0  0  0  0
   43.7270   33.1320   40.7100 N   0  0  0  0  0  0  0  0  0  0  0  0
   42.2260   35.8700   41.9280 H   0  0  0  0  0  0  0  0  0  0  0  0
   43.0800   32.0550   39.0130 H   0  0  0  0  0  0  0  0  0  0  0  0
   44.3870   34.4590   42.6440 C   0  0  0  0  0  0  0  0  0  0  0  0
   45.4110   35.6060   42.2840 C   0  0  0  0  0  0  0  0  0  0  0  0
   44.4320   35.6600   43.3750 C   0  0  0  0  0  0  0  0  0  0  0  0
   44.9140   33.5280   43.0060 H   0  0  0  0  0  0  0  0  0  0  0  0
   46.4620   35.3820   42.5540 H   0  0  0  0  0  0  0  0  0  0  0  0
   45.2740   36.1180   41.3330 H   0  0  0  0  0  0  0  0  0  0  0  0
   44.7450   35.6640   44.4350 H   0  0  0  0  0  0  0  0  0  0  0  0
   43.6110   36.4190   43.2170 H   0  0  0  0  0  0  0  0  0  0  0  0
  1  5  1  0  0  0  0
  1  3  1  0  0  0  0
  2  1  2  0  0  0  0
  3  4  1  0  0  0  0
  5  6  2  0  0  0  0
  5 10  1  0  0  0  0
  6  7  1  0  0  0  0
  7  8  2  0  0  0  0
  8 13  1  0  0  0  0
  9  8  1  0  0  0  0
  9 14  1  0  0  0  0
 10  9  2  0  0  0  0
 11  6  1  0  0  0  0
 12  7  1  0  0  0  0
 14 25  1  0  0  0  0
 15 14  1  0  0  0  0
 15 17  2  0  0  0  0
 16 15  1  0  0  0  0
 17 18  1  0  0  0  0
 18 19  1  0  0  0  0
 19 20  1  0  0  0  0
 19 21  2  0  0  0  0
 22 21  1  0  0  0  0
 22 23  1  0  0  0  0
 24 22  2  0  0  0  0
 25 18  2  0  0  0  0
 25 24  1  0  0  0  0
 26  3  1  0  0  0  0
 26 28  1  0  0  0  0
 27 26  1  0  0  0  0
 29 34  1  0  0  0  0
 29 30  1  0  0  0  0
 29 26  1  0  0  0  0
 31 29  1  0  0  0  0
 32 40  1  0  0  0  0
 33 32  1  0  0  0  0
 33 38  1  0  0  0  0
 34 33  2  0  0  0  0
 35 36  2  0  0  0  0
 35 34  1  0  0  0  0
 36 37  1  0  0  0  0
 37 32  2  0  0  0  0
 39 36  1  0  0  0  0
 40 43  1  0  0  0  0
 40 42  1  0  0  0  0
 41 44  1  0  0  0  0
 41 40  1  0  0  0  0
 41 42  1  0  0  0  0
 42 46  1  0  0  0  0
 45 41  1  0  0  0  0
 47 42  1  0  0  0  0
M  END
>  <minimizedAffinity>
-6.32139015

$$$$

 OpenBabel03242520233D

 47 51  0  0  0  0  0  0  0  0999 V2000
   36.8020   29.8220   41.6380 C   0  0  0  0  0  0  0  0  0  0  0  0
   35.7300   29.4140   41.0850 O   0  0  0  0  0  0  0  0  0  0  0  0
   37.3360   29.3310   42.8430 N   0  0  0  0  0  0  0  0  0  0  0  0
   38.1430   29.7540   43.3350 H   0  0  0  0  0  0  0  0  0  0  0  0
   37.5620   30.9050   40.9690 C   0  0  0  0  0  0  0  0  0  0  0  0
   36.8540   31.9050   40.3160 C   0  0  0  0  0  0  0  0  0  0  0  0
   37.4210   32.9750   39.6540 C   0  0  0  0  0  0  0  0  0  0  0  0
   38.8120   33.0330   39.6550 C   0  0  0  0  0  0  0  0  0  0  0  0
   39.4660   32.0170   40.3170 C   0  0  0  0  0  0  0  0  0  0  0  0
   38.8990   30.9910   40.9500 N   0  0  0  0  0  0  0  0  0  0  0  0
   35.7580   31.8960   40.2920 H   0  0  0  0  0  0  0  0  0  0  0  0
   36.8330   33.7250   39.1630 H   0  0  0  0  0  0  0  0  0  0  0  0
   39.3420   33.8370   39.1600 H   0  0  0  0  0  0  0  0  0  0  0  0
   40.9080   32.0010   40.3650 N   0  0  0  0  0  0  0  0  0  0  0  0
   41.7940   31.2910   41.0770 C   0  0  0  0  0  0  0  0  0  0  0  0
   41.4660   30.5500   41.7920 H   0  0  0  0  0  0  0  0  0  0  0  0
   43.0300   31.6800   40.7280 N   0  0  0  0  0  0  0  0  0  0  0  0
   42.9840   32.6520   39.7800 C   0  0  0  0  0  0  0  0  0  0  0  0
   43.9100   33.3970   39.0770 C   0  0  0  0  0  0  0  0  0  0  0  0
   44.9640   33.2270   39.2670 H   0  0  0  0  0  0  0  0  0  0  0  0
   43.5000   34.3250   38.1630 N   0  0  0  0  0  0  0  0  0  0  0  0
   42.1740   34.4930   37.9690 C   0  0  0  0  0  0  0  0  0  0  0  0
   41.7550   35.2150   37.2570 H   0  0  0  0  0  0  0  0  0  0  0  0
   41.2850   33.7700   38.6520 N   0  0  0  0  0  0  0  0  0  0  0  0
   41.6220   32.8380   39.5670 C   0  0  0  0  0  0  0  0  0  0  0  0
   36.7000   28.1630   43.4100 C   0  0  0  0  0  0  0  0  0  0  0  0
   36.7480   28.2960   44.5300 H   0  0  0  0  0  0  0  0  0  0  0  0
   35.6160   28.1180   43.1940 H   0  0  0  0  0  0  0  0  0  0  0  0
   37.3730   26.8660   42.9950 C   0  0  0  0  0  0  0  0  0  0  0  0
   36.9580   26.5420   42.0190 H   0  0  0  0  0  0  0  0  0  0  0  0
   37.2480   26.1250   43.7970 H   0  0  0  0  0  0  0  0  0  0  0  0
   41.0950   27.1340   43.6500 C   0  0  0  0  0  0  0  0  0  0  0  0
   39.7080   26.9180   43.8670 C   0  0  0  0  0  0  0  0  0  0  0  0
   38.8290   27.0910   42.8160 C   0  0  0  0  0  0  0  0  0  0  0  0
   39.3750   27.4680   41.6120 N   0  0  0  0  0  0  0  0  0  0  0  0
   40.7190   27.6620   41.4620 C   0  0  0  0  0  0  0  0  0  0  0  0
   41.5660   27.4950   42.4750 N   0  0  0  0  0  0  0  0  0  0  0  0
   39.3720   26.6220   44.8540 H   0  0  0  0  0  0  0  0  0  0  0  0
   41.0600   27.9580   40.4780 H   0  0  0  0  0  0  0  0  0  0  0  0
   42.0300   26.9530   44.8050 C   0  0  0  0  0  0  0  0  0  0  0  0
   43.3930   26.3120   44.3350 C   0  0  0  0  0  0  0  0  0  0  0  0
   43.2550   27.6170   44.9900 C   0  0  0  0  0  0  0  0  0  0  0  0
   41.5510   26.3550   45.6350 H   0  0  0  0  0  0  0  0  0  0  0  0
   43.7380   25.4630   44.9580 H   0  0  0  0  0  0  0  0  0  0  0  0
   43.5470   26.1950   43.2630 H   0  0  0  0  0  0  0  0  0  0  0  0
   43.6500   27.8000   46.0060 H   0  0  0  0  0  0  0  0  0  0  0  0
   43.5010   28.4930   44.3220 H   0  0  0  0  0  0  0  0  0  0  0  0
  1  3  1  0  0  0  0
  2  1  2  0  0  0  0
  3  4  1  0  0  0  0
  3 26  1  0  0  0  0
  5  1  1  0  0  0  0
  6  5  2  0  0  0  0
  7  8  2  0  0  0  0
  7  6  1  0  0  0  0
  8  9  1  0  0  0  0
  9 14  1  0  0  0  0
  9 10  2  0  0  0  0
 10  5  1  0  0  0  0
 11  6  1  0  0  0  0
 12  7  1  0  0  0  0
 13  8  1  0  0  0  0
 14 15  1  0  0  0  0
 15 16  1  0  0  0  0
 17 15  2  0  0  0  0
 18 17  1  0  0  0  0
 19 20  1  0  0  0  0
 19 18  2  0  0  0  0
 21 19  1  0  0  0  0
 22 21  2  0  0  0  0
 22 24  1  0  0  0  0
 23 22  1  0  0  0  0
 24 25  2  0  0  0  0
 25 18  1  0  0  0  0
 25 14  1  0  0  0  0
 26 27  1  0  0  0  0
 28 26  1  0  0  0  0
 29 26  1  0  0  0  0
 29 31  1  0  0  0  0
 30 29  1  0  0  0  0
 32 33  1  0  0  0  0
 32 40  1  0  0  0  0
 33 38  1  0  0  0  0
 34 29  1  0  0  0  0
 34 33  2  0  0  0  0
 35 34  1  0  0  0  0
 36 35  2  0  0  0  0
 36 37  1  0  0  0  0
 37 32  2  0  0  0  0
 39 36  1  0  0  0  0
 40 42  1  0  0  0  0
 40 43  1  0  0  0  0
 41 40  1  0  0  0  0
 41 44  1  0  0  0  0
 41 42  1  0  0  0  0
 42 46  1  0  0  0  0
 45 41  1  0  0  0  0
 47 42  1  0  0  0  0
M  END
>  <minimizedAffinity>
-6.31005192

$$$$

 OpenBabel03242520233D

 47 51  0  0  0  0  0  0  0  0999 V2000
   37.2630   31.0330   37.8590 C   0  0  0  0  0  0  0  0  0  0  0  0
   37.4230   31.1140   36.5980 O   0  0  0  0  0  0  0  0  0  0  0  0
   36.4230   30.1180   38.5160 N   0  0  0  0  0  0  0  0  0  0  0  0
   36.2180   30.1440   39.5320 H   0  0  0  0  0  0  0  0  0  0  0  0
   38.0210   31.9740   38.7190 C   0  0  0  0  0  0  0  0  0  0  0  0
   37.3620   33.0890   39.2210 C   0  0  0  0  0  0  0  0  0  0  0  0
   37.9330   34.0460   40.0340 C   0  0  0  0  0  0  0  0  0  0  0  0
   39.2730   33.8580   40.3620 C   0  0  0  0  0  0  0  0  0  0  0  0
   39.8780   32.7370   39.8380 C   0  0  0  0  0  0  0  0  0  0  0  0
   39.3090   31.8220   39.0540 N   0  0  0  0  0  0  0  0  0  0  0  0
   36.3080   33.2740   38.9860 H   0  0  0  0  0  0  0  0  0  0  0  0
   37.3840   34.8930   40.3980 H   0  0  0  0  0  0  0  0  0  0  0  0
   39.8010   34.5600   40.9950 H   0  0  0  0  0  0  0  0  0  0  0  0
   41.2650   32.4670   40.1290 N   0  0  0  0  0  0  0  0  0  0  0  0
   42.0490   31.3950   39.9470 C   0  0  0  0  0  0  0  0  0  0  0  0
   41.6600   30.4920   39.4960 H   0  0  0  0  0  0  0  0  0  0  0  0
   43.2770   31.6830   40.4030 N   0  0  0  0  0  0  0  0  0  0  0  0
   43.3290   32.9480   40.8950 C   0  0  0  0  0  0  0  0  0  0  0  0
   44.2940   33.7500   41.4710 C   0  0  0  0  0  0  0  0  0  0  0  0
   45.2920   33.3480   41.6020 H   0  0  0  0  0  0  0  0  0  0  0  0
   43.9910   35.0220   41.8640 N   0  0  0  0  0  0  0  0  0  0  0  0
   42.7300   35.4690   41.6760 C   0  0  0  0  0  0  0  0  0  0  0  0
   42.3970   36.4750   41.9620 H   0  0  0  0  0  0  0  0  0  0  0  0
   41.8030   34.6880   41.1200 N   0  0  0  0  0  0  0  0  0  0  0  0
   42.0360   33.4250   40.7080 C   0  0  0  0  0  0  0  0  0  0  0  0
   35.8170   29.0870   37.7030 C   0  0  0  0  0  0  0  0  0  0  0  0
   34.7860   29.4640   37.4410 H   0  0  0  0  0  0  0  0  0  0  0  0
   36.3140   28.9690   36.7220 H   0  0  0  0  0  0  0  0  0  0  0  0
   35.7340   27.7480   38.4160 C   0  0  0  0  0  0  0  0  0  0  0  0
   35.8270   26.9360   37.6660 H   0  0  0  0  0  0  0  0  0  0  0  0
   34.8020   27.7090   38.9970 H   0  0  0  0  0  0  0  0  0  0  0  0
   37.7440   27.2290   41.5850 C   0  0  0  0  0  0  0  0  0  0  0  0
   36.6340   27.3580   40.7070 C   0  0  0  0  0  0  0  0  0  0  0  0
   36.8630   27.6160   39.3700 C   0  0  0  0  0  0  0  0  0  0  0  0
   38.1760   27.7340   38.9800 N   0  0  0  0  0  0  0  0  0  0  0  0
   39.2040   27.6010   39.8710 C   0  0  0  0  0  0  0  0  0  0  0  0
   38.9840   27.3510   41.1590 N   0  0  0  0  0  0  0  0  0  0  0  0
   35.6340   27.2490   41.1090 H   0  0  0  0  0  0  0  0  0  0  0  0
   40.2050   27.7100   39.4760 H   0  0  0  0  0  0  0  0  0  0  0  0
   37.4740   26.9600   43.0320 C   0  0  0  0  0  0  0  0  0  0  0  0
   37.5030   28.2960   43.8710 C   0  0  0  0  0  0  0  0  0  0  0  0
   36.3520   27.3940   43.7590 C   0  0  0  0  0  0  0  0  0  0  0  0
   38.1860   26.1890   43.4510 H   0  0  0  0  0  0  0  0  0  0  0  0
   38.1050   28.2420   44.7990 H   0  0  0  0  0  0  0  0  0  0  0  0
   37.5840   29.2320   43.3190 H   0  0  0  0  0  0  0  0  0  0  0  0
   35.9830   26.8160   44.6260 H   0  0  0  0  0  0  0  0  0  0  0  0
   35.4790   27.8330   43.1940 H   0  0  0  0  0  0  0  0  0  0  0  0
  1  3  1  0  0  0  0
  1  5  1  0  0  0  0
  2  1  2  0  0  0  0
  3  4  1  0  0  0  0
  5 10  2  0  0  0  0
  5  6  1  0  0  0  0
  6  7  2  0  0  0  0
  7  8  1  0  0  0  0
  7 12  1  0  0  0  0
  8 13  1  0  0  0  0
  9 14  1  0  0  0  0
  9  8  2  0  0  0  0
 10  9  1  0  0  0  0
 11  6  1  0  0  0  0
 14 25  1  0  0  0  0
 15 14  1  0  0  0  0
 15 17  2  0  0  0  0
 16 15  1  0  0  0  0
 17 18  1  0  0  0  0
 18 19  1  0  0  0  0
 19 20  1  0  0  0  0
 19 21  2  0  0  0  0
 22 21  1  0  0  0  0
 22 23  1  0  0  0  0
 24 22  2  0  0  0  0
 25 18  2  0  0  0  0
 25 24  1  0  0  0  0
 26 29  1  0  0  0  0
 26  3  1  0  0  0  0
 27 26  1  0  0  0  0
 28 26  1  0  0  0  0
 29 31  1  0  0  0  0
 29 34  1  0  0  0  0
 30 29  1  0  0  0  0
 32 40  1  0  0  0  0
 33 38  1  0  0  0  0
 33 32  2  0  0  0  0
 34 33  1  0  0  0  0
 35 34  2  0  0  0  0
 35 36  1  0  0  0  0
 36 37  2  0  0  0  0
 37 32  1  0  0  0  0
 39 36  1  0  0  0  0
 40 43  1  0  0  0  0
 40 42  1  0  0  0  0
 40 41  1  0  0  0  0
 41 44  1  0  0  0  0
 42 41  1  0  0  0  0
 42 46  1  0  0  0  0
 45 41  1  0  0  0  0
 47 42  1  0  0  0  0
M  END
>  <minimizedAffinity>
-6.21871471

$$$$

 OpenBabel03242520233D

 47 51  0  0  0  0  0  0  0  0999 V2000
   36.9430   29.7900   41.7660 C   0  0  0  0  0  0  0  0  0  0  0  0
   35.8970   29.2610   41.2670 O   0  0  0  0  0  0  0  0  0  0  0  0
   37.4870   29.4860   43.0260 N   0  0  0  0  0  0  0  0  0  0  0  0
   38.2680   30.0090   43.4620 H   0  0  0  0  0  0  0  0  0  0  0  0
   37.6570   30.8110   40.9630 C   0  0  0  0  0  0  0  0  0  0  0  0
   36.9260   31.5770   40.0640 C   0  0  0  0  0  0  0  0  0  0  0  0
   37.4500   32.5640   39.2550 C   0  0  0  0  0  0  0  0  0  0  0  0
   38.8190   32.7910   39.3670 C   0  0  0  0  0  0  0  0  0  0  0  0
   39.4970   32.0050   40.2730 C   0  0  0  0  0  0  0  0  0  0  0  0
   38.9720   31.0550   41.0460 N   0  0  0  0  0  0  0  0  0  0  0  0
   35.8460   31.4300   39.9460 H   0  0  0  0  0  0  0  0  0  0  0  0
   36.8450   33.1310   38.5740 H   0  0  0  0  0  0  0  0  0  0  0  0
   39.3150   33.5460   38.7700 H   0  0  0  0  0  0  0  0  0  0  0  0
   40.9180   32.1740   40.4500 N   0  0  0  0  0  0  0  0  0  0  0  0
   41.7890   31.7250   41.3650 C   0  0  0  0  0  0  0  0  0  0  0  0
   41.4620   31.0970   42.1820 H   0  0  0  0  0  0  0  0  0  0  0  0
   43.0090   32.1890   41.0560 N   0  0  0  0  0  0  0  0  0  0  0  0
   42.9690   32.9520   39.9330 C   0  0  0  0  0  0  0  0  0  0  0  0
   43.8850   33.6590   39.1800 C   0  0  0  0  0  0  0  0  0  0  0  0
   44.9230   33.6580   39.4910 H   0  0  0  0  0  0  0  0  0  0  0  0
   43.4850   34.3410   38.0660 N   0  0  0  0  0  0  0  0  0  0  0  0
   42.1790   34.3060   37.7260 C   0  0  0  0  0  0  0  0  0  0  0  0
   41.7690   34.8250   36.8500 H   0  0  0  0  0  0  0  0  0  0  0  0
   41.2990   33.6220   38.4590 N   0  0  0  0  0  0  0  0  0  0  0  0
   41.6270   32.9270   39.5680 C   0  0  0  0  0  0  0  0  0  0  0  0
   36.9020   28.3720   43.7390 C   0  0  0  0  0  0  0  0  0  0  0  0
   36.6250   28.7680   44.7590 H   0  0  0  0  0  0  0  0  0  0  0  0
   35.9360   28.0480   43.3070 H   0  0  0  0  0  0  0  0  0  0  0  0
   37.8480   27.1900   43.8610 C   0  0  0  0  0  0  0  0  0  0  0  0
   37.3180   26.3580   44.3670 H   0  0  0  0  0  0  0  0  0  0  0  0
   38.7610   27.5140   44.3800 H   0  0  0  0  0  0  0  0  0  0  0  0
   37.8290   25.4770   40.4820 C   0  0  0  0  0  0  0  0  0  0  0  0
   37.4160   25.8940   41.7760 C   0  0  0  0  0  0  0  0  0  0  0  0
   38.2430   26.7210   42.5100 C   0  0  0  0  0  0  0  0  0  0  0  0
   39.4310   27.0860   41.9210 N   0  0  0  0  0  0  0  0  0  0  0  0
   39.7760   26.6520   40.6720 C   0  0  0  0  0  0  0  0  0  0  0  0
   38.9780   25.8560   39.9640 N   0  0  0  0  0  0  0  0  0  0  0  0
   36.4600   25.5540   42.1550 H   0  0  0  0  0  0  0  0  0  0  0  0
   40.7290   26.9890   40.2870 H   0  0  0  0  0  0  0  0  0  0  0  0
   36.9230   24.5720   39.7070 C   0  0  0  0  0  0  0  0  0  0  0  0
   37.2230   23.0570   40.0340 C   0  0  0  0  0  0  0  0  0  0  0  0
   35.9360   23.7280   40.2480 C   0  0  0  0  0  0  0  0  0  0  0  0
   36.9780   24.7790   38.5980 H   0  0  0  0  0  0  0  0  0  0  0  0
   37.3150   22.4060   39.1420 H   0  0  0  0  0  0  0  0  0  0  0  0
   37.9290   22.8490   40.8370 H   0  0  0  0  0  0  0  0  0  0  0  0
   35.0380   23.4610   39.6610 H   0  0  0  0  0  0  0  0  0  0  0  0
   35.6580   23.8500   41.3360 H   0  0  0  0  0  0  0  0  0  0  0  0
  1  3  1  0  0  0  0
  2  1  2  0  0  0  0
  3  4  1  0  0  0  0
  3 26  1  0  0  0  0
  5 10  1  0  0  0  0
  5  1  1  0  0  0  0
  6  5  2  0  0  0  0
  7  8  2  0  0  0  0
  7  6  1  0  0  0  0
  8  9  1  0  0  0  0
  9 14  1  0  0  0  0
  9 10  2  0  0  0  0
 11  6  1  0  0  0  0
 12  7  1  0  0  0  0
 13  8  1  0  0  0  0
 14 15  1  0  0  0  0
 15 16  1  0  0  0  0
 17 15  2  0  0  0  0
 18 17  1  0  0  0  0
 19 20  1  0  0  0  0
 19 18  2  0  0  0  0
 21 19  1  0  0  0  0
 22 21  2  0  0  0  0
 22 24  1  0  0  0  0
 23 22  1  0  0  0  0
 24 25  2  0  0  0  0
 25 18  1  0  0  0  0
 25 14  1  0  0  0  0
 26 29  1  0  0  0  0
 26 27  1  0  0  0  0
 28 26  1  0  0  0  0
 29 30  1  0  0  0  0
 29 31  1  0  0  0  0
 32 33  1  0  0  0  0
 33 38  1  0  0  0  0
 33 34  2  0  0  0  0
 34 29  1  0  0  0  0
 35 34  1  0  0  0  0
 36 35  2  0  0  0  0
 37 32  2  0  0  0  0
 37 36  1  0  0  0  0
 39 36  1  0  0  0  0
 40 41  1  0  0  0  0
 40 42  1  0  0  0  0
 40 32  1  0  0  0  0
 41 42  1  0  0  0  0
 41 45  1  0  0  0  0
 42 47  1  0  0  0  0
 43 40  1  0  0  0  0
 44 41  1  0  0  0  0
 46 42  1  0  0  0  0
M  END
>  <minimizedAffinity>
-6.17345524

$$$$

 OpenBabel03242520233D

 47 51  0  0  0  0  0  0  0  0999 V2000
   39.0520   27.4990   37.5200 C   0  0  0  0  0  0  0  0  0  0  0  0
   39.8060   26.4770   37.4190 O   0  0  0  0  0  0  0  0  0  0  0  0
   37.6470   27.4800   37.4970 N   0  0  0  0  0  0  0  0  0  0  0  0
   37.0560   28.3310   37.4630 H   0  0  0  0  0  0  0  0  0  0  0  0
   39.6960   28.8250   37.6780 C   0  0  0  0  0  0  0  0  0  0  0  0
   40.9650   29.0130   37.1460 C   0  0  0  0  0  0  0  0  0  0  0  0
   41.6850   30.1890   37.2100 C   0  0  0  0  0  0  0  0  0  0  0  0
   41.0710   31.2530   37.8640 C   0  0  0  0  0  0  0  0  0  0  0  0
   39.8130   31.0130   38.3730 C   0  0  0  0  0  0  0  0  0  0  0  0
   39.1330   29.8700   38.3000 N   0  0  0  0  0  0  0  0  0  0  0  0
   41.4830   28.2010   36.6230 H   0  0  0  0  0  0  0  0  0  0  0  0
   42.6640   30.2870   36.7840 H   0  0  0  0  0  0  0  0  0  0  0  0
   41.5620   32.2120   37.9620 H   0  0  0  0  0  0  0  0  0  0  0  0
   39.1060   32.0630   39.0660 N   0  0  0  0  0  0  0  0  0  0  0  0
   37.8370   32.1990   39.4750 C   0  0  0  0  0  0  0  0  0  0  0  0
   37.1100   31.4180   39.3010 H   0  0  0  0  0  0  0  0  0  0  0  0
   37.7090   33.3910   40.0780 N   0  0  0  0  0  0  0  0  0  0  0  0
   38.8890   34.0650   40.0780 C   0  0  0  0  0  0  0  0  0  0  0  0
   39.3330   35.2870   40.5400 C   0  0  0  0  0  0  0  0  0  0  0  0
   38.6290   35.9390   41.0420 H   0  0  0  0  0  0  0  0  0  0  0  0
   40.6350   35.6610   40.3640 N   0  0  0  0  0  0  0  0  0  0  0  0
   41.4680   34.8080   39.7310 C   0  0  0  0  0  0  0  0  0  0  0  0
   42.5280   35.0240   39.5450 H   0  0  0  0  0  0  0  0  0  0  0  0
   41.0320   33.6270   39.2870 N   0  0  0  0  0  0  0  0  0  0  0  0
   39.7610   33.1970   39.4280 C   0  0  0  0  0  0  0  0  0  0  0  0
   37.0100   26.1820   37.5190 C   0  0  0  0  0  0  0  0  0  0  0  0
   36.2240   26.2080   36.7100 H   0  0  0  0  0  0  0  0  0  0  0  0
   37.6900   25.3670   37.2040 H   0  0  0  0  0  0  0  0  0  0  0  0
   36.3860   25.8560   38.8650 C   0  0  0  0  0  0  0  0  0  0  0  0
   37.0400   25.1380   39.3990 H   0  0  0  0  0  0  0  0  0  0  0  0
   35.3630   25.4870   38.7040 H   0  0  0  0  0  0  0  0  0  0  0  0
   36.9110   28.4140   41.6090 C   0  0  0  0  0  0  0  0  0  0  0  0
   37.0190   27.2140   40.8560 C   0  0  0  0  0  0  0  0  0  0  0  0
   36.2950   27.0870   39.6880 C   0  0  0  0  0  0  0  0  0  0  0  0
   35.5040   28.1540   39.3340 N   0  0  0  0  0  0  0  0  0  0  0  0
   35.4380   29.2850   40.0990 C   0  0  0  0  0  0  0  0  0  0  0  0
   36.1370   29.4070   41.2250 N   0  0  0  0  0  0  0  0  0  0  0  0
   37.6710   26.4270   41.2170 H   0  0  0  0  0  0  0  0  0  0  0  0
   34.7890   30.0740   39.7440 H   0  0  0  0  0  0  0  0  0  0  0  0
   37.6960   28.5280   42.8790 C   0  0  0  0  0  0  0  0  0  0  0  0
   36.9180   27.8720   44.0850 C   0  0  0  0  0  0  0  0  0  0  0  0
   38.2430   27.4590   43.6110 C   0  0  0  0  0  0  0  0  0  0  0  0
   37.9790   29.5990   43.0970 H   0  0  0  0  0  0  0  0  0  0  0  0
   36.8760   28.4990   44.9980 H   0  0  0  0  0  0  0  0  0  0  0  0
   36.0040   27.3260   43.8540 H   0  0  0  0  0  0  0  0  0  0  0  0
   39.1500   27.6030   44.2270 H   0  0  0  0  0  0  0  0  0  0  0  0
   38.2620   26.4340   43.1380 H   0  0  0  0  0  0  0  0  0  0  0  0
  1  5  1  0  0  0  0
  2  1  2  0  0  0  0
  3 26  1  0  0  0  0
  3  1  1  0  0  0  0
  4  3  1  0  0  0  0
  5 10  1  0  0  0  0
  6  7  1  0  0  0  0
  6  5  2  0  0  0  0
  7  8  2  0  0  0  0
  8 13  1  0  0  0  0
  8  9  1  0  0  0  0
  9 14  1  0  0  0  0
 10  9  2  0  0  0  0
 11  6  1  0  0  0  0
 12  7  1  0  0  0  0
 14 25  1  0  0  0  0
 14 15  1  0  0  0  0
 15 17  2  0  0  0  0
 16 15  1  0  0  0  0
 18 17  1  0  0  0  0
 18 19  1  0  0  0  0
 19 20  1  0  0  0  0
 21 19  2  0  0  0  0
 22 21  1  0  0  0  0
 23 22  1  0  0  0  0
 24 25  1  0  0  0  0
 24 22  2  0  0  0  0
 25 18  2  0  0  0  0
 26 29  1  0  0  0  0
 27 26  1  0  0  0  0
 28 26  1  0  0  0  0
 29 30  1  0  0  0  0
 29 34  1  0  0  0  0
 31 29  1  0  0  0  0
 32 40  1  0  0  0  0
 33 38  1  0  0  0  0
 33 32  2  0  0  0  0
 34 33  1  0  0  0  0
 35 34  2  0  0  0  0
 35 36  1  0  0  0  0
 36 37  2  0  0  0  0
 37 32  1  0  0  0  0
 39 36  1  0  0  0  0
 40 43  1  0  0  0  0
 40 42  1  0  0  0  0
 40 41  1  0  0  0  0
 41 44  1  0  0  0  0
 42 41  1  0  0  0  0
 42 46  1  0  0  0  0
 45 41  1  0  0  0  0
 47 42  1  0  0  0  0
M  END
>  <minimizedAffinity>
-6.04952621

$$$$
