
 OpenBabel03252502013D

 37 41  0  0  0  0  0  0  0  0999 V2000
   47.1430   32.3460   47.9480 C   0  0  0  0  0  0  0  0  0  0  0  0
   46.6410   31.0650   48.0270 C   0  0  0  0  0  0  0  0  0  0  0  0
   45.8460   30.6670   46.9930 C   0  0  0  0  0  0  0  0  0  0  0  0
   45.5860   31.4970   45.9720 N   0  0  0  0  0  0  0  0  0  0  0  0
   46.0760   32.7370   45.9040 C   0  0  0  0  0  0  0  0  0  0  0  0
   46.8500   33.1240   46.9090 N   0  0  0  0  0  0  0  0  0  0  0  0
   47.7840   32.6640   48.7820 H   0  0  0  0  0  0  0  0  0  0  0  0
   45.2780   29.3930   46.9590 N   0  0  0  0  0  0  0  0  0  0  0  0
   45.2590   28.4190   47.8870 C   0  0  0  0  0  0  0  0  0  0  0  0
   45.7140   28.4850   48.8670 H   0  0  0  0  0  0  0  0  0  0  0  0
   44.5910   27.3480   47.4180 N   0  0  0  0  0  0  0  0  0  0  0  0
   44.1670   27.6200   46.1700 C   0  0  0  0  0  0  0  0  0  0  0  0
   43.4470   26.8780   45.2540 C   0  0  0  0  0  0  0  0  0  0  0  0
   43.1290   25.8740   45.5240 H   0  0  0  0  0  0  0  0  0  0  0  0
   43.1870   27.4640   44.0720 N   0  0  0  0  0  0  0  0  0  0  0  0
   43.6010   28.7160   43.7740 C   0  0  0  0  0  0  0  0  0  0  0  0
   43.3580   29.1360   42.7940 H   0  0  0  0  0  0  0  0  0  0  0  0
   44.2970   29.4120   44.6790 N   0  0  0  0  0  0  0  0  0  0  0  0
   44.5940   28.8810   45.8940 C   0  0  0  0  0  0  0  0  0  0  0  0
   45.9240   33.7980   44.8990 C   0  0  0  0  0  0  0  0  0  0  0  0
   44.9700   34.7550   44.9590 N   0  0  0  0  0  0  0  0  0  0  0  0
   44.7990   35.7300   44.0710 C   0  0  0  0  0  0  0  0  0  0  0  0
   45.6220   35.8110   43.0050 N   0  0  0  0  0  0  0  0  0  0  0  0
   46.6140   34.9150   42.8300 C   0  0  0  0  0  0  0  0  0  0  0  0
   47.4550   35.0020   41.7340 C   0  0  0  0  0  0  0  0  0  0  0  0
   48.4660   34.0960   41.5530 C   0  0  0  0  0  0  0  0  0  0  0  0
   48.6080   33.1040   42.4940 C   0  0  0  0  0  0  0  0  0  0  0  0
   47.7550   33.0490   43.5650 C   0  0  0  0  0  0  0  0  0  0  0  0
   46.7290   33.9300   43.7940 C   0  0  0  0  0  0  0  0  0  0  0  0
   44.0000   36.4450   44.2200 H   0  0  0  0  0  0  0  0  0  0  0  0
   47.3200   35.7950   41.0080 H   0  0  0  0  0  0  0  0  0  0  0  0
   49.1490   34.1190   40.7170 H   0  0  0  0  0  0  0  0  0  0  0  0
   49.3890   32.3620   42.3990 H   0  0  0  0  0  0  0  0  0  0  0  0
   47.9100   32.2410   44.2870 H   0  0  0  0  0  0  0  0  0  0  0  0
   46.9490   30.2390   49.1230 N   0  0  0  0  0  0  0  0  0  0  0  0
   46.3280   30.1590   49.9560 H   0  0  0  0  0  0  0  0  0  0  0  0
   47.7930   29.6220   49.2570 H   0  0  0  0  0  0  0  0  0  0  0  0
  1  2  1  0  0  0  0
  1  7  1  0  0  0  0
  2 35  1  0  0  0  0
  3  2  2  0  0  0  0
  4  3  1  0  0  0  0
  5  4  2  0  0  0  0
  5  6  1  0  0  0  0
  6  1  2  0  0  0  0
  8  3  1  0  0  0  0
  8  9  1  0  0  0  0
  9 10  1  0  0  0  0
 11  9  2  0  0  0  0
 12 11  1  0  0  0  0
 13 14  1  0  0  0  0
 13 12  2  0  0  0  0
 15 13  1  0  0  0  0
 16 15  2  0  0  0  0
 16 18  1  0  0  0  0
 17 16  1  0  0  0  0
 18 19  2  0  0  0  0
 19 12  1  0  0  0  0
 19  8  1  0  0  0  0
 20 21  1  0  0  0  0
 20  5  1  0  0  0  0
 22 30  1  0  0  0  0
 22 21  2  0  0  0  0
 23 22  1  0  0  0  0
 24 23  2  0  0  0  0
 24 29  1  0  0  0  0
 25 24  1  0  0  0  0
 26 25  2  0  0  0  0
 26 27  1  0  0  0  0
 27 28  2  0  0  0  0
 28 29  1  0  0  0  0
 28 34  1  0  0  0  0
 29 20  2  0  0  0  0
 31 25  1  0  0  0  0
 32 26  1  0  0  0  0
 33 27  1  0  0  0  0
 35 37  1  0  0  0  0
 35 36  1  0  0  0  0
M  END
>  <minimizedAffinity>
-6.68986559

>  <minimizedRMSD>
0.718183577

$$$$
