
 OpenBabel03252501503D

 48 52  0  0  1  0  0  0  0  0999 V2000
   47.9530   34.9850   42.3240 C   0  0  0  0  0  0  0  0  0  0  0  0
   47.8980   34.4290   43.2850 H   0  0  0  0  0  0  0  0  0  0  0  0
   48.0280   36.0490   42.5590 H   0  0  0  0  0  0  0  0  0  0  0  0
   49.0760   34.4680   41.5870 N   0  0  0  0  0  0  0  0  0  0  0  0
   50.1370   34.1110   42.4630 C   0  0  0  0  0  0  0  0  0  0  0  0
   50.8230   32.8990   41.9050 C   0  0  0  0  0  0  0  0  0  0  0  0
   49.7960   32.3140   40.9940 C   0  0  0  0  0  0  0  0  0  0  0  0
   48.6940   33.3090   40.8520 C   0  0  2  0  0  0  0  0  0  0  0  0
   49.7320   33.8090   43.4680 H   0  0  0  0  0  0  0  0  0  0  0  0
   50.8300   34.9720   42.6290 H   0  0  0  0  0  0  0  0  0  0  0  0
   51.7470   33.2490   41.3920 H   0  0  0  0  0  0  0  0  0  0  0  0
   51.1340   32.1760   42.6840 H   0  0  0  0  0  0  0  0  0  0  0  0
   49.4570   31.2880   41.2700 H   0  0  0  0  0  0  0  0  0  0  0  0
   50.2750   32.1920   39.9840 H   0  0  0  0  0  0  0  0  0  0  0  0
   47.8110   32.8610   41.3540 H   0  0  0  0  0  0  0  0  0  0  0  0
   48.3220   33.5510   39.4780 N   0  0  0  0  0  0  0  0  0  0  0  0
   48.7680   34.6050   38.7610 C   0  0  0  0  0  0  0  0  0  0  0  0
   49.4460   35.4090   39.0710 H   0  0  0  0  0  0  0  0  0  0  0  0
   48.2370   34.5400   37.5250 N   0  0  0  0  0  0  0  0  0  0  0  0
   47.4700   33.4630   37.4660 C   0  0  0  0  0  0  0  0  0  0  0  0
   46.6630   32.8290   36.5290 C   0  0  0  0  0  0  0  0  0  0  0  0
   46.5820   33.2770   35.5350 H   0  0  0  0  0  0  0  0  0  0  0  0
   45.9680   31.7050   36.7320 N   0  0  0  0  0  0  0  0  0  0  0  0
   46.0340   31.1160   37.9370 C   0  0  0  0  0  0  0  0  0  0  0  0
   45.5570   30.2170   38.3050 H   0  0  0  0  0  0  0  0  0  0  0  0
   46.8020   31.6650   38.9230 N   0  0  0  0  0  0  0  0  0  0  0  0
   47.4960   32.8100   38.6810 C   0  0  0  0  0  0  0  0  0  0  0  0
   45.4930   34.9230   42.2650 C   0  0  0  0  0  3  0  0  0  0  0  0
   46.6490   34.7110   41.6130 C   0  0  0  0  0  3  0  0  0  0  0  0
   43.8480   33.4260   41.0030 C   0  0  0  0  0  0  0  0  0  0  0  0
   44.1970   34.6630   41.5890 C   0  0  0  0  0  0  0  0  0  0  0  0
   43.2690   35.7290   41.5370 C   0  0  0  0  0  0  0  0  0  0  0  0
   42.0830   35.5030   40.9200 N   0  0  0  0  0  0  0  0  0  0  0  0
   41.7920   34.3250   40.3800 C   0  0  0  0  0  0  0  0  0  0  0  0
   42.6740   33.3170   40.4320 N   0  0  0  0  0  0  0  0  0  0  0  0
   44.6080   32.6690   41.0860 H   0  0  0  0  0  0  0  0  0  0  0  0
   43.4690   36.6850   41.9570 H   0  0  0  0  0  0  0  0  0  0  0  0
   39.5370   33.5250   41.7670 F   0  0  0  0  0  0  0  0  0  0  0  0
   39.3890   33.7320   40.4440 C   0  0  0  0  0  0  0  0  0  0  0  0
   40.4970   34.1330   39.7250 C   0  0  0  0  0  0  0  0  0  0  0  0
   40.4410   34.3710   38.3490 C   0  0  0  0  0  0  0  0  0  0  0  0
   39.2140   34.1900   37.7180 C   0  0  0  0  0  0  0  0  0  0  0  0
   38.0730   33.7810   38.4400 C   0  0  0  0  0  0  0  0  0  0  0  0
   38.1780   33.5550   39.8050 C   0  0  0  0  0  0  0  0  0  0  0  0
   41.2960   34.6840   37.7700 H   0  0  0  0  0  0  0  0  0  0  0  0
   39.1020   34.3570   36.6590 H   0  0  0  0  0  0  0  0  0  0  0  0
   37.1270   33.6460   37.9310 H   0  0  0  0  0  0  0  0  0  0  0  0
   37.3220   33.2460   40.3620 H   0  0  0  0  0  0  0  0  0  0  0  0
  1  3  1  0  0  0  0
  1  2  1  0  0  0  0
  4  1  1  0  0  0  0
  4  5  1  0  0  0  0
  5 10  1  0  0  0  0
  5  9  1  0  0  0  0
  6  5  1  0  0  0  0
  6 12  1  0  0  0  0
  7 13  1  0  0  0  0
  7  6  1  0  0  0  0
  8  7  1  0  0  0  0
  8 15  1  1  0  0  0
  8  4  1  0  0  0  0
 11  6  1  0  0  0  0
 14  7  1  0  0  0  0
 16  8  1  0  0  0  0
 17 18  1  0  0  0  0
 17 16  1  0  0  0  0
 19 17  2  0  0  0  0
 20 19  1  0  0  0  0
 20 27  1  0  0  0  0
 21 23  1  0  0  0  0
 21 20  2  0  0  0  0
 22 21  1  0  0  0  0
 23 24  2  0  0  0  0
 24 25  1  0  0  0  0
 24 26  1  0  0  0  0
 27 26  2  0  0  0  0
 27 16  1  0  0  0  0
 29 28  2  0  0  0  0
 29  1  1  0  0  0  0
 30 36  1  0  0  0  0
 30 31  1  0  0  0  0
 31 28  1  0  0  0  0
 32 31  2  0  0  0  0
 32 37  1  0  0  0  0
 33 32  1  0  0  0  0
 34 35  1  0  0  0  0
 34 33  2  0  0  0  0
 35 30  2  0  0  0  0
 39 38  1  0  0  0  0
 40 34  1  0  0  0  0
 40 39  2  0  0  0  0
 41 40  1  0  0  0  0
 42 41  2  0  0  0  0
 42 43  1  0  0  0  0
 43 44  2  0  0  0  0
 44 48  1  0  0  0  0
 44 39  1  0  0  0  0
 45 41  1  0  0  0  0
 46 42  1  0  0  0  0
 47 43  1  0  0  0  0
M  END
>  <minimizedAffinity>
-6.7114296

>  <minimizedRMSD>
0.850022256

$$$$
