
 OpenBabel03252507463D

 40 43  0  0  0  0  0  0  0  0999 V2000
   48.5210   33.8720   41.2530 C   0  0  0  0  0  0  0  0  0  0  0  0
   48.8880   32.6020   40.8500 C   0  0  0  0  0  0  0  0  0  0  0  0
   50.1040   32.0250   41.1970 C   0  0  0  0  0  0  0  0  0  0  0  0
   50.9280   32.8130   41.9800 N   0  0  0  0  0  0  0  0  0  0  0  0
   50.5430   34.0450   42.3580 C   0  0  0  0  0  0  0  0  0  0  0  0
   49.3670   34.5540   41.9990 N   0  0  0  0  0  0  0  0  0  0  0  0
   50.3420   31.0400   40.8590 H   0  0  0  0  0  0  0  0  0  0  0  0
   51.2810   34.5550   42.9680 H   0  0  0  0  0  0  0  0  0  0  0  0
   47.2020   34.3420   40.8050 C   0  0  0  0  0  0  0  0  0  0  0  0
   47.2600   35.0930   39.9730 H   0  0  0  0  0  0  0  0  0  0  0  0
   46.5740   33.5160   40.4130 H   0  0  0  0  0  0  0  0  0  0  0  0
   46.3970   34.9580   41.9230 C   0  0  0  0  0  0  0  0  0  0  0  0
   46.6840   36.0280   41.9920 H   0  0  0  0  0  0  0  0  0  0  0  0
   46.6820   34.5290   42.9240 H   0  0  0  0  0  0  0  0  0  0  0  0
   44.9320   34.9250   41.7020 C   0  0  0  0  0  0  0  0  0  0  0  0
   44.0610   35.4550   42.6930 C   0  0  0  0  0  0  0  0  0  0  0  0
   42.3950   35.1910   41.9740 S   0  0  0  0  0  0  0  0  0  0  0  0
   43.1740   34.3920   40.4250 C   0  0  0  0  0  0  0  0  0  0  0  0
   44.2850   34.4530   40.6690 N   0  0  0  0  0  0  0  0  0  0  0  0
   44.3300   35.9040   43.6410 H   0  0  0  0  0  0  0  0  0  0  0  0
   42.4150   33.9150   39.3690 O   0  0  0  0  0  0  0  0  0  0  0  0
   40.4590   34.3260   37.6280 O   0  0  0  0  0  0  0  0  0  0  0  0
   41.5260   35.0260   38.4500 P   0  0  0  0  0  0  0  0  0  0  0  0
   40.7770   36.1010   39.5260 O   0  0  0  0  0  0  0  0  0  0  0  0
   40.4290   35.5480   40.2730 H   0  0  0  0  0  0  0  0  0  0  0  0
   42.5900   35.9150   37.4590 O   0  0  0  0  0  0  0  0  0  0  0  0
   42.8950   35.3240   36.7060 H   0  0  0  0  0  0  0  0  0  0  0  0
   47.7760   31.6200   39.8000 S   0  0  0  0  0  0  0  0  0  0  0  0
   47.0950   33.3570   37.2920 H   0  0  0  0  0  0  0  0  0  0  0  0
   47.8360   32.6390   37.1400 N   0  0  0  0  0  0  0  0  0  0  0  0
   48.2710   31.7940   38.0930 C   0  0  0  0  0  0  0  0  0  0  0  0
   49.2280   30.9940   37.5890 N   0  0  0  0  0  0  0  0  0  0  0  0
   49.4360   31.3010   36.2950 C   0  0  0  0  0  0  0  0  0  0  0  0
   50.2720   30.8280   35.3010 C   0  0  0  0  0  0  0  0  0  0  0  0
   50.9360   30.0050   35.6050 H   0  0  0  0  0  0  0  0  0  0  0  0
   50.2350   31.3750   34.0550 N   0  0  0  0  0  0  0  0  0  0  0  0
   49.3560   32.3850   33.8430 C   0  0  0  0  0  0  0  0  0  0  0  0
   49.3930   32.7640   32.8190 H   0  0  0  0  0  0  0  0  0  0  0  0
   48.5150   32.8840   34.7890 N   0  0  0  0  0  0  0  0  0  0  0  0
   48.5530   32.3370   36.0350 C   0  0  0  0  0  0  0  0  0  0  0  0
  1  6  1  0  0  0  0
  2  3  1  0  0  0  0
  2  1  2  0  0  0  0
  3  4  2  0  0  0  0
  4  5  1  0  0  0  0
  5  8  1  0  0  0  0
  6  5  2  0  0  0  0
  7  3  1  0  0  0  0
  9  1  1  0  0  0  0
  9 12  1  0  0  0  0
 10  9  1  0  0  0  0
 11  9  1  0  0  0  0
 12 13  1  0  0  0  0
 12 14  1  0  0  0  0
 15 12  1  0  0  0  0
 15 16  2  0  0  0  0
 16 20  1  0  0  0  0
 17 16  1  0  0  0  0
 18 19  2  0  0  0  0
 18 17  1  0  0  0  0
 19 15  1  0  0  0  0
 21 18  1  0  0  0  0
 22 23  2  0  0  0  0
 23 21  1  0  0  0  0
 23 24  1  0  0  0  0
 24 25  1  0  0  0  0
 26 23  1  0  0  0  0
 27 26  1  0  0  0  0
 28  2  1  0  0  0  0
 30 29  1  0  0  0  0
 30 31  1  0  0  0  0
 31 28  1  0  0  0  0
 32 31  2  0  0  0  0
 33 32  1  0  0  0  0
 34 35  1  0  0  0  0
 34 33  2  0  0  0  0
 36 34  1  0  0  0  0
 37 36  2  0  0  0  0
 37 39  1  0  0  0  0
 38 37  1  0  0  0  0
 39 40  2  0  0  0  0
 40 33  1  0  0  0  0
 40 30  1  0  0  0  0
M  END
>  <minimizedAffinity>
-5.26752949

>  <minimizedRMSD>
2.87124467

$$$$
