
     RDKit          3D

 36 38  0  0  0  0  0  0  0  0999 V2000
   43.3648   35.4364   41.7042 C   0  0  0  0  0  0  0  0  0  0  0  0
   43.2346   35.5348   43.1447 N   0  0  0  0  0  0  0  0  0  0  0  0
   44.7236   35.8349   43.9358 S   0  0  0  0  0  0  0  0  0  0  0  0
   45.8749   35.2533   43.1810 O   0  0  0  0  0  0  0  0  0  0  0  0
   44.8560   37.3367   44.0233 O   0  0  0  0  0  0  0  0  0  0  0  0
   44.6650   35.2512   45.5047 O   0  0  0  0  0  0  0  0  0  0  0  0
   45.3973   34.0937   45.6692 C   0  0  0  0  0  0  0  0  0  0  0  0
   42.8006   33.7849   41.2553 S   0  0  0  0  0  0  0  0  0  0  0  0
   40.1260   33.1010   41.3213 C   0  0  0  0  0  0  0  0  0  0  0  0
   41.0849   33.8754   40.6864 C   0  0  0  0  0  0  0  0  0  0  0  0
   40.7557   34.7237   39.6176 C   0  0  0  0  0  0  0  0  0  0  0  0
   39.4491   34.7245   39.2630 N   0  0  0  0  0  0  0  0  0  0  0  0
   38.5392   33.9753   39.8821 C   0  0  0  0  0  0  0  0  0  0  0  0
   38.8402   33.1703   40.8933 N   0  0  0  0  0  0  0  0  0  0  0  0
   44.4255   35.5467   41.3842 H   0  0  0  0  0  0  0  0  0  0  0  0
   42.7506   36.1628   41.1651 H   0  0  0  0  0  0  0  0  0  0  0  0
   42.4913   36.1841   43.4634 H   0  0  0  0  0  0  0  0  0  0  0  0
   46.4556   35.7891   42.5695 H   0  0  0  0  0  0  0  0  0  0  0  0
   44.4050   37.8765   44.7091 H   0  0  0  0  0  0  0  0  0  0  0  0
   46.1889   34.0204   44.8792 H   0  0  0  0  0  0  0  0  0  0  0  0
   45.9808   34.2451   46.6236 H   0  0  0  0  0  0  0  0  0  0  0  0
   44.7973   33.1733   45.7385 H   0  0  0  0  0  0  0  0  0  0  0  0
   40.4151   32.4458   42.1564 H   0  0  0  0  0  0  0  0  0  0  0  0
   41.5331   35.3095   39.1513 H   0  0  0  0  0  0  0  0  0  0  0  0
   37.1888   34.0696   39.4077 N   0  0  0  0  0  0  0  0  0  0  0  0
   36.5268   33.4418   38.4190 C   0  0  0  0  0  0  0  0  0  0  0  0
   37.0294   32.7046   37.8079 H   0  0  0  0  0  0  0  0  0  0  0  0
   35.2518   33.9010   38.3865 N   0  0  0  0  0  0  0  0  0  0  0  0
   35.1336   34.8301   39.3781 C   0  0  0  0  0  0  0  0  0  0  0  0
   34.0225   35.5889   39.7520 C   0  0  0  0  0  0  0  0  0  0  0  0
   33.0697   35.5040   39.2475 H   0  0  0  0  0  0  0  0  0  0  0  0
   34.1758   36.4566   40.7914 N   0  0  0  0  0  0  0  0  0  0  0  0
   35.3705   36.5642   41.4255 C   0  0  0  0  0  0  0  0  0  0  0  0
   35.5860   37.2154   42.2486 H   0  0  0  0  0  0  0  0  0  0  0  0
   36.4587   35.8261   41.0649 N   0  0  0  0  0  0  0  0  0  0  0  0
   36.3592   34.9477   40.0365 C   0  0  0  0  0  0  0  0  0  0  0  0
  1  2  1  0
  2  3  1  0
  3  5  1  0
  3  6  1  0
  4  3  1  0
  6  7  1  0
  8  1  1  0
 10  8  1  0
 10  9  2  0
 11 10  1  0
 12 11  2  0
 12 13  1  0
 13 14  2  0
 14  9  1  0
  1 15  1  0
  1 16  1  0
  2 17  1  0
  4 18  1  0
  5 19  1  0
  7 20  1  0
  7 21  1  0
  7 22  1  0
  9 23  1  0
 11 24  1  0
 25 26  1  0
 26 27  1  0
 26 28  2  0
 28 29  1  0
 29 30  2  0
 30 31  1  0
 30 32  1  0
 32 33  2  0
 33 34  1  0
 33 35  1  0
 35 36  2  0
 36 25  1  0
 36 29  1  0
 13 25  1  0
M  ISO  8  15   8  16   8  17   5  18   3  19   3  20   8  21   8  22   8
M  ISO  5  23  14  24  14  27  15  31  16  34  16
M  END
>  <DihAtoms>  (1) 
11,12,24,25

>  <DihDeg>  (1) 
-49.24159062481162

$$$$
