
 OpenBabel03252505033D

 37 40  0  0  1  0  0  0  0  0999 V2000
   44.5360   35.5800   44.5570 C   0  0  0  0  0  0  0  0  0  0  0  0
   45.2560   35.7060   43.3550 C   0  0  0  0  0  0  0  0  0  0  0  0
   46.3930   34.8770   43.2050 C   0  0  0  0  0  0  0  0  0  0  0  0
   46.7160   34.0250   44.2100 N   0  0  0  0  0  0  0  0  0  0  0  0
   45.9980   33.9420   45.3350 C   0  0  0  0  0  0  0  0  0  0  0  0
   44.8890   34.7270   45.5220 N   0  0  0  0  0  0  0  0  0  0  0  0
   43.6680   36.2310   44.6420 H   0  0  0  0  0  0  0  0  0  0  0  0
   45.0020   36.3780   42.5610 H   0  0  0  0  0  0  0  0  0  0  0  0
   46.4250   32.9870   46.3890 C   0  0  2  0  0  0  0  0  0  0  0  0
   46.9320   31.7800   45.6700 C   0  0  0  0  0  0  0  0  0  0  0  0
   46.0510   30.5980   45.6880 C   0  0  0  0  0  0  0  0  0  0  0  0
   45.7620   30.3060   47.1460 C   0  0  0  0  0  0  0  0  0  0  0  0
   44.9840   31.3770   47.7840 C   0  0  0  0  0  0  0  0  0  0  0  0
   45.3620   32.7680   47.3590 C   0  0  0  0  0  0  0  0  0  0  0  0
   47.2650   33.5080   46.9120 H   0  0  0  0  0  0  0  0  0  0  0  0
   47.1960   31.9890   44.6080 H   0  0  0  0  0  0  0  0  0  0  0  0
   47.9200   31.5050   46.1330 H   0  0  0  0  0  0  0  0  0  0  0  0
   45.1540   30.7240   45.0770 H   0  0  0  0  0  0  0  0  0  0  0  0
   46.6160   29.7290   45.3040 H   0  0  0  0  0  0  0  0  0  0  0  0
   46.6720   30.0000   47.6520 H   0  0  0  0  0  0  0  0  0  0  0  0
   45.0650   29.4360   47.1230 H   0  0  0  0  0  0  0  0  0  0  0  0
   44.2020   31.4460   48.4830 H   0  0  0  0  0  0  0  0  0  0  0  0
   44.6830   33.8940   47.9000 N   0  0  0  0  0  0  0  0  0  0  0  0
   45.0800   34.5260   48.6310 H   0  0  0  0  0  0  0  0  0  0  0  0
   43.7340   34.0240   47.4820 H   0  0  0  0  0  0  0  0  0  0  0  0
   47.2090   34.9010   42.0440 N   0  0  0  0  0  0  0  0  0  0  0  0
   48.3860   35.4800   41.7100 C   0  0  0  0  0  0  0  0  0  0  0  0
   48.8880   36.0880   42.4540 H   0  0  0  0  0  0  0  0  0  0  0  0
   48.7130   35.1650   40.4480 N   0  0  0  0  0  0  0  0  0  0  0  0
   47.7420   34.3720   39.9470 C   0  0  0  0  0  0  0  0  0  0  0  0
   47.6620   33.8150   38.6990 C   0  0  0  0  0  0  0  0  0  0  0  0
   48.3840   33.9400   37.9300 H   0  0  0  0  0  0  0  0  0  0  0  0
   46.5850   33.0480   38.4220 N   0  0  0  0  0  0  0  0  0  0  0  0
   45.6460   32.8690   39.3870 C   0  0  0  0  0  0  0  0  0  0  0  0
   44.7400   32.2780   39.2850 H   0  0  0  0  0  0  0  0  0  0  0  0
   45.7730   33.4400   40.6000 N   0  0  0  0  0  0  0  0  0  0  0  0
   46.8050   34.2110   40.9530 C   0  0  0  0  0  0  0  0  0  0  0  0
  1  7  1  0  0  0  0
  1  6  1  0  0  0  0
  2  1  2  0  0  0  0
  3  2  1  0  0  0  0
  3  4  2  0  0  0  0
  4  5  1  0  0  0  0
  5  6  2  0  0  0  0
  5  9  1  0  0  0  0
  8  2  1  0  0  0  0
  9 15  1  1  0  0  0
  9 14  1  0  0  0  0
 10 11  1  0  0  0  0
 10 17  1  0  0  0  0
 10  9  1  0  0  0  0
 11 12  1  0  0  0  0
 12 20  1  0  0  0  0
 12 13  1  0  0  0  0
 13 22  1  0  0  0  0
 14 13  2  0  0  0  0
 14 23  1  0  0  0  0
 16 10  1  0  0  0  0
 18 11  1  0  0  0  0
 19 11  1  0  0  0  0
 21 12  1  0  0  0  0
 23 24  1  0  0  0  0
 25 23  1  0  0  0  0
 26  3  1  0  0  0  0
 27 26  1  0  0  0  0
 27 28  1  0  0  0  0
 29 27  2  0  0  0  0
 30 29  1  0  0  0  0
 30 37  1  0  0  0  0
 31 30  2  0  0  0  0
 32 31  1  0  0  0  0
 33 31  1  0  0  0  0
 33 34  2  0  0  0  0
 34 36  1  0  0  0  0
 35 34  1  0  0  0  0
 36 37  2  0  0  0  0
 37 26  1  0  0  0  0
M  END
>  <minimizedAffinity>
-6.78604174

>  <minimizedRMSD>
2.14038801

$$$$
