
 OpenBabel03252508173D

 50 55  0  0  1  0  0  0  0  0999 V2000
   46.9050   31.6610   48.2620 C   0  0  1  0  0  0  0  0  0  0  0  0
   46.4690   30.6180   49.2350 C   0  0  0  0  0  0  0  0  0  0  0  0
   47.7290   31.3310   49.4430 C   0  0  1  0  0  0  0  0  0  0  0  0
   46.1430   32.4970   48.2570 H   0  0  0  0  0  0  0  0  0  0  0  0
   46.5790   29.5400   48.9520 H   0  0  0  0  0  0  0  0  0  0  0  0
   45.6330   30.7600   49.9310 H   0  0  0  0  0  0  0  0  0  0  0  0
   47.7420   32.0790   50.2630 H   0  0  0  0  0  0  0  0  0  0  0  0
   49.0440   30.6570   49.2130 C   0  0  2  0  0  0  0  0  0  0  0  0
   49.6110   29.9580   50.4750 C   0  0  0  0  0  0  0  0  0  0  0  0
   50.2530   31.1830   49.9870 C   0  0  1  0  0  0  0  0  0  0  0  0
   49.1970   30.0060   48.3320 H   0  0  0  0  0  0  0  0  0  0  0  0
   49.0370   30.0570   51.4170 H   0  0  0  0  0  0  0  0  0  0  0  0
   50.1820   29.0400   50.3840 H   0  0  0  0  0  0  0  0  0  0  0  0
   50.0830   32.1740   50.4920 H   0  0  0  0  0  0  0  0  0  0  0  0
   51.4720   31.1660   49.2010 N   0  0  0  0  0  0  0  0  0  0  0  0
   52.4240   32.1130   49.2960 C   0  0  0  0  0  0  0  0  0  0  0  0
   52.4490   32.9910   49.9290 H   0  0  0  0  0  0  0  0  0  0  0  0
   53.4270   31.8190   48.4430 N   0  0  0  0  0  0  0  0  0  0  0  0
   53.0600   30.6800   47.8350 C   0  0  0  0  0  0  0  0  0  0  0  0
   53.7420   29.9500   46.8640 C   0  0  0  0  0  0  0  0  0  0  0  0
   54.7070   30.2230   46.4530 H   0  0  0  0  0  0  0  0  0  0  0  0
   53.1420   28.8270   46.4170 N   0  0  0  0  0  0  0  0  0  0  0  0
   51.9510   28.4310   46.8790 C   0  0  0  0  0  0  0  0  0  0  0  0
   51.4710   27.5300   46.5180 H   0  0  0  0  0  0  0  0  0  0  0  0
   51.2630   29.1130   47.8190 N   0  0  0  0  0  0  0  0  0  0  0  0
   51.8230   30.2350   48.2920 C   0  0  0  0  0  0  0  0  0  0  0  0
   47.2740   31.1390   46.9190 C   0  0  0  0  0  0  0  0  0  0  0  0
   46.5610   30.2960   46.6950 H   0  0  0  0  0  0  0  0  0  0  0  0
   48.2940   30.8400   46.7540 H   0  0  0  0  0  0  0  0  0  0  0  0
   46.1520   33.0700   46.1650 C   0  0  0  0  0  3  0  0  0  0  0  0
   46.9750   32.1610   45.8460 C   0  0  0  0  0  3  0  0  0  0  0  0
   44.5390   35.8690   44.3890 C   0  0  0  0  0  0  0  0  0  0  0  0
   45.1650   35.8550   43.1480 C   0  0  0  0  0  0  0  0  0  0  0  0
   46.1080   34.8970   42.9650 C   0  0  0  0  0  0  0  0  0  0  0  0
   46.4050   34.0130   43.9550 N   0  0  0  0  0  0  0  0  0  0  0  0
   45.7740   34.0580   45.1520 C   0  0  0  0  0  0  0  0  0  0  0  0
   44.8570   34.9890   45.3310 N   0  0  0  0  0  0  0  0  0  0  0  0
   43.7830   36.6170   44.5750 H   0  0  0  0  0  0  0  0  0  0  0  0
   44.9590   36.5330   42.3460 H   0  0  0  0  0  0  0  0  0  0  0  0
   46.8500   34.7580   41.7130 C   0  0  0  0  0  0  0  0  0  0  0  0
   48.0580   35.3540   41.4540 C   0  0  0  0  0  0  0  0  0  0  0  0
   48.7520   35.2170   40.2720 C   0  0  0  0  0  0  0  0  0  0  0  0
   48.2220   34.4330   39.2580 C   0  0  0  0  0  0  0  0  0  0  0  0
   47.0160   33.8150   39.4660 C   0  0  0  0  0  0  0  0  0  0  0  0
   46.3720   33.9940   40.6740 C   0  0  0  0  0  0  0  0  0  0  0  0
   48.5040   35.9830   42.2400 H   0  0  0  0  0  0  0  0  0  0  0  0
   49.7090   35.7060   40.1020 H   0  0  0  0  0  0  0  0  0  0  0  0
   48.7530   34.3190   38.3350 H   0  0  0  0  0  0  0  0  0  0  0  0
   46.5740   33.2000   38.7070 H   0  0  0  0  0  0  0  0  0  0  0  0
   45.4130   33.4780   40.7900 H   0  0  0  0  0  0  0  0  0  0  0  0
  1  4  1  1  0  0  0
  1  2  1  0  0  0  0
  1  3  1  0  0  0  0
  2  3  1  0  0  0  0
  2  6  1  0  0  0  0
  3  7  1  1  0  0  0
  5  2  1  0  0  0  0
  8 11  1  6  0  0  0
  8  3  1  0  0  0  0
  8 10  1  0  0  0  0
  8  9  1  0  0  0  0
  9 12  1  0  0  0  0
 10  9  1  0  0  0  0
 10 14  1  1  0  0  0
 13  9  1  0  0  0  0
 15 16  1  0  0  0  0
 15 10  1  0  0  0  0
 16 17  1  0  0  0  0
 18 16  2  0  0  0  0
 19 26  1  0  0  0  0
 19 18  1  0  0  0  0
 20 19  2  0  0  0  0
 21 20  1  0  0  0  0
 22 20  1  0  0  0  0
 22 23  2  0  0  0  0
 23 25  1  0  0  0  0
 24 23  1  0  0  0  0
 25 26  2  0  0  0  0
 26 15  1  0  0  0  0
 27  1  1  0  0  0  0
 28 27  1  0  0  0  0
 29 27  1  0  0  0  0
 31 30  2  0  0  0  0
 31 27  1  0  0  0  0
 32 38  1  0  0  0  0
 32 37  1  0  0  0  0
 33 32  2  0  0  0  0
 34 33  1  0  0  0  0
 34 35  2  0  0  0  0
 35 36  1  0  0  0  0
 36 37  2  0  0  0  0
 36 30  1  0  0  0  0
 39 33  1  0  0  0  0
 40 34  1  0  0  0  0
 41 40  1  0  0  0  0
 41 46  1  0  0  0  0
 42 41  2  0  0  0  0
 43 44  2  0  0  0  0
 43 42  1  0  0  0  0
 44 45  1  0  0  0  0
 45 50  1  0  0  0  0
 45 40  2  0  0  0  0
 47 42  1  0  0  0  0
 48 43  1  0  0  0  0
 49 44  1  0  0  0  0
M  END
>  <minimizedAffinity>
-6.53093958

>  <minimizedRMSD>
1.0800674

$$$$
