
 OpenBabel03242519383D

 30 32  0  0  0  0  0  0  0  0999 V2000
   48.1940   32.9210   41.7140 O   0  0  0  0  0  0  0  0  0  0  0  0
   47.2410   34.0130   41.2470 P   0  0  2  0  0  0  0  0  0  0  0  0
   45.6780   33.7140   41.9080 O   0  0  0  0  0  0  0  0  0  0  0  0
   44.4140   35.8640   44.5960 C   0  0  0  0  0  0  0  0  0  0  0  0
   44.7170   35.3930   43.2880 C   0  0  0  0  0  0  0  0  0  0  0  0
   45.3840   34.1720   43.1870 C   0  0  0  0  0  0  0  0  0  0  0  0
   45.7060   33.5050   44.3160 N   0  0  0  0  0  0  0  0  0  0  0  0
   45.4050   33.9770   45.5440 C   0  0  0  0  0  0  0  0  0  0  0  0
   44.7610   35.1530   45.6920 N   0  0  0  0  0  0  0  0  0  0  0  0
   43.9000   36.8070   44.6280 H   0  0  0  0  0  0  0  0  0  0  0  0
   44.4280   35.9810   42.4320 H   0  0  0  0  0  0  0  0  0  0  0  0
   45.6560   33.4560   46.4510 H   0  0  0  0  0  0  0  0  0  0  0  0
   47.1200   34.1070   39.5890 O   0  0  0  0  0  0  0  0  0  0  0  0
   49.6490   32.8220   39.8380 H   0  0  0  0  0  0  0  0  0  0  0  0
   49.1090   32.8310   38.9690 N   0  0  0  0  0  0  0  0  0  0  0  0
   47.9090   33.3900   38.6920 C   0  0  0  0  0  0  0  0  0  0  0  0
   47.6020   33.1340   37.3910 N   0  0  0  0  0  0  0  0  0  0  0  0
   48.5860   32.4220   36.8320 C   0  0  0  0  0  0  0  0  0  0  0  0
   48.8670   31.8710   35.6040 C   0  0  0  0  0  0  0  0  0  0  0  0
   48.0890   32.0480   34.8530 H   0  0  0  0  0  0  0  0  0  0  0  0
   50.0050   31.1720   35.3410 N   0  0  0  0  0  0  0  0  0  0  0  0
   50.9180   31.0020   36.3390 C   0  0  0  0  0  0  0  0  0  0  0  0
   51.8230   30.4460   36.1300 H   0  0  0  0  0  0  0  0  0  0  0  0
   50.6500   31.5370   37.5410 N   0  0  0  0  0  0  0  0  0  0  0  0
   49.5390   32.2330   37.8400 C   0  0  0  0  0  0  0  0  0  0  0  0
   47.7860   35.4760   41.8960 O   0  0  0  0  0  0  0  0  0  0  0  0
   49.0480   35.8160   41.4430 C   0  0  0  0  0  0  0  0  0  0  0  0
   49.4800   37.0500   41.9170 F   0  0  0  0  0  0  0  0  0  0  0  0
   49.9390   34.8110   41.7080 F   0  0  0  0  0  0  0  0  0  0  0  0
   48.9490   35.9490   40.0690 F   0  0  0  0  0  0  0  0  0  0  0  0
  2  1  2  1  0  0  0
  2 26  1  0  0  0  0
  2  3  1  0  0  0  0
  3  6  1  0  0  0  0
  4 10  1  0  0  0  0
  4  9  1  0  0  0  0
  5  4  2  0  0  0  0
  6  5  1  0  0  0  0
  6  7  2  0  0  0  0
  7  8  1  0  0  0  0
  8  9  2  0  0  0  0
  8 12  1  0  0  0  0
 11  5  1  0  0  0  0
 13  2  1  0  0  0  0
 15 14  1  0  0  0  0
 16 15  1  0  0  0  0
 16 13  1  0  0  0  0
 17 16  2  0  0  0  0
 18 17  1  0  0  0  0
 18 25  1  0  0  0  0
 19 18  2  0  0  0  0
 20 19  1  0  0  0  0
 21 19  1  0  0  0  0
 21 22  2  0  0  0  0
 22 24  1  0  0  0  0
 23 22  1  0  0  0  0
 24 25  2  0  0  0  0
 25 15  1  0  0  0  0
 27 29  1  0  0  0  0
 27 26  1  0  0  0  0
 27 28  1  0  0  0  0
 30 27  1  0  0  0  0
M  END
>  <minimizedAffinity>
-5.77748108

>  <minimizedRMSD>
1.4457134

$$$$
