
     RDKit          3D

 42 46  0  0  0  0  0  0  0  0999 V2000
   45.2100   36.1564   43.4587 C   0  0  0  0  0  0  0  0  0  0  0  0
   45.8661   34.9530   43.1268 C   0  0  0  0  0  0  0  0  0  0  0  0
   45.8110   33.9932   44.1312 C   0  0  0  0  0  0  0  0  0  0  0  0
   45.2021   34.1813   45.2938 N   0  0  0  0  0  0  0  0  0  0  0  0
   44.5855   35.3723   45.5506 C   0  0  0  0  0  0  0  0  0  0  0  0
   44.5971   36.3419   44.6328 N   0  0  0  0  0  0  0  0  0  0  0  0
   46.4515   32.7403   43.8868 C   0  0  0  0  0  0  0  0  0  0  0  0
   47.7119   32.2496   43.9790 C   0  0  0  0  0  0  0  0  0  0  0  0
   48.0345   31.0134   43.6808 C   0  0  0  0  0  0  0  0  0  0  0  0
   47.0219   30.2391   43.2682 C   0  0  0  0  0  0  0  0  0  0  0  0
   45.5557   31.3075   43.3051 S   0  0  0  0  0  0  0  0  0  0  0  0
   46.5050   34.7988   41.8667 C   0  0  0  0  0  0  0  0  0  0  0  0
   47.6903   35.2425   41.8076 O   0  0  0  0  0  0  0  0  0  0  0  0
   45.7689   34.1505   40.7393 C   0  0  0  0  0  0  0  0  0  0  0  0
   44.4162   34.1239   40.5379 C   0  0  0  0  0  0  0  0  0  0  0  0
   44.2247   33.4273   39.3973 N   0  0  0  0  0  0  0  0  0  0  0  0
   45.4084   33.0466   38.9249 C   0  0  0  0  0  0  0  0  0  0  0  0
   46.3737   33.4889   39.7481 N   0  0  0  0  0  0  0  0  0  0  0  0
   45.7356   32.2985   37.7623 N   0  0  0  0  0  0  0  0  0  0  0  0
   42.9788   33.1100   38.7421 C   0  0  0  0  0  0  0  0  0  0  0  0
   45.2353   36.9343   42.6873 H   0  0  0  0  0  0  0  0  0  0  0  0
   44.0825   35.5623   46.4793 H   0  0  0  0  0  0  0  0  0  0  0  0
   48.4366   33.0117   44.3345 H   0  0  0  0  0  0  0  0  0  0  0  0
   49.0264   30.5812   43.7400 H   0  0  0  0  0  0  0  0  0  0  0  0
   47.0611   29.1077   42.9477 H   0  0  0  0  0  0  0  0  0  0  0  0
   43.6526   34.5658   41.1578 H   0  0  0  0  0  0  0  0  0  0  0  0
   45.1816   31.3985   37.6538 H   0  0  0  0  0  0  0  0  0  0  0  0
   46.4697   32.6716   37.1205 H   0  0  0  0  0  0  0  0  0  0  0  0
   42.1433   33.0354   39.4715 H   0  0  0  0  0  0  0  0  0  0  0  0
   43.0406   32.1369   38.2307 H   0  0  0  0  0  0  0  0  0  0  0  0
   42.7117   34.2013   37.8203 N   0  0  0  0  0  0  0  0  0  0  0  0
   42.0650   34.2507   36.6417 C   0  0  0  0  0  0  0  0  0  0  0  0
   41.6456   33.3271   36.2655 H   0  0  0  0  0  0  0  0  0  0  0  0
   42.0774   35.5050   36.1546 N   0  0  0  0  0  0  0  0  0  0  0  0
   42.7394   36.3041   37.0160 C   0  0  0  0  0  0  0  0  0  0  0  0
   43.0329   37.6540   36.9937 C   0  0  0  0  0  0  0  0  0  0  0  0
   42.7057   38.2636   36.1600 H   0  0  0  0  0  0  0  0  0  0  0  0
   43.7360   38.1582   38.0487 N   0  0  0  0  0  0  0  0  0  0  0  0
   44.1110   37.3242   39.0591 C   0  0  0  0  0  0  0  0  0  0  0  0
   44.6750   37.7802   39.8844 H   0  0  0  0  0  0  0  0  0  0  0  0
   43.8357   36.0081   39.1005 N   0  0  0  0  0  0  0  0  0  0  0  0
   43.1356   35.4765   38.0620 C   0  0  0  0  0  0  0  0  0  0  0  0
  1  6  2  0
  2  1  1  0
  2  3  2  0
  3  4  1  0
  4  5  2  0
  6  5  1  0
  7  8  2  0
  7  3  1  0
  9  8  1  0
 10 11  1  0
 10  9  2  0
 11  7  1  0
 12  2  1  0
 13 12  2  0
 14 12  1  0
 15 14  2  0
 16 15  1  0
 17 16  1  0
 17 18  2  0
 18 14  1  0
 19 17  1  0
 20 16  1  0
  1 21  1  0
  5 22  1  0
  8 23  1  0
  9 24  1  0
 10 25  1  0
 15 26  1  0
 19 27  1  0
 19 28  1  0
 20 29  1  0
 20 30  1  0
 31 32  1  0
 32 33  1  0
 32 34  2  0
 34 35  1  0
 35 36  2  0
 36 37  1  0
 36 38  1  0
 38 39  2  0
 39 40  1  0
 39 41  1  0
 41 42  2  0
 42 31  1  0
 42 35  1  0
 20 31  1  0
M  ISO  8  21  14  22  14  23  14  24  14  25  14  26  14  29   8  30   8
M  ISO  3  33  15  37  16  40  16
M  END
>  <DihAtoms>  (1) 
15,19,30,31

>  <DihDeg>  (1) 
90.0016301544101

$$$$
