
 OpenBabel03252500143D

 41 45  0  0  0  0  0  0  0  0999 V2000
   45.5680   32.4760   40.3390 Cl  0  0  0  0  0  0  0  0  0  0  0  0
   46.8780   33.5930   40.0800 C   0  0  0  0  0  0  0  0  0  0  0  0
   47.4170   34.2900   41.1330 C   0  0  0  0  0  0  0  0  0  0  0  0
   48.4660   35.1900   40.9610 C   0  0  0  0  0  0  0  0  0  0  0  0
   48.9300   35.3400   39.6720 C   0  0  0  0  0  0  0  0  0  0  0  0
   48.3900   34.6390   38.6090 C   0  0  0  0  0  0  0  0  0  0  0  0
   47.3870   33.7820   38.8010 C   0  0  0  0  0  0  0  0  0  0  0  0
   48.8690   35.7260   41.8100 H   0  0  0  0  0  0  0  0  0  0  0  0
   49.7410   36.0330   39.5290 H   0  0  0  0  0  0  0  0  0  0  0  0
   48.7740   34.7740   37.6080 H   0  0  0  0  0  0  0  0  0  0  0  0
   46.7720   32.8190   44.4500 C   0  0  0  0  0  0  0  0  0  0  0  0
   45.8550   33.7340   45.0120 C   0  0  0  0  0  0  0  0  0  0  0  0
   45.4730   34.8360   44.2490 C   0  0  0  0  0  0  0  0  0  0  0  0
   46.0030   34.9790   42.9950 N   0  0  0  0  0  0  0  0  0  0  0  0
   46.8790   34.0890   42.4830 C   0  0  0  0  0  0  0  0  0  0  0  0
   47.2520   33.0200   43.2160 N   0  0  0  0  0  0  0  0  0  0  0  0
   47.0400   31.9790   45.0740 H   0  0  0  0  0  0  0  0  0  0  0  0
   45.4410   33.6150   45.9980 H   0  0  0  0  0  0  0  0  0  0  0  0
   44.5110   35.8700   44.7380 C   0  0  0  0  0  0  0  0  0  0  0  0
   44.9890   37.1230   44.5140 F   0  0  0  0  0  0  0  0  0  0  0  0
   43.3200   35.7090   44.0580 F   0  0  0  0  0  0  0  0  0  0  0  0
   44.3170   35.6220   46.0750 F   0  0  0  0  0  0  0  0  0  0  0  0
   46.7900   33.0250   37.7120 C   0  0  0  0  0  0  0  0  0  0  0  0
   45.6040   33.3770   37.0540 C   0  0  0  0  0  0  0  0  0  0  0  0
   45.3230   32.4460   36.0780 C   0  0  0  0  0  0  0  0  0  0  0  0
   46.3700   31.5580   36.1910 C   0  0  0  0  0  0  0  0  0  0  0  0
   47.2050   31.9190   37.1460 O   0  0  0  0  0  0  0  0  0  0  0  0
   44.9590   34.2510   37.2490 H   0  0  0  0  0  0  0  0  0  0  0  0
   44.5120   32.3720   35.3720 H   0  0  0  0  0  0  0  0  0  0  0  0
   46.5700   30.3840   35.4020 N   0  0  0  0  0  0  0  0  0  0  0  0
   47.7170   29.6810   35.3400 C   0  0  0  0  0  0  0  0  0  0  0  0
   48.6630   29.8390   35.8350 H   0  0  0  0  0  0  0  0  0  0  0  0
   47.5350   28.6300   34.4870 N   0  0  0  0  0  0  0  0  0  0  0  0
   46.2750   28.6660   34.0090 C   0  0  0  0  0  0  0  0  0  0  0  0
   45.4640   27.9490   33.1530 C   0  0  0  0  0  0  0  0  0  0  0  0
   45.9230   27.0730   32.6880 H   0  0  0  0  0  0  0  0  0  0  0  0
   44.1850   28.3150   32.9120 N   0  0  0  0  0  0  0  0  0  0  0  0
   43.6440   29.3970   33.4970 C   0  0  0  0  0  0  0  0  0  0  0  0
   42.6300   29.7300   33.3380 H   0  0  0  0  0  0  0  0  0  0  0  0
   44.4060   30.1270   34.3440 N   0  0  0  0  0  0  0  0  0  0  0  0
   45.6810   29.7740   34.5930 C   0  0  0  0  0  0  0  0  0  0  0  0
  2  1  1  0  0  0  0
  2  3  1  0  0  0  0
  3 15  1  0  0  0  0
  4  3  2  0  0  0  0
  4  8  1  0  0  0  0
  5  4  1  0  0  0  0
  6  7  1  0  0  0  0
  6  5  2  0  0  0  0
  7  2  2  0  0  0  0
  9  5  1  0  0  0  0
 10  6  1  0  0  0  0
 11 12  1  0  0  0  0
 11 17  1  0  0  0  0
 12 18  1  0  0  0  0
 13 19  1  0  0  0  0
 13 12  2  0  0  0  0
 14 13  1  0  0  0  0
 15 14  2  0  0  0  0
 15 16  1  0  0  0  0
 16 11  2  0  0  0  0
 19 22  1  0  0  0  0
 20 19  1  0  0  0  0
 21 19  1  0  0  0  0
 23  7  1  0  0  0  0
 24 28  1  0  0  0  0
 24 23  2  0  0  0  0
 25 26  2  0  0  0  0
 25 24  1  0  0  0  0
 26 27  1  0  0  0  0
 27 23  1  0  0  0  0
 29 25  1  0  0  0  0
 30 26  1  0  0  0  0
 31 30  1  0  0  0  0
 31 32  1  0  0  0  0
 33 31  2  0  0  0  0
 34 33  1  0  0  0  0
 34 41  1  0  0  0  0
 35 34  2  0  0  0  0
 36 35  1  0  0  0  0
 37 35  1  0  0  0  0
 37 38  2  0  0  0  0
 38 40  1  0  0  0  0
 39 38  1  0  0  0  0
 40 41  2  0  0  0  0
 41 30  1  0  0  0  0
M  END
>  <minimizedAffinity>
-6.19011784

>  <minimizedRMSD>
0.672983229

$$$$
