
 OpenBabel03252508253D

 44 49  0  0  1  0  0  0  0  0999 V2000
   47.0120   32.0900   45.3180 C   0  0  1  0  0  0  0  0  0  0  0  0
   46.8890   32.6870   46.6570 C   0  0  0  0  0  0  0  0  0  0  0  0
   45.7660   31.8000   45.9940 C   0  0  2  0  0  0  0  0  0  0  0  0
   47.9650   31.4480   45.3620 H   0  0  0  0  0  0  0  0  0  0  0  0
   47.3140   32.2770   47.5800 H   0  0  0  0  0  0  0  0  0  0  0  0
   46.6510   33.7630   46.6690 H   0  0  0  0  0  0  0  0  0  0  0  0
   44.8570   32.4830   45.9780 H   0  0  0  0  0  0  0  0  0  0  0  0
   45.4040   30.5150   46.5980 C   0  0  0  0  0  0  0  0  0  0  0  0
   45.4340   30.1800   47.9150 C   0  0  0  0  0  0  0  0  0  0  0  0
   45.2020   28.9150   48.4350 C   0  0  0  0  0  0  0  0  0  0  0  0
   44.9130   27.9020   47.5100 C   0  0  0  0  0  0  0  0  0  0  0  0
   44.8740   28.2170   46.1520 C   0  0  0  0  0  0  0  0  0  0  0  0
   44.5240   27.2020   45.2830 C   0  0  0  0  0  0  0  0  0  0  0  0
   44.4030   27.4880   43.9280 C   0  0  0  0  0  0  0  0  0  0  0  0
   44.6220   28.7630   43.4550 C   0  0  0  0  0  0  0  0  0  0  0  0
   44.9690   29.7370   44.3620 C   0  0  0  0  0  0  0  0  0  0  0  0
   45.1120   29.5000   45.7210 C   0  0  0  0  0  0  0  0  0  0  0  0
   45.6620   30.9970   48.5960 H   0  0  0  0  0  0  0  0  0  0  0  0
   45.2410   28.7210   49.5000 H   0  0  0  0  0  0  0  0  0  0  0  0
   44.7330   26.9070   47.8990 H   0  0  0  0  0  0  0  0  0  0  0  0
   44.3540   26.2090   45.6790 H   0  0  0  0  0  0  0  0  0  0  0  0
   44.1230   26.6060   43.3290 H   0  0  0  0  0  0  0  0  0  0  0  0
   44.4780   28.7860   42.3930 H   0  0  0  0  0  0  0  0  0  0  0  0
   44.9970   30.6170   43.7870 H   0  0  0  0  0  0  0  0  0  0  0  0
   46.3700   34.9230   43.0420 C   0  0  0  0  0  0  0  0  0  0  0  0
   46.9480   34.4600   41.8070 C   0  0  0  0  0  0  0  0  0  0  0  0
   47.5600   33.1620   41.8110 C   0  0  0  0  0  0  0  0  0  0  0  0
   47.5720   32.4470   42.9370 N   0  0  0  0  0  0  0  0  0  0  0  0
   47.0020   32.9430   44.0920 C   0  0  0  0  0  0  0  0  0  0  0  0
   46.4230   34.1380   44.1390 N   0  0  0  0  0  0  0  0  0  0  0  0
   45.9320   35.9010   42.9630 H   0  0  0  0  0  0  0  0  0  0  0  0
   46.9090   35.0850   40.9250 H   0  0  0  0  0  0  0  0  0  0  0  0
   48.1330   32.6960   40.5930 N   0  0  0  0  0  0  0  0  0  0  0  0
   47.5600   32.5500   39.3820 C   0  0  0  0  0  0  0  0  0  0  0  0
   46.5160   32.7960   39.2160 H   0  0  0  0  0  0  0  0  0  0  0  0
   48.4250   32.0790   38.4710 N   0  0  0  0  0  0  0  0  0  0  0  0
   49.6110   31.9100   39.1030 C   0  0  0  0  0  0  0  0  0  0  0  0
   50.8640   31.4690   38.7270 C   0  0  0  0  0  0  0  0  0  0  0  0
   51.0170   31.1630   37.6840 H   0  0  0  0  0  0  0  0  0  0  0  0
   51.8730   31.4180   39.6330 N   0  0  0  0  0  0  0  0  0  0  0  0
   51.6700   31.7980   40.9190 C   0  0  0  0  0  0  0  0  0  0  0  0
   52.4750   31.7580   41.6450 H   0  0  0  0  0  0  0  0  0  0  0  0
   50.4410   32.2370   41.3100 N   0  0  0  0  0  0  0  0  0  0  0  0
   49.4300   32.2970   40.4360 C   0  0  0  0  0  0  0  0  0  0  0  0
  1  4  1  6  0  0  0
  1  3  1  0  0  0  0
  1  2  1  0  0  0  0
  2  6  1  0  0  0  0
  2  5  1  0  0  0  0
  3  7  1  6  0  0  0
  3  8  1  0  0  0  0
  3  2  1  0  0  0  0
  8  9  1  0  0  0  0
  9 10  2  0  0  0  0
  9 18  1  0  0  0  0
 10 19  1  0  0  0  0
 11 20  1  0  0  0  0
 11 10  1  0  0  0  0
 12 11  2  0  0  0  0
 13 21  1  0  0  0  0
 13 12  1  0  0  0  0
 14 13  2  0  0  0  0
 15 14  1  0  0  0  0
 15 16  2  0  0  0  0
 16 17  1  0  0  0  0
 17 12  1  0  0  0  0
 17  8  2  0  0  0  0
 22 14  1  0  0  0  0
 23 15  1  0  0  0  0
 24 16  1  0  0  0  0
 25 30  1  0  0  0  0
 26 27  1  0  0  0  0
 26 25  2  0  0  0  0
 27 28  2  0  0  0  0
 28 29  1  0  0  0  0
 29 30  2  0  0  0  0
 29  1  1  0  0  0  0
 31 25  1  0  0  0  0
 32 26  1  0  0  0  0
 33 27  1  0  0  0  0
 34 33  1  0  0  0  0
 35 34  1  0  0  0  0
 36 37  1  0  0  0  0
 36 34  2  0  0  0  0
 37 44  1  0  0  0  0
 38 37  2  0  0  0  0
 38 40  1  0  0  0  0
 39 38  1  0  0  0  0
 40 41  2  0  0  0  0
 41 43  1  0  0  0  0
 41 42  1  0  0  0  0
 44 33  1  0  0  0  0
 44 43  2  0  0  0  0
M  END
>  <minimizedAffinity>
-5.05491257

>  <minimizedRMSD>
2.34073591

$$$$
