REMARK  Name = 
REMARK  8 active torsions:
REMARK  status: ('A' for Active; 'I' for Inactive)
REMARK    1  A    between atoms: N_1  and  C_7
REMARK    2  A    between atoms: C_6  and  O_15
REMARK    3  A    between atoms: C_7  and  C_8
REMARK    4  A    between atoms: C_8  and  C_11
REMARK    5  A    between atoms: O_15  and  P_17
REMARK    6  A    between atoms: P_17  and  O_18
REMARK    7  A    between atoms: P_17  and  O_19
REMARK    8  A    between atoms: O_19  and  C_39
REMARK                            x       y       z     vdW  Elec       q    Type
REMARK                         _______ _______ _______ _____ _____    ______ ____
ROOT
ATOM      1  N   UNL     1      47.170  34.158  43.083  0.00  0.00    +0.000 NA
ATOM      2  C   UNL     1      46.660  35.361  42.525  0.00  0.00    +0.000 C 
ATOM      3  C   UNL     1      45.177  35.586  42.740  0.00  0.00    +0.000 C 
ATOM      4  C   UNL     1      44.651  35.058  44.044  0.00  0.00    +0.000 C 
ATOM      5  C   UNL     1      45.749  34.468  44.897  0.00  0.00    +0.000 C 
ATOM      6  C   UNL     1      46.410  33.396  43.957  0.00  0.00    +0.000 C 
ATOM      7  H   UNL     1      47.173  36.203  43.064  0.00  0.00    +0.000 HD
ATOM      8  H   UNL     1      46.864  35.519  41.465  0.00  0.00    +0.000 HD
ATOM      9  H   UNL     1      44.650  35.032  41.931  0.00  0.00    +0.000 HD
ATOM     10  H   UNL     1      44.978  36.662  42.577  0.00  0.00    +0.000 HD
ATOM     11  H   UNL     1      43.832  34.341  43.955  0.00  0.00    +0.000 HD
ATOM     12  H   UNL     1      44.241  35.938  44.615  0.00  0.00    +0.000 HD
ATOM     13  H   UNL     1      46.498  35.231  45.165  0.00  0.00    +0.000 HD
ATOM     14  H   UNL     1      45.290  33.941  45.748  0.00  0.00    +0.000 HD
ATOM     15  H   UNL     1      45.564  32.812  43.550  0.00  0.00    +0.000 HD
ENDROOT
BRANCH   1  16
ATOM     16  C   UNL     1      48.151  33.499  42.268  0.00  0.00    +0.000 C 
ATOM     17  H   UNL     1      48.805  34.256  41.813  0.00  0.00    +0.000 HD
ATOM     18  H   UNL     1      48.790  32.860  42.900  0.00  0.00    +0.000 HD
BRANCH  16  19
ATOM     19  C   UNL     1      47.436  32.648  41.255  0.00  0.00    +0.000 C 
ATOM     20  H   UNL     1      46.359  32.912  41.209  0.00  0.00    +0.000 HD
ATOM     21  H   UNL     1      47.504  31.568  41.452  0.00  0.00    +0.000 HD
BRANCH  19  24
ATOM     22  C   UNL     1      49.337  32.287  38.028  0.00  0.00    +0.000 A 
ATOM     23  C   UNL     1      48.808  32.020  39.306  0.00  0.00    +0.000 A 
ATOM     24  C   UNL     1      47.989  32.943  39.904  0.00  0.00    +0.000 A 
ATOM     25  N   UNL     1      47.728  34.073  39.228  0.00  0.00    +0.000 NA
ATOM     26  C   UNL     1      48.233  34.326  38.011  0.00  0.00    +0.000 A 
ATOM     27  N   UNL     1      49.043  33.433  37.399  0.00  0.00    +0.000 NA
ATOM     28  H   UNL     1      49.981  31.536  37.583  0.00  0.00    +0.000 HD
ATOM     29  H   UNL     1      49.076  31.080  39.770  0.00  0.00    +0.000 HD
ATOM     30  H   UNL     1      47.914  35.286  37.621  0.00  0.00    +0.000 HD
ENDBRANCH  19  24
ENDBRANCH  16  19
ENDBRANCH   1  16
BRANCH   6  31
ATOM     31  O   UNL     1      47.208  32.694  44.854  0.00  0.00    +0.000 OA
BRANCH  31  33
ATOM     32  O   UNL     1      45.995  30.543  43.869  0.00  0.00    +0.000 OA
ATOM     33  P   UNL     1      46.664  31.123  45.114  0.00  0.00    +0.000 P 
BRANCH  33  34
ATOM     34  O   UNL     1      45.409  31.241  46.272  0.00  0.00    +0.000 OA
ATOM     35  H   UNL     1      45.831  31.603  47.104  0.00  0.00    +0.000 HD
ENDBRANCH  33  34
BRANCH  33  36
ATOM     36  O   UNL     1      47.836  30.130  45.742  0.00  0.00    +0.000 OA
BRANCH  36  39
ATOM     37  H   UNL     1      49.484  31.173  43.818  0.00  0.00    +0.000 HD
ATOM     38  N   UNL     1      49.562  30.179  44.145  0.00  0.00    +0.000 N 
ATOM     39  C   UNL     1      48.851  29.480  45.074  0.00  0.00    +0.000 A 
ATOM     40  N   UNL     1      49.344  28.213  45.131  0.00  0.00    +0.000 NA
ATOM     41  C   UNL     1      50.370  28.090  44.242  0.00  0.00    +0.000 A 
ATOM     42  C   UNL     1      51.189  27.024  43.920  0.00  0.00    +0.000 A 
ATOM     43  H   UNL     1      51.002  26.105  44.460  0.00  0.00    +0.000 HD
ATOM     44  N   UNL     1      52.127  27.236  42.978  0.00  0.00    +0.000 NA
ATOM     45  C   UNL     1      52.234  28.444  42.397  0.00  0.00    +0.000 A 
ATOM     46  H   UNL     1      52.992  28.612  41.636  0.00  0.00    +0.000 HD
ATOM     47  N   UNL     1      51.438  29.502  42.701  0.00  0.00    +0.000 NA
ATOM     48  C   UNL     1      50.477  29.328  43.649  0.00  0.00    +0.000 A 
ENDBRANCH  36  39
ENDBRANCH  33  36
ENDBRANCH  31  33
ENDBRANCH   6  31
TORSDOF 8
