
 OpenBabel03252507313D

 52 56  0  0  1  0  0  0  0  0999 V2000
   47.0260   32.6820   45.5480 C   0  0  0  0  0  0  0  0  0  0  0  0
   45.9490   33.3830   46.0690 C   0  0  0  0  0  0  0  0  0  0  0  0
   45.2810   34.3380   45.2670 C   0  0  0  0  0  0  0  0  0  0  0  0
   45.7700   34.5090   43.9740 N   0  0  0  0  0  0  0  0  0  0  0  0
   46.8140   33.8020   43.5340 C   0  0  0  0  0  0  0  0  0  0  0  0
   47.4320   32.9050   44.3040 N   0  0  0  0  0  0  0  0  0  0  0  0
   45.4430   33.4400   47.0090 H   0  0  0  0  0  0  0  0  0  0  0  0
   44.4510   34.9560   45.4910 H   0  0  0  0  0  0  0  0  0  0  0  0
   47.2930   34.0460   42.1690 C   0  0  0  0  0  0  0  0  0  0  0  0
   48.0420   35.1610   41.8690 C   0  0  0  0  0  0  0  0  0  0  0  0
   48.5360   35.4740   40.6210 C   0  0  0  0  0  0  0  0  0  0  0  0
   48.2220   34.5620   39.6460 C   0  0  0  0  0  0  0  0  0  0  0  0
   47.4650   33.4220   39.9220 C   0  0  0  0  0  0  0  0  0  0  0  0
   47.0060   33.1750   41.1880 N   0  0  0  0  0  0  0  0  0  0  0  0
   48.2500   35.8400   42.7010 H   0  0  0  0  0  0  0  0  0  0  0  0
   49.1190   36.3480   40.4030 H   0  0  0  0  0  0  0  0  0  0  0  0
   48.5470   34.6850   38.6220 H   0  0  0  0  0  0  0  0  0  0  0  0
   47.1690   32.5090   38.8680 N   0  0  0  0  0  0  0  0  0  0  0  0
   47.9400   31.6490   38.1430 C   0  0  0  0  0  0  0  0  0  0  0  0
   49.0040   31.5680   38.3250 H   0  0  0  0  0  0  0  0  0  0  0  0
   47.1550   31.0040   37.2530 N   0  0  0  0  0  0  0  0  0  0  0  0
   45.8810   31.4370   37.3940 C   0  0  0  0  0  0  0  0  0  0  0  0
   44.7090   31.0990   36.7340 C   0  0  0  0  0  0  0  0  0  0  0  0
   44.7140   30.3540   35.9380 H   0  0  0  0  0  0  0  0  0  0  0  0
   43.5440   31.6830   37.0650 N   0  0  0  0  0  0  0  0  0  0  0  0
   43.5900   32.6090   38.0670 C   0  0  0  0  0  0  0  0  0  0  0  0
   42.7000   33.1510   38.4230 H   0  0  0  0  0  0  0  0  0  0  0  0
   44.7050   32.9680   38.7350 N   0  0  0  0  0  0  0  0  0  0  0  0
   45.8870   32.3910   38.4170 C   0  0  0  0  0  0  0  0  0  0  0  0
   47.6600   31.6980   46.4020 C   0  0  2  0  0  0  0  0  0  0  0  0
   47.4340   30.2520   45.8770 C   0  0  0  0  0  0  0  0  0  0  0  0
   48.2370   29.2960   46.6920 C   0  0  0  0  0  0  0  0  0  0  0  0
   48.1950   29.5020   48.1680 C   0  0  0  0  0  0  0  0  0  0  0  0
   48.1820   30.8870   48.5770 C   0  0  0  0  0  0  0  0  0  0  0  0
   47.1940   31.7620   47.7730 C   0  0  2  0  0  0  0  0  0  0  0  0
   48.7600   31.8160   46.3060 H   0  0  0  0  0  0  0  0  0  0  0  0
   46.3830   29.9730   45.8790 H   0  0  0  0  0  0  0  0  0  0  0  0
   47.7830   30.2350   44.8260 H   0  0  0  0  0  0  0  0  0  0  0  0
   49.2390   29.2600   46.2230 H   0  0  0  0  0  0  0  0  0  0  0  0
   47.8170   28.2650   46.5030 H   0  0  0  0  0  0  0  0  0  0  0  0
   47.8130   28.6970   48.7930 H   0  0  0  0  0  0  0  0  0  0  0  0
   49.3050   29.2500   48.4150 H   0  0  0  0  0  0  0  0  0  0  0  0
   49.1360   31.4670   48.5380 H   0  0  0  0  0  0  0  0  0  0  0  0
   47.8510   31.0030   49.6460 H   0  0  0  0  0  0  0  0  0  0  0  0
   47.3000   32.7180   48.2860 H   0  0  0  0  0  0  0  0  0  0  0  0
   45.8580   31.1720   47.8740 N   0  0  0  0  0  0  0  0  0  0  0  0
   45.1520   30.6390   48.9670 C   0  0  0  0  0  0  0  0  0  0  0  0
   44.5890   31.3710   49.8590 O   0  0  0  0  0  0  0  0  0  0  0  0
   45.1030   29.2120   49.0060 N   0  0  0  0  0  0  0  0  0  0  0  0
   45.2340   31.0120   46.9970 H   0  0  0  0  0  0  0  0  0  0  0  0
   44.8100   28.5410   48.2740 H   0  0  0  0  0  0  0  0  0  0  0  0
   45.3930   28.6950   49.8710 H   0  0  0  0  0  0  0  0  0  0  0  0
  1  2  1  0  0  0  0
  1 30  1  0  0  0  0
  2  7  1  0  0  0  0
  3  8  1  0  0  0  0
  3  2  2  0  0  0  0
  4  3  1  0  0  0  0
  5  4  2  0  0  0  0
  5  6  1  0  0  0  0
  6  1  2  0  0  0  0
  9  5  1  0  0  0  0
 10  9  1  0  0  0  0
 10 15  1  0  0  0  0
 11 10  2  0  0  0  0
 12 13  2  0  0  0  0
 12 11  1  0  0  0  0
 13 14  1  0  0  0  0
 14  9  2  0  0  0  0
 16 11  1  0  0  0  0
 17 12  1  0  0  0  0
 18 13  1  0  0  0  0
 19 20  1  0  0  0  0
 19 18  1  0  0  0  0
 21 22  1  0  0  0  0
 21 19  2  0  0  0  0
 22 29  1  0  0  0  0
 23 25  1  0  0  0  0
 23 22  2  0  0  0  0
 24 23  1  0  0  0  0
 25 26  2  0  0  0  0
 26 27  1  0  0  0  0
 26 28  1  0  0  0  0
 29 28  2  0  0  0  0
 29 18  1  0  0  0  0
 30 36  1  6  0  0  0
 30 35  1  0  0  0  0
 31 37  1  0  0  0  0
 31 30  1  0  0  0  0
 31 32  1  0  0  0  0
 32 33  1  0  0  0  0
 33 42  1  0  0  0  0
 33 34  1  0  0  0  0
 33 41  1  0  0  0  0
 34 44  1  0  0  0  0
 35 46  1  0  0  0  0
 35 45  1  1  0  0  0
 35 34  1  0  0  0  0
 38 31  1  0  0  0  0
 39 32  1  0  0  0  0
 40 32  1  0  0  0  0
 43 34  1  0  0  0  0
 46 47  1  0  0  0  0
 47 49  1  0  0  0  0
 47 48  2  0  0  0  0
 49 52  1  0  0  0  0
 50 46  1  0  0  0  0
 51 49  1  0  0  0  0
M  END
>  <minimizedAffinity>
-6.63346243

>  <minimizedRMSD>
0.714448512

$$$$
