
 OpenBabel03252507313D

 52 56  0  0  1  0  0  0  0  0999 V2000
   46.9180   32.8960   45.5760 C   0  0  0  0  0  0  0  0  0  0  0  0
   45.8100   33.6100   46.0040 C   0  0  0  0  0  0  0  0  0  0  0  0
   45.1290   34.4570   45.0990 C   0  0  0  0  0  0  0  0  0  0  0  0
   45.6400   34.5150   43.8040 N   0  0  0  0  0  0  0  0  0  0  0  0
   46.7150   33.8020   43.4570 C   0  0  0  0  0  0  0  0  0  0  0  0
   47.3440   33.0070   44.3230 N   0  0  0  0  0  0  0  0  0  0  0  0
   45.2820   33.7430   46.9250 H   0  0  0  0  0  0  0  0  0  0  0  0
   44.2770   35.0670   45.2450 H   0  0  0  0  0  0  0  0  0  0  0  0
   47.2160   33.9240   42.0830 C   0  0  0  0  0  0  0  0  0  0  0  0
   47.9410   35.0250   41.6880 C   0  0  0  0  0  0  0  0  0  0  0  0
   48.4520   35.2280   40.4240 C   0  0  0  0  0  0  0  0  0  0  0  0
   48.1820   34.2170   39.5380 C   0  0  0  0  0  0  0  0  0  0  0  0
   47.4490   33.0880   39.9110 C   0  0  0  0  0  0  0  0  0  0  0  0
   46.9720   32.9540   41.1870 N   0  0  0  0  0  0  0  0  0  0  0  0
   48.1140   35.7870   42.4530 H   0  0  0  0  0  0  0  0  0  0  0  0
   49.0160   36.0930   40.1310 H   0  0  0  0  0  0  0  0  0  0  0  0
   48.5250   34.2470   38.5130 H   0  0  0  0  0  0  0  0  0  0  0  0
   47.1990   32.0680   38.9470 N   0  0  0  0  0  0  0  0  0  0  0  0
   46.6260   30.8340   39.0330 C   0  0  0  0  0  0  0  0  0  0  0  0
   46.2530   30.4590   39.9760 H   0  0  0  0  0  0  0  0  0  0  0  0
   46.6350   30.2640   37.8080 N   0  0  0  0  0  0  0  0  0  0  0  0
   47.2090   31.1180   36.9300 C   0  0  0  0  0  0  0  0  0  0  0  0
   47.4590   31.0160   35.5680 C   0  0  0  0  0  0  0  0  0  0  0  0
   47.1760   30.1210   35.0170 H   0  0  0  0  0  0  0  0  0  0  0  0
   48.0560   32.0240   34.9070 N   0  0  0  0  0  0  0  0  0  0  0  0
   48.3910   33.1230   35.6420 C   0  0  0  0  0  0  0  0  0  0  0  0
   48.8830   34.0080   35.2080 H   0  0  0  0  0  0  0  0  0  0  0  0
   48.1680   33.2640   36.9640 N   0  0  0  0  0  0  0  0  0  0  0  0
   47.5690   32.2630   37.6480 C   0  0  0  0  0  0  0  0  0  0  0  0
   47.5640   32.0230   46.5360 C   0  0  2  0  0  0  0  0  0  0  0  0
   47.4480   30.5290   46.1220 C   0  0  0  0  0  0  0  0  0  0  0  0
   48.2620   29.6910   47.0480 C   0  0  0  0  0  0  0  0  0  0  0  0
   48.1350   30.0110   48.4990 C   0  0  0  0  0  0  0  0  0  0  0  0
   48.0220   31.4200   48.7920 C   0  0  0  0  0  0  0  0  0  0  0  0
   47.0270   32.1670   47.8740 C   0  0  2  0  0  0  0  0  0  0  0  0
   48.6590   32.1990   46.4800 H   0  0  0  0  0  0  0  0  0  0  0  0
   46.4160   30.1870   46.0990 H   0  0  0  0  0  0  0  0  0  0  0  0
   47.8490   30.4500   45.0920 H   0  0  0  0  0  0  0  0  0  0  0  0
   49.2860   29.6790   46.6290 H   0  0  0  0  0  0  0  0  0  0  0  0
   47.9110   28.6250   46.9260 H   0  0  0  0  0  0  0  0  0  0  0  0
   47.7680   29.2350   49.1700 H   0  0  0  0  0  0  0  0  0  0  0  0
   49.2430   29.8470   48.8150 H   0  0  0  0  0  0  0  0  0  0  0  0
   48.9420   32.0520   48.7490 H   0  0  0  0  0  0  0  0  0  0  0  0
   47.6310   31.6000   49.8310 H   0  0  0  0  0  0  0  0  0  0  0  0
   47.0520   33.1650   48.3120 H   0  0  0  0  0  0  0  0  0  0  0  0
   45.7240   31.5070   47.9630 N   0  0  0  0  0  0  0  0  0  0  0  0
   45.1000   30.8060   49.0110 C   0  0  0  0  0  0  0  0  0  0  0  0
   44.5570   31.3910   50.0170 O   0  0  0  0  0  0  0  0  0  0  0  0
   45.1110   29.3850   48.8660 N   0  0  0  0  0  0  0  0  0  0  0  0
   45.0600   31.4310   47.1040 H   0  0  0  0  0  0  0  0  0  0  0  0
   44.8060   28.8000   48.0690 H   0  0  0  0  0  0  0  0  0  0  0  0
   45.4680   28.7760   49.6420 H   0  0  0  0  0  0  0  0  0  0  0  0
  1  2  1  0  0  0  0
  1 30  1  0  0  0  0
  2  7  1  0  0  0  0
  3  8  1  0  0  0  0
  3  2  2  0  0  0  0
  4  3  1  0  0  0  0
  5  4  2  0  0  0  0
  5  6  1  0  0  0  0
  6  1  2  0  0  0  0
  9  5  1  0  0  0  0
 10  9  1  0  0  0  0
 10 15  1  0  0  0  0
 11 10  2  0  0  0  0
 12 13  2  0  0  0  0
 12 11  1  0  0  0  0
 13 14  1  0  0  0  0
 14  9  2  0  0  0  0
 16 11  1  0  0  0  0
 17 12  1  0  0  0  0
 18 19  1  0  0  0  0
 18 13  1  0  0  0  0
 19 20  1  0  0  0  0
 21 19  2  0  0  0  0
 22 29  1  0  0  0  0
 22 21  1  0  0  0  0
 23 22  2  0  0  0  0
 24 23  1  0  0  0  0
 25 23  1  0  0  0  0
 25 26  2  0  0  0  0
 26 28  1  0  0  0  0
 27 26  1  0  0  0  0
 28 29  2  0  0  0  0
 29 18  1  0  0  0  0
 30 36  1  1  0  0  0
 30 35  1  0  0  0  0
 31 30  1  0  0  0  0
 31 32  1  0  0  0  0
 32 33  1  0  0  0  0
 33 34  1  0  0  0  0
 33 42  1  0  0  0  0
 33 41  1  0  0  0  0
 34 44  1  0  0  0  0
 35 46  1  0  0  0  0
 35 45  1  1  0  0  0
 35 34  1  0  0  0  0
 37 31  1  0  0  0  0
 38 31  1  0  0  0  0
 39 32  1  0  0  0  0
 40 32  1  0  0  0  0
 43 34  1  0  0  0  0
 46 47  1  0  0  0  0
 47 48  2  0  0  0  0
 49 47  1  0  0  0  0
 49 52  1  0  0  0  0
 50 46  1  0  0  0  0
 51 49  1  0  0  0  0
M  END
>  <minimizedAffinity>
-6.79209471

>  <minimizedRMSD>
0.835695207

$$$$
