
     RDKit          3D

 42 46  0  0  0  0  0  0  0  0999 V2000
   45.6318   34.6221   42.0380 C   0  0  0  0  0  0  0  0  0  0  0  0
   44.8991   35.6495   42.6327 C   0  0  0  0  0  0  0  0  0  0  0  0
   43.5529   35.4965   42.3520 C   0  0  0  0  0  0  0  0  0  0  0  0
   43.4961   34.3983   41.6021 N   0  0  0  0  0  0  0  0  0  0  0  0
   44.7061   33.8874   41.4190 N   0  0  0  0  0  0  0  0  0  0  0  0
   49.3537   35.1348   41.9623 C   0  0  0  0  0  0  0  0  0  0  0  0
   47.9698   35.4534   41.8120 C   0  0  0  0  0  0  0  0  0  0  0  0
   47.0827   34.4541   42.1331 C   0  0  0  0  0  0  0  0  0  0  0  0
   47.5399   33.2422   42.5670 N   0  0  0  0  0  0  0  0  0  0  0  0
   48.8641   32.9872   42.6937 C   0  0  0  0  0  0  0  0  0  0  0  0
   49.7418   33.9408   42.3879 N   0  0  0  0  0  0  0  0  0  0  0  0
   42.3546   33.7371   39.6424 N   0  0  0  0  0  0  0  0  0  0  0  0
   42.2172   33.9262   41.0903 C   0  0  2  0  0  0  0  0  0  0  0  0
   41.1697   34.9232   41.4377 C   0  0  0  0  0  0  0  0  0  0  0  0
   40.3333   35.2678   40.3038 N   0  0  0  0  0  0  0  0  0  0  0  0
   41.0398   35.6387   39.1336 C   0  0  0  0  0  0  0  0  0  0  0  0
   42.4516   35.1146   39.1074 C   0  0  2  0  0  0  0  0  0  0  0  0
   45.4547   36.4100   43.2177 H   0  0  0  0  0  0  0  0  0  0  0  0
   42.9837   36.2906   42.8213 H   0  0  0  0  0  0  0  0  0  0  0  0
   49.9956   35.9866   41.6849 H   0  0  0  0  0  0  0  0  0  0  0  0
   47.6096   36.4126   41.4690 H   0  0  0  0  0  0  0  0  0  0  0  0
   49.1595   32.0159   43.0396 H   0  0  0  0  0  0  0  0  0  0  0  0
   41.4461   33.3179   39.3084 H   0  0  0  0  0  0  0  0  0  0  0  0
   42.0026   32.9546   41.5625 H   0  0  0  0  0  0  0  0  0  0  0  0
   41.5211   35.9246   41.7424 H   0  0  0  0  0  0  0  0  0  0  0  0
   40.4475   34.5358   42.2149 H   0  0  0  0  0  0  0  0  0  0  0  0
   39.6956   36.0386   40.5882 H   0  0  0  0  0  0  0  0  0  0  0  0
   41.0049   36.7081   38.9022 H   0  0  0  0  0  0  0  0  0  0  0  0
   40.5188   35.1387   38.2655 H   0  0  0  0  0  0  0  0  0  0  0  0
   43.0140   35.7313   39.8468 H   0  0  0  0  0  0  0  0  0  0  0  0
   43.0630   35.1491   37.8224 N   0  0  0  0  0  0  0  0  0  0  0  0
   43.5286   36.2870   37.2294 C   0  0  0  0  0  0  0  0  0  0  0  0
   43.4787   37.2899   37.6830 H   0  0  0  0  0  0  0  0  0  0  0  0
   44.0526   36.0381   36.0316 N   0  0  0  0  0  0  0  0  0  0  0  0
   43.9244   34.7054   35.8415 C   0  0  0  0  0  0  0  0  0  0  0  0
   44.2952   33.9056   34.7776 C   0  0  0  0  0  0  0  0  0  0  0  0
   44.7711   34.3861   33.9349 H   0  0  0  0  0  0  0  0  0  0  0  0
   44.0402   32.5857   34.8607 N   0  0  0  0  0  0  0  0  0  0  0  0
   43.4349   32.0429   35.9563 C   0  0  0  0  0  0  0  0  0  0  0  0
   43.2830   30.9735   35.9077 H   0  0  0  0  0  0  0  0  0  0  0  0
   43.0739   32.8440   36.9999 N   0  0  0  0  0  0  0  0  0  0  0  0
   43.3039   34.1643   36.9699 C   0  0  0  0  0  0  0  0  0  0  0  0
  1  8  1  0
  1  2  1  0
  3  2  2  0
  4  3  1  0
  5  4  1  0
  5  1  2  0
  6 11  2  0
  7  6  1  0
  7  8  2  0
  8  9  1  0
  9 10  2  0
 11 10  1  0
 12 13  1  0
 13 14  1  0
 13  4  1  0
 15 14  1  0
 16 15  1  0
 17 16  1  0
 17 12  1  0
  2 18  1  0
  3 19  1  0
  6 20  1  0
  7 21  1  0
 10 22  1  0
 12 23  1  0
 13 24  1  1
 14 25  1  0
 14 26  1  0
 15 27  1  0
 16 28  1  0
 16 29  1  0
 17 30  1  1
 31 32  1  0
 32 33  1  0
 32 34  2  0
 34 35  1  0
 35 36  2  0
 36 37  1  0
 36 38  1  0
 38 39  2  0
 39 40  1  0
 39 41  1  0
 41 42  2  0
 42 31  1  0
 42 35  1  0
 17 31  1  0
M  ISO  8  18  14  19  14  20  14  21  14  22  14  23   5  24  13  25  13
M  ISO  8  26  13  27   5  28  13  29  13  30  13  33  15  37  16  40  16
M  END
>  <DihAtoms>  (1) 
15,16,30,31

>  <DihDeg>  (1) 
105.30461401382398

$$$$
