
 OpenBabel03242511483D

 47 50  0  0  0  0  0  0  0  0999 V2000
   40.3910   25.5050   43.4010 C   0  0  0  0  0  0  0  0  0  0  0  0
   39.7440   26.7350   43.6800 C   0  0  0  0  0  0  0  0  0  0  0  0
   38.4700   26.9010   43.1620 C   0  0  0  0  0  0  0  0  0  0  0  0
   37.9130   25.9130   42.4360 N   0  0  0  0  0  0  0  0  0  0  0  0
   38.5810   24.7620   42.2040 C   0  0  0  0  0  0  0  0  0  0  0  0
   39.7900   24.5470   42.6690 N   0  0  0  0  0  0  0  0  0  0  0  0
   41.3820   25.4030   43.8170 H   0  0  0  0  0  0  0  0  0  0  0  0
   40.2300   27.5090   44.2720 H   0  0  0  0  0  0  0  0  0  0  0  0
   37.8990   23.7290   41.3980 C   0  0  0  0  0  0  0  0  0  0  0  0
   38.3860   23.5800   40.4080 H   0  0  0  0  0  0  0  0  0  0  0  0
   37.9950   22.7690   41.9450 H   0  0  0  0  0  0  0  0  0  0  0  0
   36.4680   24.1370   41.1930 C   0  0  0  0  0  0  0  0  0  0  0  0
   35.8240   23.4940   41.8540 H   0  0  0  0  0  0  0  0  0  0  0  0
   36.2680   25.1790   41.5710 H   0  0  0  0  0  0  0  0  0  0  0  0
   36.0630   24.0820   39.8090 C   0  0  0  0  0  0  0  0  0  0  0  0
   35.6260   23.0040   39.0920 C   0  0  0  0  0  0  0  0  0  0  0  0
   35.2630   23.0480   37.7820 C   0  0  0  0  0  0  0  0  0  0  0  0
   35.3400   24.2660   37.1360 C   0  0  0  0  0  0  0  0  0  0  0  0
   35.7770   25.3600   37.8440 C   0  0  0  0  0  0  0  0  0  0  0  0
   36.1390   25.2800   39.1740 C   0  0  0  0  0  0  0  0  0  0  0  0
   35.5790   22.0540   39.6400 H   0  0  0  0  0  0  0  0  0  0  0  0
   34.9350   22.1320   37.3220 H   0  0  0  0  0  0  0  0  0  0  0  0
   35.0360   24.2460   36.0870 H   0  0  0  0  0  0  0  0  0  0  0  0
   35.7790   26.2410   37.1860 H   0  0  0  0  0  0  0  0  0  0  0  0
   37.8950   26.9490   39.2350 C   0  0  0  0  0  0  0  0  0  0  0  0
   38.8970   26.4490   38.6160 O   0  0  0  0  0  0  0  0  0  0  0  0
   36.5440   26.5930   39.5930 N   0  0  0  0  0  0  0  0  0  0  0  0
   38.3630   27.8950   39.4920 H   0  0  0  0  0  0  0  0  0  0  0  0
   36.0770   27.3600   40.1060 H   0  0  0  0  0  0  0  0  0  0  0  0
   37.8110   28.1890   43.4620 C   0  0  0  0  0  0  0  0  0  0  0  0
   37.7780   28.2770   44.5840 H   0  0  0  0  0  0  0  0  0  0  0  0
   36.7670   28.2140   43.1410 H   0  0  0  0  0  0  0  0  0  0  0  0
   38.6060   29.3710   42.9250 C   0  0  0  0  0  0  0  0  0  0  0  0
   38.9050   29.9880   43.8030 H   0  0  0  0  0  0  0  0  0  0  0  0
   39.5570   28.9650   42.5220 H   0  0  0  0  0  0  0  0  0  0  0  0
   37.8730   30.1110   41.9420 N   0  0  0  0  0  0  0  0  0  0  0  0
   36.6380   29.7660   41.4810 C   0  0  0  0  0  0  0  0  0  0  0  0
   36.0300   28.9160   41.7620 H   0  0  0  0  0  0  0  0  0  0  0  0
   36.2230   30.6750   40.5580 N   0  0  0  0  0  0  0  0  0  0  0  0
   37.2090   31.6090   40.4340 C   0  0  0  0  0  0  0  0  0  0  0  0
   37.3650   32.7490   39.6700 C   0  0  0  0  0  0  0  0  0  0  0  0
   36.5430   33.0000   39.0030 H   0  0  0  0  0  0  0  0  0  0  0  0
   38.4840   33.4740   39.7800 N   0  0  0  0  0  0  0  0  0  0  0  0
   39.4740   33.1180   40.6250 C   0  0  0  0  0  0  0  0  0  0  0  0
   40.3080   33.7870   40.6090 H   0  0  0  0  0  0  0  0  0  0  0  0
   39.3130   31.9940   41.3720 N   0  0  0  0  0  0  0  0  0  0  0  0
   38.2100   31.2400   41.2940 C   0  0  0  0  0  0  0  0  0  0  0  0
  1  2  1  0  0  0  0
  1  7  1  0  0  0  0
  2  8  1  0  0  0  0
  3 30  1  0  0  0  0
  3  2  2  0  0  0  0
  4  3  1  0  0  0  0
  5  4  2  0  0  0  0
  5  6  1  0  0  0  0
  6  1  2  0  0  0  0
  9 11  1  0  0  0  0
  9  5  1  0  0  0  0
 10  9  1  0  0  0  0
 12  9  1  0  0  0  0
 12 14  1  0  0  0  0
 12 13  1  0  0  0  0
 15 12  1  0  0  0  0
 16 21  1  0  0  0  0
 16 15  2  0  0  0  0
 17 16  1  0  0  0  0
 18 17  2  0  0  0  0
 18 19  1  0  0  0  0
 19 20  2  0  0  0  0
 20 27  1  0  0  0  0
 20 15  1  0  0  0  0
 22 17  1  0  0  0  0
 23 18  1  0  0  0  0
 24 19  1  0  0  0  0
 25 28  1  0  0  0  0
 25 27  1  0  0  0  0
 26 25  2  0  0  0  0
 27 29  1  0  0  0  0
 30 31  1  0  0  0  0
 32 30  1  0  0  0  0
 33 30  1  0  0  0  0
 33 34  1  0  0  0  0
 35 33  1  0  0  0  0
 36 33  1  0  0  0  0
 37 38  1  0  0  0  0
 37 36  1  0  0  0  0
 39 37  2  0  0  0  0
 40 39  1  0  0  0  0
 40 47  1  0  0  0  0
 41 43  1  0  0  0  0
 41 40  2  0  0  0  0
 42 41  1  0  0  0  0
 43 44  2  0  0  0  0
 44 46  1  0  0  0  0
 45 44  1  0  0  0  0
 47 46  2  0  0  0  0
 47 36  1  0  0  0  0
M  END
>  <minimizedAffinity>
-5.75006008

$$$$

 OpenBabel03242511483D

 47 50  0  0  0  0  0  0  0  0999 V2000
   37.3690   30.5970   37.3440 C   0  0  0  0  0  0  0  0  0  0  0  0
   37.6970   31.9000   37.7960 C   0  0  0  0  0  0  0  0  0  0  0  0
   37.2510   32.2520   39.0580 C   0  0  0  0  0  0  0  0  0  0  0  0
   36.5460   31.3670   39.7860 N   0  0  0  0  0  0  0  0  0  0  0  0
   36.2640   30.1370   39.3000 C   0  0  0  0  0  0  0  0  0  0  0  0
   36.6600   29.7470   38.1100 N   0  0  0  0  0  0  0  0  0  0  0  0
   37.7290   30.3500   36.3560 H   0  0  0  0  0  0  0  0  0  0  0  0
   38.2710   32.5870   37.1750 H   0  0  0  0  0  0  0  0  0  0  0  0
   35.4840   29.2260   40.1630 C   0  0  0  0  0  0  0  0  0  0  0  0
   35.3640   29.6260   41.1940 H   0  0  0  0  0  0  0  0  0  0  0  0
   34.4660   29.1550   39.7290 H   0  0  0  0  0  0  0  0  0  0  0  0
   36.1810   27.8970   40.2220 C   0  0  0  0  0  0  0  0  0  0  0  0
   35.4080   27.0910   40.0850 H   0  0  0  0  0  0  0  0  0  0  0  0
   36.8740   27.7430   39.3470 H   0  0  0  0  0  0  0  0  0  0  0  0
   36.9490   27.7210   41.4320 C   0  0  0  0  0  0  0  0  0  0  0  0
   36.9050   28.4560   42.5820 C   0  0  0  0  0  0  0  0  0  0  0  0
   37.6710   28.2140   43.6790 C   0  0  0  0  0  0  0  0  0  0  0  0
   38.5520   27.1510   43.6240 C   0  0  0  0  0  0  0  0  0  0  0  0
   38.6080   26.4020   42.4740 C   0  0  0  0  0  0  0  0  0  0  0  0
   37.8150   26.6760   41.3770 C   0  0  0  0  0  0  0  0  0  0  0  0
   36.1930   29.2920   42.5880 H   0  0  0  0  0  0  0  0  0  0  0  0
   37.5500   28.8620   44.5300 H   0  0  0  0  0  0  0  0  0  0  0  0
   39.1420   27.0010   44.5300 H   0  0  0  0  0  0  0  0  0  0  0  0
   39.3540   25.6030   42.5960 H   0  0  0  0  0  0  0  0  0  0  0  0
   37.3320   24.5090   40.4070 C   0  0  0  0  0  0  0  0  0  0  0  0
   36.3700   24.0090   41.0880 O   0  0  0  0  0  0  0  0  0  0  0  0
   38.1300   25.7100   40.3620 N   0  0  0  0  0  0  0  0  0  0  0  0
   37.4530   23.6720   39.7260 H   0  0  0  0  0  0  0  0  0  0  0  0
   38.8150   25.6760   39.5880 H   0  0  0  0  0  0  0  0  0  0  0  0
   37.6020   33.6140   39.5130 C   0  0  0  0  0  0  0  0  0  0  0  0
   36.6320   34.1330   39.7470 H   0  0  0  0  0  0  0  0  0  0  0  0
   38.0680   34.2150   38.7270 H   0  0  0  0  0  0  0  0  0  0  0  0
   38.4360   33.5880   40.7860 C   0  0  0  0  0  0  0  0  0  0  0  0
   38.4190   34.6190   41.2070 H   0  0  0  0  0  0  0  0  0  0  0  0
   37.8850   32.9680   41.5230 H   0  0  0  0  0  0  0  0  0  0  0  0
   39.7620   33.1000   40.5520 N   0  0  0  0  0  0  0  0  0  0  0  0
   40.7110   33.7610   39.8310 C   0  0  0  0  0  0  0  0  0  0  0  0
   40.6310   34.7210   39.3370 H   0  0  0  0  0  0  0  0  0  0  0  0
   41.8560   33.0280   39.8000 N   0  0  0  0  0  0  0  0  0  0  0  0
   41.6290   31.8870   40.5110 C   0  0  0  0  0  0  0  0  0  0  0  0
   42.3940   30.7800   40.8260 C   0  0  0  0  0  0  0  0  0  0  0  0
   43.4130   30.7720   40.4450 H   0  0  0  0  0  0  0  0  0  0  0  0
   41.8670   29.7970   41.5630 N   0  0  0  0  0  0  0  0  0  0  0  0
   40.5950   29.8560   42.0110 C   0  0  0  0  0  0  0  0  0  0  0  0
   40.3060   29.0030   42.5870 H   0  0  0  0  0  0  0  0  0  0  0  0
   39.8490   30.9480   41.6960 N   0  0  0  0  0  0  0  0  0  0  0  0
   40.3370   31.9540   40.9610 C   0  0  0  0  0  0  0  0  0  0  0  0
  1  2  2  0  0  0  0
  1  6  1  0  0  0  0
  2  3  1  0  0  0  0
  3 30  1  0  0  0  0
  3  4  2  0  0  0  0
  5  4  1  0  0  0  0
  5  9  1  0  0  0  0
  6  5  2  0  0  0  0
  7  1  1  0  0  0  0
  8  2  1  0  0  0  0
  9 12  1  0  0  0  0
  9 10  1  0  0  0  0
 11  9  1  0  0  0  0
 12 15  1  0  0  0  0
 13 12  1  0  0  0  0
 14 12  1  0  0  0  0
 15 16  1  0  0  0  0
 16 21  1  0  0  0  0
 16 17  2  0  0  0  0
 17 22  1  0  0  0  0
 18 17  1  0  0  0  0
 18 23  1  0  0  0  0
 19 24  1  0  0  0  0
 19 18  2  0  0  0  0
 20 15  2  0  0  0  0
 20 19  1  0  0  0  0
 25 26  2  0  0  0  0
 27 25  1  0  0  0  0
 27 20  1  0  0  0  0
 28 25  1  0  0  0  0
 29 27  1  0  0  0  0
 30 31  1  0  0  0  0
 30 33  1  0  0  0  0
 32 30  1  0  0  0  0
 33 34  1  0  0  0  0
 33 35  1  0  0  0  0
 36 33  1  0  0  0  0
 36 47  1  0  0  0  0
 37 36  1  0  0  0  0
 38 37  1  0  0  0  0
 39 37  2  0  0  0  0
 39 40  1  0  0  0  0
 40 41  2  0  0  0  0
 40 47  1  0  0  0  0
 41 43  1  0  0  0  0
 42 41  1  0  0  0  0
 43 44  2  0  0  0  0
 44 45  1  0  0  0  0
 46 44  1  0  0  0  0
 47 46  2  0  0  0  0
M  END
>  <minimizedAffinity>
-5.63635445

$$$$

 OpenBabel03242511483D

 47 50  0  0  0  0  0  0  0  0999 V2000
   36.8580   29.5230   37.2110 C   0  0  0  0  0  0  0  0  0  0  0  0
   36.9390   30.7520   37.9120 C   0  0  0  0  0  0  0  0  0  0  0  0
   36.8890   30.6870   39.2940 C   0  0  0  0  0  0  0  0  0  0  0  0
   36.7710   29.4900   39.8990 N   0  0  0  0  0  0  0  0  0  0  0  0
   36.6980   28.3510   39.1760 C   0  0  0  0  0  0  0  0  0  0  0  0
   36.7400   28.3510   37.8640 N   0  0  0  0  0  0  0  0  0  0  0  0
   36.8980   29.6040   36.1360 H   0  0  0  0  0  0  0  0  0  0  0  0
   37.0350   31.7000   37.3840 H   0  0  0  0  0  0  0  0  0  0  0  0
   36.5690   27.0800   39.9180 C   0  0  0  0  0  0  0  0  0  0  0  0
   35.6410   26.5280   39.6460 H   0  0  0  0  0  0  0  0  0  0  0  0
   37.4200   26.4350   39.6160 H   0  0  0  0  0  0  0  0  0  0  0  0
   36.5610   27.3740   41.3910 C   0  0  0  0  0  0  0  0  0  0  0  0
   36.5270   28.4910   41.5230 H   0  0  0  0  0  0  0  0  0  0  0  0
   35.6110   27.0260   41.8860 H   0  0  0  0  0  0  0  0  0  0  0  0
   37.6720   26.7710   42.0880 C   0  0  0  0  0  0  0  0  0  0  0  0
   38.1410   25.4920   41.9960 C   0  0  0  0  0  0  0  0  0  0  0  0
   39.2030   25.0100   42.6970 C   0  0  0  0  0  0  0  0  0  0  0  0
   39.8480   25.8760   43.5590 C   0  0  0  0  0  0  0  0  0  0  0  0
   39.3870   27.1660   43.6620 C   0  0  0  0  0  0  0  0  0  0  0  0
   38.3050   27.6220   42.9350 C   0  0  0  0  0  0  0  0  0  0  0  0
   37.6030   24.8340   41.3010 H   0  0  0  0  0  0  0  0  0  0  0  0
   39.4820   23.9820   42.5410 H   0  0  0  0  0  0  0  0  0  0  0  0
   40.6930   25.4390   44.0950 H   0  0  0  0  0  0  0  0  0  0  0  0
   40.0080   27.7160   44.3840 H   0  0  0  0  0  0  0  0  0  0  0  0
   38.9210   29.9360   42.5600 C   0  0  0  0  0  0  0  0  0  0  0  0
   39.8140   29.9330   41.6420 O   0  0  0  0  0  0  0  0  0  0  0  0
   38.0980   29.0000   43.2850 N   0  0  0  0  0  0  0  0  0  0  0  0
   38.9040   31.0110   42.7160 H   0  0  0  0  0  0  0  0  0  0  0  0
   37.4790   29.4860   43.9560 H   0  0  0  0  0  0  0  0  0  0  0  0
   36.9760   31.9780   40.0080 C   0  0  0  0  0  0  0  0  0  0  0  0
   37.5220   31.7750   40.9700 H   0  0  0  0  0  0  0  0  0  0  0  0
   35.9970   32.3610   40.3090 H   0  0  0  0  0  0  0  0  0  0  0  0
   37.7780   33.0060   39.2230 C   0  0  0  0  0  0  0  0  0  0  0  0
   37.6090   32.7950   38.1430 H   0  0  0  0  0  0  0  0  0  0  0  0
   37.3040   33.9930   39.4020 H   0  0  0  0  0  0  0  0  0  0  0  0
   39.1640   32.9970   39.5860 N   0  0  0  0  0  0  0  0  0  0  0  0
   39.6450   33.3870   40.8000 C   0  0  0  0  0  0  0  0  0  0  0  0
   39.0920   33.7520   41.6560 H   0  0  0  0  0  0  0  0  0  0  0  0
   40.9990   33.2570   40.8190 N   0  0  0  0  0  0  0  0  0  0  0  0
   41.3800   32.7780   39.6000 C   0  0  0  0  0  0  0  0  0  0  0  0
   42.5960   32.4500   39.0310 C   0  0  0  0  0  0  0  0  0  0  0  0
   43.4750   32.5870   39.6560 H   0  0  0  0  0  0  0  0  0  0  0  0
   42.6380   31.9930   37.7750 N   0  0  0  0  0  0  0  0  0  0  0  0
   41.5160   31.8410   37.0410 C   0  0  0  0  0  0  0  0  0  0  0  0
   41.6980   31.4670   36.0560 H   0  0  0  0  0  0  0  0  0  0  0  0
   40.3240   32.1660   37.6090 N   0  0  0  0  0  0  0  0  0  0  0  0
   40.2360   32.6270   38.8620 C   0  0  0  0  0  0  0  0  0  0  0  0
  1  6  2  0  0  0  0
  1  2  1  0  0  0  0
  2  3  2  0  0  0  0
  3  4  1  0  0  0  0
  3 30  1  0  0  0  0
  5  4  2  0  0  0  0
  5  9  1  0  0  0  0
  6  5  1  0  0  0  0
  7  1  1  0  0  0  0
  8  2  1  0  0  0  0
  9 12  1  0  0  0  0
 10  9  1  0  0  0  0
 11  9  1  0  0  0  0
 12 13  1  0  0  0  0
 12 14  1  0  0  0  0
 12 15  1  0  0  0  0
 15 20  1  0  0  0  0
 16 15  2  0  0  0  0
 16 17  1  0  0  0  0
 17 18  2  0  0  0  0
 18 19  1  0  0  0  0
 18 23  1  0  0  0  0
 19 24  1  0  0  0  0
 20 27  1  0  0  0  0
 20 19  2  0  0  0  0
 21 16  1  0  0  0  0
 22 17  1  0  0  0  0
 25 28  1  0  0  0  0
 25 27  1  0  0  0  0
 26 25  2  0  0  0  0
 27 29  1  0  0  0  0
 30 32  1  0  0  0  0
 30 31  1  0  0  0  0
 33 35  1  0  0  0  0
 33 36  1  0  0  0  0
 33 30  1  0  0  0  0
 34 33  1  0  0  0  0
 36 37  1  0  0  0  0
 37 39  2  0  0  0  0
 37 38  1  0  0  0  0
 40 39  1  0  0  0  0
 41 40  1  0  0  0  0
 41 42  1  0  0  0  0
 43 41  2  0  0  0  0
 44 46  2  0  0  0  0
 44 43  1  0  0  0  0
 45 44  1  0  0  0  0
 46 47  1  0  0  0  0
 47 36  1  0  0  0  0
 47 40  2  0  0  0  0
M  END
>  <minimizedAffinity>
-5.57094479

$$$$

 OpenBabel03242511483D

 47 50  0  0  0  0  0  0  0  0999 V2000
   36.5780   28.8630   38.8970 C   0  0  0  0  0  0  0  0  0  0  0  0
   36.6990   30.2720   38.9820 C   0  0  0  0  0  0  0  0  0  0  0  0
   36.8050   30.8140   40.2520 C   0  0  0  0  0  0  0  0  0  0  0  0
   36.7910   30.0010   41.3250 N   0  0  0  0  0  0  0  0  0  0  0  0
   36.6720   28.6630   41.1800 C   0  0  0  0  0  0  0  0  0  0  0  0
   36.5680   28.0920   40.0020 N   0  0  0  0  0  0  0  0  0  0  0  0
   36.4970   28.4680   37.8960 H   0  0  0  0  0  0  0  0  0  0  0  0
   36.7080   30.8950   38.0880 H   0  0  0  0  0  0  0  0  0  0  0  0
   36.6640   27.8420   42.4090 C   0  0  0  0  0  0  0  0  0  0  0  0
   35.6620   27.8230   42.8930 H   0  0  0  0  0  0  0  0  0  0  0  0
   36.8910   26.7990   42.1080 H   0  0  0  0  0  0  0  0  0  0  0  0
   37.6730   28.3990   43.3720 C   0  0  0  0  0  0  0  0  0  0  0  0
   37.8050   29.4930   43.1460 H   0  0  0  0  0  0  0  0  0  0  0  0
   37.2910   28.3970   44.4320 H   0  0  0  0  0  0  0  0  0  0  0  0
   38.9240   27.6780   43.3500 C   0  0  0  0  0  0  0  0  0  0  0  0
   39.1620   26.3740   43.6800 C   0  0  0  0  0  0  0  0  0  0  0  0
   40.3820   25.7780   43.6270 C   0  0  0  0  0  0  0  0  0  0  0  0
   41.4530   26.5450   43.2120 C   0  0  0  0  0  0  0  0  0  0  0  0
   41.2300   27.8590   42.8770 C   0  0  0  0  0  0  0  0  0  0  0  0
   39.9760   28.4330   42.9420 C   0  0  0  0  0  0  0  0  0  0  0  0
   38.2860   25.7970   44.0050 H   0  0  0  0  0  0  0  0  0  0  0  0
   40.4480   24.7420   43.9110 H   0  0  0  0  0  0  0  0  0  0  0  0
   42.4090   26.0180   43.1870 H   0  0  0  0  0  0  0  0  0  0  0  0
   42.1800   28.3220   42.5700 H   0  0  0  0  0  0  0  0  0  0  0  0
   40.1820   29.9970   41.1020 C   0  0  0  0  0  0  0  0  0  0  0  0
   40.1540   29.3040   40.0270 O   0  0  0  0  0  0  0  0  0  0  0  0
   40.1050   29.8030   42.5290 N   0  0  0  0  0  0  0  0  0  0  0  0
   40.3000   30.9660   40.6250 H   0  0  0  0  0  0  0  0  0  0  0  0
   40.1580   30.7040   43.0340 H   0  0  0  0  0  0  0  0  0  0  0  0
   36.9310   32.2850   40.3210 C   0  0  0  0  0  0  0  0  0  0  0  0
   37.5170   32.5120   41.2540 H   0  0  0  0  0  0  0  0  0  0  0  0
   35.9690   32.7850   40.4570 H   0  0  0  0  0  0  0  0  0  0  0  0
   37.7060   32.8430   39.1360 C   0  0  0  0  0  0  0  0  0  0  0  0
   37.5590   32.1350   38.2880 H   0  0  0  0  0  0  0  0  0  0  0  0
   37.1940   33.7760   38.8230 H   0  0  0  0  0  0  0  0  0  0  0  0
   39.0860   33.0620   39.4500 N   0  0  0  0  0  0  0  0  0  0  0  0
   39.5290   33.7110   40.5640 C   0  0  0  0  0  0  0  0  0  0  0  0
   38.9450   34.1520   41.3610 H   0  0  0  0  0  0  0  0  0  0  0  0
   40.8890   33.7480   40.5620 N   0  0  0  0  0  0  0  0  0  0  0  0
   41.3130   33.1120   39.4330 C   0  0  0  0  0  0  0  0  0  0  0  0
   42.5530   32.8370   38.8900 C   0  0  0  0  0  0  0  0  0  0  0  0
   43.4160   33.1830   39.4550 H   0  0  0  0  0  0  0  0  0  0  0  0
   42.6390   32.1750   37.7320 N   0  0  0  0  0  0  0  0  0  0  0  0
   41.5350   31.7650   37.0700 C   0  0  0  0  0  0  0  0  0  0  0  0
   41.7520   31.2500   36.1590 H   0  0  0  0  0  0  0  0  0  0  0  0
   40.3180   32.0410   37.6110 N   0  0  0  0  0  0  0  0  0  0  0  0
   40.1880   32.7000   38.7680 C   0  0  0  0  0  0  0  0  0  0  0  0
  1  2  2  0  0  0  0
  1  6  1  0  0  0  0
  2  3  1  0  0  0  0
  3 30  1  0  0  0  0
  3  4  2  0  0  0  0
  5  4  1  0  0  0  0
  5  9  1  0  0  0  0
  6  5  2  0  0  0  0
  7  1  1  0  0  0  0
  8  2  1  0  0  0  0
  9 10  1  0  0  0  0
  9 12  1  0  0  0  0
 11  9  1  0  0  0  0
 12 14  1  0  0  0  0
 13 12  1  0  0  0  0
 15 12  1  0  0  0  0
 15 16  1  0  0  0  0
 16 21  1  0  0  0  0
 17 16  2  0  0  0  0
 17 22  1  0  0  0  0
 18 17  1  0  0  0  0
 19 20  1  0  0  0  0
 19 18  2  0  0  0  0
 20 15  2  0  0  0  0
 23 18  1  0  0  0  0
 24 19  1  0  0  0  0
 25 27  1  0  0  0  0
 26 25  2  0  0  0  0
 27 20  1  0  0  0  0
 27 29  1  0  0  0  0
 28 25  1  0  0  0  0
 30 32  1  0  0  0  0
 30 31  1  0  0  0  0
 33 36  1  0  0  0  0
 33 30  1  0  0  0  0
 34 33  1  0  0  0  0
 35 33  1  0  0  0  0
 36 37  1  0  0  0  0
 37 38  1  0  0  0  0
 39 37  2  0  0  0  0
 40 39  1  0  0  0  0
 41 40  1  0  0  0  0
 41 42  1  0  0  0  0
 43 41  2  0  0  0  0
 44 46  2  0  0  0  0
 44 43  1  0  0  0  0
 45 44  1  0  0  0  0
 46 47  1  0  0  0  0
 47 40  2  0  0  0  0
 47 36  1  0  0  0  0
M  END
>  <minimizedAffinity>
-5.56670666

$$$$

 OpenBabel03242511483D

 47 50  0  0  0  0  0  0  0  0999 V2000
   37.3690   24.2180   40.9140 C   0  0  0  0  0  0  0  0  0  0  0  0
   37.0290   24.7040   39.6270 C   0  0  0  0  0  0  0  0  0  0  0  0
   36.6890   26.0430   39.5360 C   0  0  0  0  0  0  0  0  0  0  0  0
   36.6970   26.8080   40.6430 N   0  0  0  0  0  0  0  0  0  0  0  0
   37.0290   26.2860   41.8450 C   0  0  0  0  0  0  0  0  0  0  0  0
   37.3600   25.0240   41.9930 N   0  0  0  0  0  0  0  0  0  0  0  0
   37.6280   23.1710   40.9550 H   0  0  0  0  0  0  0  0  0  0  0  0
   37.0360   24.0520   38.7550 H   0  0  0  0  0  0  0  0  0  0  0  0
   37.0120   27.1930   43.0110 C   0  0  0  0  0  0  0  0  0  0  0  0
   36.6860   28.2220   42.7360 H   0  0  0  0  0  0  0  0  0  0  0  0
   36.2560   26.8000   43.7210 H   0  0  0  0  0  0  0  0  0  0  0  0
   38.3900   27.2490   43.6050 C   0  0  0  0  0  0  0  0  0  0  0  0
   38.2860   27.2700   44.7250 H   0  0  0  0  0  0  0  0  0  0  0  0
   38.9700   26.3030   43.4160 H   0  0  0  0  0  0  0  0  0  0  0  0
   39.1700   28.3560   43.1050 C   0  0  0  0  0  0  0  0  0  0  0  0
   38.8350   29.6790   43.0530 C   0  0  0  0  0  0  0  0  0  0  0  0
   39.6420   30.6580   42.5610 C   0  0  0  0  0  0  0  0  0  0  0  0
   40.8830   30.2850   42.0840 C   0  0  0  0  0  0  0  0  0  0  0  0
   41.2350   28.9580   42.1300 C   0  0  0  0  0  0  0  0  0  0  0  0
   40.3910   27.9900   42.6360 C   0  0  0  0  0  0  0  0  0  0  0  0
   37.8410   29.9360   43.4410 H   0  0  0  0  0  0  0  0  0  0  0  0
   39.2690   31.6670   42.5710 H   0  0  0  0  0  0  0  0  0  0  0  0
   41.4900   31.1090   41.7020 H   0  0  0  0  0  0  0  0  0  0  0  0
   42.2460   28.8360   41.7140 H   0  0  0  0  0  0  0  0  0  0  0  0
   40.8460   26.0280   41.2870 C   0  0  0  0  0  0  0  0  0  0  0  0
   40.2210   26.1900   40.1820 O   0  0  0  0  0  0  0  0  0  0  0  0
   41.0670   26.7270   42.5300 N   0  0  0  0  0  0  0  0  0  0  0  0
   41.2670   25.0550   41.0530 H   0  0  0  0  0  0  0  0  0  0  0  0
   41.6900   26.1900   43.1560 H   0  0  0  0  0  0  0  0  0  0  0  0
   36.3390   26.5330   38.1860 C   0  0  0  0  0  0  0  0  0  0  0  0
   35.7890   25.6950   37.6750 H   0  0  0  0  0  0  0  0  0  0  0  0
   37.2170   26.7220   37.5640 H   0  0  0  0  0  0  0  0  0  0  0  0
   35.4060   27.7350   38.2450 C   0  0  0  0  0  0  0  0  0  0  0  0
   34.5810   27.5420   37.5220 H   0  0  0  0  0  0  0  0  0  0  0  0
   34.9230   27.7220   39.2440 H   0  0  0  0  0  0  0  0  0  0  0  0
   36.0970   28.9640   37.9930 N   0  0  0  0  0  0  0  0  0  0  0  0
   36.6320   29.3150   36.7890 C   0  0  0  0  0  0  0  0  0  0  0  0
   36.6290   28.7540   35.8640 H   0  0  0  0  0  0  0  0  0  0  0  0
   37.2140   30.5400   36.8870 N   0  0  0  0  0  0  0  0  0  0  0  0
   37.0450   30.9710   38.1690 C   0  0  0  0  0  0  0  0  0  0  0  0
   37.4100   32.1120   38.8580 C   0  0  0  0  0  0  0  0  0  0  0  0
   37.9550   32.8650   38.2930 H   0  0  0  0  0  0  0  0  0  0  0  0
   37.0860   32.2400   40.1490 N   0  0  0  0  0  0  0  0  0  0  0  0
   36.4080   31.2750   40.8050 C   0  0  0  0  0  0  0  0  0  0  0  0
   36.2180   31.5090   41.8310 H   0  0  0  0  0  0  0  0  0  0  0  0
   36.0530   30.1540   40.1200 N   0  0  0  0  0  0  0  0  0  0  0  0
   36.3560   29.9870   38.8280 C   0  0  0  0  0  0  0  0  0  0  0  0
  1  7  1  0  0  0  0
  1  6  1  0  0  0  0
  2  1  2  0  0  0  0
  3  2  1  0  0  0  0
  3  4  2  0  0  0  0
  4  5  1  0  0  0  0
  5  6  2  0  0  0  0
  5  9  1  0  0  0  0
  8  2  1  0  0  0  0
  9 12  1  0  0  0  0
  9 11  1  0  0  0  0
 10  9  1  0  0  0  0
 12 13  1  0  0  0  0
 14 12  1  0  0  0  0
 15 12  1  0  0  0  0
 16 15  1  0  0  0  0
 16 21  1  0  0  0  0
 17 22  1  0  0  0  0
 17 16  2  0  0  0  0
 18 19  2  0  0  0  0
 18 17  1  0  0  0  0
 19 20  1  0  0  0  0
 20 15  2  0  0  0  0
 23 18  1  0  0  0  0
 24 19  1  0  0  0  0
 25 27  1  0  0  0  0
 26 25  2  0  0  0  0
 27 20  1  0  0  0  0
 27 29  1  0  0  0  0
 28 25  1  0  0  0  0
 30 33  1  0  0  0  0
 30  3  1  0  0  0  0
 31 30  1  0  0  0  0
 32 30  1  0  0  0  0
 33 35  1  0  0  0  0
 34 33  1  0  0  0  0
 36 33  1  0  0  0  0
 36 47  1  0  0  0  0
 37 39  2  0  0  0  0
 37 36  1  0  0  0  0
 38 37  1  0  0  0  0
 39 40  1  0  0  0  0
 40 47  2  0  0  0  0
 40 41  1  0  0  0  0
 41 43  2  0  0  0  0
 42 41  1  0  0  0  0
 43 44  1  0  0  0  0
 44 45  1  0  0  0  0
 46 44  2  0  0  0  0
 47 46  1  0  0  0  0
M  END
>  <minimizedAffinity>
-5.45211267

$$$$

 OpenBabel03242511483D

 47 50  0  0  0  0  0  0  0  0999 V2000
   36.6410   30.5310   40.8800 C   0  0  0  0  0  0  0  0  0  0  0  0
   37.2770   29.4930   41.6050 C   0  0  0  0  0  0  0  0  0  0  0  0
   38.5420   29.7610   42.0990 C   0  0  0  0  0  0  0  0  0  0  0  0
   39.1010   30.9660   41.8770 N   0  0  0  0  0  0  0  0  0  0  0  0
   38.4440   31.9170   41.1770 C   0  0  0  0  0  0  0  0  0  0  0  0
   37.2430   31.7200   40.6850 N   0  0  0  0  0  0  0  0  0  0  0  0
   35.6560   30.2940   40.5070 H   0  0  0  0  0  0  0  0  0  0  0  0
   36.7900   28.5310   41.7630 H   0  0  0  0  0  0  0  0  0  0  0  0
   39.1280   33.2120   40.9780 C   0  0  0  0  0  0  0  0  0  0  0  0
   38.6080   34.0450   41.5020 H   0  0  0  0  0  0  0  0  0  0  0  0
   40.1330   33.1260   41.4390 H   0  0  0  0  0  0  0  0  0  0  0  0
   39.1890   33.5090   39.5080 C   0  0  0  0  0  0  0  0  0  0  0  0
   38.3030   33.0210   39.0160 H   0  0  0  0  0  0  0  0  0  0  0  0
   39.0360   34.6040   39.2910 H   0  0  0  0  0  0  0  0  0  0  0  0
   40.4400   33.1090   38.9080 C   0  0  0  0  0  0  0  0  0  0  0  0
   41.7110   33.4250   39.2970 C   0  0  0  0  0  0  0  0  0  0  0  0
   42.8370   32.9980   38.6660 C   0  0  0  0  0  0  0  0  0  0  0  0
   42.6830   32.1890   37.5570 C   0  0  0  0  0  0  0  0  0  0  0  0
   41.4110   31.8610   37.1530 C   0  0  0  0  0  0  0  0  0  0  0  0
   40.2880   32.3130   37.8180 C   0  0  0  0  0  0  0  0  0  0  0  0
   41.7920   34.0700   40.1820 H   0  0  0  0  0  0  0  0  0  0  0  0
   43.7860   33.3130   39.0650 H   0  0  0  0  0  0  0  0  0  0  0  0
   43.6180   31.8740   37.0900 H   0  0  0  0  0  0  0  0  0  0  0  0
   41.4670   31.2170   36.2640 H   0  0  0  0  0  0  0  0  0  0  0  0
   38.7070   30.4900   37.5900 C   0  0  0  0  0  0  0  0  0  0  0  0
   39.0270   29.6160   38.4680 O   0  0  0  0  0  0  0  0  0  0  0  0
   39.1390   31.7890   37.1330 N   0  0  0  0  0  0  0  0  0  0  0  0
   37.8690   29.9440   37.1670 H   0  0  0  0  0  0  0  0  0  0  0  0
   38.5360   32.1370   36.3690 H   0  0  0  0  0  0  0  0  0  0  0  0
   39.1900   28.6670   42.8530 C   0  0  0  0  0  0  0  0  0  0  0  0
   39.6240   29.1320   43.7810 H   0  0  0  0  0  0  0  0  0  0  0  0
   40.0430   28.2360   42.3220 H   0  0  0  0  0  0  0  0  0  0  0  0
   38.1870   27.6080   43.2860 C   0  0  0  0  0  0  0  0  0  0  0  0
   38.0530   27.7180   44.3860 H   0  0  0  0  0  0  0  0  0  0  0  0
   37.2080   27.8890   42.8470 H   0  0  0  0  0  0  0  0  0  0  0  0
   38.5950   26.2900   42.9000 N   0  0  0  0  0  0  0  0  0  0  0  0
   39.6490   25.6190   43.4450 C   0  0  0  0  0  0  0  0  0  0  0  0
   40.3250   25.9490   44.2220 H   0  0  0  0  0  0  0  0  0  0  0  0
   39.7660   24.3970   42.8580 N   0  0  0  0  0  0  0  0  0  0  0  0
   38.7720   24.2930   41.9300 C   0  0  0  0  0  0  0  0  0  0  0  0
   38.3860   23.3110   41.0380 C   0  0  0  0  0  0  0  0  0  0  0  0
   38.9760   22.3980   41.0400 H   0  0  0  0  0  0  0  0  0  0  0  0
   37.3370   23.5190   40.2360 N   0  0  0  0  0  0  0  0  0  0  0  0
   36.6370   24.6730   40.2740 C   0  0  0  0  0  0  0  0  0  0  0  0
   35.8250   24.7020   39.5800 H   0  0  0  0  0  0  0  0  0  0  0  0
   37.0240   25.6340   41.1550 N   0  0  0  0  0  0  0  0  0  0  0  0
   38.0670   25.4680   41.9750 C   0  0  0  0  0  0  0  0  0  0  0  0
  1  2  1  0  0  0  0
  2  8  1  0  0  0  0
  2  3  2  0  0  0  0
  3 30  1  0  0  0  0
  4  3  1  0  0  0  0
  5  4  2  0  0  0  0
  6  1  2  0  0  0  0
  6  5  1  0  0  0  0
  7  1  1  0  0  0  0
  9  5  1  0  0  0  0
  9 11  1  0  0  0  0
  9 10  1  0  0  0  0
 12  9  1  0  0  0  0
 13 12  1  0  0  0  0
 14 12  1  0  0  0  0
 15 16  1  0  0  0  0
 15 12  1  0  0  0  0
 16 21  1  0  0  0  0
 17 22  1  0  0  0  0
 17 16  2  0  0  0  0
 18 17  1  0  0  0  0
 19 18  2  0  0  0  0
 19 20  1  0  0  0  0
 20 15  2  0  0  0  0
 23 18  1  0  0  0  0
 24 19  1  0  0  0  0
 25 26  2  0  0  0  0
 27 25  1  0  0  0  0
 27 20  1  0  0  0  0
 28 25  1  0  0  0  0
 29 27  1  0  0  0  0
 30 33  1  0  0  0  0
 30 31  1  0  0  0  0
 32 30  1  0  0  0  0
 33 34  1  0  0  0  0
 35 33  1  0  0  0  0
 36 33  1  0  0  0  0
 36 37  1  0  0  0  0
 37 38  1  0  0  0  0
 39 37  2  0  0  0  0
 40 47  1  0  0  0  0
 40 39  1  0  0  0  0
 41 42  1  0  0  0  0
 41 40  2  0  0  0  0
 43 44  2  0  0  0  0
 43 41  1  0  0  0  0
 44 46  1  0  0  0  0
 45 44  1  0  0  0  0
 46 47  2  0  0  0  0
 47 36  1  0  0  0  0
M  END
>  <minimizedAffinity>
-5.44930887

$$$$

 OpenBabel03242511483D

 47 50  0  0  0  0  0  0  0  0999 V2000
   37.3290   30.7810   36.8670 C   0  0  0  0  0  0  0  0  0  0  0  0
   36.7410   29.6580   37.5010 C   0  0  0  0  0  0  0  0  0  0  0  0
   36.4180   29.7940   38.8400 C   0  0  0  0  0  0  0  0  0  0  0  0
   36.6670   30.9580   39.4680 N   0  0  0  0  0  0  0  0  0  0  0  0
   37.2310   31.9960   38.8100 C   0  0  0  0  0  0  0  0  0  0  0  0
   37.5580   31.9250   37.5410 N   0  0  0  0  0  0  0  0  0  0  0  0
   37.5710   30.6460   35.8240 H   0  0  0  0  0  0  0  0  0  0  0  0
   36.5560   28.7330   36.9550 H   0  0  0  0  0  0  0  0  0  0  0  0
   37.4710   33.2380   39.5740 C   0  0  0  0  0  0  0  0  0  0  0  0
   37.8680   34.0550   38.9300 H   0  0  0  0  0  0  0  0  0  0  0  0
   36.4880   33.5840   39.9550 H   0  0  0  0  0  0  0  0  0  0  0  0
   38.4500   32.9500   40.6750 C   0  0  0  0  0  0  0  0  0  0  0  0
   38.2120   33.6290   41.5400 H   0  0  0  0  0  0  0  0  0  0  0  0
   38.3090   31.9200   41.1080 H   0  0  0  0  0  0  0  0  0  0  0  0
   39.8240   33.0680   40.2470 C   0  0  0  0  0  0  0  0  0  0  0  0
   40.4510   34.1420   39.6840 C   0  0  0  0  0  0  0  0  0  0  0  0
   41.7590   34.1610   39.3110 C   0  0  0  0  0  0  0  0  0  0  0  0
   42.5010   33.0140   39.5170 C   0  0  0  0  0  0  0  0  0  0  0  0
   41.8840   31.9240   40.0830 C   0  0  0  0  0  0  0  0  0  0  0  0
   40.5530   31.9400   40.4500 C   0  0  0  0  0  0  0  0  0  0  0  0
   39.8290   35.0340   39.5360 H   0  0  0  0  0  0  0  0  0  0  0  0
   42.1440   35.0670   38.8760 H   0  0  0  0  0  0  0  0  0  0  0  0
   43.5440   33.0830   39.2010 H   0  0  0  0  0  0  0  0  0  0  0  0
   42.6100   31.1040   40.1770 H   0  0  0  0  0  0  0  0  0  0  0  0
   40.0100   29.6180   40.0200 C   0  0  0  0  0  0  0  0  0  0  0  0
   40.0120   29.4700   38.7490 O   0  0  0  0  0  0  0  0  0  0  0  0
   40.2400   30.6500   41.0010 N   0  0  0  0  0  0  0  0  0  0  0  0
   39.7440   28.5930   40.2660 H   0  0  0  0  0  0  0  0  0  0  0  0
   40.1380   30.2840   41.9620 H   0  0  0  0  0  0  0  0  0  0  0  0
   35.8060   28.6130   39.4830 C   0  0  0  0  0  0  0  0  0  0  0  0
   36.5480   27.7730   39.3820 H   0  0  0  0  0  0  0  0  0  0  0  0
   34.9080   28.2670   38.9650 H   0  0  0  0  0  0  0  0  0  0  0  0
   35.5610   28.8410   40.9680 C   0  0  0  0  0  0  0  0  0  0  0  0
   35.2570   29.9060   41.0880 H   0  0  0  0  0  0  0  0  0  0  0  0
   34.6620   28.2530   41.2430 H   0  0  0  0  0  0  0  0  0  0  0  0
   36.7010   28.4900   41.7620 N   0  0  0  0  0  0  0  0  0  0  0  0
   37.3970   29.3660   42.5400 C   0  0  0  0  0  0  0  0  0  0  0  0
   37.2190   30.4240   42.6850 H   0  0  0  0  0  0  0  0  0  0  0  0
   38.4170   28.7150   43.1610 N   0  0  0  0  0  0  0  0  0  0  0  0
   38.3660   27.4100   42.7720 C   0  0  0  0  0  0  0  0  0  0  0  0
   39.1200   26.2880   43.0580 C   0  0  0  0  0  0  0  0  0  0  0  0
   39.9520   26.4280   43.7450 H   0  0  0  0  0  0  0  0  0  0  0  0
   38.8050   25.1160   42.4980 N   0  0  0  0  0  0  0  0  0  0  0  0
   37.7600   24.9960   41.6520 C   0  0  0  0  0  0  0  0  0  0  0  0
   37.6250   24.0030   41.2800 H   0  0  0  0  0  0  0  0  0  0  0  0
   37.0230   26.1050   41.3740 N   0  0  0  0  0  0  0  0  0  0  0  0
   37.3040   27.2970   41.9130 C   0  0  0  0  0  0  0  0  0  0  0  0
  1  2  2  0  0  0  0
  1  6  1  0  0  0  0
  2  3  1  0  0  0  0
  3  4  2  0  0  0  0
  3 30  1  0  0  0  0
  5  4  1  0  0  0  0
  5  9  1  0  0  0  0
  6  5  2  0  0  0  0
  7  1  1  0  0  0  0
  8  2  1  0  0  0  0
  9 11  1  0  0  0  0
  9 12  1  0  0  0  0
 10  9  1  0  0  0  0
 12 14  1  0  0  0  0
 12 13  1  0  0  0  0
 15 20  1  0  0  0  0
 15 12  1  0  0  0  0
 16 15  2  0  0  0  0
 17 18  2  0  0  0  0
 17 16  1  0  0  0  0
 18 19  1  0  0  0  0
 19 24  1  0  0  0  0
 19 20  2  0  0  0  0
 20 27  1  0  0  0  0
 21 16  1  0  0  0  0
 22 17  1  0  0  0  0
 23 18  1  0  0  0  0
 25 28  1  0  0  0  0
 25 27  1  0  0  0  0
 26 25  2  0  0  0  0
 27 29  1  0  0  0  0
 30 33  1  0  0  0  0
 31 30  1  0  0  0  0
 32 30  1  0  0  0  0
 33 34  1  0  0  0  0
 33 35  1  0  0  0  0
 33 36  1  0  0  0  0
 36 47  1  0  0  0  0
 36 37  1  0  0  0  0
 37 38  1  0  0  0  0
 37 39  2  0  0  0  0
 40 41  1  0  0  0  0
 40 39  1  0  0  0  0
 41 42  1  0  0  0  0
 43 41  2  0  0  0  0
 44 43  1  0  0  0  0
 45 44  1  0  0  0  0
 46 44  2  0  0  0  0
 46 47  1  0  0  0  0
 47 40  2  0  0  0  0
M  END
>  <minimizedAffinity>
-5.41903257

$$$$

 OpenBabel03242511483D

 47 50  0  0  0  0  0  0  0  0999 V2000
   38.2090   28.2650   43.3540 C   0  0  0  0  0  0  0  0  0  0  0  0
   37.5000   29.1970   42.5560 C   0  0  0  0  0  0  0  0  0  0  0  0
   36.6410   28.6770   41.6030 C   0  0  0  0  0  0  0  0  0  0  0  0
   36.5160   27.3430   41.4780 N   0  0  0  0  0  0  0  0  0  0  0  0
   37.2210   26.5030   42.2690 C   0  0  0  0  0  0  0  0  0  0  0  0
   38.0500   26.9380   43.1890 N   0  0  0  0  0  0  0  0  0  0  0  0
   38.8720   28.6980   44.0880 H   0  0  0  0  0  0  0  0  0  0  0  0
   37.6290   30.2710   42.6910 H   0  0  0  0  0  0  0  0  0  0  0  0
   37.0260   25.0520   42.0650 C   0  0  0  0  0  0  0  0  0  0  0  0
   36.3090   24.6190   42.7980 H   0  0  0  0  0  0  0  0  0  0  0  0
   36.5730   24.9190   41.0620 H   0  0  0  0  0  0  0  0  0  0  0  0
   38.3530   24.3600   42.1970 C   0  0  0  0  0  0  0  0  0  0  0  0
   38.9130   24.8390   43.0460 H   0  0  0  0  0  0  0  0  0  0  0  0
   38.2400   23.2900   42.5310 H   0  0  0  0  0  0  0  0  0  0  0  0
   39.1090   24.3630   40.9670 C   0  0  0  0  0  0  0  0  0  0  0  0
   40.0520   25.2590   40.5500 C   0  0  0  0  0  0  0  0  0  0  0  0
   40.7180   25.1790   39.3670 C   0  0  0  0  0  0  0  0  0  0  0  0
   40.4190   24.1200   38.5330 C   0  0  0  0  0  0  0  0  0  0  0  0
   39.4730   23.2100   38.9390 C   0  0  0  0  0  0  0  0  0  0  0  0
   38.8150   23.3210   40.1470 C   0  0  0  0  0  0  0  0  0  0  0  0
   40.2620   26.0870   41.2390 H   0  0  0  0  0  0  0  0  0  0  0  0
   41.4410   25.9460   39.1460 H   0  0  0  0  0  0  0  0  0  0  0  0
   40.9820   24.1030   37.5980 H   0  0  0  0  0  0  0  0  0  0  0  0
   39.3570   22.4370   38.1650 H   0  0  0  0  0  0  0  0  0  0  0  0
   36.6550   22.4000   39.5500 C   0  0  0  0  0  0  0  0  0  0  0  0
   36.0750   23.2740   38.8160 O   0  0  0  0  0  0  0  0  0  0  0  0
   37.9030   22.2160   40.2480 N   0  0  0  0  0  0  0  0  0  0  0  0
   35.8490   21.6720   39.5400 H   0  0  0  0  0  0  0  0  0  0  0  0
   37.9370   21.2960   40.7180 H   0  0  0  0  0  0  0  0  0  0  0  0
   35.9100   29.6640   40.7820 C   0  0  0  0  0  0  0  0  0  0  0  0
   34.8540   29.6830   41.1690 H   0  0  0  0  0  0  0  0  0  0  0  0
   35.8270   29.3630   39.7340 H   0  0  0  0  0  0  0  0  0  0  0  0
   36.4870   31.0650   40.9330 C   0  0  0  0  0  0  0  0  0  0  0  0
   35.6250   31.7630   41.0320 H   0  0  0  0  0  0  0  0  0  0  0  0
   37.0010   31.1000   41.9160 H   0  0  0  0  0  0  0  0  0  0  0  0
   37.3630   31.4060   39.8520 N   0  0  0  0  0  0  0  0  0  0  0  0
   37.0320   31.3120   38.5330 C   0  0  0  0  0  0  0  0  0  0  0  0
   36.0980   30.9810   38.0970 H   0  0  0  0  0  0  0  0  0  0  0  0
   38.0830   31.7110   37.7680 N   0  0  0  0  0  0  0  0  0  0  0  0
   39.0930   32.0630   38.6130 C   0  0  0  0  0  0  0  0  0  0  0  0
   40.3790   32.5350   38.4340 C   0  0  0  0  0  0  0  0  0  0  0  0
   40.7040   32.6750   37.4060 H   0  0  0  0  0  0  0  0  0  0  0  0
   41.1460   32.7930   39.4990 N   0  0  0  0  0  0  0  0  0  0  0  0
   40.6930   32.6020   40.7560 C   0  0  0  0  0  0  0  0  0  0  0  0
   41.4110   32.8490   41.5090 H   0  0  0  0  0  0  0  0  0  0  0  0
   39.4270   32.1370   40.9240 N   0  0  0  0  0  0  0  0  0  0  0  0
   38.6260   31.8660   39.8870 C   0  0  0  0  0  0  0  0  0  0  0  0
  1  7  1  0  0  0  0
  2  8  1  0  0  0  0
  2  1  2  0  0  0  0
  3  2  1  0  0  0  0
  4  3  2  0  0  0  0
  4  5  1  0  0  0  0
  5  6  2  0  0  0  0
  6  1  1  0  0  0  0
  9 12  1  0  0  0  0
  9  5  1  0  0  0  0
  9 10  1  0  0  0  0
 11  9  1  0  0  0  0
 12 14  1  0  0  0  0
 12 13  1  0  0  0  0
 15 12  1  0  0  0  0
 16 15  1  0  0  0  0
 16 21  1  0  0  0  0
 17 16  2  0  0  0  0
 18 19  2  0  0  0  0
 18 17  1  0  0  0  0
 19 20  1  0  0  0  0
 20 27  1  0  0  0  0
 20 15  2  0  0  0  0
 22 17  1  0  0  0  0
 23 18  1  0  0  0  0
 24 19  1  0  0  0  0
 25 27  1  0  0  0  0
 26 25  2  0  0  0  0
 27 29  1  0  0  0  0
 28 25  1  0  0  0  0
 30 33  1  0  0  0  0
 30 31  1  0  0  0  0
 30  3  1  0  0  0  0
 32 30  1  0  0  0  0
 33 34  1  0  0  0  0
 33 35  1  0  0  0  0
 36 47  1  0  0  0  0
 36 33  1  0  0  0  0
 37 36  1  0  0  0  0
 38 37  1  0  0  0  0
 39 37  2  0  0  0  0
 39 40  1  0  0  0  0
 40 47  1  0  0  0  0
 41 40  2  0  0  0  0
 41 43  1  0  0  0  0
 42 41  1  0  0  0  0
 43 44  2  0  0  0  0
 44 46  1  0  0  0  0
 44 45  1  0  0  0  0
 47 46  2  0  0  0  0
M  END
>  <minimizedAffinity>
-5.40683556

$$$$

 OpenBabel03242511483D

 47 50  0  0  0  0  0  0  0  0999 V2000
   39.7540   25.6140   43.3990 C   0  0  0  0  0  0  0  0  0  0  0  0
   39.4250   26.9670   43.6630 C   0  0  0  0  0  0  0  0  0  0  0  0
   38.2170   27.4240   43.1640 C   0  0  0  0  0  0  0  0  0  0  0  0
   37.4260   26.5860   42.4680 N   0  0  0  0  0  0  0  0  0  0  0  0
   37.7950   25.3050   42.2490 C   0  0  0  0  0  0  0  0  0  0  0  0
   38.9270   24.8160   42.6970 N   0  0  0  0  0  0  0  0  0  0  0  0
   40.7010   25.2850   43.8000 H   0  0  0  0  0  0  0  0  0  0  0  0
   40.0940   27.6120   44.2310 H   0  0  0  0  0  0  0  0  0  0  0  0
   36.8680   24.4520   41.4750 C   0  0  0  0  0  0  0  0  0  0  0  0
   36.8010   23.4220   41.8920 H   0  0  0  0  0  0  0  0  0  0  0  0
   35.8570   24.8980   41.5680 H   0  0  0  0  0  0  0  0  0  0  0  0
   37.3420   24.3840   40.0520 C   0  0  0  0  0  0  0  0  0  0  0  0
   38.3050   24.9600   39.9770 H   0  0  0  0  0  0  0  0  0  0  0  0
   37.6420   23.3390   39.7560 H   0  0  0  0  0  0  0  0  0  0  0  0
   36.3510   24.8450   39.1090 C   0  0  0  0  0  0  0  0  0  0  0  0
   35.3730   24.1270   38.4830 C   0  0  0  0  0  0  0  0  0  0  0  0
   34.4770   24.6510   37.6050 C   0  0  0  0  0  0  0  0  0  0  0  0
   34.5640   26.0020   37.3290 C   0  0  0  0  0  0  0  0  0  0  0  0
   35.5430   26.7380   37.9520 C   0  0  0  0  0  0  0  0  0  0  0  0
   36.4370   26.1730   38.8390 C   0  0  0  0  0  0  0  0  0  0  0  0
   35.3350   23.0570   38.7270 H   0  0  0  0  0  0  0  0  0  0  0  0
   33.7490   23.9850   37.1720 H   0  0  0  0  0  0  0  0  0  0  0  0
   33.8210   26.3710   36.6190 H   0  0  0  0  0  0  0  0  0  0  0  0
   35.4730   27.7860   37.6250 H   0  0  0  0  0  0  0  0  0  0  0  0
   38.4690   27.4380   38.4600 C   0  0  0  0  0  0  0  0  0  0  0  0
   38.9820   26.9910   37.3760 O   0  0  0  0  0  0  0  0  0  0  0  0
   37.3140   27.2160   39.2950 N   0  0  0  0  0  0  0  0  0  0  0  0
   39.2400   28.1740   38.6710 H   0  0  0  0  0  0  0  0  0  0  0  0
   37.3060   27.8590   40.1040 H   0  0  0  0  0  0  0  0  0  0  0  0
   37.8910   28.8370   43.4480 C   0  0  0  0  0  0  0  0  0  0  0  0
   38.2160   29.0330   44.5080 H   0  0  0  0  0  0  0  0  0  0  0  0
   36.8150   29.0330   43.4370 H   0  0  0  0  0  0  0  0  0  0  0  0
   38.6580   29.7890   42.5420 C   0  0  0  0  0  0  0  0  0  0  0  0
   39.0010   30.6370   43.1770 H   0  0  0  0  0  0  0  0  0  0  0  0
   39.5870   29.2660   42.2330 H   0  0  0  0  0  0  0  0  0  0  0  0
   37.8760   30.2100   41.4190 N   0  0  0  0  0  0  0  0  0  0  0  0
   36.5130   30.2470   41.3980 C   0  0  0  0  0  0  0  0  0  0  0  0
   35.8230   29.9760   42.1870 H   0  0  0  0  0  0  0  0  0  0  0  0
   36.0850   30.6930   40.1870 N   0  0  0  0  0  0  0  0  0  0  0  0
   37.1910   30.9440   39.4300 C   0  0  0  0  0  0  0  0  0  0  0  0
   37.3940   31.4040   38.1430 C   0  0  0  0  0  0  0  0  0  0  0  0
   36.5010   31.6310   37.5650 H   0  0  0  0  0  0  0  0  0  0  0  0
   38.6390   31.5450   37.6780 N   0  0  0  0  0  0  0  0  0  0  0  0
   39.7140   31.2490   38.4380 C   0  0  0  0  0  0  0  0  0  0  0  0
   40.6460   31.4090   37.9390 H   0  0  0  0  0  0  0  0  0  0  0  0
   39.5060   30.7960   39.7030 N   0  0  0  0  0  0  0  0  0  0  0  0
   38.2770   30.6400   40.2080 C   0  0  0  0  0  0  0  0  0  0  0  0
  1  2  1  0  0  0  0
  1  7  1  0  0  0  0
  2  8  1  0  0  0  0
  3 30  1  0  0  0  0
  3  2  2  0  0  0  0
  4  3  1  0  0  0  0
  5  4  2  0  0  0  0
  5  6  1  0  0  0  0
  6  1  2  0  0  0  0
  9 11  1  0  0  0  0
  9 10  1  0  0  0  0
  9  5  1  0  0  0  0
 12  9  1  0  0  0  0
 13 12  1  0  0  0  0
 14 12  1  0  0  0  0
 15 12  1  0  0  0  0
 16 21  1  0  0  0  0
 16 15  2  0  0  0  0
 17 16  1  0  0  0  0
 18 17  2  0  0  0  0
 18 19  1  0  0  0  0
 19 20  2  0  0  0  0
 20 15  1  0  0  0  0
 20 27  1  0  0  0  0
 22 17  1  0  0  0  0
 23 18  1  0  0  0  0
 24 19  1  0  0  0  0
 25 28  1  0  0  0  0
 25 27  1  0  0  0  0
 26 25  2  0  0  0  0
 27 29  1  0  0  0  0
 30 31  1  0  0  0  0
 32 30  1  0  0  0  0
 33 34  1  0  0  0  0
 33 30  1  0  0  0  0
 35 33  1  0  0  0  0
 36 33  1  0  0  0  0
 37 36  1  0  0  0  0
 37 38  1  0  0  0  0
 39 37  2  0  0  0  0
 40 39  1  0  0  0  0
 40 47  1  0  0  0  0
 41 40  2  0  0  0  0
 42 41  1  0  0  0  0
 43 41  1  0  0  0  0
 43 44  2  0  0  0  0
 44 46  1  0  0  0  0
 45 44  1  0  0  0  0
 46 47  2  0  0  0  0
 47 36  1  0  0  0  0
M  END
>  <minimizedAffinity>
-5.39863586

$$$$
