
 OpenBabel03252502003D

 37 41  0  0  0  0  0  0  0  0999 V2000
   47.5790   32.1720   48.0710 C   0  0  0  0  0  0  0  0  0  0  0  0
   47.2700   30.8290   48.0490 C   0  0  0  0  0  0  0  0  0  0  0  0
   46.4550   30.4180   47.0370 C   0  0  0  0  0  0  0  0  0  0  0  0
   45.9960   31.2930   46.1300 N   0  0  0  0  0  0  0  0  0  0  0  0
   46.3000   32.5930   46.1600 C   0  0  0  0  0  0  0  0  0  0  0  0
   47.0940   32.9930   47.1440 N   0  0  0  0  0  0  0  0  0  0  0  0
   48.2370   32.5020   48.8880 H   0  0  0  0  0  0  0  0  0  0  0  0
   46.0710   29.0840   46.9080 N   0  0  0  0  0  0  0  0  0  0  0  0
   46.4800   27.9880   47.5730 C   0  0  0  0  0  0  0  0  0  0  0  0
   47.2200   27.9800   48.3630 H   0  0  0  0  0  0  0  0  0  0  0  0
   45.8330   26.9000   47.1110 N   0  0  0  0  0  0  0  0  0  0  0  0
   44.9910   27.2840   46.1340 C   0  0  0  0  0  0  0  0  0  0  0  0
   44.1090   26.5770   45.3420 C   0  0  0  0  0  0  0  0  0  0  0  0
   44.0240   25.5020   45.4780 H   0  0  0  0  0  0  0  0  0  0  0  0
   43.4040   27.2850   44.4420 N   0  0  0  0  0  0  0  0  0  0  0  0
   43.5370   28.6240   44.3040 C   0  0  0  0  0  0  0  0  0  0  0  0
   42.9330   29.1420   43.5530 H   0  0  0  0  0  0  0  0  0  0  0  0
   44.3980   29.2840   45.0830 N   0  0  0  0  0  0  0  0  0  0  0  0
   45.1430   28.6300   46.0140 C   0  0  0  0  0  0  0  0  0  0  0  0
   45.9170   33.7100   45.2850 C   0  0  0  0  0  0  0  0  0  0  0  0
   44.9430   34.5990   45.5890 N   0  0  0  0  0  0  0  0  0  0  0  0
   44.5660   35.6210   44.8260 C   0  0  0  0  0  0  0  0  0  0  0  0
   45.1780   35.8270   43.6420 N   0  0  0  0  0  0  0  0  0  0  0  0
   46.1660   35.0100   43.2230 C   0  0  0  0  0  0  0  0  0  0  0  0
   46.7900   35.2270   42.0070 C   0  0  0  0  0  0  0  0  0  0  0  0
   47.7940   34.4020   41.5790 C   0  0  0  0  0  0  0  0  0  0  0  0
   48.1540   33.3570   42.3970 C   0  0  0  0  0  0  0  0  0  0  0  0
   47.5110   33.1740   43.5940 C   0  0  0  0  0  0  0  0  0  0  0  0
   46.5020   33.9700   44.0700 C   0  0  0  0  0  0  0  0  0  0  0  0
   43.7720   36.2720   45.1700 H   0  0  0  0  0  0  0  0  0  0  0  0
   46.4870   36.0580   41.3820 H   0  0  0  0  0  0  0  0  0  0  0  0
   48.3140   34.5260   40.6400 H   0  0  0  0  0  0  0  0  0  0  0  0
   48.9400   32.6740   42.1070 H   0  0  0  0  0  0  0  0  0  0  0  0
   47.8340   32.3280   44.2100 H   0  0  0  0  0  0  0  0  0  0  0  0
   47.7820   29.9580   49.0280 N   0  0  0  0  0  0  0  0  0  0  0  0
   47.2500   29.7090   49.8890 H   0  0  0  0  0  0  0  0  0  0  0  0
   48.7130   29.4640   49.0370 H   0  0  0  0  0  0  0  0  0  0  0  0
  1  7  1  0  0  0  0
  2  1  1  0  0  0  0
  2 35  1  0  0  0  0
  3  2  2  0  0  0  0
  4  5  2  0  0  0  0
  4  3  1  0  0  0  0
  5  6  1  0  0  0  0
  6  1  2  0  0  0  0
  8  3  1  0  0  0  0
  8  9  1  0  0  0  0
  9 10  1  0  0  0  0
 11  9  2  0  0  0  0
 12 11  1  0  0  0  0
 13 14  1  0  0  0  0
 13 12  2  0  0  0  0
 15 13  1  0  0  0  0
 16 15  2  0  0  0  0
 16 18  1  0  0  0  0
 17 16  1  0  0  0  0
 18 19  2  0  0  0  0
 19 12  1  0  0  0  0
 19  8  1  0  0  0  0
 20 21  1  0  0  0  0
 20  5  1  0  0  0  0
 22 30  1  0  0  0  0
 22 21  2  0  0  0  0
 23 22  1  0  0  0  0
 24 23  2  0  0  0  0
 24 29  1  0  0  0  0
 25 24  1  0  0  0  0
 26 25  2  0  0  0  0
 26 27  1  0  0  0  0
 27 28  2  0  0  0  0
 28 29  1  0  0  0  0
 28 34  1  0  0  0  0
 29 20  2  0  0  0  0
 31 25  1  0  0  0  0
 32 26  1  0  0  0  0
 33 27  1  0  0  0  0
 35 37  1  0  0  0  0
 35 36  1  0  0  0  0
M  END
>  <minimizedAffinity>
-6.52242374

>  <minimizedRMSD>
0.428651601

$$$$
