
     RDKit          3D

 41 44  0  0  0  0  0  0  0  0999 V2000
   45.2872   35.6186   44.2079 C   0  0  0  0  0  0  0  0  0  0  0  0
   46.2490   34.8605   43.5285 C   0  0  0  0  0  0  0  0  0  0  0  0
   46.7068   33.6673   44.0814 C   0  0  0  0  0  0  0  0  0  0  0  0
   46.1921   33.3033   45.2542 N   0  0  0  0  0  0  0  0  0  0  0  0
   45.2639   34.0377   45.9060 C   0  0  0  0  0  0  0  0  0  0  0  0
   44.8086   35.1942   45.3886 N   0  0  0  0  0  0  0  0  0  0  0  0
   48.6814   33.7731   42.5777 C   0  0  2  0  0  0  0  0  0  0  0  0
   47.7093   32.9256   43.3193 C   0  0  2  0  0  0  0  0  0  0  0  0
   47.1660   32.1508   42.2539 O   0  0  0  0  0  0  0  0  0  0  0  0
   48.3093   31.6786   41.6415 C   0  0  0  0  0  0  0  0  0  0  0  0
   49.4305   32.6478   41.8362 C   0  0  1  0  0  0  0  0  0  0  0  0
   49.4881   34.5431   43.3599 O   0  0  0  0  0  0  0  0  0  0  0  0
   49.9424   33.1523   40.6471 O   0  0  0  0  0  0  0  0  0  0  0  0
   44.8101   36.9089   43.6031 C   0  0  0  0  0  0  0  0  0  0  0  0
   45.3271   39.2641   44.4668 C   0  0  0  0  0  0  0  0  0  0  0  0
   45.6101   39.6143   43.2890 O   0  0  0  0  0  0  0  0  0  0  0  0
   44.9481   37.9178   44.6507 N   0  0  0  0  0  0  0  0  0  0  0  0
   46.5926   35.2431   42.5977 H   0  0  0  0  0  0  0  0  0  0  0  0
   44.8732   33.6908   46.8701 H   0  0  0  0  0  0  0  0  0  0  0  0
   48.2102   34.3423   41.7317 H   0  0  0  0  0  0  0  0  0  0  0  0
   48.2636   32.1830   43.9366 H   0  0  0  0  0  0  0  0  0  0  0  0
   48.5733   30.6835   42.0743 H   0  0  0  0  0  0  0  0  0  0  0  0
   48.1435   31.5661   40.5446 H   0  0  0  0  0  0  0  0  0  0  0  0
   50.2336   32.2961   42.4941 H   0  0  0  0  0  0  0  0  0  0  0  0
   48.9283   34.9840   44.0177 H   0  0  0  0  0  0  0  0  0  0  0  0
   50.4681   33.9664   40.8361 H   0  0  0  0  0  0  0  0  0  0  0  0
   45.4049   37.1325   42.7110 H   0  0  0  0  0  0  0  0  0  0  0  0
   43.7344   36.8017   43.3608 H   0  0  0  0  0  0  0  0  0  0  0  0
   44.7465   37.6177   45.6417 H   0  0  0  0  0  0  0  0  0  0  0  0
   43.9959   41.7011   44.9806 H   0  0  0  0  0  0  0  0  0  0  0  0
   44.6773   41.3420   45.6557 N   0  0  0  0  0  0  0  0  0  0  0  0
   45.3927   40.2094   45.5667 C   0  0  0  0  0  0  0  0  0  0  0  0
   46.1801   40.0814   46.6501 N   0  0  0  0  0  0  0  0  0  0  0  0
   45.9894   41.1416   47.4748 C   0  0  0  0  0  0  0  0  0  0  0  0
   46.5290   41.5092   48.6982 C   0  0  0  0  0  0  0  0  0  0  0  0
   47.2614   40.9027   49.1908 H   0  0  0  0  0  0  0  0  0  0  0  0
   46.0710   42.6698   49.2152 N   0  0  0  0  0  0  0  0  0  0  0  0
   45.1488   43.4291   48.5899 C   0  0  0  0  0  0  0  0  0  0  0  0
   44.7520   44.3615   48.9606 H   0  0  0  0  0  0  0  0  0  0  0  0
   44.6201   43.0643   47.3863 N   0  0  0  0  0  0  0  0  0  0  0  0
   45.0476   41.8996   46.8176 C   0  0  0  0  0  0  0  0  0  0  0  0
  1  6  2  0
  2  3  2  0
  2  1  1  0
  3  4  1  0
  4  5  2  0
  6  5  1  0
  7  8  1  0
  7 12  1  0
  8  3  1  0
  9  8  1  0
 10 11  1  0
 10  9  1  0
 11  7  1  0
 13 11  1  0
 14  1  1  0
 14 17  1  0
 15 17  1  0
 16 15  2  0
  2 18  1  0
  5 19  1  0
  7 20  1  6
  8 21  1  1
 10 22  1  0
 10 23  1  0
 11 24  1  1
 12 25  1  0
 13 26  1  0
 14 27  1  0
 14 28  1  0
 17 29  1  0
 30 31  1  0
 31 32  1  0
 32 33  2  0
 33 34  1  0
 34 35  2  0
 35 36  1  0
 35 37  1  0
 37 38  2  0
 38 39  1  0
 38 40  1  0
 40 41  2  0
 41 31  1  0
 41 34  1  0
 15 32  1  0
M  ISO  8  18  14  19  14  20  13  21  13  22  13  23  13  24  13  25   3
M  ISO  6  26   3  27   8  28   8  30   9  36  16  39  16
M  END
>  <DihAtoms>  (1) 
16,14,31,30

>  <DihDeg>  (1) 
179.99563545014135

$$$$
