
 OpenBabel03242523513D

 46 50  0  0  1  0  0  0  0  0999 V2000
   42.8180   34.3340   38.9170 C   0  0  1  0  0  0  0  0  0  0  0  0
   43.0500   35.1700   40.1790 C   0  0  1  0  0  0  0  0  0  0  0  0
   41.8130   35.6630   40.6310 O   0  0  0  0  0  0  0  0  0  0  0  0
   40.9380   35.9720   39.5930 C   0  0  0  0  0  0  0  0  0  0  0  0
   40.4490   34.7090   38.9020 C   0  0  2  0  0  0  0  0  0  0  0  0
   41.5020   33.6150   39.1600 C   0  0  1  0  0  0  0  0  0  0  0  0
   43.6090   33.5660   38.8010 H   0  0  0  0  0  0  0  0  0  0  0  0
   43.7660   35.9960   40.0050 H   0  0  0  0  0  0  0  0  0  0  0  0
   41.3570   36.7120   38.9010 H   0  0  0  0  0  0  0  0  0  0  0  0
   40.0710   36.4570   40.0810 H   0  0  0  0  0  0  0  0  0  0  0  0
   39.4590   34.3980   39.2520 H   0  0  0  0  0  0  0  0  0  0  0  0
   41.3710   33.3170   40.2090 H   0  0  0  0  0  0  0  0  0  0  0  0
   42.7140   35.1600   37.8000 O   0  0  0  0  0  0  0  0  0  0  0  0
   43.4110   35.0110   37.1290 H   0  0  0  0  0  0  0  0  0  0  0  0
   40.5070   34.9090   37.5130 O   0  0  0  0  0  0  0  0  0  0  0  0
   39.6370   35.3040   37.2450 H   0  0  0  0  0  0  0  0  0  0  0  0
   43.4490   34.2630   41.1690 O   0  0  0  0  0  0  0  0  0  0  0  0
   44.5880   34.3290   41.8700 C   0  0  0  0  0  0  0  0  0  0  0  0
   45.8130   34.4790   41.2260 C   0  0  0  0  0  0  0  0  0  0  0  0
   46.9630   34.5440   41.9960 C   0  0  0  0  0  0  0  0  0  0  0  0
   46.8730   34.4590   43.3780 N   0  0  0  0  0  0  0  0  0  0  0  0
   45.6720   34.3140   43.9580 C   0  0  0  0  0  0  0  0  0  0  0  0
   44.5320   34.2490   43.2210 N   0  0  0  0  0  0  0  0  0  0  0  0
   45.8730   34.5440   40.1490 H   0  0  0  0  0  0  0  0  0  0  0  0
   45.5790   34.2450   45.0360 H   0  0  0  0  0  0  0  0  0  0  0  0
   48.3150   34.6900   41.3460 C   0  0  0  0  0  0  0  0  0  0  0  0
   49.0360   36.0050   41.5290 C   0  0  0  0  0  0  0  0  0  0  0  0
   49.5070   34.6800   42.1500 C   0  0  0  0  0  0  0  0  0  0  0  0
   48.3090   34.2400   40.3370 H   0  0  0  0  0  0  0  0  0  0  0  0
   48.5050   36.7260   42.1690 H   0  0  0  0  0  0  0  0  0  0  0  0
   49.5640   36.3570   40.6280 H   0  0  0  0  0  0  0  0  0  0  0  0
   50.4820   34.3020   41.8240 H   0  0  0  0  0  0  0  0  0  0  0  0
   49.4120   34.6850   43.2700 H   0  0  0  0  0  0  0  0  0  0  0  0
   41.3070   32.5360   38.3220 O   0  0  0  0  0  0  0  0  0  0  0  0
   39.6260   32.1350   40.4350 H   0  0  0  0  0  0  0  0  0  0  0  0
   39.5710   31.5450   39.5670 N   0  0  0  0  0  0  0  0  0  0  0  0
   40.3080   31.5850   38.4200 C   0  0  0  0  0  0  0  0  0  0  0  0
   39.8610   30.6260   37.5940 N   0  0  0  0  0  0  0  0  0  0  0  0
   38.8490   29.9580   38.1740 C   0  0  0  0  0  0  0  0  0  0  0  0
   38.0290   28.9090   37.8180 C   0  0  0  0  0  0  0  0  0  0  0  0
   38.2060   28.4840   36.8370 H   0  0  0  0  0  0  0  0  0  0  0  0
   37.0720   28.4710   38.6790 N   0  0  0  0  0  0  0  0  0  0  0  0
   36.9480   29.0810   39.8760 C   0  0  0  0  0  0  0  0  0  0  0  0
   36.1970   28.7590   40.5890 H   0  0  0  0  0  0  0  0  0  0  0  0
   37.7110   30.0950   40.2680 N   0  0  0  0  0  0  0  0  0  0  0  0
   38.6730   30.5520   39.4290 C   0  0  0  0  0  0  0  0  0  0  0  0
  1  7  1  6  0  0  0
  1  6  1  0  0  0  0
  1  2  1  0  0  0  0
  2  8  1  6  0  0  0
  2  3  1  0  0  0  0
  2 17  1  0  0  0  0
  4 10  1  0  0  0  0
  4  3  1  0  0  0  0
  5  6  1  0  0  0  0
  5 11  1  1  0  0  0
  5  4  1  0  0  0  0
  6 12  1  1  0  0  0
  9  4  1  0  0  0  0
 13  1  1  0  0  0  0
 14 13  1  0  0  0  0
 15  5  1  0  0  0  0
 16 15  1  0  0  0  0
 17 18  1  0  0  0  0
 18 23  1  0  0  0  0
 19 18  2  0  0  0  0
 19 20  1  0  0  0  0
 20 21  2  0  0  0  0
 21 22  1  0  0  0  0
 22 25  1  0  0  0  0
 23 22  2  0  0  0  0
 24 19  1  0  0  0  0
 26 27  1  0  0  0  0
 26 20  1  0  0  0  0
 26 28  1  0  0  0  0
 27 28  1  0  0  0  0
 27 30  1  0  0  0  0
 28 33  1  0  0  0  0
 29 26  1  0  0  0  0
 31 27  1  0  0  0  0
 32 28  1  0  0  0  0
 34 37  1  0  0  0  0
 34  6  1  0  0  0  0
 36 35  1  0  0  0  0
 37 36  1  0  0  0  0
 38 39  1  0  0  0  0
 38 37  2  0  0  0  0
 39 46  1  0  0  0  0
 40 39  2  0  0  0  0
 40 42  1  0  0  0  0
 41 40  1  0  0  0  0
 42 43  2  0  0  0  0
 43 45  1  0  0  0  0
 43 44  1  0  0  0  0
 46 36  1  0  0  0  0
 46 45  2  0  0  0  0
M  END
>  <minimizedAffinity>
-6.42799234

>  <minimizedRMSD>
2.14863157

$$$$
