
 OpenBabel03252502513D

 37 40  0  0  0  0  0  0  0  0999 V2000
   32.8650   26.9890   36.0250 C   0  0  0  0  0  0  0  0  0  0  0  0
   33.8760   27.0510   36.9970 C   0  0  0  0  0  0  0  0  0  0  0  0
   34.0550   28.2540   37.6690 C   0  0  0  0  0  0  0  0  0  0  0  0
   33.2570   29.3110   37.3630 N   0  0  0  0  0  0  0  0  0  0  0  0
   32.2820   29.2180   36.4120 C   0  0  0  0  0  0  0  0  0  0  0  0
   32.0910   28.0570   35.7480 N   0  0  0  0  0  0  0  0  0  0  0  0
   32.6970   26.0680   35.4830 H   0  0  0  0  0  0  0  0  0  0  0  0
   34.4460   26.1400   37.1500 H   0  0  0  0  0  0  0  0  0  0  0  0
   30.4700   30.0440   38.6380 Cl  0  0  0  0  0  0  0  0  0  0  0  0
   30.5820   30.8430   37.0850 C   0  0  0  0  0  0  0  0  0  0  0  0
   31.4480   30.3900   36.1220 C   0  0  0  0  0  0  0  0  0  0  0  0
   31.5640   30.9990   34.8790 C   0  0  0  0  0  0  0  0  0  0  0  0
   30.7440   32.1000   34.6740 C   0  0  0  0  0  0  0  0  0  0  0  0
   29.8770   32.5610   35.6230 C   0  0  0  0  0  0  0  0  0  0  0  0
   29.7880   31.9420   36.8290 C   0  0  0  0  0  0  0  0  0  0  0  0
   32.2510   30.6180   34.1530 H   0  0  0  0  0  0  0  0  0  0  0  0
   30.8480   32.5630   33.6980 H   0  0  0  0  0  0  0  0  0  0  0  0
   29.2690   33.4210   35.3990 H   0  0  0  0  0  0  0  0  0  0  0  0
   29.0870   32.3400   37.5560 H   0  0  0  0  0  0  0  0  0  0  0  0
   35.1030   28.3110   38.6950 C   0  0  0  0  0  0  0  0  0  0  0  0
   35.1290   27.2770   39.1490 H   0  0  0  0  0  0  0  0  0  0  0  0
   36.1170   28.4900   38.3360 H   0  0  0  0  0  0  0  0  0  0  0  0
   34.7530   29.2130   39.8620 C   0  0  0  0  0  0  0  0  0  0  0  0
   34.0100   29.9610   39.5230 H   0  0  0  0  0  0  0  0  0  0  0  0
   34.2540   28.6160   40.6610 H   0  0  0  0  0  0  0  0  0  0  0  0
   35.9230   29.8180   40.4440 N   0  0  0  0  0  0  0  0  0  0  0  0
   36.5700   30.9580   40.2380 C   0  0  0  0  0  0  0  0  0  0  0  0
   36.2450   31.6780   39.4980 H   0  0  0  0  0  0  0  0  0  0  0  0
   37.6400   31.0440   41.0770 N   0  0  0  0  0  0  0  0  0  0  0  0
   37.6670   29.9300   41.8260 C   0  0  0  0  0  0  0  0  0  0  0  0
   38.5260   29.5160   42.8130 C   0  0  0  0  0  0  0  0  0  0  0  0
   39.3800   30.0780   43.1590 H   0  0  0  0  0  0  0  0  0  0  0  0
   38.3340   28.3330   43.4250 N   0  0  0  0  0  0  0  0  0  0  0  0
   37.2890   27.5820   43.0440 C   0  0  0  0  0  0  0  0  0  0  0  0
   36.9400   26.6020   43.3920 H   0  0  0  0  0  0  0  0  0  0  0  0
   36.4450   27.9830   42.0770 N   0  0  0  0  0  0  0  0  0  0  0  0
   36.5900   29.1670   41.4250 C   0  0  0  0  0  0  0  0  0  0  0  0
  1  2  1  0  0  0  0
  2  8  1  0  0  0  0
  2  3  2  0  0  0  0
  3 20  1  0  0  0  0
  4  3  1  0  0  0  0
  5  4  2  0  0  0  0
  6  1  2  0  0  0  0
  6  5  1  0  0  0  0
  7  1  1  0  0  0  0
 10  9  1  0  0  0  0
 11  5  1  0  0  0  0
 11 10  2  0  0  0  0
 12 11  1  0  0  0  0
 13 12  2  0  0  0  0
 13 14  1  0  0  0  0
 14 15  2  0  0  0  0
 15 10  1  0  0  0  0
 15 19  1  0  0  0  0
 16 12  1  0  0  0  0
 17 13  1  0  0  0  0
 18 14  1  0  0  0  0
 20 21  1  0  0  0  0
 20 23  1  0  0  0  0
 22 20  1  0  0  0  0
 23 26  1  0  0  0  0
 23 25  1  0  0  0  0
 24 23  1  0  0  0  0
 26 37  1  0  0  0  0
 27 26  1  0  0  0  0
 27 29  2  0  0  0  0
 28 27  1  0  0  0  0
 29 30  1  0  0  0  0
 30 31  1  0  0  0  0
 31 32  1  0  0  0  0
 31 33  2  0  0  0  0
 34 35  1  0  0  0  0
 34 33  1  0  0  0  0
 36 34  2  0  0  0  0
 37 30  2  0  0  0  0
 37 36  1  0  0  0  0
M  END
>  <minimizedAffinity>
-6.03575897

$$$$

 OpenBabel03252502513D

 37 40  0  0  0  0  0  0  0  0999 V2000
   37.6710   32.7480   40.1160 C   0  0  0  0  0  0  0  0  0  0  0  0
   38.4590   32.0430   41.0380 C   0  0  0  0  0  0  0  0  0  0  0  0
   38.5630   30.6660   40.8830 C   0  0  0  0  0  0  0  0  0  0  0  0
   37.9060   30.0620   39.8580 N   0  0  0  0  0  0  0  0  0  0  0  0
   37.1470   30.7770   38.9760 C   0  0  0  0  0  0  0  0  0  0  0  0
   37.0330   32.1160   39.1100 N   0  0  0  0  0  0  0  0  0  0  0  0
   37.5680   33.8210   40.2060 H   0  0  0  0  0  0  0  0  0  0  0  0
   38.9330   32.6380   41.8130 H   0  0  0  0  0  0  0  0  0  0  0  0
   34.7020   29.2740   39.8030 Cl  0  0  0  0  0  0  0  0  0  0  0  0
   35.3260   29.3560   38.1700 C   0  0  0  0  0  0  0  0  0  0  0  0
   36.4600   30.0750   37.8860 C   0  0  0  0  0  0  0  0  0  0  0  0
   36.9840   30.1620   36.6030 C   0  0  0  0  0  0  0  0  0  0  0  0
   36.2830   29.4720   35.6230 C   0  0  0  0  0  0  0  0  0  0  0  0
   35.1550   28.7520   35.8920 C   0  0  0  0  0  0  0  0  0  0  0  0
   34.6690   28.6870   37.1580 C   0  0  0  0  0  0  0  0  0  0  0  0
   37.8700   30.7330   36.4190 H   0  0  0  0  0  0  0  0  0  0  0  0
   36.7060   29.5510   34.6270 H   0  0  0  0  0  0  0  0  0  0  0  0
   34.6590   28.2390   35.0840 H   0  0  0  0  0  0  0  0  0  0  0  0
   33.7690   28.1050   37.3300 H   0  0  0  0  0  0  0  0  0  0  0  0
   39.4000   29.9340   41.8410 C   0  0  0  0  0  0  0  0  0  0  0  0
   39.7830   29.0350   41.2730 H   0  0  0  0  0  0  0  0  0  0  0  0
   40.2940   30.4520   42.1900 H   0  0  0  0  0  0  0  0  0  0  0  0
   38.6140   29.3330   42.9890 C   0  0  0  0  0  0  0  0  0  0  0  0
   39.2420   29.3550   43.9010 H   0  0  0  0  0  0  0  0  0  0  0  0
   37.7230   29.9680   43.2070 H   0  0  0  0  0  0  0  0  0  0  0  0
   38.1350   28.0110   42.6790 N   0  0  0  0  0  0  0  0  0  0  0  0
   36.9870   27.5310   42.2180 C   0  0  0  0  0  0  0  0  0  0  0  0
   36.1480   28.1740   41.9840 H   0  0  0  0  0  0  0  0  0  0  0  0
   37.0620   26.1750   42.1020 N   0  0  0  0  0  0  0  0  0  0  0  0
   38.2870   25.7950   42.5010 C   0  0  0  0  0  0  0  0  0  0  0  0
   38.8750   24.5580   42.5810 C   0  0  0  0  0  0  0  0  0  0  0  0
   38.3930   23.6300   42.3120 H   0  0  0  0  0  0  0  0  0  0  0  0
   40.1400   24.4380   43.0230 N   0  0  0  0  0  0  0  0  0  0  0  0
   40.7990   25.5530   43.3760 C   0  0  0  0  0  0  0  0  0  0  0  0
   41.8180   25.6990   43.7570 H   0  0  0  0  0  0  0  0  0  0  0  0
   40.2270   26.7670   43.2990 N   0  0  0  0  0  0  0  0  0  0  0  0
   38.9520   26.9480   42.8610 C   0  0  0  0  0  0  0  0  0  0  0  0
  1  7  1  0  0  0  0
  1  2  1  0  0  0  0
  2  8  1  0  0  0  0
  3  2  2  0  0  0  0
  3 20  1  0  0  0  0
  4  3  1  0  0  0  0
  5  6  1  0  0  0  0
  5  4  2  0  0  0  0
  6  1  2  0  0  0  0
 10  9  1  0  0  0  0
 11 10  1  0  0  0  0
 11  5  1  0  0  0  0
 12 11  2  0  0  0  0
 13 14  2  0  0  0  0
 13 12  1  0  0  0  0
 14 15  1  0  0  0  0
 15 19  1  0  0  0  0
 15 10  2  0  0  0  0
 16 12  1  0  0  0  0
 17 13  1  0  0  0  0
 18 14  1  0  0  0  0
 20 22  1  0  0  0  0
 20 23  1  0  0  0  0
 21 20  1  0  0  0  0
 23 25  1  0  0  0  0
 23 24  1  0  0  0  0
 26 37  1  0  0  0  0
 26 23  1  0  0  0  0
 27 26  1  0  0  0  0
 28 27  1  0  0  0  0
 29 27  2  0  0  0  0
 29 30  1  0  0  0  0
 30 31  2  0  0  0  0
 30 37  1  0  0  0  0
 31 33  1  0  0  0  0
 32 31  1  0  0  0  0
 33 34  2  0  0  0  0
 34 35  1  0  0  0  0
 36 34  1  0  0  0  0
 37 36  2  0  0  0  0
M  END
>  <minimizedAffinity>
-5.69680929

$$$$

 OpenBabel03252502513D

 37 40  0  0  0  0  0  0  0  0999 V2000
   35.7710   30.3040   40.7790 C   0  0  0  0  0  0  0  0  0  0  0  0
   36.9690   31.0150   40.9410 C   0  0  0  0  0  0  0  0  0  0  0  0
   38.1330   30.2830   41.1460 C   0  0  0  0  0  0  0  0  0  0  0  0
   38.0670   28.9260   41.1820 N   0  0  0  0  0  0  0  0  0  0  0  0
   36.8840   28.2640   41.0200 C   0  0  0  0  0  0  0  0  0  0  0  0
   35.7420   28.9570   40.8190 N   0  0  0  0  0  0  0  0  0  0  0  0
   34.8450   30.8410   40.6160 H   0  0  0  0  0  0  0  0  0  0  0  0
   36.8920   32.0960   40.8930 H   0  0  0  0  0  0  0  0  0  0  0  0
   36.4890   26.9340   38.3750 Cl  0  0  0  0  0  0  0  0  0  0  0  0
   36.6920   26.0980   39.8990 C   0  0  0  0  0  0  0  0  0  0  0  0
   36.8690   26.7980   41.0660 C   0  0  0  0  0  0  0  0  0  0  0  0
   37.0340   26.1680   42.2930 C   0  0  0  0  0  0  0  0  0  0  0  0
   37.0080   24.7810   42.2620 C   0  0  0  0  0  0  0  0  0  0  0  0
   36.8320   24.0730   41.1080 C   0  0  0  0  0  0  0  0  0  0  0  0
   36.6730   24.7190   39.9240 C   0  0  0  0  0  0  0  0  0  0  0  0
   37.1710   26.7470   43.1830 H   0  0  0  0  0  0  0  0  0  0  0  0
   37.1390   24.3060   43.2290 H   0  0  0  0  0  0  0  0  0  0  0  0
   36.8220   22.9960   41.1540 H   0  0  0  0  0  0  0  0  0  0  0  0
   36.5370   24.1190   39.0290 H   0  0  0  0  0  0  0  0  0  0  0  0
   39.3880   31.0290   41.3010 C   0  0  0  0  0  0  0  0  0  0  0  0
   39.4790   31.2280   42.4090 H   0  0  0  0  0  0  0  0  0  0  0  0
   40.2990   30.4960   41.0310 H   0  0  0  0  0  0  0  0  0  0  0  0
   39.3430   32.4140   40.6850 C   0  0  0  0  0  0  0  0  0  0  0  0
   38.2980   32.7830   40.7130 H   0  0  0  0  0  0  0  0  0  0  0  0
   39.9410   33.1210   41.3060 H   0  0  0  0  0  0  0  0  0  0  0  0
   39.9000   32.4300   39.3570 N   0  0  0  0  0  0  0  0  0  0  0  0
   39.4920   31.9690   38.1810 C   0  0  0  0  0  0  0  0  0  0  0  0
   38.5510   31.4480   38.0630 H   0  0  0  0  0  0  0  0  0  0  0  0
   40.4170   32.2560   37.2230 N   0  0  0  0  0  0  0  0  0  0  0  0
   41.4300   32.9130   37.8110 C   0  0  0  0  0  0  0  0  0  0  0  0
   42.5990   33.4240   37.3070 C   0  0  0  0  0  0  0  0  0  0  0  0
   42.8990   33.3650   36.2720 H   0  0  0  0  0  0  0  0  0  0  0  0
   43.4690   34.0520   38.1190 N   0  0  0  0  0  0  0  0  0  0  0  0
   43.1600   34.1610   39.4210 C   0  0  0  0  0  0  0  0  0  0  0  0
   43.7020   34.6220   40.2560 H   0  0  0  0  0  0  0  0  0  0  0  0
   42.0150   33.6620   39.9200 N   0  0  0  0  0  0  0  0  0  0  0  0
   41.1000   33.0180   39.1460 C   0  0  0  0  0  0  0  0  0  0  0  0
  1  6  2  0  0  0  0
  1  2  1  0  0  0  0
  2  3  2  0  0  0  0
  3  4  1  0  0  0  0
  3 20  1  0  0  0  0
  5 11  1  0  0  0  0
  5  4  2  0  0  0  0
  6  5  1  0  0  0  0
  7  1  1  0  0  0  0
  8  2  1  0  0  0  0
  9 10  1  0  0  0  0
 10 15  2  0  0  0  0
 10 11  1  0  0  0  0
 11 12  2  0  0  0  0
 12 16  1  0  0  0  0
 13 12  1  0  0  0  0
 13 17  1  0  0  0  0
 14 18  1  0  0  0  0
 14 13  2  0  0  0  0
 15 14  1  0  0  0  0
 19 15  1  0  0  0  0
 20 21  1  0  0  0  0
 22 20  1  0  0  0  0
 23 24  1  0  0  0  0
 23 20  1  0  0  0  0
 23 25  1  0  0  0  0
 26 23  1  0  0  0  0
 27 26  1  0  0  0  0
 28 27  1  0  0  0  0
 29 30  1  0  0  0  0
 29 27  2  0  0  0  0
 30 37  1  0  0  0  0
 31 30  2  0  0  0  0
 31 33  1  0  0  0  0
 32 31  1  0  0  0  0
 33 34  2  0  0  0  0
 34 36  1  0  0  0  0
 34 35  1  0  0  0  0
 37 26  1  0  0  0  0
 37 36  2  0  0  0  0
M  END
>  <minimizedAffinity>
-5.68673372

$$$$

 OpenBabel03252502513D

 37 40  0  0  0  0  0  0  0  0999 V2000
   39.8830   25.0250   43.2580 C   0  0  0  0  0  0  0  0  0  0  0  0
   39.6040   26.3340   43.6800 C   0  0  0  0  0  0  0  0  0  0  0  0
   38.6010   27.0290   43.0140 C   0  0  0  0  0  0  0  0  0  0  0  0
   37.9390   26.4230   41.9940 N   0  0  0  0  0  0  0  0  0  0  0  0
   38.2340   25.1470   41.6080 C   0  0  0  0  0  0  0  0  0  0  0  0
   39.2050   24.4540   42.2430 N   0  0  0  0  0  0  0  0  0  0  0  0
   40.6570   24.4540   43.7540 H   0  0  0  0  0  0  0  0  0  0  0  0
   40.2030   26.7060   44.5050 H   0  0  0  0  0  0  0  0  0  0  0  0
   39.5530   25.3700   38.9380 Cl  0  0  0  0  0  0  0  0  0  0  0  0
   38.0120   24.5940   39.2360 C   0  0  0  0  0  0  0  0  0  0  0  0
   37.4860   24.5400   40.5010 C   0  0  0  0  0  0  0  0  0  0  0  0
   36.2670   23.9320   40.7750 C   0  0  0  0  0  0  0  0  0  0  0  0
   35.6150   23.3800   39.6810 C   0  0  0  0  0  0  0  0  0  0  0  0
   36.1270   23.4280   38.4160 C   0  0  0  0  0  0  0  0  0  0  0  0
   37.3220   24.0310   38.1820 C   0  0  0  0  0  0  0  0  0  0  0  0
   35.8880   23.9080   41.7760 H   0  0  0  0  0  0  0  0  0  0  0  0
   34.6650   22.9100   39.9130 H   0  0  0  0  0  0  0  0  0  0  0  0
   35.5690   22.9810   37.6110 H   0  0  0  0  0  0  0  0  0  0  0  0
   37.6950   24.0460   37.1630 H   0  0  0  0  0  0  0  0  0  0  0  0
   38.3020   28.3920   43.4670 C   0  0  0  0  0  0  0  0  0  0  0  0
   37.2000   28.5350   43.2670 H   0  0  0  0  0  0  0  0  0  0  0  0
   38.4260   28.5810   44.5340 H   0  0  0  0  0  0  0  0  0  0  0  0
   38.9670   29.4640   42.6260 C   0  0  0  0  0  0  0  0  0  0  0  0
   39.5380   30.1390   43.2950 H   0  0  0  0  0  0  0  0  0  0  0  0
   39.7140   28.9960   41.9420 H   0  0  0  0  0  0  0  0  0  0  0  0
   38.0170   30.1710   41.8070 N   0  0  0  0  0  0  0  0  0  0  0  0
   36.7670   29.9320   41.4310 C   0  0  0  0  0  0  0  0  0  0  0  0
   36.2320   29.0440   41.7430 H   0  0  0  0  0  0  0  0  0  0  0  0
   36.3180   30.9440   40.6360 N   0  0  0  0  0  0  0  0  0  0  0  0
   37.3110   31.8400   40.5100 C   0  0  0  0  0  0  0  0  0  0  0  0
   37.3840   33.0270   39.8260 C   0  0  0  0  0  0  0  0  0  0  0  0
   36.5820   33.4490   39.2390 H   0  0  0  0  0  0  0  0  0  0  0  0
   38.5150   33.7560   39.8560 N   0  0  0  0  0  0  0  0  0  0  0  0
   39.5540   33.2900   40.5680 C   0  0  0  0  0  0  0  0  0  0  0  0
   40.5570   33.7030   40.7360 H   0  0  0  0  0  0  0  0  0  0  0  0
   39.4860   32.1270   41.2390 N   0  0  0  0  0  0  0  0  0  0  0  0
   38.3700   31.3500   41.2440 C   0  0  0  0  0  0  0  0  0  0  0  0
  1  2  1  0  0  0  0
  1  7  1  0  0  0  0
  2  8  1  0  0  0  0
  3 20  1  0  0  0  0
  3  2  2  0  0  0  0
  4  3  1  0  0  0  0
  5  4  2  0  0  0  0
  5  6  1  0  0  0  0
  6  1  2  0  0  0  0
  9 10  1  0  0  0  0
 10 11  1  0  0  0  0
 11 12  2  0  0  0  0
 11  5  1  0  0  0  0
 12 16  1  0  0  0  0
 13 17  1  0  0  0  0
 13 12  1  0  0  0  0
 14 13  2  0  0  0  0
 15 14  1  0  0  0  0
 15 10  2  0  0  0  0
 18 14  1  0  0  0  0
 19 15  1  0  0  0  0
 20 22  1  0  0  0  0
 21 20  1  0  0  0  0
 23 24  1  0  0  0  0
 23 20  1  0  0  0  0
 25 23  1  0  0  0  0
 26 23  1  0  0  0  0
 27 28  1  0  0  0  0
 27 26  1  0  0  0  0
 29 27  2  0  0  0  0
 30 29  1  0  0  0  0
 30 37  1  0  0  0  0
 31 33  1  0  0  0  0
 31 30  2  0  0  0  0
 32 31  1  0  0  0  0
 33 34  2  0  0  0  0
 34 35  1  0  0  0  0
 34 36  1  0  0  0  0
 36 37  2  0  0  0  0
 37 26  1  0  0  0  0
M  END
>  <minimizedAffinity>
-5.68238354

$$$$

 OpenBabel03252502513D

 37 40  0  0  0  0  0  0  0  0999 V2000
   33.1920   26.9580   36.3260 C   0  0  0  0  0  0  0  0  0  0  0  0
   34.2860   27.0550   37.1990 C   0  0  0  0  0  0  0  0  0  0  0  0
   34.3770   28.1890   37.9980 C   0  0  0  0  0  0  0  0  0  0  0  0
   33.4160   29.1460   37.9050 N   0  0  0  0  0  0  0  0  0  0  0  0
   32.3640   29.0200   37.0450 C   0  0  0  0  0  0  0  0  0  0  0  0
   32.2570   27.9270   36.2590 N   0  0  0  0  0  0  0  0  0  0  0  0
   33.0880   26.0890   35.6890 H   0  0  0  0  0  0  0  0  0  0  0  0
   34.9850   26.2260   37.1810 H   0  0  0  0  0  0  0  0  0  0  0  0
   32.3060   30.5470   34.4780 Cl  0  0  0  0  0  0  0  0  0  0  0  0
   31.2530   30.8400   35.8450 C   0  0  0  0  0  0  0  0  0  0  0  0
   31.3540   30.0830   36.9850 C   0  0  0  0  0  0  0  0  0  0  0  0
   30.5360   30.2880   38.0880 C   0  0  0  0  0  0  0  0  0  0  0  0
   29.6050   31.3100   37.9620 C   0  0  0  0  0  0  0  0  0  0  0  0
   29.4950   32.0710   36.8340 C   0  0  0  0  0  0  0  0  0  0  0  0
   30.3110   31.8460   35.7720 C   0  0  0  0  0  0  0  0  0  0  0  0
   30.6430   29.6770   38.9610 H   0  0  0  0  0  0  0  0  0  0  0  0
   28.9750   31.4550   38.8330 H   0  0  0  0  0  0  0  0  0  0  0  0
   28.7510   32.8500   36.8020 H   0  0  0  0  0  0  0  0  0  0  0  0
   30.1910   32.4720   34.8940 H   0  0  0  0  0  0  0  0  0  0  0  0
   35.5140   28.2810   38.9210 C   0  0  0  0  0  0  0  0  0  0  0  0
   35.6840   27.2260   39.2870 H   0  0  0  0  0  0  0  0  0  0  0  0
   36.4640   28.5870   38.4830 H   0  0  0  0  0  0  0  0  0  0  0  0
   35.2010   29.0590   40.1850 C   0  0  0  0  0  0  0  0  0  0  0  0
   35.0340   30.1210   39.9170 H   0  0  0  0  0  0  0  0  0  0  0  0
   34.2430   28.6920   40.6240 H   0  0  0  0  0  0  0  0  0  0  0  0
   36.2240   28.8940   41.1850 N   0  0  0  0  0  0  0  0  0  0  0  0
   36.4580   27.9850   42.1220 C   0  0  0  0  0  0  0  0  0  0  0  0
   35.8100   27.1290   42.2680 H   0  0  0  0  0  0  0  0  0  0  0  0
   37.5870   28.3090   42.8140 N   0  0  0  0  0  0  0  0  0  0  0  0
   38.0720   29.4500   42.2980 C   0  0  0  0  0  0  0  0  0  0  0  0
   39.1750   30.1990   42.6220 C   0  0  0  0  0  0  0  0  0  0  0  0
   39.8720   29.9570   43.4100 H   0  0  0  0  0  0  0  0  0  0  0  0
   39.4510   31.3260   41.9420 N   0  0  0  0  0  0  0  0  0  0  0  0
   38.6240   31.6880   40.9480 C   0  0  0  0  0  0  0  0  0  0  0  0
   38.6470   32.5490   40.2670 H   0  0  0  0  0  0  0  0  0  0  0  0
   37.5430   30.9570   40.6260 N   0  0  0  0  0  0  0  0  0  0  0  0
   37.2150   29.8100   41.2800 C   0  0  0  0  0  0  0  0  0  0  0  0
  1  2  1  0  0  0  0
  2  3  2  0  0  0  0
  3 20  1  0  0  0  0
  4  3  1  0  0  0  0
  5  4  2  0  0  0  0
  6  1  2  0  0  0  0
  6  5  1  0  0  0  0
  7  1  1  0  0  0  0
  8  2  1  0  0  0  0
  9 10  1  0  0  0  0
 10 11  1  0  0  0  0
 11  5  1  0  0  0  0
 11 12  2  0  0  0  0
 12 16  1  0  0  0  0
 13 12  1  0  0  0  0
 13 17  1  0  0  0  0
 14 13  2  0  0  0  0
 15 10  2  0  0  0  0
 15 14  1  0  0  0  0
 18 14  1  0  0  0  0
 19 15  1  0  0  0  0
 20 21  1  0  0  0  0
 20 23  1  0  0  0  0
 22 20  1  0  0  0  0
 23 25  1  0  0  0  0
 23 26  1  0  0  0  0
 24 23  1  0  0  0  0
 26 37  1  0  0  0  0
 26 27  1  0  0  0  0
 27 28  1  0  0  0  0
 27 29  2  0  0  0  0
 30 31  1  0  0  0  0
 30 29  1  0  0  0  0
 31 32  1  0  0  0  0
 33 31  2  0  0  0  0
 34 33  1  0  0  0  0
 35 34  1  0  0  0  0
 36 34  2  0  0  0  0
 36 37  1  0  0  0  0
 37 30  2  0  0  0  0
M  END
>  <minimizedAffinity>
-5.6248579

$$$$

 OpenBabel03252502513D

 37 40  0  0  0  0  0  0  0  0999 V2000
   32.4930   26.7940   36.0110 C   0  0  0  0  0  0  0  0  0  0  0  0
   33.6490   26.7960   36.8060 C   0  0  0  0  0  0  0  0  0  0  0  0
   34.0550   28.0060   37.3570 C   0  0  0  0  0  0  0  0  0  0  0  0
   33.3280   29.1260   37.1060 N   0  0  0  0  0  0  0  0  0  0  0  0
   32.2060   29.0910   36.3280 C   0  0  0  0  0  0  0  0  0  0  0  0
   31.7950   27.9250   35.7840 N   0  0  0  0  0  0  0  0  0  0  0  0
   32.1470   25.8700   35.5670 H   0  0  0  0  0  0  0  0  0  0  0  0
   34.1430   25.8370   36.9310 H   0  0  0  0  0  0  0  0  0  0  0  0
   30.5510   30.0120   38.6370 Cl  0  0  0  0  0  0  0  0  0  0  0  0
   30.6670   30.8310   37.0950 C   0  0  0  0  0  0  0  0  0  0  0  0
   31.4580   30.3300   36.0910 C   0  0  0  0  0  0  0  0  0  0  0  0
   31.5740   30.9540   34.8560 C   0  0  0  0  0  0  0  0  0  0  0  0
   30.8380   32.1200   34.7020 C   0  0  0  0  0  0  0  0  0  0  0  0
   30.0470   32.6280   35.6920 C   0  0  0  0  0  0  0  0  0  0  0  0
   29.9540   31.9940   36.8890 C   0  0  0  0  0  0  0  0  0  0  0  0
   32.2020   30.5340   34.0960 H   0  0  0  0  0  0  0  0  0  0  0  0
   30.9410   32.5930   33.7310 H   0  0  0  0  0  0  0  0  0  0  0  0
   29.5000   33.5380   35.5060 H   0  0  0  0  0  0  0  0  0  0  0  0
   29.3150   32.4310   37.6500 H   0  0  0  0  0  0  0  0  0  0  0  0
   35.2560   28.0010   38.2000 C   0  0  0  0  0  0  0  0  0  0  0  0
   34.8800   28.1770   39.2510 H   0  0  0  0  0  0  0  0  0  0  0  0
   35.8050   27.0600   38.2470 H   0  0  0  0  0  0  0  0  0  0  0  0
   36.1770   29.1770   37.9410 C   0  0  0  0  0  0  0  0  0  0  0  0
   37.1350   28.7960   37.5340 H   0  0  0  0  0  0  0  0  0  0  0  0
   35.7380   29.8300   37.1500 H   0  0  0  0  0  0  0  0  0  0  0  0
   36.3590   29.9870   39.1170 N   0  0  0  0  0  0  0  0  0  0  0  0
   35.7200   30.0860   40.2760 C   0  0  0  0  0  0  0  0  0  0  0  0
   34.8560   29.4770   40.5100 H   0  0  0  0  0  0  0  0  0  0  0  0
   36.3160   31.0300   41.0570 N   0  0  0  0  0  0  0  0  0  0  0  0
   37.3540   31.5360   40.3730 C   0  0  0  0  0  0  0  0  0  0  0  0
   38.2740   32.5020   40.6950 C   0  0  0  0  0  0  0  0  0  0  0  0
   38.2950   33.0420   41.6300 H   0  0  0  0  0  0  0  0  0  0  0  0
   39.2370   32.8380   39.8180 N   0  0  0  0  0  0  0  0  0  0  0  0
   39.2690   32.2070   38.6340 C   0  0  0  0  0  0  0  0  0  0  0  0
   39.9480   32.3110   37.7780 H   0  0  0  0  0  0  0  0  0  0  0  0
   38.3700   31.2600   38.3140 N   0  0  0  0  0  0  0  0  0  0  0  0
   37.3750   30.8800   39.1600 C   0  0  0  0  0  0  0  0  0  0  0  0
  1  2  1  0  0  0  0
  2  8  1  0  0  0  0
  2  3  2  0  0  0  0
  3 20  1  0  0  0  0
  4  3  1  0  0  0  0
  5  4  2  0  0  0  0
  6  1  2  0  0  0  0
  6  5  1  0  0  0  0
  7  1  1  0  0  0  0
 10  9  1  0  0  0  0
 11  5  1  0  0  0  0
 11 10  2  0  0  0  0
 12 11  1  0  0  0  0
 13 12  2  0  0  0  0
 13 14  1  0  0  0  0
 14 15  2  0  0  0  0
 15 10  1  0  0  0  0
 15 19  1  0  0  0  0
 16 12  1  0  0  0  0
 17 13  1  0  0  0  0
 18 14  1  0  0  0  0
 20 22  1  0  0  0  0
 20 21  1  0  0  0  0
 23 20  1  0  0  0  0
 23 26  1  0  0  0  0
 24 23  1  0  0  0  0
 25 23  1  0  0  0  0
 26 37  1  0  0  0  0
 26 27  1  0  0  0  0
 27 28  1  0  0  0  0
 27 29  2  0  0  0  0
 30 31  1  0  0  0  0
 30 29  1  0  0  0  0
 31 32  1  0  0  0  0
 33 31  2  0  0  0  0
 34 33  1  0  0  0  0
 35 34  1  0  0  0  0
 36 34  2  0  0  0  0
 36 37  1  0  0  0  0
 37 30  2  0  0  0  0
M  END
>  <minimizedAffinity>
-5.61008739

$$$$

 OpenBabel03252502513D

 37 40  0  0  0  0  0  0  0  0999 V2000
   37.0830   28.3640   43.4720 C   0  0  0  0  0  0  0  0  0  0  0  0
   38.2840   29.0720   43.3080 C   0  0  0  0  0  0  0  0  0  0  0  0
   39.2340   28.5430   42.4420 C   0  0  0  0  0  0  0  0  0  0  0  0
   38.9690   27.3770   41.7970 N   0  0  0  0  0  0  0  0  0  0  0  0
   37.7890   26.7130   41.9780 C   0  0  0  0  0  0  0  0  0  0  0  0
   36.8530   27.2100   42.8150 N   0  0  0  0  0  0  0  0  0  0  0  0
   36.3200   28.7470   44.1370 H   0  0  0  0  0  0  0  0  0  0  0  0
   38.3770   29.9900   43.8780 H   0  0  0  0  0  0  0  0  0  0  0  0
   39.3300   24.3700   43.0060 Cl  0  0  0  0  0  0  0  0  0  0  0  0
   38.2190   24.3260   41.6550 C   0  0  0  0  0  0  0  0  0  0  0  0
   37.5540   25.4580   41.2550 C   0  0  0  0  0  0  0  0  0  0  0  0
   36.6650   25.4600   40.1880 C   0  0  0  0  0  0  0  0  0  0  0  0
   36.4920   24.2390   39.5510 C   0  0  0  0  0  0  0  0  0  0  0  0
   37.1480   23.1060   39.9370 C   0  0  0  0  0  0  0  0  0  0  0  0
   38.0120   23.1380   40.9850 C   0  0  0  0  0  0  0  0  0  0  0  0
   36.1630   26.3620   39.9050 H   0  0  0  0  0  0  0  0  0  0  0  0
   35.7950   24.2600   38.7200 H   0  0  0  0  0  0  0  0  0  0  0  0
   36.9690   22.1910   39.3980 H   0  0  0  0  0  0  0  0  0  0  0  0
   38.5130   22.2150   41.2620 H   0  0  0  0  0  0  0  0  0  0  0  0
   40.4820   29.2940   42.2620 C   0  0  0  0  0  0  0  0  0  0  0  0
   40.3450   30.2430   42.8580 H   0  0  0  0  0  0  0  0  0  0  0  0
   41.3830   28.8310   42.6660 H   0  0  0  0  0  0  0  0  0  0  0  0
   40.6900   29.7820   40.8410 C   0  0  0  0  0  0  0  0  0  0  0  0
   41.6420   29.3660   40.4580 H   0  0  0  0  0  0  0  0  0  0  0  0
   39.8840   29.3770   40.1840 H   0  0  0  0  0  0  0  0  0  0  0  0
   40.6360   31.2180   40.7530 N   0  0  0  0  0  0  0  0  0  0  0  0
   41.5250   32.1860   40.9390 C   0  0  0  0  0  0  0  0  0  0  0  0
   42.5500   31.9800   41.2210 H   0  0  0  0  0  0  0  0  0  0  0  0
   40.9430   33.3990   40.7220 N   0  0  0  0  0  0  0  0  0  0  0  0
   39.6580   33.1880   40.3930 C   0  0  0  0  0  0  0  0  0  0  0  0
   38.6430   34.0560   40.0800 C   0  0  0  0  0  0  0  0  0  0  0  0
   38.7410   35.1310   40.0510 H   0  0  0  0  0  0  0  0  0  0  0  0
   37.4190   33.5850   39.7810 N   0  0  0  0  0  0  0  0  0  0  0  0
   37.2250   32.2570   39.7980 C   0  0  0  0  0  0  0  0  0  0  0  0
   36.3320   31.6550   39.5920 H   0  0  0  0  0  0  0  0  0  0  0  0
   38.2170   31.4020   40.1040 N   0  0  0  0  0  0  0  0  0  0  0  0
   39.4730   31.8210   40.4150 C   0  0  0  0  0  0  0  0  0  0  0  0
  1  7  1  0  0  0  0
  2  1  1  0  0  0  0
  2  8  1  0  0  0  0
  3  2  2  0  0  0  0
  4  5  2  0  0  0  0
  4  3  1  0  0  0  0
  5  6  1  0  0  0  0
  6  1  2  0  0  0  0
 10  9  1  0  0  0  0
 11 10  1  0  0  0  0
 11  5  1  0  0  0  0
 12 11  2  0  0  0  0
 13 14  2  0  0  0  0
 13 12  1  0  0  0  0
 14 15  1  0  0  0  0
 15 19  1  0  0  0  0
 15 10  2  0  0  0  0
 16 12  1  0  0  0  0
 17 13  1  0  0  0  0
 18 14  1  0  0  0  0
 20  3  1  0  0  0  0
 20 22  1  0  0  0  0
 20 21  1  0  0  0  0
 23 20  1  0  0  0  0
 24 23  1  0  0  0  0
 25 23  1  0  0  0  0
 26 23  1  0  0  0  0
 26 27  1  0  0  0  0
 27 28  1  0  0  0  0
 29 27  2  0  0  0  0
 30 37  1  0  0  0  0
 30 29  1  0  0  0  0
 31 30  2  0  0  0  0
 32 31  1  0  0  0  0
 33 34  2  0  0  0  0
 33 31  1  0  0  0  0
 34 36  1  0  0  0  0
 35 34  1  0  0  0  0
 36 37  2  0  0  0  0
 37 26  1  0  0  0  0
M  END
>  <minimizedAffinity>
-5.60266829

$$$$

 OpenBabel03252502513D

 37 40  0  0  0  0  0  0  0  0999 V2000
   35.4350   29.2740   40.7120 C   0  0  0  0  0  0  0  0  0  0  0  0
   35.9890   29.9360   39.6060 C   0  0  0  0  0  0  0  0  0  0  0  0
   37.3180   29.6750   39.2950 C   0  0  0  0  0  0  0  0  0  0  0  0
   38.0210   28.8020   40.0630 N   0  0  0  0  0  0  0  0  0  0  0  0
   37.4520   28.1740   41.1330 C   0  0  0  0  0  0  0  0  0  0  0  0
   36.1610   28.4130   41.4530 N   0  0  0  0  0  0  0  0  0  0  0  0
   34.4020   29.4520   40.9840 H   0  0  0  0  0  0  0  0  0  0  0  0
   35.3260   30.6090   39.0730 H   0  0  0  0  0  0  0  0  0  0  0  0
   37.2200   25.3120   40.3110 Cl  0  0  0  0  0  0  0  0  0  0  0  0
   38.2140   25.9020   41.6250 C   0  0  0  0  0  0  0  0  0  0  0  0
   38.2560   27.2390   41.9280 C   0  0  0  0  0  0  0  0  0  0  0  0
   39.0330   27.7430   42.9640 C   0  0  0  0  0  0  0  0  0  0  0  0
   39.7670   26.8020   43.6730 C   0  0  0  0  0  0  0  0  0  0  0  0
   39.7330   25.4690   43.3830 C   0  0  0  0  0  0  0  0  0  0  0  0
   38.9620   25.0080   42.3640 C   0  0  0  0  0  0  0  0  0  0  0  0
   39.0420   28.7930   43.1710 H   0  0  0  0  0  0  0  0  0  0  0  0
   40.3680   27.2140   44.4780 H   0  0  0  0  0  0  0  0  0  0  0  0
   40.3270   24.7920   43.9750 H   0  0  0  0  0  0  0  0  0  0  0  0
   38.9640   23.9410   42.1650 H   0  0  0  0  0  0  0  0  0  0  0  0
   37.8900   30.3570   38.1280 C   0  0  0  0  0  0  0  0  0  0  0  0
   39.0090   30.2480   38.2390 H   0  0  0  0  0  0  0  0  0  0  0  0
   37.6560   29.9230   37.1560 H   0  0  0  0  0  0  0  0  0  0  0  0
   37.6680   31.8580   38.1410 C   0  0  0  0  0  0  0  0  0  0  0  0
   37.8970   32.2600   37.1350 H   0  0  0  0  0  0  0  0  0  0  0  0
   36.5900   32.0760   38.3280 H   0  0  0  0  0  0  0  0  0  0  0  0
   38.4250   32.5040   39.1810 N   0  0  0  0  0  0  0  0  0  0  0  0
   38.1380   32.9170   40.4090 C   0  0  0  0  0  0  0  0  0  0  0  0
   37.1510   32.7990   40.8400 H   0  0  0  0  0  0  0  0  0  0  0  0
   39.2410   33.4760   40.9820 N   0  0  0  0  0  0  0  0  0  0  0  0
   40.2440   33.4130   40.0920 C   0  0  0  0  0  0  0  0  0  0  0  0
   41.5500   33.8280   40.1610 C   0  0  0  0  0  0  0  0  0  0  0  0
   41.9980   34.3080   41.0180 H   0  0  0  0  0  0  0  0  0  0  0  0
   42.3740   33.6470   39.1130 N   0  0  0  0  0  0  0  0  0  0  0  0
   41.8830   33.0560   38.0120 C   0  0  0  0  0  0  0  0  0  0  0  0
   42.3560   32.8070   37.0540 H   0  0  0  0  0  0  0  0  0  0  0  0
   40.6040   32.6470   37.9400 N   0  0  0  0  0  0  0  0  0  0  0  0
   39.7270   32.8040   38.9680 C   0  0  0  0  0  0  0  0  0  0  0  0
  1  7  1  0  0  0  0
  1  6  1  0  0  0  0
  2  1  2  0  0  0  0
  3  2  1  0  0  0  0
  3  4  2  0  0  0  0
  4  5  1  0  0  0  0
  5  6  2  0  0  0  0
  5 11  1  0  0  0  0
  8  2  1  0  0  0  0
  9 10  1  0  0  0  0
 10 11  2  0  0  0  0
 10 15  1  0  0  0  0
 11 12  1  0  0  0  0
 12 16  1  0  0  0  0
 12 13  2  0  0  0  0
 13 17  1  0  0  0  0
 14 13  1  0  0  0  0
 14 18  1  0  0  0  0
 15 14  2  0  0  0  0
 19 15  1  0  0  0  0
 20 23  1  0  0  0  0
 20 21  1  0  0  0  0
 20  3  1  0  0  0  0
 22 20  1  0  0  0  0
 23 25  1  0  0  0  0
 23 26  1  0  0  0  0
 24 23  1  0  0  0  0
 26 27  1  0  0  0  0
 27 28  1  0  0  0  0
 27 29  2  0  0  0  0
 30 31  1  0  0  0  0
 30 29  1  0  0  0  0
 31 32  1  0  0  0  0
 33 31  2  0  0  0  0
 34 33  1  0  0  0  0
 35 34  1  0  0  0  0
 36 34  2  0  0  0  0
 36 37  1  0  0  0  0
 37 26  1  0  0  0  0
 37 30  2  0  0  0  0
M  END
>  <minimizedAffinity>
-5.55625725

$$$$

 OpenBabel03252502513D

 37 40  0  0  0  0  0  0  0  0999 V2000
   37.8730   33.7370   39.9550 C   0  0  0  0  0  0  0  0  0  0  0  0
   39.0520   33.3580   40.6140 C   0  0  0  0  0  0  0  0  0  0  0  0
   39.4970   32.0520   40.4480 C   0  0  0  0  0  0  0  0  0  0  0  0
   38.7820   31.2020   39.6640 N   0  0  0  0  0  0  0  0  0  0  0  0
   37.6380   31.6020   39.0350 C   0  0  0  0  0  0  0  0  0  0  0  0
   37.1900   32.8680   39.1830 N   0  0  0  0  0  0  0  0  0  0  0  0
   37.4990   34.7460   40.0610 H   0  0  0  0  0  0  0  0  0  0  0  0
   39.5320   34.1270   41.2120 H   0  0  0  0  0  0  0  0  0  0  0  0
   35.5570   30.0190   40.4780 Cl  0  0  0  0  0  0  0  0  0  0  0  0
   35.9300   29.8700   38.7750 C   0  0  0  0  0  0  0  0  0  0  0  0
   36.9060   30.6440   38.1990 C   0  0  0  0  0  0  0  0  0  0  0  0
   37.2280   30.5540   36.8510 C   0  0  0  0  0  0  0  0  0  0  0  0
   36.4960   29.6270   36.1220 C   0  0  0  0  0  0  0  0  0  0  0  0
   35.5240   28.8500   36.6820 C   0  0  0  0  0  0  0  0  0  0  0  0
   35.2330   28.9620   38.0040 C   0  0  0  0  0  0  0  0  0  0  0  0
   37.9950   31.1750   36.4360 H   0  0  0  0  0  0  0  0  0  0  0  0
   36.7620   29.5700   35.0710 H   0  0  0  0  0  0  0  0  0  0  0  0
   34.9940   28.1490   36.0590 H   0  0  0  0  0  0  0  0  0  0  0  0
   34.4530   28.3270   38.4110 H   0  0  0  0  0  0  0  0  0  0  0  0
   40.7380   31.6640   41.1270 C   0  0  0  0  0  0  0  0  0  0  0  0
   41.1130   30.7580   40.5650 H   0  0  0  0  0  0  0  0  0  0  0  0
   41.5550   32.3850   41.0830 H   0  0  0  0  0  0  0  0  0  0  0  0
   40.5170   31.1510   42.5370 C   0  0  0  0  0  0  0  0  0  0  0  0
   41.2360   31.6520   43.2150 H   0  0  0  0  0  0  0  0  0  0  0  0
   39.4990   31.4450   42.8880 H   0  0  0  0  0  0  0  0  0  0  0  0
   40.5980   29.7150   42.6060 N   0  0  0  0  0  0  0  0  0  0  0  0
   41.5920   28.8430   42.5060 C   0  0  0  0  0  0  0  0  0  0  0  0
   42.6160   29.1540   42.3370 H   0  0  0  0  0  0  0  0  0  0  0  0
   41.1150   27.5740   42.6490 N   0  0  0  0  0  0  0  0  0  0  0  0
   39.7890   27.6530   42.8430 C   0  0  0  0  0  0  0  0  0  0  0  0
   38.8380   26.6830   43.0390 C   0  0  0  0  0  0  0  0  0  0  0  0
   39.0390   25.6230   43.0690 H   0  0  0  0  0  0  0  0  0  0  0  0
   37.5480   27.0250   43.2120 N   0  0  0  0  0  0  0  0  0  0  0  0
   37.2260   28.3280   43.1860 C   0  0  0  0  0  0  0  0  0  0  0  0
   36.2610   28.8360   43.3020 H   0  0  0  0  0  0  0  0  0  0  0  0
   38.1540   29.2820   42.9940 N   0  0  0  0  0  0  0  0  0  0  0  0
   39.4720   28.9940   42.8140 C   0  0  0  0  0  0  0  0  0  0  0  0
  1  7  1  0  0  0  0
  1  2  1  0  0  0  0
  2  8  1  0  0  0  0
  3  2  2  0  0  0  0
  3 20  1  0  0  0  0
  4  3  1  0  0  0  0
  5  6  1  0  0  0  0
  5  4  2  0  0  0  0
  6  1  2  0  0  0  0
 10  9  1  0  0  0  0
 11 10  1  0  0  0  0
 11  5  1  0  0  0  0
 12 11  2  0  0  0  0
 13 14  2  0  0  0  0
 13 12  1  0  0  0  0
 14 15  1  0  0  0  0
 15 19  1  0  0  0  0
 15 10  2  0  0  0  0
 16 12  1  0  0  0  0
 17 13  1  0  0  0  0
 18 14  1  0  0  0  0
 20 23  1  0  0  0  0
 21 20  1  0  0  0  0
 22 20  1  0  0  0  0
 23 26  1  0  0  0  0
 23 25  1  0  0  0  0
 23 24  1  0  0  0  0
 26 37  1  0  0  0  0
 27 26  1  0  0  0  0
 27 29  2  0  0  0  0
 28 27  1  0  0  0  0
 29 30  1  0  0  0  0
 30 31  1  0  0  0  0
 31 32  1  0  0  0  0
 31 33  2  0  0  0  0
 34 33  1  0  0  0  0
 34 35  1  0  0  0  0
 36 34  2  0  0  0  0
 37 30  2  0  0  0  0
 37 36  1  0  0  0  0
M  END
>  <minimizedAffinity>
-5.50325584

$$$$
