
 OpenBabel03252502503D

 37 40  0  0  0  0  0  0  0  0999 V2000
   44.6180   36.2610   43.9480 C   0  0  0  0  0  0  0  0  0  0  0  0
   44.7860   35.4480   45.0800 C   0  0  0  0  0  0  0  0  0  0  0  0
   45.4700   34.2490   44.9190 C   0  0  0  0  0  0  0  0  0  0  0  0
   45.9420   33.9130   43.6900 N   0  0  0  0  0  0  0  0  0  0  0  0
   45.7610   34.7270   42.6080 C   0  0  0  0  0  0  0  0  0  0  0  0
   45.1000   35.8970   42.7430 N   0  0  0  0  0  0  0  0  0  0  0  0
   44.0910   37.2020   44.0370 H   0  0  0  0  0  0  0  0  0  0  0  0
   44.3630   35.8260   46.0050 H   0  0  0  0  0  0  0  0  0  0  0  0
   48.5270   35.6930   42.0260 Cl  0  0  0  0  0  0  0  0  0  0  0  0
   47.5570   34.7140   40.9470 C   0  0  0  0  0  0  0  0  0  0  0  0
   46.2930   34.3170   41.3040 C   0  0  0  0  0  0  0  0  0  0  0  0
   45.4950   33.5400   40.4740 C   0  0  0  0  0  0  0  0  0  0  0  0
   46.0620   33.1900   39.2560 C   0  0  0  0  0  0  0  0  0  0  0  0
   47.3180   33.5790   38.8880 C   0  0  0  0  0  0  0  0  0  0  0  0
   48.0720   34.3390   39.7230 C   0  0  0  0  0  0  0  0  0  0  0  0
   44.5140   33.2480   40.7860 H   0  0  0  0  0  0  0  0  0  0  0  0
   45.4250   32.5830   38.6210 H   0  0  0  0  0  0  0  0  0  0  0  0
   47.6970   33.2730   37.9270 H   0  0  0  0  0  0  0  0  0  0  0  0
   49.0660   34.6270   39.3930 H   0  0  0  0  0  0  0  0  0  0  0  0
   45.6570   33.4080   46.1070 C   0  0  0  0  0  0  0  0  0  0  0  0
   46.2730   34.0340   46.8180 H   0  0  0  0  0  0  0  0  0  0  0  0
   44.7540   33.1530   46.6610 H   0  0  0  0  0  0  0  0  0  0  0  0
   46.5230   32.1900   45.8510 C   0  0  0  0  0  0  0  0  0  0  0  0
   45.8820   31.3720   45.4660 H   0  0  0  0  0  0  0  0  0  0  0  0
   47.2600   32.4160   45.0450 H   0  0  0  0  0  0  0  0  0  0  0  0
   47.2690   31.8050   47.0210 N   0  0  0  0  0  0  0  0  0  0  0  0
   47.5430   32.3980   48.1750 C   0  0  0  0  0  0  0  0  0  0  0  0
   47.1840   33.3920   48.4110 H   0  0  0  0  0  0  0  0  0  0  0  0
   48.3060   31.5770   48.9510 N   0  0  0  0  0  0  0  0  0  0  0  0
   48.5160   30.4420   48.2670 C   0  0  0  0  0  0  0  0  0  0  0  0
   49.2100   29.3020   48.5850 C   0  0  0  0  0  0  0  0  0  0  0  0
   49.7340   29.1410   49.5150 H   0  0  0  0  0  0  0  0  0  0  0  0
   49.2740   28.2820   47.7090 N   0  0  0  0  0  0  0  0  0  0  0  0
   48.6440   28.4140   46.5310 C   0  0  0  0  0  0  0  0  0  0  0  0
   48.5580   27.7300   45.6770 H   0  0  0  0  0  0  0  0  0  0  0  0
   47.9620   29.5290   46.2150 N   0  0  0  0  0  0  0  0  0  0  0  0
   47.8650   30.5900   47.0600 C   0  0  0  0  0  0  0  0  0  0  0  0
  1  7  1  0  0  0  0
  1  2  1  0  0  0  0
  2  8  1  0  0  0  0
  3  2  2  0  0  0  0
  3 20  1  0  0  0  0
  4  3  1  0  0  0  0
  5  6  1  0  0  0  0
  5  4  2  0  0  0  0
  6  1  2  0  0  0  0
 10 11  1  0  0  0  0
 10  9  1  0  0  0  0
 11  5  1  0  0  0  0
 12 16  1  0  0  0  0
 12 11  2  0  0  0  0
 13 12  1  0  0  0  0
 14 13  2  0  0  0  0
 14 15  1  0  0  0  0
 15 10  2  0  0  0  0
 17 13  1  0  0  0  0
 18 14  1  0  0  0  0
 19 15  1  0  0  0  0
 20 22  1  0  0  0  0
 20 21  1  0  0  0  0
 23 20  1  0  0  0  0
 23 26  1  0  0  0  0
 24 23  1  0  0  0  0
 25 23  1  0  0  0  0
 26 37  1  0  0  0  0
 26 27  1  0  0  0  0
 27 28  1  0  0  0  0
 27 29  2  0  0  0  0
 30 31  1  0  0  0  0
 30 29  1  0  0  0  0
 31 32  1  0  0  0  0
 33 31  2  0  0  0  0
 34 33  1  0  0  0  0
 35 34  1  0  0  0  0
 36 34  2  0  0  0  0
 36 37  1  0  0  0  0
 37 30  2  0  0  0  0
M  END
>  <minimizedAffinity>
-5.88228655

>  <minimizedRMSD>
0.515794516

$$$$
