
 OpenBabel03252507443D

 34 37  0  0  0  0  0  0  0  0999 V2000
   37.2860   29.7120   41.8910 C   0  0  0  0  0  0  0  0  0  0  0  0
   36.2530   29.4560   40.9380 C   0  0  0  0  0  0  0  0  0  0  0  0
   36.5970   30.7160   39.6250 S   0  0  0  0  0  0  0  0  0  0  0  0
   38.0690   31.3590   40.6000 C   0  0  0  0  0  0  0  0  0  0  0  0
   38.0710   30.6970   41.5220 N   0  0  0  0  0  0  0  0  0  0  0  0
   35.4830   28.6950   41.0190 H   0  0  0  0  0  0  0  0  0  0  0  0
   38.9670   32.4490   40.2260 N   0  0  0  0  0  0  0  0  0  0  0  0
   38.9630   33.6310   40.8210 C   0  0  0  0  0  0  0  0  0  0  0  0
   38.3760   34.0320   41.6240 H   0  0  0  0  0  0  0  0  0  0  0  0
   39.9120   34.3670   40.2160 N   0  0  0  0  0  0  0  0  0  0  0  0
   40.4810   33.6250   39.2590 C   0  0  0  0  0  0  0  0  0  0  0  0
   41.4900   33.8240   38.3240 C   0  0  0  0  0  0  0  0  0  0  0  0
   41.9750   34.7960   38.3140 H   0  0  0  0  0  0  0  0  0  0  0  0
   41.8910   32.8960   37.4480 N   0  0  0  0  0  0  0  0  0  0  0  0
   41.2790   31.6970   37.4750 C   0  0  0  0  0  0  0  0  0  0  0  0
   41.5870   30.9190   36.7680 H   0  0  0  0  0  0  0  0  0  0  0  0
   40.2870   31.4540   38.3720 N   0  0  0  0  0  0  0  0  0  0  0  0
   39.8880   32.3800   39.2460 C   0  0  0  0  0  0  0  0  0  0  0  0
   37.3740   28.8970   43.1370 C   0  0  0  0  0  0  0  0  0  0  0  0
   37.4390   29.6350   43.9890 H   0  0  0  0  0  0  0  0  0  0  0  0
   36.4490   28.3160   43.3400 H   0  0  0  0  0  0  0  0  0  0  0  0
   38.6200   28.0700   43.2430 C   0  0  0  0  0  0  0  0  0  0  0  0
   38.8750   28.0570   44.3440 H   0  0  0  0  0  0  0  0  0  0  0  0
   39.4870   28.5000   42.7550 H   0  0  0  0  0  0  0  0  0  0  0  0
   38.4150   26.6520   42.8880 C   0  0  0  0  0  0  0  0  0  0  0  0
   39.4710   25.7730   43.1400 C   0  0  0  0  0  0  0  0  0  0  0  0
   39.3390   24.4350   42.8290 C   0  0  0  0  0  0  0  0  0  0  0  0
   38.1620   24.0190   42.2800 N   0  0  0  0  0  0  0  0  0  0  0  0
   37.1620   24.8900   42.0490 C   0  0  0  0  0  0  0  0  0  0  0  0
   37.2960   26.1810   42.3520 N   0  0  0  0  0  0  0  0  0  0  0  0
   40.1760   23.7840   43.0370 H   0  0  0  0  0  0  0  0  0  0  0  0
   36.2490   24.4660   41.6050 H   0  0  0  0  0  0  0  0  0  0  0  0
   41.0020   26.3830   43.8670 S   0  0  0  0  0  0  0  0  0  0  0  0
   42.0560   26.0050   43.0320 H   0  0  0  0  0  0  0  0  0  0  0  0
  1 19  1  0  0  0  0
  2  6  1  0  0  0  0
  2  1  2  0  0  0  0
  3  4  1  0  0  0  0
  3  2  1  0  0  0  0
  4  5  2  0  0  0  0
  5  1  1  0  0  0  0
  7  4  1  0  0  0  0
  7  8  1  0  0  0  0
  8  9  1  0  0  0  0
 10  8  2  0  0  0  0
 11 10  1  0  0  0  0
 12 11  2  0  0  0  0
 13 12  1  0  0  0  0
 14 15  2  0  0  0  0
 14 12  1  0  0  0  0
 15 17  1  0  0  0  0
 16 15  1  0  0  0  0
 17 18  2  0  0  0  0
 18 11  1  0  0  0  0
 18  7  1  0  0  0  0
 19 22  1  0  0  0  0
 19 21  1  0  0  0  0
 19 20  1  0  0  0  0
 22 23  1  0  0  0  0
 24 22  1  0  0  0  0
 25 26  1  0  0  0  0
 25 22  1  0  0  0  0
 26 33  1  0  0  0  0
 27 31  1  0  0  0  0
 27 26  2  0  0  0  0
 28 27  1  0  0  0  0
 29 28  2  0  0  0  0
 29 30  1  0  0  0  0
 30 25  2  0  0  0  0
 32 29  1  0  0  0  0
 34 33  1  0  0  0  0
M  END
>  <minimizedAffinity>
-5.86173153

$$$$

 OpenBabel03252507443D

 34 37  0  0  0  0  0  0  0  0999 V2000
   37.5460   29.7920   41.8920 C   0  0  0  0  0  0  0  0  0  0  0  0
   36.4580   29.5570   40.9960 C   0  0  0  0  0  0  0  0  0  0  0  0
   36.7670   30.7980   39.6560 S   0  0  0  0  0  0  0  0  0  0  0  0
   38.3040   31.4070   40.5460 C   0  0  0  0  0  0  0  0  0  0  0  0
   38.3370   30.7520   41.4730 N   0  0  0  0  0  0  0  0  0  0  0  0
   35.6740   28.8180   41.1230 H   0  0  0  0  0  0  0  0  0  0  0  0
   39.2100   32.4700   40.1160 N   0  0  0  0  0  0  0  0  0  0  0  0
   39.2700   33.6560   40.7010 C   0  0  0  0  0  0  0  0  0  0  0  0
   38.7370   34.0780   41.5300 H   0  0  0  0  0  0  0  0  0  0  0  0
   40.2050   34.3610   40.0400 N   0  0  0  0  0  0  0  0  0  0  0  0
   40.7030   33.5960   39.0620 C   0  0  0  0  0  0  0  0  0  0  0  0
   41.6660   33.7610   38.0730 C   0  0  0  0  0  0  0  0  0  0  0  0
   42.1760   34.7200   38.0290 H   0  0  0  0  0  0  0  0  0  0  0  0
   41.9950   32.8160   37.1850 N   0  0  0  0  0  0  0  0  0  0  0  0
   41.3540   31.6340   37.2550 C   0  0  0  0  0  0  0  0  0  0  0  0
   41.6030   30.8430   36.5400 H   0  0  0  0  0  0  0  0  0  0  0  0
   40.4040   31.4250   38.2050 N   0  0  0  0  0  0  0  0  0  0  0  0
   40.0770   32.3690   39.0900 C   0  0  0  0  0  0  0  0  0  0  0  0
   37.6780   28.9840   43.1380 C   0  0  0  0  0  0  0  0  0  0  0  0
   38.7810   28.9660   43.3830 H   0  0  0  0  0  0  0  0  0  0  0  0
   37.2030   29.4670   44.0190 H   0  0  0  0  0  0  0  0  0  0  0  0
   37.2910   27.5440   42.9810 C   0  0  0  0  0  0  0  0  0  0  0  0
   36.8590   27.4640   41.9390 H   0  0  0  0  0  0  0  0  0  0  0  0
   36.4970   27.2180   43.6430 H   0  0  0  0  0  0  0  0  0  0  0  0
   38.4440   26.6230   42.9820 C   0  0  0  0  0  0  0  0  0  0  0  0
   38.4620   25.6240   42.0050 C   0  0  0  0  0  0  0  0  0  0  0  0
   39.5150   24.7330   41.9550 C   0  0  0  0  0  0  0  0  0  0  0  0
   40.5110   24.8680   42.8770 N   0  0  0  0  0  0  0  0  0  0  0  0
   40.4660   25.8410   43.8060 C   0  0  0  0  0  0  0  0  0  0  0  0
   39.4460   26.6980   43.8480 N   0  0  0  0  0  0  0  0  0  0  0  0
   39.4960   23.9730   41.1870 H   0  0  0  0  0  0  0  0  0  0  0  0
   41.3120   25.8740   44.5080 H   0  0  0  0  0  0  0  0  0  0  0  0
   37.1160   25.4980   40.8150 S   0  0  0  0  0  0  0  0  0  0  0  0
   36.6120   24.1970   40.8710 H   0  0  0  0  0  0  0  0  0  0  0  0
  1 19  1  0  0  0  0
  2  6  1  0  0  0  0
  2  1  2  0  0  0  0
  3  4  1  0  0  0  0
  3  2  1  0  0  0  0
  4  5  2  0  0  0  0
  5  1  1  0  0  0  0
  7  4  1  0  0  0  0
  7  8  1  0  0  0  0
  8  9  1  0  0  0  0
 10  8  2  0  0  0  0
 11 18  1  0  0  0  0
 11 10  1  0  0  0  0
 12 11  2  0  0  0  0
 13 12  1  0  0  0  0
 14 15  2  0  0  0  0
 14 12  1  0  0  0  0
 15 17  1  0  0  0  0
 16 15  1  0  0  0  0
 17 18  2  0  0  0  0
 18  7  1  0  0  0  0
 19 20  1  0  0  0  0
 19 21  1  0  0  0  0
 22 25  1  0  0  0  0
 22 19  1  0  0  0  0
 22 24  1  0  0  0  0
 23 22  1  0  0  0  0
 25 30  1  0  0  0  0
 26 25  2  0  0  0  0
 27 26  1  0  0  0  0
 27 28  2  0  0  0  0
 28 29  1  0  0  0  0
 29 30  2  0  0  0  0
 29 32  1  0  0  0  0
 31 27  1  0  0  0  0
 33 34  1  0  0  0  0
 33 26  1  0  0  0  0
M  END
>  <minimizedAffinity>
-5.74960566

$$$$

 OpenBabel03252507443D

 34 37  0  0  0  0  0  0  0  0999 V2000
   37.2570   28.1520   39.0690 C   0  0  0  0  0  0  0  0  0  0  0  0
   36.5830   28.2680   37.8150 C   0  0  0  0  0  0  0  0  0  0  0  0
   36.7900   30.0650   37.4140 S   0  0  0  0  0  0  0  0  0  0  0  0
   37.7460   30.3310   39.0090 C   0  0  0  0  0  0  0  0  0  0  0  0
   37.7580   29.2950   39.4740 N   0  0  0  0  0  0  0  0  0  0  0  0
   36.0890   27.4650   37.2780 H   0  0  0  0  0  0  0  0  0  0  0  0
   38.3190   31.5840   39.4950 N   0  0  0  0  0  0  0  0  0  0  0  0
   37.8220   32.2630   40.5180 C   0  0  0  0  0  0  0  0  0  0  0  0
   36.9830   32.0850   41.1600 H   0  0  0  0  0  0  0  0  0  0  0  0
   38.6020   33.3480   40.6710 N   0  0  0  0  0  0  0  0  0  0  0  0
   39.5630   33.3170   39.7400 C   0  0  0  0  0  0  0  0  0  0  0  0
   40.6340   34.1340   39.4010 C   0  0  0  0  0  0  0  0  0  0  0  0
   40.7840   35.0330   39.9940 H   0  0  0  0  0  0  0  0  0  0  0  0
   41.4800   33.8790   38.3970 N   0  0  0  0  0  0  0  0  0  0  0  0
   41.2800   32.7620   37.6720 C   0  0  0  0  0  0  0  0  0  0  0  0
   41.9570   32.5290   36.8440 H   0  0  0  0  0  0  0  0  0  0  0  0
   40.2450   31.9310   37.9660 N   0  0  0  0  0  0  0  0  0  0  0  0
   39.4020   32.1860   38.9690 C   0  0  0  0  0  0  0  0  0  0  0  0
   37.3280   26.8330   39.7620 C   0  0  0  0  0  0  0  0  0  0  0  0
   36.5200   26.1930   39.2980 H   0  0  0  0  0  0  0  0  0  0  0  0
   38.2720   26.2850   39.5530 H   0  0  0  0  0  0  0  0  0  0  0  0
   36.9920   26.8860   41.2220 C   0  0  0  0  0  0  0  0  0  0  0  0
   36.1180   26.1800   41.3520 H   0  0  0  0  0  0  0  0  0  0  0  0
   36.6310   27.8500   41.5640 H   0  0  0  0  0  0  0  0  0  0  0  0
   38.0520   26.3370   42.0880 C   0  0  0  0  0  0  0  0  0  0  0  0
   38.6180   27.2010   43.0280 C   0  0  0  0  0  0  0  0  0  0  0  0
   39.6150   26.7450   43.8670 C   0  0  0  0  0  0  0  0  0  0  0  0
   40.0110   25.4460   43.7420 N   0  0  0  0  0  0  0  0  0  0  0  0
   39.4470   24.6370   42.8260 C   0  0  0  0  0  0  0  0  0  0  0  0
   38.4850   25.0840   42.0190 N   0  0  0  0  0  0  0  0  0  0  0  0
   40.0300   27.4400   44.5820 H   0  0  0  0  0  0  0  0  0  0  0  0
   39.8290   23.6060   42.7970 H   0  0  0  0  0  0  0  0  0  0  0  0
   38.0510   28.9060   43.1460 S   0  0  0  0  0  0  0  0  0  0  0  0
   39.1640   29.7400   43.0230 H   0  0  0  0  0  0  0  0  0  0  0  0
  1  5  1  0  0  0  0
  1 19  1  0  0  0  0
  2  1  2  0  0  0  0
  3  2  1  0  0  0  0
  3  4  1  0  0  0  0
  4  5  2  0  0  0  0
  4  7  1  0  0  0  0
  6  2  1  0  0  0  0
  7  8  1  0  0  0  0
  8 10  2  0  0  0  0
  8  9  1  0  0  0  0
 11 10  1  0  0  0  0
 12 11  1  0  0  0  0
 12 13  1  0  0  0  0
 14 12  2  0  0  0  0
 15 17  2  0  0  0  0
 15 14  1  0  0  0  0
 16 15  1  0  0  0  0
 17 18  1  0  0  0  0
 18  7  1  0  0  0  0
 18 11  2  0  0  0  0
 19 22  1  0  0  0  0
 20 19  1  0  0  0  0
 21 19  1  0  0  0  0
 22 23  1  0  0  0  0
 22 24  1  0  0  0  0
 22 25  1  0  0  0  0
 25 26  1  0  0  0  0
 26 33  1  0  0  0  0
 26 27  2  0  0  0  0
 27 31  1  0  0  0  0
 28 27  1  0  0  0  0
 29 28  2  0  0  0  0
 30 25  2  0  0  0  0
 30 29  1  0  0  0  0
 32 29  1  0  0  0  0
 34 33  1  0  0  0  0
M  END
>  <minimizedAffinity>
-5.42575169

$$$$

 OpenBabel03252507443D

 34 37  0  0  0  0  0  0  0  0999 V2000
   36.9740   28.9420   40.7000 C   0  0  0  0  0  0  0  0  0  0  0  0
   37.2910   28.2970   39.4660 C   0  0  0  0  0  0  0  0  0  0  0  0
   38.2110   29.6170   38.5480 S   0  0  0  0  0  0  0  0  0  0  0  0
   38.0000   30.7970   39.9940 C   0  0  0  0  0  0  0  0  0  0  0  0
   37.4200   30.1760   40.7460 N   0  0  0  0  0  0  0  0  0  0  0  0
   37.0310   27.2800   39.1910 H   0  0  0  0  0  0  0  0  0  0  0  0
   38.4800   32.1740   40.0860 N   0  0  0  0  0  0  0  0  0  0  0  0
   37.6810   33.2290   40.0320 C   0  0  0  0  0  0  0  0  0  0  0  0
   36.6190   33.3220   39.9210 H   0  0  0  0  0  0  0  0  0  0  0  0
   38.4690   34.3120   40.1480 N   0  0  0  0  0  0  0  0  0  0  0  0
   39.7380   33.9040   40.2700 C   0  0  0  0  0  0  0  0  0  0  0  0
   40.9670   34.5350   40.4200 C   0  0  0  0  0  0  0  0  0  0  0  0
   40.9690   35.6220   40.4530 H   0  0  0  0  0  0  0  0  0  0  0  0
   42.1320   33.8860   40.5250 N   0  0  0  0  0  0  0  0  0  0  0  0
   42.1110   32.5410   40.4840 C   0  0  0  0  0  0  0  0  0  0  0  0
   43.0510   31.9840   40.5670 H   0  0  0  0  0  0  0  0  0  0  0  0
   40.9330   31.8780   40.3390 N   0  0  0  0  0  0  0  0  0  0  0  0
   39.7710   32.5270   40.2340 C   0  0  0  0  0  0  0  0  0  0  0  0
   36.2140   28.2100   41.7540 C   0  0  0  0  0  0  0  0  0  0  0  0
   35.5310   28.9720   42.2320 H   0  0  0  0  0  0  0  0  0  0  0  0
   35.5280   27.4420   41.3370 H   0  0  0  0  0  0  0  0  0  0  0  0
   37.0630   27.6900   42.8750 C   0  0  0  0  0  0  0  0  0  0  0  0
   36.3410   27.4610   43.7130 H   0  0  0  0  0  0  0  0  0  0  0  0
   37.7550   28.4160   43.2860 H   0  0  0  0  0  0  0  0  0  0  0  0
   37.7090   26.3990   42.5710 C   0  0  0  0  0  0  0  0  0  0  0  0
   39.1040   26.3530   42.6370 C   0  0  0  0  0  0  0  0  0  0  0  0
   39.7650   25.1730   42.3630 C   0  0  0  0  0  0  0  0  0  0  0  0
   39.0160   24.0820   42.0350 N   0  0  0  0  0  0  0  0  0  0  0  0
   37.6730   24.1560   41.9800 C   0  0  0  0  0  0  0  0  0  0  0  0
   37.0410   25.2990   42.2450 N   0  0  0  0  0  0  0  0  0  0  0  0
   40.8440   25.1740   42.4240 H   0  0  0  0  0  0  0  0  0  0  0  0
   37.1520   23.2270   41.7070 H   0  0  0  0  0  0  0  0  0  0  0  0
   40.0370   27.8290   43.0770 S   0  0  0  0  0  0  0  0  0  0  0  0
   40.9780   28.0590   42.0710 H   0  0  0  0  0  0  0  0  0  0  0  0
  1  5  1  0  0  0  0
  1 19  1  0  0  0  0
  2  1  2  0  0  0  0
  3  2  1  0  0  0  0
  3  4  1  0  0  0  0
  4  7  1  0  0  0  0
  4  5  2  0  0  0  0
  6  2  1  0  0  0  0
  7 18  1  0  0  0  0
  8  7  1  0  0  0  0
  8 10  2  0  0  0  0
  9  8  1  0  0  0  0
 10 11  1  0  0  0  0
 11 12  1  0  0  0  0
 12 13  1  0  0  0  0
 12 14  2  0  0  0  0
 15 14  1  0  0  0  0
 15 16  1  0  0  0  0
 17 15  2  0  0  0  0
 18 11  2  0  0  0  0
 18 17  1  0  0  0  0
 19 20  1  0  0  0  0
 19 22  1  0  0  0  0
 21 19  1  0  0  0  0
 22 24  1  0  0  0  0
 22 23  1  0  0  0  0
 25 26  1  0  0  0  0
 25 22  1  0  0  0  0
 26 33  1  0  0  0  0
 27 31  1  0  0  0  0
 27 26  2  0  0  0  0
 28 27  1  0  0  0  0
 29 28  2  0  0  0  0
 29 30  1  0  0  0  0
 30 25  2  0  0  0  0
 32 29  1  0  0  0  0
 34 33  1  0  0  0  0
M  END
>  <minimizedAffinity>
-5.41949701

$$$$

 OpenBabel03252507443D

 34 37  0  0  0  0  0  0  0  0999 V2000
   40.6770   33.4050   38.7980 C   0  0  0  0  0  0  0  0  0  0  0  0
   40.4860   34.5030   39.6910 C   0  0  0  0  0  0  0  0  0  0  0  0
   38.9620   34.0050   40.6190 S   0  0  0  0  0  0  0  0  0  0  0  0
   38.8610   32.4080   39.6340 C   0  0  0  0  0  0  0  0  0  0  0  0
   39.7570   32.4810   38.9410 N   0  0  0  0  0  0  0  0  0  0  0  0
   41.1130   35.3860   39.7620 H   0  0  0  0  0  0  0  0  0  0  0  0
   37.8560   31.3550   39.7620 N   0  0  0  0  0  0  0  0  0  0  0  0
   36.9140   31.1360   38.8580 C   0  0  0  0  0  0  0  0  0  0  0  0
   36.6830   31.6150   37.9270 H   0  0  0  0  0  0  0  0  0  0  0  0
   36.1840   30.1020   39.3110 N   0  0  0  0  0  0  0  0  0  0  0  0
   36.6890   29.7040   40.4840 C   0  0  0  0  0  0  0  0  0  0  0  0
   36.3780   28.7150   41.4090 C   0  0  0  0  0  0  0  0  0  0  0  0
   35.5290   28.0740   41.1860 H   0  0  0  0  0  0  0  0  0  0  0  0
   37.0570   28.5110   42.5430 N   0  0  0  0  0  0  0  0  0  0  0  0
   38.1060   29.3140   42.8030 C   0  0  0  0  0  0  0  0  0  0  0  0
   38.6800   29.1700   43.7250 H   0  0  0  0  0  0  0  0  0  0  0  0
   38.4500   30.2970   41.9280 N   0  0  0  0  0  0  0  0  0  0  0  0
   37.7710   30.4980   40.7970 C   0  0  0  0  0  0  0  0  0  0  0  0
   41.8260   33.4050   37.8460 C   0  0  0  0  0  0  0  0  0  0  0  0
   41.4410   32.9370   36.8930 H   0  0  0  0  0  0  0  0  0  0  0  0
   42.1390   34.4290   37.5470 H   0  0  0  0  0  0  0  0  0  0  0  0
   42.9750   32.5410   38.2690 C   0  0  0  0  0  0  0  0  0  0  0  0
   42.5350   31.7970   38.9970 H   0  0  0  0  0  0  0  0  0  0  0  0
   43.7460   33.0610   38.8250 H   0  0  0  0  0  0  0  0  0  0  0  0
   43.5230   31.7170   37.1740 C   0  0  0  0  0  0  0  0  0  0  0  0
   44.8690   31.9030   36.8500 C   0  0  0  0  0  0  0  0  0  0  0  0
   45.4390   31.1620   35.8340 C   0  0  0  0  0  0  0  0  0  0  0  0
   44.6500   30.2620   35.1790 N   0  0  0  0  0  0  0  0  0  0  0  0
   43.3560   30.1060   35.5140 C   0  0  0  0  0  0  0  0  0  0  0  0
   42.8120   30.8250   36.4950 N   0  0  0  0  0  0  0  0  0  0  0  0
   46.4820   31.3310   35.6110 H   0  0  0  0  0  0  0  0  0  0  0  0
   42.7970   29.3580   34.9320 H   0  0  0  0  0  0  0  0  0  0  0  0
   45.8590   33.1060   37.7530 S   0  0  0  0  0  0  0  0  0  0  0  0
   46.4330   33.9760   36.8230 H   0  0  0  0  0  0  0  0  0  0  0  0
  1  5  1  0  0  0  0
  1  2  2  0  0  0  0
  2  6  1  0  0  0  0
  2  3  1  0  0  0  0
  4  7  1  0  0  0  0
  4  3  1  0  0  0  0
  5  4  2  0  0  0  0
  7 18  1  0  0  0  0
  8 10  2  0  0  0  0
  8  7  1  0  0  0  0
  9  8  1  0  0  0  0
 10 11  1  0  0  0  0
 11 18  2  0  0  0  0
 11 12  1  0  0  0  0
 12 14  2  0  0  0  0
 13 12  1  0  0  0  0
 14 15  1  0  0  0  0
 15 16  1  0  0  0  0
 17 15  2  0  0  0  0
 18 17  1  0  0  0  0
 19 22  1  0  0  0  0
 19  1  1  0  0  0  0
 20 19  1  0  0  0  0
 21 19  1  0  0  0  0
 22 24  1  0  0  0  0
 22 23  1  0  0  0  0
 25 22  1  0  0  0  0
 26 25  1  0  0  0  0
 26 33  1  0  0  0  0
 27 26  2  0  0  0  0
 28 29  2  0  0  0  0
 28 27  1  0  0  0  0
 29 30  1  0  0  0  0
 30 25  2  0  0  0  0
 31 27  1  0  0  0  0
 32 29  1  0  0  0  0
 34 33  1  0  0  0  0
M  END
>  <minimizedAffinity>
-5.3076396

$$$$

 OpenBabel03252507443D

 34 37  0  0  0  0  0  0  0  0999 V2000
   37.7770   31.0600   39.4810 C   0  0  0  0  0  0  0  0  0  0  0  0
   36.9780   32.2400   39.5690 C   0  0  0  0  0  0  0  0  0  0  0  0
   38.2270   33.5380   40.0060 S   0  0  0  0  0  0  0  0  0  0  0  0
   39.5970   32.2530   39.9900 C   0  0  0  0  0  0  0  0  0  0  0  0
   39.0450   31.2960   39.7270 N   0  0  0  0  0  0  0  0  0  0  0  0
   35.9070   32.3000   39.4090 H   0  0  0  0  0  0  0  0  0  0  0  0
   41.0160   32.4730   40.2580 N   0  0  0  0  0  0  0  0  0  0  0  0
   41.6200   32.0650   41.3630 C   0  0  0  0  0  0  0  0  0  0  0  0
   41.2640   31.5380   42.2260 H   0  0  0  0  0  0  0  0  0  0  0  0
   42.9060   32.4420   41.2570 N   0  0  0  0  0  0  0  0  0  0  0  0
   43.0700   33.0760   40.0900 C   0  0  0  0  0  0  0  0  0  0  0  0
   44.1380   33.6770   39.4350 C   0  0  0  0  0  0  0  0  0  0  0  0
   45.1020   33.6640   39.9370 H   0  0  0  0  0  0  0  0  0  0  0  0
   44.0450   34.2620   38.2350 N   0  0  0  0  0  0  0  0  0  0  0  0
   42.8440   34.2680   37.6280 C   0  0  0  0  0  0  0  0  0  0  0  0
   42.7390   34.7410   36.6450 H   0  0  0  0  0  0  0  0  0  0  0  0
   41.7690   33.6920   38.2290 N   0  0  0  0  0  0  0  0  0  0  0  0
   41.8630   33.1080   39.4260 C   0  0  0  0  0  0  0  0  0  0  0  0
   37.1460   29.7520   39.1410 C   0  0  0  0  0  0  0  0  0  0  0  0
   36.4880   29.9470   38.2430 H   0  0  0  0  0  0  0  0  0  0  0  0
   37.8800   28.9960   38.7910 H   0  0  0  0  0  0  0  0  0  0  0  0
   36.2190   29.2250   40.1950 C   0  0  0  0  0  0  0  0  0  0  0  0
   35.6930   28.3470   39.7150 H   0  0  0  0  0  0  0  0  0  0  0  0
   35.4280   29.9090   40.4800 H   0  0  0  0  0  0  0  0  0  0  0  0
   36.9210   28.6520   41.3600 C   0  0  0  0  0  0  0  0  0  0  0  0
   37.2070   27.2850   41.3220 C   0  0  0  0  0  0  0  0  0  0  0  0
   37.8620   26.6920   42.3830 C   0  0  0  0  0  0  0  0  0  0  0  0
   38.2090   27.4790   43.4400 N   0  0  0  0  0  0  0  0  0  0  0  0
   37.9200   28.7930   43.4480 C   0  0  0  0  0  0  0  0  0  0  0  0
   37.2870   29.3600   42.4210 N   0  0  0  0  0  0  0  0  0  0  0  0
   38.0670   25.6330   42.3200 H   0  0  0  0  0  0  0  0  0  0  0  0
   38.2380   29.3500   44.3420 H   0  0  0  0  0  0  0  0  0  0  0  0
   36.7230   26.2990   39.8950 S   0  0  0  0  0  0  0  0  0  0  0  0
   35.9610   25.2220   40.3550 H   0  0  0  0  0  0  0  0  0  0  0  0
  1  2  2  0  0  0  0
  1  5  1  0  0  0  0
  2  3  1  0  0  0  0
  4  3  1  0  0  0  0
  4  7  1  0  0  0  0
  5  4  2  0  0  0  0
  6  2  1  0  0  0  0
  7  8  1  0  0  0  0
  8  9  1  0  0  0  0
 10  8  2  0  0  0  0
 11 10  1  0  0  0  0
 12 13  1  0  0  0  0
 12 11  1  0  0  0  0
 14 12  2  0  0  0  0
 15 17  2  0  0  0  0
 15 14  1  0  0  0  0
 16 15  1  0  0  0  0
 17 18  1  0  0  0  0
 18 11  2  0  0  0  0
 18  7  1  0  0  0  0
 19  1  1  0  0  0  0
 19 22  1  0  0  0  0
 20 19  1  0  0  0  0
 21 19  1  0  0  0  0
 22 24  1  0  0  0  0
 22 25  1  0  0  0  0
 23 22  1  0  0  0  0
 25 30  1  0  0  0  0
 26 25  2  0  0  0  0
 26 27  1  0  0  0  0
 27 28  2  0  0  0  0
 28 29  1  0  0  0  0
 29 32  1  0  0  0  0
 30 29  2  0  0  0  0
 31 27  1  0  0  0  0
 33 34  1  0  0  0  0
 33 26  1  0  0  0  0
M  END
>  <minimizedAffinity>
-5.14402342

$$$$

 OpenBabel03252507443D

 34 37  0  0  0  0  0  0  0  0999 V2000
   34.4580   28.8640   36.4900 C   0  0  0  0  0  0  0  0  0  0  0  0
   35.5700   28.5250   35.6610 C   0  0  0  0  0  0  0  0  0  0  0  0
   36.9930   28.6110   36.8450 S   0  0  0  0  0  0  0  0  0  0  0  0
   35.8290   29.0870   38.2400 C   0  0  0  0  0  0  0  0  0  0  0  0
   34.8150   29.1030   37.7300 N   0  0  0  0  0  0  0  0  0  0  0  0
   35.5300   28.2870   34.6030 H   0  0  0  0  0  0  0  0  0  0  0  0
   36.1840   29.3610   39.6310 N   0  0  0  0  0  0  0  0  0  0  0  0
   36.1680   30.5750   40.1600 C   0  0  0  0  0  0  0  0  0  0  0  0
   35.9210   31.5350   39.7520 H   0  0  0  0  0  0  0  0  0  0  0  0
   36.5490   30.4370   41.4420 N   0  0  0  0  0  0  0  0  0  0  0  0
   36.7940   29.1430   41.6780 C   0  0  0  0  0  0  0  0  0  0  0  0
   37.2070   28.4010   42.7780 C   0  0  0  0  0  0  0  0  0  0  0  0
   37.3940   28.9420   43.7020 H   0  0  0  0  0  0  0  0  0  0  0  0
   37.3840   27.0750   42.7610 N   0  0  0  0  0  0  0  0  0  0  0  0
   37.1470   26.4220   41.6080 C   0  0  0  0  0  0  0  0  0  0  0  0
   37.2840   25.3360   41.5660 H   0  0  0  0  0  0  0  0  0  0  0  0
   36.7410   27.1040   40.5050 N   0  0  0  0  0  0  0  0  0  0  0  0
   36.5640   28.4270   40.5230 C   0  0  0  0  0  0  0  0  0  0  0  0
   33.0830   28.9130   35.9140 C   0  0  0  0  0  0  0  0  0  0  0  0
   33.1060   29.7170   35.1210 H   0  0  0  0  0  0  0  0  0  0  0  0
   32.8110   27.9860   35.3650 H   0  0  0  0  0  0  0  0  0  0  0  0
   32.0260   29.3520   36.8820 C   0  0  0  0  0  0  0  0  0  0  0  0
   32.5890   29.7700   37.7690 H   0  0  0  0  0  0  0  0  0  0  0  0
   31.4220   28.5460   37.2830 H   0  0  0  0  0  0  0  0  0  0  0  0
   31.2110   30.4800   36.3900 C   0  0  0  0  0  0  0  0  0  0  0  0
   30.1460   30.8940   37.1930 C   0  0  0  0  0  0  0  0  0  0  0  0
   29.3470   31.9440   36.7850 C   0  0  0  0  0  0  0  0  0  0  0  0
   29.6380   32.5430   35.5950 N   0  0  0  0  0  0  0  0  0  0  0  0
   30.6710   32.1210   34.8430 C   0  0  0  0  0  0  0  0  0  0  0  0
   31.4380   31.1070   35.2420 N   0  0  0  0  0  0  0  0  0  0  0  0
   28.5330   32.2390   37.4310 H   0  0  0  0  0  0  0  0  0  0  0  0
   30.8300   32.6630   33.8990 H   0  0  0  0  0  0  0  0  0  0  0  0
   29.8140   30.0630   38.7560 S   0  0  0  0  0  0  0  0  0  0  0  0
   28.4820   29.6430   38.7450 H   0  0  0  0  0  0  0  0  0  0  0  0
  1  5  1  0  0  0  0
  2  1  2  0  0  0  0
  2  3  1  0  0  0  0
  3  4  1  0  0  0  0
  4  7  1  0  0  0  0
  5  4  2  0  0  0  0
  6  2  1  0  0  0  0
  7  8  1  0  0  0  0
  7 18  1  0  0  0  0
  8 10  2  0  0  0  0
  9  8  1  0  0  0  0
 10 11  1  0  0  0  0
 11 12  1  0  0  0  0
 12 13  1  0  0  0  0
 14 12  2  0  0  0  0
 15 14  1  0  0  0  0
 16 15  1  0  0  0  0
 17 18  1  0  0  0  0
 17 15  2  0  0  0  0
 18 11  2  0  0  0  0
 19  1  1  0  0  0  0
 19 22  1  0  0  0  0
 20 19  1  0  0  0  0
 21 19  1  0  0  0  0
 22 24  1  0  0  0  0
 22 23  1  0  0  0  0
 25 22  1  0  0  0  0
 25 26  1  0  0  0  0
 26 33  1  0  0  0  0
 27 26  2  0  0  0  0
 27 31  1  0  0  0  0
 28 27  1  0  0  0  0
 29 30  1  0  0  0  0
 29 28  2  0  0  0  0
 30 25  2  0  0  0  0
 32 29  1  0  0  0  0
 34 33  1  0  0  0  0
M  END
>  <minimizedAffinity>
-5.11348343

$$$$

 OpenBabel03252507443D

 34 37  0  0  0  0  0  0  0  0999 V2000
   34.3170   28.4660   36.6150 C   0  0  0  0  0  0  0  0  0  0  0  0
   35.4210   28.1520   35.7650 C   0  0  0  0  0  0  0  0  0  0  0  0
   36.8760   28.4310   36.8780 S   0  0  0  0  0  0  0  0  0  0  0  0
   35.7320   28.9190   38.2850 C   0  0  0  0  0  0  0  0  0  0  0  0
   34.7010   28.8220   37.8190 N   0  0  0  0  0  0  0  0  0  0  0  0
   35.3600   27.8330   34.7300 H   0  0  0  0  0  0  0  0  0  0  0  0
   36.1170   29.3220   39.6360 N   0  0  0  0  0  0  0  0  0  0  0  0
   36.0250   30.5660   40.0780 C   0  0  0  0  0  0  0  0  0  0  0  0
   35.6890   31.4720   39.6150 H   0  0  0  0  0  0  0  0  0  0  0  0
   36.4640   30.5530   41.3490 N   0  0  0  0  0  0  0  0  0  0  0  0
   36.8180   29.3010   41.6650 C   0  0  0  0  0  0  0  0  0  0  0  0
   37.3290   28.6760   42.7960 C   0  0  0  0  0  0  0  0  0  0  0  0
   37.5080   29.2950   43.6700 H   0  0  0  0  0  0  0  0  0  0  0  0
   37.6080   27.3690   42.8650 N   0  0  0  0  0  0  0  0  0  0  0  0
   37.3800   26.6160   41.7730 C   0  0  0  0  0  0  0  0  0  0  0  0
   37.6000   25.5440   41.8010 H   0  0  0  0  0  0  0  0  0  0  0  0
   36.8800   27.1830   40.6420 N   0  0  0  0  0  0  0  0  0  0  0  0
   36.6020   28.4870   40.5740 C   0  0  0  0  0  0  0  0  0  0  0  0
   32.9220   28.3690   36.0970 C   0  0  0  0  0  0  0  0  0  0  0  0
   32.9670   27.6740   35.2080 H   0  0  0  0  0  0  0  0  0  0  0  0
   32.2310   27.8690   36.8090 H   0  0  0  0  0  0  0  0  0  0  0  0
   32.3760   29.6560   35.5570 C   0  0  0  0  0  0  0  0  0  0  0  0
   31.7820   29.3660   34.6410 H   0  0  0  0  0  0  0  0  0  0  0  0
   33.1300   30.3480   35.2000 H   0  0  0  0  0  0  0  0  0  0  0  0
   31.3960   30.2990   36.4530 C   0  0  0  0  0  0  0  0  0  0  0  0
   30.7710   31.4590   35.9860 C   0  0  0  0  0  0  0  0  0  0  0  0
   29.8450   32.1050   36.7800 C   0  0  0  0  0  0  0  0  0  0  0  0
   29.5720   31.5750   38.0060 N   0  0  0  0  0  0  0  0  0  0  0  0
   30.1900   30.4560   38.4280 C   0  0  0  0  0  0  0  0  0  0  0  0
   31.0830   29.8370   37.6580 N   0  0  0  0  0  0  0  0  0  0  0  0
   29.3810   32.9990   36.3870 H   0  0  0  0  0  0  0  0  0  0  0  0
   29.9070   30.1010   39.4300 H   0  0  0  0  0  0  0  0  0  0  0  0
   31.1730   32.1090   34.3560 S   0  0  0  0  0  0  0  0  0  0  0  0
   31.5580   33.4430   34.5080 H   0  0  0  0  0  0  0  0  0  0  0  0
  1  5  1  0  0  0  0
  2  1  2  0  0  0  0
  2  3  1  0  0  0  0
  3  4  1  0  0  0  0
  4  7  1  0  0  0  0
  5  4  2  0  0  0  0
  6  2  1  0  0  0  0
  7  8  1  0  0  0  0
  7 18  1  0  0  0  0
  8 10  2  0  0  0  0
  9  8  1  0  0  0  0
 10 11  1  0  0  0  0
 11 12  1  0  0  0  0
 12 14  2  0  0  0  0
 12 13  1  0  0  0  0
 15 16  1  0  0  0  0
 15 14  1  0  0  0  0
 17 15  2  0  0  0  0
 18 17  1  0  0  0  0
 18 11  2  0  0  0  0
 19  1  1  0  0  0  0
 19 21  1  0  0  0  0
 20 19  1  0  0  0  0
 22 19  1  0  0  0  0
 22 25  1  0  0  0  0
 23 22  1  0  0  0  0
 24 22  1  0  0  0  0
 25 30  1  0  0  0  0
 26 25  2  0  0  0  0
 26 27  1  0  0  0  0
 27 28  2  0  0  0  0
 28 29  1  0  0  0  0
 29 32  1  0  0  0  0
 30 29  2  0  0  0  0
 31 27  1  0  0  0  0
 33 34  1  0  0  0  0
 33 26  1  0  0  0  0
M  END
>  <minimizedAffinity>
-5.04429579

$$$$

 OpenBabel03252507443D

 34 37  0  0  0  0  0  0  0  0999 V2000
   39.8480   31.2100   41.3340 C   0  0  0  0  0  0  0  0  0  0  0  0
   41.1600   30.9890   41.8530 C   0  0  0  0  0  0  0  0  0  0  0  0
   40.9910   29.3430   42.6850 S   0  0  0  0  0  0  0  0  0  0  0  0
   39.1830   29.2530   42.1830 C   0  0  0  0  0  0  0  0  0  0  0  0
   39.0290   30.2240   41.6150 N   0  0  0  0  0  0  0  0  0  0  0  0
   42.0090   31.6590   41.7520 H   0  0  0  0  0  0  0  0  0  0  0  0
   38.2390   28.1760   42.4740 N   0  0  0  0  0  0  0  0  0  0  0  0
   37.2520   28.2910   43.3490 C   0  0  0  0  0  0  0  0  0  0  0  0
   36.9390   29.0980   43.9800 H   0  0  0  0  0  0  0  0  0  0  0  0
   36.6030   27.1130   43.3480 N   0  0  0  0  0  0  0  0  0  0  0  0
   37.2030   26.2960   42.4750 C   0  0  0  0  0  0  0  0  0  0  0  0
   37.0000   24.9900   42.0440 C   0  0  0  0  0  0  0  0  0  0  0  0
   36.1690   24.4440   42.4850 H   0  0  0  0  0  0  0  0  0  0  0  0
   37.7600   24.3770   41.1300 N   0  0  0  0  0  0  0  0  0  0  0  0
   38.7830   25.0690   40.5950 C   0  0  0  0  0  0  0  0  0  0  0  0
   39.4220   24.5920   39.8450 H   0  0  0  0  0  0  0  0  0  0  0  0
   39.0220   26.3500   40.9840 N   0  0  0  0  0  0  0  0  0  0  0  0
   38.2630   26.9600   41.8960 C   0  0  0  0  0  0  0  0  0  0  0  0
   39.5430   32.4560   40.5740 C   0  0  0  0  0  0  0  0  0  0  0  0
   39.5400   32.1630   39.4830 H   0  0  0  0  0  0  0  0  0  0  0  0
   38.5180   32.8390   40.7640 H   0  0  0  0  0  0  0  0  0  0  0  0
   40.5950   33.5190   40.6870 C   0  0  0  0  0  0  0  0  0  0  0  0
   41.2490   33.1980   41.5510 H   0  0  0  0  0  0  0  0  0  0  0  0
   40.2170   34.4960   40.9650 H   0  0  0  0  0  0  0  0  0  0  0  0
   41.5040   33.5710   39.5260 C   0  0  0  0  0  0  0  0  0  0  0  0
   42.8110   34.0060   39.7590 C   0  0  0  0  0  0  0  0  0  0  0  0
   43.7070   34.0760   38.7120 C   0  0  0  0  0  0  0  0  0  0  0  0
   43.2720   33.7110   37.4720 N   0  0  0  0  0  0  0  0  0  0  0  0
   42.0060   33.2960   37.2780 C   0  0  0  0  0  0  0  0  0  0  0  0
   41.1460   33.2300   38.2940 N   0  0  0  0  0  0  0  0  0  0  0  0
   44.7090   34.4170   38.9280 H   0  0  0  0  0  0  0  0  0  0  0  0
   41.7440   33.0210   36.2460 H   0  0  0  0  0  0  0  0  0  0  0  0
   43.3260   34.4740   41.4200 S   0  0  0  0  0  0  0  0  0  0  0  0
   43.8520   35.7670   41.3590 H   0  0  0  0  0  0  0  0  0  0  0  0
  1  5  1  0  0  0  0
  1  2  2  0  0  0  0
  2  3  1  0  0  0  0
  4  7  1  0  0  0  0
  4  3  1  0  0  0  0
  5  4  2  0  0  0  0
  6  2  1  0  0  0  0
  7  8  1  0  0  0  0
  8  9  1  0  0  0  0
 10  8  2  0  0  0  0
 11 10  1  0  0  0  0
 12 11  1  0  0  0  0
 12 13  1  0  0  0  0
 14 12  2  0  0  0  0
 15 17  2  0  0  0  0
 15 14  1  0  0  0  0
 16 15  1  0  0  0  0
 17 18  1  0  0  0  0
 18  7  1  0  0  0  0
 18 11  2  0  0  0  0
 19 22  1  0  0  0  0
 19 21  1  0  0  0  0
 19  1  1  0  0  0  0
 20 19  1  0  0  0  0
 22 24  1  0  0  0  0
 22 23  1  0  0  0  0
 25 26  1  0  0  0  0
 25 22  1  0  0  0  0
 26 33  1  0  0  0  0
 27 31  1  0  0  0  0
 27 26  2  0  0  0  0
 28 27  1  0  0  0  0
 29 28  2  0  0  0  0
 29 30  1  0  0  0  0
 30 25  2  0  0  0  0
 32 29  1  0  0  0  0
 34 33  1  0  0  0  0
M  END
>  <minimizedAffinity>
-4.93795204

$$$$
