
 OpenBabel03242523543D

 48 52  0  0  1  0  0  0  0  0999 V2000
   42.7570   34.4980   38.8180 C   0  0  1  0  0  0  0  0  0  0  0  0
   42.9290   35.2510   40.1280 C   0  0  1  0  0  0  0  0  0  0  0  0
   41.6440   35.5840   40.6140 O   0  0  0  0  0  0  0  0  0  0  0  0
   40.7470   35.9010   39.5890 C   0  0  0  0  0  0  0  0  0  0  0  0
   40.3840   34.6820   38.7610 C   0  0  2  0  0  0  0  0  0  0  0  0
   41.5400   33.6480   38.9820 C   0  0  1  0  0  0  0  0  0  0  0  0
   43.6700   33.8720   38.6590 H   0  0  0  0  0  0  0  0  0  0  0  0
   43.5540   36.1550   40.0220 H   0  0  0  0  0  0  0  0  0  0  0  0
   39.8350   36.2360   40.0930 H   0  0  0  0  0  0  0  0  0  0  0  0
   41.1160   36.7330   38.9600 H   0  0  0  0  0  0  0  0  0  0  0  0
   39.4320   34.2150   39.0540 H   0  0  0  0  0  0  0  0  0  0  0  0
   41.3060   33.4760   40.0850 H   0  0  0  0  0  0  0  0  0  0  0  0
   42.6030   35.3920   37.7460 O   0  0  0  0  0  0  0  0  0  0  0  0
   42.7730   34.8770   36.9090 H   0  0  0  0  0  0  0  0  0  0  0  0
   40.4360   35.0020   37.4140 O   0  0  0  0  0  0  0  0  0  0  0  0
   39.9070   34.3370   36.9330 H   0  0  0  0  0  0  0  0  0  0  0  0
   43.4000   34.3060   41.0420 O   0  0  0  0  0  0  0  0  0  0  0  0
   44.5270   34.4180   41.7560 C   0  0  0  0  0  0  0  0  0  0  0  0
   45.7770   34.4900   41.1230 C   0  0  0  0  0  0  0  0  0  0  0  0
   46.9100   34.6060   41.9090 C   0  0  0  0  0  0  0  0  0  0  0  0
   46.7780   34.6500   43.2870 N   0  0  0  0  0  0  0  0  0  0  0  0
   45.5550   34.5790   43.8600 C   0  0  0  0  0  0  0  0  0  0  0  0
   44.4370   34.4640   43.1000 N   0  0  0  0  0  0  0  0  0  0  0  0
   45.8670   34.4540   40.0440 H   0  0  0  0  0  0  0  0  0  0  0  0
   45.5200   34.6180   44.9450 H   0  0  0  0  0  0  0  0  0  0  0  0
   48.2810   34.6760   41.2980 C   0  0  0  0  0  0  0  0  0  0  0  0
   49.0420   35.9850   41.4920 C   0  0  0  0  0  0  0  0  0  0  0  0
   49.4470   34.6430   42.1270 C   0  0  0  0  0  0  0  0  0  0  0  0
   48.2630   34.3920   40.2160 H   0  0  0  0  0  0  0  0  0  0  0  0
   48.6190   36.6960   42.2540 H   0  0  0  0  0  0  0  0  0  0  0  0
   49.6600   36.3800   40.6890 H   0  0  0  0  0  0  0  0  0  0  0  0
   50.4090   34.2500   41.7300 H   0  0  0  0  0  0  0  0  0  0  0  0
   49.3520   34.5120   43.2080 H   0  0  0  0  0  0  0  0  0  0  0  0
   41.3590   32.6470   38.1070 O   0  0  0  0  0  0  0  0  0  0  0  0
   41.0060   31.3710   38.2720 C   0  0  0  0  0  0  0  0  0  0  0  0
   40.7010   30.5860   37.2430 O   0  0  0  0  0  0  0  0  0  0  0  0
   42.0470   28.7320   39.0690 H   0  0  0  0  0  0  0  0  0  0  0  0
   41.4420   29.3340   39.6370 N   0  0  0  0  0  0  0  0  0  0  0  0
   40.8630   30.5050   39.5100 C   0  0  0  0  0  0  0  0  0  0  0  0
   40.1750   30.7310   40.6730 N   0  0  0  0  0  0  0  0  0  0  0  0
   40.3310   29.7080   41.5100 C   0  0  0  0  0  0  0  0  0  0  0  0
   39.8020   29.5570   42.7740 C   0  0  0  0  0  0  0  0  0  0  0  0
   39.1740   30.2780   43.2540 H   0  0  0  0  0  0  0  0  0  0  0  0
   40.1330   28.3950   43.4040 N   0  0  0  0  0  0  0  0  0  0  0  0
   40.9240   27.4830   42.8000 C   0  0  0  0  0  0  0  0  0  0  0  0
   41.2190   26.5450   43.2510 H   0  0  0  0  0  0  0  0  0  0  0  0
   41.3960   27.7120   41.5660 N   0  0  0  0  0  0  0  0  0  0  0  0
   41.1380   28.8080   40.8620 C   0  0  0  0  0  0  0  0  0  0  0  0
  1  7  1  6  0  0  0
  1  6  1  0  0  0  0
  1  2  1  0  0  0  0
  2  8  1  6  0  0  0
  2  3  1  0  0  0  0
  2 17  1  0  0  0  0
  4  9  1  0  0  0  0
  4  3  1  0  0  0  0
  5  6  1  0  0  0  0
  5 11  1  1  0  0  0
  5  4  1  0  0  0  0
  6 12  1  1  0  0  0
 10  4  1  0  0  0  0
 13  1  1  0  0  0  0
 14 13  1  0  0  0  0
 15  5  1  0  0  0  0
 16 15  1  0  0  0  0
 17 18  1  0  0  0  0
 18 23  1  0  0  0  0
 19 18  2  0  0  0  0
 19 20  1  0  0  0  0
 20 21  2  0  0  0  0
 21 22  1  0  0  0  0
 22 25  1  0  0  0  0
 23 22  2  0  0  0  0
 24 19  1  0  0  0  0
 26 27  1  0  0  0  0
 26 20  1  0  0  0  0
 26 28  1  0  0  0  0
 27 28  1  0  0  0  0
 27 30  1  0  0  0  0
 28 33  1  0  0  0  0
 29 26  1  0  0  0  0
 31 27  1  0  0  0  0
 32 28  1  0  0  0  0
 34 35  1  0  0  0  0
 34  6  1  0  0  0  0
 35 39  1  0  0  0  0
 36 35  2  0  0  0  0
 37 38  1  0  0  0  0
 38 48  1  0  0  0  0
 39 38  1  0  0  0  0
 39 40  2  0  0  0  0
 40 41  1  0  0  0  0
 41 42  1  0  0  0  0
 42 43  1  0  0  0  0
 42 44  2  0  0  0  0
 45 46  1  0  0  0  0
 45 44  1  0  0  0  0
 47 45  2  0  0  0  0
 48 41  2  0  0  0  0
 48 47  1  0  0  0  0
M  END
>  <minimizedAffinity>
-6.18486023

>  <minimizedRMSD>
1.95119131

$$$$
