REMARK  Name = 
REMARK  4 active torsions:
REMARK  status: ('A' for Active; 'I' for Inactive)
REMARK    1  A    between atoms: C_1  and  C_2
REMARK    2  A    between atoms: C_1  and  C_9
REMARK    3  A    between atoms: C_3  and  S_8
REMARK    4  A    between atoms: C_9  and  C_10
REMARK                            x       y       z     vdW  Elec       q    Type
REMARK                         _______ _______ _______ _____ _____    ______ ____
ROOT
ATOM      1  C   UNL     1      44.255  34.670  41.065  0.00  0.00    +0.000 A 
ATOM      2  C   UNL     1      43.216  35.392  41.728  0.00  0.00    +0.000 A 
ATOM      3  S   UNL     1      41.774  35.156  40.589  0.00  0.00    +0.000 S 
ATOM      4  C   UNL     1      42.834  34.128  39.428  0.00  0.00    +0.000 A 
ATOM      5  N   UNL     1      43.845  34.124  39.944  0.00  0.00    +0.000 NA
ATOM      6  H   UNL     1      43.309  35.928  42.667  0.00  0.00    +0.000 HD
ATOM      7  N   UNL     1      42.418  33.504  38.174  0.00  0.00    +0.000 N 
ATOM      8  C   UNL     1      43.270  32.991  37.299  0.00  0.00    +0.000 A 
ATOM      9  H   UNL     1      44.339  32.916  37.294  0.00  0.00    +0.000 HD
ATOM     10  N   UNL     1      42.531  32.512  36.282  0.00  0.00    +0.000 NA
ATOM     11  C   UNL     1      41.239  32.739  36.551  0.00  0.00    +0.000 A 
ATOM     12  C   UNL     1      40.036  32.482  35.903  0.00  0.00    +0.000 A 
ATOM     13  H   UNL     1      40.087  31.978  34.941  0.00  0.00    +0.000 HD
ATOM     14  N   UNL     1      38.837  32.818  36.392  0.00  0.00    +0.000 NA
ATOM     15  C   UNL     1      38.794  33.440  37.584  0.00  0.00    +0.000 A 
ATOM     16  H   UNL     1      37.827  33.727  38.009  0.00  0.00    +0.000 HD
ATOM     17  N   UNL     1      39.945  33.713  38.257  0.00  0.00    +0.000 NA
ATOM     18  C   UNL     1      41.140  33.378  37.768  0.00  0.00    +0.000 A 
ENDROOT
BRANCH   1  19
ATOM     19  C   UNL     1      45.620  34.605  41.662  0.00  0.00    +0.000 C 
ATOM     20  H   UNL     1      45.862  35.655  42.002  0.00  0.00    +0.000 HD
ATOM     21  H   UNL     1      45.657  33.995  42.590  0.00  0.00    +0.000 HD
BRANCH  19  22
ATOM     22  C   UNL     1      46.702  34.253  40.686  0.00  0.00    +0.000 C 
ATOM     23  H   UNL     1      46.752  35.126  39.970  0.00  0.00    +0.000 HD
ATOM     24  H   UNL     1      46.484  33.390  40.067  0.00  0.00    +0.000 HD
BRANCH  22  25
ATOM     25  C   UNL     1      48.044  34.189  41.296  0.00  0.00    +0.000 A 
ATOM     26  C   UNL     1      48.737  32.981  41.185  0.00  0.00    +0.000 A 
ATOM     27  C   UNL     1      49.997  32.860  41.736  0.00  0.00    +0.000 A 
ATOM     28  N   UNL     1      50.522  33.944  42.375  0.00  0.00    +0.000 NA
ATOM     29  C   UNL     1      49.830  35.095  42.466  0.00  0.00    +0.000 A 
ATOM     30  N   UNL     1      48.614  35.205  41.932  0.00  0.00    +0.000 NA
ATOM     31  H   UNL     1      50.504  31.912  41.631  0.00  0.00    +0.000 HD
ATOM     32  H   UNL     1      50.332  35.916  42.999  0.00  0.00    +0.000 HD
BRANCH  26  33
ATOM     33  S   UNL     1      47.990  31.585  40.327  0.00  0.00    +0.000 S 
ATOM     34  H   UNL     1      48.003  30.490  41.194  0.00  0.00    +0.000 HD
ENDBRANCH  26  33
ENDBRANCH  22  25
ENDBRANCH  19  22
ENDBRANCH   1  19
TORSDOF 4
