
 OpenBabel03252500143D

 41 45  0  0  0  0  0  0  0  0999 V2000
   45.4910   32.3870   40.4330 Cl  0  0  0  0  0  0  0  0  0  0  0  0
   46.7970   33.4880   40.0970 C   0  0  0  0  0  0  0  0  0  0  0  0
   47.3710   34.2160   41.1100 C   0  0  0  0  0  0  0  0  0  0  0  0
   48.4180   35.1050   40.8780 C   0  0  0  0  0  0  0  0  0  0  0  0
   48.8420   35.2110   39.5700 C   0  0  0  0  0  0  0  0  0  0  0  0
   48.2660   34.4790   38.5480 C   0  0  0  0  0  0  0  0  0  0  0  0
   47.2650   33.6340   38.7980 C   0  0  0  0  0  0  0  0  0  0  0  0
   48.8490   35.6650   41.6960 H   0  0  0  0  0  0  0  0  0  0  0  0
   49.6500   35.8950   39.3800 H   0  0  0  0  0  0  0  0  0  0  0  0
   48.6180   34.5810   37.5310 H   0  0  0  0  0  0  0  0  0  0  0  0
   46.8530   32.8740   44.5040 C   0  0  0  0  0  0  0  0  0  0  0  0
   45.9280   33.7890   45.0530 C   0  0  0  0  0  0  0  0  0  0  0  0
   45.4990   34.8480   44.2540 C   0  0  0  0  0  0  0  0  0  0  0  0
   45.9910   34.9500   42.9810 N   0  0  0  0  0  0  0  0  0  0  0  0
   46.8740   34.0600   42.4830 C   0  0  0  0  0  0  0  0  0  0  0  0
   47.2950   33.0330   43.2490 N   0  0  0  0  0  0  0  0  0  0  0  0
   47.1600   32.0680   45.1560 H   0  0  0  0  0  0  0  0  0  0  0  0
   45.5450   33.7040   46.0530 H   0  0  0  0  0  0  0  0  0  0  0  0
   44.5230   35.8780   44.7260 C   0  0  0  0  0  0  0  0  0  0  0  0
   44.9930   37.1340   44.4930 F   0  0  0  0  0  0  0  0  0  0  0  0
   43.3390   35.7000   44.0380 F   0  0  0  0  0  0  0  0  0  0  0  0
   44.3210   35.6410   46.0630 F   0  0  0  0  0  0  0  0  0  0  0  0
   46.6320   32.8460   37.7530 C   0  0  0  0  0  0  0  0  0  0  0  0
   45.5730   33.2930   36.9490 C   0  0  0  0  0  0  0  0  0  0  0  0
   45.2130   32.2990   36.0660 C   0  0  0  0  0  0  0  0  0  0  0  0
   46.0840   31.2790   36.3790 C   0  0  0  0  0  0  0  0  0  0  0  0
   46.8950   31.6250   37.3610 O   0  0  0  0  0  0  0  0  0  0  0  0
   45.0730   34.2750   36.9800 H   0  0  0  0  0  0  0  0  0  0  0  0
   44.4550   32.2640   35.3000 H   0  0  0  0  0  0  0  0  0  0  0  0
   46.1410   29.9960   35.7530 N   0  0  0  0  0  0  0  0  0  0  0  0
   47.0960   29.6000   34.8910 C   0  0  0  0  0  0  0  0  0  0  0  0
   47.9610   30.1250   34.5130 H   0  0  0  0  0  0  0  0  0  0  0  0
   46.8240   28.3200   34.5010 N   0  0  0  0  0  0  0  0  0  0  0  0
   45.6980   27.9050   35.1150 C   0  0  0  0  0  0  0  0  0  0  0  0
   44.8960   26.7830   35.1760 C   0  0  0  0  0  0  0  0  0  0  0  0
   45.2170   25.9380   34.5620 H   0  0  0  0  0  0  0  0  0  0  0  0
   43.7880   26.7430   35.9490 N   0  0  0  0  0  0  0  0  0  0  0  0
   43.4150   27.7960   36.6960 C   0  0  0  0  0  0  0  0  0  0  0  0
   42.5410   27.8130   37.3260 H   0  0  0  0  0  0  0  0  0  0  0  0
   44.1740   28.9160   36.6630 N   0  0  0  0  0  0  0  0  0  0  0  0
   45.2800   28.9700   35.8990 C   0  0  0  0  0  0  0  0  0  0  0  0
  2  1  1  0  0  0  0
  2  3  1  0  0  0  0
  3 15  1  0  0  0  0
  4  3  2  0  0  0  0
  4  8  1  0  0  0  0
  5  4  1  0  0  0  0
  6  7  1  0  0  0  0
  6  5  2  0  0  0  0
  7  2  2  0  0  0  0
  9  5  1  0  0  0  0
 10  6  1  0  0  0  0
 11 12  1  0  0  0  0
 11 17  1  0  0  0  0
 12 18  1  0  0  0  0
 13 19  1  0  0  0  0
 13 12  2  0  0  0  0
 14 13  1  0  0  0  0
 15 14  2  0  0  0  0
 15 16  1  0  0  0  0
 16 11  2  0  0  0  0
 19 22  1  0  0  0  0
 20 19  1  0  0  0  0
 21 19  1  0  0  0  0
 23  7  1  0  0  0  0
 24 28  1  0  0  0  0
 24 23  2  0  0  0  0
 25 26  2  0  0  0  0
 25 24  1  0  0  0  0
 26 27  1  0  0  0  0
 27 23  1  0  0  0  0
 29 25  1  0  0  0  0
 30 41  1  0  0  0  0
 30 26  1  0  0  0  0
 31 30  1  0  0  0  0
 32 31  1  0  0  0  0
 33 31  2  0  0  0  0
 33 34  1  0  0  0  0
 34 35  2  0  0  0  0
 34 41  1  0  0  0  0
 35 37  1  0  0  0  0
 36 35  1  0  0  0  0
 37 38  2  0  0  0  0
 38 39  1  0  0  0  0
 40 38  1  0  0  0  0
 41 40  2  0  0  0  0
M  END
>  <minimizedAffinity>
-5.83000278

>  <minimizedRMSD>
0.352730751

$$$$
