
     RDKit          3D

 52 56  0  0  0  0  0  0  0  0999 V2000
   47.5549   31.9602   46.4071 C   0  0  2  0  0  0  0  0  0  0  0  0
   47.2953   30.4938   45.9602 C   0  0  0  0  0  0  0  0  0  0  0  0
   48.1087   29.5675   46.7965 C   0  0  0  0  0  0  0  0  0  0  0  0
   48.1138   29.8449   48.2622 C   0  0  0  0  0  0  0  0  0  0  0  0
   48.1306   31.2479   48.6033 C   0  0  0  0  0  0  0  0  0  0  0  0
   47.1311   32.0966   47.7859 C   0  0  2  0  0  0  0  0  0  0  0  0
   46.9084   32.9106   45.5246 C   0  0  0  0  0  0  0  0  0  0  0  0
   45.8010   33.5871   46.0132 C   0  0  0  0  0  0  0  0  0  0  0  0
   45.1203   34.5076   45.1826 C   0  0  0  0  0  0  0  0  0  0  0  0
   45.6289   34.6740   43.8974 N   0  0  0  0  0  0  0  0  0  0  0  0
   46.7031   33.9917   43.4893 C   0  0  0  0  0  0  0  0  0  0  0  0
   47.3317   33.1260   44.2850 N   0  0  0  0  0  0  0  0  0  0  0  0
   47.2012   34.2278   42.1296 C   0  0  0  0  0  0  0  0  0  0  0  0
   48.1845   35.1602   41.8871 C   0  0  0  0  0  0  0  0  0  0  0  0
   48.7161   35.4510   40.6490 C   0  0  0  0  0  0  0  0  0  0  0  0
   48.1796   34.7187   39.6205 C   0  0  0  0  0  0  0  0  0  0  0  0
   47.1822   33.7671   39.8370 C   0  0  0  0  0  0  0  0  0  0  0  0
   46.7010   33.5308   41.0967 N   0  0  0  0  0  0  0  0  0  0  0  0
   45.7911   31.5318   47.9552 N   0  0  0  0  0  0  0  0  0  0  0  0
   45.1924   30.8526   49.0303 C   0  0  0  0  0  0  0  0  0  0  0  0
   44.7659   31.4497   50.0837 O   0  0  0  0  0  0  0  0  0  0  0  0
   45.0863   29.4395   48.8566 N   0  0  0  0  0  0  0  0  0  0  0  0
   48.6528   32.0572   46.2727 H   0  0  0  0  0  0  0  0  0  0  0  0
   46.2406   30.2297   46.0060 H   0  0  0  0  0  0  0  0  0  0  0  0
   47.6118   30.4209   44.9008 H   0  0  0  0  0  0  0  0  0  0  0  0
   49.0963   29.4937   46.3008 H   0  0  0  0  0  0  0  0  0  0  0  0
   47.6703   28.5338   46.6712 H   0  0  0  0  0  0  0  0  0  0  0  0
   47.7399   29.0760   48.9362 H   0  0  0  0  0  0  0  0  0  0  0  0
   49.2266   29.5892   48.4879 H   0  0  0  0  0  0  0  0  0  0  0  0
   49.0913   31.8105   48.5076 H   0  0  0  0  0  0  0  0  0  0  0  0
   47.8328   31.4203   49.6736 H   0  0  0  0  0  0  0  0  0  0  0  0
   47.2645   33.0755   48.2490 H   0  0  0  0  0  0  0  0  0  0  0  0
   45.2754   33.6428   46.9431 H   0  0  0  0  0  0  0  0  0  0  0  0
   44.2683   35.1042   45.3806 H   0  0  0  0  0  0  0  0  0  0  0  0
   48.5599   35.7021   42.7598 H   0  0  0  0  0  0  0  0  0  0  0  0
   49.4827   36.1810   40.4758 H   0  0  0  0  0  0  0  0  0  0  0  0
   48.5059   34.8463   38.5972 H   0  0  0  0  0  0  0  0  0  0  0  0
   45.0646   31.5272   47.1439 H   0  0  0  0  0  0  0  0  0  0  0  0
   44.6832   28.8977   48.0724 H   0  0  0  0  0  0  0  0  0  0  0  0
   45.4497   28.7859   49.5929 H   0  0  0  0  0  0  0  0  0  0  0  0
   46.6621   33.0357   38.7290 N   0  0  0  0  0  0  0  0  0  0  0  0
   47.1977   32.0831   37.9140 C   0  0  0  0  0  0  0  0  0  0  0  0
   48.2158   31.7432   38.0515 H   0  0  0  0  0  0  0  0  0  0  0  0
   46.2678   31.7119   37.0067 N   0  0  0  0  0  0  0  0  0  0  0  0
   45.1335   32.4160   37.2266 C   0  0  0  0  0  0  0  0  0  0  0  0
   43.9028   32.4129   36.5856 C   0  0  0  0  0  0  0  0  0  0  0  0
   43.7202   31.7554   35.7372 H   0  0  0  0  0  0  0  0  0  0  0  0
   42.9135   33.2232   37.0025 N   0  0  0  0  0  0  0  0  0  0  0  0
   43.1923   34.0276   38.0692 C   0  0  0  0  0  0  0  0  0  0  0  0
   42.4602   34.7308   38.4964 H   0  0  0  0  0  0  0  0  0  0  0  0
   44.3718   34.0630   38.7207 N   0  0  0  0  0  0  0  0  0  0  0  0
   45.3798   33.2564   38.3179 C   0  0  0  0  0  0  0  0  0  0  0  0
  1  6  1  0
  2  1  1  0
  2  3  1  0
  3  4  1  0
  4  5  1  0
  6 19  1  0
  6  5  1  0
  7  8  2  0
  7  1  1  0
  9  8  1  0
 10  9  2  0
 11 10  1  0
 11 12  2  0
 12  7  1  0
 13 11  1  0
 14 13  2  0
 15 14  1  0
 16 17  1  0
 16 15  2  0
 17 18  2  0
 18 13  1  0
 19 20  1  0
 20 21  2  0
 22 20  1  0
  1 23  1  1
  2 24  1  0
  2 25  1  0
  3 26  1  0
  3 27  1  0
  4 28  1  0
  4 29  1  0
  5 30  1  0
  5 31  1  0
  6 32  1  1
  8 33  1  0
  9 34  1  0
 14 35  1  0
 15 36  1  0
 16 37  1  0
 19 38  1  0
 22 39  1  0
 22 40  1  0
 41 42  1  0
 42 43  1  0
 42 44  2  0
 44 45  1  0
 45 46  2  0
 46 47  1  0
 46 48  1  0
 48 49  2  0
 49 50  1  0
 49 51  1  0
 51 52  2  0
 52 41  1  0
 52 45  1  0
 17 41  1  0
M  ISO  8  23  13  24  13  25  13  26  13  27  13  28  13  29  13  30  13
M  ISO  8  31  13  32  13  33  14  34  14  35  14  36  14  37  14  43  15
M  ISO  2  47  16  50  16
M  END
>  <DihAtoms>  (1) 
15,16,40,41

>  <DihDeg>  (1) 
-126.08854488380967

$$$$
