
 OpenBabel03252507373D

 41 46  0  0  0  0  0  0  0  0999 V2000
   45.6030   34.7380   43.4790 C   0  0  0  0  0  0  0  0  0  0  0  0
   46.3120   33.6650   44.0890 C   0  0  0  0  0  0  0  0  0  0  0  0
   46.0970   33.4780   45.4480 C   0  0  0  0  0  0  0  0  0  0  0  0
   45.2610   34.2860   46.1050 N   0  0  0  0  0  0  0  0  0  0  0  0
   44.6010   35.2990   45.4950 C   0  0  0  0  0  0  0  0  0  0  0  0
   44.7810   35.5080   44.2010 N   0  0  0  0  0  0  0  0  0  0  0  0
   46.9820   33.0120   43.5800 H   0  0  0  0  0  0  0  0  0  0  0  0
   43.9590   35.8660   46.1610 H   0  0  0  0  0  0  0  0  0  0  0  0
   47.0020   32.6660   47.5600 C   0  0  0  0  0  0  0  0  0  0  0  0
   46.7640   32.4090   46.2050 C   0  0  0  0  0  0  0  0  0  0  0  0
   47.1610   31.2130   45.6900 C   0  0  0  0  0  0  0  0  0  0  0  0
   47.7860   30.2430   46.4430 C   0  0  0  0  0  0  0  0  0  0  0  0
   48.2560   29.0130   46.1530 N   0  0  0  0  0  0  0  0  0  0  0  0
   48.7890   28.4880   47.3110 C   0  0  0  0  0  0  0  0  0  0  0  0
   48.6370   29.3970   48.2800 N   0  0  0  0  0  0  0  0  0  0  0  0
   48.0260   30.4780   47.7730 C   0  0  0  0  0  0  0  0  0  0  0  0
   47.6360   31.6830   48.3280 C   0  0  0  0  0  0  0  0  0  0  0  0
   46.7280   33.5830   48.0700 H   0  0  0  0  0  0  0  0  0  0  0  0
   46.9650   31.0310   44.6260 H   0  0  0  0  0  0  0  0  0  0  0  0
   48.1800   28.6230   45.1890 H   0  0  0  0  0  0  0  0  0  0  0  0
   49.2070   27.4940   47.2190 H   0  0  0  0  0  0  0  0  0  0  0  0
   47.8440   31.8320   49.3800 H   0  0  0  0  0  0  0  0  0  0  0  0
   45.8070   34.9370   42.1200 O   0  0  0  0  0  0  0  0  0  0  0  0
   44.8900   34.5150   41.1970 C   0  0  0  0  0  0  0  0  0  0  0  0
   45.6150   33.7680   40.3380 C   0  0  0  0  0  0  0  0  0  0  0  0
   44.3240   33.2030   39.0750 S   0  0  0  0  0  0  0  0  0  0  0  0
   42.9930   34.1580   40.0400 C   0  0  0  0  0  0  0  0  0  0  0  0
   43.6210   34.5670   40.8520 N   0  0  0  0  0  0  0  0  0  0  0  0
   46.6090   33.2810   39.9540 H   0  0  0  0  0  0  0  0  0  0  0  0
   41.5530   34.3330   39.8170 N   0  0  0  0  0  0  0  0  0  0  0  0
   40.9690   35.5250   39.7650 C   0  0  0  0  0  0  0  0  0  0  0  0
   41.4250   36.5090   39.8710 H   0  0  0  0  0  0  0  0  0  0  0  0
   39.6710   35.2500   39.5500 N   0  0  0  0  0  0  0  0  0  0  0  0
   39.4910   33.9250   39.4760 C   0  0  0  0  0  0  0  0  0  0  0  0
   38.3700   33.1290   39.2710 C   0  0  0  0  0  0  0  0  0  0  0  0
   37.3940   33.5580   39.1310 H   0  0  0  0  0  0  0  0  0  0  0  0
   38.4570   31.7880   39.2390 N   0  0  0  0  0  0  0  0  0  0  0  0
   39.6690   31.1990   39.4110 C   0  0  0  0  0  0  0  0  0  0  0  0
   39.7470   30.1100   39.3860 H   0  0  0  0  0  0  0  0  0  0  0  0
   40.7750   31.9710   39.6120 N   0  0  0  0  0  0  0  0  0  0  0  0
   40.7140   33.3140   39.6490 C   0  0  0  0  0  0  0  0  0  0  0  0
  1  2  2  0  0  0  0
  1  6  1  0  0  0  0
  2  3  1  0  0  0  0
  3  4  2  0  0  0  0
  3 10  1  0  0  0  0
  5  4  1  0  0  0  0
  5  8  1  0  0  0  0
  6  5  2  0  0  0  0
  7  2  1  0  0  0  0
  9 18  1  0  0  0  0
  9 17  1  0  0  0  0
 10  9  2  0  0  0  0
 11 10  1  0  0  0  0
 11 12  2  0  0  0  0
 12 16  1  0  0  0  0
 13 12  1  0  0  0  0
 13 14  1  0  0  0  0
 14 15  2  0  0  0  0
 16 15  1  0  0  0  0
 16 17  2  0  0  0  0
 17 22  1  0  0  0  0
 19 11  1  0  0  0  0
 20 13  1  0  0  0  0
 21 14  1  0  0  0  0
 23  1  1  0  0  0  0
 24 23  1  0  0  0  0
 25 24  2  0  0  0  0
 26 27  1  0  0  0  0
 26 25  1  0  0  0  0
 27 28  2  0  0  0  0
 28 24  1  0  0  0  0
 29 25  1  0  0  0  0
 30 27  1  0  0  0  0
 31 30  1  0  0  0  0
 31 32  1  0  0  0  0
 33 31  2  0  0  0  0
 34 33  1  0  0  0  0
 34 41  1  0  0  0  0
 35 34  2  0  0  0  0
 36 35  1  0  0  0  0
 37 35  1  0  0  0  0
 37 38  2  0  0  0  0
 38 40  1  0  0  0  0
 39 38  1  0  0  0  0
 40 41  2  0  0  0  0
 41 30  1  0  0  0  0
M  END
>  <minimizedAffinity>
-7.0100646

>  <minimizedRMSD>
1.36423111

$$$$
