
     RDKit          3D

 47 51  0  0  0  0  0  0  0  0999 V2000
   45.0038   34.9086   44.9021 C   0  0  0  0  0  0  0  0  0  0  0  0
   45.9085   34.7255   43.8615 C   0  0  0  0  0  0  0  0  0  0  0  0
   46.7918   33.6527   43.9771 C   0  0  0  0  0  0  0  0  0  0  0  0
   46.7689   32.8286   45.0491 N   0  0  0  0  0  0  0  0  0  0  0  0
   45.8703   33.0424   46.0423 C   0  0  0  0  0  0  0  0  0  0  0  0
   44.9866   34.0783   45.9765 N   0  0  0  0  0  0  0  0  0  0  0  0
   47.3259   31.8380   47.6593 C   0  0  2  0  0  0  0  0  0  0  0  0
   45.8732   32.1273   47.1810 C   0  0  1  0  0  0  0  0  0  0  0  0
   45.3671   32.6173   48.3361 O   0  0  0  0  0  0  0  0  0  0  0  0
   45.7531   31.7860   49.3480 C   0  0  0  0  0  0  0  0  0  0  0  0
   46.9500   30.9900   48.8803 C   0  0  2  0  0  0  0  0  0  0  0  0
   47.9076   32.9662   48.0983 O   0  0  0  0  0  0  0  0  0  0  0  0
   47.9585   30.9092   49.8014 O   0  0  0  0  0  0  0  0  0  0  0  0
   45.9208   35.6135   42.7160 C   0  0  0  0  0  0  0  0  0  0  0  0
   44.9389   35.1730   41.7148 C   0  0  0  0  0  0  0  0  0  0  0  0
   43.6639   35.6737   41.5798 C   0  0  0  0  0  0  0  0  0  0  0  0
   42.7811   35.2215   40.6320 C   0  0  0  0  0  0  0  0  0  0  0  0
   43.1884   34.2263   39.7827 C   0  0  0  0  0  0  0  0  0  0  0  0
   44.4743   33.7008   39.8966 C   0  0  0  0  0  0  0  0  0  0  0  0
   45.3602   34.1731   40.8660 C   0  0  0  0  0  0  0  0  0  0  0  0
   44.3268   35.7431   44.7986 H   0  0  0  0  0  0  0  0  0  0  0  0
   47.5410   33.4085   43.2722 H   0  0  0  0  0  0  0  0  0  0  0  0
   47.8769   31.2599   46.8981 H   0  0  0  0  0  0  0  0  0  0  0  0
   45.4195   31.1328   46.9564 H   0  0  0  0  0  0  0  0  0  0  0  0
   44.9108   31.1420   49.6720 H   0  0  0  0  0  0  0  0  0  0  0  0
   46.0188   32.4021   50.2329 H   0  0  0  0  0  0  0  0  0  0  0  0
   46.6102   29.9948   48.5889 H   0  0  0  0  0  0  0  0  0  0  0  0
   48.7332   33.2385   47.6424 H   0  0  0  0  0  0  0  0  0  0  0  0
   47.5597   30.7092   50.6935 H   0  0  0  0  0  0  0  0  0  0  0  0
   46.9408   35.5922   42.2749 H   0  0  0  0  0  0  0  0  0  0  0  0
   45.7618   36.6765   43.0036 H   0  0  0  0  0  0  0  0  0  0  0  0
   43.4295   36.4578   42.2950 H   0  0  0  0  0  0  0  0  0  0  0  0
   41.7961   35.6658   40.5885 H   0  0  0  0  0  0  0  0  0  0  0  0
   42.4495   33.9130   39.0601 H   0  0  0  0  0  0  0  0  0  0  0  0
   44.6305   32.9235   39.1485 H   0  0  0  0  0  0  0  0  0  0  0  0
   46.5855   33.4679   40.7265 N   0  0  0  0  0  0  0  0  0  0  0  0
   46.9881   32.3107   41.3307 C   0  0  0  0  0  0  0  0  0  0  0  0
   46.4166   31.7340   42.0327 H   0  0  0  0  0  0  0  0  0  0  0  0
   48.2066   31.9446   40.9600 N   0  0  0  0  0  0  0  0  0  0  0  0
   48.6279   32.8780   40.0886 C   0  0  0  0  0  0  0  0  0  0  0  0
   49.7752   33.0890   39.3500 C   0  0  0  0  0  0  0  0  0  0  0  0
   50.5879   32.3757   39.4316 H   0  0  0  0  0  0  0  0  0  0  0  0
   49.9200   34.1478   38.5331 N   0  0  0  0  0  0  0  0  0  0  0  0
   48.9366   35.0614   38.3990 C   0  0  0  0  0  0  0  0  0  0  0  0
   49.1478   35.8676   37.7252 H   0  0  0  0  0  0  0  0  0  0  0  0
   47.7900   34.8825   39.1149 N   0  0  0  0  0  0  0  0  0  0  0  0
   47.6285   33.8435   39.9263 C   0  0  0  0  0  0  0  0  0  0  0  0
  1  6  2  0
  2  3  2  0
  2  1  1  0
  3  4  1  0
  4  5  2  0
  5  8  1  0
  6  5  1  0
  7 12  1  0
  7 11  1  0
  8  7  1  0
  8  9  1  0
  9 10  1  0
 11 10  1  0
 11 13  1  0
 14  2  1  0
 15 14  1  0
 16 15  2  0
 17 16  1  0
 18 19  1  0
 18 17  2  0
 19 20  2  0
 20 15  1  0
  1 21  1  0
  3 22  1  0
  7 23  1  6
  8 24  1  6
 10 25  1  0
 10 26  1  0
 11 27  1  6
 12 28  1  0
 13 29  1  0
 14 30  1  0
 14 31  1  0
 16 32  1  0
 17 33  1  0
 18 34  1  0
 19 35  1  0
 36 37  1  0
 37 38  1  0
 37 39  2  0
 39 40  1  0
 40 41  2  0
 41 42  1  0
 41 43  1  0
 43 44  2  0
 44 45  1  0
 44 46  1  0
 46 47  2  0
 47 36  1  0
 47 40  1  0
 20 36  1  0
M  ISO  8  21  14  22  14  23  13  24  13  25  13  26  13  27  13  28   3
M  ISO  8  29   3  30   8  31   8  32  14  33  14  34  14  35  14  38  15
M  ISO  2  42  16  45  16
M  END
>  <DihAtoms>  (1) 
18,19,35,36

>  <DihDeg>  (1) 
119.13475284484454

$$$$
