
 OpenBabel03242522383D

 48 52  0  0  0  0  0  0  0  0999 V2000
   35.5000   29.4130   39.7890 O   0  0  0  0  0  0  0  0  0  0  0  0
   36.5110   28.1640   41.5550 C   0  0  0  0  0  0  0  0  0  0  0  0
   37.0490   26.9860   42.0050 C   0  0  0  0  0  0  0  0  0  0  0  0
   37.0980   25.9170   41.1270 C   0  0  0  0  0  0  0  0  0  0  0  0
   36.6370   25.9610   39.8190 C   0  0  0  0  0  0  0  0  0  0  0  0
   36.0960   27.1690   39.3890 C   0  0  0  0  0  0  0  0  0  0  0  0
   36.0440   28.2340   40.2520 C   0  0  0  0  0  0  0  0  0  0  0  0
   37.5280   24.9880   41.4980 H   0  0  0  0  0  0  0  0  0  0  0  0
   36.7170   25.0760   39.2080 H   0  0  0  0  0  0  0  0  0  0  0  0
   35.7470   27.1830   38.3810 H   0  0  0  0  0  0  0  0  0  0  0  0
   37.5690   26.8270   43.3770 C   0  0  0  0  0  0  0  0  0  0  0  0
   37.2950   25.8320   43.7510 H   0  0  0  0  0  0  0  0  0  0  0  0
   37.1030   27.5860   44.0530 H   0  0  0  0  0  0  0  0  0  0  0  0
   41.1880   26.3690   44.0250 C   0  0  0  0  0  0  0  0  0  0  0  0
   41.7190   27.5590   43.5400 C   0  0  0  0  0  0  0  0  0  0  0  0
   40.8440   28.4750   43.0110 C   0  0  0  0  0  0  0  0  0  0  0  0
   39.5260   28.2060   42.9760 N   0  0  0  0  0  0  0  0  0  0  0  0
   39.0330   27.0440   43.4540 C   0  0  0  0  0  0  0  0  0  0  0  0
   39.8720   26.1450   43.9700 N   0  0  0  0  0  0  0  0  0  0  0  0
   41.7550   25.5600   44.4660 H   0  0  0  0  0  0  0  0  0  0  0  0
   42.7880   27.6710   43.6160 H   0  0  0  0  0  0  0  0  0  0  0  0
   41.2560   29.4040   42.6320 H   0  0  0  0  0  0  0  0  0  0  0  0
   36.4400   29.2580   42.3930 O   0  0  0  0  0  0  0  0  0  0  0  0
   35.5100   29.6510   42.5780 H   0  0  0  0  0  0  0  0  0  0  0  0
   36.3220   30.2750   39.0860 C   0  0  0  0  0  0  0  0  0  0  0  0
   36.5380   29.9610   37.7470 C   0  0  0  0  0  0  0  0  0  0  0  0
   37.3460   30.7790   36.9940 C   0  0  0  0  0  0  0  0  0  0  0  0
   37.9420   31.9030   37.5480 C   0  0  0  0  0  0  0  0  0  0  0  0
   37.6980   32.1850   38.9050 C   0  0  0  0  0  0  0  0  0  0  0  0
   36.8950   31.3760   39.6610 C   0  0  0  0  0  0  0  0  0  0  0  0
   36.1190   29.1150   37.2420 H   0  0  0  0  0  0  0  0  0  0  0  0
   37.5580   30.5940   35.9460 H   0  0  0  0  0  0  0  0  0  0  0  0
   38.5700   32.5340   36.9520 H   0  0  0  0  0  0  0  0  0  0  0  0
   38.3420   33.3540   39.4040 N   0  0  0  0  0  0  0  0  0  0  0  0
   37.6710   34.5360   39.5430 C   0  0  0  0  0  0  0  0  0  0  0  0
   36.6340   34.7520   39.3150 H   0  0  0  0  0  0  0  0  0  0  0  0
   38.4800   35.4950   40.0290 N   0  0  0  0  0  0  0  0  0  0  0  0
   39.6840   34.9430   40.2120 C   0  0  0  0  0  0  0  0  0  0  0  0
   40.8780   35.4560   40.6820 C   0  0  0  0  0  0  0  0  0  0  0  0
   40.9380   36.4880   40.9820 H   0  0  0  0  0  0  0  0  0  0  0  0
   41.9110   34.5770   40.7270 N   0  0  0  0  0  0  0  0  0  0  0  0
   41.7970   33.2930   40.3430 C   0  0  0  0  0  0  0  0  0  0  0  0
   42.7280   32.7350   40.4470 H   0  0  0  0  0  0  0  0  0  0  0  0
   40.6310   32.7680   39.8760 N   0  0  0  0  0  0  0  0  0  0  0  0
   39.5920   33.6220   39.8230 C   0  0  0  0  0  0  0  0  0  0  0  0
   36.6700   31.6820   41.0110 N   0  0  0  0  0  0  0  0  0  0  0  0
   35.6550   31.9190   41.1500 H   0  0  0  0  0  0  0  0  0  0  0  0
   37.3630   31.6930   41.8130 H   0  0  0  0  0  0  0  0  0  0  0  0
  1  7  1  0  0  0  0
  2  3  1  0  0  0  0
  2 23  1  0  0  0  0
  3 11  1  0  0  0  0
  4  8  1  0  0  0  0
  4  3  2  0  0  0  0
  5  4  1  0  0  0  0
  6  5  2  0  0  0  0
  6  7  1  0  0  0  0
  7  2  2  0  0  0  0
  9  5  1  0  0  0  0
 10  6  1  0  0  0  0
 11 18  1  0  0  0  0
 11 12  1  0  0  0  0
 11 13  1  0  0  0  0
 14 20  1  0  0  0  0
 15 21  1  0  0  0  0
 15 14  2  0  0  0  0
 16 15  1  0  0  0  0
 17 16  2  0  0  0  0
 17 18  1  0  0  0  0
 18 19  2  0  0  0  0
 19 14  1  0  0  0  0
 22 16  1  0  0  0  0
 23 24  1  0  0  0  0
 25 30  1  0  0  0  0
 25  1  1  0  0  0  0
 26 25  2  0  0  0  0
 27 28  2  0  0  0  0
 27 26  1  0  0  0  0
 28 29  1  0  0  0  0
 29 34  1  0  0  0  0
 29 30  2  0  0  0  0
 30 46  1  0  0  0  0
 31 26  1  0  0  0  0
 32 27  1  0  0  0  0
 33 28  1  0  0  0  0
 34 35  1  0  0  0  0
 34 45  1  0  0  0  0
 35 37  2  0  0  0  0
 36 35  1  0  0  0  0
 37 38  1  0  0  0  0
 38 39  1  0  0  0  0
 39 41  2  0  0  0  0
 39 40  1  0  0  0  0
 42 43  1  0  0  0  0
 42 41  1  0  0  0  0
 44 42  2  0  0  0  0
 45 44  1  0  0  0  0
 45 38  2  0  0  0  0
 46 47  1  0  0  0  0
 46 48  1  0  0  0  0
M  END
>  <minimizedAffinity>
-7.44230747

$$$$

 OpenBabel03242522383D

 48 52  0  0  0  0  0  0  0  0999 V2000
   37.9990   32.7550   41.0250 O   0  0  0  0  0  0  0  0  0  0  0  0
   36.5290   31.0330   40.2660 C   0  0  0  0  0  0  0  0  0  0  0  0
   36.1380   30.1730   39.2720 C   0  0  0  0  0  0  0  0  0  0  0  0
   36.8360   30.2010   38.0770 C   0  0  0  0  0  0  0  0  0  0  0  0
   37.9070   31.0440   37.8200 C   0  0  0  0  0  0  0  0  0  0  0  0
   38.2830   31.9060   38.8460 C   0  0  0  0  0  0  0  0  0  0  0  0
   37.5970   31.8850   40.0340 C   0  0  0  0  0  0  0  0  0  0  0  0
   36.5150   29.5120   37.2970 H   0  0  0  0  0  0  0  0  0  0  0  0
   38.3910   30.9940   36.8580 H   0  0  0  0  0  0  0  0  0  0  0  0
   39.1080   32.5460   38.6300 H   0  0  0  0  0  0  0  0  0  0  0  0
   35.0110   29.2340   39.4370 C   0  0  0  0  0  0  0  0  0  0  0  0
   34.1620   29.7690   39.8810 H   0  0  0  0  0  0  0  0  0  0  0  0
   35.2980   28.4110   40.1360 H   0  0  0  0  0  0  0  0  0  0  0  0
   34.7380   26.8380   36.6250 C   0  0  0  0  0  0  0  0  0  0  0  0
   33.8420   27.4850   35.7820 C   0  0  0  0  0  0  0  0  0  0  0  0
   33.3590   28.7050   36.1870 C   0  0  0  0  0  0  0  0  0  0  0  0
   33.7550   29.2320   37.3600 N   0  0  0  0  0  0  0  0  0  0  0  0
   34.6270   28.5840   38.1620 C   0  0  0  0  0  0  0  0  0  0  0  0
   35.1030   27.3990   37.7820 N   0  0  0  0  0  0  0  0  0  0  0  0
   35.1970   25.8760   36.4370 H   0  0  0  0  0  0  0  0  0  0  0  0
   33.5920   26.9750   34.8680 H   0  0  0  0  0  0  0  0  0  0  0  0
   32.6600   29.2130   35.5320 H   0  0  0  0  0  0  0  0  0  0  0  0
   35.8630   31.0430   41.4750 O   0  0  0  0  0  0  0  0  0  0  0  0
   35.4290   31.9270   41.7670 H   0  0  0  0  0  0  0  0  0  0  0  0
   38.9200   33.7330   40.6970 C   0  0  0  0  0  0  0  0  0  0  0  0
   38.4010   34.9090   40.1630 C   0  0  0  0  0  0  0  0  0  0  0  0
   39.2650   35.9210   39.8160 C   0  0  0  0  0  0  0  0  0  0  0  0
   40.6350   35.7830   39.9910 C   0  0  0  0  0  0  0  0  0  0  0  0
   41.1180   34.5780   40.5330 C   0  0  0  0  0  0  0  0  0  0  0  0
   40.2650   33.5660   40.8810 C   0  0  0  0  0  0  0  0  0  0  0  0
   37.3610   35.0980   39.9960 H   0  0  0  0  0  0  0  0  0  0  0  0
   38.9300   36.8630   39.3960 H   0  0  0  0  0  0  0  0  0  0  0  0
   41.3000   36.5770   39.7160 H   0  0  0  0  0  0  0  0  0  0  0  0
   42.5340   34.5080   40.6820 N   0  0  0  0  0  0  0  0  0  0  0  0
   43.3180   33.8600   39.7690 C   0  0  0  0  0  0  0  0  0  0  0  0
   43.0130   33.3430   38.8670 H   0  0  0  0  0  0  0  0  0  0  0  0
   44.6160   33.9250   40.1180 N   0  0  0  0  0  0  0  0  0  0  0  0
   44.6870   34.6160   41.2600 C   0  0  0  0  0  0  0  0  0  0  0  0
   45.7530   34.9830   42.0580 C   0  0  0  0  0  0  0  0  0  0  0  0
   46.7540   34.6990   41.7800 H   0  0  0  0  0  0  0  0  0  0  0  0
   45.4320   35.6980   43.1660 N   0  0  0  0  0  0  0  0  0  0  0  0
   44.1680   36.0340   43.4800 C   0  0  0  0  0  0  0  0  0  0  0  0
   44.0980   36.6070   44.4040 H   0  0  0  0  0  0  0  0  0  0  0  0
   43.1030   35.6820   42.7080 N   0  0  0  0  0  0  0  0  0  0  0  0
   43.3980   34.9730   41.6030 C   0  0  0  0  0  0  0  0  0  0  0  0
   40.7770   32.3770   41.4190 N   0  0  0  0  0  0  0  0  0  0  0  0
   40.4490   32.2750   42.4130 H   0  0  0  0  0  0  0  0  0  0  0  0
   41.3970   31.6530   40.9560 H   0  0  0  0  0  0  0  0  0  0  0  0
  2 23  1  0  0  0  0
  3 11  1  0  0  0  0
  3  2  2  0  0  0  0
  4  3  1  0  0  0  0
  5  4  2  0  0  0  0
  5  6  1  0  0  0  0
  6  7  2  0  0  0  0
  7  2  1  0  0  0  0
  7  1  1  0  0  0  0
  8  4  1  0  0  0  0
  9  5  1  0  0  0  0
 10  6  1  0  0  0  0
 11 12  1  0  0  0  0
 11 13  1  0  0  0  0
 14 19  1  0  0  0  0
 15 16  1  0  0  0  0
 15 14  2  0  0  0  0
 16 17  2  0  0  0  0
 17 18  1  0  0  0  0
 18 11  1  0  0  0  0
 19 18  2  0  0  0  0
 20 14  1  0  0  0  0
 21 15  1  0  0  0  0
 22 16  1  0  0  0  0
 23 24  1  0  0  0  0
 25 30  1  0  0  0  0
 25  1  1  0  0  0  0
 26 25  2  0  0  0  0
 27 28  2  0  0  0  0
 27 26  1  0  0  0  0
 28 29  1  0  0  0  0
 29 34  1  0  0  0  0
 29 30  2  0  0  0  0
 30 46  1  0  0  0  0
 31 26  1  0  0  0  0
 32 27  1  0  0  0  0
 33 28  1  0  0  0  0
 34 45  1  0  0  0  0
 35 37  2  0  0  0  0
 35 34  1  0  0  0  0
 36 35  1  0  0  0  0
 37 38  1  0  0  0  0
 38 45  2  0  0  0  0
 38 39  1  0  0  0  0
 39 41  2  0  0  0  0
 40 39  1  0  0  0  0
 41 42  1  0  0  0  0
 42 43  1  0  0  0  0
 44 42  2  0  0  0  0
 45 44  1  0  0  0  0
 46 47  1  0  0  0  0
 48 46  1  0  0  0  0
M  END
>  <minimizedAffinity>
-7.22140026

$$$$

 OpenBabel03242522383D

 48 52  0  0  0  0  0  0  0  0999 V2000
   38.1770   29.7640   42.8000 O   0  0  0  0  0  0  0  0  0  0  0  0
   37.5680   27.4670   42.5740 C   0  0  0  0  0  0  0  0  0  0  0  0
   37.9370   26.1720   42.3160 C   0  0  0  0  0  0  0  0  0  0  0  0
   39.2680   25.9190   42.0360 C   0  0  0  0  0  0  0  0  0  0  0  0
   40.2550   26.8930   41.9990 C   0  0  0  0  0  0  0  0  0  0  0  0
   39.8540   28.1980   42.2640 C   0  0  0  0  0  0  0  0  0  0  0  0
   38.5360   28.4580   42.5430 C   0  0  0  0  0  0  0  0  0  0  0  0
   39.5470   24.8860   41.8330 H   0  0  0  0  0  0  0  0  0  0  0  0
   41.2680   26.6010   41.7710 H   0  0  0  0  0  0  0  0  0  0  0  0
   40.6260   28.9330   42.2310 H   0  0  0  0  0  0  0  0  0  0  0  0
   36.9690   25.0570   42.3290 C   0  0  0  0  0  0  0  0  0  0  0  0
   35.9790   25.4460   42.5990 H   0  0  0  0  0  0  0  0  0  0  0  0
   37.2630   24.3040   43.1010 H   0  0  0  0  0  0  0  0  0  0  0  0
   37.3520   22.4730   39.7010 C   0  0  0  0  0  0  0  0  0  0  0  0
   36.7870   23.1020   38.5960 C   0  0  0  0  0  0  0  0  0  0  0  0
   36.2960   24.3720   38.7720 C   0  0  0  0  0  0  0  0  0  0  0  0
   36.3710   24.9640   39.9780 N   0  0  0  0  0  0  0  0  0  0  0  0
   36.9260   24.3340   41.0360 C   0  0  0  0  0  0  0  0  0  0  0  0
   37.4060   23.1000   40.8800 N   0  0  0  0  0  0  0  0  0  0  0  0
   37.7760   21.4780   39.7110 H   0  0  0  0  0  0  0  0  0  0  0  0
   36.7770   22.5380   37.6790 H   0  0  0  0  0  0  0  0  0  0  0  0
   35.8550   24.8640   37.9130 H   0  0  0  0  0  0  0  0  0  0  0  0
   36.2520   27.7690   42.8580 O   0  0  0  0  0  0  0  0  0  0  0  0
   35.7770   28.4370   42.2400 H   0  0  0  0  0  0  0  0  0  0  0  0
   38.0410   30.6240   41.7250 C   0  0  0  0  0  0  0  0  0  0  0  0
   36.8640   30.5060   40.9920 C   0  0  0  0  0  0  0  0  0  0  0  0
   36.6670   31.3310   39.9110 C   0  0  0  0  0  0  0  0  0  0  0  0
   37.6200   32.2720   39.5460 C   0  0  0  0  0  0  0  0  0  0  0  0
   38.7960   32.3590   40.3140 C   0  0  0  0  0  0  0  0  0  0  0  0
   38.9990   31.5410   41.3910 C   0  0  0  0  0  0  0  0  0  0  0  0
   36.0790   29.8090   41.2030 H   0  0  0  0  0  0  0  0  0  0  0  0
   35.7740   31.2940   39.2950 H   0  0  0  0  0  0  0  0  0  0  0  0
   37.4580   32.9110   38.7010 H   0  0  0  0  0  0  0  0  0  0  0  0
   39.7280   33.3460   39.8810 N   0  0  0  0  0  0  0  0  0  0  0  0
   39.7530   34.5960   40.4320 C   0  0  0  0  0  0  0  0  0  0  0  0
   39.1230   34.9980   41.2170 H   0  0  0  0  0  0  0  0  0  0  0  0
   40.7110   35.3530   39.8660 N   0  0  0  0  0  0  0  0  0  0  0  0
   41.3180   34.6000   38.9430 C   0  0  0  0  0  0  0  0  0  0  0  0
   42.3580   34.8600   38.0710 C   0  0  0  0  0  0  0  0  0  0  0  0
   42.8280   35.8290   38.0700 H   0  0  0  0  0  0  0  0  0  0  0  0
   42.7100   33.8290   37.2620 N   0  0  0  0  0  0  0  0  0  0  0  0
   42.0980   32.6320   37.2930 C   0  0  0  0  0  0  0  0  0  0  0  0
   42.5120   31.9260   36.5730 H   0  0  0  0  0  0  0  0  0  0  0  0
   41.0720   32.3560   38.1430 N   0  0  0  0  0  0  0  0  0  0  0  0
   40.7060   33.3640   38.9560 C   0  0  0  0  0  0  0  0  0  0  0  0
   40.1810   31.6510   42.1370 N   0  0  0  0  0  0  0  0  0  0  0  0
   39.9510   31.9820   43.1080 H   0  0  0  0  0  0  0  0  0  0  0  0
   41.1770   31.4500   41.8350 H   0  0  0  0  0  0  0  0  0  0  0  0
  2 23  1  0  0  0  0
  3 11  1  0  0  0  0
  3  2  2  0  0  0  0
  4  3  1  0  0  0  0
  5  4  2  0  0  0  0
  5  6  1  0  0  0  0
  6  7  2  0  0  0  0
  7  2  1  0  0  0  0
  7  1  1  0  0  0  0
  8  4  1  0  0  0  0
  9  5  1  0  0  0  0
 10  6  1  0  0  0  0
 11 12  1  0  0  0  0
 11 13  1  0  0  0  0
 14 20  1  0  0  0  0
 14 19  1  0  0  0  0
 15 16  1  0  0  0  0
 15 14  2  0  0  0  0
 16 17  2  0  0  0  0
 17 18  1  0  0  0  0
 18 11  1  0  0  0  0
 19 18  2  0  0  0  0
 21 15  1  0  0  0  0
 22 16  1  0  0  0  0
 24 23  1  0  0  0  0
 25  1  1  0  0  0  0
 26 31  1  0  0  0  0
 26 25  2  0  0  0  0
 27 26  1  0  0  0  0
 28 27  2  0  0  0  0
 28 29  1  0  0  0  0
 29 30  2  0  0  0  0
 30 25  1  0  0  0  0
 30 46  1  0  0  0  0
 32 27  1  0  0  0  0
 33 28  1  0  0  0  0
 34 29  1  0  0  0  0
 34 35  1  0  0  0  0
 35 36  1  0  0  0  0
 37 35  2  0  0  0  0
 38 45  1  0  0  0  0
 38 37  1  0  0  0  0
 39 38  2  0  0  0  0
 40 39  1  0  0  0  0
 41 42  2  0  0  0  0
 41 39  1  0  0  0  0
 42 44  1  0  0  0  0
 43 42  1  0  0  0  0
 44 45  2  0  0  0  0
 45 34  1  0  0  0  0
 46 47  1  0  0  0  0
 48 46  1  0  0  0  0
M  END
>  <minimizedAffinity>
-7.0446372

$$$$

 OpenBabel03242522383D

 48 52  0  0  0  0  0  0  0  0999 V2000
   37.9150   32.6890   41.0100 O   0  0  0  0  0  0  0  0  0  0  0  0
   36.4200   30.9780   40.2750 C   0  0  0  0  0  0  0  0  0  0  0  0
   35.9770   30.1540   39.2730 C   0  0  0  0  0  0  0  0  0  0  0  0
   36.5950   30.2400   38.0380 C   0  0  0  0  0  0  0  0  0  0  0  0
   37.6380   31.1090   37.7480 C   0  0  0  0  0  0  0  0  0  0  0  0
   38.0690   31.9340   38.7830 C   0  0  0  0  0  0  0  0  0  0  0  0
   37.4600   31.8550   40.0100 C   0  0  0  0  0  0  0  0  0  0  0  0
   36.2330   29.5800   37.2520 H   0  0  0  0  0  0  0  0  0  0  0  0
   38.0590   31.1060   36.7560 H   0  0  0  0  0  0  0  0  0  0  0  0
   38.8700   32.5940   38.5410 H   0  0  0  0  0  0  0  0  0  0  0  0
   34.8740   29.1920   39.4700 C   0  0  0  0  0  0  0  0  0  0  0  0
   34.0600   29.6890   40.0140 H   0  0  0  0  0  0  0  0  0  0  0  0
   35.2240   28.3310   40.0910 H   0  0  0  0  0  0  0  0  0  0  0  0
   33.0940   28.6920   36.2600 C   0  0  0  0  0  0  0  0  0  0  0  0
   33.5770   27.4530   35.8540 C   0  0  0  0  0  0  0  0  0  0  0  0
   34.4850   26.8280   36.6720 C   0  0  0  0  0  0  0  0  0  0  0  0
   34.8760   27.4140   37.8190 N   0  0  0  0  0  0  0  0  0  0  0  0
   34.3920   28.6170   38.1930 C   0  0  0  0  0  0  0  0  0  0  0  0
   33.5100   29.2360   37.4080 N   0  0  0  0  0  0  0  0  0  0  0  0
   32.3780   29.2970   35.7190 H   0  0  0  0  0  0  0  0  0  0  0  0
   33.1990   27.0760   34.9190 H   0  0  0  0  0  0  0  0  0  0  0  0
   34.8640   25.8620   36.3580 H   0  0  0  0  0  0  0  0  0  0  0  0
   35.8340   30.9290   41.5230 O   0  0  0  0  0  0  0  0  0  0  0  0
   35.4090   31.7930   41.8790 H   0  0  0  0  0  0  0  0  0  0  0  0
   38.8300   33.6700   40.6710 C   0  0  0  0  0  0  0  0  0  0  0  0
   38.2980   34.8690   40.2060 C   0  0  0  0  0  0  0  0  0  0  0  0
   39.1540   35.8850   39.8530 C   0  0  0  0  0  0  0  0  0  0  0  0
   40.5290   35.7280   39.9530 C   0  0  0  0  0  0  0  0  0  0  0  0
   41.0260   34.5000   40.4270 C   0  0  0  0  0  0  0  0  0  0  0  0
   40.1800   33.4840   40.7810 C   0  0  0  0  0  0  0  0  0  0  0  0
   37.2520   35.0740   40.0980 H   0  0  0  0  0  0  0  0  0  0  0  0
   38.8090   36.8450   39.4840 H   0  0  0  0  0  0  0  0  0  0  0  0
   41.1890   36.5250   39.6750 H   0  0  0  0  0  0  0  0  0  0  0  0
   42.4460   34.4120   40.5030 N   0  0  0  0  0  0  0  0  0  0  0  0
   43.1240   34.7610   41.6370 C   0  0  0  0  0  0  0  0  0  0  0  0
   42.7250   35.1280   42.5740 H   0  0  0  0  0  0  0  0  0  0  0  0
   44.4510   34.5970   41.4740 N   0  0  0  0  0  0  0  0  0  0  0  0
   44.6450   34.1380   40.2330 C   0  0  0  0  0  0  0  0  0  0  0  0
   45.7900   33.7980   39.5380 C   0  0  0  0  0  0  0  0  0  0  0  0
   46.7520   33.8900   40.0130 H   0  0  0  0  0  0  0  0  0  0  0  0
   45.5910   33.3620   38.2690 N   0  0  0  0  0  0  0  0  0  0  0  0
   44.3720   33.2610   37.7110 C   0  0  0  0  0  0  0  0  0  0  0  0
   44.4040   32.8940   36.6850 H   0  0  0  0  0  0  0  0  0  0  0  0
   43.2320   33.5920   38.3780 N   0  0  0  0  0  0  0  0  0  0  0  0
   43.4040   34.0270   39.6390 C   0  0  0  0  0  0  0  0  0  0  0  0
   40.7050   32.2720   41.2500 N   0  0  0  0  0  0  0  0  0  0  0  0
   40.4260   32.1360   42.2540 H   0  0  0  0  0  0  0  0  0  0  0  0
   41.2940   31.5590   40.7310 H   0  0  0  0  0  0  0  0  0  0  0  0
  2 23  1  0  0  0  0
  3 11  1  0  0  0  0
  3  2  2  0  0  0  0
  4  3  1  0  0  0  0
  5  4  2  0  0  0  0
  5  6  1  0  0  0  0
  6  7  2  0  0  0  0
  7  2  1  0  0  0  0
  7  1  1  0  0  0  0
  8  4  1  0  0  0  0
  9  5  1  0  0  0  0
 10  6  1  0  0  0  0
 11 12  1  0  0  0  0
 11 13  1  0  0  0  0
 14 19  1  0  0  0  0
 15 14  2  0  0  0  0
 15 16  1  0  0  0  0
 16 17  2  0  0  0  0
 17 18  1  0  0  0  0
 18 11  1  0  0  0  0
 19 18  2  0  0  0  0
 20 14  1  0  0  0  0
 21 15  1  0  0  0  0
 22 16  1  0  0  0  0
 23 24  1  0  0  0  0
 25 30  1  0  0  0  0
 25  1  1  0  0  0  0
 26 25  2  0  0  0  0
 27 28  2  0  0  0  0
 27 26  1  0  0  0  0
 28 29  1  0  0  0  0
 29 34  1  0  0  0  0
 29 30  2  0  0  0  0
 30 46  1  0  0  0  0
 31 26  1  0  0  0  0
 32 27  1  0  0  0  0
 33 28  1  0  0  0  0
 34 35  1  0  0  0  0
 35 36  1  0  0  0  0
 37 35  2  0  0  0  0
 38 37  1  0  0  0  0
 39 40  1  0  0  0  0
 39 38  2  0  0  0  0
 41 39  1  0  0  0  0
 42 41  2  0  0  0  0
 42 44  1  0  0  0  0
 43 42  1  0  0  0  0
 44 45  2  0  0  0  0
 45 38  1  0  0  0  0
 45 34  1  0  0  0  0
 46 47  1  0  0  0  0
 48 46  1  0  0  0  0
M  END
>  <minimizedAffinity>
-7.04132318

$$$$

 OpenBabel03242522383D

 48 52  0  0  0  0  0  0  0  0999 V2000
   35.6060   28.8850   39.5690 O   0  0  0  0  0  0  0  0  0  0  0  0
   36.4710   31.1050   39.7390 C   0  0  0  0  0  0  0  0  0  0  0  0
   37.1290   32.1590   39.1580 C   0  0  0  0  0  0  0  0  0  0  0  0
   37.5570   32.0160   37.8500 C   0  0  0  0  0  0  0  0  0  0  0  0
   37.3640   30.8740   37.0870 C   0  0  0  0  0  0  0  0  0  0  0  0
   36.6940   29.8200   37.7000 C   0  0  0  0  0  0  0  0  0  0  0  0
   36.2650   29.9520   38.9960 C   0  0  0  0  0  0  0  0  0  0  0  0
   38.0780   32.8610   37.4020 H   0  0  0  0  0  0  0  0  0  0  0  0
   37.7340   30.8550   36.0740 H   0  0  0  0  0  0  0  0  0  0  0  0
   36.5550   28.9510   37.0970 H   0  0  0  0  0  0  0  0  0  0  0  0
   37.3890   33.4210   39.8780 C   0  0  0  0  0  0  0  0  0  0  0  0
   36.8160   33.4230   40.8140 H   0  0  0  0  0  0  0  0  0  0  0  0
   37.0440   34.2890   39.2650 H   0  0  0  0  0  0  0  0  0  0  0  0
   40.9470   32.8890   40.7630 C   0  0  0  0  0  0  0  0  0  0  0  0
   41.4830   34.1580   40.5720 C   0  0  0  0  0  0  0  0  0  0  0  0
   40.6310   35.1490   40.1530 C   0  0  0  0  0  0  0  0  0  0  0  0
   39.3300   34.8760   39.9410 N   0  0  0  0  0  0  0  0  0  0  0  0
   38.8320   33.6360   40.1340 C   0  0  0  0  0  0  0  0  0  0  0  0
   39.6480   32.6640   40.5410 N   0  0  0  0  0  0  0  0  0  0  0  0
   41.4960   32.0150   41.0890 H   0  0  0  0  0  0  0  0  0  0  0  0
   42.5360   34.2660   40.7700 H   0  0  0  0  0  0  0  0  0  0  0  0
   41.0460   36.1400   40.0040 H   0  0  0  0  0  0  0  0  0  0  0  0
   36.0240   31.1980   41.0410 O   0  0  0  0  0  0  0  0  0  0  0  0
   36.3830   30.5100   41.7130 H   0  0  0  0  0  0  0  0  0  0  0  0
   36.2860   27.6870   39.6840 C   0  0  0  0  0  0  0  0  0  0  0  0
   36.0340   26.7410   38.6940 C   0  0  0  0  0  0  0  0  0  0  0  0
   36.6780   25.5290   38.7520 C   0  0  0  0  0  0  0  0  0  0  0  0
   37.5700   25.2400   39.7750 C   0  0  0  0  0  0  0  0  0  0  0  0
   37.7970   26.2230   40.7560 C   0  0  0  0  0  0  0  0  0  0  0  0
   37.1580   27.4330   40.7060 C   0  0  0  0  0  0  0  0  0  0  0  0
   35.3620   26.8810   37.8720 H   0  0  0  0  0  0  0  0  0  0  0  0
   36.5290   24.7470   38.0150 H   0  0  0  0  0  0  0  0  0  0  0  0
   38.0670   24.2920   39.8120 H   0  0  0  0  0  0  0  0  0  0  0  0
   38.7230   25.8570   41.7750 N   0  0  0  0  0  0  0  0  0  0  0  0
   38.6080   24.6760   42.4540 C   0  0  0  0  0  0  0  0  0  0  0  0
   37.8610   23.9010   42.3350 H   0  0  0  0  0  0  0  0  0  0  0  0
   39.5910   24.5480   43.3650 N   0  0  0  0  0  0  0  0  0  0  0  0
   40.3530   25.6430   43.2850 C   0  0  0  0  0  0  0  0  0  0  0  0
   41.4830   26.0410   43.9740 C   0  0  0  0  0  0  0  0  0  0  0  0
   41.8960   25.4050   44.7390 H   0  0  0  0  0  0  0  0  0  0  0  0
   41.9920   27.2450   43.6110 N   0  0  0  0  0  0  0  0  0  0  0  0
   41.4470   28.0110   42.6500 C   0  0  0  0  0  0  0  0  0  0  0  0
   41.9880   28.9440   42.4930 H   0  0  0  0  0  0  0  0  0  0  0  0
   40.3340   27.6390   41.9590 N   0  0  0  0  0  0  0  0  0  0  0  0
   39.8110   26.4470   42.3020 C   0  0  0  0  0  0  0  0  0  0  0  0
   37.4050   28.3920   41.6980 N   0  0  0  0  0  0  0  0  0  0  0  0
   37.8780   29.2270   41.2660 H   0  0  0  0  0  0  0  0  0  0  0  0
   37.1790   28.3510   42.7320 H   0  0  0  0  0  0  0  0  0  0  0  0
  1 25  1  0  0  0  0
  2 23  1  0  0  0  0
  3  2  1  0  0  0  0
  3 11  1  0  0  0  0
  4  3  2  0  0  0  0
  5  6  2  0  0  0  0
  5  4  1  0  0  0  0
  6  7  1  0  0  0  0
  7  1  1  0  0  0  0
  7  2  2  0  0  0  0
  8  4  1  0  0  0  0
  9  5  1  0  0  0  0
 10  6  1  0  0  0  0
 11 18  1  0  0  0  0
 11 12  1  0  0  0  0
 13 11  1  0  0  0  0
 14 20  1  0  0  0  0
 15 14  1  0  0  0  0
 15 21  1  0  0  0  0
 16 15  2  0  0  0  0
 17 18  2  0  0  0  0
 17 16  1  0  0  0  0
 18 19  1  0  0  0  0
 19 14  2  0  0  0  0
 22 16  1  0  0  0  0
 23 24  1  0  0  0  0
 25 30  1  0  0  0  0
 26 27  1  0  0  0  0
 26 25  2  0  0  0  0
 27 28  2  0  0  0  0
 28 33  1  0  0  0  0
 28 29  1  0  0  0  0
 29 34  1  0  0  0  0
 30 29  2  0  0  0  0
 30 46  1  0  0  0  0
 31 26  1  0  0  0  0
 32 27  1  0  0  0  0
 34 45  1  0  0  0  0
 34 35  1  0  0  0  0
 35 37  2  0  0  0  0
 36 35  1  0  0  0  0
 38 37  1  0  0  0  0
 38 39  1  0  0  0  0
 39 40  1  0  0  0  0
 41 39  2  0  0  0  0
 42 41  1  0  0  0  0
 43 42  1  0  0  0  0
 44 45  1  0  0  0  0
 44 42  2  0  0  0  0
 45 38  2  0  0  0  0
 46 48  1  0  0  0  0
 47 46  1  0  0  0  0
M  END
>  <minimizedAffinity>
-6.92119884

$$$$

 OpenBabel03242522383D

 48 52  0  0  0  0  0  0  0  0999 V2000
   36.3960   29.4630   41.2970 O   0  0  0  0  0  0  0  0  0  0  0  0
   37.7900   28.1380   42.7110 C   0  0  0  0  0  0  0  0  0  0  0  0
   38.3220   26.9140   43.0260 C   0  0  0  0  0  0  0  0  0  0  0  0
   37.9780   25.8330   42.2350 C   0  0  0  0  0  0  0  0  0  0  0  0
   37.1280   25.9070   41.1410 C   0  0  0  0  0  0  0  0  0  0  0  0
   36.6020   27.1600   40.8430 C   0  0  0  0  0  0  0  0  0  0  0  0
   36.9380   28.2380   41.6230 C   0  0  0  0  0  0  0  0  0  0  0  0
   38.4090   24.8670   42.4960 H   0  0  0  0  0  0  0  0  0  0  0  0
   36.9180   25.0090   40.5820 H   0  0  0  0  0  0  0  0  0  0  0  0
   35.9510   27.1970   40.0000 H   0  0  0  0  0  0  0  0  0  0  0  0
   39.2380   26.7210   44.1690 C   0  0  0  0  0  0  0  0  0  0  0  0
   39.0200   25.7540   44.6410 H   0  0  0  0  0  0  0  0  0  0  0  0
   39.0700   27.5190   44.9320 H   0  0  0  0  0  0  0  0  0  0  0  0
   42.5330   28.0190   43.0830 C   0  0  0  0  0  0  0  0  0  0  0  0
   43.3030   26.8610   43.0570 C   0  0  0  0  0  0  0  0  0  0  0  0
   42.6890   25.6840   43.4050 C   0  0  0  0  0  0  0  0  0  0  0  0
   41.3900   25.6780   43.7550 N   0  0  0  0  0  0  0  0  0  0  0  0
   40.6620   26.8150   43.7720 C   0  0  0  0  0  0  0  0  0  0  0  0
   41.2450   27.9650   43.4360 N   0  0  0  0  0  0  0  0  0  0  0  0
   42.8810   29.0130   42.8350 H   0  0  0  0  0  0  0  0  0  0  0  0
   44.3320   26.9790   42.7630 H   0  0  0  0  0  0  0  0  0  0  0  0
   43.2870   24.7790   43.3860 H   0  0  0  0  0  0  0  0  0  0  0  0
   38.1030   29.2460   43.4710 O   0  0  0  0  0  0  0  0  0  0  0  0
   37.3260   29.7430   43.9220 H   0  0  0  0  0  0  0  0  0  0  0  0
   36.8630   30.0990   40.1610 C   0  0  0  0  0  0  0  0  0  0  0  0
   36.1710   29.8360   38.9820 C   0  0  0  0  0  0  0  0  0  0  0  0
   36.5850   30.4360   37.8180 C   0  0  0  0  0  0  0  0  0  0  0  0
   37.6760   31.2940   37.8040 C   0  0  0  0  0  0  0  0  0  0  0  0
   38.3490   31.5330   39.0170 C   0  0  0  0  0  0  0  0  0  0  0  0
   37.9420   30.9390   40.1800 C   0  0  0  0  0  0  0  0  0  0  0  0
   35.3210   29.1880   38.9040 H   0  0  0  0  0  0  0  0  0  0  0  0
   36.0920   30.2760   36.8640 H   0  0  0  0  0  0  0  0  0  0  0  0
   37.9920   31.7570   36.8910 H   0  0  0  0  0  0  0  0  0  0  0  0
   39.4580   32.4230   38.9260 N   0  0  0  0  0  0  0  0  0  0  0  0
   40.5780   32.0990   38.2150 C   0  0  0  0  0  0  0  0  0  0  0  0
   40.7830   31.1930   37.6570 H   0  0  0  0  0  0  0  0  0  0  0  0
   41.4890   33.0880   38.2730 N   0  0  0  0  0  0  0  0  0  0  0  0
   40.9670   34.0650   39.0220 C   0  0  0  0  0  0  0  0  0  0  0  0
   41.4540   35.2990   39.4090 C   0  0  0  0  0  0  0  0  0  0  0  0
   42.4330   35.6130   39.0900 H   0  0  0  0  0  0  0  0  0  0  0  0
   40.6210   36.0350   40.1880 N   0  0  0  0  0  0  0  0  0  0  0  0
   39.4030   35.6070   40.5650 C   0  0  0  0  0  0  0  0  0  0  0  0
   38.8750   36.3290   41.1890 H   0  0  0  0  0  0  0  0  0  0  0  0
   38.9040   34.3950   40.1950 N   0  0  0  0  0  0  0  0  0  0  0  0
   39.7130   33.6480   39.4220 C   0  0  0  0  0  0  0  0  0  0  0  0
   38.6320   31.1970   41.3730 N   0  0  0  0  0  0  0  0  0  0  0  0
   37.9990   31.7080   42.0390 H   0  0  0  0  0  0  0  0  0  0  0  0
   39.6300   30.9460   41.6300 H   0  0  0  0  0  0  0  0  0  0  0  0
  1  7  1  0  0  0  0
  2  3  1  0  0  0  0
  2 23  1  0  0  0  0
  3 11  1  0  0  0  0
  4  8  1  0  0  0  0
  4  3  2  0  0  0  0
  5  4  1  0  0  0  0
  6  5  2  0  0  0  0
  6  7  1  0  0  0  0
  7  2  2  0  0  0  0
  9  5  1  0  0  0  0
 10  6  1  0  0  0  0
 11 12  1  0  0  0  0
 11 13  1  0  0  0  0
 14 19  1  0  0  0  0
 15 14  2  0  0  0  0
 15 16  1  0  0  0  0
 16 17  2  0  0  0  0
 17 18  1  0  0  0  0
 18 11  1  0  0  0  0
 19 18  2  0  0  0  0
 20 14  1  0  0  0  0
 21 15  1  0  0  0  0
 22 16  1  0  0  0  0
 23 24  1  0  0  0  0
 25 30  1  0  0  0  0
 25  1  1  0  0  0  0
 26 25  2  0  0  0  0
 27 26  1  0  0  0  0
 28 27  2  0  0  0  0
 28 29  1  0  0  0  0
 29 30  2  0  0  0  0
 30 46  1  0  0  0  0
 31 26  1  0  0  0  0
 32 27  1  0  0  0  0
 33 28  1  0  0  0  0
 34 29  1  0  0  0  0
 34 45  1  0  0  0  0
 35 37  2  0  0  0  0
 35 34  1  0  0  0  0
 36 35  1  0  0  0  0
 37 38  1  0  0  0  0
 38 39  2  0  0  0  0
 38 45  1  0  0  0  0
 39 41  1  0  0  0  0
 40 39  1  0  0  0  0
 41 42  2  0  0  0  0
 42 43  1  0  0  0  0
 44 42  1  0  0  0  0
 45 44  2  0  0  0  0
 46 48  1  0  0  0  0
 46 47  1  0  0  0  0
M  END
>  <minimizedAffinity>
-6.91874599

$$$$

 OpenBabel03242522383D

 48 52  0  0  0  0  0  0  0  0999 V2000
   38.2650   32.8450   41.0800 O   0  0  0  0  0  0  0  0  0  0  0  0
   36.8380   31.0070   40.5450 C   0  0  0  0  0  0  0  0  0  0  0  0
   36.2610   30.2030   39.5950 C   0  0  0  0  0  0  0  0  0  0  0  0
   36.5500   30.4570   38.2660 C   0  0  0  0  0  0  0  0  0  0  0  0
   37.3880   31.4740   37.8310 C   0  0  0  0  0  0  0  0  0  0  0  0
   37.9600   32.2740   38.8150 C   0  0  0  0  0  0  0  0  0  0  0  0
   37.6790   32.0300   40.1350 C   0  0  0  0  0  0  0  0  0  0  0  0
   36.0850   29.8110   37.5230 H   0  0  0  0  0  0  0  0  0  0  0  0
   37.5550   31.5950   36.7730 H   0  0  0  0  0  0  0  0  0  0  0  0
   38.6010   33.0500   38.4610 H   0  0  0  0  0  0  0  0  0  0  0  0
   35.3530   29.0930   39.9450 C   0  0  0  0  0  0  0  0  0  0  0  0
   34.6470   28.9350   39.1200 H   0  0  0  0  0  0  0  0  0  0  0  0
   34.7610   29.3560   40.8560 H   0  0  0  0  0  0  0  0  0  0  0  0
   36.9730   25.7700   39.6960 C   0  0  0  0  0  0  0  0  0  0  0  0
   37.4560   25.5890   40.9870 C   0  0  0  0  0  0  0  0  0  0  0  0
   37.2210   26.5890   41.8980 C   0  0  0  0  0  0  0  0  0  0  0  0
   36.5470   27.6930   41.5290 N   0  0  0  0  0  0  0  0  0  0  0  0
   36.0860   27.8470   40.2690 C   0  0  0  0  0  0  0  0  0  0  0  0
   36.3070   26.8840   39.3740 N   0  0  0  0  0  0  0  0  0  0  0  0
   37.0830   25.0700   38.8780 H   0  0  0  0  0  0  0  0  0  0  0  0
   37.9820   24.6680   41.1760 H   0  0  0  0  0  0  0  0  0  0  0  0
   37.5970   26.4500   42.9060 H   0  0  0  0  0  0  0  0  0  0  0  0
   36.5790   30.7940   41.8830 O   0  0  0  0  0  0  0  0  0  0  0  0
   36.1590   31.5680   42.4110 H   0  0  0  0  0  0  0  0  0  0  0  0
   39.2530   33.7180   40.6630 C   0  0  0  0  0  0  0  0  0  0  0  0
   38.8440   35.0210   40.3910 C   0  0  0  0  0  0  0  0  0  0  0  0
   39.7770   35.9380   39.9720 C   0  0  0  0  0  0  0  0  0  0  0  0
   41.1100   35.5830   39.8170 C   0  0  0  0  0  0  0  0  0  0  0  0
   41.4820   34.2560   40.1020 C   0  0  0  0  0  0  0  0  0  0  0  0
   40.5580   33.3370   40.5200 C   0  0  0  0  0  0  0  0  0  0  0  0
   37.8380   35.3790   40.4830 H   0  0  0  0  0  0  0  0  0  0  0  0
   39.5290   36.9700   39.7430 H   0  0  0  0  0  0  0  0  0  0  0  0
   41.8300   36.3050   39.4890 H   0  0  0  0  0  0  0  0  0  0  0  0
   42.8640   33.9650   39.9210 N   0  0  0  0  0  0  0  0  0  0  0  0
   43.8140   34.4460   40.7770 C   0  0  0  0  0  0  0  0  0  0  0  0
   43.6780   35.0700   41.6520 H   0  0  0  0  0  0  0  0  0  0  0  0
   45.0440   34.0430   40.4080 N   0  0  0  0  0  0  0  0  0  0  0  0
   44.9040   33.2950   39.3080 C   0  0  0  0  0  0  0  0  0  0  0  0
   45.8190   32.6330   38.5130 C   0  0  0  0  0  0  0  0  0  0  0  0
   46.8680   32.6750   38.7530 H   0  0  0  0  0  0  0  0  0  0  0  0
   45.2940   31.9620   37.4560 N   0  0  0  0  0  0  0  0  0  0  0  0
   43.9770   31.9340   37.1880 C   0  0  0  0  0  0  0  0  0  0  0  0
   43.7370   31.3470   36.3020 H   0  0  0  0  0  0  0  0  0  0  0  0
   43.0580   32.5800   37.9590 N   0  0  0  0  0  0  0  0  0  0  0  0
   43.5560   33.2520   39.0130 C   0  0  0  0  0  0  0  0  0  0  0  0
   40.9580   32.0230   40.7960 N   0  0  0  0  0  0  0  0  0  0  0  0
   40.8290   31.8260   41.8210 H   0  0  0  0  0  0  0  0  0  0  0  0
   41.3390   31.2910   40.1300 H   0  0  0  0  0  0  0  0  0  0  0  0
  2 23  1  0  0  0  0
  3 11  1  0  0  0  0
  3  2  2  0  0  0  0
  4  3  1  0  0  0  0
  5  4  2  0  0  0  0
  5  6  1  0  0  0  0
  6  7  2  0  0  0  0
  7  2  1  0  0  0  0
  7  1  1  0  0  0  0
  8  4  1  0  0  0  0
  9  5  1  0  0  0  0
 10  6  1  0  0  0  0
 11 18  1  0  0  0  0
 11 13  1  0  0  0  0
 12 11  1  0  0  0  0
 14 15  1  0  0  0  0
 15 21  1  0  0  0  0
 15 16  2  0  0  0  0
 16 22  1  0  0  0  0
 17 16  1  0  0  0  0
 18 17  2  0  0  0  0
 19 14  2  0  0  0  0
 19 18  1  0  0  0  0
 20 14  1  0  0  0  0
 23 24  1  0  0  0  0
 25  1  1  0  0  0  0
 26 31  1  0  0  0  0
 26 25  2  0  0  0  0
 27 26  1  0  0  0  0
 28 27  2  0  0  0  0
 28 29  1  0  0  0  0
 29 30  2  0  0  0  0
 30 25  1  0  0  0  0
 30 46  1  0  0  0  0
 32 27  1  0  0  0  0
 33 28  1  0  0  0  0
 34 29  1  0  0  0  0
 34 35  1  0  0  0  0
 35 36  1  0  0  0  0
 37 35  2  0  0  0  0
 38 37  1  0  0  0  0
 39 40  1  0  0  0  0
 39 38  2  0  0  0  0
 41 39  1  0  0  0  0
 42 41  2  0  0  0  0
 42 44  1  0  0  0  0
 43 42  1  0  0  0  0
 44 45  2  0  0  0  0
 45 38  1  0  0  0  0
 45 34  1  0  0  0  0
 46 47  1  0  0  0  0
 48 46  1  0  0  0  0
M  END
>  <minimizedAffinity>
-6.84634209

$$$$

 OpenBabel03242522383D

 48 52  0  0  0  0  0  0  0  0999 V2000
   39.3710   29.7810   42.1680 O   0  0  0  0  0  0  0  0  0  0  0  0
   39.6740   31.9970   41.3330 C   0  0  0  0  0  0  0  0  0  0  0  0
   39.1780   33.0700   40.6380 C   0  0  0  0  0  0  0  0  0  0  0  0
   37.9040   32.9690   40.1080 C   0  0  0  0  0  0  0  0  0  0  0  0
   37.0940   31.8500   40.2330 C   0  0  0  0  0  0  0  0  0  0  0  0
   37.6210   30.7750   40.9430 C   0  0  0  0  0  0  0  0  0  0  0  0
   38.8830   30.8670   41.4720 C   0  0  0  0  0  0  0  0  0  0  0  0
   37.5230   33.8290   39.5590 H   0  0  0  0  0  0  0  0  0  0  0  0
   36.1130   31.8630   39.7860 H   0  0  0  0  0  0  0  0  0  0  0  0
   36.9840   29.9240   41.0290 H   0  0  0  0  0  0  0  0  0  0  0  0
   39.9540   34.3110   40.4420 C   0  0  0  0  0  0  0  0  0  0  0  0
   40.2090   34.7310   41.4240 H   0  0  0  0  0  0  0  0  0  0  0  0
   39.3360   35.0670   39.8980 H   0  0  0  0  0  0  0  0  0  0  0  0
   42.2300   33.5890   37.6100 C   0  0  0  0  0  0  0  0  0  0  0  0
   43.4790   33.7180   38.2060 C   0  0  0  0  0  0  0  0  0  0  0  0
   43.5150   34.0430   39.5390 C   0  0  0  0  0  0  0  0  0  0  0  0
   42.3690   34.2250   40.2200 N   0  0  0  0  0  0  0  0  0  0  0  0
   41.1670   34.0940   39.6200 C   0  0  0  0  0  0  0  0  0  0  0  0
   41.1170   33.7780   38.3260 N   0  0  0  0  0  0  0  0  0  0  0  0
   42.0490   33.3380   36.5730 H   0  0  0  0  0  0  0  0  0  0  0  0
   44.3310   33.5510   37.5690 H   0  0  0  0  0  0  0  0  0  0  0  0
   44.4880   34.1450   40.0070 H   0  0  0  0  0  0  0  0  0  0  0  0
   40.9390   32.0500   41.8800 O   0  0  0  0  0  0  0  0  0  0  0  0
   41.6160   31.3420   41.5710 H   0  0  0  0  0  0  0  0  0  0  0  0
   38.4940   28.7530   42.4650 C   0  0  0  0  0  0  0  0  0  0  0  0
   37.7420   28.9060   43.6270 C   0  0  0  0  0  0  0  0  0  0  0  0
   36.8520   27.9200   43.9790 C   0  0  0  0  0  0  0  0  0  0  0  0
   36.6960   26.7840   43.1970 C   0  0  0  0  0  0  0  0  0  0  0  0
   37.4750   26.6680   42.0300 C   0  0  0  0  0  0  0  0  0  0  0  0
   38.3630   27.6460   41.6730 C   0  0  0  0  0  0  0  0  0  0  0  0
   37.8000   29.7480   44.2870 H   0  0  0  0  0  0  0  0  0  0  0  0
   36.2350   27.9740   44.8700 H   0  0  0  0  0  0  0  0  0  0  0  0
   36.0000   26.0210   43.4800 H   0  0  0  0  0  0  0  0  0  0  0  0
   37.2620   25.4770   41.2780 N   0  0  0  0  0  0  0  0  0  0  0  0
   37.5850   24.2480   41.7790 C   0  0  0  0  0  0  0  0  0  0  0  0
   38.0180   24.0060   42.7420 H   0  0  0  0  0  0  0  0  0  0  0  0
   37.2970   23.2760   40.8940 N   0  0  0  0  0  0  0  0  0  0  0  0
   36.7810   23.8660   39.8100 C   0  0  0  0  0  0  0  0  0  0  0  0
   36.3160   23.3610   38.6110 C   0  0  0  0  0  0  0  0  0  0  0  0
   36.3350   22.2990   38.4330 H   0  0  0  0  0  0  0  0  0  0  0  0
   35.8570   24.2850   37.7300 N   0  0  0  0  0  0  0  0  0  0  0  0
   35.8490   25.6040   37.9900 C   0  0  0  0  0  0  0  0  0  0  0  0
   35.4460   26.1960   37.1680 H   0  0  0  0  0  0  0  0  0  0  0  0
   36.3030   26.1230   39.1640 N   0  0  0  0  0  0  0  0  0  0  0  0
   36.7630   25.2240   40.0540 C   0  0  0  0  0  0  0  0  0  0  0  0
   39.1250   27.5020   40.5060 N   0  0  0  0  0  0  0  0  0  0  0  0
   38.8490   28.2460   39.8150 H   0  0  0  0  0  0  0  0  0  0  0  0
   39.8740   26.7850   40.2860 H   0  0  0  0  0  0  0  0  0  0  0  0
  1 25  1  0  0  0  0
  2  7  1  0  0  0  0
  2 23  1  0  0  0  0
  3  2  2  0  0  0  0
  4  5  2  0  0  0  0
  4  3  1  0  0  0  0
  5  6  1  0  0  0  0
  6 10  1  0  0  0  0
  6  7  2  0  0  0  0
  7  1  1  0  0  0  0
  8  4  1  0  0  0  0
  9  5  1  0  0  0  0
 11  3  1  0  0  0  0
 11 12  1  0  0  0  0
 13 11  1  0  0  0  0
 14 15  2  0  0  0  0
 14 19  1  0  0  0  0
 15 16  1  0  0  0  0
 16 22  1  0  0  0  0
 16 17  2  0  0  0  0
 18 17  1  0  0  0  0
 18 11  1  0  0  0  0
 19 18  2  0  0  0  0
 20 14  1  0  0  0  0
 21 15  1  0  0  0  0
 24 23  1  0  0  0  0
 25 26  1  0  0  0  0
 26 27  2  0  0  0  0
 26 31  1  0  0  0  0
 27 32  1  0  0  0  0
 28 33  1  0  0  0  0
 28 27  1  0  0  0  0
 29 28  2  0  0  0  0
 30 29  1  0  0  0  0
 30 25  2  0  0  0  0
 34 35  1  0  0  0  0
 34 29  1  0  0  0  0
 35 36  1  0  0  0  0
 37 35  2  0  0  0  0
 38 45  1  0  0  0  0
 38 37  1  0  0  0  0
 39 38  2  0  0  0  0
 40 39  1  0  0  0  0
 41 42  2  0  0  0  0
 41 39  1  0  0  0  0
 42 44  1  0  0  0  0
 43 42  1  0  0  0  0
 44 45  2  0  0  0  0
 45 34  1  0  0  0  0
 46 30  1  0  0  0  0
 47 46  1  0  0  0  0
 48 46  1  0  0  0  0
M  END
>  <minimizedAffinity>
-6.82510996

$$$$

 OpenBabel03242522383D

 48 52  0  0  0  0  0  0  0  0999 V2000
   36.9290   31.7050   39.2540 O   0  0  0  0  0  0  0  0  0  0  0  0
   36.7850   29.8490   40.7480 C   0  0  0  0  0  0  0  0  0  0  0  0
   36.5440   28.5130   40.9460 C   0  0  0  0  0  0  0  0  0  0  0  0
   36.2150   27.7420   39.8450 C   0  0  0  0  0  0  0  0  0  0  0  0
   36.1140   28.2340   38.5520 C   0  0  0  0  0  0  0  0  0  0  0  0
   36.3630   29.5920   38.3790 C   0  0  0  0  0  0  0  0  0  0  0  0
   36.6900   30.3640   39.4650 C   0  0  0  0  0  0  0  0  0  0  0  0
   36.0270   26.6840   40.0170 H   0  0  0  0  0  0  0  0  0  0  0  0
   35.8520   27.5560   37.7550 H   0  0  0  0  0  0  0  0  0  0  0  0
   36.2800   29.9510   37.3780 H   0  0  0  0  0  0  0  0  0  0  0  0
   36.6230   27.8850   42.2800 C   0  0  0  0  0  0  0  0  0  0  0  0
   35.8810   27.0780   42.3390 H   0  0  0  0  0  0  0  0  0  0  0  0
   36.3760   28.6350   43.0710 H   0  0  0  0  0  0  0  0  0  0  0  0
   39.5160   25.6680   42.9410 C   0  0  0  0  0  0  0  0  0  0  0  0
   40.5370   26.5860   43.1630 C   0  0  0  0  0  0  0  0  0  0  0  0
   40.2180   27.9190   43.0820 C   0  0  0  0  0  0  0  0  0  0  0  0
   38.9590   28.2960   42.7980 N   0  0  0  0  0  0  0  0  0  0  0  0
   37.9840   27.3860   42.5870 C   0  0  0  0  0  0  0  0  0  0  0  0
   38.2790   26.0880   42.6620 N   0  0  0  0  0  0  0  0  0  0  0  0
   39.6200   24.5910   42.9720 H   0  0  0  0  0  0  0  0  0  0  0  0
   41.5080   26.1760   43.3820 H   0  0  0  0  0  0  0  0  0  0  0  0
   41.0120   28.6370   43.2540 H   0  0  0  0  0  0  0  0  0  0  0  0
   37.1150   30.6590   41.8150 O   0  0  0  0  0  0  0  0  0  0  0  0
   36.5000   31.4580   42.0090 H   0  0  0  0  0  0  0  0  0  0  0  0
   38.2240   32.0970   38.9670 C   0  0  0  0  0  0  0  0  0  0  0  0
   38.7610   31.6140   37.7770 C   0  0  0  0  0  0  0  0  0  0  0  0
   40.0440   31.9670   37.4340 C   0  0  0  0  0  0  0  0  0  0  0  0
   40.8030   32.7910   38.2540 C   0  0  0  0  0  0  0  0  0  0  0  0
   40.2230   33.2580   39.4480 C   0  0  0  0  0  0  0  0  0  0  0  0
   38.9450   32.9110   39.7960 C   0  0  0  0  0  0  0  0  0  0  0  0
   38.2470   30.9750   37.0890 H   0  0  0  0  0  0  0  0  0  0  0  0
   40.5250   31.6270   36.5230 H   0  0  0  0  0  0  0  0  0  0  0  0
   41.8030   33.0600   37.9780 H   0  0  0  0  0  0  0  0  0  0  0  0
   41.0600   34.0980   40.2370 N   0  0  0  0  0  0  0  0  0  0  0  0
   40.8800   35.4520   40.2760 C   0  0  0  0  0  0  0  0  0  0  0  0
   40.1380   36.0480   39.7580 H   0  0  0  0  0  0  0  0  0  0  0  0
   41.7850   36.0350   41.0850 N   0  0  0  0  0  0  0  0  0  0  0  0
   42.5600   35.0630   41.5790 C   0  0  0  0  0  0  0  0  0  0  0  0
   43.6330   35.0850   42.4480 C   0  0  0  0  0  0  0  0  0  0  0  0
   43.9770   36.0220   42.8530 H   0  0  0  0  0  0  0  0  0  0  0  0
   44.1810   33.8740   42.7260 N   0  0  0  0  0  0  0  0  0  0  0  0
   43.7220   32.7250   42.2000 C   0  0  0  0  0  0  0  0  0  0  0  0
   44.2830   31.8520   42.5340 H   0  0  0  0  0  0  0  0  0  0  0  0
   42.6660   32.6820   41.3410 N   0  0  0  0  0  0  0  0  0  0  0  0
   42.1070   33.8710   41.0510 C   0  0  0  0  0  0  0  0  0  0  0  0
   38.3950   33.3910   40.9920 N   0  0  0  0  0  0  0  0  0  0  0  0
   37.5900   34.0320   40.7730 H   0  0  0  0  0  0  0  0  0  0  0  0
   38.6900   33.1840   41.9890 H   0  0  0  0  0  0  0  0  0  0  0  0
  1  7  1  0  0  0  0
  2  3  1  0  0  0  0
  2 23  1  0  0  0  0
  3 11  1  0  0  0  0
  4  8  1  0  0  0  0
  4  3  2  0  0  0  0
  5  4  1  0  0  0  0
  6  5  2  0  0  0  0
  6  7  1  0  0  0  0
  7  2  2  0  0  0  0
  9  5  1  0  0  0  0
 10  6  1  0  0  0  0
 11 12  1  0  0  0  0
 11 18  1  0  0  0  0
 11 13  1  0  0  0  0
 14 20  1  0  0  0  0
 14 15  1  0  0  0  0
 15 21  1  0  0  0  0
 16 15  2  0  0  0  0
 16 22  1  0  0  0  0
 17 16  1  0  0  0  0
 18 19  1  0  0  0  0
 18 17  2  0  0  0  0
 19 14  2  0  0  0  0
 23 24  1  0  0  0  0
 25  1  1  0  0  0  0
 25 30  1  0  0  0  0
 26 25  2  0  0  0  0
 27 26  1  0  0  0  0
 27 28  2  0  0  0  0
 28 29  1  0  0  0  0
 29 30  2  0  0  0  0
 29 34  1  0  0  0  0
 30 46  1  0  0  0  0
 31 26  1  0  0  0  0
 32 27  1  0  0  0  0
 33 28  1  0  0  0  0
 34 35  1  0  0  0  0
 34 45  1  0  0  0  0
 35 37  2  0  0  0  0
 36 35  1  0  0  0  0
 37 38  1  0  0  0  0
 38 39  1  0  0  0  0
 39 41  2  0  0  0  0
 39 40  1  0  0  0  0
 42 43  1  0  0  0  0
 42 41  1  0  0  0  0
 44 42  2  0  0  0  0
 45 44  1  0  0  0  0
 45 38  2  0  0  0  0
 46 48  1  0  0  0  0
 47 46  1  0  0  0  0
M  END
>  <minimizedAffinity>
-6.79011393

$$$$
