
 OpenBabel03252502003D

 37 41  0  0  0  0  0  0  0  0999 V2000
   47.3530   32.3760   48.0050 C   0  0  0  0  0  0  0  0  0  0  0  0
   46.8910   31.0810   48.0960 C   0  0  0  0  0  0  0  0  0  0  0  0
   46.0200   30.6850   47.1240 C   0  0  0  0  0  0  0  0  0  0  0  0
   45.6540   31.5300   46.1490 N   0  0  0  0  0  0  0  0  0  0  0  0
   46.1070   32.7840   46.0690 C   0  0  0  0  0  0  0  0  0  0  0  0
   46.9540   33.1680   47.0140 N   0  0  0  0  0  0  0  0  0  0  0  0
   48.0550   32.6920   48.7890 H   0  0  0  0  0  0  0  0  0  0  0  0
   45.4820   29.3980   47.1070 N   0  0  0  0  0  0  0  0  0  0  0  0
   45.0880   28.6020   48.1170 C   0  0  0  0  0  0  0  0  0  0  0  0
   45.1310   28.8620   49.1670 H   0  0  0  0  0  0  0  0  0  0  0  0
   44.6290   27.4330   47.6300 N   0  0  0  0  0  0  0  0  0  0  0  0
   44.7230   27.4590   46.2890 C   0  0  0  0  0  0  0  0  0  0  0  0
   44.3960   26.5330   45.3190 C   0  0  0  0  0  0  0  0  0  0  0  0
   43.9770   25.5770   45.6230 H   0  0  0  0  0  0  0  0  0  0  0  0
   44.6240   26.8890   44.0420 N   0  0  0  0  0  0  0  0  0  0  0  0
   45.1470   28.0890   43.7030 C   0  0  0  0  0  0  0  0  0  0  0  0
   45.3080   28.3180   42.6450 H   0  0  0  0  0  0  0  0  0  0  0  0
   45.4540   28.9680   44.6610 N   0  0  0  0  0  0  0  0  0  0  0  0
   45.2500   28.6730   45.9720 C   0  0  0  0  0  0  0  0  0  0  0  0
   45.8450   33.8620   45.1060 C   0  0  0  0  0  0  0  0  0  0  0  0
   44.8850   34.8000   45.2760 N   0  0  0  0  0  0  0  0  0  0  0  0
   44.6150   35.7900   44.4290 C   0  0  0  0  0  0  0  0  0  0  0  0
   45.3340   35.9070   43.2930 N   0  0  0  0  0  0  0  0  0  0  0  0
   46.3200   35.0330   43.0070 C   0  0  0  0  0  0  0  0  0  0  0  0
   47.0540   35.1590   41.8400 C   0  0  0  0  0  0  0  0  0  0  0  0
   48.0580   34.2760   41.5460 C   0  0  0  0  0  0  0  0  0  0  0  0
   48.3050   33.2670   42.4480 C   0  0  0  0  0  0  0  0  0  0  0  0
   47.5560   33.1750   43.5920 C   0  0  0  0  0  0  0  0  0  0  0  0
   46.5410   34.0320   43.9350 C   0  0  0  0  0  0  0  0  0  0  0  0
   43.8210   36.4860   44.6660 H   0  0  0  0  0  0  0  0  0  0  0  0
   46.8390   35.9640   41.1470 H   0  0  0  0  0  0  0  0  0  0  0  0
   48.6610   34.3280   40.6510 H   0  0  0  0  0  0  0  0  0  0  0  0
   49.0850   32.5420   42.2640 H   0  0  0  0  0  0  0  0  0  0  0  0
   47.7900   32.3550   44.2780 H   0  0  0  0  0  0  0  0  0  0  0  0
   47.3110   30.2390   49.1420 N   0  0  0  0  0  0  0  0  0  0  0  0
   46.7640   30.1250   50.0220 H   0  0  0  0  0  0  0  0  0  0  0  0
   48.1780   29.6420   49.1890 H   0  0  0  0  0  0  0  0  0  0  0  0
  1  2  1  0  0  0  0
  1  7  1  0  0  0  0
  2 35  1  0  0  0  0
  3  2  2  0  0  0  0
  4  3  1  0  0  0  0
  5  4  2  0  0  0  0
  5  6  1  0  0  0  0
  6  1  2  0  0  0  0
  8  3  1  0  0  0  0
  8  9  1  0  0  0  0
  9 10  1  0  0  0  0
 11  9  2  0  0  0  0
 12 11  1  0  0  0  0
 13 14  1  0  0  0  0
 13 12  2  0  0  0  0
 15 13  1  0  0  0  0
 16 15  2  0  0  0  0
 16 18  1  0  0  0  0
 17 16  1  0  0  0  0
 18 19  2  0  0  0  0
 19 12  1  0  0  0  0
 19  8  1  0  0  0  0
 20 21  1  0  0  0  0
 20  5  1  0  0  0  0
 22 30  1  0  0  0  0
 22 21  2  0  0  0  0
 23 22  1  0  0  0  0
 24 23  2  0  0  0  0
 24 29  1  0  0  0  0
 25 24  1  0  0  0  0
 26 25  2  0  0  0  0
 26 27  1  0  0  0  0
 27 28  2  0  0  0  0
 28 29  1  0  0  0  0
 28 34  1  0  0  0  0
 29 20  2  0  0  0  0
 31 25  1  0  0  0  0
 32 26  1  0  0  0  0
 33 27  1  0  0  0  0
 35 37  1  0  0  0  0
 35 36  1  0  0  0  0
M  END
>  <minimizedAffinity>
-6.51264906

>  <minimizedRMSD>
0.456525415

$$$$
