
 OpenBabel03252503183D

 42 46  0  0  0  0  0  0  0  0999 V2000
   44.5420   34.4720   42.1350 C   0  0  0  0  0  0  0  0  0  0  0  0
   43.8400   33.2980   42.1650 C   0  0  0  0  0  0  0  0  0  0  0  0
   43.4450   33.0710   40.8930 N   0  0  0  0  0  0  0  0  0  0  0  0
   43.8870   34.0620   40.1250 C   0  0  0  0  0  0  0  0  0  0  0  0
   44.5690   34.9370   40.8820 N   0  0  0  0  0  0  0  0  0  0  0  0
   43.7350   34.2790   38.7280 N   0  0  0  0  0  0  0  0  0  0  0  0
   43.6390   32.6770   43.0220 H   0  0  0  0  0  0  0  0  0  0  0  0
   43.9830   33.4380   38.1280 H   0  0  0  0  0  0  0  0  0  0  0  0
   43.4030   35.2140   38.4030 H   0  0  0  0  0  0  0  0  0  0  0  0
   42.6740   31.9640   40.3820 C   0  0  0  0  0  0  0  0  0  0  0  0
   42.9480   31.0100   40.8840 H   0  0  0  0  0  0  0  0  0  0  0  0
   42.8590   31.8200   39.3070 H   0  0  0  0  0  0  0  0  0  0  0  0
   41.2820   32.2700   40.6650 N   0  0  0  0  0  0  0  0  0  0  0  0
   40.4950   32.0040   41.7250 C   0  0  0  0  0  0  0  0  0  0  0  0
   40.9390   31.4610   42.5490 H   0  0  0  0  0  0  0  0  0  0  0  0
   39.2590   32.4960   41.5240 N   0  0  0  0  0  0  0  0  0  0  0  0
   39.2170   33.0970   40.3180 C   0  0  0  0  0  0  0  0  0  0  0  0
   38.2060   33.7510   39.6400 C   0  0  0  0  0  0  0  0  0  0  0  0
   37.2250   33.8430   40.0920 H   0  0  0  0  0  0  0  0  0  0  0  0
   38.5040   34.2560   38.4090 N   0  0  0  0  0  0  0  0  0  0  0  0
   39.7620   34.0970   37.9100 C   0  0  0  0  0  0  0  0  0  0  0  0
   39.9500   34.5220   36.9140 H   0  0  0  0  0  0  0  0  0  0  0  0
   40.7610   33.4660   38.5520 N   0  0  0  0  0  0  0  0  0  0  0  0
   40.4930   32.9510   39.7840 C   0  0  0  0  0  0  0  0  0  0  0  0
   45.1950   35.1670   43.2860 C   0  0  0  0  0  0  0  0  0  0  0  0
   45.4000   36.4140   43.3660 O   0  0  0  0  0  0  0  0  0  0  0  0
   44.9030   34.4030   45.6070 C   0  0  0  0  0  0  0  0  0  0  0  0
   45.6390   34.4100   44.4040 C   0  0  0  0  0  0  0  0  0  0  0  0
   46.7870   33.6270   44.4490 C   0  0  0  0  0  0  0  0  0  0  0  0
   47.1630   32.9360   45.5160 N   0  0  0  0  0  0  0  0  0  0  0  0
   46.4030   32.9750   46.6500 C   0  0  0  0  0  0  0  0  0  0  0  0
   45.2860   33.7050   46.6810 N   0  0  0  0  0  0  0  0  0  0  0  0
   43.9910   35.0120   45.6040 H   0  0  0  0  0  0  0  0  0  0  0  0
   46.6740   32.4300   47.5330 H   0  0  0  0  0  0  0  0  0  0  0  0
   47.6000   33.5740   43.2760 C   0  0  0  0  0  0  0  0  0  0  0  0
   48.5320   34.3670   42.6930 C   0  0  0  0  0  0  0  0  0  0  0  0
   49.1470   34.0640   41.5730 C   0  0  0  0  0  0  0  0  0  0  0  0
   48.7920   32.8960   41.0210 C   0  0  0  0  0  0  0  0  0  0  0  0
   47.5390   32.2010   42.1340 S   0  0  0  0  0  0  0  0  0  0  0  0
   48.7150   35.2970   43.2700 H   0  0  0  0  0  0  0  0  0  0  0  0
   49.8960   34.6670   41.0750 H   0  0  0  0  0  0  0  0  0  0  0  0
   49.1980   32.4130   40.0290 H   0  0  0  0  0  0  0  0  0  0  0  0
  1  2  2  0  0  0  0
  1 25  1  0  0  0  0
  2  7  1  0  0  0  0
  3  2  1  0  0  0  0
  4  5  2  0  0  0  0
  4  3  1  0  0  0  0
  5  1  1  0  0  0  0
  6  4  1  0  0  0  0
  8  6  1  0  0  0  0
  9  6  1  0  0  0  0
 10 13  1  0  0  0  0
 10 11  1  0  0  0  0
 10  3  1  0  0  0  0
 12 10  1  0  0  0  0
 13 14  1  0  0  0  0
 14 15  1  0  0  0  0
 16 14  2  0  0  0  0
 17 16  1  0  0  0  0
 18 19  1  0  0  0  0
 18 17  2  0  0  0  0
 20 18  1  0  0  0  0
 21 20  2  0  0  0  0
 21 23  1  0  0  0  0
 22 21  1  0  0  0  0
 23 24  2  0  0  0  0
 24 17  1  0  0  0  0
 24 13  1  0  0  0  0
 25 26  2  0  0  0  0
 25 28  1  0  0  0  0
 27 32  1  0  0  0  0
 28 29  1  0  0  0  0
 28 27  2  0  0  0  0
 29 30  2  0  0  0  0
 30 31  1  0  0  0  0
 31 32  2  0  0  0  0
 31 34  1  0  0  0  0
 33 27  1  0  0  0  0
 35 29  1  0  0  0  0
 36 40  1  0  0  0  0
 36 35  2  0  0  0  0
 37 36  1  0  0  0  0
 38 37  2  0  0  0  0
 38 39  1  0  0  0  0
 39 35  1  0  0  0  0
 41 37  1  0  0  0  0
 42 38  1  0  0  0  0
M  END
>  <minimizedAffinity>
-5.9644022

>  <minimizedRMSD>
3.73263288

$$$$
