
 OpenBabel03252508293D

 42 46  0  0  1  0  0  0  0  0999 V2000
   41.9300   33.2360   39.8710 N   0  0  0  0  0  0  0  0  0  0  0  0
   41.7470   34.1900   40.9710 C   0  0  2  0  0  0  0  0  0  0  0  0
   41.4610   35.5680   40.4890 C   0  0  0  0  0  0  0  0  0  0  0  0
   41.1460   35.6070   39.0730 N   0  0  0  0  0  0  0  0  0  0  0  0
   42.0770   34.9430   38.2380 C   0  0  0  0  0  0  0  0  0  0  0  0
   42.8930   33.9090   38.9680 C   0  0  2  0  0  0  0  0  0  0  0  0
   41.0020   33.1730   39.3740 H   0  0  0  0  0  0  0  0  0  0  0  0
   40.9410   33.8320   41.6290 H   0  0  0  0  0  0  0  0  0  0  0  0
   42.2960   36.2900   40.5300 H   0  0  0  0  0  0  0  0  0  0  0  0
   40.5580   36.0220   40.9920 H   0  0  0  0  0  0  0  0  0  0  0  0
   41.0600   36.6010   38.7830 H   0  0  0  0  0  0  0  0  0  0  0  0
   42.7130   35.6100   37.6470 H   0  0  0  0  0  0  0  0  0  0  0  0
   41.4780   34.3670   37.4740 H   0  0  0  0  0  0  0  0  0  0  0  0
   43.6100   34.4830   39.5990 H   0  0  0  0  0  0  0  0  0  0  0  0
   43.5630   32.9860   38.1170 N   0  0  0  0  0  0  0  0  0  0  0  0
   44.8900   33.0600   37.8070 C   0  0  0  0  0  0  0  0  0  0  0  0
   45.5730   33.8390   38.1810 H   0  0  0  0  0  0  0  0  0  0  0  0
   45.2600   32.0740   36.9930 N   0  0  0  0  0  0  0  0  0  0  0  0
   44.1460   31.3400   36.7700 C   0  0  0  0  0  0  0  0  0  0  0  0
   43.9510   30.2070   36.0050 C   0  0  0  0  0  0  0  0  0  0  0  0
   44.8050   29.8060   35.4810 H   0  0  0  0  0  0  0  0  0  0  0  0
   42.7120   29.6790   35.9640 N   0  0  0  0  0  0  0  0  0  0  0  0
   41.6740   30.2370   36.6520 C   0  0  0  0  0  0  0  0  0  0  0  0
   40.7290   29.7250   36.5420 H   0  0  0  0  0  0  0  0  0  0  0  0
   41.8820   31.3570   37.4030 N   0  0  0  0  0  0  0  0  0  0  0  0
   43.0940   31.9240   37.4790 C   0  0  0  0  0  0  0  0  0  0  0  0
   44.7570   33.6330   42.8880 C   0  0  0  0  0  0  0  0  0  0  0  0
   44.7000   35.0200   42.7420 C   0  0  0  0  0  0  0  0  0  0  0  0
   43.5730   35.3750   42.0220 C   0  0  0  0  0  0  0  0  0  0  0  0
   42.9780   34.2160   41.7480 N   0  0  0  0  0  0  0  0  0  0  0  0
   43.6660   33.2010   42.2530 N   0  0  0  0  0  0  0  0  0  0  0  0
   45.5150   35.6210   43.1930 H   0  0  0  0  0  0  0  0  0  0  0  0
   43.5260   36.4530   41.9160 H   0  0  0  0  0  0  0  0  0  0  0  0
   47.7650   31.5740   43.8010 C   0  0  0  0  0  0  0  0  0  0  0  0
   46.8190   32.2370   42.9610 C   0  0  0  0  0  0  0  0  0  0  0  0
   45.8020   32.9010   43.6050 C   0  0  0  0  0  0  0  0  0  0  0  0
   45.7370   32.9020   44.9690 N   0  0  0  0  0  0  0  0  0  0  0  0
   46.6590   32.2580   45.7240 C   0  0  0  0  0  0  0  0  0  0  0  0
   47.6530   31.6080   45.1220 N   0  0  0  0  0  0  0  0  0  0  0  0
   48.5440   31.0670   43.2090 H   0  0  0  0  0  0  0  0  0  0  0  0
   46.8720   32.2350   41.8820 H   0  0  0  0  0  0  0  0  0  0  0  0
   46.5530   32.2960   46.7910 H   0  0  0  0  0  0  0  0  0  0  0  0
  1  2  1  0  0  0  0
  2  8  1  1  0  0  0
  2 30  1  0  0  0  0
  3  9  1  0  0  0  0
  3  2  1  0  0  0  0
  3 10  1  0  0  0  0
  4  3  1  0  0  0  0
  5  6  1  0  0  0  0
  5  4  1  0  0  0  0
  6 14  1  1  0  0  0
  6  1  1  0  0  0  0
  7  1  1  0  0  0  0
 11  4  1  0  0  0  0
 12  5  1  0  0  0  0
 13  5  1  0  0  0  0
 15  6  1  0  0  0  0
 16 15  1  0  0  0  0
 16 17  1  0  0  0  0
 18 16  2  0  0  0  0
 19 18  1  0  0  0  0
 19 26  1  0  0  0  0
 20 19  2  0  0  0  0
 21 20  1  0  0  0  0
 22 20  1  0  0  0  0
 22 23  2  0  0  0  0
 23 25  1  0  0  0  0
 24 23  1  0  0  0  0
 25 26  2  0  0  0  0
 26 15  1  0  0  0  0
 27 36  1  0  0  0  0
 28 27  1  0  0  0  0
 28 32  1  0  0  0  0
 29 28  2  0  0  0  0
 30 29  1  0  0  0  0
 30 31  1  0  0  0  0
 31 27  2  0  0  0  0
 33 29  1  0  0  0  0
 34 39  1  0  0  0  0
 35 36  1  0  0  0  0
 35 34  2  0  0  0  0
 36 37  2  0  0  0  0
 37 38  1  0  0  0  0
 38 42  1  0  0  0  0
 39 38  2  0  0  0  0
 40 34  1  0  0  0  0
 41 35  1  0  0  0  0
M  END
>  <minimizedAffinity>
-4.50655842

>  <minimizedRMSD>
2.92438245

$$$$
