
 OpenBabel03242516013D

 31 34  0  0  0  0  0  0  0  0999 V2000
   39.0730   27.9990   39.7570 Cl  0  0  0  0  0  0  0  0  0  0  0  0
   38.2350   27.8530   41.2700 C   0  0  0  0  0  0  0  0  0  0  0  0
   37.5800   26.7140   41.6030 C   0  0  0  0  0  0  0  0  0  0  0  0
   36.9450   26.7040   42.8310 C   0  0  0  0  0  0  0  0  0  0  0  0
   36.9610   27.7700   43.6800 C   0  0  0  0  0  0  0  0  0  0  0  0
   37.6220   28.9110   43.3380 C   0  0  0  0  0  0  0  0  0  0  0  0
   38.2650   28.9460   42.1150 C   0  0  0  0  0  0  0  0  0  0  0  0
   36.4110   25.8100   43.1310 H   0  0  0  0  0  0  0  0  0  0  0  0
   36.4380   27.6890   44.6300 H   0  0  0  0  0  0  0  0  0  0  0  0
   37.6240   29.7480   44.0250 H   0  0  0  0  0  0  0  0  0  0  0  0
   38.9430   30.1590   41.7970 N   0  0  0  0  0  0  0  0  0  0  0  0
   40.2160   30.3460   42.2010 C   0  0  0  0  0  0  0  0  0  0  0  0
   40.9570   29.7620   42.7680 H   0  0  0  0  0  0  0  0  0  0  0  0
   40.6780   31.5490   41.8030 N   0  0  0  0  0  0  0  0  0  0  0  0
   39.6820   32.1560   41.1270 C   0  0  0  0  0  0  0  0  0  0  0  0
   39.5210   33.3710   40.4810 C   0  0  0  0  0  0  0  0  0  0  0  0
   40.3900   34.0090   40.5130 H   0  0  0  0  0  0  0  0  0  0  0  0
   38.3330   33.6600   39.8840 N   0  0  0  0  0  0  0  0  0  0  0  0
   37.3240   32.7470   39.9300 C   0  0  0  0  0  0  0  0  0  0  0  0
   36.4580   33.1200   39.4160 H   0  0  0  0  0  0  0  0  0  0  0  0
   37.4300   31.5360   40.5510 N   0  0  0  0  0  0  0  0  0  0  0  0
   38.6150   31.2820   41.1320 C   0  0  0  0  0  0  0  0  0  0  0  0
   36.5980   24.3260   38.8330 C   0  0  0  0  0  0  0  0  0  0  0  0
   36.5750   25.4140   39.7200 C   0  0  0  0  0  0  0  0  0  0  0  0
   37.5830   25.6000   40.6760 C   0  0  0  0  0  0  0  0  0  0  0  0
   38.5530   24.6680   40.6730 N   0  0  0  0  0  0  0  0  0  0  0  0
   38.5720   23.6320   39.8240 C   0  0  0  0  0  0  0  0  0  0  0  0
   37.5980   23.4550   38.9030 N   0  0  0  0  0  0  0  0  0  0  0  0
   35.8150   24.1940   38.1000 H   0  0  0  0  0  0  0  0  0  0  0  0
   35.7550   26.1280   39.6640 H   0  0  0  0  0  0  0  0  0  0  0  0
   39.4080   22.9460   39.9170 H   0  0  0  0  0  0  0  0  0  0  0  0
  1  2  1  0  0  0  0
  2  3  2  0  0  0  0
  2  7  1  0  0  0  0
  3  4  1  0  0  0  0
  4  8  1  0  0  0  0
  4  5  2  0  0  0  0
  5  9  1  0  0  0  0
  6  5  1  0  0  0  0
  6 10  1  0  0  0  0
  7  6  2  0  0  0  0
 11  7  1  0  0  0  0
 11 12  1  0  0  0  0
 12 13  1  0  0  0  0
 14 12  2  0  0  0  0
 15 22  1  0  0  0  0
 15 14  1  0  0  0  0
 16 17  1  0  0  0  0
 16 15  2  0  0  0  0
 18 19  2  0  0  0  0
 18 16  1  0  0  0  0
 19 21  1  0  0  0  0
 20 19  1  0  0  0  0
 21 22  2  0  0  0  0
 22 11  1  0  0  0  0
 23 28  2  0  0  0  0
 23 24  1  0  0  0  0
 24 25  2  0  0  0  0
 25  3  1  0  0  0  0
 26 25  1  0  0  0  0
 27 31  1  0  0  0  0
 27 26  2  0  0  0  0
 28 27  1  0  0  0  0
 29 23  1  0  0  0  0
 30 24  1  0  0  0  0
M  END
>  <minimizedAffinity>
-5.52788401

$$$$

 OpenBabel03242516013D

 31 34  0  0  0  0  0  0  0  0999 V2000
   38.0010   28.1140   39.3050 Cl  0  0  0  0  0  0  0  0  0  0  0  0
   37.6860   27.9260   41.0010 C   0  0  0  0  0  0  0  0  0  0  0  0
   37.5550   26.6970   41.5600 C   0  0  0  0  0  0  0  0  0  0  0  0
   37.3060   26.6610   42.9200 C   0  0  0  0  0  0  0  0  0  0  0  0
   37.1910   27.7860   43.6800 C   0  0  0  0  0  0  0  0  0  0  0  0
   37.3240   29.0170   43.1110 C   0  0  0  0  0  0  0  0  0  0  0  0
   37.5740   29.0790   41.7540 C   0  0  0  0  0  0  0  0  0  0  0  0
   37.1960   25.6960   43.4000 H   0  0  0  0  0  0  0  0  0  0  0  0
   36.9930   27.6790   44.7440 H   0  0  0  0  0  0  0  0  0  0  0  0
   37.2300   29.8990   43.7310 H   0  0  0  0  0  0  0  0  0  0  0  0
   37.7050   30.3870   41.2000 N   0  0  0  0  0  0  0  0  0  0  0  0
   36.6190   31.0260   40.7160 C   0  0  0  0  0  0  0  0  0  0  0  0
   35.5480   30.7960   40.6210 H   0  0  0  0  0  0  0  0  0  0  0  0
   36.9490   32.2440   40.2380 N   0  0  0  0  0  0  0  0  0  0  0  0
   38.2760   32.3960   40.4140 C   0  0  0  0  0  0  0  0  0  0  0  0
   39.2020   33.3910   40.1450 C   0  0  0  0  0  0  0  0  0  0  0  0
   38.7860   34.2700   39.6790 H   0  0  0  0  0  0  0  0  0  0  0  0
   40.5090   33.1970   40.4700 N   0  0  0  0  0  0  0  0  0  0  0  0
   40.8820   32.0260   41.0580 C   0  0  0  0  0  0  0  0  0  0  0  0
   41.9380   32.0260   41.2520 H   0  0  0  0  0  0  0  0  0  0  0  0
   40.0120   31.0150   41.3450 N   0  0  0  0  0  0  0  0  0  0  0  0
   38.7290   31.2380   41.0100 C   0  0  0  0  0  0  0  0  0  0  0  0
   36.7230   23.7480   39.3360 C   0  0  0  0  0  0  0  0  0  0  0  0
   36.5750   24.8860   40.1450 C   0  0  0  0  0  0  0  0  0  0  0  0
   37.6830   25.5220   40.7220 C   0  0  0  0  0  0  0  0  0  0  0  0
   38.8740   24.9630   40.4420 N   0  0  0  0  0  0  0  0  0  0  0  0
   39.0100   23.8770   39.6690 C   0  0  0  0  0  0  0  0  0  0  0  0
   37.9400   23.2650   39.1140 N   0  0  0  0  0  0  0  0  0  0  0  0
   35.8600   23.2670   38.8960 H   0  0  0  0  0  0  0  0  0  0  0  0
   35.5770   25.2830   40.3270 H   0  0  0  0  0  0  0  0  0  0  0  0
   40.0220   23.5170   39.5150 H   0  0  0  0  0  0  0  0  0  0  0  0
  1  2  1  0  0  0  0
  2  3  2  0  0  0  0
  2  7  1  0  0  0  0
  3  4  1  0  0  0  0
  4  8  1  0  0  0  0
  4  5  2  0  0  0  0
  5  9  1  0  0  0  0
  6  5  1  0  0  0  0
  6 10  1  0  0  0  0
  7  6  2  0  0  0  0
 11  7  1  0  0  0  0
 12 11  1  0  0  0  0
 13 12  1  0  0  0  0
 14 15  1  0  0  0  0
 14 12  2  0  0  0  0
 15 22  1  0  0  0  0
 16 15  2  0  0  0  0
 16 18  1  0  0  0  0
 17 16  1  0  0  0  0
 18 19  2  0  0  0  0
 19 20  1  0  0  0  0
 19 21  1  0  0  0  0
 22 11  1  0  0  0  0
 22 21  2  0  0  0  0
 23 24  1  0  0  0  0
 24 30  1  0  0  0  0
 24 25  2  0  0  0  0
 25  3  1  0  0  0  0
 26 25  1  0  0  0  0
 27 26  2  0  0  0  0
 28 23  2  0  0  0  0
 28 27  1  0  0  0  0
 29 23  1  0  0  0  0
 31 27  1  0  0  0  0
M  END
>  <minimizedAffinity>
-5.44289541

$$$$

 OpenBabel03242516013D

 31 34  0  0  0  0  0  0  0  0999 V2000
   40.7160   30.4470   39.7170 Cl  0  0  0  0  0  0  0  0  0  0  0  0
   39.4820   31.6650   39.7640 C   0  0  0  0  0  0  0  0  0  0  0  0
   39.7740   32.9710   39.5440 C   0  0  0  0  0  0  0  0  0  0  0  0
   38.7160   33.8590   39.6050 C   0  0  0  0  0  0  0  0  0  0  0  0
   37.4380   33.4680   39.8720 C   0  0  0  0  0  0  0  0  0  0  0  0
   37.1520   32.1550   40.0920 C   0  0  0  0  0  0  0  0  0  0  0  0
   38.1920   31.2480   40.0360 C   0  0  0  0  0  0  0  0  0  0  0  0
   38.9120   34.9110   39.4330 H   0  0  0  0  0  0  0  0  0  0  0  0
   36.6570   34.2250   39.9040 H   0  0  0  0  0  0  0  0  0  0  0  0
   36.1310   31.8630   40.3020 H   0  0  0  0  0  0  0  0  0  0  0  0
   37.8490   29.8830   40.2740 N   0  0  0  0  0  0  0  0  0  0  0  0
   37.5950   29.0620   39.2350 C   0  0  0  0  0  0  0  0  0  0  0  0
   37.5770   29.1590   38.1390 H   0  0  0  0  0  0  0  0  0  0  0  0
   37.2910   27.8190   39.6650 N   0  0  0  0  0  0  0  0  0  0  0  0
   37.3490   27.8370   41.0110 C   0  0  0  0  0  0  0  0  0  0  0  0
   37.1500   26.9120   42.0230 C   0  0  0  0  0  0  0  0  0  0  0  0
   36.8810   25.9270   41.6760 H   0  0  0  0  0  0  0  0  0  0  0  0
   37.2990   27.2940   43.3200 N   0  0  0  0  0  0  0  0  0  0  0  0
   37.6440   28.5810   43.6000 C   0  0  0  0  0  0  0  0  0  0  0  0
   37.7230   28.7250   44.6610 H   0  0  0  0  0  0  0  0  0  0  0  0
   37.8520   29.5320   42.6430 N   0  0  0  0  0  0  0  0  0  0  0  0
   37.6950   29.1230   41.3720 C   0  0  0  0  0  0  0  0  0  0  0  0
   42.9590   33.8790   37.7090 C   0  0  0  0  0  0  0  0  0  0  0  0
   41.6270   33.5110   37.9570 C   0  0  0  0  0  0  0  0  0  0  0  0
   41.1440   33.3500   39.2630 C   0  0  0  0  0  0  0  0  0  0  0  0
   42.0440   33.5730   40.2370 N   0  0  0  0  0  0  0  0  0  0  0  0
   43.3140   33.9250   39.9950 C   0  0  0  0  0  0  0  0  0  0  0  0
   43.7770   34.0780   38.7350 N   0  0  0  0  0  0  0  0  0  0  0  0
   43.3190   34.0000   36.6960 H   0  0  0  0  0  0  0  0  0  0  0  0
   40.9550   33.3460   37.1160 H   0  0  0  0  0  0  0  0  0  0  0  0
   43.9470   34.0780   40.8640 H   0  0  0  0  0  0  0  0  0  0  0  0
  1  2  1  0  0  0  0
  2  7  1  0  0  0  0
  3  4  1  0  0  0  0
  3  2  2  0  0  0  0
  4  5  2  0  0  0  0
  5  9  1  0  0  0  0
  5  6  1  0  0  0  0
  6 10  1  0  0  0  0
  7  6  2  0  0  0  0
  7 11  1  0  0  0  0
  8  4  1  0  0  0  0
 11 22  1  0  0  0  0
 12 14  2  0  0  0  0
 12 11  1  0  0  0  0
 13 12  1  0  0  0  0
 14 15  1  0  0  0  0
 15 22  2  0  0  0  0
 15 16  1  0  0  0  0
 16 18  2  0  0  0  0
 17 16  1  0  0  0  0
 18 19  1  0  0  0  0
 19 20  1  0  0  0  0
 21 19  2  0  0  0  0
 22 21  1  0  0  0  0
 23 24  2  0  0  0  0
 23 28  1  0  0  0  0
 24 25  1  0  0  0  0
 25  3  1  0  0  0  0
 25 26  2  0  0  0  0
 27 26  1  0  0  0  0
 27 31  1  0  0  0  0
 28 27  2  0  0  0  0
 29 23  1  0  0  0  0
 30 24  1  0  0  0  0
M  END
>  <minimizedAffinity>
-5.37269974

$$$$

 OpenBabel03242516013D

 31 34  0  0  0  0  0  0  0  0999 V2000
   40.4460   29.8440   40.4260 Cl  0  0  0  0  0  0  0  0  0  0  0  0
   39.0530   30.8610   40.2330 C   0  0  0  0  0  0  0  0  0  0  0  0
   37.8580   30.5240   40.7780 C   0  0  0  0  0  0  0  0  0  0  0  0
   36.8130   31.4050   40.5640 C   0  0  0  0  0  0  0  0  0  0  0  0
   36.9520   32.5550   39.8460 C   0  0  0  0  0  0  0  0  0  0  0  0
   38.1560   32.8860   39.3020 C   0  0  0  0  0  0  0  0  0  0  0  0
   39.2150   32.0220   39.5020 C   0  0  0  0  0  0  0  0  0  0  0  0
   35.8430   31.1690   40.9850 H   0  0  0  0  0  0  0  0  0  0  0  0
   36.0840   33.1990   39.7190 H   0  0  0  0  0  0  0  0  0  0  0  0
   38.2460   33.8040   38.7350 H   0  0  0  0  0  0  0  0  0  0  0  0
   40.4570   32.4060   38.9150 N   0  0  0  0  0  0  0  0  0  0  0  0
   40.6670   32.2150   37.5960 C   0  0  0  0  0  0  0  0  0  0  0  0
   40.0850   31.8020   36.7570 H   0  0  0  0  0  0  0  0  0  0  0  0
   41.8950   32.6400   37.2350 N   0  0  0  0  0  0  0  0  0  0  0  0
   42.4940   33.1160   38.3440 C   0  0  0  0  0  0  0  0  0  0  0  0
   43.7250   33.6800   38.6400 C   0  0  0  0  0  0  0  0  0  0  0  0
   44.3860   33.7720   37.7920 H   0  0  0  0  0  0  0  0  0  0  0  0
   44.0000   34.0580   39.9170 N   0  0  0  0  0  0  0  0  0  0  0  0
   43.0570   33.8770   40.8830 C   0  0  0  0  0  0  0  0  0  0  0  0
   43.4230   34.2240   41.8320 H   0  0  0  0  0  0  0  0  0  0  0  0
   41.8310   33.3270   40.6470 N   0  0  0  0  0  0  0  0  0  0  0  0
   41.5910   32.9640   39.3760 C   0  0  0  0  0  0  0  0  0  0  0  0
   37.8580   28.0350   43.6300 C   0  0  0  0  0  0  0  0  0  0  0  0
   37.9710   29.2390   42.9170 C   0  0  0  0  0  0  0  0  0  0  0  0
   37.7470   29.2940   41.5350 C   0  0  0  0  0  0  0  0  0  0  0  0
   37.4220   28.1220   40.9610 N   0  0  0  0  0  0  0  0  0  0  0  0
   37.3150   26.9750   41.6450 C   0  0  0  0  0  0  0  0  0  0  0  0
   37.5320   26.9250   42.9790 N   0  0  0  0  0  0  0  0  0  0  0  0
   38.0330   28.0060   44.6970 H   0  0  0  0  0  0  0  0  0  0  0  0
   38.2380   30.1500   43.4510 H   0  0  0  0  0  0  0  0  0  0  0  0
   37.0470   26.0930   41.0720 H   0  0  0  0  0  0  0  0  0  0  0  0
  2  1  1  0  0  0  0
  2  3  1  0  0  0  0
  3 25  1  0  0  0  0
  4  3  2  0  0  0  0
  4  8  1  0  0  0  0
  5  4  1  0  0  0  0
  6  7  1  0  0  0  0
  6  5  2  0  0  0  0
  7  2  2  0  0  0  0
  9  5  1  0  0  0  0
 10  6  1  0  0  0  0
 11 22  1  0  0  0  0
 11  7  1  0  0  0  0
 12 11  1  0  0  0  0
 13 12  1  0  0  0  0
 14 12  2  0  0  0  0
 14 15  1  0  0  0  0
 15 16  2  0  0  0  0
 15 22  1  0  0  0  0
 16 18  1  0  0  0  0
 17 16  1  0  0  0  0
 18 19  2  0  0  0  0
 19 20  1  0  0  0  0
 21 19  1  0  0  0  0
 22 21  2  0  0  0  0
 23 29  1  0  0  0  0
 24 30  1  0  0  0  0
 24 23  2  0  0  0  0
 25 24  1  0  0  0  0
 26 25  2  0  0  0  0
 26 27  1  0  0  0  0
 27 28  2  0  0  0  0
 28 23  1  0  0  0  0
 31 27  1  0  0  0  0
M  END
>  <minimizedAffinity>
-5.33667326

$$$$

 OpenBabel03242516013D

 31 34  0  0  0  0  0  0  0  0999 V2000
   40.4940   29.9560   41.2020 Cl  0  0  0  0  0  0  0  0  0  0  0  0
   39.1770   30.9810   40.7250 C   0  0  0  0  0  0  0  0  0  0  0  0
   37.8910   30.6420   40.9880 C   0  0  0  0  0  0  0  0  0  0  0  0
   36.9200   31.5300   40.5650 C   0  0  0  0  0  0  0  0  0  0  0  0
   37.2130   32.6900   39.9140 C   0  0  0  0  0  0  0  0  0  0  0  0
   38.5070   33.0240   39.6520 C   0  0  0  0  0  0  0  0  0  0  0  0
   39.4970   32.1540   40.0660 C   0  0  0  0  0  0  0  0  0  0  0  0
   35.8810   31.2920   40.7590 H   0  0  0  0  0  0  0  0  0  0  0  0
   36.3950   33.3400   39.6100 H   0  0  0  0  0  0  0  0  0  0  0  0
   38.7210   33.9510   39.1340 H   0  0  0  0  0  0  0  0  0  0  0  0
   40.8380   32.5410   39.7710 N   0  0  0  0  0  0  0  0  0  0  0  0
   41.4870   33.3960   40.5890 C   0  0  0  0  0  0  0  0  0  0  0  0
   41.2460   33.9340   41.5170 H   0  0  0  0  0  0  0  0  0  0  0  0
   42.7370   33.6370   40.1410 N   0  0  0  0  0  0  0  0  0  0  0  0
   42.9000   32.9240   39.0090 C   0  0  0  0  0  0  0  0  0  0  0  0
   43.9240   32.7400   38.0930 C   0  0  0  0  0  0  0  0  0  0  0  0
   44.8220   33.2920   38.3170 H   0  0  0  0  0  0  0  0  0  0  0  0
   43.7310   31.9170   37.0280 N   0  0  0  0  0  0  0  0  0  0  0  0
   42.5330   31.2850   36.8820 C   0  0  0  0  0  0  0  0  0  0  0  0
   42.5370   30.6750   35.9980 H   0  0  0  0  0  0  0  0  0  0  0  0
   41.4920   31.4300   37.7530 N   0  0  0  0  0  0  0  0  0  0  0  0
   41.7140   32.2510   38.7940 C   0  0  0  0  0  0  0  0  0  0  0  0
   37.0010   27.0320   41.7010 C   0  0  0  0  0  0  0  0  0  0  0  0
   37.2640   28.2230   41.0070 C   0  0  0  0  0  0  0  0  0  0  0  0
   37.6160   29.4000   41.6830 C   0  0  0  0  0  0  0  0  0  0  0  0
   37.6800   29.2940   43.0220 N   0  0  0  0  0  0  0  0  0  0  0  0
   37.4280   28.1540   43.6800 C   0  0  0  0  0  0  0  0  0  0  0  0
   37.0880   27.0210   43.0260 N   0  0  0  0  0  0  0  0  0  0  0  0
   36.7310   26.1300   41.1680 H   0  0  0  0  0  0  0  0  0  0  0  0
   37.1920   28.2330   39.9200 H   0  0  0  0  0  0  0  0  0  0  0  0
   37.5120   28.1920   44.7610 H   0  0  0  0  0  0  0  0  0  0  0  0
  2  3  1  0  0  0  0
  2  1  1  0  0  0  0
  3 25  1  0  0  0  0
  4  8  1  0  0  0  0
  4  3  2  0  0  0  0
  5  4  1  0  0  0  0
  6  5  2  0  0  0  0
  6  7  1  0  0  0  0
  7  2  2  0  0  0  0
  9  5  1  0  0  0  0
 10  6  1  0  0  0  0
 11  7  1  0  0  0  0
 11 12  1  0  0  0  0
 12 13  1  0  0  0  0
 14 12  2  0  0  0  0
 15 14  1  0  0  0  0
 16 17  1  0  0  0  0
 16 15  2  0  0  0  0
 18 16  1  0  0  0  0
 19 18  2  0  0  0  0
 19 21  1  0  0  0  0
 20 19  1  0  0  0  0
 21 22  2  0  0  0  0
 22 15  1  0  0  0  0
 22 11  1  0  0  0  0
 23 28  1  0  0  0  0
 24 25  1  0  0  0  0
 24 23  2  0  0  0  0
 25 26  2  0  0  0  0
 26 27  1  0  0  0  0
 27 31  1  0  0  0  0
 28 27  2  0  0  0  0
 29 23  1  0  0  0  0
 30 24  1  0  0  0  0
M  END
>  <minimizedAffinity>
-5.26202011

$$$$

 OpenBabel03242516013D

 31 34  0  0  0  0  0  0  0  0999 V2000
   40.4960   29.4420   40.5030 Cl  0  0  0  0  0  0  0  0  0  0  0  0
   38.8610   30.0200   40.5640 C   0  0  0  0  0  0  0  0  0  0  0  0
   38.4980   31.1700   39.9430 C   0  0  0  0  0  0  0  0  0  0  0  0
   37.1700   31.5380   40.0560 C   0  0  0  0  0  0  0  0  0  0  0  0
   36.2560   30.8040   40.7490 C   0  0  0  0  0  0  0  0  0  0  0  0
   36.6280   29.6510   41.3700 C   0  0  0  0  0  0  0  0  0  0  0  0
   37.9490   29.2600   41.2720 C   0  0  0  0  0  0  0  0  0  0  0  0
   36.8440   32.4510   39.5720 H   0  0  0  0  0  0  0  0  0  0  0  0
   35.2280   31.1580   40.7940 H   0  0  0  0  0  0  0  0  0  0  0  0
   35.8870   29.0800   41.9160 H   0  0  0  0  0  0  0  0  0  0  0  0
   38.2960   28.0470   41.9380 N   0  0  0  0  0  0  0  0  0  0  0  0
   38.6720   28.0730   43.2340 C   0  0  0  0  0  0  0  0  0  0  0  0
   38.7980   28.8510   44.0020 H   0  0  0  0  0  0  0  0  0  0  0  0
   38.9580   26.8320   43.6780 N   0  0  0  0  0  0  0  0  0  0  0  0
   38.7650   25.9840   42.6490 C   0  0  0  0  0  0  0  0  0  0  0  0
   38.8810   24.6170   42.4570 C   0  0  0  0  0  0  0  0  0  0  0  0
   39.2050   24.0730   43.3300 H   0  0  0  0  0  0  0  0  0  0  0  0
   38.5940   24.0840   41.2390 N   0  0  0  0  0  0  0  0  0  0  0  0
   38.1950   24.9060   40.2290 C   0  0  0  0  0  0  0  0  0  0  0  0
   38.0070   24.3380   39.3370 H   0  0  0  0  0  0  0  0  0  0  0  0
   38.0640   26.2570   40.3640 N   0  0  0  0  0  0  0  0  0  0  0  0
   38.3560   26.7530   41.5780 C   0  0  0  0  0  0  0  0  0  0  0  0
   41.1020   33.7640   39.0360 C   0  0  0  0  0  0  0  0  0  0  0  0
   40.1380   33.0460   39.7610 C   0  0  0  0  0  0  0  0  0  0  0  0
   39.4970   31.9250   39.2150 C   0  0  0  0  0  0  0  0  0  0  0  0
   39.8760   31.6020   37.9660 N   0  0  0  0  0  0  0  0  0  0  0  0
   40.7970   32.2900   37.2780 C   0  0  0  0  0  0  0  0  0  0  0  0
   41.4130   33.3700   37.8060 N   0  0  0  0  0  0  0  0  0  0  0  0
   41.5900   34.6260   39.4690 H   0  0  0  0  0  0  0  0  0  0  0  0
   39.8820   33.3680   40.7700 H   0  0  0  0  0  0  0  0  0  0  0  0
   41.0200   31.9320   36.2770 H   0  0  0  0  0  0  0  0  0  0  0  0
  1  2  1  0  0  0  0
  2  7  1  0  0  0  0
  3  4  1  0  0  0  0
  3  2  2  0  0  0  0
  4  5  2  0  0  0  0
  5  9  1  0  0  0  0
  5  6  1  0  0  0  0
  6 10  1  0  0  0  0
  7  6  2  0  0  0  0
  7 11  1  0  0  0  0
  8  4  1  0  0  0  0
 11 12  1  0  0  0  0
 12 14  2  0  0  0  0
 12 13  1  0  0  0  0
 15 14  1  0  0  0  0
 16 15  1  0  0  0  0
 16 17  1  0  0  0  0
 18 16  2  0  0  0  0
 19 21  2  0  0  0  0
 19 18  1  0  0  0  0
 20 19  1  0  0  0  0
 21 22  1  0  0  0  0
 22 11  1  0  0  0  0
 22 15  2  0  0  0  0
 23 29  1  0  0  0  0
 23 24  1  0  0  0  0
 24 30  1  0  0  0  0
 25 24  2  0  0  0  0
 25  3  1  0  0  0  0
 26 25  1  0  0  0  0
 27 28  1  0  0  0  0
 27 26  2  0  0  0  0
 28 23  2  0  0  0  0
 31 27  1  0  0  0  0
M  END
>  <minimizedAffinity>
-5.26016617

$$$$

 OpenBabel03242516013D

 31 34  0  0  0  0  0  0  0  0999 V2000
   39.3230   28.9270   40.9670 Cl  0  0  0  0  0  0  0  0  0  0  0  0
   37.8910   28.9920   39.9880 C   0  0  0  0  0  0  0  0  0  0  0  0
   37.1390   27.8860   39.7690 C   0  0  0  0  0  0  0  0  0  0  0  0
   36.0190   28.0490   38.9740 C   0  0  0  0  0  0  0  0  0  0  0  0
   35.6700   29.2470   38.4270 C   0  0  0  0  0  0  0  0  0  0  0  0
   36.4310   30.3540   38.6510 C   0  0  0  0  0  0  0  0  0  0  0  0
   37.5550   30.2170   39.4420 C   0  0  0  0  0  0  0  0  0  0  0  0
   35.3930   27.1870   38.7790 H   0  0  0  0  0  0  0  0  0  0  0  0
   34.7740   29.2980   37.8110 H   0  0  0  0  0  0  0  0  0  0  0  0
   36.1380   31.2970   38.2070 H   0  0  0  0  0  0  0  0  0  0  0  0
   38.3240   31.4000   39.6500 N   0  0  0  0  0  0  0  0  0  0  0  0
   38.0550   32.2030   40.7000 C   0  0  0  0  0  0  0  0  0  0  0  0
   37.3310   32.2010   41.5290 H   0  0  0  0  0  0  0  0  0  0  0  0
   38.8880   33.2640   40.7230 N   0  0  0  0  0  0  0  0  0  0  0  0
   39.7140   33.1460   39.6640 C   0  0  0  0  0  0  0  0  0  0  0  0
   40.7630   33.8840   39.1400 C   0  0  0  0  0  0  0  0  0  0  0  0
   40.9970   34.7790   39.6960 H   0  0  0  0  0  0  0  0  0  0  0  0
   41.3920   33.4500   38.0150 N   0  0  0  0  0  0  0  0  0  0  0  0
   40.9790   32.2950   37.4250 C   0  0  0  0  0  0  0  0  0  0  0  0
   41.5710   32.0880   36.5530 H   0  0  0  0  0  0  0  0  0  0  0  0
   39.9530   31.5300   37.8980 N   0  0  0  0  0  0  0  0  0  0  0  0
   39.3510   31.9870   39.0100 C   0  0  0  0  0  0  0  0  0  0  0  0
   37.4390   24.9660   42.1600 C   0  0  0  0  0  0  0  0  0  0  0  0
   37.0360   26.1870   41.5990 C   0  0  0  0  0  0  0  0  0  0  0  0
   37.5400   26.6290   40.3680 C   0  0  0  0  0  0  0  0  0  0  0  0
   38.4230   25.8020   39.7820 N   0  0  0  0  0  0  0  0  0  0  0  0
   38.8050   24.6360   40.3210 C   0  0  0  0  0  0  0  0  0  0  0  0
   38.3180   24.2130   41.5080 N   0  0  0  0  0  0  0  0  0  0  0  0
   37.0420   24.6360   43.1110 H   0  0  0  0  0  0  0  0  0  0  0  0
   36.3150   26.8060   42.1330 H   0  0  0  0  0  0  0  0  0  0  0  0
   39.5250   24.0540   39.7530 H   0  0  0  0  0  0  0  0  0  0  0  0
  2  1  1  0  0  0  0
  3  2  1  0  0  0  0
  3 25  1  0  0  0  0
  4  3  2  0  0  0  0
  5  6  2  0  0  0  0
  5  4  1  0  0  0  0
  6  7  1  0  0  0  0
  7 11  1  0  0  0  0
  7  2  2  0  0  0  0
  8  4  1  0  0  0  0
  9  5  1  0  0  0  0
 10  6  1  0  0  0  0
 11 12  1  0  0  0  0
 12 14  2  0  0  0  0
 12 13  1  0  0  0  0
 15 14  1  0  0  0  0
 16 15  1  0  0  0  0
 16 17  1  0  0  0  0
 18 16  2  0  0  0  0
 19 21  2  0  0  0  0
 19 18  1  0  0  0  0
 20 19  1  0  0  0  0
 21 22  1  0  0  0  0
 22 11  1  0  0  0  0
 22 15  2  0  0  0  0
 23 29  1  0  0  0  0
 24 30  1  0  0  0  0
 24 23  1  0  0  0  0
 25 24  2  0  0  0  0
 26 27  2  0  0  0  0
 26 25  1  0  0  0  0
 27 28  1  0  0  0  0
 28 23  2  0  0  0  0
 31 27  1  0  0  0  0
M  END
>  <minimizedAffinity>
-5.14880371

$$$$

 OpenBabel03242516013D

 31 34  0  0  0  0  0  0  0  0999 V2000
   37.5580   30.9940   37.0120 Cl  0  0  0  0  0  0  0  0  0  0  0  0
   36.6630   30.3440   38.3490 C   0  0  0  0  0  0  0  0  0  0  0  0
   35.7990   29.3120   38.1810 C   0  0  0  0  0  0  0  0  0  0  0  0
   35.1380   28.8710   39.3130 C   0  0  0  0  0  0  0  0  0  0  0  0
   35.3250   29.4280   40.5420 C   0  0  0  0  0  0  0  0  0  0  0  0
   36.1940   30.4640   40.7030 C   0  0  0  0  0  0  0  0  0  0  0  0
   36.8680   30.9230   39.5880 C   0  0  0  0  0  0  0  0  0  0  0  0
   34.4400   28.0470   39.2160 H   0  0  0  0  0  0  0  0  0  0  0  0
   34.7680   29.0270   41.3870 H   0  0  0  0  0  0  0  0  0  0  0  0
   36.3300   30.8930   41.6880 H   0  0  0  0  0  0  0  0  0  0  0  0
   37.7670   32.0100   39.8000 N   0  0  0  0  0  0  0  0  0  0  0  0
   37.3250   33.2800   39.6970 C   0  0  0  0  0  0  0  0  0  0  0  0
   36.3630   33.7640   39.4710 H   0  0  0  0  0  0  0  0  0  0  0  0
   38.3220   34.1580   39.9320 N   0  0  0  0  0  0  0  0  0  0  0  0
   39.4330   33.4420   40.1920 C   0  0  0  0  0  0  0  0  0  0  0  0
   40.7510   33.7360   40.5020 C   0  0  0  0  0  0  0  0  0  0  0  0
   40.9690   34.7910   40.5540 H   0  0  0  0  0  0  0  0  0  0  0  0
   41.6340   32.7220   40.7080 N   0  0  0  0  0  0  0  0  0  0  0  0
   41.2050   31.4340   40.6070 C   0  0  0  0  0  0  0  0  0  0  0  0
   42.0150   30.7540   40.7960 H   0  0  0  0  0  0  0  0  0  0  0  0
   39.9200   31.0880   40.3040 N   0  0  0  0  0  0  0  0  0  0  0  0
   39.0730   32.1130   40.1060 C   0  0  0  0  0  0  0  0  0  0  0  0
   36.1740   27.1030   35.1290 C   0  0  0  0  0  0  0  0  0  0  0  0
   36.3590   27.6360   36.4150 C   0  0  0  0  0  0  0  0  0  0  0  0
   35.6250   28.7440   36.8600 C   0  0  0  0  0  0  0  0  0  0  0  0
   34.7480   29.2430   35.9710 N   0  0  0  0  0  0  0  0  0  0  0  0
   34.5740   28.7310   34.7450 C   0  0  0  0  0  0  0  0  0  0  0  0
   35.2840   27.6630   34.3190 N   0  0  0  0  0  0  0  0  0  0  0  0
   36.7470   26.2480   34.7980 H   0  0  0  0  0  0  0  0  0  0  0  0
   37.0900   27.1780   37.0800 H   0  0  0  0  0  0  0  0  0  0  0  0
   33.8350   29.2190   34.1170 H   0  0  0  0  0  0  0  0  0  0  0  0
  1  2  1  0  0  0  0
  2  7  1  0  0  0  0
  3  2  2  0  0  0  0
  3  4  1  0  0  0  0
  4  5  2  0  0  0  0
  5  6  1  0  0  0  0
  5  9  1  0  0  0  0
  6 10  1  0  0  0  0
  7 11  1  0  0  0  0
  7  6  2  0  0  0  0
  8  4  1  0  0  0  0
 11 22  1  0  0  0  0
 12 11  1  0  0  0  0
 12 14  2  0  0  0  0
 13 12  1  0  0  0  0
 14 15  1  0  0  0  0
 15 16  1  0  0  0  0
 16 17  1  0  0  0  0
 16 18  2  0  0  0  0
 19 18  1  0  0  0  0
 19 20  1  0  0  0  0
 21 19  2  0  0  0  0
 22 15  2  0  0  0  0
 22 21  1  0  0  0  0
 23 24  1  0  0  0  0
 24 25  2  0  0  0  0
 24 30  1  0  0  0  0
 25  3  1  0  0  0  0
 26 25  1  0  0  0  0
 27 26  2  0  0  0  0
 28 27  1  0  0  0  0
 28 23  2  0  0  0  0
 29 23  1  0  0  0  0
 31 27  1  0  0  0  0
M  END
>  <minimizedAffinity>
-5.13879681

$$$$

 OpenBabel03242516013D

 31 34  0  0  0  0  0  0  0  0999 V2000
   38.6180   28.2700   39.5220 Cl  0  0  0  0  0  0  0  0  0  0  0  0
   38.0240   28.1180   41.1460 C   0  0  0  0  0  0  0  0  0  0  0  0
   37.7880   29.2110   41.9130 C   0  0  0  0  0  0  0  0  0  0  0  0
   37.3160   28.9770   43.1910 C   0  0  0  0  0  0  0  0  0  0  0  0
   37.0950   27.7250   43.6800 C   0  0  0  0  0  0  0  0  0  0  0  0
   37.3360   26.6320   42.9040 C   0  0  0  0  0  0  0  0  0  0  0  0
   37.8060   26.8390   41.6220 C   0  0  0  0  0  0  0  0  0  0  0  0
   37.1150   29.8280   43.8320 H   0  0  0  0  0  0  0  0  0  0  0  0
   36.7240   27.6190   44.6970 H   0  0  0  0  0  0  0  0  0  0  0  0
   37.1540   25.6440   43.3090 H   0  0  0  0  0  0  0  0  0  0  0  0
   38.0460   25.6670   40.8440 N   0  0  0  0  0  0  0  0  0  0  0  0
   39.1680   24.9440   41.0420 C   0  0  0  0  0  0  0  0  0  0  0  0
   40.0420   25.0120   41.7070 H   0  0  0  0  0  0  0  0  0  0  0  0
   39.2090   23.8810   40.2130 N   0  0  0  0  0  0  0  0  0  0  0  0
   38.0920   23.9160   39.4610 C   0  0  0  0  0  0  0  0  0  0  0  0
   37.5510   23.1330   38.4530 C   0  0  0  0  0  0  0  0  0  0  0  0
   38.1530   22.2800   38.1840 H   0  0  0  0  0  0  0  0  0  0  0  0
   36.3580   23.4820   37.9010 N   0  0  0  0  0  0  0  0  0  0  0  0
   35.7150   24.5950   38.3510 C   0  0  0  0  0  0  0  0  0  0  0  0
   34.7920   24.7340   37.8190 H   0  0  0  0  0  0  0  0  0  0  0  0
   36.2010   25.3990   39.3400 N   0  0  0  0  0  0  0  0  0  0  0  0
   37.3820   25.0290   39.8640 C   0  0  0  0  0  0  0  0  0  0  0  0
   37.3230   32.5100   40.1130 C   0  0  0  0  0  0  0  0  0  0  0  0
   37.0620   31.2350   40.6400 C   0  0  0  0  0  0  0  0  0  0  0  0
   38.0340   30.5280   41.3610 C   0  0  0  0  0  0  0  0  0  0  0  0
   39.2130   31.1600   41.5030 N   0  0  0  0  0  0  0  0  0  0  0  0
   39.4580   32.3770   41.0000 C   0  0  0  0  0  0  0  0  0  0  0  0
   38.5180   33.0560   40.3040 N   0  0  0  0  0  0  0  0  0  0  0  0
   36.5640   33.0450   39.5590 H   0  0  0  0  0  0  0  0  0  0  0  0
   36.0820   30.7860   40.4830 H   0  0  0  0  0  0  0  0  0  0  0  0
   40.4470   32.7850   41.1800 H   0  0  0  0  0  0  0  0  0  0  0  0
  1  2  1  0  0  0  0
  2  7  2  0  0  0  0
  2  3  1  0  0  0  0
  3  4  2  0  0  0  0
  4  5  1  0  0  0  0
  4  8  1  0  0  0  0
  5  9  1  0  0  0  0
  6 10  1  0  0  0  0
  6  5  2  0  0  0  0
  7  6  1  0  0  0  0
 11 12  1  0  0  0  0
 11  7  1  0  0  0  0
 12 13  1  0  0  0  0
 14 12  2  0  0  0  0
 15 22  1  0  0  0  0
 15 14  1  0  0  0  0
 16 15  2  0  0  0  0
 17 16  1  0  0  0  0
 18 19  2  0  0  0  0
 18 16  1  0  0  0  0
 19 21  1  0  0  0  0
 20 19  1  0  0  0  0
 21 22  2  0  0  0  0
 22 11  1  0  0  0  0
 23 28  2  0  0  0  0
 23 24  1  0  0  0  0
 24 25  2  0  0  0  0
 25 26  1  0  0  0  0
 25  3  1  0  0  0  0
 27 31  1  0  0  0  0
 27 26  2  0  0  0  0
 28 27  1  0  0  0  0
 29 23  1  0  0  0  0
 30 24  1  0  0  0  0
M  END
>  <minimizedAffinity>
-5.11260033

$$$$
