
 OpenBabel03252506583D

 41 46  0  0  0  0  0  0  0  0999 V2000
   36.9350   25.8750   40.6740 C   0  0  0  0  0  0  0  0  0  0  0  0
   37.3330   24.5760   40.9490 C   0  0  0  0  0  0  0  0  0  0  0  0
   38.2830   24.2650   41.9090 C   0  0  0  0  0  0  0  0  0  0  0  0
   38.8810   25.2890   42.6470 C   0  0  0  0  0  0  0  0  0  0  0  0
   39.8110   25.3640   43.6280 N   0  0  0  0  0  0  0  0  0  0  0  0
   39.9880   26.6690   43.9550 C   0  0  0  0  0  0  0  0  0  0  0  0
   39.1590   27.3830   43.1660 N   0  0  0  0  0  0  0  0  0  0  0  0
   38.4700   26.5700   42.3550 C   0  0  0  0  0  0  0  0  0  0  0  0
   37.5380   26.9030   41.4160 C   0  0  0  0  0  0  0  0  0  0  0  0
   36.1880   26.0930   39.9160 H   0  0  0  0  0  0  0  0  0  0  0  0
   38.5980   23.2580   42.1290 H   0  0  0  0  0  0  0  0  0  0  0  0
   40.2940   24.5440   44.0440 H   0  0  0  0  0  0  0  0  0  0  0  0
   40.6480   27.0910   44.6920 H   0  0  0  0  0  0  0  0  0  0  0  0
   36.8920   21.3750   39.2000 C   0  0  0  0  0  0  0  0  0  0  0  0
   35.5700   21.4270   38.7910 C   0  0  0  0  0  0  0  0  0  0  0  0
   34.8190   22.5720   39.1190 C   0  0  0  0  0  0  0  0  0  0  0  0
   35.4460   23.5640   39.8220 N   0  0  0  0  0  0  0  0  0  0  0  0
   36.7320   23.4760   40.1990 C   0  0  0  0  0  0  0  0  0  0  0  0
   37.4720   22.3860   39.8970 N   0  0  0  0  0  0  0  0  0  0  0  0
   37.4740   20.4960   38.9510 H   0  0  0  0  0  0  0  0  0  0  0  0
   35.1480   20.5970   38.2370 H   0  0  0  0  0  0  0  0  0  0  0  0
   33.7930   22.6370   38.8150 H   0  0  0  0  0  0  0  0  0  0  0  0
   37.1660   28.3000   41.1800 C   0  0  0  0  0  0  0  0  0  0  0  0
   35.8790   28.7850   41.1830 C   0  0  0  0  0  0  0  0  0  0  0  0
   36.0300   30.1510   40.9150 C   0  0  0  0  0  0  0  0  0  0  0  0
   37.3760   30.4200   40.7680 C   0  0  0  0  0  0  0  0  0  0  0  0
   37.9950   29.2710   40.9380 O   0  0  0  0  0  0  0  0  0  0  0  0
   34.9730   28.2390   41.3500 H   0  0  0  0  0  0  0  0  0  0  0  0
   35.2190   30.8550   40.8410 H   0  0  0  0  0  0  0  0  0  0  0  0
   37.9900   31.6900   40.4840 N   0  0  0  0  0  0  0  0  0  0  0  0
   37.3550   32.7420   39.9450 C   0  0  0  0  0  0  0  0  0  0  0  0
   36.3210   32.8250   39.6390 H   0  0  0  0  0  0  0  0  0  0  0  0
   38.2640   33.7280   39.8400 N   0  0  0  0  0  0  0  0  0  0  0  0
   39.4480   33.2930   40.3090 C   0  0  0  0  0  0  0  0  0  0  0  0
   40.7200   33.8160   40.4640 C   0  0  0  0  0  0  0  0  0  0  0  0
   40.8980   34.8370   40.1510 H   0  0  0  0  0  0  0  0  0  0  0  0
   41.7250   33.0610   40.9980 N   0  0  0  0  0  0  0  0  0  0  0  0
   41.5240   31.7990   41.3890 C   0  0  0  0  0  0  0  0  0  0  0  0
   42.2760   31.1500   41.8190 H   0  0  0  0  0  0  0  0  0  0  0  0
   40.2990   31.2600   41.2530 N   0  0  0  0  0  0  0  0  0  0  0  0
   39.2820   31.9690   40.7310 C   0  0  0  0  0  0  0  0  0  0  0  0
  1  2  2  0  0  0  0
  1  9  1  0  0  0  0
  2  3  1  0  0  0  0
  3 11  1  0  0  0  0
  3  4  2  0  0  0  0
  4  5  1  0  0  0  0
  5  6  1  0  0  0  0
  5 12  1  0  0  0  0
  6 13  1  0  0  0  0
  7  6  2  0  0  0  0
  8  4  1  0  0  0  0
  8  7  1  0  0  0  0
  9  8  2  0  0  0  0
 10  1  1  0  0  0  0
 14 19  1  0  0  0  0
 15 16  1  0  0  0  0
 15 14  2  0  0  0  0
 16 17  2  0  0  0  0
 17 18  1  0  0  0  0
 18  2  1  0  0  0  0
 19 18  2  0  0  0  0
 20 14  1  0  0  0  0
 21 15  1  0  0  0  0
 22 16  1  0  0  0  0
 23 24  2  0  0  0  0
 23  9  1  0  0  0  0
 24 28  1  0  0  0  0
 25 24  1  0  0  0  0
 26 25  2  0  0  0  0
 26 27  1  0  0  0  0
 27 23  1  0  0  0  0
 29 25  1  0  0  0  0
 30 41  1  0  0  0  0
 30 26  1  0  0  0  0
 31 30  1  0  0  0  0
 32 31  1  0  0  0  0
 33 31  2  0  0  0  0
 33 34  1  0  0  0  0
 34 35  2  0  0  0  0
 34 41  1  0  0  0  0
 35 37  1  0  0  0  0
 36 35  1  0  0  0  0
 37 38  2  0  0  0  0
 38 39  1  0  0  0  0
 40 38  1  0  0  0  0
 41 40  2  0  0  0  0
M  END
>  <minimizedAffinity>
-6.77110147

$$$$

 OpenBabel03252506583D

 41 46  0  0  0  0  0  0  0  0999 V2000
   40.9400   31.3200   38.2570 C   0  0  0  0  0  0  0  0  0  0  0  0
   41.9770   32.1280   37.8210 C   0  0  0  0  0  0  0  0  0  0  0  0
   42.0820   33.4700   38.1570 C   0  0  0  0  0  0  0  0  0  0  0  0
   41.1110   34.0540   38.9730 C   0  0  0  0  0  0  0  0  0  0  0  0
   40.8910   35.2860   39.4910 N   0  0  0  0  0  0  0  0  0  0  0  0
   39.7520   35.2460   40.2280 C   0  0  0  0  0  0  0  0  0  0  0  0
   39.2840   33.9830   40.1530 N   0  0  0  0  0  0  0  0  0  0  0  0
   40.0910   33.2300   39.3940 C   0  0  0  0  0  0  0  0  0  0  0  0
   39.9650   31.9090   39.0760 C   0  0  0  0  0  0  0  0  0  0  0  0
   40.8810   30.2710   37.9790 H   0  0  0  0  0  0  0  0  0  0  0  0
   42.8850   34.1050   37.8220 H   0  0  0  0  0  0  0  0  0  0  0  0
   41.5070   36.1080   39.3350 H   0  0  0  0  0  0  0  0  0  0  0  0
   39.2820   36.0420   40.7780 H   0  0  0  0  0  0  0  0  0  0  0  0
   45.2260   31.4780   36.2320 C   0  0  0  0  0  0  0  0  0  0  0  0
   44.9350   30.4550   35.3440 C   0  0  0  0  0  0  0  0  0  0  0  0
   43.6100   29.9820   35.2890 C   0  0  0  0  0  0  0  0  0  0  0  0
   42.6920   30.5640   36.1180 N   0  0  0  0  0  0  0  0  0  0  0  0
   43.0140   31.5550   36.9650 C   0  0  0  0  0  0  0  0  0  0  0  0
   44.2790   32.0250   37.0360 N   0  0  0  0  0  0  0  0  0  0  0  0
   46.2430   31.8450   36.2780 H   0  0  0  0  0  0  0  0  0  0  0  0
   45.7220   30.0470   34.7210 H   0  0  0  0  0  0  0  0  0  0  0  0
   43.3580   29.1910   34.6100 H   0  0  0  0  0  0  0  0  0  0  0  0
   38.8400   31.1150   39.5760 C   0  0  0  0  0  0  0  0  0  0  0  0
   37.5320   31.2680   39.1830 C   0  0  0  0  0  0  0  0  0  0  0  0
   36.8390   30.3000   39.9230 C   0  0  0  0  0  0  0  0  0  0  0  0
   37.7480   29.6220   40.7090 C   0  0  0  0  0  0  0  0  0  0  0  0
   38.9220   30.1590   40.4520 O   0  0  0  0  0  0  0  0  0  0  0  0
   37.1360   31.9690   38.4760 H   0  0  0  0  0  0  0  0  0  0  0  0
   35.7780   30.1320   39.8700 H   0  0  0  0  0  0  0  0  0  0  0  0
   37.4810   28.5470   41.6270 N   0  0  0  0  0  0  0  0  0  0  0  0
   37.3910   28.6830   42.9590 C   0  0  0  0  0  0  0  0  0  0  0  0
   37.4980   29.5780   43.5560 H   0  0  0  0  0  0  0  0  0  0  0  0
   37.1330   27.4600   43.4560 N   0  0  0  0  0  0  0  0  0  0  0  0
   37.0640   26.5750   42.4440 C   0  0  0  0  0  0  0  0  0  0  0  0
   36.8370   25.2160   42.3120 C   0  0  0  0  0  0  0  0  0  0  0  0
   36.6590   24.6350   43.2090 H   0  0  0  0  0  0  0  0  0  0  0  0
   36.8370   24.6240   41.0820 N   0  0  0  0  0  0  0  0  0  0  0  0
   37.0550   25.3250   39.9640 C   0  0  0  0  0  0  0  0  0  0  0  0
   37.0680   24.9170   38.9620 H   0  0  0  0  0  0  0  0  0  0  0  0
   37.2800   26.6480   40.0560 N   0  0  0  0  0  0  0  0  0  0  0  0
   37.2870   27.2700   41.2500 C   0  0  0  0  0  0  0  0  0  0  0  0
  1  9  1  0  0  0  0
  2  3  1  0  0  0  0
  2  1  2  0  0  0  0
  3  4  2  0  0  0  0
  4  8  1  0  0  0  0
  4  5  1  0  0  0  0
  5  6  1  0  0  0  0
  6 13  1  0  0  0  0
  7  6  2  0  0  0  0
  8  7  1  0  0  0  0
  9  8  2  0  0  0  0
  9 23  1  0  0  0  0
 10  1  1  0  0  0  0
 11  3  1  0  0  0  0
 12  5  1  0  0  0  0
 14 20  1  0  0  0  0
 14 19  1  0  0  0  0
 15 14  2  0  0  0  0
 16 15  1  0  0  0  0
 16 17  2  0  0  0  0
 17 18  1  0  0  0  0
 18 19  2  0  0  0  0
 18  2  1  0  0  0  0
 21 15  1  0  0  0  0
 22 16  1  0  0  0  0
 23 27  1  0  0  0  0
 24 23  2  0  0  0  0
 24 25  1  0  0  0  0
 25 26  2  0  0  0  0
 26 30  1  0  0  0  0
 27 26  1  0  0  0  0
 28 24  1  0  0  0  0
 29 25  1  0  0  0  0
 30 31  1  0  0  0  0
 31 33  2  0  0  0  0
 31 32  1  0  0  0  0
 34 33  1  0  0  0  0
 35 34  1  0  0  0  0
 35 36  1  0  0  0  0
 37 35  2  0  0  0  0
 38 40  2  0  0  0  0
 38 37  1  0  0  0  0
 39 38  1  0  0  0  0
 40 41  1  0  0  0  0
 41 30  1  0  0  0  0
 41 34  2  0  0  0  0
M  END
>  <minimizedAffinity>
-6.68318033

$$$$

 OpenBabel03252506583D

 41 46  0  0  0  0  0  0  0  0999 V2000
   36.9120   26.2800   40.5070 C   0  0  0  0  0  0  0  0  0  0  0  0
   36.7440   24.9310   40.2380 C   0  0  0  0  0  0  0  0  0  0  0  0
   37.4650   23.9370   40.8820 C   0  0  0  0  0  0  0  0  0  0  0  0
   38.4080   24.2860   41.8510 C   0  0  0  0  0  0  0  0  0  0  0  0
   39.2660   23.6160   42.6570 N   0  0  0  0  0  0  0  0  0  0  0  0
   39.9470   24.5200   43.4060 C   0  0  0  0  0  0  0  0  0  0  0  0
   39.4970   25.7400   43.0480 N   0  0  0  0  0  0  0  0  0  0  0  0
   38.5560   25.6320   42.1010 C   0  0  0  0  0  0  0  0  0  0  0  0
   37.8600   26.6280   41.4810 C   0  0  0  0  0  0  0  0  0  0  0  0
   36.3340   27.0400   39.9890 H   0  0  0  0  0  0  0  0  0  0  0  0
   37.3410   22.8860   40.6780 H   0  0  0  0  0  0  0  0  0  0  0  0
   39.3670   22.5830   42.6780 H   0  0  0  0  0  0  0  0  0  0  0  0
   40.7040   24.3390   44.1490 H   0  0  0  0  0  0  0  0  0  0  0  0
   34.6460   24.9020   37.2220 C   0  0  0  0  0  0  0  0  0  0  0  0
   33.9260   23.7270   37.3580 C   0  0  0  0  0  0  0  0  0  0  0  0
   34.1620   22.9340   38.4980 C   0  0  0  0  0  0  0  0  0  0  0  0
   35.0900   23.3770   39.4000 N   0  0  0  0  0  0  0  0  0  0  0  0
   35.7670   24.5240   39.2310 C   0  0  0  0  0  0  0  0  0  0  0  0
   35.5580   25.3010   38.1450 N   0  0  0  0  0  0  0  0  0  0  0  0
   34.4690   25.5160   36.3470 H   0  0  0  0  0  0  0  0  0  0  0  0
   33.2080   23.4470   36.5970 H   0  0  0  0  0  0  0  0  0  0  0  0
   33.6180   22.0190   38.6270 H   0  0  0  0  0  0  0  0  0  0  0  0
   38.0910   28.0350   41.8190 C   0  0  0  0  0  0  0  0  0  0  0  0
   38.3860   28.5050   43.0770 C   0  0  0  0  0  0  0  0  0  0  0  0
   38.5160   29.8890   42.9010 C   0  0  0  0  0  0  0  0  0  0  0  0
   38.2990   30.1800   41.5690 C   0  0  0  0  0  0  0  0  0  0  0  0
   38.0500   29.0280   40.9820 O   0  0  0  0  0  0  0  0  0  0  0  0
   38.4900   27.9410   43.9810 H   0  0  0  0  0  0  0  0  0  0  0  0
   38.7480   30.5880   43.6850 H   0  0  0  0  0  0  0  0  0  0  0  0
   38.3320   31.4730   40.9390 N   0  0  0  0  0  0  0  0  0  0  0  0
   37.2650   32.0930   40.4100 C   0  0  0  0  0  0  0  0  0  0  0  0
   36.2400   31.7530   40.3620 H   0  0  0  0  0  0  0  0  0  0  0  0
   37.7050   33.2670   39.9230 N   0  0  0  0  0  0  0  0  0  0  0  0
   39.0280   33.3750   40.1470 C   0  0  0  0  0  0  0  0  0  0  0  0
   40.0170   34.3090   39.8930 C   0  0  0  0  0  0  0  0  0  0  0  0
   39.7410   35.2240   39.3840 H   0  0  0  0  0  0  0  0  0  0  0  0
   41.3070   34.0820   40.2770 N   0  0  0  0  0  0  0  0  0  0  0  0
   41.6660   32.9580   40.9070 C   0  0  0  0  0  0  0  0  0  0  0  0
   42.6680   32.7190   41.2360 H   0  0  0  0  0  0  0  0  0  0  0  0
   40.7290   32.0290   41.1690 N   0  0  0  0  0  0  0  0  0  0  0  0
   39.4460   32.2140   40.8080 C   0  0  0  0  0  0  0  0  0  0  0  0
  1  9  1  0  0  0  0
  2  1  2  0  0  0  0
  2  3  1  0  0  0  0
  3  4  2  0  0  0  0
  4  8  1  0  0  0  0
  4  5  1  0  0  0  0
  5 12  1  0  0  0  0
  5  6  1  0  0  0  0
  6 13  1  0  0  0  0
  7  6  2  0  0  0  0
  8  7  1  0  0  0  0
  9 23  1  0  0  0  0
  9  8  2  0  0  0  0
 10  1  1  0  0  0  0
 11  3  1  0  0  0  0
 14 15  2  0  0  0  0
 14 19  1  0  0  0  0
 15 16  1  0  0  0  0
 16 22  1  0  0  0  0
 16 17  2  0  0  0  0
 18 17  1  0  0  0  0
 18  2  1  0  0  0  0
 19 18  2  0  0  0  0
 20 14  1  0  0  0  0
 21 15  1  0  0  0  0
 23 24  2  0  0  0  0
 24 28  1  0  0  0  0
 25 24  1  0  0  0  0
 25 29  1  0  0  0  0
 26 25  2  0  0  0  0
 27 26  1  0  0  0  0
 27 23  1  0  0  0  0
 30 26  1  0  0  0  0
 31 30  1  0  0  0  0
 32 31  1  0  0  0  0
 33 34  1  0  0  0  0
 33 31  2  0  0  0  0
 34 41  1  0  0  0  0
 35 34  2  0  0  0  0
 35 37  1  0  0  0  0
 36 35  1  0  0  0  0
 37 38  2  0  0  0  0
 38 40  1  0  0  0  0
 38 39  1  0  0  0  0
 41 30  1  0  0  0  0
 41 40  2  0  0  0  0
M  END
>  <minimizedAffinity>
-6.66796732

$$$$

 OpenBabel03252506583D

 41 46  0  0  0  0  0  0  0  0999 V2000
   36.5740   30.6510   38.6510 C   0  0  0  0  0  0  0  0  0  0  0  0
   35.7290   29.5550   38.7120 C   0  0  0  0  0  0  0  0  0  0  0  0
   35.6370   28.7310   39.8230 C   0  0  0  0  0  0  0  0  0  0  0  0
   36.4230   28.9990   40.9460 C   0  0  0  0  0  0  0  0  0  0  0  0
   36.5970   28.4370   42.1660 N   0  0  0  0  0  0  0  0  0  0  0  0
   37.5220   29.1610   42.8460 C   0  0  0  0  0  0  0  0  0  0  0  0
   37.9070   30.1630   42.0300 N   0  0  0  0  0  0  0  0  0  0  0  0
   37.2550   30.0920   40.8620 C   0  0  0  0  0  0  0  0  0  0  0  0
   37.3640   30.9170   39.7810 C   0  0  0  0  0  0  0  0  0  0  0  0
   36.6280   31.2810   37.7680 H   0  0  0  0  0  0  0  0  0  0  0  0
   34.9820   27.8770   39.8780 H   0  0  0  0  0  0  0  0  0  0  0  0
   36.0930   27.5930   42.5020 H   0  0  0  0  0  0  0  0  0  0  0  0
   37.9000   28.9990   43.8400 H   0  0  0  0  0  0  0  0  0  0  0  0
   32.8310   28.6240   36.6530 C   0  0  0  0  0  0  0  0  0  0  0  0
   33.3430   28.6580   35.3670 C   0  0  0  0  0  0  0  0  0  0  0  0
   34.6980   29.0050   35.2020 C   0  0  0  0  0  0  0  0  0  0  0  0
   35.4240   29.2860   36.3260 N   0  0  0  0  0  0  0  0  0  0  0  0
   34.8890   29.2410   37.5580 C   0  0  0  0  0  0  0  0  0  0  0  0
   33.5920   28.9110   37.7400 N   0  0  0  0  0  0  0  0  0  0  0  0
   31.7900   28.3580   36.7860 H   0  0  0  0  0  0  0  0  0  0  0  0
   32.7000   28.4220   34.5280 H   0  0  0  0  0  0  0  0  0  0  0  0
   35.1190   29.0390   34.2160 H   0  0  0  0  0  0  0  0  0  0  0  0
   38.2810   32.0590   39.7900 C   0  0  0  0  0  0  0  0  0  0  0  0
   37.9710   33.3150   40.2560 C   0  0  0  0  0  0  0  0  0  0  0  0
   39.1470   34.0510   40.0590 C   0  0  0  0  0  0  0  0  0  0  0  0
   40.0920   33.2170   39.4950 C   0  0  0  0  0  0  0  0  0  0  0  0
   39.5080   32.0450   39.3620 O   0  0  0  0  0  0  0  0  0  0  0  0
   37.0420   33.6510   40.6720 H   0  0  0  0  0  0  0  0  0  0  0  0
   39.2700   35.0890   40.3120 H   0  0  0  0  0  0  0  0  0  0  0  0
   41.4410   33.5490   39.1230 N   0  0  0  0  0  0  0  0  0  0  0  0
   41.8520   33.7860   37.8670 C   0  0  0  0  0  0  0  0  0  0  0  0
   41.2750   33.7710   36.9530 H   0  0  0  0  0  0  0  0  0  0  0  0
   43.1670   34.0580   37.9360 N   0  0  0  0  0  0  0  0  0  0  0  0
   43.5680   33.9910   39.2200 C   0  0  0  0  0  0  0  0  0  0  0  0
   44.7550   34.1610   39.9110 C   0  0  0  0  0  0  0  0  0  0  0  0
   45.6450   34.4170   39.3500 H   0  0  0  0  0  0  0  0  0  0  0  0
   44.8010   34.0110   41.2680 N   0  0  0  0  0  0  0  0  0  0  0  0
   43.7120   33.6950   41.9770 C   0  0  0  0  0  0  0  0  0  0  0  0
   43.6820   33.5620   43.0500 H   0  0  0  0  0  0  0  0  0  0  0  0
   42.5420   33.5220   41.3360 N   0  0  0  0  0  0  0  0  0  0  0  0
   42.4540   33.6620   40.0010 C   0  0  0  0  0  0  0  0  0  0  0  0
  1  2  2  0  0  0  0
  1  9  1  0  0  0  0
  2  3  1  0  0  0  0
  3 11  1  0  0  0  0
  3  4  2  0  0  0  0
  4  5  1  0  0  0  0
  5 12  1  0  0  0  0
  5  6  1  0  0  0  0
  6 13  1  0  0  0  0
  7  6  2  0  0  0  0
  8  4  1  0  0  0  0
  8  7  1  0  0  0  0
  9 23  1  0  0  0  0
  9  8  2  0  0  0  0
 10  1  1  0  0  0  0
 14 20  1  0  0  0  0
 14 19  1  0  0  0  0
 15 14  2  0  0  0  0
 16 15  1  0  0  0  0
 16 17  2  0  0  0  0
 17 18  1  0  0  0  0
 18 19  2  0  0  0  0
 18  2  1  0  0  0  0
 21 15  1  0  0  0  0
 22 16  1  0  0  0  0
 23 24  2  0  0  0  0
 24 28  1  0  0  0  0
 25 24  1  0  0  0  0
 25 29  1  0  0  0  0
 26 25  2  0  0  0  0
 27 26  1  0  0  0  0
 27 23  1  0  0  0  0
 30 26  1  0  0  0  0
 30 41  1  0  0  0  0
 31 33  2  0  0  0  0
 31 30  1  0  0  0  0
 32 31  1  0  0  0  0
 33 34  1  0  0  0  0
 34 35  2  0  0  0  0
 34 41  1  0  0  0  0
 35 37  1  0  0  0  0
 36 35  1  0  0  0  0
 37 38  2  0  0  0  0
 38 39  1  0  0  0  0
 40 38  1  0  0  0  0
 41 40  2  0  0  0  0
M  END
>  <minimizedAffinity>
-6.5838933

$$$$

 OpenBabel03252506583D

 41 46  0  0  0  0  0  0  0  0999 V2000
   36.4780   30.5490   38.7620 C   0  0  0  0  0  0  0  0  0  0  0  0
   35.6300   29.4540   38.7880 C   0  0  0  0  0  0  0  0  0  0  0  0
   35.5200   28.6100   39.8830 C   0  0  0  0  0  0  0  0  0  0  0  0
   36.2890   28.8550   41.0220 C   0  0  0  0  0  0  0  0  0  0  0  0
   36.4420   28.2690   42.2340 N   0  0  0  0  0  0  0  0  0  0  0  0
   37.3580   28.9790   42.9420 C   0  0  0  0  0  0  0  0  0  0  0  0
   37.7580   29.9950   42.1510 N   0  0  0  0  0  0  0  0  0  0  0  0
   37.1240   29.9480   40.9720 C   0  0  0  0  0  0  0  0  0  0  0  0
   37.2500   30.7930   39.9080 C   0  0  0  0  0  0  0  0  0  0  0  0
   36.5460   31.1970   37.8910 H   0  0  0  0  0  0  0  0  0  0  0  0
   34.8630   27.7560   39.9110 H   0  0  0  0  0  0  0  0  0  0  0  0
   35.9320   27.4200   42.5460 H   0  0  0  0  0  0  0  0  0  0  0  0
   37.7200   28.7980   43.9390 H   0  0  0  0  0  0  0  0  0  0  0  0
   32.7540   28.6030   36.6660 C   0  0  0  0  0  0  0  0  0  0  0  0
   33.2950   28.6240   35.3910 C   0  0  0  0  0  0  0  0  0  0  0  0
   34.6620   28.9340   35.2560 C   0  0  0  0  0  0  0  0  0  0  0  0
   35.3700   29.1950   36.3960 N   0  0  0  0  0  0  0  0  0  0  0  0
   34.8080   29.1640   37.6160 C   0  0  0  0  0  0  0  0  0  0  0  0
   33.4980   28.8690   37.7700 N   0  0  0  0  0  0  0  0  0  0  0  0
   31.7030   28.3650   36.7750 H   0  0  0  0  0  0  0  0  0  0  0  0
   32.6640   28.4060   34.5370 H   0  0  0  0  0  0  0  0  0  0  0  0
   35.1050   28.9580   34.2800 H   0  0  0  0  0  0  0  0  0  0  0  0
   38.1690   31.9330   39.9520 C   0  0  0  0  0  0  0  0  0  0  0  0
   37.7870   33.2480   40.0780 C   0  0  0  0  0  0  0  0  0  0  0  0
   38.9970   33.9550   40.0720 C   0  0  0  0  0  0  0  0  0  0  0  0
   40.0300   33.0480   39.9490 C   0  0  0  0  0  0  0  0  0  0  0  0
   39.4650   31.8610   39.8820 O   0  0  0  0  0  0  0  0  0  0  0  0
   36.7930   33.6380   40.1580 H   0  0  0  0  0  0  0  0  0  0  0  0
   39.0820   35.0250   40.1530 H   0  0  0  0  0  0  0  0  0  0  0  0
   41.4400   33.3290   39.9000 N   0  0  0  0  0  0  0  0  0  0  0  0
   42.1080   34.0500   40.8130 C   0  0  0  0  0  0  0  0  0  0  0  0
   41.7300   34.5290   41.7060 H   0  0  0  0  0  0  0  0  0  0  0  0
   43.3920   34.0840   40.4150 N   0  0  0  0  0  0  0  0  0  0  0  0
   43.5200   33.3900   39.2670 C   0  0  0  0  0  0  0  0  0  0  0  0
   44.5470   33.0700   38.3970 C   0  0  0  0  0  0  0  0  0  0  0  0
   45.5430   33.4320   38.6210 H   0  0  0  0  0  0  0  0  0  0  0  0
   44.3090   32.3160   37.2840 N   0  0  0  0  0  0  0  0  0  0  0  0
   43.0860   31.8620   36.9900 C   0  0  0  0  0  0  0  0  0  0  0  0
   42.8320   31.2610   36.1270 H   0  0  0  0  0  0  0  0  0  0  0  0
   42.0650   32.1550   37.8160 N   0  0  0  0  0  0  0  0  0  0  0  0
   42.2570   32.8940   38.9240 C   0  0  0  0  0  0  0  0  0  0  0  0
  1  2  2  0  0  0  0
  1  9  1  0  0  0  0
  2  3  1  0  0  0  0
  3 11  1  0  0  0  0
  3  4  2  0  0  0  0
  4  5  1  0  0  0  0
  5 12  1  0  0  0  0
  5  6  1  0  0  0  0
  6 13  1  0  0  0  0
  7  6  2  0  0  0  0
  8  4  1  0  0  0  0
  8  7  1  0  0  0  0
  9 23  1  0  0  0  0
  9  8  2  0  0  0  0
 10  1  1  0  0  0  0
 14 20  1  0  0  0  0
 14 19  1  0  0  0  0
 15 14  2  0  0  0  0
 16 15  1  0  0  0  0
 16 17  2  0  0  0  0
 17 18  1  0  0  0  0
 18 19  2  0  0  0  0
 18  2  1  0  0  0  0
 21 15  1  0  0  0  0
 22 16  1  0  0  0  0
 23 24  2  0  0  0  0
 24 28  1  0  0  0  0
 25 24  1  0  0  0  0
 25 29  1  0  0  0  0
 26 25  2  0  0  0  0
 27 26  1  0  0  0  0
 27 23  1  0  0  0  0
 30 26  1  0  0  0  0
 30 31  1  0  0  0  0
 31 32  1  0  0  0  0
 33 31  2  0  0  0  0
 34 33  1  0  0  0  0
 35 36  1  0  0  0  0
 35 34  2  0  0  0  0
 37 35  1  0  0  0  0
 38 37  2  0  0  0  0
 38 40  1  0  0  0  0
 39 38  1  0  0  0  0
 40 41  2  0  0  0  0
 41 34  1  0  0  0  0
 41 30  1  0  0  0  0
M  END
>  <minimizedAffinity>
-6.55711603

$$$$

 OpenBabel03252506583D

 41 46  0  0  0  0  0  0  0  0999 V2000
   36.6540   25.6350   40.2030 C   0  0  0  0  0  0  0  0  0  0  0  0
   36.7260   24.2530   40.1430 C   0  0  0  0  0  0  0  0  0  0  0  0
   37.5670   23.5040   40.9530 C   0  0  0  0  0  0  0  0  0  0  0  0
   38.3860   24.1510   41.8810 C   0  0  0  0  0  0  0  0  0  0  0  0
   39.2990   23.7660   42.8040 N   0  0  0  0  0  0  0  0  0  0  0  0
   39.7800   24.8740   43.4220 C   0  0  0  0  0  0  0  0  0  0  0  0
   39.1540   25.9320   42.8660 N   0  0  0  0  0  0  0  0  0  0  0  0
   38.2960   25.5240   41.9220 C   0  0  0  0  0  0  0  0  0  0  0  0
   37.4790   26.2820   41.1360 C   0  0  0  0  0  0  0  0  0  0  0  0
   35.9870   26.1990   39.5560 H   0  0  0  0  0  0  0  0  0  0  0  0
   37.6290   22.4290   40.9120 H   0  0  0  0  0  0  0  0  0  0  0  0
   39.5670   22.7800   42.9900 H   0  0  0  0  0  0  0  0  0  0  0  0
   40.5160   24.9390   44.2040 H   0  0  0  0  0  0  0  0  0  0  0  0
   34.3150   23.5470   37.4620 C   0  0  0  0  0  0  0  0  0  0  0  0
   34.3200   22.1640   37.3990 C   0  0  0  0  0  0  0  0  0  0  0  0
   35.1600   21.4630   38.2850 C   0  0  0  0  0  0  0  0  0  0  0  0
   35.9200   22.1960   39.1550 N   0  0  0  0  0  0  0  0  0  0  0  0
   35.8850   23.5390   39.1850 C   0  0  0  0  0  0  0  0  0  0  0  0
   35.0870   24.2320   38.3430 N   0  0  0  0  0  0  0  0  0  0  0  0
   33.6700   24.0910   36.7820 H   0  0  0  0  0  0  0  0  0  0  0  0
   33.6880   21.6580   36.6790 H   0  0  0  0  0  0  0  0  0  0  0  0
   35.1840   20.3920   38.2570 H   0  0  0  0  0  0  0  0  0  0  0  0
   37.4550   27.7430   41.2560 C   0  0  0  0  0  0  0  0  0  0  0  0
   36.3380   28.4910   41.5430 C   0  0  0  0  0  0  0  0  0  0  0  0
   36.8070   29.8110   41.5520 C   0  0  0  0  0  0  0  0  0  0  0  0
   38.1590   29.7940   41.2770 C   0  0  0  0  0  0  0  0  0  0  0  0
   38.4790   28.5280   41.1110 O   0  0  0  0  0  0  0  0  0  0  0  0
   35.3400   28.1420   41.7180 H   0  0  0  0  0  0  0  0  0  0  0  0
   36.1970   30.6770   41.7450 H   0  0  0  0  0  0  0  0  0  0  0  0
   39.0480   30.9220   41.1850 N   0  0  0  0  0  0  0  0  0  0  0  0
   40.3320   30.9160   41.5780 C   0  0  0  0  0  0  0  0  0  0  0  0
   40.9030   30.1080   42.0130 H   0  0  0  0  0  0  0  0  0  0  0  0
   40.8160   32.1470   41.3300 N   0  0  0  0  0  0  0  0  0  0  0  0
   39.8440   32.9060   40.7890 C   0  0  0  0  0  0  0  0  0  0  0  0
   39.7230   34.2080   40.3340 C   0  0  0  0  0  0  0  0  0  0  0  0
   40.5900   34.8550   40.3910 H   0  0  0  0  0  0  0  0  0  0  0  0
   38.5400   34.6620   39.8260 N   0  0  0  0  0  0  0  0  0  0  0  0
   37.4600   33.8780   39.7490 C   0  0  0  0  0  0  0  0  0  0  0  0
   36.4970   34.1770   39.3580 H   0  0  0  0  0  0  0  0  0  0  0  0
   37.5440   32.6070   40.1830 N   0  0  0  0  0  0  0  0  0  0  0  0
   38.6910   32.1200   40.6900 C   0  0  0  0  0  0  0  0  0  0  0  0
  1  9  1  0  0  0  0
  2  1  2  0  0  0  0
  2  3  1  0  0  0  0
  3  4  2  0  0  0  0
  4  8  1  0  0  0  0
  4  5  1  0  0  0  0
  5 12  1  0  0  0  0
  5  6  1  0  0  0  0
  6 13  1  0  0  0  0
  7  6  2  0  0  0  0
  8  7  1  0  0  0  0
  9 23  1  0  0  0  0
  9  8  2  0  0  0  0
 10  1  1  0  0  0  0
 11  3  1  0  0  0  0
 14 19  1  0  0  0  0
 15 14  2  0  0  0  0
 15 16  1  0  0  0  0
 16 17  2  0  0  0  0
 17 18  1  0  0  0  0
 18  2  1  0  0  0  0
 19 18  2  0  0  0  0
 20 14  1  0  0  0  0
 21 15  1  0  0  0  0
 22 16  1  0  0  0  0
 23 24  2  0  0  0  0
 24 25  1  0  0  0  0
 24 28  1  0  0  0  0
 25 29  1  0  0  0  0
 26 25  2  0  0  0  0
 27 23  1  0  0  0  0
 27 26  1  0  0  0  0
 30 26  1  0  0  0  0
 30 31  1  0  0  0  0
 31 32  1  0  0  0  0
 33 31  2  0  0  0  0
 34 33  1  0  0  0  0
 35 36  1  0  0  0  0
 35 34  2  0  0  0  0
 37 35  1  0  0  0  0
 38 37  2  0  0  0  0
 38 40  1  0  0  0  0
 39 38  1  0  0  0  0
 40 41  2  0  0  0  0
 41 34  1  0  0  0  0
 41 30  1  0  0  0  0
M  END
>  <minimizedAffinity>
-6.52119875

$$$$

 OpenBabel03252506583D

 41 46  0  0  0  0  0  0  0  0999 V2000
   37.2920   26.6220   39.8550 C   0  0  0  0  0  0  0  0  0  0  0  0
   37.0500   25.5670   40.7200 C   0  0  0  0  0  0  0  0  0  0  0  0
   37.0100   25.7140   42.0980 C   0  0  0  0  0  0  0  0  0  0  0  0
   37.2180   26.9730   42.6640 C   0  0  0  0  0  0  0  0  0  0  0  0
   37.2510   27.4800   43.9200 N   0  0  0  0  0  0  0  0  0  0  0  0
   37.5050   28.8110   43.8400 C   0  0  0  0  0  0  0  0  0  0  0  0
   37.6260   29.1060   42.5290 N   0  0  0  0  0  0  0  0  0  0  0  0
   37.4560   28.0050   41.7850 C   0  0  0  0  0  0  0  0  0  0  0  0
   37.5010   27.8870   40.4270 C   0  0  0  0  0  0  0  0  0  0  0  0
   37.3180   26.4810   38.7780 H   0  0  0  0  0  0  0  0  0  0  0  0
   36.8230   24.8980   42.7770 H   0  0  0  0  0  0  0  0  0  0  0  0
   37.1030   26.9220   44.7830 H   0  0  0  0  0  0  0  0  0  0  0  0
   37.6000   29.5240   44.6400 H   0  0  0  0  0  0  0  0  0  0  0  0
   35.5140   22.7280   38.9640 C   0  0  0  0  0  0  0  0  0  0  0  0
   36.4420   21.7160   39.1440 C   0  0  0  0  0  0  0  0  0  0  0  0
   37.6090   22.0080   39.8760 C   0  0  0  0  0  0  0  0  0  0  0  0
   37.7510   23.2780   40.3640 N   0  0  0  0  0  0  0  0  0  0  0  0
   36.8270   24.2330   40.1680 C   0  0  0  0  0  0  0  0  0  0  0  0
   35.7000   23.9750   39.4680 N   0  0  0  0  0  0  0  0  0  0  0  0
   34.6150   22.5080   38.4010 H   0  0  0  0  0  0  0  0  0  0  0  0
   36.2530   20.7350   38.7240 H   0  0  0  0  0  0  0  0  0  0  0  0
   38.3430   21.2430   40.0300 H   0  0  0  0  0  0  0  0  0  0  0  0
   37.7620   29.0490   39.5740 C   0  0  0  0  0  0  0  0  0  0  0  0
   36.8440   29.6290   38.7300 C   0  0  0  0  0  0  0  0  0  0  0  0
   37.5460   30.6880   38.1400 C   0  0  0  0  0  0  0  0  0  0  0  0
   38.8290   30.6960   38.6480 C   0  0  0  0  0  0  0  0  0  0  0  0
   38.8890   29.6920   39.4970 O   0  0  0  0  0  0  0  0  0  0  0  0
   35.8270   29.3350   38.5640 H   0  0  0  0  0  0  0  0  0  0  0  0
   37.1340   31.3680   37.4150 H   0  0  0  0  0  0  0  0  0  0  0  0
   39.8940   31.6070   38.3240 N   0  0  0  0  0  0  0  0  0  0  0  0
   40.8290   31.3880   37.3870 C   0  0  0  0  0  0  0  0  0  0  0  0
   40.9490   30.5320   36.7370 H   0  0  0  0  0  0  0  0  0  0  0  0
   41.6360   32.4650   37.3880 N   0  0  0  0  0  0  0  0  0  0  0  0
   41.2060   33.3410   38.3150 C   0  0  0  0  0  0  0  0  0  0  0  0
   41.5970   34.5860   38.7780 C   0  0  0  0  0  0  0  0  0  0  0  0
   42.4690   35.0490   38.3330 H   0  0  0  0  0  0  0  0  0  0  0  0
   40.9000   35.2120   39.7710 N   0  0  0  0  0  0  0  0  0  0  0  0
   39.8220   34.6540   40.3330 C   0  0  0  0  0  0  0  0  0  0  0  0
   39.2280   35.0970   41.1210 H   0  0  0  0  0  0  0  0  0  0  0  0
   39.4150   33.4450   39.9060 N   0  0  0  0  0  0  0  0  0  0  0  0
   40.0740   32.7950   38.9300 C   0  0  0  0  0  0  0  0  0  0  0  0
  1  9  2  0  0  0  0
  1  2  1  0  0  0  0
  2  3  2  0  0  0  0
  3  4  1  0  0  0  0
  3 11  1  0  0  0  0
  4  5  1  0  0  0  0
  5 12  1  0  0  0  0
  6  5  1  0  0  0  0
  6 13  1  0  0  0  0
  7  6  2  0  0  0  0
  8  7  1  0  0  0  0
  8  4  2  0  0  0  0
  9  8  1  0  0  0  0
 10  1  1  0  0  0  0
 14 15  2  0  0  0  0
 14 19  1  0  0  0  0
 15 16  1  0  0  0  0
 16 22  1  0  0  0  0
 16 17  2  0  0  0  0
 18 17  1  0  0  0  0
 18  2  1  0  0  0  0
 19 18  2  0  0  0  0
 20 14  1  0  0  0  0
 21 15  1  0  0  0  0
 23  9  1  0  0  0  0
 24 23  2  0  0  0  0
 25 26  2  0  0  0  0
 25 24  1  0  0  0  0
 26 27  1  0  0  0  0
 27 23  1  0  0  0  0
 28 24  1  0  0  0  0
 29 25  1  0  0  0  0
 30 26  1  0  0  0  0
 30 41  1  0  0  0  0
 31 33  2  0  0  0  0
 31 30  1  0  0  0  0
 32 31  1  0  0  0  0
 33 34  1  0  0  0  0
 34 35  2  0  0  0  0
 34 41  1  0  0  0  0
 35 37  1  0  0  0  0
 36 35  1  0  0  0  0
 37 38  2  0  0  0  0
 38 39  1  0  0  0  0
 40 38  1  0  0  0  0
 41 40  2  0  0  0  0
M  END
>  <minimizedAffinity>
-6.47638369

$$$$

 OpenBabel03252506583D

 41 46  0  0  0  0  0  0  0  0999 V2000
   37.1780   27.4630   39.4540 C   0  0  0  0  0  0  0  0  0  0  0  0
   37.0210   26.2080   40.0180 C   0  0  0  0  0  0  0  0  0  0  0  0
   37.0140   25.9900   41.3880 C   0  0  0  0  0  0  0  0  0  0  0  0
   37.1690   27.0710   42.2590 C   0  0  0  0  0  0  0  0  0  0  0  0
   37.2130   27.2370   43.6020 N   0  0  0  0  0  0  0  0  0  0  0  0
   37.3900   28.5560   43.8670 C   0  0  0  0  0  0  0  0  0  0  0  0
   37.4550   29.1870   42.6760 N   0  0  0  0  0  0  0  0  0  0  0  0
   37.3240   28.3080   41.6740 C   0  0  0  0  0  0  0  0  0  0  0  0
   37.3340   28.5470   40.3310 C   0  0  0  0  0  0  0  0  0  0  0  0
   37.1790   27.6070   38.3770 H   0  0  0  0  0  0  0  0  0  0  0  0
   36.8930   25.0170   41.8350 H   0  0  0  0  0  0  0  0  0  0  0  0
   37.1220   26.4670   44.2930 H   0  0  0  0  0  0  0  0  0  0  0  0
   37.4690   29.0430   44.8230 H   0  0  0  0  0  0  0  0  0  0  0  0
   37.4340   23.8590   37.2230 C   0  0  0  0  0  0  0  0  0  0  0  0
   36.5180   22.8630   37.5200 C   0  0  0  0  0  0  0  0  0  0  0  0
   35.7490   22.9970   38.6920 C   0  0  0  0  0  0  0  0  0  0  0  0
   35.9560   24.1060   39.4650 N   0  0  0  0  0  0  0  0  0  0  0  0
   36.8550   25.0500   39.1420 C   0  0  0  0  0  0  0  0  0  0  0  0
   37.6050   24.9430   38.0230 N   0  0  0  0  0  0  0  0  0  0  0  0
   38.0280   23.7600   36.3230 H   0  0  0  0  0  0  0  0  0  0  0  0
   36.4150   22.0140   36.8540 H   0  0  0  0  0  0  0  0  0  0  0  0
   35.0330   22.2400   38.9440 H   0  0  0  0  0  0  0  0  0  0  0  0
   37.5040   29.9050   39.8060 C   0  0  0  0  0  0  0  0  0  0  0  0
   36.6130   30.5470   38.9790 C   0  0  0  0  0  0  0  0  0  0  0  0
   37.2010   31.7980   38.7520 C   0  0  0  0  0  0  0  0  0  0  0  0
   38.3950   31.8490   39.4420 C   0  0  0  0  0  0  0  0  0  0  0  0
   38.5140   30.6860   40.0480 O   0  0  0  0  0  0  0  0  0  0  0  0
   35.6850   30.1720   38.5960 H   0  0  0  0  0  0  0  0  0  0  0  0
   36.7750   32.5730   38.1390 H   0  0  0  0  0  0  0  0  0  0  0  0
   39.3300   32.9410   39.4950 N   0  0  0  0  0  0  0  0  0  0  0  0
   39.2390   33.9850   40.3350 C   0  0  0  0  0  0  0  0  0  0  0  0
   38.4860   34.1860   41.0850 H   0  0  0  0  0  0  0  0  0  0  0  0
   40.2910   34.7810   40.0760 N   0  0  0  0  0  0  0  0  0  0  0  0
   41.0270   34.2380   39.0870 C   0  0  0  0  0  0  0  0  0  0  0  0
   42.1830   34.5650   38.4000 C   0  0  0  0  0  0  0  0  0  0  0  0
   42.6950   35.4830   38.6630 H   0  0  0  0  0  0  0  0  0  0  0  0
   42.6650   33.7500   37.4170 N   0  0  0  0  0  0  0  0  0  0  0  0
   42.0460   32.6140   37.0780 C   0  0  0  0  0  0  0  0  0  0  0  0
   42.3750   31.9270   36.3110 H   0  0  0  0  0  0  0  0  0  0  0  0
   40.9190   32.2670   37.7260 N   0  0  0  0  0  0  0  0  0  0  0  0
   40.4120   33.0420   38.7020 C   0  0  0  0  0  0  0  0  0  0  0  0
  1  2  2  0  0  0  0
  1  9  1  0  0  0  0
  2  3  1  0  0  0  0
  3 11  1  0  0  0  0
  3  4  2  0  0  0  0
  4  5  1  0  0  0  0
  5  6  1  0  0  0  0
  5 12  1  0  0  0  0
  6 13  1  0  0  0  0
  7  6  2  0  0  0  0
  8  4  1  0  0  0  0
  8  7  1  0  0  0  0
  9  8  2  0  0  0  0
 10  1  1  0  0  0  0
 14 15  2  0  0  0  0
 14 19  1  0  0  0  0
 15 16  1  0  0  0  0
 16 22  1  0  0  0  0
 16 17  2  0  0  0  0
 18 17  1  0  0  0  0
 18  2  1  0  0  0  0
 19 18  2  0  0  0  0
 20 14  1  0  0  0  0
 21 15  1  0  0  0  0
 23 27  1  0  0  0  0
 23  9  1  0  0  0  0
 24 23  2  0  0  0  0
 25 24  1  0  0  0  0
 25 26  2  0  0  0  0
 26 30  1  0  0  0  0
 26 27  1  0  0  0  0
 28 24  1  0  0  0  0
 29 25  1  0  0  0  0
 30 31  1  0  0  0  0
 31 32  1  0  0  0  0
 33 31  2  0  0  0  0
 34 33  1  0  0  0  0
 35 36  1  0  0  0  0
 35 34  2  0  0  0  0
 37 35  1  0  0  0  0
 38 37  2  0  0  0  0
 38 40  1  0  0  0  0
 39 38  1  0  0  0  0
 40 41  2  0  0  0  0
 41 34  1  0  0  0  0
 41 30  1  0  0  0  0
M  END
>  <minimizedAffinity>
-6.42494106

$$$$

 OpenBabel03252506583D

 41 46  0  0  0  0  0  0  0  0999 V2000
   38.2060   28.6370   40.9060 C   0  0  0  0  0  0  0  0  0  0  0  0
   37.8600   27.2960   40.9130 C   0  0  0  0  0  0  0  0  0  0  0  0
   36.8660   26.7680   40.1030 C   0  0  0  0  0  0  0  0  0  0  0  0
   36.1700   27.6060   39.2300 C   0  0  0  0  0  0  0  0  0  0  0  0
   35.1750   27.4540   38.3240 N   0  0  0  0  0  0  0  0  0  0  0  0
   34.9100   28.6630   37.7680 C   0  0  0  0  0  0  0  0  0  0  0  0
   35.7500   29.5480   38.3430 N   0  0  0  0  0  0  0  0  0  0  0  0
   36.5320   28.9340   39.2410 C   0  0  0  0  0  0  0  0  0  0  0  0
   37.5040   29.4780   40.0280 C   0  0  0  0  0  0  0  0  0  0  0  0
   38.9890   29.0270   41.5510 H   0  0  0  0  0  0  0  0  0  0  0  0
   36.5910   25.7260   40.1030 H   0  0  0  0  0  0  0  0  0  0  0  0
   34.7090   26.5500   38.1080 H   0  0  0  0  0  0  0  0  0  0  0  0
   34.1820   28.9090   37.0150 H   0  0  0  0  0  0  0  0  0  0  0  0
   39.8410   26.0070   43.7260 C   0  0  0  0  0  0  0  0  0  0  0  0
   39.8780   24.6450   43.4790 C   0  0  0  0  0  0  0  0  0  0  0  0
   39.2140   24.1610   42.3350 C   0  0  0  0  0  0  0  0  0  0  0  0
   38.5760   25.0700   41.5380 N   0  0  0  0  0  0  0  0  0  0  0  0
   38.5650   26.3850   41.8120 C   0  0  0  0  0  0  0  0  0  0  0  0
   39.1940   26.8720   42.9050 N   0  0  0  0  0  0  0  0  0  0  0  0
   40.3500   26.3850   44.6050 H   0  0  0  0  0  0  0  0  0  0  0  0
   40.4060   23.9910   44.1620 H   0  0  0  0  0  0  0  0  0  0  0  0
   39.2270   23.1100   42.1210 H   0  0  0  0  0  0  0  0  0  0  0  0
   37.8170   30.9080   39.9650 C   0  0  0  0  0  0  0  0  0  0  0  0
   36.8860   31.9190   39.9720 C   0  0  0  0  0  0  0  0  0  0  0  0
   37.6530   33.0890   39.8980 C   0  0  0  0  0  0  0  0  0  0  0  0
   38.9860   32.7320   39.8540 C   0  0  0  0  0  0  0  0  0  0  0  0
   39.0110   31.4170   39.8970 O   0  0  0  0  0  0  0  0  0  0  0  0
   35.8190   31.8300   40.0200 H   0  0  0  0  0  0  0  0  0  0  0  0
   37.2500   34.0870   39.8820 H   0  0  0  0  0  0  0  0  0  0  0  0
   40.1240   33.6080   39.7750 N   0  0  0  0  0  0  0  0  0  0  0  0
   40.3560   34.6370   40.6050 C   0  0  0  0  0  0  0  0  0  0  0  0
   39.7610   34.9800   41.4400 H   0  0  0  0  0  0  0  0  0  0  0  0
   41.5090   35.2030   40.2060 N   0  0  0  0  0  0  0  0  0  0  0  0
   41.9880   34.5320   39.1410 C   0  0  0  0  0  0  0  0  0  0  0  0
   43.0920   34.6220   38.3100 C   0  0  0  0  0  0  0  0  0  0  0  0
   43.8100   35.4110   38.4940 H   0  0  0  0  0  0  0  0  0  0  0  0
   43.2680   33.7370   37.2860 N   0  0  0  0  0  0  0  0  0  0  0  0
   42.3910   32.7570   37.0440 C   0  0  0  0  0  0  0  0  0  0  0  0
   42.4740   32.0260   36.2500 H   0  0  0  0  0  0  0  0  0  0  0  0
   41.3070   32.6420   37.8320 N   0  0  0  0  0  0  0  0  0  0  0  0
   41.0960   33.4930   38.8530 C   0  0  0  0  0  0  0  0  0  0  0  0
  1  2  1  0  0  0  0
  1 10  1  0  0  0  0
  2 18  1  0  0  0  0
  3  2  2  0  0  0  0
  4  8  2  0  0  0  0
  4  3  1  0  0  0  0
  5  4  1  0  0  0  0
  6  5  1  0  0  0  0
  6  7  2  0  0  0  0
  7  8  1  0  0  0  0
  8  9  1  0  0  0  0
  9  1  2  0  0  0  0
 11  3  1  0  0  0  0
 12  5  1  0  0  0  0
 13  6  1  0  0  0  0
 14 20  1  0  0  0  0
 15 14  1  0  0  0  0
 15 21  1  0  0  0  0
 16 15  2  0  0  0  0
 17 18  2  0  0  0  0
 17 16  1  0  0  0  0
 18 19  1  0  0  0  0
 19 14  2  0  0  0  0
 22 16  1  0  0  0  0
 23 24  2  0  0  0  0
 23  9  1  0  0  0  0
 24 28  1  0  0  0  0
 25 24  1  0  0  0  0
 26 27  1  0  0  0  0
 26 25  2  0  0  0  0
 27 23  1  0  0  0  0
 29 25  1  0  0  0  0
 30 26  1  0  0  0  0
 30 31  1  0  0  0  0
 31 32  1  0  0  0  0
 33 31  2  0  0  0  0
 34 33  1  0  0  0  0
 35 36  1  0  0  0  0
 35 34  2  0  0  0  0
 37 35  1  0  0  0  0
 38 37  2  0  0  0  0
 38 40  1  0  0  0  0
 39 38  1  0  0  0  0
 40 41  2  0  0  0  0
 41 34  1  0  0  0  0
 41 30  1  0  0  0  0
M  END
>  <minimizedAffinity>
-6.33747482

$$$$
