
 OpenBabel03252501523D

 48 52  0  0  1  0  0  0  0  0999 V2000
   36.7980   28.4990   39.2860 C   0  0  0  0  0  0  0  0  0  0  0  0
   37.8120   28.7070   38.8810 H   0  0  0  0  0  0  0  0  0  0  0  0
   36.6690   27.4140   39.3200 H   0  0  0  0  0  0  0  0  0  0  0  0
   36.7040   29.1390   40.5730 N   0  0  0  0  0  0  0  0  0  0  0  0
   36.3630   28.1980   41.5830 C   0  0  0  0  0  0  0  0  0  0  0  0
   37.0720   28.5870   42.8480 C   0  0  0  0  0  0  0  0  0  0  0  0
   38.1920   29.4450   42.3630 C   0  0  0  0  0  0  0  0  0  0  0  0
   37.9510   29.7350   40.9190 C   0  0  2  0  0  0  0  0  0  0  0  0
   36.7410   27.1740   41.3110 H   0  0  0  0  0  0  0  0  0  0  0  0
   35.2540   28.1220   41.7050 H   0  0  0  0  0  0  0  0  0  0  0  0
   36.3330   29.1150   43.4910 H   0  0  0  0  0  0  0  0  0  0  0  0
   37.4450   27.7180   43.4230 H   0  0  0  0  0  0  0  0  0  0  0  0
   39.2110   29.0540   42.5890 H   0  0  0  0  0  0  0  0  0  0  0  0
   38.1320   30.4200   42.9190 H   0  0  0  0  0  0  0  0  0  0  0  0
   38.7510   29.2050   40.3630 H   0  0  0  0  0  0  0  0  0  0  0  0
   38.0680   31.1380   40.5960 N   0  0  0  0  0  0  0  0  0  0  0  0
   37.0110   31.9220   40.2930 C   0  0  0  0  0  0  0  0  0  0  0  0
   35.9490   31.6540   40.2430 H   0  0  0  0  0  0  0  0  0  0  0  0
   37.4580   33.1670   40.0410 N   0  0  0  0  0  0  0  0  0  0  0  0
   38.7740   33.1660   40.1830 C   0  0  0  0  0  0  0  0  0  0  0  0
   39.8180   34.0770   40.0750 C   0  0  0  0  0  0  0  0  0  0  0  0
   39.5740   35.1060   39.8010 H   0  0  0  0  0  0  0  0  0  0  0  0
   41.1110   33.8070   40.2790 N   0  0  0  0  0  0  0  0  0  0  0  0
   41.4630   32.5560   40.6190 C   0  0  0  0  0  0  0  0  0  0  0  0
   42.4370   32.1350   40.8250 H   0  0  0  0  0  0  0  0  0  0  0  0
   40.5070   31.5910   40.7490 N   0  0  0  0  0  0  0  0  0  0  0  0
   39.1980   31.9020   40.5330 C   0  0  0  0  0  0  0  0  0  0  0  0
   34.7180   28.4090   37.9720 C   0  0  0  0  0  3  0  0  0  0  0  0
   35.8270   29.0970   38.2970 C   0  0  0  0  0  3  0  0  0  0  0  0
   32.4260   29.3480   37.3400 C   0  0  0  0  0  0  0  0  0  0  0  0
   33.7460   28.9740   37.0030 C   0  0  0  0  0  0  0  0  0  0  0  0
   34.1840   29.1410   35.6690 C   0  0  0  0  0  0  0  0  0  0  0  0
   33.3030   29.6550   34.7760 N   0  0  0  0  0  0  0  0  0  0  0  0
   32.0690   29.9940   35.1300 C   0  0  0  0  0  0  0  0  0  0  0  0
   31.6580   29.8350   36.3960 N   0  0  0  0  0  0  0  0  0  0  0  0
   32.1730   29.1900   38.3730 H   0  0  0  0  0  0  0  0  0  0  0  0
   35.1630   28.8800   35.3500 H   0  0  0  0  0  0  0  0  0  0  0  0
   31.4410   32.6850   35.0190 F   0  0  0  0  0  0  0  0  0  0  0  0
   30.8610   31.8920   34.0980 C   0  0  0  0  0  0  0  0  0  0  0  0
   31.1560   30.5440   34.1270 C   0  0  0  0  0  0  0  0  0  0  0  0
   30.6020   29.6450   33.2120 C   0  0  0  0  0  0  0  0  0  0  0  0
   29.7330   30.1590   32.2550 C   0  0  0  0  0  0  0  0  0  0  0  0
   29.4230   31.5350   32.2120 C   0  0  0  0  0  0  0  0  0  0  0  0
   29.9970   32.3890   33.1430 C   0  0  0  0  0  0  0  0  0  0  0  0
   30.8200   28.5870   33.2200 H   0  0  0  0  0  0  0  0  0  0  0  0
   29.2730   29.5200   31.5200 H   0  0  0  0  0  0  0  0  0  0  0  0
   28.7450   31.9160   31.4600 H   0  0  0  0  0  0  0  0  0  0  0  0
   29.7700   33.4320   33.1200 H   0  0  0  0  0  0  0  0  0  0  0  0
  1  3  1  0  0  0  0
  1  4  1  0  0  0  0
  2  1  1  0  0  0  0
  4  8  1  0  0  0  0
  4  5  1  0  0  0  0
  5 10  1  0  0  0  0
  5  6  1  0  0  0  0
  6 12  1  0  0  0  0
  6 11  1  0  0  0  0
  7 13  1  0  0  0  0
  7  6  1  0  0  0  0
  7 14  1  0  0  0  0
  8 15  1  6  0  0  0
  8  7  1  0  0  0  0
  9  5  1  0  0  0  0
 16  8  1  0  0  0  0
 17 16  1  0  0  0  0
 18 17  1  0  0  0  0
 19 20  1  0  0  0  0
 19 17  2  0  0  0  0
 20 27  1  0  0  0  0
 21 20  2  0  0  0  0
 21 23  1  0  0  0  0
 22 21  1  0  0  0  0
 23 24  2  0  0  0  0
 24 26  1  0  0  0  0
 24 25  1  0  0  0  0
 27 16  1  0  0  0  0
 27 26  2  0  0  0  0
 28 29  2  0  0  0  0
 29  1  1  0  0  0  0
 30 36  1  0  0  0  0
 31 30  1  0  0  0  0
 31 28  1  0  0  0  0
 32 31  2  0  0  0  0
 33 34  2  0  0  0  0
 33 32  1  0  0  0  0
 34 35  1  0  0  0  0
 35 30  2  0  0  0  0
 37 32  1  0  0  0  0
 39 40  1  0  0  0  0
 39 38  1  0  0  0  0
 40 34  1  0  0  0  0
 41 45  1  0  0  0  0
 41 40  2  0  0  0  0
 42 41  1  0  0  0  0
 43 42  2  0  0  0  0
 43 44  1  0  0  0  0
 44 39  2  0  0  0  0
 46 42  1  0  0  0  0
 47 43  1  0  0  0  0
 48 44  1  0  0  0  0
M  END
>  <minimizedAffinity>
-6.45110607

$$$$

 OpenBabel03252501523D

 48 52  0  0  1  0  0  0  0  0999 V2000
   36.9460   28.3600   39.4130 C   0  0  0  0  0  0  0  0  0  0  0  0
   37.9860   28.5280   39.0570 H   0  0  0  0  0  0  0  0  0  0  0  0
   36.7810   27.2810   39.4580 H   0  0  0  0  0  0  0  0  0  0  0  0
   36.8100   29.0260   40.6830 N   0  0  0  0  0  0  0  0  0  0  0  0
   36.4840   28.0980   41.7090 C   0  0  0  0  0  0  0  0  0  0  0  0
   37.1580   28.5400   42.9750 C   0  0  0  0  0  0  0  0  0  0  0  0
   38.2560   29.4250   42.4880 C   0  0  0  0  0  0  0  0  0  0  0  0
   38.0290   29.6730   41.0350 C   0  0  2  0  0  0  0  0  0  0  0  0
   36.9020   27.0820   41.4680 H   0  0  0  0  0  0  0  0  0  0  0  0
   35.3770   27.9860   41.8150 H   0  0  0  0  0  0  0  0  0  0  0  0
   36.3910   29.0570   43.5950 H   0  0  0  0  0  0  0  0  0  0  0  0
   37.5520   27.6980   43.5770 H   0  0  0  0  0  0  0  0  0  0  0  0
   39.2840   29.0750   42.7390 H   0  0  0  0  0  0  0  0  0  0  0  0
   38.1540   30.4100   43.0200 H   0  0  0  0  0  0  0  0  0  0  0  0
   38.8570   29.1580   40.5030 H   0  0  0  0  0  0  0  0  0  0  0  0
   38.1040   31.0710   40.6800 N   0  0  0  0  0  0  0  0  0  0  0  0
   37.0230   31.8150   40.3560 C   0  0  0  0  0  0  0  0  0  0  0  0
   35.9700   31.5120   40.3090 H   0  0  0  0  0  0  0  0  0  0  0  0
   37.4320   33.0670   40.0770 N   0  0  0  0  0  0  0  0  0  0  0  0
   38.7460   33.1110   40.2230 C   0  0  0  0  0  0  0  0  0  0  0  0
   39.7620   34.0510   40.0980 C   0  0  0  0  0  0  0  0  0  0  0  0
   39.4870   35.0670   39.8000 H   0  0  0  0  0  0  0  0  0  0  0  0
   41.0620   33.8270   40.3130 N   0  0  0  0  0  0  0  0  0  0  0  0
   41.4520   32.5970   40.6820 C   0  0  0  0  0  0  0  0  0  0  0  0
   42.4380   32.2110   40.9010 H   0  0  0  0  0  0  0  0  0  0  0  0
   40.5260   31.6040   40.8300 N   0  0  0  0  0  0  0  0  0  0  0  0
   39.2090   31.8690   40.6040 C   0  0  0  0  0  0  0  0  0  0  0  0
   34.9180   28.3280   38.0190 C   0  0  0  0  0  3  0  0  0  0  0  0
   36.0460   28.9710   38.3670 C   0  0  0  0  0  3  0  0  0  0  0  0
   34.3780   29.1010   35.6430 C   0  0  0  0  0  0  0  0  0  0  0  0
   34.0150   28.9070   36.9940 C   0  0  0  0  0  0  0  0  0  0  0  0
   32.7170   29.2820   37.4120 C   0  0  0  0  0  0  0  0  0  0  0  0
   31.8840   29.8140   36.4840 N   0  0  0  0  0  0  0  0  0  0  0  0
   32.2630   29.9820   35.2230 C   0  0  0  0  0  0  0  0  0  0  0  0
   33.4930   29.6240   34.8290 N   0  0  0  0  0  0  0  0  0  0  0  0
   35.3800   28.7890   35.4060 H   0  0  0  0  0  0  0  0  0  0  0  0
   32.3810   29.1640   38.4130 H   0  0  0  0  0  0  0  0  0  0  0  0
   30.8450   28.4330   33.4230 F   0  0  0  0  0  0  0  0  0  0  0  0
   30.6330   29.7620   33.3730 C   0  0  0  0  0  0  0  0  0  0  0  0
   31.3260   30.5610   34.2590 C   0  0  0  0  0  0  0  0  0  0  0  0
   31.1710   31.9500   34.2810 C   0  0  0  0  0  0  0  0  0  0  0  0
   30.2820   32.5100   33.3680 C   0  0  0  0  0  0  0  0  0  0  0  0
   29.5660   31.7060   32.4570 C   0  0  0  0  0  0  0  0  0  0  0  0
   29.7530   30.3310   32.4720 C   0  0  0  0  0  0  0  0  0  0  0  0
   31.7050   32.5910   34.9660 H   0  0  0  0  0  0  0  0  0  0  0  0
   30.1170   33.5740   33.3330 H   0  0  0  0  0  0  0  0  0  0  0  0
   28.8790   32.1590   31.7550 H   0  0  0  0  0  0  0  0  0  0  0  0
   29.2180   29.7110   31.7870 H   0  0  0  0  0  0  0  0  0  0  0  0
  1  3  1  0  0  0  0
  1  4  1  0  0  0  0
  2  1  1  0  0  0  0
  4  8  1  0  0  0  0
  4  5  1  0  0  0  0
  5 10  1  0  0  0  0
  5  6  1  0  0  0  0
  6 12  1  0  0  0  0
  6 11  1  0  0  0  0
  7 13  1  0  0  0  0
  7  6  1  0  0  0  0
  7 14  1  0  0  0  0
  8 15  1  6  0  0  0
  8  7  1  0  0  0  0
  9  5  1  0  0  0  0
 16  8  1  0  0  0  0
 17 16  1  0  0  0  0
 18 17  1  0  0  0  0
 19 20  1  0  0  0  0
 19 17  2  0  0  0  0
 20 27  1  0  0  0  0
 21 20  2  0  0  0  0
 21 23  1  0  0  0  0
 22 21  1  0  0  0  0
 23 24  2  0  0  0  0
 24 26  1  0  0  0  0
 24 25  1  0  0  0  0
 27 16  1  0  0  0  0
 27 26  2  0  0  0  0
 28 29  2  0  0  0  0
 29  1  1  0  0  0  0
 30 31  1  0  0  0  0
 31 32  2  0  0  0  0
 31 28  1  0  0  0  0
 32 37  1  0  0  0  0
 33 32  1  0  0  0  0
 34 33  2  0  0  0  0
 35 34  1  0  0  0  0
 35 30  2  0  0  0  0
 36 30  1  0  0  0  0
 39 38  1  0  0  0  0
 39 40  1  0  0  0  0
 40 41  2  0  0  0  0
 40 34  1  0  0  0  0
 41 45  1  0  0  0  0
 42 41  1  0  0  0  0
 43 44  1  0  0  0  0
 43 42  2  0  0  0  0
 44 39  2  0  0  0  0
 46 42  1  0  0  0  0
 47 43  1  0  0  0  0
 48 44  1  0  0  0  0
M  END
>  <minimizedAffinity>
-6.37535477

$$$$

 OpenBabel03252501523D

 48 52  0  0  1  0  0  0  0  0999 V2000
   36.5390   28.2140   38.7860 C   0  0  0  0  0  0  0  0  0  0  0  0
   37.2990   27.6960   38.1620 H   0  0  0  0  0  0  0  0  0  0  0  0
   36.0060   27.4530   39.3620 H   0  0  0  0  0  0  0  0  0  0  0  0
   37.2310   29.1820   39.5970 N   0  0  0  0  0  0  0  0  0  0  0  0
   36.8490   30.5050   39.2450 C   0  0  0  0  0  0  0  0  0  0  0  0
   36.8340   31.3400   40.4920 C   0  0  0  0  0  0  0  0  0  0  0  0
   36.7160   30.3270   41.5810 C   0  0  0  0  0  0  0  0  0  0  0  0
   36.9270   28.9800   40.9750 C   0  0  2  0  0  0  0  0  0  0  0  0
   35.7970   30.5170   38.8450 H   0  0  0  0  0  0  0  0  0  0  0  0
   37.5130   30.9170   38.4460 H   0  0  0  0  0  0  0  0  0  0  0  0
   37.7820   31.9250   40.5090 H   0  0  0  0  0  0  0  0  0  0  0  0
   36.0000   32.0670   40.5210 H   0  0  0  0  0  0  0  0  0  0  0  0
   35.7930   30.4120   42.2000 H   0  0  0  0  0  0  0  0  0  0  0  0
   37.5590   30.5100   42.3020 H   0  0  0  0  0  0  0  0  0  0  0  0
   35.9490   28.4600   41.0370 H   0  0  0  0  0  0  0  0  0  0  0  0
   37.8830   28.1760   41.7000 N   0  0  0  0  0  0  0  0  0  0  0  0
   38.9320   28.6950   42.3750 C   0  0  0  0  0  0  0  0  0  0  0  0
   39.2240   29.7460   42.4870 H   0  0  0  0  0  0  0  0  0  0  0  0
   39.6240   27.6850   42.9340 N   0  0  0  0  0  0  0  0  0  0  0  0
   39.0220   26.5500   42.6170 C   0  0  0  0  0  0  0  0  0  0  0  0
   39.2010   25.1920   42.8530 C   0  0  0  0  0  0  0  0  0  0  0  0
   40.0550   24.8860   43.4640 H   0  0  0  0  0  0  0  0  0  0  0  0
   38.4150   24.2120   42.3970 N   0  0  0  0  0  0  0  0  0  0  0  0
   37.3530   24.5350   41.6420 C   0  0  0  0  0  0  0  0  0  0  0  0
   36.6040   23.9060   41.1820 H   0  0  0  0  0  0  0  0  0  0  0  0
   37.0940   25.8440   41.3550 N   0  0  0  0  0  0  0  0  0  0  0  0
   37.9170   26.8180   41.8370 C   0  0  0  0  0  0  0  0  0  0  0  0
   34.3730   28.3430   37.6250 C   0  0  0  0  0  3  0  0  0  0  0  0
   35.5910   28.8790   37.8180 C   0  0  0  0  0  3  0  0  0  0  0  0
   32.0960   29.3350   37.0170 C   0  0  0  0  0  0  0  0  0  0  0  0
   33.4200   28.9770   36.6800 C   0  0  0  0  0  0  0  0  0  0  0  0
   33.8820   29.2300   35.3670 C   0  0  0  0  0  0  0  0  0  0  0  0
   33.0190   29.8070   34.4950 N   0  0  0  0  0  0  0  0  0  0  0  0
   31.7810   30.1280   34.8500 C   0  0  0  0  0  0  0  0  0  0  0  0
   31.3470   29.8880   36.0950 N   0  0  0  0  0  0  0  0  0  0  0  0
   31.8240   29.1100   38.0330 H   0  0  0  0  0  0  0  0  0  0  0  0
   34.8660   28.9850   35.0480 H   0  0  0  0  0  0  0  0  0  0  0  0
   31.3560   32.8590   34.7570 F   0  0  0  0  0  0  0  0  0  0  0  0
   30.6950   32.1150   33.8490 C   0  0  0  0  0  0  0  0  0  0  0  0
   30.8880   30.7480   33.8700 C   0  0  0  0  0  0  0  0  0  0  0  0
   30.2460   29.8960   32.9670 C   0  0  0  0  0  0  0  0  0  0  0  0
   29.3950   30.4780   32.0320 C   0  0  0  0  0  0  0  0  0  0  0  0
   29.1890   31.8730   31.9980 C   0  0  0  0  0  0  0  0  0  0  0  0
   29.8480   32.6790   32.9160 C   0  0  0  0  0  0  0  0  0  0  0  0
   30.3830   28.8250   32.9680 H   0  0  0  0  0  0  0  0  0  0  0  0
   28.8700   29.8770   31.3080 H   0  0  0  0  0  0  0  0  0  0  0  0
   28.5230   32.3060   31.2640 H   0  0  0  0  0  0  0  0  0  0  0  0
   29.7000   33.7360   32.9000 H   0  0  0  0  0  0  0  0  0  0  0  0
  1  3  1  0  0  0  0
  1  4  1  0  0  0  0
  2  1  1  0  0  0  0
  4  8  1  0  0  0  0
  5  4  1  0  0  0  0
  5  6  1  0  0  0  0
  6 11  1  0  0  0  0
  6 12  1  0  0  0  0
  6  7  1  0  0  0  0
  7 13  1  0  0  0  0
  7 14  1  0  0  0  0
  8 15  1  1  0  0  0
  8  7  1  0  0  0  0
  8 16  1  0  0  0  0
  9  5  1  0  0  0  0
 10  5  1  0  0  0  0
 16 27  1  0  0  0  0
 16 17  1  0  0  0  0
 17 18  1  0  0  0  0
 17 19  2  0  0  0  0
 20 21  1  0  0  0  0
 20 19  1  0  0  0  0
 21 22  1  0  0  0  0
 23 21  2  0  0  0  0
 24 23  1  0  0  0  0
 25 24  1  0  0  0  0
 26 24  2  0  0  0  0
 26 27  1  0  0  0  0
 27 20  2  0  0  0  0
 28 29  2  0  0  0  0
 29  1  1  0  0  0  0
 30 36  1  0  0  0  0
 31 30  1  0  0  0  0
 31 28  1  0  0  0  0
 32 31  2  0  0  0  0
 33 34  2  0  0  0  0
 33 32  1  0  0  0  0
 34 35  1  0  0  0  0
 35 30  2  0  0  0  0
 37 32  1  0  0  0  0
 39 40  1  0  0  0  0
 39 38  1  0  0  0  0
 40 34  1  0  0  0  0
 41 45  1  0  0  0  0
 41 40  2  0  0  0  0
 42 41  1  0  0  0  0
 43 42  2  0  0  0  0
 43 44  1  0  0  0  0
 44 39  2  0  0  0  0
 46 42  1  0  0  0  0
 47 43  1  0  0  0  0
 48 44  1  0  0  0  0
M  END
>  <minimizedAffinity>
-6.3535018

$$$$

 OpenBabel03252501523D

 48 52  0  0  1  0  0  0  0  0999 V2000
   42.9340   32.7530   42.1880 C   0  0  0  0  0  0  0  0  0  0  0  0
   43.9710   32.3780   42.3290 H   0  0  0  0  0  0  0  0  0  0  0  0
   42.6050   33.1840   43.1360 H   0  0  0  0  0  0  0  0  0  0  0  0
   42.9560   33.6900   41.0950 N   0  0  0  0  0  0  0  0  0  0  0  0
   44.2710   33.8290   40.5730 C   0  0  0  0  0  0  0  0  0  0  0  0
   44.1700   34.0330   39.0900 C   0  0  0  0  0  0  0  0  0  0  0  0
   42.8210   33.4890   38.7600 C   0  0  0  0  0  0  0  0  0  0  0  0
   42.1030   33.2450   40.0450 C   0  0  2  0  0  0  0  0  0  0  0  0
   44.8560   32.8800   40.7230 H   0  0  0  0  0  0  0  0  0  0  0  0
   44.8270   34.6480   41.0940 H   0  0  0  0  0  0  0  0  0  0  0  0
   44.2870   35.1230   38.8970 H   0  0  0  0  0  0  0  0  0  0  0  0
   44.9670   33.5130   38.5230 H   0  0  0  0  0  0  0  0  0  0  0  0
   42.8250   32.6190   38.0640 H   0  0  0  0  0  0  0  0  0  0  0  0
   42.2620   34.2930   38.2070 H   0  0  0  0  0  0  0  0  0  0  0  0
   41.9980   32.1430   40.1320 H   0  0  0  0  0  0  0  0  0  0  0  0
   40.7700   33.8000   40.0640 N   0  0  0  0  0  0  0  0  0  0  0  0
   40.5070   35.0940   40.3500 C   0  0  0  0  0  0  0  0  0  0  0  0
   41.2090   35.8980   40.5990 H   0  0  0  0  0  0  0  0  0  0  0  0
   39.1760   35.2860   40.2850 N   0  0  0  0  0  0  0  0  0  0  0  0
   38.6110   34.1340   39.9640 C   0  0  0  0  0  0  0  0  0  0  0  0
   37.3280   33.6460   39.7420 C   0  0  0  0  0  0  0  0  0  0  0  0
   36.4910   34.3430   39.8380 H   0  0  0  0  0  0  0  0  0  0  0  0
   37.0190   32.3870   39.4180 N   0  0  0  0  0  0  0  0  0  0  0  0
   38.0110   31.4920   39.2870 C   0  0  0  0  0  0  0  0  0  0  0  0
   37.9780   30.4420   39.0350 H   0  0  0  0  0  0  0  0  0  0  0  0
   39.3060   31.8770   39.4860 N   0  0  0  0  0  0  0  0  0  0  0  0
   39.5850   33.1690   39.8160 C   0  0  0  0  0  0  0  0  0  0  0  0
   41.1320   31.1620   42.7170 C   0  0  0  0  0  3  0  0  0  0  0  0
   42.0970   31.5400   41.8610 C   0  0  0  0  0  3  0  0  0  0  0  0
   38.9210   29.8780   42.7420 C   0  0  0  0  0  0  0  0  0  0  0  0
   40.2930   29.9740   42.4200 C   0  0  0  0  0  0  0  0  0  0  0  0
   40.9210   28.8830   41.7760 C   0  0  0  0  0  0  0  0  0  0  0  0
   40.1650   27.7920   41.5020 N   0  0  0  0  0  0  0  0  0  0  0  0
   38.8770   27.7390   41.8220 C   0  0  0  0  0  0  0  0  0  0  0  0
   38.2850   28.7750   42.4300 N   0  0  0  0  0  0  0  0  0  0  0  0
   38.5200   30.7490   43.2280 H   0  0  0  0  0  0  0  0  0  0  0  0
   41.9490   28.8900   41.5070 H   0  0  0  0  0  0  0  0  0  0  0  0
   38.9550   25.4700   43.4010 F   0  0  0  0  0  0  0  0  0  0  0  0
   38.1640   25.4190   42.3120 C   0  0  0  0  0  0  0  0  0  0  0  0
   38.1040   26.5370   41.5040 C   0  0  0  0  0  0  0  0  0  0  0  0
   37.3120   26.5770   40.3530 C   0  0  0  0  0  0  0  0  0  0  0  0
   36.5740   25.4390   40.0440 C   0  0  0  0  0  0  0  0  0  0  0  0
   36.6250   24.2900   40.8600 C   0  0  0  0  0  0  0  0  0  0  0  0
   37.4270   24.2960   41.9930 C   0  0  0  0  0  0  0  0  0  0  0  0
   37.2530   27.4420   39.7090 H   0  0  0  0  0  0  0  0  0  0  0  0
   35.9440   25.4050   39.1710 H   0  0  0  0  0  0  0  0  0  0  0  0
   36.0440   23.4140   40.6030 H   0  0  0  0  0  0  0  0  0  0  0  0
   37.4730   23.4320   42.6180 H   0  0  0  0  0  0  0  0  0  0  0  0
  1  2  1  0  0  0  0
  1  3  1  0  0  0  0
  4  1  1  0  0  0  0
  5  9  1  0  0  0  0
  5 10  1  0  0  0  0
  5  4  1  0  0  0  0
  6  5  1  0  0  0  0
  7  6  1  0  0  0  0
  7  8  1  0  0  0  0
  8 16  1  0  0  0  0
  8 15  1  1  0  0  0
  8  4  1  0  0  0  0
 11  6  1  0  0  0  0
 12  6  1  0  0  0  0
 13  7  1  0  0  0  0
 14  7  1  0  0  0  0
 16 17  1  0  0  0  0
 17 18  1  0  0  0  0
 19 17  2  0  0  0  0
 20 19  1  0  0  0  0
 21 22  1  0  0  0  0
 21 20  2  0  0  0  0
 23 21  1  0  0  0  0
 24 23  2  0  0  0  0
 24 26  1  0  0  0  0
 25 24  1  0  0  0  0
 26 27  2  0  0  0  0
 27 20  1  0  0  0  0
 27 16  1  0  0  0  0
 29  1  1  0  0  0  0
 29 28  2  0  0  0  0
 30 36  1  0  0  0  0
 31 28  1  0  0  0  0
 31 30  2  0  0  0  0
 32 31  1  0  0  0  0
 33 32  2  0  0  0  0
 33 34  1  0  0  0  0
 34 35  2  0  0  0  0
 35 30  1  0  0  0  0
 37 32  1  0  0  0  0
 39 38  1  0  0  0  0
 40 34  1  0  0  0  0
 40 39  2  0  0  0  0
 41 40  1  0  0  0  0
 42 41  2  0  0  0  0
 42 43  1  0  0  0  0
 43 44  2  0  0  0  0
 44 39  1  0  0  0  0
 44 48  1  0  0  0  0
 45 41  1  0  0  0  0
 46 42  1  0  0  0  0
 47 43  1  0  0  0  0
M  END
>  <minimizedAffinity>
-6.34843588

$$$$

 OpenBabel03252501523D

 48 52  0  0  1  0  0  0  0  0999 V2000
   37.7750   25.0540   40.0950 C   0  0  0  0  0  0  0  0  0  0  0  0
   38.6380   25.4330   39.5060 H   0  0  0  0  0  0  0  0  0  0  0  0
   37.6200   24.0070   39.8230 H   0  0  0  0  0  0  0  0  0  0  0  0
   38.0770   25.2570   41.4880 N   0  0  0  0  0  0  0  0  0  0  0  0
   38.5860   24.0670   42.0750 C   0  0  0  0  0  0  0  0  0  0  0  0
   39.6200   24.4490   43.0940 C   0  0  0  0  0  0  0  0  0  0  0  0
   40.0190   25.8250   42.6780 C   0  0  0  0  0  0  0  0  0  0  0  0
   39.0540   26.2830   41.6370 C   0  0  2  0  0  0  0  0  0  0  0  0
   39.1180   23.4450   41.3040 H   0  0  0  0  0  0  0  0  0  0  0  0
   37.7620   23.4410   42.4970 H   0  0  0  0  0  0  0  0  0  0  0  0
   39.1340   24.3930   44.0940 H   0  0  0  0  0  0  0  0  0  0  0  0
   40.4880   23.7620   43.1130 H   0  0  0  0  0  0  0  0  0  0  0  0
   41.0910   25.9330   42.3910 H   0  0  0  0  0  0  0  0  0  0  0  0
   39.8960   26.4940   43.5730 H   0  0  0  0  0  0  0  0  0  0  0  0
   39.6310   26.3470   40.6910 H   0  0  0  0  0  0  0  0  0  0  0  0
   38.5220   27.6000   41.8980 N   0  0  0  0  0  0  0  0  0  0  0  0
   37.9870   27.9650   43.0850 C   0  0  0  0  0  0  0  0  0  0  0  0
   37.8710   27.3690   43.9970 H   0  0  0  0  0  0  0  0  0  0  0  0
   37.5850   29.2470   42.9980 N   0  0  0  0  0  0  0  0  0  0  0  0
   37.8620   29.6820   41.7800 C   0  0  0  0  0  0  0  0  0  0  0  0
   37.7180   30.8570   41.0520 C   0  0  0  0  0  0  0  0  0  0  0  0
   37.2560   31.7150   41.5500 H   0  0  0  0  0  0  0  0  0  0  0  0
   38.0970   31.0400   39.7830 N   0  0  0  0  0  0  0  0  0  0  0  0
   38.6690   30.0170   39.1280 C   0  0  0  0  0  0  0  0  0  0  0  0
   39.0420   29.9560   38.1150 H   0  0  0  0  0  0  0  0  0  0  0  0
   38.8530   28.8210   39.7590 N   0  0  0  0  0  0  0  0  0  0  0  0
   38.4550   28.6710   41.0530 C   0  0  0  0  0  0  0  0  0  0  0  0
   36.5310   26.3290   38.3950 C   0  0  0  0  0  3  0  0  0  0  0  0
   36.5850   25.8760   39.6600 C   0  0  0  0  0  3  0  0  0  0  0  0
   34.3170   26.6280   37.1530 C   0  0  0  0  0  0  0  0  0  0  0  0
   35.3730   27.1380   37.9410 C   0  0  0  0  0  0  0  0  0  0  0  0
   35.3400   28.4980   38.3280 C   0  0  0  0  0  0  0  0  0  0  0  0
   34.2870   29.2460   37.9170 N   0  0  0  0  0  0  0  0  0  0  0  0
   33.3140   28.7300   37.1750 C   0  0  0  0  0  0  0  0  0  0  0  0
   33.3480   27.4410   36.8110 N   0  0  0  0  0  0  0  0  0  0  0  0
   34.4170   25.5870   36.9020 H   0  0  0  0  0  0  0  0  0  0  0  0
   36.1020   28.9430   38.9200 H   0  0  0  0  0  0  0  0  0  0  0  0
   31.4690   29.7410   38.9700 F   0  0  0  0  0  0  0  0  0  0  0  0
   31.2940   30.0700   37.6760 C   0  0  0  0  0  0  0  0  0  0  0  0
   32.1990   29.5810   36.7560 C   0  0  0  0  0  0  0  0  0  0  0  0
   32.0980   29.8680   35.3930 C   0  0  0  0  0  0  0  0  0  0  0  0
   31.0410   30.6760   34.9850 C   0  0  0  0  0  0  0  0  0  0  0  0
   30.1080   31.1840   35.9140 C   0  0  0  0  0  0  0  0  0  0  0  0
   30.2490   30.8710   37.2580 C   0  0  0  0  0  0  0  0  0  0  0  0
   32.7960   29.4950   34.6580 H   0  0  0  0  0  0  0  0  0  0  0  0
   30.9060   30.9360   33.9480 H   0  0  0  0  0  0  0  0  0  0  0  0
   29.2930   31.8110   35.5780 H   0  0  0  0  0  0  0  0  0  0  0  0
   29.5500   31.2490   37.9700 H   0  0  0  0  0  0  0  0  0  0  0  0
  1  4  1  0  0  0  0
  2  1  1  0  0  0  0
  3  1  1  0  0  0  0
  4  8  1  0  0  0  0
  4  5  1  0  0  0  0
  5 10  1  0  0  0  0
  5  6  1  0  0  0  0
  6 12  1  0  0  0  0
  6 11  1  0  0  0  0
  7  6  1  0  0  0  0
  7 14  1  0  0  0  0
  8 15  1  6  0  0  0
  8 16  1  0  0  0  0
  8  7  1  0  0  0  0
  9  5  1  0  0  0  0
 13  7  1  0  0  0  0
 16 17  1  0  0  0  0
 17 18  1  0  0  0  0
 19 17  2  0  0  0  0
 20 19  1  0  0  0  0
 21 22  1  0  0  0  0
 21 20  2  0  0  0  0
 23 21  1  0  0  0  0
 24 26  1  0  0  0  0
 24 23  2  0  0  0  0
 25 24  1  0  0  0  0
 26 27  2  0  0  0  0
 27 20  1  0  0  0  0
 27 16  1  0  0  0  0
 28 29  2  0  0  0  0
 29  1  1  0  0  0  0
 30 31  1  0  0  0  0
 31 32  2  0  0  0  0
 31 28  1  0  0  0  0
 32 37  1  0  0  0  0
 33 32  1  0  0  0  0
 34 33  2  0  0  0  0
 35 30  2  0  0  0  0
 35 34  1  0  0  0  0
 36 30  1  0  0  0  0
 39 38  1  0  0  0  0
 40 34  1  0  0  0  0
 40 39  2  0  0  0  0
 41 40  1  0  0  0  0
 42 41  2  0  0  0  0
 42 43  1  0  0  0  0
 43 44  2  0  0  0  0
 44 39  1  0  0  0  0
 44 48  1  0  0  0  0
 45 41  1  0  0  0  0
 46 42  1  0  0  0  0
 47 43  1  0  0  0  0
M  END
>  <minimizedAffinity>
-5.99667978

$$$$

 OpenBabel03252501523D

 48 52  0  0  1  0  0  0  0  0999 V2000
   37.0340   24.9940   38.1650 C   0  0  0  0  0  0  0  0  0  0  0  0
   38.0120   25.2330   37.6940 H   0  0  0  0  0  0  0  0  0  0  0  0
   36.6540   24.0830   37.6980 H   0  0  0  0  0  0  0  0  0  0  0  0
   37.2530   24.8770   39.5840 N   0  0  0  0  0  0  0  0  0  0  0  0
   37.0830   23.5320   40.0130 C   0  0  0  0  0  0  0  0  0  0  0  0
   38.0660   23.2610   41.1140 C   0  0  0  0  0  0  0  0  0  0  0  0
   39.1030   24.3140   40.9150 C   0  0  0  0  0  0  0  0  0  0  0  0
   38.5770   25.2880   39.9140 C   0  0  2  0  0  0  0  0  0  0  0  0
   37.3360   22.8190   39.1810 H   0  0  0  0  0  0  0  0  0  0  0  0
   36.0230   23.3350   40.3100 H   0  0  0  0  0  0  0  0  0  0  0  0
   37.5120   23.3370   42.0770 H   0  0  0  0  0  0  0  0  0  0  0  0
   38.5040   22.2450   41.0680 H   0  0  0  0  0  0  0  0  0  0  0  0
   40.1230   23.9280   40.6870 H   0  0  0  0  0  0  0  0  0  0  0  0
   39.2180   24.8600   41.8910 H   0  0  0  0  0  0  0  0  0  0  0  0
   39.2090   25.1690   39.0100 H   0  0  0  0  0  0  0  0  0  0  0  0
   38.7010   26.6620   40.3410 N   0  0  0  0  0  0  0  0  0  0  0  0
   39.3840   27.5980   39.6450 C   0  0  0  0  0  0  0  0  0  0  0  0
   39.9260   27.4900   38.6990 H   0  0  0  0  0  0  0  0  0  0  0  0
   39.3090   28.7660   40.3110 N   0  0  0  0  0  0  0  0  0  0  0  0
   38.5920   28.5700   41.4050 C   0  0  0  0  0  0  0  0  0  0  0  0
   38.1470   29.3170   42.4880 C   0  0  0  0  0  0  0  0  0  0  0  0
   38.4190   30.3760   42.5280 H   0  0  0  0  0  0  0  0  0  0  0  0
   37.4050   28.8570   43.5010 N   0  0  0  0  0  0  0  0  0  0  0  0
   37.0440   27.5640   43.5000 C   0  0  0  0  0  0  0  0  0  0  0  0
   36.4560   27.0010   44.2110 H   0  0  0  0  0  0  0  0  0  0  0  0
   37.4340   26.7480   42.4770 N   0  0  0  0  0  0  0  0  0  0  0  0
   38.1890   27.2520   41.4610 C   0  0  0  0  0  0  0  0  0  0  0  0
   34.8610   25.9030   37.4530 C   0  0  0  0  0  3  0  0  0  0  0  0
   36.1240   26.1530   37.8390 C   0  0  0  0  0  3  0  0  0  0  0  0
   32.8660   26.9230   36.2200 C   0  0  0  0  0  0  0  0  0  0  0  0
   33.9440   27.0250   37.1280 C   0  0  0  0  0  0  0  0  0  0  0  0
   34.1790   28.2610   37.7730 C   0  0  0  0  0  0  0  0  0  0  0  0
   33.3490   29.2930   37.4810 N   0  0  0  0  0  0  0  0  0  0  0  0
   32.3460   29.1580   36.6210 C   0  0  0  0  0  0  0  0  0  0  0  0
   32.1260   27.9840   36.0120 N   0  0  0  0  0  0  0  0  0  0  0  0
   32.7560   25.9510   35.7740 H   0  0  0  0  0  0  0  0  0  0  0  0
   34.9720   28.4050   38.4650 H   0  0  0  0  0  0  0  0  0  0  0  0
   30.6140   30.2000   38.5080 F   0  0  0  0  0  0  0  0  0  0  0  0
   30.6240   30.8000   37.3030 C   0  0  0  0  0  0  0  0  0  0  0  0
   31.4790   30.3030   36.3400 C   0  0  0  0  0  0  0  0  0  0  0  0
   31.5580   30.8600   35.0610 C   0  0  0  0  0  0  0  0  0  0  0  0
   30.7360   31.9480   34.7850 C   0  0  0  0  0  0  0  0  0  0  0  0
   29.8580   32.4680   35.7580 C   0  0  0  0  0  0  0  0  0  0  0  0
   29.8130   31.8810   37.0150 C   0  0  0  0  0  0  0  0  0  0  0  0
   32.2200   30.4850   34.2950 H   0  0  0  0  0  0  0  0  0  0  0  0
   30.7490   32.4240   33.8180 H   0  0  0  0  0  0  0  0  0  0  0  0
   29.2270   33.3150   35.5250 H   0  0  0  0  0  0  0  0  0  0  0  0
   29.1530   32.2650   37.7610 H   0  0  0  0  0  0  0  0  0  0  0  0
  1  4  1  0  0  0  0
  2  1  1  0  0  0  0
  3  1  1  0  0  0  0
  4  8  1  0  0  0  0
  4  5  1  0  0  0  0
  5 10  1  0  0  0  0
  5  6  1  0  0  0  0
  6 11  1  0  0  0  0
  7  6  1  0  0  0  0
  7 14  1  0  0  0  0
  8 15  1  6  0  0  0
  8 16  1  0  0  0  0
  8  7  1  0  0  0  0
  9  5  1  0  0  0  0
 12  6  1  0  0  0  0
 13  7  1  0  0  0  0
 16 27  1  0  0  0  0
 17 19  2  0  0  0  0
 17 16  1  0  0  0  0
 18 17  1  0  0  0  0
 19 20  1  0  0  0  0
 20 27  2  0  0  0  0
 20 21  1  0  0  0  0
 21 22  1  0  0  0  0
 21 23  2  0  0  0  0
 24 23  1  0  0  0  0
 24 25  1  0  0  0  0
 26 24  2  0  0  0  0
 27 26  1  0  0  0  0
 28 29  2  0  0  0  0
 29  1  1  0  0  0  0
 30 31  1  0  0  0  0
 31 28  1  0  0  0  0
 31 32  2  0  0  0  0
 32 37  1  0  0  0  0
 33 32  1  0  0  0  0
 34 33  2  0  0  0  0
 35 30  2  0  0  0  0
 35 34  1  0  0  0  0
 36 30  1  0  0  0  0
 39 38  1  0  0  0  0
 40 34  1  0  0  0  0
 40 39  2  0  0  0  0
 41 40  1  0  0  0  0
 42 41  2  0  0  0  0
 42 43  1  0  0  0  0
 43 44  2  0  0  0  0
 44 39  1  0  0  0  0
 44 48  1  0  0  0  0
 45 41  1  0  0  0  0
 46 42  1  0  0  0  0
 47 43  1  0  0  0  0
M  END
>  <minimizedAffinity>
-5.99536371

$$$$

 OpenBabel03252501523D

 48 52  0  0  1  0  0  0  0  0999 V2000
   39.6070   32.3860   41.1210 C   0  0  0  0  0  0  0  0  0  0  0  0
   39.1320   32.4630   42.1230 H   0  0  0  0  0  0  0  0  0  0  0  0
   39.6630   33.3930   40.7010 H   0  0  0  0  0  0  0  0  0  0  0  0
   40.8890   31.7530   41.2960 N   0  0  0  0  0  0  0  0  0  0  0  0
   41.9260   32.7220   41.3670 C   0  0  0  0  0  0  0  0  0  0  0  0
   42.9650   32.2320   42.3340 C   0  0  0  0  0  0  0  0  0  0  0  0
   42.2210   31.2350   43.1580 C   0  0  0  0  0  0  0  0  0  0  0  0
   40.9040   30.9920   42.5000 C   0  0  2  0  0  0  0  0  0  0  0  0
   41.5340   33.6880   41.7890 H   0  0  0  0  0  0  0  0  0  0  0  0
   42.3400   32.9460   40.3530 H   0  0  0  0  0  0  0  0  0  0  0  0
   43.7980   31.8020   41.7340 H   0  0  0  0  0  0  0  0  0  0  0  0
   43.3930   33.0380   42.9600 H   0  0  0  0  0  0  0  0  0  0  0  0
   42.1530   31.4830   44.2420 H   0  0  0  0  0  0  0  0  0  0  0  0
   42.8000   30.2720   43.1230 H   0  0  0  0  0  0  0  0  0  0  0  0
   40.1380   31.4140   43.1820 H   0  0  0  0  0  0  0  0  0  0  0  0
   40.6010   29.5890   42.3390 N   0  0  0  0  0  0  0  0  0  0  0  0
   41.4480   28.7060   41.7640 C   0  0  0  0  0  0  0  0  0  0  0  0
   42.4470   28.8840   41.3490 H   0  0  0  0  0  0  0  0  0  0  0  0
   40.8680   27.4910   41.7680 N   0  0  0  0  0  0  0  0  0  0  0  0
   39.6770   27.6070   42.3340 C   0  0  0  0  0  0  0  0  0  0  0  0
   38.6040   26.7800   42.6440 C   0  0  0  0  0  0  0  0  0  0  0  0
   38.6800   25.7210   42.3830 H   0  0  0  0  0  0  0  0  0  0  0  0
   37.4720   27.1650   43.2420 N   0  0  0  0  0  0  0  0  0  0  0  0
   37.3290   28.4560   43.5840 C   0  0  0  0  0  0  0  0  0  0  0  0
   36.5080   28.9660   44.0670 H   0  0  0  0  0  0  0  0  0  0  0  0
   38.3310   29.3450   43.3190 N   0  0  0  0  0  0  0  0  0  0  0  0
   39.4710   28.9180   42.7090 C   0  0  0  0  0  0  0  0  0  0  0  0
   37.4060   31.3720   40.6890 C   0  0  0  0  0  3  0  0  0  0  0  0
   38.6790   31.5360   40.2880 C   0  0  0  0  0  3  0  0  0  0  0  0
   35.4150   29.7880   40.4420 C   0  0  0  0  0  0  0  0  0  0  0  0
   36.4710   30.5430   39.8880 C   0  0  0  0  0  0  0  0  0  0  0  0
   36.6660   30.5190   38.4870 C   0  0  0  0  0  0  0  0  0  0  0  0
   35.8190   29.7630   37.7460 N   0  0  0  0  0  0  0  0  0  0  0  0
   34.8370   29.0660   38.3050 C   0  0  0  0  0  0  0  0  0  0  0  0
   34.6550   29.0920   39.6320 N   0  0  0  0  0  0  0  0  0  0  0  0
   35.3350   29.8610   41.5130 H   0  0  0  0  0  0  0  0  0  0  0  0
   37.4410   31.0640   38.0060 H   0  0  0  0  0  0  0  0  0  0  0  0
   35.2560   26.3690   37.8590 F   0  0  0  0  0  0  0  0  0  0  0  0
   34.1860   26.9200   37.2560 C   0  0  0  0  0  0  0  0  0  0  0  0
   33.9500   28.2650   37.4600 C   0  0  0  0  0  0  0  0  0  0  0  0
   32.8650   28.9230   36.8750 C   0  0  0  0  0  0  0  0  0  0  0  0
   32.0160   28.1690   36.0700 C   0  0  0  0  0  0  0  0  0  0  0  0
   32.2440   26.7940   35.8530 C   0  0  0  0  0  0  0  0  0  0  0  0
   33.3360   26.1830   36.4540 C   0  0  0  0  0  0  0  0  0  0  0  0
   32.6650   29.9740   37.0230 H   0  0  0  0  0  0  0  0  0  0  0  0
   31.1610   28.6170   35.5910 H   0  0  0  0  0  0  0  0  0  0  0  0
   31.5730   26.2250   35.2240 H   0  0  0  0  0  0  0  0  0  0  0  0
   33.5180   25.1440   36.2980 H   0  0  0  0  0  0  0  0  0  0  0  0
  1  4  1  0  0  0  0
  1  2  1  0  0  0  0
  3  1  1  0  0  0  0
  4  5  1  0  0  0  0
  4  8  1  0  0  0  0
  5  9  1  0  0  0  0
  5  6  1  0  0  0  0
  6 12  1  0  0  0  0
  6  7  1  0  0  0  0
  7 13  1  0  0  0  0
  8  7  1  0  0  0  0
  8 15  1  1  0  0  0
 10  5  1  0  0  0  0
 11  6  1  0  0  0  0
 14  7  1  0  0  0  0
 16  8  1  0  0  0  0
 16 27  1  0  0  0  0
 17 19  2  0  0  0  0
 17 16  1  0  0  0  0
 18 17  1  0  0  0  0
 19 20  1  0  0  0  0
 20 21  2  0  0  0  0
 20 27  1  0  0  0  0
 21 23  1  0  0  0  0
 22 21  1  0  0  0  0
 23 24  2  0  0  0  0
 24 25  1  0  0  0  0
 26 24  1  0  0  0  0
 27 26  2  0  0  0  0
 29 28  2  0  0  0  0
 29  1  1  0  0  0  0
 30 36  1  0  0  0  0
 31 30  1  0  0  0  0
 31 28  1  0  0  0  0
 32 31  2  0  0  0  0
 33 34  2  0  0  0  0
 33 32  1  0  0  0  0
 34 35  1  0  0  0  0
 35 30  2  0  0  0  0
 37 32  1  0  0  0  0
 39 40  1  0  0  0  0
 39 38  1  0  0  0  0
 40 34  1  0  0  0  0
 41 45  1  0  0  0  0
 41 40  2  0  0  0  0
 42 41  1  0  0  0  0
 43 42  2  0  0  0  0
 43 44  1  0  0  0  0
 44 39  2  0  0  0  0
 46 42  1  0  0  0  0
 47 43  1  0  0  0  0
 48 44  1  0  0  0  0
M  END
>  <minimizedAffinity>
-5.84333229

$$$$

 OpenBabel03252501523D

 48 52  0  0  1  0  0  0  0  0999 V2000
   36.8710   24.9500   38.6170 C   0  0  0  0  0  0  0  0  0  0  0  0
   37.8310   25.3370   38.2100 H   0  0  0  0  0  0  0  0  0  0  0  0
   36.5890   24.0740   38.0280 H   0  0  0  0  0  0  0  0  0  0  0  0
   37.0740   24.6720   40.0160 N   0  0  0  0  0  0  0  0  0  0  0  0
   37.4800   23.3250   40.2110 C   0  0  0  0  0  0  0  0  0  0  0  0
   38.4490   23.2850   41.3570 C   0  0  0  0  0  0  0  0  0  0  0  0
   38.9430   24.6910   41.4360 C   0  0  0  0  0  0  0  0  0  0  0  0
   38.0840   25.5260   40.5470 C   0  0  2  0  0  0  0  0  0  0  0  0
   38.0410   22.9480   39.3120 H   0  0  0  0  0  0  0  0  0  0  0  0
   36.5980   22.6540   40.3580 H   0  0  0  0  0  0  0  0  0  0  0  0
   37.8850   22.9450   42.2550 H   0  0  0  0  0  0  0  0  0  0  0  0
   39.2800   22.5710   41.2020 H   0  0  0  0  0  0  0  0  0  0  0  0
   40.0370   24.8120   41.2630 H   0  0  0  0  0  0  0  0  0  0  0  0
   38.7820   25.0440   42.4910 H   0  0  0  0  0  0  0  0  0  0  0  0
   38.7340   25.8500   39.7090 H   0  0  0  0  0  0  0  0  0  0  0  0
   37.5950   26.7220   41.1920 N   0  0  0  0  0  0  0  0  0  0  0  0
   36.9460   26.7160   42.3770 C   0  0  0  0  0  0  0  0  0  0  0  0
   36.6930   25.8630   43.0170 H   0  0  0  0  0  0  0  0  0  0  0  0
   36.6250   27.9850   42.6960 N   0  0  0  0  0  0  0  0  0  0  0  0
   37.0640   28.7750   41.7300 C   0  0  0  0  0  0  0  0  0  0  0  0
   37.0670   30.1330   41.4370 C   0  0  0  0  0  0  0  0  0  0  0  0
   36.5970   30.8130   42.1520 H   0  0  0  0  0  0  0  0  0  0  0  0
   37.6000   30.6930   40.3460 N   0  0  0  0  0  0  0  0  0  0  0  0
   38.1900   29.9010   39.4370 C   0  0  0  0  0  0  0  0  0  0  0  0
   38.6740   30.1480   38.5020 H   0  0  0  0  0  0  0  0  0  0  0  0
   38.2360   28.5520   39.6370 N   0  0  0  0  0  0  0  0  0  0  0  0
   37.6830   28.0140   40.7600 C   0  0  0  0  0  0  0  0  0  0  0  0
   35.0790   26.0250   37.3180 C   0  0  0  0  0  3  0  0  0  0  0  0
   35.8600   26.0510   38.4110 C   0  0  0  0  0  3  0  0  0  0  0  0
   32.9880   26.9780   36.1980 C   0  0  0  0  0  0  0  0  0  0  0  0
   34.0750   27.0950   37.0910 C   0  0  0  0  0  0  0  0  0  0  0  0
   34.2340   28.2960   37.8200 C   0  0  0  0  0  0  0  0  0  0  0  0
   33.3230   29.2810   37.6190 N   0  0  0  0  0  0  0  0  0  0  0  0
   32.3140   29.1330   36.7690 C   0  0  0  0  0  0  0  0  0  0  0  0
   32.1670   27.9930   36.0810 N   0  0  0  0  0  0  0  0  0  0  0  0
   32.9380   26.0340   35.6830 H   0  0  0  0  0  0  0  0  0  0  0  0
   35.0300   28.4490   38.5070 H   0  0  0  0  0  0  0  0  0  0  0  0
   32.1940   30.6210   34.4410 F   0  0  0  0  0  0  0  0  0  0  0  0
   31.3230   30.9520   35.4140 C   0  0  0  0  0  0  0  0  0  0  0  0
   31.3590   30.2270   36.5880 C   0  0  0  0  0  0  0  0  0  0  0  0
   30.4950   30.4980   37.6520 C   0  0  0  0  0  0  0  0  0  0  0  0
   29.5830   31.5370   37.4880 C   0  0  0  0  0  0  0  0  0  0  0  0
   29.5350   32.2860   36.2940 C   0  0  0  0  0  0  0  0  0  0  0  0
   30.4130   31.9810   35.2640 C   0  0  0  0  0  0  0  0  0  0  0  0
   30.5080   29.9430   38.5780 H   0  0  0  0  0  0  0  0  0  0  0  0
   28.8890   31.7970   38.2700 H   0  0  0  0  0  0  0  0  0  0  0  0
   28.8190   33.0900   36.1850 H   0  0  0  0  0  0  0  0  0  0  0  0
   30.3860   32.5400   34.3560 H   0  0  0  0  0  0  0  0  0  0  0  0
  1  4  1  0  0  0  0
  2  1  1  0  0  0  0
  3  1  1  0  0  0  0
  4  5  1  0  0  0  0
  4  8  1  0  0  0  0
  5 10  1  0  0  0  0
  5  6  1  0  0  0  0
  6  7  1  0  0  0  0
  6 11  1  0  0  0  0
  7 14  1  0  0  0  0
  8 15  1  6  0  0  0
  8 16  1  0  0  0  0
  8  7  1  0  0  0  0
  9  5  1  0  0  0  0
 12  6  1  0  0  0  0
 13  7  1  0  0  0  0
 16 17  1  0  0  0  0
 17 19  2  0  0  0  0
 17 18  1  0  0  0  0
 20 19  1  0  0  0  0
 21 20  1  0  0  0  0
 21 22  1  0  0  0  0
 23 21  2  0  0  0  0
 24 26  2  0  0  0  0
 24 23  1  0  0  0  0
 25 24  1  0  0  0  0
 26 27  1  0  0  0  0
 27 16  1  0  0  0  0
 27 20  2  0  0  0  0
 28 29  2  0  0  0  0
 29  1  1  0  0  0  0
 30 31  1  0  0  0  0
 31 28  1  0  0  0  0
 31 32  2  0  0  0  0
 32 37  1  0  0  0  0
 33 32  1  0  0  0  0
 34 33  2  0  0  0  0
 35 30  2  0  0  0  0
 35 34  1  0  0  0  0
 36 30  1  0  0  0  0
 38 39  1  0  0  0  0
 39 40  1  0  0  0  0
 40 34  1  0  0  0  0
 40 41  2  0  0  0  0
 41 45  1  0  0  0  0
 42 41  1  0  0  0  0
 42 46  1  0  0  0  0
 43 42  2  0  0  0  0
 44 39  2  0  0  0  0
 44 43  1  0  0  0  0
 47 43  1  0  0  0  0
 48 44  1  0  0  0  0
M  END
>  <minimizedAffinity>
-5.83517075

$$$$

 OpenBabel03252501523D

 48 52  0  0  1  0  0  0  0  0999 V2000
   38.4130   28.7610   41.2090 C   0  0  0  0  0  0  0  0  0  0  0  0
   38.5340   29.8420   41.4370 H   0  0  0  0  0  0  0  0  0  0  0  0
   39.2710   28.4490   40.6090 H   0  0  0  0  0  0  0  0  0  0  0  0
   38.2930   28.0640   42.4630 N   0  0  0  0  0  0  0  0  0  0  0  0
   37.8390   28.9390   43.4870 C   0  0  0  0  0  0  0  0  0  0  0  0
   36.9490   28.1610   44.4120 C   0  0  0  0  0  0  0  0  0  0  0  0
   36.5260   26.9960   43.5820 C   0  0  0  0  0  0  0  0  0  0  0  0
   37.3610   26.9930   42.3450 C   0  0  2  0  0  0  0  0  0  0  0  0
   37.2030   29.7580   43.0520 H   0  0  0  0  0  0  0  0  0  0  0  0
   38.6990   29.4270   44.0100 H   0  0  0  0  0  0  0  0  0  0  0  0
   37.5560   27.8920   45.3060 H   0  0  0  0  0  0  0  0  0  0  0  0
   36.0780   28.7430   44.7710 H   0  0  0  0  0  0  0  0  0  0  0  0
   35.4290   26.9290   43.3960 H   0  0  0  0  0  0  0  0  0  0  0  0
   36.7730   26.0650   44.1600 H   0  0  0  0  0  0  0  0  0  0  0  0
   36.6700   27.2290   41.5090 H   0  0  0  0  0  0  0  0  0  0  0  0
   37.9450   25.7030   42.0600 N   0  0  0  0  0  0  0  0  0  0  0  0
   39.0950   25.2670   42.6210 C   0  0  0  0  0  0  0  0  0  0  0  0
   39.7430   25.7770   43.3430 H   0  0  0  0  0  0  0  0  0  0  0  0
   39.3640   24.0360   42.1460 N   0  0  0  0  0  0  0  0  0  0  0  0
   38.4010   23.7030   41.3010 C   0  0  0  0  0  0  0  0  0  0  0  0
   38.0740   22.6210   40.4920 C   0  0  0  0  0  0  0  0  0  0  0  0
   38.7460   21.7590   40.4940 H   0  0  0  0  0  0  0  0  0  0  0  0
   36.9990   22.5360   39.7020 N   0  0  0  0  0  0  0  0  0  0  0  0
   36.1430   23.5690   39.6640 C   0  0  0  0  0  0  0  0  0  0  0  0
   35.2290   23.7010   39.1030 H   0  0  0  0  0  0  0  0  0  0  0  0
   36.3800   24.6780   40.4240 N   0  0  0  0  0  0  0  0  0  0  0  0
   37.4850   24.7310   41.2190 C   0  0  0  0  0  0  0  0  0  0  0  0
   37.1130   29.2080   39.1670 C   0  0  0  0  0  3  0  0  0  0  0  0
   37.1500   28.6500   40.3890 C   0  0  0  0  0  3  0  0  0  0  0  0
   34.5840   28.9860   38.8730 C   0  0  0  0  0  0  0  0  0  0  0  0
   35.8850   29.1130   38.3390 C   0  0  0  0  0  0  0  0  0  0  0  0
   36.0460   29.1520   36.9340 C   0  0  0  0  0  0  0  0  0  0  0  0
   34.9300   29.0640   36.1690 N   0  0  0  0  0  0  0  0  0  0  0  0
   33.7230   28.9450   36.7090 C   0  0  0  0  0  0  0  0  0  0  0  0
   33.5740   28.9090   38.0410 N   0  0  0  0  0  0  0  0  0  0  0  0
   34.5480   28.9650   39.9480 H   0  0  0  0  0  0  0  0  0  0  0  0
   36.9960   29.2460   36.4690 H   0  0  0  0  0  0  0  0  0  0  0  0
   32.4130   26.5550   36.2410 F   0  0  0  0  0  0  0  0  0  0  0  0
   31.9180   27.6440   35.6240 C   0  0  0  0  0  0  0  0  0  0  0  0
   32.5500   28.8530   35.8390 C   0  0  0  0  0  0  0  0  0  0  0  0
   32.1080   30.0360   35.2420 C   0  0  0  0  0  0  0  0  0  0  0  0
   30.9930   29.9580   34.4120 C   0  0  0  0  0  0  0  0  0  0  0  0
   30.3360   28.7300   34.1830 C   0  0  0  0  0  0  0  0  0  0  0  0
   30.8120   27.5810   34.7980 C   0  0  0  0  0  0  0  0  0  0  0  0
   32.5890   30.9900   35.3970 H   0  0  0  0  0  0  0  0  0  0  0  0
   30.6020   30.8330   33.9220 H   0  0  0  0  0  0  0  0  0  0  0  0
   29.4710   28.6890   33.5360 H   0  0  0  0  0  0  0  0  0  0  0  0
   30.3240   26.6460   34.6330 H   0  0  0  0  0  0  0  0  0  0  0  0
  1  2  1  0  0  0  0
  1  4  1  0  0  0  0
  3  1  1  0  0  0  0
  4  5  1  0  0  0  0
  5 10  1  0  0  0  0
  5  6  1  0  0  0  0
  6 12  1  0  0  0  0
  6 11  1  0  0  0  0
  7 14  1  0  0  0  0
  7  6  1  0  0  0  0
  8 15  1  6  0  0  0
  8  4  1  0  0  0  0
  8  7  1  0  0  0  0
  9  5  1  0  0  0  0
 13  7  1  0  0  0  0
 16  8  1  0  0  0  0
 16 17  1  0  0  0  0
 17 18  1  0  0  0  0
 19 17  2  0  0  0  0
 20 19  1  0  0  0  0
 21 22  1  0  0  0  0
 21 20  2  0  0  0  0
 23 21  1  0  0  0  0
 24 23  2  0  0  0  0
 24 26  1  0  0  0  0
 25 24  1  0  0  0  0
 26 27  2  0  0  0  0
 27 20  1  0  0  0  0
 27 16  1  0  0  0  0
 28 29  2  0  0  0  0
 29  1  1  0  0  0  0
 30 36  1  0  0  0  0
 31 30  1  0  0  0  0
 31 28  1  0  0  0  0
 32 31  2  0  0  0  0
 33 34  2  0  0  0  0
 33 32  1  0  0  0  0
 34 35  1  0  0  0  0
 35 30  2  0  0  0  0
 37 32  1  0  0  0  0
 39 40  1  0  0  0  0
 39 38  1  0  0  0  0
 40 34  1  0  0  0  0
 41 45  1  0  0  0  0
 41 40  2  0  0  0  0
 42 41  1  0  0  0  0
 43 42  2  0  0  0  0
 43 44  1  0  0  0  0
 44 39  2  0  0  0  0
 46 42  1  0  0  0  0
 47 43  1  0  0  0  0
 48 44  1  0  0  0  0
M  END
>  <minimizedAffinity>
-5.71138239

$$$$
