
     RDKit          3D

 48 51  0  0  0  0  0  0  0  0999 V2000
   47.1697   34.1585   43.0834 N   0  0  0  0  0  0  0  0  0  0  0  0
   46.6604   35.3612   42.5252 C   0  0  0  0  0  0  0  0  0  0  0  0
   45.1766   35.5859   42.7404 C   0  0  0  0  0  0  0  0  0  0  0  0
   44.6515   35.0579   44.0445 C   0  0  0  0  0  0  0  0  0  0  0  0
   45.7491   34.4684   44.8967 C   0  0  0  0  0  0  0  0  0  0  0  0
   46.4097   33.3964   43.9572 C   0  0  2  0  0  0  0  0  0  0  0  0
   48.1510   33.4990   42.2679 C   0  0  0  0  0  0  0  0  0  0  0  0
   47.4364   32.6482   41.2547 C   0  0  0  0  0  0  0  0  0  0  0  0
   49.3367   32.2868   38.0282 C   0  0  0  0  0  0  0  0  0  0  0  0
   48.8083   32.0195   39.3058 C   0  0  0  0  0  0  0  0  0  0  0  0
   47.9889   32.9425   39.9037 C   0  0  0  0  0  0  0  0  0  0  0  0
   47.7283   34.0731   39.2282 N   0  0  0  0  0  0  0  0  0  0  0  0
   48.2328   34.3258   38.0110 C   0  0  0  0  0  0  0  0  0  0  0  0
   49.0433   33.4330   37.3987 N   0  0  0  0  0  0  0  0  0  0  0  0
   47.2082   32.6941   44.8543 O   0  0  0  0  0  0  0  0  0  0  0  0
   45.9953   30.5432   43.8693 O   0  0  0  0  0  0  0  0  0  0  0  0
   46.6640   31.1234   45.1142 P   0  0  2  0  0  0  0  0  0  0  0  0
   45.4093   31.2409   46.2720 O   0  0  0  0  0  0  0  0  0  0  0  0
   47.8363   30.1303   45.7416 O   0  0  0  0  0  0  0  0  0  0  0  0
   47.1731   36.2034   43.0644 H   0  0  0  0  0  0  0  0  0  0  0  0
   46.8640   35.5191   41.4650 H   0  0  0  0  0  0  0  0  0  0  0  0
   44.6495   35.0324   41.9312 H   0  0  0  0  0  0  0  0  0  0  0  0
   44.9777   36.6622   42.5769 H   0  0  0  0  0  0  0  0  0  0  0  0
   43.8319   34.3411   43.9549 H   0  0  0  0  0  0  0  0  0  0  0  0
   44.2409   35.9378   44.6149 H   0  0  0  0  0  0  0  0  0  0  0  0
   46.4978   35.2311   45.1652 H   0  0  0  0  0  0  0  0  0  0  0  0
   45.2899   33.9415   45.7483 H   0  0  0  0  0  0  0  0  0  0  0  0
   45.5644   32.8122   43.5501 H   0  0  0  0  0  0  0  0  0  0  0  0
   48.8051   34.2564   41.8135 H   0  0  0  0  0  0  0  0  0  0  0  0
   48.7897   32.8603   42.9003 H   0  0  0  0  0  0  0  0  0  0  0  0
   46.3593   32.9121   41.2090 H   0  0  0  0  0  0  0  0  0  0  0  0
   47.5038   31.5683   41.4522 H   0  0  0  0  0  0  0  0  0  0  0  0
   49.9813   31.5361   37.5832 H   0  0  0  0  0  0  0  0  0  0  0  0
   49.0763   31.0798   39.7698 H   0  0  0  0  0  0  0  0  0  0  0  0
   47.9142   35.2864   37.6214 H   0  0  0  0  0  0  0  0  0  0  0  0
   45.8307   31.6033   47.1041 H   0  0  0  0  0  0  0  0  0  0  0  0
   48.7205   30.6191   43.1952 H   0  0  0  0  0  0  0  0  0  0  0  0
   49.1418   29.8743   43.8024 N   0  0  0  0  0  0  0  0  0  0  0  0
   48.8512   29.4803   45.0741 C   0  0  0  0  0  0  0  0  0  0  0  0
   49.6907   28.4644   45.4128 N   0  0  0  0  0  0  0  0  0  0  0  0
   50.5223   28.2001   44.3661 C   0  0  0  0  0  0  0  0  0  0  0  0
   51.5381   27.2774   44.2047 C   0  0  0  0  0  0  0  0  0  0  0  0
   51.7290   26.6326   45.0524 H   0  0  0  0  0  0  0  0  0  0  0  0
   52.1806   27.2745   43.0213 N   0  0  0  0  0  0  0  0  0  0  0  0
   51.8223   28.1454   42.0620 C   0  0  0  0  0  0  0  0  0  0  0  0
   52.3424   28.1415   41.1068 H   0  0  0  0  0  0  0  0  0  0  0  0
   50.8269   29.0589   42.2030 N   0  0  0  0  0  0  0  0  0  0  0  0
   50.1533   29.0936   43.3847 C   0  0  0  0  0  0  0  0  0  0  0  0
  1  6  1  0
  2  3  1  0
  2  1  1  0
  3  4  1  0
  4  5  1  0
  6 15  1  0
  6  5  1  0
  7  1  1  0
  8  7  1  0
  9 10  2  0
 10 11  1  0
 11  8  1  0
 12 11  2  0
 13 12  1  0
 14 13  2  0
 14  9  1  0
 17 15  1  6
 16 17  2  0
 17 19  1  0
 17 18  1  0
  2 20  1  0
  2 21  1  0
  3 22  1  0
  3 23  1  0
  4 24  1  0
  4 25  1  0
  5 26  1  0
  5 27  1  0
  6 28  1  6
  7 29  1  0
  7 30  1  0
  8 31  1  0
  8 32  1  0
  9 33  1  0
 10 34  1  0
 13 35  1  0
 18 36  1  0
 37 38  1  0
 38 39  1  0
 39 40  2  0
 40 41  1  0
 41 42  2  0
 42 43  1  0
 42 44  1  0
 44 45  2  0
 45 46  1  0
 45 47  1  0
 47 48  2  0
 48 38  1  0
 48 41  1  0
 19 39  1  0
M  ISO  8  20  13  21  13  22  13  23  13  24  13  25  13  26  13  27  13
M  ISO  8  28  13  29   8  30   8  31   8  32   8  33  14  34  14  35  14
M  ISO  4  36   3  37   9  43  16  46  16
M  END
>  <DihAtoms>  (1) 
16,18,38,37

>  <DihDeg>  (1) 
179.9986318072781

$$$$
