
 OpenBabel03252502003D

 37 41  0  0  0  0  0  0  0  0999 V2000
   47.5820   32.3560   48.1440 C   0  0  0  0  0  0  0  0  0  0  0  0
   47.1850   31.0400   48.2510 C   0  0  0  0  0  0  0  0  0  0  0  0
   46.3010   30.6020   47.3100 C   0  0  0  0  0  0  0  0  0  0  0  0
   45.8600   31.4270   46.3490 N   0  0  0  0  0  0  0  0  0  0  0  0
   46.2490   32.7000   46.2530 C   0  0  0  0  0  0  0  0  0  0  0  0
   47.1100   33.1270   47.1680 N   0  0  0  0  0  0  0  0  0  0  0  0
   48.2950   32.7070   48.9020 H   0  0  0  0  0  0  0  0  0  0  0  0
   45.8250   29.2910   47.3130 N   0  0  0  0  0  0  0  0  0  0  0  0
   45.0270   28.6510   48.1870 C   0  0  0  0  0  0  0  0  0  0  0  0
   44.6060   29.0910   49.0810 H   0  0  0  0  0  0  0  0  0  0  0  0
   44.8290   27.3800   47.7860 N   0  0  0  0  0  0  0  0  0  0  0  0
   45.5020   27.1820   46.6380 C   0  0  0  0  0  0  0  0  0  0  0  0
   45.6330   26.0780   45.8200 C   0  0  0  0  0  0  0  0  0  0  0  0
   45.1240   25.1570   46.0930 H   0  0  0  0  0  0  0  0  0  0  0  0
   46.3980   26.2250   44.7230 N   0  0  0  0  0  0  0  0  0  0  0  0
   47.0150   27.3880   44.4180 C   0  0  0  0  0  0  0  0  0  0  0  0
   47.6240   27.4430   43.5110 H   0  0  0  0  0  0  0  0  0  0  0  0
   46.8720   28.4420   45.2260 N   0  0  0  0  0  0  0  0  0  0  0  0
   46.1140   28.3630   46.3520 C   0  0  0  0  0  0  0  0  0  0  0  0
   45.9010   33.7630   45.3000 C   0  0  0  0  0  0  0  0  0  0  0  0
   44.9310   34.6800   45.5230 N   0  0  0  0  0  0  0  0  0  0  0  0
   44.5850   35.6550   44.6870 C   0  0  0  0  0  0  0  0  0  0  0  0
   45.2290   35.7790   43.5080 N   0  0  0  0  0  0  0  0  0  0  0  0
   46.2160   34.9260   43.1670 C   0  0  0  0  0  0  0  0  0  0  0  0
   46.8720   35.0580   41.9560 C   0  0  0  0  0  0  0  0  0  0  0  0
   47.8770   34.1970   41.6060 C   0  0  0  0  0  0  0  0  0  0  0  0
   48.2030   33.2020   42.4970 C   0  0  0  0  0  0  0  0  0  0  0  0
   47.5300   33.1030   43.6880 C   0  0  0  0  0  0  0  0  0  0  0  0
   46.5190   33.9390   44.0870 C   0  0  0  0  0  0  0  0  0  0  0  0
   43.7920   36.3350   44.9690 H   0  0  0  0  0  0  0  0  0  0  0  0
   46.5950   35.8510   41.2710 H   0  0  0  0  0  0  0  0  0  0  0  0
   48.4200   34.2550   40.6740 H   0  0  0  0  0  0  0  0  0  0  0  0
   48.9880   32.4940   42.2710 H   0  0  0  0  0  0  0  0  0  0  0  0
   47.8260   32.2950   44.3640 H   0  0  0  0  0  0  0  0  0  0  0  0
   47.6830   30.2210   49.2810 N   0  0  0  0  0  0  0  0  0  0  0  0
   47.1740   30.0830   50.1800 H   0  0  0  0  0  0  0  0  0  0  0  0
   48.5780   29.6670   49.2970 H   0  0  0  0  0  0  0  0  0  0  0  0
  1  2  1  0  0  0  0
  1  7  1  0  0  0  0
  2 35  1  0  0  0  0
  3  8  1  0  0  0  0
  3  2  2  0  0  0  0
  4  3  1  0  0  0  0
  5  4  2  0  0  0  0
  5  6  1  0  0  0  0
  6  1  2  0  0  0  0
  8  9  1  0  0  0  0
  9 10  1  0  0  0  0
 11  9  2  0  0  0  0
 12 11  1  0  0  0  0
 13 14  1  0  0  0  0
 13 12  2  0  0  0  0
 15 13  1  0  0  0  0
 16 15  2  0  0  0  0
 16 18  1  0  0  0  0
 17 16  1  0  0  0  0
 18 19  2  0  0  0  0
 19 12  1  0  0  0  0
 19  8  1  0  0  0  0
 20 21  1  0  0  0  0
 20  5  1  0  0  0  0
 22 30  1  0  0  0  0
 22 21  2  0  0  0  0
 23 22  1  0  0  0  0
 24 23  2  0  0  0  0
 24 29  1  0  0  0  0
 25 24  1  0  0  0  0
 26 25  2  0  0  0  0
 26 27  1  0  0  0  0
 27 28  2  0  0  0  0
 28 29  1  0  0  0  0
 28 34  1  0  0  0  0
 29 20  2  0  0  0  0
 31 25  1  0  0  0  0
 32 26  1  0  0  0  0
 33 27  1  0  0  0  0
 35 37  1  0  0  0  0
 35 36  1  0  0  0  0
M  END
>  <minimizedAffinity>
-6.52898884

>  <minimizedRMSD>
0.130786031

$$$$
