
 OpenBabel03252506553D

 41 46  0  0  0  0  0  0  0  0999 V2000
   47.2950   31.3220   45.2040 C   0  0  0  0  0  0  0  0  0  0  0  0
   46.9030   32.6500   45.1390 C   0  0  0  0  0  0  0  0  0  0  0  0
   46.2630   33.3000   46.1830 C   0  0  0  0  0  0  0  0  0  0  0  0
   45.9910   32.6060   47.3640 C   0  0  0  0  0  0  0  0  0  0  0  0
   45.4040   32.8990   48.5490 N   0  0  0  0  0  0  0  0  0  0  0  0
   45.4300   31.7880   49.3290 C   0  0  0  0  0  0  0  0  0  0  0  0
   46.0360   30.8220   48.6080 N   0  0  0  0  0  0  0  0  0  0  0  0
   46.3890   31.2890   47.4040 C   0  0  0  0  0  0  0  0  0  0  0  0
   47.0200   30.6270   46.3910 C   0  0  0  0  0  0  0  0  0  0  0  0
   47.7960   30.8350   44.3710 H   0  0  0  0  0  0  0  0  0  0  0  0
   45.9550   34.3310   46.1410 H   0  0  0  0  0  0  0  0  0  0  0  0
   45.0080   33.8270   48.7960 H   0  0  0  0  0  0  0  0  0  0  0  0
   45.0540   31.6630   50.3290 H   0  0  0  0  0  0  0  0  0  0  0  0
   46.5970   35.0960   42.4160 C   0  0  0  0  0  0  0  0  0  0  0  0
   47.7020   34.8210   41.6270 C   0  0  0  0  0  0  0  0  0  0  0  0
   48.5640   33.7840   42.0340 C   0  0  0  0  0  0  0  0  0  0  0  0
   48.2530   33.1130   43.1850 N   0  0  0  0  0  0  0  0  0  0  0  0
   47.1700   33.4110   43.9210 C   0  0  0  0  0  0  0  0  0  0  0  0
   46.3290   34.4020   43.5510 N   0  0  0  0  0  0  0  0  0  0  0  0
   45.9310   35.8930   42.1070 H   0  0  0  0  0  0  0  0  0  0  0  0
   47.8780   35.4000   40.7290 H   0  0  0  0  0  0  0  0  0  0  0  0
   49.4270   33.5500   41.4420 H   0  0  0  0  0  0  0  0  0  0  0  0
   47.4060   29.2210   46.5310 C   0  0  0  0  0  0  0  0  0  0  0  0
   48.3830   28.5950   45.7930 C   0  0  0  0  0  0  0  0  0  0  0  0
   48.3870   27.2810   46.2800 C   0  0  0  0  0  0  0  0  0  0  0  0
   47.4310   27.1810   47.2700 C   0  0  0  0  0  0  0  0  0  0  0  0
   46.8850   28.3750   47.3680 O   0  0  0  0  0  0  0  0  0  0  0  0
   48.9960   29.0170   45.0230 H   0  0  0  0  0  0  0  0  0  0  0  0
   49.0350   26.4980   45.9260 H   0  0  0  0  0  0  0  0  0  0  0  0
   47.0910   26.0170   48.0440 N   0  0  0  0  0  0  0  0  0  0  0  0
   45.8790   25.4410   48.0650 C   0  0  0  0  0  0  0  0  0  0  0  0
   44.9830   25.7290   47.5320 H   0  0  0  0  0  0  0  0  0  0  0  0
   45.9660   24.3900   48.9010 N   0  0  0  0  0  0  0  0  0  0  0  0
   47.2170   24.3160   49.3930 C   0  0  0  0  0  0  0  0  0  0  0  0
   47.9050   23.4910   50.2650 C   0  0  0  0  0  0  0  0  0  0  0  0
   47.3740   22.6630   50.7170 H   0  0  0  0  0  0  0  0  0  0  0  0
   49.2220   23.7180   50.5480 N   0  0  0  0  0  0  0  0  0  0  0  0
   49.8940   24.7360   50.0010 C   0  0  0  0  0  0  0  0  0  0  0  0
   50.9340   24.9690   50.1840 H   0  0  0  0  0  0  0  0  0  0  0  0
   49.2540   25.5570   49.1490 N   0  0  0  0  0  0  0  0  0  0  0  0
   47.9570   25.3680   48.8430 C   0  0  0  0  0  0  0  0  0  0  0  0
  1  9  1  0  0  0  0
  2  1  2  0  0  0  0
  2  3  1  0  0  0  0
  3  4  2  0  0  0  0
  4  8  1  0  0  0  0
  4  5  1  0  0  0  0
  5 12  1  0  0  0  0
  5  6  1  0  0  0  0
  6 13  1  0  0  0  0
  7  6  2  0  0  0  0
  8  7  1  0  0  0  0
  9 23  1  0  0  0  0
  9  8  2  0  0  0  0
 10  1  1  0  0  0  0
 11  3  1  0  0  0  0
 14 19  1  0  0  0  0
 15 16  1  0  0  0  0
 15 14  2  0  0  0  0
 16 17  2  0  0  0  0
 17 18  1  0  0  0  0
 18  2  1  0  0  0  0
 19 18  2  0  0  0  0
 20 14  1  0  0  0  0
 21 15  1  0  0  0  0
 22 16  1  0  0  0  0
 23 27  1  0  0  0  0
 24 25  1  0  0  0  0
 24 23  2  0  0  0  0
 25 26  2  0  0  0  0
 26 27  1  0  0  0  0
 26 30  1  0  0  0  0
 28 24  1  0  0  0  0
 29 25  1  0  0  0  0
 30 31  1  0  0  0  0
 30 41  1  0  0  0  0
 31 33  2  0  0  0  0
 32 31  1  0  0  0  0
 33 34  1  0  0  0  0
 34 35  1  0  0  0  0
 35 37  2  0  0  0  0
 35 36  1  0  0  0  0
 38 39  1  0  0  0  0
 38 37  1  0  0  0  0
 40 38  2  0  0  0  0
 41 40  1  0  0  0  0
 41 34  2  0  0  0  0
M  END
>  <minimizedAffinity>
-6.41993952

>  <minimizedRMSD>
1.64233339

$$$$
