
 OpenBabel03242523533D

 46 50  0  0  1  0  0  0  0  0999 V2000
   37.8000   32.2790   39.0260 C   0  0  1  0  0  0  0  0  0  0  0  0
   37.2550   30.9070   39.4320 C   0  0  1  0  0  0  0  0  0  0  0  0
   38.1160   29.9120   38.9350 O   0  0  0  0  0  0  0  0  0  0  0  0
   38.6760   30.2400   37.7040 C   0  0  0  0  0  0  0  0  0  0  0  0
   39.6820   31.3690   37.8490 C   0  0  2  0  0  0  0  0  0  0  0  0
   39.3110   32.1450   39.1260 C   0  0  1  0  0  0  0  0  0  0  0  0
   37.4800   33.0600   39.7450 H   0  0  0  0  0  0  0  0  0  0  0  0
   36.2190   30.7500   39.0750 H   0  0  0  0  0  0  0  0  0  0  0  0
   37.9140   30.4310   36.9380 H   0  0  0  0  0  0  0  0  0  0  0  0
   39.2190   29.3320   37.3820 H   0  0  0  0  0  0  0  0  0  0  0  0
   40.7140   31.0070   37.8900 H   0  0  0  0  0  0  0  0  0  0  0  0
   39.6240   31.5080   39.9640 H   0  0  0  0  0  0  0  0  0  0  0  0
   37.4320   32.5810   37.7170 O   0  0  0  0  0  0  0  0  0  0  0  0
   36.8630   33.3740   37.6370 H   0  0  0  0  0  0  0  0  0  0  0  0
   39.4630   32.2980   36.8170 O   0  0  0  0  0  0  0  0  0  0  0  0
   40.0150   32.0030   36.0470 H   0  0  0  0  0  0  0  0  0  0  0  0
   37.4000   30.8350   40.8230 O   0  0  0  0  0  0  0  0  0  0  0  0
   37.5210   29.7070   41.5340 C   0  0  0  0  0  0  0  0  0  0  0  0
   38.7350   29.3640   42.1220 C   0  0  0  0  0  0  0  0  0  0  0  0
   38.8100   28.1880   42.8510 C   0  0  0  0  0  0  0  0  0  0  0  0
   37.6870   27.3820   42.9770 N   0  0  0  0  0  0  0  0  0  0  0  0
   36.5360   27.7510   42.3930 C   0  0  0  0  0  0  0  0  0  0  0  0
   36.4420   28.9010   41.6760 N   0  0  0  0  0  0  0  0  0  0  0  0
   39.6050   29.9970   42.0180 H   0  0  0  0  0  0  0  0  0  0  0  0
   35.6470   27.1370   42.4790 H   0  0  0  0  0  0  0  0  0  0  0  0
   40.1050   27.7630   43.4930 C   0  0  0  0  0  0  0  0  0  0  0  0
   40.2750   26.2950   43.8100 C   0  0  0  0  0  0  0  0  0  0  0  0
   41.0850   27.0360   42.7320 C   0  0  0  0  0  0  0  0  0  0  0  0
   40.4130   28.4950   44.2610 H   0  0  0  0  0  0  0  0  0  0  0  0
   39.4310   25.6630   43.4910 H   0  0  0  0  0  0  0  0  0  0  0  0
   40.7760   26.0970   44.7710 H   0  0  0  0  0  0  0  0  0  0  0  0
   42.1680   27.0940   42.8830 H   0  0  0  0  0  0  0  0  0  0  0  0
   40.8230   26.6860   41.6970 H   0  0  0  0  0  0  0  0  0  0  0  0
   39.9640   33.3610   39.1720 O   0  0  0  0  0  0  0  0  0  0  0  0
   40.6750   34.0230   41.7230 H   0  0  0  0  0  0  0  0  0  0  0  0
   41.3910   33.9140   40.9620 N   0  0  0  0  0  0  0  0  0  0  0  0
   41.2430   33.5920   39.6450 C   0  0  0  0  0  0  0  0  0  0  0  0
   42.4570   33.5740   39.0720 N   0  0  0  0  0  0  0  0  0  0  0  0
   43.3970   33.8760   39.9840 C   0  0  0  0  0  0  0  0  0  0  0  0
   44.7690   34.0060   39.9780 C   0  0  0  0  0  0  0  0  0  0  0  0
   45.2550   33.8300   39.0260 H   0  0  0  0  0  0  0  0  0  0  0  0
   45.4260   34.3350   41.1230 N   0  0  0  0  0  0  0  0  0  0  0  0
   44.7100   34.5300   42.2490 C   0  0  0  0  0  0  0  0  0  0  0  0
   45.1980   34.7940   43.1810 H   0  0  0  0  0  0  0  0  0  0  0  0
   43.3870   34.4180   42.3090 N   0  0  0  0  0  0  0  0  0  0  0  0
   42.7070   34.0900   41.1830 C   0  0  0  0  0  0  0  0  0  0  0  0
  1  6  1  0  0  0  0
  1  2  1  0  0  0  0
  1  7  1  1  0  0  0
  2  8  1  6  0  0  0
  2 17  1  0  0  0  0
  3  2  1  0  0  0  0
  4  5  1  0  0  0  0
  4  3  1  0  0  0  0
  5 11  1  1  0  0  0
  5  6  1  0  0  0  0
  6 34  1  0  0  0  0
  6 12  1  1  0  0  0
  9  4  1  0  0  0  0
 10  4  1  0  0  0  0
 13  1  1  0  0  0  0
 14 13  1  0  0  0  0
 15  5  1  0  0  0  0
 16 15  1  0  0  0  0
 17 18  1  0  0  0  0
 18 23  2  0  0  0  0
 18 19  1  0  0  0  0
 19 20  2  0  0  0  0
 20 21  1  0  0  0  0
 20 26  1  0  0  0  0
 22 25  1  0  0  0  0
 22 21  2  0  0  0  0
 23 22  1  0  0  0  0
 24 19  1  0  0  0  0
 26 27  1  0  0  0  0
 26 29  1  0  0  0  0
 27 31  1  0  0  0  0
 28 32  1  0  0  0  0
 28 26  1  0  0  0  0
 28 27  1  0  0  0  0
 30 27  1  0  0  0  0
 33 28  1  0  0  0  0
 34 37  1  0  0  0  0
 36 46  1  0  0  0  0
 36 35  1  0  0  0  0
 37 36  1  0  0  0  0
 38 37  2  0  0  0  0
 38 39  1  0  0  0  0
 39 46  1  0  0  0  0
 40 39  2  0  0  0  0
 40 42  1  0  0  0  0
 41 40  1  0  0  0  0
 42 43  2  0  0  0  0
 43 45  1  0  0  0  0
 43 44  1  0  0  0  0
 46 45  2  0  0  0  0
M  END
>  <minimizedAffinity>
-6.49076366

$$$$

 OpenBabel03242523533D

 46 50  0  0  1  0  0  0  0  0999 V2000
   38.8000   31.0500   40.6870 C   0  0  1  0  0  0  0  0  0  0  0  0
   38.4230   29.9600   41.6940 C   0  0  1  0  0  0  0  0  0  0  0  0
   37.0510   29.6780   41.5650 O   0  0  0  0  0  0  0  0  0  0  0  0
   36.2910   30.8010   41.2510 C   0  0  0  0  0  0  0  0  0  0  0  0
   36.5700   31.2640   39.8310 C   0  0  2  0  0  0  0  0  0  0  0  0
   37.9700   30.7460   39.4520 C   0  0  1  0  0  0  0  0  0  0  0  0
   39.8700   30.9750   40.4050 H   0  0  0  0  0  0  0  0  0  0  0  0
   38.6730   30.2490   42.7330 H   0  0  0  0  0  0  0  0  0  0  0  0
   36.3980   31.5980   41.9970 H   0  0  0  0  0  0  0  0  0  0  0  0
   35.2400   30.4620   41.3040 H   0  0  0  0  0  0  0  0  0  0  0  0
   35.8120   30.9160   39.1210 H   0  0  0  0  0  0  0  0  0  0  0  0
   37.8520   29.6690   39.2760 H   0  0  0  0  0  0  0  0  0  0  0  0
   38.4720   32.3090   41.1880 O   0  0  0  0  0  0  0  0  0  0  0  0
   39.2410   32.9000   41.3120 H   0  0  0  0  0  0  0  0  0  0  0  0
   36.7200   32.6610   39.8370 O   0  0  0  0  0  0  0  0  0  0  0  0
   35.8140   33.0450   39.7070 H   0  0  0  0  0  0  0  0  0  0  0  0
   39.0640   28.7950   41.2530 O   0  0  0  0  0  0  0  0  0  0  0  0
   39.2390   27.6820   41.9770 C   0  0  0  0  0  0  0  0  0  0  0  0
   38.6250   26.4890   41.6080 C   0  0  0  0  0  0  0  0  0  0  0  0
   38.8390   25.3640   42.3890 C   0  0  0  0  0  0  0  0  0  0  0  0
   39.6510   25.4480   43.5110 N   0  0  0  0  0  0  0  0  0  0  0  0
   40.2240   26.6190   43.8300 C   0  0  0  0  0  0  0  0  0  0  0  0
   40.0270   27.7330   43.0770 N   0  0  0  0  0  0  0  0  0  0  0  0
   37.9940   26.4330   40.7330 H   0  0  0  0  0  0  0  0  0  0  0  0
   40.8610   26.7070   44.7020 H   0  0  0  0  0  0  0  0  0  0  0  0
   38.1840   24.0520   42.0420 C   0  0  0  0  0  0  0  0  0  0  0  0
   36.8390   24.1070   41.3540 C   0  0  0  0  0  0  0  0  0  0  0  0
   38.1280   23.6130   40.6740 C   0  0  0  0  0  0  0  0  0  0  0  0
   38.3130   23.3270   42.8650 H   0  0  0  0  0  0  0  0  0  0  0  0
   36.4870   25.1260   41.1330 H   0  0  0  0  0  0  0  0  0  0  0  0
   36.1250   23.3430   41.7000 H   0  0  0  0  0  0  0  0  0  0  0  0
   38.1430   22.5670   40.3490 H   0  0  0  0  0  0  0  0  0  0  0  0
   38.4660   24.3100   39.8610 H   0  0  0  0  0  0  0  0  0  0  0  0
   38.4360   31.3730   38.3130 O   0  0  0  0  0  0  0  0  0  0  0  0
   39.4460   33.8610   38.8030 H   0  0  0  0  0  0  0  0  0  0  0  0
   40.0390   33.0960   38.3950 N   0  0  0  0  0  0  0  0  0  0  0  0
   39.7290   31.8050   38.0810 C   0  0  0  0  0  0  0  0  0  0  0  0
   40.8260   31.2140   37.5840 N   0  0  0  0  0  0  0  0  0  0  0  0
   41.8490   32.0860   37.5650 C   0  0  0  0  0  0  0  0  0  0  0  0
   43.1710   32.0470   37.1770 C   0  0  0  0  0  0  0  0  0  0  0  0
   43.5180   31.1000   36.7820 H   0  0  0  0  0  0  0  0  0  0  0  0
   43.9480   33.1550   37.3020 N   0  0  0  0  0  0  0  0  0  0  0  0
   43.4010   34.2790   37.8080 C   0  0  0  0  0  0  0  0  0  0  0  0
   43.9900   35.1830   37.9220 H   0  0  0  0  0  0  0  0  0  0  0  0
   42.1350   34.3700   38.1970 N   0  0  0  0  0  0  0  0  0  0  0  0
   41.3360   33.2810   38.0840 C   0  0  0  0  0  0  0  0  0  0  0  0
  1  7  1  6  0  0  0
  1 13  1  0  0  0  0
  1  2  1  0  0  0  0
  2  8  1  1  0  0  0
  3  2  1  0  0  0  0
  4 10  1  0  0  0  0
  4  3  1  0  0  0  0
  4  9  1  0  0  0  0
  5 11  1  6  0  0  0
  5 15  1  0  0  0  0
  5  4  1  0  0  0  0
  6 12  1  6  0  0  0
  6  5  1  0  0  0  0
  6  1  1  0  0  0  0
 13 14  1  0  0  0  0
 16 15  1  0  0  0  0
 17  2  1  0  0  0  0
 17 18  1  0  0  0  0
 18 23  1  0  0  0  0
 19 18  2  0  0  0  0
 19 20  1  0  0  0  0
 20 21  2  0  0  0  0
 21 22  1  0  0  0  0
 22 25  1  0  0  0  0
 23 22  2  0  0  0  0
 24 19  1  0  0  0  0
 26 20  1  0  0  0  0
 26 29  1  0  0  0  0
 27 31  1  0  0  0  0
 27 26  1  0  0  0  0
 28 27  1  0  0  0  0
 28 26  1  0  0  0  0
 30 27  1  0  0  0  0
 32 28  1  0  0  0  0
 33 28  1  0  0  0  0
 34  6  1  0  0  0  0
 36 35  1  0  0  0  0
 37 34  1  0  0  0  0
 37 36  1  0  0  0  0
 38 37  2  0  0  0  0
 39 38  1  0  0  0  0
 39 46  1  0  0  0  0
 40 42  1  0  0  0  0
 40 39  2  0  0  0  0
 41 40  1  0  0  0  0
 42 43  2  0  0  0  0
 43 44  1  0  0  0  0
 43 45  1  0  0  0  0
 46 45  2  0  0  0  0
 46 36  1  0  0  0  0
M  END
>  <minimizedAffinity>
-6.3224926

$$$$

 OpenBabel03242523533D

 46 50  0  0  1  0  0  0  0  0999 V2000
   38.2540   32.5320   39.5950 C   0  0  1  0  0  0  0  0  0  0  0  0
   37.6030   31.4330   40.4410 C   0  0  1  0  0  0  0  0  0  0  0  0
   37.3500   30.3190   39.6200 O   0  0  0  0  0  0  0  0  0  0  0  0
   36.9990   30.6680   38.3200 C   0  0  0  0  0  0  0  0  0  0  0  0
   38.1890   31.2450   37.5720 C   0  0  2  0  0  0  0  0  0  0  0  0
   39.1650   31.7940   38.6290 C   0  0  1  0  0  0  0  0  0  0  0  0
   38.8860   33.1920   40.2230 H   0  0  0  0  0  0  0  0  0  0  0  0
   36.6750   31.7820   40.9330 H   0  0  0  0  0  0  0  0  0  0  0  0
   36.1110   31.3120   38.2870 H   0  0  0  0  0  0  0  0  0  0  0  0
   36.7120   29.7170   37.8330 H   0  0  0  0  0  0  0  0  0  0  0  0
   38.6760   30.5050   36.9280 H   0  0  0  0  0  0  0  0  0  0  0  0
   39.6390   30.9140   39.0840 H   0  0  0  0  0  0  0  0  0  0  0  0
   37.2830   33.2420   38.8910 O   0  0  0  0  0  0  0  0  0  0  0  0
   37.2340   34.1900   39.1280 H   0  0  0  0  0  0  0  0  0  0  0  0
   37.7680   32.3900   36.8770 O   0  0  0  0  0  0  0  0  0  0  0  0
   37.4520   32.0840   35.9880 H   0  0  0  0  0  0  0  0  0  0  0  0
   38.5950   30.9980   41.3290 O   0  0  0  0  0  0  0  0  0  0  0  0
   38.5330   29.8920   42.0810 C   0  0  0  0  0  0  0  0  0  0  0  0
   39.6890   29.1890   42.4090 C   0  0  0  0  0  0  0  0  0  0  0  0
   39.5740   28.0520   43.1920 C   0  0  0  0  0  0  0  0  0  0  0  0
   38.3230   27.6400   43.6290 N   0  0  0  0  0  0  0  0  0  0  0  0
   37.2340   28.3470   43.2890 C   0  0  0  0  0  0  0  0  0  0  0  0
   37.3260   29.4660   42.5230 N   0  0  0  0  0  0  0  0  0  0  0  0
   40.6590   29.5170   42.0630 H   0  0  0  0  0  0  0  0  0  0  0  0
   36.2480   28.0430   43.6200 H   0  0  0  0  0  0  0  0  0  0  0  0
   40.7930   27.2460   43.5610 C   0  0  0  0  0  0  0  0  0  0  0  0
   41.7230   26.8410   42.4410 C   0  0  0  0  0  0  0  0  0  0  0  0
   42.0950   27.8550   43.5360 C   0  0  0  0  0  0  0  0  0  0  0  0
   40.5370   26.4850   44.3190 H   0  0  0  0  0  0  0  0  0  0  0  0
   41.4300   27.2220   41.4500 H   0  0  0  0  0  0  0  0  0  0  0  0
   42.1270   25.8200   42.5380 H   0  0  0  0  0  0  0  0  0  0  0  0
   42.9270   27.5840   44.1950 H   0  0  0  0  0  0  0  0  0  0  0  0
   42.2050   28.8940   43.1250 H   0  0  0  0  0  0  0  0  0  0  0  0
   40.1160   32.6090   38.0470 O   0  0  0  0  0  0  0  0  0  0  0  0
   40.6840   30.5680   36.3260 H   0  0  0  0  0  0  0  0  0  0  0  0
   41.4400   31.1720   36.7320 N   0  0  0  0  0  0  0  0  0  0  0  0
   41.3650   32.2260   37.5960 C   0  0  0  0  0  0  0  0  0  0  0  0
   42.6090   32.6780   37.8230 N   0  0  0  0  0  0  0  0  0  0  0  0
   43.4960   31.9460   37.1280 C   0  0  0  0  0  0  0  0  0  0  0  0
   44.8660   31.9440   36.9730 C   0  0  0  0  0  0  0  0  0  0  0  0
   45.4040   32.7030   37.5290 H   0  0  0  0  0  0  0  0  0  0  0  0
   45.4570   31.0270   36.1620 N   0  0  0  0  0  0  0  0  0  0  0  0
   44.6800   30.1300   35.5220 C   0  0  0  0  0  0  0  0  0  0  0  0
   45.1160   29.3830   34.8670 H   0  0  0  0  0  0  0  0  0  0  0  0
   43.3570   30.0880   35.6350 N   0  0  0  0  0  0  0  0  0  0  0  0
   42.7410   30.9900   36.4380 C   0  0  0  0  0  0  0  0  0  0  0  0
  1  7  1  1  0  0  0
  1  2  1  0  0  0  0
  2  8  1  1  0  0  0
  2 17  1  0  0  0  0
  3  2  1  0  0  0  0
  4  3  1  0  0  0  0
  5 11  1  6  0  0  0
  5  4  1  0  0  0  0
  5  6  1  0  0  0  0
  6 12  1  1  0  0  0
  6  1  1  0  0  0  0
  9  4  1  0  0  0  0
 10  4  1  0  0  0  0
 13 14  1  0  0  0  0
 13  1  1  0  0  0  0
 15  5  1  0  0  0  0
 16 15  1  0  0  0  0
 17 18  1  0  0  0  0
 18 19  2  0  0  0  0
 18 23  1  0  0  0  0
 19 20  1  0  0  0  0
 20 26  1  0  0  0  0
 20 21  2  0  0  0  0
 22 25  1  0  0  0  0
 22 21  1  0  0  0  0
 23 22  2  0  0  0  0
 24 19  1  0  0  0  0
 26 29  1  0  0  0  0
 27 31  1  0  0  0  0
 27 28  1  0  0  0  0
 27 26  1  0  0  0  0
 28 26  1  0  0  0  0
 28 32  1  0  0  0  0
 30 27  1  0  0  0  0
 33 28  1  0  0  0  0
 34  6  1  0  0  0  0
 35 36  1  0  0  0  0
 36 37  1  0  0  0  0
 37 38  2  0  0  0  0
 37 34  1  0  0  0  0
 39 38  1  0  0  0  0
 40 39  1  0  0  0  0
 40 41  1  0  0  0  0
 42 40  2  0  0  0  0
 43 45  2  0  0  0  0
 43 42  1  0  0  0  0
 44 43  1  0  0  0  0
 45 46  1  0  0  0  0
 46 36  1  0  0  0  0
 46 39  2  0  0  0  0
M  END
>  <minimizedAffinity>
-6.31852293

$$$$

 OpenBabel03242523533D

 46 50  0  0  1  0  0  0  0  0999 V2000
   37.6580   29.2720   41.8310 C   0  0  1  0  0  0  0  0  0  0  0  0
   37.4090   27.9160   41.1630 C   0  0  1  0  0  0  0  0  0  0  0  0
   36.4620   28.0840   40.1360 O   0  0  0  0  0  0  0  0  0  0  0  0
   35.4950   29.0390   40.4370 C   0  0  0  0  0  0  0  0  0  0  0  0
   36.0930   30.4360   40.4350 C   0  0  2  0  0  0  0  0  0  0  0  0
   37.6030   30.2830   40.6980 C   0  0  1  0  0  0  0  0  0  0  0  0
   38.6730   29.3140   42.2740 H   0  0  0  0  0  0  0  0  0  0  0  0
   37.0760   27.1500   41.8890 H   0  0  0  0  0  0  0  0  0  0  0  0
   34.9480   28.8010   41.3580 H   0  0  0  0  0  0  0  0  0  0  0  0
   34.7600   28.9750   39.6130 H   0  0  0  0  0  0  0  0  0  0  0  0
   35.9050   30.9680   39.4960 H   0  0  0  0  0  0  0  0  0  0  0  0
   38.0310   29.8950   39.7640 H   0  0  0  0  0  0  0  0  0  0  0  0
   36.6600   29.5440   42.7650 O   0  0  0  0  0  0  0  0  0  0  0  0
   36.9880   29.6280   43.6840 H   0  0  0  0  0  0  0  0  0  0  0  0
   35.6230   31.1250   41.5650 O   0  0  0  0  0  0  0  0  0  0  0  0
   34.7760   31.5670   41.2980 H   0  0  0  0  0  0  0  0  0  0  0  0
   38.5980   27.5960   40.4950 O   0  0  0  0  0  0  0  0  0  0  0  0
   38.9810   26.3640   40.1380 C   0  0  0  0  0  0  0  0  0  0  0  0
   38.2340   25.2510   40.5090 C   0  0  0  0  0  0  0  0  0  0  0  0
   38.6710   23.9970   40.1130 C   0  0  0  0  0  0  0  0  0  0  0  0
   39.8340   23.8760   39.3650 N   0  0  0  0  0  0  0  0  0  0  0  0
   40.5250   24.9770   39.0310 C   0  0  0  0  0  0  0  0  0  0  0  0
   40.1120   26.2150   39.4080 N   0  0  0  0  0  0  0  0  0  0  0  0
   37.3290   25.3540   41.0910 H   0  0  0  0  0  0  0  0  0  0  0  0
   41.4350   24.9050   38.4470 H   0  0  0  0  0  0  0  0  0  0  0  0
   37.9060   22.7580   40.5020 C   0  0  0  0  0  0  0  0  0  0  0  0
   37.0690   22.0930   39.4330 C   0  0  0  0  0  0  0  0  0  0  0  0
   38.3380   21.4670   40.0380 C   0  0  0  0  0  0  0  0  0  0  0  0
   37.4590   22.8790   41.5050 H   0  0  0  0  0  0  0  0  0  0  0  0
   37.1400   22.5700   38.4430 H   0  0  0  0  0  0  0  0  0  0  0  0
   36.0980   21.7150   39.7920 H   0  0  0  0  0  0  0  0  0  0  0  0
   38.2100   20.5280   40.5860 H   0  0  0  0  0  0  0  0  0  0  0  0
   39.1730   21.4070   39.2900 H   0  0  0  0  0  0  0  0  0  0  0  0
   38.1720   31.4980   41.0230 O   0  0  0  0  0  0  0  0  0  0  0  0
   39.2630   30.7480   38.6360 H   0  0  0  0  0  0  0  0  0  0  0  0
   39.5520   31.6350   39.1200 N   0  0  0  0  0  0  0  0  0  0  0  0
   39.1330   32.1780   40.2990 C   0  0  0  0  0  0  0  0  0  0  0  0
   39.7980   33.3270   40.4970 N   0  0  0  0  0  0  0  0  0  0  0  0
   40.6420   33.5500   39.4750 C   0  0  0  0  0  0  0  0  0  0  0  0
   41.5490   34.5330   39.1420 C   0  0  0  0  0  0  0  0  0  0  0  0
   41.6400   35.3490   39.8480 H   0  0  0  0  0  0  0  0  0  0  0  0
   42.2620   34.4380   37.9880 N   0  0  0  0  0  0  0  0  0  0  0  0
   42.0610   33.3710   37.1870 C   0  0  0  0  0  0  0  0  0  0  0  0
   42.6120   33.2610   36.2590 H   0  0  0  0  0  0  0  0  0  0  0  0
   41.2000   32.3970   37.4600 N   0  0  0  0  0  0  0  0  0  0  0  0
   40.4760   32.4660   38.6040 C   0  0  0  0  0  0  0  0  0  0  0  0
  1  7  1  1  0  0  0
  1 13  1  0  0  0  0
  2  1  1  0  0  0  0
  2  8  1  1  0  0  0
  3  4  1  0  0  0  0
  3  2  1  0  0  0  0
  4  9  1  0  0  0  0
  5 11  1  6  0  0  0
  5  4  1  0  0  0  0
  5  6  1  0  0  0  0
  5 15  1  0  0  0  0
  6 12  1  6  0  0  0
  6 34  1  0  0  0  0
  6  1  1  0  0  0  0
 10  4  1  0  0  0  0
 13 14  1  0  0  0  0
 16 15  1  0  0  0  0
 17  2  1  0  0  0  0
 18 17  1  0  0  0  0
 18 19  1  0  0  0  0
 19 24  1  0  0  0  0
 20 26  1  0  0  0  0
 20 19  2  0  0  0  0
 21 20  1  0  0  0  0
 22 21  2  0  0  0  0
 22 23  1  0  0  0  0
 23 18  2  0  0  0  0
 25 22  1  0  0  0  0
 26 29  1  0  0  0  0
 27 31  1  0  0  0  0
 27 28  1  0  0  0  0
 27 26  1  0  0  0  0
 28 26  1  0  0  0  0
 28 32  1  0  0  0  0
 30 27  1  0  0  0  0
 33 28  1  0  0  0  0
 35 36  1  0  0  0  0
 36 37  1  0  0  0  0
 37 38  2  0  0  0  0
 37 34  1  0  0  0  0
 39 38  1  0  0  0  0
 40 39  1  0  0  0  0
 40 41  1  0  0  0  0
 42 40  2  0  0  0  0
 43 45  2  0  0  0  0
 43 42  1  0  0  0  0
 44 43  1  0  0  0  0
 45 46  1  0  0  0  0
 46 36  1  0  0  0  0
 46 39  2  0  0  0  0
M  END
>  <minimizedAffinity>
-6.30929232

$$$$

 OpenBabel03242523533D

 46 50  0  0  1  0  0  0  0  0999 V2000
   37.8620   31.5800   40.7110 C   0  0  1  0  0  0  0  0  0  0  0  0
   37.6090   30.0930   40.4480 C   0  0  1  0  0  0  0  0  0  0  0  0
   37.5430   29.8820   39.0580 O   0  0  0  0  0  0  0  0  0  0  0  0
   36.9630   30.9460   38.3730 C   0  0  0  0  0  0  0  0  0  0  0  0
   37.8760   32.1600   38.3830 C   0  0  2  0  0  0  0  0  0  0  0  0
   38.8050   32.0190   39.6030 C   0  0  1  0  0  0  0  0  0  0  0  0
   38.3820   31.7280   41.6780 H   0  0  0  0  0  0  0  0  0  0  0  0
   36.6900   29.7330   40.9470 H   0  0  0  0  0  0  0  0  0  0  0  0
   35.9460   31.1620   38.7240 H   0  0  0  0  0  0  0  0  0  0  0  0
   36.8640   30.5960   37.3280 H   0  0  0  0  0  0  0  0  0  0  0  0
   38.4490   32.2590   37.4560 H   0  0  0  0  0  0  0  0  0  0  0  0
   39.5320   31.2420   39.3350 H   0  0  0  0  0  0  0  0  0  0  0  0
   36.6680   32.2970   40.6350 O   0  0  0  0  0  0  0  0  0  0  0  0
   36.4160   32.7360   41.4730 H   0  0  0  0  0  0  0  0  0  0  0  0
   37.1040   33.2970   38.6790 O   0  0  0  0  0  0  0  0  0  0  0  0
   36.7690   33.6470   37.8140 H   0  0  0  0  0  0  0  0  0  0  0  0
   38.7770   29.4310   40.8480 O   0  0  0  0  0  0  0  0  0  0  0  0
   38.8270   28.3650   41.6560 C   0  0  0  0  0  0  0  0  0  0  0  0
   38.0080   27.2620   41.4320 C   0  0  0  0  0  0  0  0  0  0  0  0
   38.1000   26.1820   42.2950 C   0  0  0  0  0  0  0  0  0  0  0  0
   38.9950   26.2190   43.3540 N   0  0  0  0  0  0  0  0  0  0  0  0
   39.7660   27.3030   43.5340 C   0  0  0  0  0  0  0  0  0  0  0  0
   39.6920   28.3720   42.6980 N   0  0  0  0  0  0  0  0  0  0  0  0
   37.3130   27.2420   40.6040 H   0  0  0  0  0  0  0  0  0  0  0  0
   40.4720   27.3530   44.3540 H   0  0  0  0  0  0  0  0  0  0  0  0
   37.2230   24.9710   42.1050 C   0  0  0  0  0  0  0  0  0  0  0  0
   36.7600   24.6600   40.7000 C   0  0  0  0  0  0  0  0  0  0  0  0
   37.7520   23.7850   41.4860 C   0  0  0  0  0  0  0  0  0  0  0  0
   36.4800   24.9010   42.9200 H   0  0  0  0  0  0  0  0  0  0  0  0
   37.1560   25.3440   39.9330 H   0  0  0  0  0  0  0  0  0  0  0  0
   35.7170   24.3100   40.6370 H   0  0  0  0  0  0  0  0  0  0  0  0
   37.4340   22.7630   41.7130 H   0  0  0  0  0  0  0  0  0  0  0  0
   38.7820   23.8160   41.0400 H   0  0  0  0  0  0  0  0  0  0  0  0
   39.4480   33.2100   39.8740 O   0  0  0  0  0  0  0  0  0  0  0  0
   41.0370   33.5400   37.6790 H   0  0  0  0  0  0  0  0  0  0  0  0
   41.4290   33.5720   38.6530 N   0  0  0  0  0  0  0  0  0  0  0  0
   40.8120   33.4320   39.8620 C   0  0  0  0  0  0  0  0  0  0  0  0
   41.7380   33.5510   40.8270 N   0  0  0  0  0  0  0  0  0  0  0  0
   42.9460   33.7660   40.2790 C   0  0  0  0  0  0  0  0  0  0  0  0
   44.2250   33.9580   40.7560 C   0  0  0  0  0  0  0  0  0  0  0  0
   44.3330   33.9390   41.8340 H   0  0  0  0  0  0  0  0  0  0  0  0
   45.2520   34.1530   39.8870 N   0  0  0  0  0  0  0  0  0  0  0  0
   44.9930   34.1540   38.5640 C   0  0  0  0  0  0  0  0  0  0  0  0
   45.7870   34.3060   37.8410 H   0  0  0  0  0  0  0  0  0  0  0  0
   43.7800   33.9740   38.0510 N   0  0  0  0  0  0  0  0  0  0  0  0
   42.7370   33.7770   38.8940 C   0  0  0  0  0  0  0  0  0  0  0  0
  1  7  1  1  0  0  0
  2  1  1  0  0  0  0
  2 17  1  0  0  0  0
  2  8  1  1  0  0  0
  3  2  1  0  0  0  0
  4  5  1  0  0  0  0
  4  9  1  0  0  0  0
  4  3  1  0  0  0  0
  5 11  1  6  0  0  0
  5 15  1  0  0  0  0
  5  6  1  0  0  0  0
  6 12  1  6  0  0  0
  6 34  1  0  0  0  0
  6  1  1  0  0  0  0
 10  4  1  0  0  0  0
 13  1  1  0  0  0  0
 13 14  1  0  0  0  0
 16 15  1  0  0  0  0
 17 18  1  0  0  0  0
 18 23  1  0  0  0  0
 19 18  2  0  0  0  0
 19 20  1  0  0  0  0
 20 21  2  0  0  0  0
 21 22  1  0  0  0  0
 22 25  1  0  0  0  0
 23 22  2  0  0  0  0
 24 19  1  0  0  0  0
 26 20  1  0  0  0  0
 26 29  1  0  0  0  0
 27 28  1  0  0  0  0
 27 26  1  0  0  0  0
 28 32  1  0  0  0  0
 28 26  1  0  0  0  0
 30 27  1  0  0  0  0
 31 27  1  0  0  0  0
 33 28  1  0  0  0  0
 35 36  1  0  0  0  0
 36 46  1  0  0  0  0
 36 37  1  0  0  0  0
 37 34  1  0  0  0  0
 37 38  2  0  0  0  0
 39 40  1  0  0  0  0
 39 38  1  0  0  0  0
 40 41  1  0  0  0  0
 42 40  2  0  0  0  0
 43 42  1  0  0  0  0
 44 43  1  0  0  0  0
 45 43  2  0  0  0  0
 45 46  1  0  0  0  0
 46 39  2  0  0  0  0
M  END
>  <minimizedAffinity>
-6.30410671

$$$$

 OpenBabel03242523533D

 46 50  0  0  1  0  0  0  0  0999 V2000
   40.8480   32.1470   40.1370 C   0  0  1  0  0  0  0  0  0  0  0  0
   41.8740   32.0180   41.2670 C   0  0  1  0  0  0  0  0  0  0  0  0
   42.3300   33.3020   41.6150 O   0  0  0  0  0  0  0  0  0  0  0  0
   42.4160   34.1630   40.5250 C   0  0  0  0  0  0  0  0  0  0  0  0
   41.0330   34.5350   40.0170 C   0  0  2  0  0  0  0  0  0  0  0  0
   40.0730   33.4140   40.4550 C   0  0  1  0  0  0  0  0  0  0  0  0
   40.1340   31.2990   40.1520 H   0  0  0  0  0  0  0  0  0  0  0  0
   42.7180   31.3590   40.9890 H   0  0  0  0  0  0  0  0  0  0  0  0
   43.0790   33.7770   39.7410 H   0  0  0  0  0  0  0  0  0  0  0  0
   42.8980   35.0780   40.9180 H   0  0  0  0  0  0  0  0  0  0  0  0
   40.7010   35.5110   40.3880 H   0  0  0  0  0  0  0  0  0  0  0  0
   39.9200   33.5570   41.5330 H   0  0  0  0  0  0  0  0  0  0  0  0
   41.4930   32.2760   38.9080 O   0  0  0  0  0  0  0  0  0  0  0  0
   41.3020   31.5480   38.2820 H   0  0  0  0  0  0  0  0  0  0  0  0
   41.0340   34.4480   38.6150 O   0  0  0  0  0  0  0  0  0  0  0  0
   41.3170   35.3360   38.2740 H   0  0  0  0  0  0  0  0  0  0  0  0
   41.1530   31.5850   42.3880 O   0  0  0  0  0  0  0  0  0  0  0  0
   40.6730   30.3500   42.5740 C   0  0  0  0  0  0  0  0  0  0  0  0
   39.3010   30.1150   42.5910 C   0  0  0  0  0  0  0  0  0  0  0  0
   38.8530   28.8180   42.7840 C   0  0  0  0  0  0  0  0  0  0  0  0
   39.7700   27.7900   42.9580 N   0  0  0  0  0  0  0  0  0  0  0  0
   41.0840   28.0620   42.9360 C   0  0  0  0  0  0  0  0  0  0  0  0
   41.5430   29.3270   42.7460 N   0  0  0  0  0  0  0  0  0  0  0  0
   38.5950   30.9210   42.4550 H   0  0  0  0  0  0  0  0  0  0  0  0
   41.8160   27.2750   43.0690 H   0  0  0  0  0  0  0  0  0  0  0  0
   37.3780   28.5130   42.8270 C   0  0  0  0  0  0  0  0  0  0  0  0
   36.9450   27.1190   42.4370 C   0  0  0  0  0  0  0  0  0  0  0  0
   36.8430   27.6760   43.8670 C   0  0  0  0  0  0  0  0  0  0  0  0
   36.7960   29.3640   42.4300 H   0  0  0  0  0  0  0  0  0  0  0  0
   37.7760   26.4380   42.1960 H   0  0  0  0  0  0  0  0  0  0  0  0
   36.0190   27.0850   41.8400 H   0  0  0  0  0  0  0  0  0  0  0  0
   35.8370   27.7650   44.2900 H   0  0  0  0  0  0  0  0  0  0  0  0
   37.5510   27.1580   44.5690 H   0  0  0  0  0  0  0  0  0  0  0  0
   38.8720   33.5020   39.7810 O   0  0  0  0  0  0  0  0  0  0  0  0
   37.0820   32.3240   41.4720 H   0  0  0  0  0  0  0  0  0  0  0  0
   37.1890   32.0080   40.4750 N   0  0  0  0  0  0  0  0  0  0  0  0
   38.0130   32.4600   39.4860 C   0  0  0  0  0  0  0  0  0  0  0  0
   37.7820   31.7370   38.3790 N   0  0  0  0  0  0  0  0  0  0  0  0
   36.8270   30.8220   38.6190 C   0  0  0  0  0  0  0  0  0  0  0  0
   36.1990   29.8370   37.8880 C   0  0  0  0  0  0  0  0  0  0  0  0
   36.5220   29.7370   36.8580 H   0  0  0  0  0  0  0  0  0  0  0  0
   35.2410   29.0660   38.4680 N   0  0  0  0  0  0  0  0  0  0  0  0
   34.9250   29.2860   39.7600 C   0  0  0  0  0  0  0  0  0  0  0  0
   34.1660   28.6910   40.2560 H   0  0  0  0  0  0  0  0  0  0  0  0
   35.4980   30.2210   40.5090 N   0  0  0  0  0  0  0  0  0  0  0  0
   36.4570   31.0050   39.9570 C   0  0  0  0  0  0  0  0  0  0  0  0
  1  7  1  6  0  0  0
  1  6  1  0  0  0  0
  1  2  1  0  0  0  0
  2  8  1  6  0  0  0
  2  3  1  0  0  0  0
  2 17  1  0  0  0  0
  4 10  1  0  0  0  0
  4  3  1  0  0  0  0
  5 11  1  1  0  0  0
  5  6  1  0  0  0  0
  5  4  1  0  0  0  0
  6 12  1  1  0  0  0
  9  4  1  0  0  0  0
 13  1  1  0  0  0  0
 14 13  1  0  0  0  0
 15  5  1  0  0  0  0
 16 15  1  0  0  0  0
 17 18  1  0  0  0  0
 18 19  2  0  0  0  0
 18 23  1  0  0  0  0
 19 20  1  0  0  0  0
 20 26  1  0  0  0  0
 20 21  2  0  0  0  0
 22 21  1  0  0  0  0
 22 25  1  0  0  0  0
 23 22  2  0  0  0  0
 24 19  1  0  0  0  0
 26 28  1  0  0  0  0
 27 26  1  0  0  0  0
 27 28  1  0  0  0  0
 28 32  1  0  0  0  0
 28 33  1  0  0  0  0
 29 26  1  0  0  0  0
 30 27  1  0  0  0  0
 31 27  1  0  0  0  0
 34  6  1  0  0  0  0
 36 35  1  0  0  0  0
 37 34  1  0  0  0  0
 37 36  1  0  0  0  0
 38 39  1  0  0  0  0
 38 37  2  0  0  0  0
 39 46  1  0  0  0  0
 40 42  1  0  0  0  0
 40 39  2  0  0  0  0
 41 40  1  0  0  0  0
 42 43  2  0  0  0  0
 43 44  1  0  0  0  0
 43 45  1  0  0  0  0
 46 36  1  0  0  0  0
 46 45  2  0  0  0  0
M  END
>  <minimizedAffinity>
-6.28032875

$$$$

 OpenBabel03242523533D

 46 50  0  0  1  0  0  0  0  0999 V2000
   36.8350   30.0550   41.4570 C   0  0  1  0  0  0  0  0  0  0  0  0
   36.4740   28.8720   40.5540 C   0  0  1  0  0  0  0  0  0  0  0  0
   36.6360   29.2600   39.2120 O   0  0  0  0  0  0  0  0  0  0  0  0
   36.3070   30.5930   38.9860 C   0  0  0  0  0  0  0  0  0  0  0  0
   37.3300   31.5190   39.6220 C   0  0  2  0  0  0  0  0  0  0  0  0
   38.0040   30.7340   40.7630 C   0  0  1  0  0  0  0  0  0  0  0  0
   37.1860   29.7040   42.4480 H   0  0  0  0  0  0  0  0  0  0  0  0
   35.4460   28.5070   40.7400 H   0  0  0  0  0  0  0  0  0  0  0  0
   35.2740   30.8220   39.2740 H   0  0  0  0  0  0  0  0  0  0  0  0
   36.3600   30.7220   37.8880 H   0  0  0  0  0  0  0  0  0  0  0  0
   38.0680   31.8850   38.9010 H   0  0  0  0  0  0  0  0  0  0  0  0
   38.6790   30.0190   40.2740 H   0  0  0  0  0  0  0  0  0  0  0  0
   35.7600   30.9360   41.5570 O   0  0  0  0  0  0  0  0  0  0  0  0
   35.4100   31.0340   42.4660 H   0  0  0  0  0  0  0  0  0  0  0  0
   36.6460   32.5520   40.2850 O   0  0  0  0  0  0  0  0  0  0  0  0
   36.5120   33.2770   39.6210 H   0  0  0  0  0  0  0  0  0  0  0  0
   37.4710   27.9120   40.7650 O   0  0  0  0  0  0  0  0  0  0  0  0
   37.2700   26.5930   40.8720 C   0  0  0  0  0  0  0  0  0  0  0  0
   36.7020   25.8730   39.8250 C   0  0  0  0  0  0  0  0  0  0  0  0
   36.5160   24.5090   39.9830 C   0  0  0  0  0  0  0  0  0  0  0  0
   36.8950   23.8930   41.1670 N   0  0  0  0  0  0  0  0  0  0  0  0
   37.4400   24.6260   42.1510 C   0  0  0  0  0  0  0  0  0  0  0  0
   37.6310   25.9640   42.0160 N   0  0  0  0  0  0  0  0  0  0  0  0
   36.4090   26.3600   38.9060 H   0  0  0  0  0  0  0  0  0  0  0  0
   37.7430   24.1660   43.0840 H   0  0  0  0  0  0  0  0  0  0  0  0
   35.8900   23.6860   38.8860 C   0  0  0  0  0  0  0  0  0  0  0  0
   34.5050   23.1330   39.1360 C   0  0  0  0  0  0  0  0  0  0  0  0
   34.8130   24.2290   38.1010 C   0  0  0  0  0  0  0  0  0  0  0  0
   36.6390   23.0150   38.4310 H   0  0  0  0  0  0  0  0  0  0  0  0
   34.0680   23.4310   40.1020 H   0  0  0  0  0  0  0  0  0  0  0  0
   34.3550   22.1090   38.7580 H   0  0  0  0  0  0  0  0  0  0  0  0
   34.6160   23.9860   37.0530 H   0  0  0  0  0  0  0  0  0  0  0  0
   34.3690   25.2180   38.3940 H   0  0  0  0  0  0  0  0  0  0  0  0
   38.7140   31.5800   41.5920 O   0  0  0  0  0  0  0  0  0  0  0  0
   40.9970   31.0990   43.0080 H   0  0  0  0  0  0  0  0  0  0  0  0
   40.9890   31.7440   42.1790 N   0  0  0  0  0  0  0  0  0  0  0  0
   39.9680   32.1100   41.3510 C   0  0  0  0  0  0  0  0  0  0  0  0
   40.4510   32.9600   40.4310 N   0  0  0  0  0  0  0  0  0  0  0  0
   41.7650   33.1580   40.6360 C   0  0  0  0  0  0  0  0  0  0  0  0
   42.7550   33.9010   40.0310 C   0  0  0  0  0  0  0  0  0  0  0  0
   42.4470   34.4870   39.1730 H   0  0  0  0  0  0  0  0  0  0  0  0
   44.0240   33.8670   40.5180 N   0  0  0  0  0  0  0  0  0  0  0  0
   44.2860   33.0990   41.5950 C   0  0  0  0  0  0  0  0  0  0  0  0
   45.2850   33.0470   42.0130 H   0  0  0  0  0  0  0  0  0  0  0  0
   43.3690   32.3650   42.2150 N   0  0  0  0  0  0  0  0  0  0  0  0
   42.0950   32.3790   41.7510 C   0  0  0  0  0  0  0  0  0  0  0  0
  1 13  1  0  0  0  0
  1  7  1  1  0  0  0
  2  8  1  1  0  0  0
  2 17  1  0  0  0  0
  2  1  1  0  0  0  0
  3  2  1  0  0  0  0
  4  3  1  0  0  0  0
  4  9  1  0  0  0  0
  4  5  1  0  0  0  0
  5 11  1  6  0  0  0
  5 15  1  0  0  0  0
  5  6  1  0  0  0  0
  6 12  1  6  0  0  0
  6  1  1  0  0  0  0
  6 34  1  0  0  0  0
 10  4  1  0  0  0  0
 13 14  1  0  0  0  0
 16 15  1  0  0  0  0
 17 18  1  0  0  0  0
 18 23  1  0  0  0  0
 19 20  1  0  0  0  0
 19 18  2  0  0  0  0
 20 21  2  0  0  0  0
 21 22  1  0  0  0  0
 22 25  1  0  0  0  0
 23 22  2  0  0  0  0
 24 19  1  0  0  0  0
 26 27  1  0  0  0  0
 26 20  1  0  0  0  0
 27 30  1  0  0  0  0
 28 33  1  0  0  0  0
 28 26  1  0  0  0  0
 28 27  1  0  0  0  0
 29 26  1  0  0  0  0
 31 27  1  0  0  0  0
 32 28  1  0  0  0  0
 36 35  1  0  0  0  0
 37 34  1  0  0  0  0
 37 36  1  0  0  0  0
 38 39  1  0  0  0  0
 38 37  2  0  0  0  0
 39 46  1  0  0  0  0
 40 42  1  0  0  0  0
 40 39  2  0  0  0  0
 41 40  1  0  0  0  0
 42 43  2  0  0  0  0
 43 44  1  0  0  0  0
 43 45  1  0  0  0  0
 46 36  1  0  0  0  0
 46 45  2  0  0  0  0
M  END
>  <minimizedAffinity>
-6.27649069

$$$$

 OpenBabel03242523533D

 46 50  0  0  1  0  0  0  0  0999 V2000
   38.6990   31.3990   40.0200 C   0  0  1  0  0  0  0  0  0  0  0  0
   39.7350   32.0770   40.9200 C   0  0  1  0  0  0  0  0  0  0  0  0
   39.3840   33.4290   41.0780 O   0  0  0  0  0  0  0  0  0  0  0  0
   38.8040   33.9790   39.9380 C   0  0  0  0  0  0  0  0  0  0  0  0
   37.4180   33.4020   39.7020 C   0  0  2  0  0  0  0  0  0  0  0  0
   37.3720   32.0320   40.4040 C   0  0  1  0  0  0  0  0  0  0  0  0
   38.6330   30.3140   40.2380 H   0  0  0  0  0  0  0  0  0  0  0  0
   40.7620   31.9780   40.5190 H   0  0  0  0  0  0  0  0  0  0  0  0
   39.4600   33.9070   39.0620 H   0  0  0  0  0  0  0  0  0  0  0  0
   38.6970   35.0570   40.1600 H   0  0  0  0  0  0  0  0  0  0  0  0
   36.6240   34.0620   40.0660 H   0  0  0  0  0  0  0  0  0  0  0  0
   37.3030   32.2490   41.4780 H   0  0  0  0  0  0  0  0  0  0  0  0
   38.9800   31.6530   38.6780 O   0  0  0  0  0  0  0  0  0  0  0  0
   39.1780   30.8500   38.1550 H   0  0  0  0  0  0  0  0  0  0  0  0
   37.2920   33.0850   38.3390 O   0  0  0  0  0  0  0  0  0  0  0  0
   36.9500   33.9000   37.8880 H   0  0  0  0  0  0  0  0  0  0  0  0
   39.5600   31.5170   42.1920 O   0  0  0  0  0  0  0  0  0  0  0  0
   39.8120   30.2440   42.5230 C   0  0  0  0  0  0  0  0  0  0  0  0
   38.7770   29.3760   42.8540 C   0  0  0  0  0  0  0  0  0  0  0  0
   39.0890   28.0680   43.1870 C   0  0  0  0  0  0  0  0  0  0  0  0
   40.4130   27.6530   43.1850 N   0  0  0  0  0  0  0  0  0  0  0  0
   41.3810   28.5240   42.8600 C   0  0  0  0  0  0  0  0  0  0  0  0
   41.0950   29.8110   42.5300 N   0  0  0  0  0  0  0  0  0  0  0  0
   37.7480   29.7080   42.8530 H   0  0  0  0  0  0  0  0  0  0  0  0
   42.4220   28.2210   42.8530 H   0  0  0  0  0  0  0  0  0  0  0  0
   38.0050   27.0930   43.5690 C   0  0  0  0  0  0  0  0  0  0  0  0
   36.5730   27.5250   43.3540 C   0  0  0  0  0  0  0  0  0  0  0  0
   37.2580   26.4070   42.5500 C   0  0  0  0  0  0  0  0  0  0  0  0
   38.2550   26.5920   44.5210 H   0  0  0  0  0  0  0  0  0  0  0  0
   36.4660   28.5170   42.8890 H   0  0  0  0  0  0  0  0  0  0  0  0
   35.8850   27.2200   44.1590 H   0  0  0  0  0  0  0  0  0  0  0  0
   36.8370   25.4010   42.6480 H   0  0  0  0  0  0  0  0  0  0  0  0
   37.4080   26.6970   41.4750 H   0  0  0  0  0  0  0  0  0  0  0  0
   36.2780   31.3010   39.9870 O   0  0  0  0  0  0  0  0  0  0  0  0
   36.4140   30.6700   37.3350 H   0  0  0  0  0  0  0  0  0  0  0  0
   36.3660   29.9280   38.0760 N   0  0  0  0  0  0  0  0  0  0  0  0
   36.2940   30.0340   39.4340 C   0  0  0  0  0  0  0  0  0  0  0  0
   36.2530   28.7980   39.9560 N   0  0  0  0  0  0  0  0  0  0  0  0
   36.2970   27.8840   38.9710 C   0  0  0  0  0  0  0  0  0  0  0  0
   36.2860   26.5070   38.9030 C   0  0  0  0  0  0  0  0  0  0  0  0
   36.2290   25.9890   39.8520 H   0  0  0  0  0  0  0  0  0  0  0  0
   36.3440   25.8860   37.6950 N   0  0  0  0  0  0  0  0  0  0  0  0
   36.4120   26.6400   36.5790 C   0  0  0  0  0  0  0  0  0  0  0  0
   36.4590   26.1810   35.5980 H   0  0  0  0  0  0  0  0  0  0  0  0
   36.4260   27.9690   36.5890 N   0  0  0  0  0  0  0  0  0  0  0  0
   36.3680   28.6150   37.7790 C   0  0  0  0  0  0  0  0  0  0  0  0
  1  7  1  1  0  0  0
  1  6  1  0  0  0  0
  1  2  1  0  0  0  0
  2  8  1  6  0  0  0
  2  3  1  0  0  0  0
  2 17  1  0  0  0  0
  4 10  1  0  0  0  0
  4  3  1  0  0  0  0
  5  4  1  0  0  0  0
  5 11  1  1  0  0  0
  5  6  1  0  0  0  0
  6 12  1  1  0  0  0
  9  4  1  0  0  0  0
 13  1  1  0  0  0  0
 14 13  1  0  0  0  0
 15  5  1  0  0  0  0
 16 15  1  0  0  0  0
 17 18  1  0  0  0  0
 18 23  2  0  0  0  0
 18 19  1  0  0  0  0
 19 20  2  0  0  0  0
 20 26  1  0  0  0  0
 21 20  1  0  0  0  0
 22 21  2  0  0  0  0
 23 22  1  0  0  0  0
 24 19  1  0  0  0  0
 25 22  1  0  0  0  0
 26 29  1  0  0  0  0
 27 26  1  0  0  0  0
 27 31  1  0  0  0  0
 28 32  1  0  0  0  0
 28 27  1  0  0  0  0
 28 26  1  0  0  0  0
 30 27  1  0  0  0  0
 33 28  1  0  0  0  0
 34  6  1  0  0  0  0
 35 36  1  0  0  0  0
 36 37  1  0  0  0  0
 37 38  2  0  0  0  0
 37 34  1  0  0  0  0
 39 38  1  0  0  0  0
 40 39  1  0  0  0  0
 40 41  1  0  0  0  0
 42 40  2  0  0  0  0
 43 45  2  0  0  0  0
 43 42  1  0  0  0  0
 44 43  1  0  0  0  0
 45 46  1  0  0  0  0
 46 36  1  0  0  0  0
 46 39  2  0  0  0  0
M  END
>  <minimizedAffinity>
-5.9933548

$$$$

 OpenBabel03242523533D

 46 50  0  0  1  0  0  0  0  0999 V2000
   37.6230   29.0650   42.0620 C   0  0  1  0  0  0  0  0  0  0  0  0
   37.3370   27.6960   41.4410 C   0  0  1  0  0  0  0  0  0  0  0  0
   36.4970   27.8700   40.3250 O   0  0  0  0  0  0  0  0  0  0  0  0
   35.5790   28.9020   40.4910 C   0  0  0  0  0  0  0  0  0  0  0  0
   36.2740   30.2540   40.4750 C   0  0  2  0  0  0  0  0  0  0  0  0
   37.7400   30.0150   40.8810 C   0  0  1  0  0  0  0  0  0  0  0  0
   38.5960   29.0630   42.5930 H   0  0  0  0  0  0  0  0  0  0  0  0
   36.8880   26.9940   42.1690 H   0  0  0  0  0  0  0  0  0  0  0  0
   34.9380   28.7530   41.3680 H   0  0  0  0  0  0  0  0  0  0  0  0
   34.9160   28.8430   39.6070 H   0  0  0  0  0  0  0  0  0  0  0  0
   36.2080   30.7460   39.4990 H   0  0  0  0  0  0  0  0  0  0  0  0
   38.2190   29.5490   40.0100 H   0  0  0  0  0  0  0  0  0  0  0  0
   36.5700   29.4550   42.8870 O   0  0  0  0  0  0  0  0  0  0  0  0
   36.8210   29.5670   43.8270 H   0  0  0  0  0  0  0  0  0  0  0  0
   35.7580   31.0340   41.5230 O   0  0  0  0  0  0  0  0  0  0  0  0
   34.9710   31.5170   41.1580 H   0  0  0  0  0  0  0  0  0  0  0  0
   38.5540   27.2600   40.9000 O   0  0  0  0  0  0  0  0  0  0  0  0
   39.4660   26.5160   41.5370 C   0  0  0  0  0  0  0  0  0  0  0  0
   40.8170   26.8430   41.4800 C   0  0  0  0  0  0  0  0  0  0  0  0
   41.7220   26.0430   42.1580 C   0  0  0  0  0  0  0  0  0  0  0  0
   41.2700   24.9430   42.8730 N   0  0  0  0  0  0  0  0  0  0  0  0
   39.9570   24.6640   42.9010 C   0  0  0  0  0  0  0  0  0  0  0  0
   39.0540   25.4360   42.2440 N   0  0  0  0  0  0  0  0  0  0  0  0
   41.1610   27.7010   40.9200 H   0  0  0  0  0  0  0  0  0  0  0  0
   39.5820   23.8100   43.4530 H   0  0  0  0  0  0  0  0  0  0  0  0
   43.1990   26.3440   42.1140 C   0  0  0  0  0  0  0  0  0  0  0  0
   43.7150   27.1170   40.9220 C   0  0  0  0  0  0  0  0  0  0  0  0
   43.6700   27.6810   42.3530 C   0  0  0  0  0  0  0  0  0  0  0  0
   43.7810   25.4690   42.4530 H   0  0  0  0  0  0  0  0  0  0  0  0
   42.9330   27.4250   40.2110 H   0  0  0  0  0  0  0  0  0  0  0  0
   44.6900   26.7670   40.5470 H   0  0  0  0  0  0  0  0  0  0  0  0
   44.6310   27.9360   42.8120 H   0  0  0  0  0  0  0  0  0  0  0  0
   42.9230   28.5150   42.4510 H   0  0  0  0  0  0  0  0  0  0  0  0
   38.3640   31.2040   41.1970 O   0  0  0  0  0  0  0  0  0  0  0  0
   39.6360   30.2960   38.9590 H   0  0  0  0  0  0  0  0  0  0  0  0
   39.7840   31.2710   39.3200 N   0  0  0  0  0  0  0  0  0  0  0  0
   39.2520   31.9070   40.4030 C   0  0  0  0  0  0  0  0  0  0  0  0
   39.7480   33.1530   40.4500 N   0  0  0  0  0  0  0  0  0  0  0  0
   40.5920   33.3490   39.4230 C   0  0  0  0  0  0  0  0  0  0  0  0
   41.3710   34.3940   38.9730 C   0  0  0  0  0  0  0  0  0  0  0  0
   41.3240   35.3030   39.5600 H   0  0  0  0  0  0  0  0  0  0  0  0
   42.1320   34.2420   37.8570 N   0  0  0  0  0  0  0  0  0  0  0  0
   42.1080   33.0590   37.2110 C   0  0  0  0  0  0  0  0  0  0  0  0
   42.7030   32.9010   36.3170 H   0  0  0  0  0  0  0  0  0  0  0  0
   41.3770   32.0220   37.6010 N   0  0  0  0  0  0  0  0  0  0  0  0
   40.6070   32.1440   38.7100 C   0  0  0  0  0  0  0  0  0  0  0  0
  1  7  1  1  0  0  0
  1 13  1  0  0  0  0
  2  1  1  0  0  0  0
  2  8  1  1  0  0  0
  3  4  1  0  0  0  0
  3  2  1  0  0  0  0
  4  9  1  0  0  0  0
  5 11  1  6  0  0  0
  5  4  1  0  0  0  0
  5  6  1  0  0  0  0
  5 15  1  0  0  0  0
  6 12  1  6  0  0  0
  6 34  1  0  0  0  0
  6  1  1  0  0  0  0
 10  4  1  0  0  0  0
 13 14  1  0  0  0  0
 16 15  1  0  0  0  0
 17  2  1  0  0  0  0
 17 18  1  0  0  0  0
 18 23  1  0  0  0  0
 19 18  2  0  0  0  0
 19 20  1  0  0  0  0
 20 21  2  0  0  0  0
 21 22  1  0  0  0  0
 22 25  1  0  0  0  0
 23 22  2  0  0  0  0
 24 19  1  0  0  0  0
 26 20  1  0  0  0  0
 26 28  1  0  0  0  0
 26 29  1  0  0  0  0
 27 26  1  0  0  0  0
 27 28  1  0  0  0  0
 28 33  1  0  0  0  0
 28 32  1  0  0  0  0
 30 27  1  0  0  0  0
 31 27  1  0  0  0  0
 35 36  1  0  0  0  0
 36 37  1  0  0  0  0
 37 38  2  0  0  0  0
 37 34  1  0  0  0  0
 39 38  1  0  0  0  0
 40 39  1  0  0  0  0
 40 41  1  0  0  0  0
 42 40  2  0  0  0  0
 43 45  2  0  0  0  0
 43 42  1  0  0  0  0
 44 43  1  0  0  0  0
 45 46  1  0  0  0  0
 46 36  1  0  0  0  0
 46 39  2  0  0  0  0
M  END
>  <minimizedAffinity>
-5.96828461

$$$$
