
 OpenBabel03252504313D

 36 38  0  0  0  0  0  0  0  0999 V2000
   37.4650   31.3380   40.6090 C   0  0  0  0  0  0  0  0  0  0  0  0
   37.5440   30.9900   39.5630 H   0  0  0  0  0  0  0  0  0  0  0  0
   36.5530   31.9590   40.7950 H   0  0  0  0  0  0  0  0  0  0  0  0
   36.4670   29.0990   41.2970 C   0  0  0  0  0  3  0  0  0  0  0  0
   37.3250   30.1100   41.4920 C   0  0  0  0  0  3  0  0  0  0  0  0
   36.5060   28.0690   42.2210 O   0  0  0  0  0  0  0  0  0  0  0  0
   37.3020   27.9750   43.3450 C   0  0  0  0  0  0  0  0  0  0  0  0
   37.9470   28.9070   43.3490 H   0  0  0  0  0  0  0  0  0  0  0  0
   36.7040   27.8750   44.2480 H   0  0  0  0  0  0  0  0  0  0  0  0
   37.9000   25.8200   42.4270 C   0  0  0  0  0  0  0  0  0  0  0  0
   38.2890   26.8660   43.2880 C   0  0  0  0  0  0  0  0  0  0  0  0
   39.4780   26.7390   43.9310 C   0  0  0  0  0  0  0  0  0  0  0  0
   40.1920   25.6360   43.7020 N   0  0  0  0  0  0  0  0  0  0  0  0
   39.8240   24.6470   42.8860 C   0  0  0  0  0  0  0  0  0  0  0  0
   38.6160   24.7070   42.1910 N   0  0  0  0  0  0  0  0  0  0  0  0
   36.9710   25.8290   41.8680 H   0  0  0  0  0  0  0  0  0  0  0  0
   39.7240   27.5670   44.5780 H   0  0  0  0  0  0  0  0  0  0  0  0
   40.4780   23.7940   42.7700 H   0  0  0  0  0  0  0  0  0  0  0  0
   38.5800   32.0220   41.0380 O   0  0  0  0  0  0  0  0  0  0  0  0
   37.4110   33.9360   39.6080 O   0  0  0  0  0  0  0  0  0  0  0  0
   38.6370   33.5930   40.4050 P   0  0  1  0  0  0  0  0  0  0  0  0
   38.7910   34.7080   41.6630 O   0  0  0  0  0  0  0  0  0  0  0  0
   38.3190   35.5520   41.4620 H   0  0  0  0  0  0  0  0  0  0  0  0
   40.0290   33.7320   39.4330 O   0  0  0  0  0  0  0  0  0  0  0  0
   40.8710   32.9220   41.9400 H   0  0  0  0  0  0  0  0  0  0  0  0
   41.5820   33.3130   41.2790 N   0  0  0  0  0  0  0  0  0  0  0  0
   41.2830   33.7390   40.0330 C   0  0  0  0  0  0  0  0  0  0  0  0
   42.4530   34.1620   39.5150 N   0  0  0  0  0  0  0  0  0  0  0  0
   43.4440   34.0070   40.4050 C   0  0  0  0  0  0  0  0  0  0  0  0
   44.8030   34.2510   40.4420 C   0  0  0  0  0  0  0  0  0  0  0  0
   45.2090   34.6860   39.5170 H   0  0  0  0  0  0  0  0  0  0  0  0
   45.5950   33.9940   41.4960 N   0  0  0  0  0  0  0  0  0  0  0  0
   44.9910   33.4560   42.5910 C   0  0  0  0  0  0  0  0  0  0  0  0
   45.6400   33.2550   43.4280 H   0  0  0  0  0  0  0  0  0  0  0  0
   43.6670   33.1900   42.6240 N   0  0  0  0  0  0  0  0  0  0  0  0
   42.8910   33.4590   41.5460 C   0  0  0  0  0  0  0  0  0  0  0  0
  1  3  1  0  0  0  0
  1 19  1  0  0  0  0
  1  5  1  0  0  0  0
  2  1  1  0  0  0  0
  4  5  2  0  0  0  0
  4  6  1  0  0  0  0
  6  7  1  0  0  0  0
  7  8  1  0  0  0  0
  7  9  1  0  0  0  0
 10 11  1  0  0  0  0
 11  7  1  0  0  0  0
 11 12  2  0  0  0  0
 12 17  1  0  0  0  0
 13 12  1  0  0  0  0
 14 13  2  0  0  0  0
 15 10  2  0  0  0  0
 15 14  1  0  0  0  0
 16 10  1  0  0  0  0
 18 14  1  0  0  0  0
 21 20  2  6  0  0  0
 21 19  1  0  0  0  0
 21 22  1  0  0  0  0
 23 22  1  0  0  0  0
 24 27  1  0  0  0  0
 24 21  1  0  0  0  0
 26 36  1  0  0  0  0
 26 25  1  0  0  0  0
 27 26  1  0  0  0  0
 28 27  2  0  0  0  0
 28 29  1  0  0  0  0
 29 30  2  0  0  0  0
 29 36  1  0  0  0  0
 30 32  1  0  0  0  0
 31 30  1  0  0  0  0
 32 33  2  0  0  0  0
 33 35  1  0  0  0  0
 33 34  1  0  0  0  0
 36 35  2  0  0  0  0
M  END
>  <minimizedAffinity>
-5.53183794

$$$$

 OpenBabel03252504313D

 36 38  0  0  0  0  0  0  0  0999 V2000
   38.0770   29.8110   42.1630 C   0  0  0  0  0  0  0  0  0  0  0  0
   37.2070   30.2830   42.6550 H   0  0  0  0  0  0  0  0  0  0  0  0
   39.0500   30.0830   42.6420 H   0  0  0  0  0  0  0  0  0  0  0  0
   36.7840   27.6470   42.5120 C   0  0  0  0  0  3  0  0  0  0  0  0
   37.9340   28.3080   42.3230 C   0  0  0  0  0  3  0  0  0  0  0  0
   36.8740   26.2700   42.6300 O   0  0  0  0  0  0  0  0  0  0  0  0
   37.9170   25.4580   42.2320 C   0  0  0  0  0  0  0  0  0  0  0  0
   38.6100   26.1160   41.6210 H   0  0  0  0  0  0  0  0  0  0  0  0
   38.4150   25.0030   43.0860 H   0  0  0  0  0  0  0  0  0  0  0  0
   38.5190   23.4250   41.0710 C   0  0  0  0  0  0  0  0  0  0  0  0
   37.5150   24.3920   41.2780 C   0  0  0  0  0  0  0  0  0  0  0  0
   36.3440   24.2320   40.6100 C   0  0  0  0  0  0  0  0  0  0  0  0
   36.2270   23.1730   39.8070 N   0  0  0  0  0  0  0  0  0  0  0  0
   37.1780   22.2570   39.6120 C   0  0  0  0  0  0  0  0  0  0  0  0
   38.4070   22.3550   40.2650 N   0  0  0  0  0  0  0  0  0  0  0  0
   39.4860   23.4640   41.5590 H   0  0  0  0  0  0  0  0  0  0  0  0
   35.6130   25.0010   40.8040 H   0  0  0  0  0  0  0  0  0  0  0  0
   36.9820   21.4350   38.9390 H   0  0  0  0  0  0  0  0  0  0  0  0
   38.1430   30.0720   40.8130 O   0  0  0  0  0  0  0  0  0  0  0  0
   36.4170   30.8060   38.9270 O   0  0  0  0  0  0  0  0  0  0  0  0
   36.9070   31.1170   40.3130 P   0  0  1  0  0  0  0  0  0  0  0  0
   35.6040   31.0110   41.3810 O   0  0  0  0  0  0  0  0  0  0  0  0
   34.7410   31.1320   40.9170 H   0  0  0  0  0  0  0  0  0  0  0  0
   37.4910   32.7160   40.3850 O   0  0  0  0  0  0  0  0  0  0  0  0
   38.7950   31.6080   38.2120 H   0  0  0  0  0  0  0  0  0  0  0  0
   39.2460   32.4130   38.7050 N   0  0  0  0  0  0  0  0  0  0  0  0
   38.7000   33.0290   39.7750 C   0  0  0  0  0  0  0  0  0  0  0  0
   39.5760   33.9980   40.1100 N   0  0  0  0  0  0  0  0  0  0  0  0
   40.6300   33.9840   39.2790 C   0  0  0  0  0  0  0  0  0  0  0  0
   41.7970   34.7080   39.1320 C   0  0  0  0  0  0  0  0  0  0  0  0
   41.9270   35.5110   39.8720 H   0  0  0  0  0  0  0  0  0  0  0  0
   42.7190   34.4830   38.1820 N   0  0  0  0  0  0  0  0  0  0  0  0
   42.4600   33.4640   37.3160 C   0  0  0  0  0  0  0  0  0  0  0  0
   43.2090   33.2960   36.5590 H   0  0  0  0  0  0  0  0  0  0  0  0
   41.3390   32.7160   37.4010 N   0  0  0  0  0  0  0  0  0  0  0  0
   40.4250   32.9650   38.3700 C   0  0  0  0  0  0  0  0  0  0  0  0
  1  5  1  0  0  0  0
  1  3  1  0  0  0  0
  1  2  1  0  0  0  0
  4  6  1  0  0  0  0
  5  4  2  0  0  0  0
  7  6  1  0  0  0  0
  7  9  1  0  0  0  0
  8  7  1  0  0  0  0
 10 11  1  0  0  0  0
 10 16  1  0  0  0  0
 11  7  1  0  0  0  0
 12 17  1  0  0  0  0
 12 11  2  0  0  0  0
 13 12  1  0  0  0  0
 14 13  2  0  0  0  0
 14 15  1  0  0  0  0
 15 10  2  0  0  0  0
 18 14  1  0  0  0  0
 19  1  1  0  0  0  0
 21 20  2  6  0  0  0
 21 24  1  0  0  0  0
 21 19  1  0  0  0  0
 21 22  1  0  0  0  0
 23 22  1  0  0  0  0
 25 26  1  0  0  0  0
 26 27  1  0  0  0  0
 27 28  2  0  0  0  0
 27 24  1  0  0  0  0
 29 28  1  0  0  0  0
 30 29  1  0  0  0  0
 30 31  1  0  0  0  0
 32 30  2  0  0  0  0
 33 35  2  0  0  0  0
 33 32  1  0  0  0  0
 34 33  1  0  0  0  0
 35 36  1  0  0  0  0
 36 26  1  0  0  0  0
 36 29  2  0  0  0  0
M  END
>  <minimizedAffinity>
-5.44597721

$$$$

 OpenBabel03252504313D

 36 38  0  0  0  0  0  0  0  0999 V2000
   36.7860   30.5500   40.2780 C   0  0  0  0  0  0  0  0  0  0  0  0
   37.7010   30.3770   39.6820 H   0  0  0  0  0  0  0  0  0  0  0  0
   35.8810   30.0590   39.8420 H   0  0  0  0  0  0  0  0  0  0  0  0
   38.1790   29.7490   42.2530 C   0  0  0  0  0  3  0  0  0  0  0  0
   36.9980   29.9100   41.6390 C   0  0  0  0  0  3  0  0  0  0  0  0
   38.1500   29.1430   43.4970 O   0  0  0  0  0  0  0  0  0  0  0  0
   37.6230   27.9090   43.8210 C   0  0  0  0  0  0  0  0  0  0  0  0
   37.7120   27.8180   44.9480 H   0  0  0  0  0  0  0  0  0  0  0  0
   36.5960   27.8110   43.4730 H   0  0  0  0  0  0  0  0  0  0  0  0
   39.6740   26.6360   43.9470 C   0  0  0  0  0  0  0  0  0  0  0  0
   38.4210   26.7640   43.3130 C   0  0  0  0  0  0  0  0  0  0  0  0
   38.1080   25.8540   42.3560 C   0  0  0  0  0  0  0  0  0  0  0  0
   39.0050   24.9050   42.0840 N   0  0  0  0  0  0  0  0  0  0  0  0
   40.1900   24.7840   42.6850 C   0  0  0  0  0  0  0  0  0  0  0  0
   40.5810   25.6820   43.6780 N   0  0  0  0  0  0  0  0  0  0  0  0
   40.0150   27.3110   44.7230 H   0  0  0  0  0  0  0  0  0  0  0  0
   37.1390   26.0010   41.9030 H   0  0  0  0  0  0  0  0  0  0  0  0
   40.8460   23.9770   42.3900 H   0  0  0  0  0  0  0  0  0  0  0  0
   36.5250   31.8840   40.4930 O   0  0  0  0  0  0  0  0  0  0  0  0
   38.1560   32.2000   38.4160 O   0  0  0  0  0  0  0  0  0  0  0  0
   37.5890   32.8810   39.6290 P   0  0  1  0  0  0  0  0  0  0  0  0
   36.7850   34.2800   39.1350 O   0  0  0  0  0  0  0  0  0  0  0  0
   37.1140   34.6020   38.2610 H   0  0  0  0  0  0  0  0  0  0  0  0
   38.8450   33.3630   40.6750 O   0  0  0  0  0  0  0  0  0  0  0  0
   39.8160   34.2800   38.2520 H   0  0  0  0  0  0  0  0  0  0  0  0
   40.5010   33.9410   38.9670 N   0  0  0  0  0  0  0  0  0  0  0  0
   40.1400   33.4730   40.1800 C   0  0  0  0  0  0  0  0  0  0  0  0
   41.2960   33.1440   40.7910 N   0  0  0  0  0  0  0  0  0  0  0  0
   42.3390   33.3970   39.9860 C   0  0  0  0  0  0  0  0  0  0  0  0
   43.7120   33.2710   40.0600 C   0  0  0  0  0  0  0  0  0  0  0  0
   44.0780   32.8590   41.0120 H   0  0  0  0  0  0  0  0  0  0  0  0
   44.5630   33.6110   39.0780 N   0  0  0  0  0  0  0  0  0  0  0  0
   44.0060   34.1120   37.9410 C   0  0  0  0  0  0  0  0  0  0  0  0
   44.7010   34.3800   37.1620 H   0  0  0  0  0  0  0  0  0  0  0  0
   42.6710   34.2630   37.8000 N   0  0  0  0  0  0  0  0  0  0  0  0
   41.8350   33.9120   38.8080 C   0  0  0  0  0  0  0  0  0  0  0  0
  1 19  1  0  0  0  0
  1  5  1  0  0  0  0
  2  1  1  0  0  0  0
  3  1  1  0  0  0  0
  4  6  1  0  0  0  0
  5  4  2  0  0  0  0
  6  7  1  0  0  0  0
  7  8  1  0  0  0  0
  9  7  1  0  0  0  0
 10 16  1  0  0  0  0
 11  7  1  0  0  0  0
 11 10  2  0  0  0  0
 12 11  1  0  0  0  0
 13 12  2  0  0  0  0
 13 14  1  0  0  0  0
 14 15  2  0  0  0  0
 15 10  1  0  0  0  0
 17 12  1  0  0  0  0
 18 14  1  0  0  0  0
 21 20  2  6  0  0  0
 21 19  1  0  0  0  0
 21 24  1  0  0  0  0
 22 21  1  0  0  0  0
 23 22  1  0  0  0  0
 25 26  1  0  0  0  0
 26 27  1  0  0  0  0
 27 24  1  0  0  0  0
 27 28  2  0  0  0  0
 29 30  1  0  0  0  0
 29 28  1  0  0  0  0
 30 31  1  0  0  0  0
 32 30  2  0  0  0  0
 33 32  1  0  0  0  0
 34 33  1  0  0  0  0
 35 33  2  0  0  0  0
 35 36  1  0  0  0  0
 36 26  1  0  0  0  0
 36 29  2  0  0  0  0
M  END
>  <minimizedAffinity>
-5.40615606

$$$$

 OpenBabel03252504313D

 36 38  0  0  0  0  0  0  0  0999 V2000
   37.3640   28.8760   43.4070 C   0  0  0  0  0  0  0  0  0  0  0  0
   36.3650   28.4350   43.2310 H   0  0  0  0  0  0  0  0  0  0  0  0
   37.4150   29.4820   44.3450 H   0  0  0  0  0  0  0  0  0  0  0  0
   39.2950   27.3660   42.7200 C   0  0  0  0  0  3  0  0  0  0  0  0
   38.3440   27.7310   43.5910 C   0  0  0  0  0  3  0  0  0  0  0  0
   40.0890   26.2920   43.0850 O   0  0  0  0  0  0  0  0  0  0  0  0
   39.7630   24.9510   43.0450 C   0  0  0  0  0  0  0  0  0  0  0  0
   40.7450   24.3960   42.9310 H   0  0  0  0  0  0  0  0  0  0  0  0
   39.2110   24.6490   43.9330 H   0  0  0  0  0  0  0  0  0  0  0  0
   37.6310   24.3200   42.0970 C   0  0  0  0  0  0  0  0  0  0  0  0
   38.9960   24.5580   41.8360 C   0  0  0  0  0  0  0  0  0  0  0  0
   39.4220   24.4110   40.5550 C   0  0  0  0  0  0  0  0  0  0  0  0
   38.5220   24.0530   39.6380 N   0  0  0  0  0  0  0  0  0  0  0  0
   37.2300   23.8280   39.8870 C   0  0  0  0  0  0  0  0  0  0  0  0
   36.7190   23.9600   41.1780 N   0  0  0  0  0  0  0  0  0  0  0  0
   37.1940   24.4120   43.0850 H   0  0  0  0  0  0  0  0  0  0  0  0
   40.4740   24.6040   40.4130 H   0  0  0  0  0  0  0  0  0  0  0  0
   36.5830   23.5420   39.0700 H   0  0  0  0  0  0  0  0  0  0  0  0
   37.8160   29.6320   42.3490 O   0  0  0  0  0  0  0  0  0  0  0  0
   35.7820   28.5410   41.0280 O   0  0  0  0  0  0  0  0  0  0  0  0
   36.6500   29.7630   41.1260 P   0  0  1  0  0  0  0  0  0  0  0  0
   35.6660   31.1020   41.4180 O   0  0  0  0  0  0  0  0  0  0  0  0
   34.7370   30.9450   41.1200 H   0  0  0  0  0  0  0  0  0  0  0  0
   37.4500   30.0360   39.6460 O   0  0  0  0  0  0  0  0  0  0  0  0
   37.6660   32.3880   41.0870 H   0  0  0  0  0  0  0  0  0  0  0  0
   38.3340   32.2240   40.2990 N   0  0  0  0  0  0  0  0  0  0  0  0
   38.3200   31.1150   39.5300 C   0  0  0  0  0  0  0  0  0  0  0  0
   39.3210   31.2860   38.6440 N   0  0  0  0  0  0  0  0  0  0  0  0
   39.9350   32.4610   38.8510 C   0  0  0  0  0  0  0  0  0  0  0  0
   40.9850   33.1540   38.2830 C   0  0  0  0  0  0  0  0  0  0  0  0
   41.4630   32.6370   37.4380 H   0  0  0  0  0  0  0  0  0  0  0  0
   41.4170   34.3570   38.6960 N   0  0  0  0  0  0  0  0  0  0  0  0
   40.7550   34.9090   39.7510 C   0  0  0  0  0  0  0  0  0  0  0  0
   41.1130   35.8740   40.0700 H   0  0  0  0  0  0  0  0  0  0  0  0
   39.7200   34.2860   40.3550 N   0  0  0  0  0  0  0  0  0  0  0  0
   39.3050   33.0720   39.9170 C   0  0  0  0  0  0  0  0  0  0  0  0
  1  5  1  0  0  0  0
  1  3  1  0  0  0  0
  2  1  1  0  0  0  0
  4  6  1  0  0  0  0
  4  5  2  0  0  0  0
  7  6  1  0  0  0  0
  7  9  1  0  0  0  0
  8  7  1  0  0  0  0
 10 16  1  0  0  0  0
 11 10  1  0  0  0  0
 11  7  1  0  0  0  0
 12 11  2  0  0  0  0
 13 14  2  0  0  0  0
 13 12  1  0  0  0  0
 14 15  1  0  0  0  0
 15 10  2  0  0  0  0
 17 12  1  0  0  0  0
 18 14  1  0  0  0  0
 19  1  1  0  0  0  0
 21 20  2  6  0  0  0
 21 22  1  0  0  0  0
 21 19  1  0  0  0  0
 23 22  1  0  0  0  0
 24 21  1  0  0  0  0
 26 25  1  0  0  0  0
 27 24  1  0  0  0  0
 27 26  1  0  0  0  0
 28 29  1  0  0  0  0
 28 27  2  0  0  0  0
 29 36  1  0  0  0  0
 30 32  1  0  0  0  0
 30 29  2  0  0  0  0
 31 30  1  0  0  0  0
 32 33  2  0  0  0  0
 33 34  1  0  0  0  0
 33 35  1  0  0  0  0
 36 26  1  0  0  0  0
 36 35  2  0  0  0  0
M  END
>  <minimizedAffinity>
-5.32227898

$$$$

 OpenBabel03252504313D

 36 38  0  0  0  0  0  0  0  0999 V2000
   35.6660   29.5480   40.3720 C   0  0  0  0  0  0  0  0  0  0  0  0
   36.2840   29.3330   39.4800 H   0  0  0  0  0  0  0  0  0  0  0  0
   34.5790   29.3440   40.2100 H   0  0  0  0  0  0  0  0  0  0  0  0
   37.2240   27.8580   41.4650 C   0  0  0  0  0  3  0  0  0  0  0  0
   36.1130   28.6060   41.4760 C   0  0  0  0  0  3  0  0  0  0  0  0
   37.4480   27.0670   42.5790 O   0  0  0  0  0  0  0  0  0  0  0  0
   38.2840   27.3310   43.6450 C   0  0  0  0  0  0  0  0  0  0  0  0
   38.4710   28.4490   43.6260 H   0  0  0  0  0  0  0  0  0  0  0  0
   37.8490   26.9960   44.5850 H   0  0  0  0  0  0  0  0  0  0  0  0
   39.6230   25.3930   43.1060 C   0  0  0  0  0  0  0  0  0  0  0  0
   39.6410   26.7460   43.5010 C   0  0  0  0  0  0  0  0  0  0  0  0
   40.8540   27.3270   43.6860 C   0  0  0  0  0  0  0  0  0  0  0  0
   41.9390   26.5800   43.4820 N   0  0  0  0  0  0  0  0  0  0  0  0
   41.9220   25.2990   43.1070 C   0  0  0  0  0  0  0  0  0  0  0  0
   40.7130   24.6340   42.8980 N   0  0  0  0  0  0  0  0  0  0  0  0
   38.7070   24.8400   42.9320 H   0  0  0  0  0  0  0  0  0  0  0  0
   40.8080   28.3620   43.9890 H   0  0  0  0  0  0  0  0  0  0  0  0
   42.8600   24.7820   42.9680 H   0  0  0  0  0  0  0  0  0  0  0  0
   35.8260   30.8320   40.8430 O   0  0  0  0  0  0  0  0  0  0  0  0
   37.5010   31.1490   38.8010 O   0  0  0  0  0  0  0  0  0  0  0  0
   37.2210   31.5620   40.2180 P   0  0  1  0  0  0  0  0  0  0  0  0
   37.0560   33.2410   40.2670 O   0  0  0  0  0  0  0  0  0  0  0  0
   37.5090   33.6750   39.5040 H   0  0  0  0  0  0  0  0  0  0  0  0
   38.5380   31.1550   41.2200 O   0  0  0  0  0  0  0  0  0  0  0  0
   40.7260   31.4010   42.8950 H   0  0  0  0  0  0  0  0  0  0  0  0
   40.7520   31.8840   41.9670 N   0  0  0  0  0  0  0  0  0  0  0  0
   39.7430   31.8330   41.0720 C   0  0  0  0  0  0  0  0  0  0  0  0
   40.1610   32.5710   40.0250 N   0  0  0  0  0  0  0  0  0  0  0  0
   41.3850   33.0660   40.2590 C   0  0  0  0  0  0  0  0  0  0  0  0
   42.2890   33.8610   39.5810 C   0  0  0  0  0  0  0  0  0  0  0  0
   41.9460   34.1910   38.5900 H   0  0  0  0  0  0  0  0  0  0  0  0
   43.4920   34.2220   40.0560 N   0  0  0  0  0  0  0  0  0  0  0  0
   43.8190   33.7590   41.2950 C   0  0  0  0  0  0  0  0  0  0  0  0
   44.7870   34.0580   41.6620 H   0  0  0  0  0  0  0  0  0  0  0  0
   42.9840   32.9780   42.0130 N   0  0  0  0  0  0  0  0  0  0  0  0
   41.7750   32.6280   41.5090 C   0  0  0  0  0  0  0  0  0  0  0  0
  1 19  1  0  0  0  0
  1  5  1  0  0  0  0
  2  1  1  0  0  0  0
  3  1  1  0  0  0  0
  4  5  2  0  0  0  0
  4  6  1  0  0  0  0
  6  7  1  0  0  0  0
  7  9  1  0  0  0  0
  8  7  1  0  0  0  0
 10 11  1  0  0  0  0
 11  7  1  0  0  0  0
 11 12  2  0  0  0  0
 12 17  1  0  0  0  0
 13 12  1  0  0  0  0
 14 13  2  0  0  0  0
 15 10  2  0  0  0  0
 15 14  1  0  0  0  0
 16 10  1  0  0  0  0
 18 14  1  0  0  0  0
 21 20  2  6  0  0  0
 21 22  1  0  0  0  0
 21 19  1  0  0  0  0
 21 24  1  0  0  0  0
 23 22  1  0  0  0  0
 26 25  1  0  0  0  0
 27 24  1  0  0  0  0
 27 26  1  0  0  0  0
 28 29  1  0  0  0  0
 28 27  2  0  0  0  0
 29 36  1  0  0  0  0
 30 32  1  0  0  0  0
 30 29  2  0  0  0  0
 31 30  1  0  0  0  0
 32 33  2  0  0  0  0
 33 34  1  0  0  0  0
 33 35  1  0  0  0  0
 36 26  1  0  0  0  0
 36 35  2  0  0  0  0
M  END
>  <minimizedAffinity>
-5.13965225

$$$$

 OpenBabel03252504313D

 36 38  0  0  0  0  0  0  0  0999 V2000
   35.9060   28.7420   41.0960 C   0  0  0  0  0  0  0  0  0  0  0  0
   35.5080   29.2170   42.0120 H   0  0  0  0  0  0  0  0  0  0  0  0
   35.1320   28.1630   40.5330 H   0  0  0  0  0  0  0  0  0  0  0  0
   36.5460   31.1350   40.5070 C   0  0  0  0  0  3  0  0  0  0  0  0
   36.3600   29.8520   40.1640 C   0  0  0  0  0  3  0  0  0  0  0  0
   36.9690   31.9870   39.5010 O   0  0  0  0  0  0  0  0  0  0  0  0
   37.1800   33.3490   39.5840 C   0  0  0  0  0  0  0  0  0  0  0  0
   36.9900   33.7570   38.5440 H   0  0  0  0  0  0  0  0  0  0  0  0
   36.5400   33.8050   40.3370 H   0  0  0  0  0  0  0  0  0  0  0  0
   39.5200   32.7970   39.3300 C   0  0  0  0  0  0  0  0  0  0  0  0
   38.5920   33.7210   39.8540 C   0  0  0  0  0  0  0  0  0  0  0  0
   39.0880   34.8000   40.5110 C   0  0  0  0  0  0  0  0  0  0  0  0
   40.4130   34.9110   40.6130 N   0  0  0  0  0  0  0  0  0  0  0  0
   41.2900   34.0370   40.1160 C   0  0  0  0  0  0  0  0  0  0  0  0
   40.8560   32.9030   39.4290 N   0  0  0  0  0  0  0  0  0  0  0  0
   39.2240   31.9050   38.7900 H   0  0  0  0  0  0  0  0  0  0  0  0
   38.3340   35.4720   40.8920 H   0  0  0  0  0  0  0  0  0  0  0  0
   42.3460   34.2200   40.2540 H   0  0  0  0  0  0  0  0  0  0  0  0
   36.9970   27.9380   41.3330 O   0  0  0  0  0  0  0  0  0  0  0  0
   38.0840   29.1310   43.4470 O   0  0  0  0  0  0  0  0  0  0  0  0
   37.3920   27.8820   42.9800 P   0  0  1  0  0  0  0  0  0  0  0  0
   35.9900   27.6680   43.8950 O   0  0  0  0  0  0  0  0  0  0  0  0
   36.0460   28.1360   44.7630 H   0  0  0  0  0  0  0  0  0  0  0  0
   38.3840   26.5240   43.2510 O   0  0  0  0  0  0  0  0  0  0  0  0
   39.8530   26.5130   40.9070 H   0  0  0  0  0  0  0  0  0  0  0  0
   39.2750   25.6720   41.1360 N   0  0  0  0  0  0  0  0  0  0  0  0
   38.5210   25.5680   42.2500 C   0  0  0  0  0  0  0  0  0  0  0  0
   37.9420   24.3530   42.1740 N   0  0  0  0  0  0  0  0  0  0  0  0
   38.3220   23.7220   41.0520 C   0  0  0  0  0  0  0  0  0  0  0  0
   38.0680   22.5030   40.4560 C   0  0  0  0  0  0  0  0  0  0  0  0
   37.3810   21.8580   41.0210 H   0  0  0  0  0  0  0  0  0  0  0  0
   38.5960   22.1020   39.2870 N   0  0  0  0  0  0  0  0  0  0  0  0
   39.4360   22.9770   38.6690 C   0  0  0  0  0  0  0  0  0  0  0  0
   39.8510   22.6410   37.7330 H   0  0  0  0  0  0  0  0  0  0  0  0
   39.7280   24.1860   39.1960 N   0  0  0  0  0  0  0  0  0  0  0  0
   39.1820   24.5660   40.3760 C   0  0  0  0  0  0  0  0  0  0  0  0
  1 19  1  0  0  0  0
  1  2  1  0  0  0  0
  3  1  1  0  0  0  0
  5  4  2  0  0  0  0
  5  1  1  0  0  0  0
  6  7  1  0  0  0  0
  6  4  1  0  0  0  0
  7 11  1  0  0  0  0
  7  9  1  0  0  0  0
  8  7  1  0  0  0  0
 10 15  2  0  0  0  0
 10 11  1  0  0  0  0
 11 12  2  0  0  0  0
 12 13  1  0  0  0  0
 12 17  1  0  0  0  0
 14 18  1  0  0  0  0
 14 13  2  0  0  0  0
 15 14  1  0  0  0  0
 16 10  1  0  0  0  0
 19 21  1  0  0  0  0
 21 24  1  0  0  0  0
 21 20  2  1  0  0  0
 21 22  1  0  0  0  0
 22 23  1  0  0  0  0
 25 26  1  0  0  0  0
 26 27  1  0  0  0  0
 27 24  1  0  0  0  0
 28 27  2  0  0  0  0
 29 28  1  0  0  0  0
 30 31  1  0  0  0  0
 30 29  1  0  0  0  0
 32 30  2  0  0  0  0
 33 35  2  0  0  0  0
 33 32  1  0  0  0  0
 34 33  1  0  0  0  0
 35 36  1  0  0  0  0
 36 29  2  0  0  0  0
 36 26  1  0  0  0  0
M  END
>  <minimizedAffinity>
-5.09127235

$$$$

 OpenBabel03252504313D

 36 38  0  0  0  0  0  0  0  0999 V2000
   37.3450   32.3330   38.6450 C   0  0  0  0  0  0  0  0  0  0  0  0
   38.3630   32.0330   38.3340 H   0  0  0  0  0  0  0  0  0  0  0  0
   36.7580   32.8060   37.8200 H   0  0  0  0  0  0  0  0  0  0  0  0
   37.1340   29.8520   39.1770 C   0  0  0  0  0  3  0  0  0  0  0  0
   36.5940   31.0690   39.0270 C   0  0  0  0  0  3  0  0  0  0  0  0
   36.2690   28.8320   39.5340 O   0  0  0  0  0  0  0  0  0  0  0  0
   35.7430   28.5720   40.7840 C   0  0  0  0  0  0  0  0  0  0  0  0
   35.2870   29.5470   41.1390 H   0  0  0  0  0  0  0  0  0  0  0  0
   35.0210   27.7590   40.7500 H   0  0  0  0  0  0  0  0  0  0  0  0
   37.1550   26.9140   41.8320 C   0  0  0  0  0  0  0  0  0  0  0  0
   36.7700   28.2700   41.8140 C   0  0  0  0  0  0  0  0  0  0  0  0
   37.3690   29.1020   42.7030 C   0  0  0  0  0  0  0  0  0  0  0  0
   38.2770   28.5810   43.5280 N   0  0  0  0  0  0  0  0  0  0  0  0
   38.6420   27.2970   43.5450 C   0  0  0  0  0  0  0  0  0  0  0  0
   38.0700   26.3820   42.6610 N   0  0  0  0  0  0  0  0  0  0  0  0
   36.7370   26.1710   41.1630 H   0  0  0  0  0  0  0  0  0  0  0  0
   37.0360   30.1270   42.6450 H   0  0  0  0  0  0  0  0  0  0  0  0
   39.3900   26.9750   44.2550 H   0  0  0  0  0  0  0  0  0  0  0  0
   37.3380   33.1580   39.7460 O   0  0  0  0  0  0  0  0  0  0  0  0
   39.9050   33.7450   39.3770 O   0  0  0  0  0  0  0  0  0  0  0  0
   38.8870   33.3430   40.4060 P   0  0  1  0  0  0  0  0  0  0  0  0
   38.8540   34.5160   41.6180 O   0  0  0  0  0  0  0  0  0  0  0  0
   39.6980   35.0280   41.6540 H   0  0  0  0  0  0  0  0  0  0  0  0
   39.3390   31.8720   41.1380 O   0  0  0  0  0  0  0  0  0  0  0  0
   41.5780   33.4960   41.0660 H   0  0  0  0  0  0  0  0  0  0  0  0
   41.6020   32.6420   41.6700 N   0  0  0  0  0  0  0  0  0  0  0  0
   40.5690   31.7800   41.7810 C   0  0  0  0  0  0  0  0  0  0  0  0
   40.9920   30.8290   42.6380 N   0  0  0  0  0  0  0  0  0  0  0  0
   42.2440   31.0890   43.0460 C   0  0  0  0  0  0  0  0  0  0  0  0
   43.1630   30.4980   43.8890 C   0  0  0  0  0  0  0  0  0  0  0  0
   42.8100   29.5710   44.3650 H   0  0  0  0  0  0  0  0  0  0  0  0
   44.3930   30.9800   44.1330 N   0  0  0  0  0  0  0  0  0  0  0  0
   44.7310   32.1330   43.4920 C   0  0  0  0  0  0  0  0  0  0  0  0
   45.7200   32.5070   43.6990 H   0  0  0  0  0  0  0  0  0  0  0  0
   43.8800   32.7650   42.6550 N   0  0  0  0  0  0  0  0  0  0  0  0
   42.6440   32.2570   42.4260 C   0  0  0  0  0  0  0  0  0  0  0  0
  1  5  1  0  0  0  0
  1 19  1  0  0  0  0
  2  1  1  0  0  0  0
  3  1  1  0  0  0  0
  4  6  1  0  0  0  0
  5  4  2  0  0  0  0
  6  7  1  0  0  0  0
  7  8  1  0  0  0  0
  7 11  1  0  0  0  0
  9  7  1  0  0  0  0
 10 15  1  0  0  0  0
 11 10  2  0  0  0  0
 11 12  1  0  0  0  0
 12 13  2  0  0  0  0
 13 14  1  0  0  0  0
 14 18  1  0  0  0  0
 15 14  2  0  0  0  0
 16 10  1  0  0  0  0
 17 12  1  0  0  0  0
 19 21  1  0  0  0  0
 21 20  2  6  0  0  0
 21 24  1  0  0  0  0
 21 22  1  0  0  0  0
 22 23  1  0  0  0  0
 24 27  1  0  0  0  0
 25 26  1  0  0  0  0
 26 27  1  0  0  0  0
 26 36  1  0  0  0  0
 27 28  2  0  0  0  0
 28 29  1  0  0  0  0
 29 30  1  0  0  0  0
 30 32  2  0  0  0  0
 30 31  1  0  0  0  0
 33 34  1  0  0  0  0
 33 32  1  0  0  0  0
 35 33  2  0  0  0  0
 36 35  1  0  0  0  0
 36 29  2  0  0  0  0
M  END
>  <minimizedAffinity>
-5.07487154

$$$$

 OpenBabel03252504313D

 36 38  0  0  0  0  0  0  0  0999 V2000
   36.1400   28.7440   38.0500 C   0  0  0  0  0  0  0  0  0  0  0  0
   37.0060   28.3230   37.5060 H   0  0  0  0  0  0  0  0  0  0  0  0
   35.1580   28.4430   37.6090 H   0  0  0  0  0  0  0  0  0  0  0  0
   36.0830   28.8840   40.5920 C   0  0  0  0  0  3  0  0  0  0  0  0
   36.1630   28.1740   39.4580 C   0  0  0  0  0  3  0  0  0  0  0  0
   36.1170   28.1640   41.7750 O   0  0  0  0  0  0  0  0  0  0  0  0
   37.0970   28.1870   42.7460 C   0  0  0  0  0  0  0  0  0  0  0  0
   37.8460   28.9720   42.4160 H   0  0  0  0  0  0  0  0  0  0  0  0
   36.6780   28.3940   43.7290 H   0  0  0  0  0  0  0  0  0  0  0  0
   39.0430   27.0600   43.6330 C   0  0  0  0  0  0  0  0  0  0  0  0
   37.9020   26.9400   42.8130 C   0  0  0  0  0  0  0  0  0  0  0  0
   37.6850   25.7420   42.2150 C   0  0  0  0  0  0  0  0  0  0  0  0
   38.5630   24.7650   42.4430 N   0  0  0  0  0  0  0  0  0  0  0  0
   39.6430   24.8780   43.2200 C   0  0  0  0  0  0  0  0  0  0  0  0
   39.9320   26.0790   43.8680 N   0  0  0  0  0  0  0  0  0  0  0  0
   39.3030   27.9740   44.1540 H   0  0  0  0  0  0  0  0  0  0  0  0
   36.7990   25.7070   41.5990 H   0  0  0  0  0  0  0  0  0  0  0  0
   40.2920   24.0230   43.3390 H   0  0  0  0  0  0  0  0  0  0  0  0
   36.1900   30.1150   38.1660 O   0  0  0  0  0  0  0  0  0  0  0  0
   38.7350   29.6780   37.5340 O   0  0  0  0  0  0  0  0  0  0  0  0
   37.6760   30.7380   37.6450 P   0  0  1  0  0  0  0  0  0  0  0  0
   37.4890   31.4730   36.1380 O   0  0  0  0  0  0  0  0  0  0  0  0
   38.2960   31.3680   35.5780 H   0  0  0  0  0  0  0  0  0  0  0  0
   38.1670   31.9470   38.7410 O   0  0  0  0  0  0  0  0  0  0  0  0
   39.8370   32.4580   36.5940 H   0  0  0  0  0  0  0  0  0  0  0  0
   40.1930   32.6500   37.5590 N   0  0  0  0  0  0  0  0  0  0  0  0
   39.4660   32.4390   38.6770 C   0  0  0  0  0  0  0  0  0  0  0  0
   40.2690   32.8060   39.6960 N   0  0  0  0  0  0  0  0  0  0  0  0
   41.4540   33.2290   39.2300 C   0  0  0  0  0  0  0  0  0  0  0  0
   42.6290   33.7090   39.7740 C   0  0  0  0  0  0  0  0  0  0  0  0
   42.6250   33.7730   40.8720 H   0  0  0  0  0  0  0  0  0  0  0  0
   43.7050   34.0770   39.0600 N   0  0  0  0  0  0  0  0  0  0  0  0
   43.6040   33.9590   37.7070 C   0  0  0  0  0  0  0  0  0  0  0  0
   44.4760   34.2580   37.1480 H   0  0  0  0  0  0  0  0  0  0  0  0
   42.4850   33.4970   37.1070 N   0  0  0  0  0  0  0  0  0  0  0  0
   41.4130   33.1320   37.8520 C   0  0  0  0  0  0  0  0  0  0  0  0
  1 19  1  0  0  0  0
  1  5  1  0  0  0  0
  2  1  1  0  0  0  0
  3  1  1  0  0  0  0
  4  6  1  0  0  0  0
  5  4  2  0  0  0  0
  6  7  1  0  0  0  0
  7 11  1  0  0  0  0
  7  9  1  0  0  0  0
  8  7  1  0  0  0  0
 10 15  1  0  0  0  0
 10 16  1  0  0  0  0
 11 10  2  0  0  0  0
 12 13  2  0  0  0  0
 12 11  1  0  0  0  0
 13 14  1  0  0  0  0
 14 18  1  0  0  0  0
 14 15  2  0  0  0  0
 17 12  1  0  0  0  0
 21 20  2  6  0  0  0
 21 19  1  0  0  0  0
 21 24  1  0  0  0  0
 22 21  1  0  0  0  0
 23 22  1  0  0  0  0
 25 26  1  0  0  0  0
 26 36  1  0  0  0  0
 26 27  1  0  0  0  0
 27 24  1  0  0  0  0
 27 28  2  0  0  0  0
 29 28  1  0  0  0  0
 29 30  1  0  0  0  0
 30 31  1  0  0  0  0
 32 30  2  0  0  0  0
 33 32  1  0  0  0  0
 34 33  1  0  0  0  0
 35 33  2  0  0  0  0
 35 36  1  0  0  0  0
 36 29  2  0  0  0  0
M  END
>  <minimizedAffinity>
-5.07219982

$$$$

 OpenBabel03252504313D

 36 38  0  0  0  0  0  0  0  0999 V2000
   37.1150   29.2980   38.4050 C   0  0  0  0  0  0  0  0  0  0  0  0
   38.1400   29.4660   38.7860 H   0  0  0  0  0  0  0  0  0  0  0  0
   37.0880   29.0620   37.3130 H   0  0  0  0  0  0  0  0  0  0  0  0
   37.2830   27.0930   39.6660 C   0  0  0  0  0  3  0  0  0  0  0  0
   36.5580   28.0760   39.1150 C   0  0  0  0  0  3  0  0  0  0  0  0
   36.5740   26.0680   40.2710 O   0  0  0  0  0  0  0  0  0  0  0  0
   37.0490   25.1290   41.1640 C   0  0  0  0  0  0  0  0  0  0  0  0
   36.1510   24.7950   41.7710 H   0  0  0  0  0  0  0  0  0  0  0  0
   37.5380   24.3040   40.6500 H   0  0  0  0  0  0  0  0  0  0  0  0
   39.1210   24.8920   42.3860 C   0  0  0  0  0  0  0  0  0  0  0  0
   37.9740   25.6860   42.1840 C   0  0  0  0  0  0  0  0  0  0  0  0
   37.8650   26.8250   42.9140 C   0  0  0  0  0  0  0  0  0  0  0  0
   38.8470   27.1110   43.7700 N   0  0  0  0  0  0  0  0  0  0  0  0
   39.9330   26.3590   43.9600 C   0  0  0  0  0  0  0  0  0  0  0  0
   40.1150   25.1750   43.2450 N   0  0  0  0  0  0  0  0  0  0  0  0
   39.3010   23.9670   41.8510 H   0  0  0  0  0  0  0  0  0  0  0  0
   36.9670   27.3920   42.7200 H   0  0  0  0  0  0  0  0  0  0  0  0
   40.6730   26.6820   44.6780 H   0  0  0  0  0  0  0  0  0  0  0  0
   36.2620   30.3460   38.6690 O   0  0  0  0  0  0  0  0  0  0  0  0
   36.8390   32.7580   39.6290 O   0  0  0  0  0  0  0  0  0  0  0  0
   36.8090   31.2930   39.9620 P   0  0  1  0  0  0  0  0  0  0  0  0
   35.8060   31.0650   41.3010 O   0  0  0  0  0  0  0  0  0  0  0  0
   35.7170   31.8910   41.8350 H   0  0  0  0  0  0  0  0  0  0  0  0
   38.3660   30.7580   40.4020 O   0  0  0  0  0  0  0  0  0  0  0  0
   39.2430   32.0060   38.0940 H   0  0  0  0  0  0  0  0  0  0  0  0
   39.7980   32.1360   38.9720 N   0  0  0  0  0  0  0  0  0  0  0  0
   39.4630   31.5750   40.1530 C   0  0  0  0  0  0  0  0  0  0  0  0
   40.4150   31.9790   41.0180 N   0  0  0  0  0  0  0  0  0  0  0  0
   41.3110   32.7610   40.3980 C   0  0  0  0  0  0  0  0  0  0  0  0
   42.4590   33.4420   40.7530 C   0  0  0  0  0  0  0  0  0  0  0  0
   42.7390   33.3350   41.8110 H   0  0  0  0  0  0  0  0  0  0  0  0
   43.1970   34.1820   39.9090 N   0  0  0  0  0  0  0  0  0  0  0  0
   42.7620   34.2490   38.6210 C   0  0  0  0  0  0  0  0  0  0  0  0
   43.3640   34.8460   37.9570 H   0  0  0  0  0  0  0  0  0  0  0  0
   41.6470   33.6090   38.2050 N   0  0  0  0  0  0  0  0  0  0  0  0
   40.9200   32.8680   39.0780 C   0  0  0  0  0  0  0  0  0  0  0  0
  1 19  1  0  0  0  0
  1  2  1  0  0  0  0
  1  5  1  0  0  0  0
  3  1  1  0  0  0  0
  4  6  1  0  0  0  0
  5  4  2  0  0  0  0
  6  7  1  0  0  0  0
  7  8  1  0  0  0  0
  7 11  1  0  0  0  0
  9  7  1  0  0  0  0
 10 15  1  0  0  0  0
 11 10  2  0  0  0  0
 11 12  1  0  0  0  0
 12 13  2  0  0  0  0
 13 14  1  0  0  0  0
 14 18  1  0  0  0  0
 15 14  2  0  0  0  0
 16 10  1  0  0  0  0
 17 12  1  0  0  0  0
 19 21  1  0  0  0  0
 21 20  2  6  0  0  0
 21 24  1  0  0  0  0
 21 22  1  0  0  0  0
 22 23  1  0  0  0  0
 25 26  1  0  0  0  0
 26 36  1  0  0  0  0
 26 27  1  0  0  0  0
 27 24  1  0  0  0  0
 27 28  2  0  0  0  0
 29 30  1  0  0  0  0
 29 28  1  0  0  0  0
 30 31  1  0  0  0  0
 32 30  2  0  0  0  0
 33 32  1  0  0  0  0
 34 33  1  0  0  0  0
 35 33  2  0  0  0  0
 35 36  1  0  0  0  0
 36 29  2  0  0  0  0
M  END
>  <minimizedAffinity>
-4.94143438

$$$$
