
 OpenBabel03252503013D

 33 35  0  0  0  0  0  0  0  0999 V2000
   44.8360   36.1170   43.4560 S   0  0  0  0  0  0  0  0  0  0  0  0
   43.4230   35.9000   42.4890 N   0  0  0  0  0  0  0  0  0  0  0  0
   42.9090   36.7760   42.3530 H   0  0  0  0  0  0  0  0  0  0  0  0
   43.7400   35.2250   41.2360 C   0  0  0  0  0  0  0  0  0  0  0  0
   43.4820   35.8370   40.3530 H   0  0  0  0  0  0  0  0  0  0  0  0
   44.8440   35.0250   41.1830 H   0  0  0  0  0  0  0  0  0  0  0  0
   42.9210   33.6210   41.2710 S   0  0  0  0  0  0  0  0  0  0  0  0
   40.2070   33.0780   41.3060 C   0  0  0  0  0  0  0  0  0  0  0  0
   41.2150   33.8270   40.7220 C   0  0  0  0  0  0  0  0  0  0  0  0
   40.9230   34.7500   39.7020 C   0  0  0  0  0  0  0  0  0  0  0  0
   39.6070   34.8530   39.3370 N   0  0  0  0  0  0  0  0  0  0  0  0
   38.6760   34.1020   39.9380 C   0  0  0  0  0  0  0  0  0  0  0  0
   38.9070   33.2140   40.9090 N   0  0  0  0  0  0  0  0  0  0  0  0
   40.4050   32.3600   42.0930 H   0  0  0  0  0  0  0  0  0  0  0  0
   41.7230   35.3140   39.2700 H   0  0  0  0  0  0  0  0  0  0  0  0
   37.7040   34.3450   39.4940 H   0  0  0  0  0  0  0  0  0  0  0  0
   46.0470   35.5500   42.8180 O   0  0  0  0  0  0  0  0  0  0  0  0
   46.5400   36.0340   42.1130 H   0  0  0  0  0  0  0  0  0  0  0  0
   44.9700   37.6300   43.6310 O   0  0  0  0  0  0  0  0  0  0  0  0
   44.8620   38.2590   42.8660 H   0  0  0  0  0  0  0  0  0  0  0  0
   44.5520   35.5270   44.9820 O   0  0  0  0  0  0  0  0  0  0  0  0
   46.5310   33.6380   44.1910 H   0  0  0  0  0  0  0  0  0  0  0  0
   46.1370   33.5340   45.1440 N   0  0  0  0  0  0  0  0  0  0  0  0
   45.2030   34.4250   45.5170 C   0  0  0  0  0  0  0  0  0  0  0  0
   44.8080   34.1320   46.7830 N   0  0  0  0  0  0  0  0  0  0  0  0
   45.4790   33.0600   47.2260 C   0  0  0  0  0  0  0  0  0  0  0  0
   45.5460   32.2910   48.3650 C   0  0  0  0  0  0  0  0  0  0  0  0
   44.9030   32.5640   49.1870 H   0  0  0  0  0  0  0  0  0  0  0  0
   46.3790   31.2500   48.4390 N   0  0  0  0  0  0  0  0  0  0  0  0
   47.1800   30.9190   47.4000 C   0  0  0  0  0  0  0  0  0  0  0  0
   47.8610   30.0860   47.4310 H   0  0  0  0  0  0  0  0  0  0  0  0
   47.1380   31.6610   46.2560 N   0  0  0  0  0  0  0  0  0  0  0  0
   46.2920   32.7170   46.1880 C   0  0  0  0  0  0  0  0  0  0  0  0
  1 19  1  0  0  0  0
  1 21  1  0  0  0  0
  2  1  1  0  0  0  0
  3  2  1  0  0  0  0
  4  7  1  0  0  0  0
  4  2  1  0  0  0  0
  5  4  1  0  0  0  0
  6  4  1  0  0  0  0
  8 14  1  0  0  0  0
  9  7  1  0  0  0  0
  9  8  2  0  0  0  0
 10  9  1  0  0  0  0
 11 10  2  0  0  0  0
 11 12  1  0  0  0  0
 12 13  2  0  0  0  0
 13  8  1  0  0  0  0
 15 10  1  0  0  0  0
 16 12  1  0  0  0  0
 17  1  1  0  0  0  0
 18 17  1  0  0  0  0
 20 19  1  0  0  0  0
 21 24  1  0  0  0  0
 22 23  1  0  0  0  0
 23 24  1  0  0  0  0
 23 33  1  0  0  0  0
 24 25  2  0  0  0  0
 25 26  1  0  0  0  0
 26 27  1  0  0  0  0
 27 29  2  0  0  0  0
 27 28  1  0  0  0  0
 30 31  1  0  0  0  0
 30 29  1  0  0  0  0
 32 30  2  0  0  0  0
 33 32  1  0  0  0  0
 33 26  2  0  0  0  0
M  END
>  <minimizedAffinity>
-5.71530485

>  <minimizedRMSD>
1.92724872

$$$$
