
 OpenBabel03252503463D

 47 51  0  0  1  0  0  0  0  0999 V2000
   46.4450   35.0380   42.2980 C   0  0  0  0  0  0  0  0  0  0  0  0
   47.3650   34.7080   41.7700 H   0  0  0  0  0  0  0  0  0  0  0  0
   46.6090   36.1200   42.4990 H   0  0  0  0  0  0  0  0  0  0  0  0
   45.2730   34.8200   41.4380 C   0  0  0  0  0  0  0  0  0  0  0  0
   44.0970   35.5310   41.5040 C   0  0  0  0  0  0  0  0  0  0  0  0
   43.0270   35.2820   40.6810 C   0  0  0  0  0  0  0  0  0  0  0  0
   43.1370   34.2810   39.7530 C   0  0  0  0  0  0  0  0  0  0  0  0
   44.3170   33.5450   39.6630 C   0  0  0  0  0  0  0  0  0  0  0  0
   45.3960   33.8110   40.5070 C   0  0  0  0  0  0  0  0  0  0  0  0
   44.1000   36.3040   42.2680 H   0  0  0  0  0  0  0  0  0  0  0  0
   42.1360   35.8850   40.7940 H   0  0  0  0  0  0  0  0  0  0  0  0
   42.2640   34.1330   39.1350 H   0  0  0  0  0  0  0  0  0  0  0  0
   44.2330   32.7940   38.8770 H   0  0  0  0  0  0  0  0  0  0  0  0
   46.4520   32.9220   40.1710 N   0  0  0  0  0  0  0  0  0  0  0  0
   46.7690   31.7130   40.7230 C   0  0  0  0  0  0  0  0  0  0  0  0
   46.2470   31.2310   41.5270 H   0  0  0  0  0  0  0  0  0  0  0  0
   47.8290   31.1600   40.1540 N   0  0  0  0  0  0  0  0  0  0  0  0
   48.2310   32.0200   39.2000 C   0  0  0  0  0  0  0  0  0  0  0  0
   49.2480   32.0500   38.2670 C   0  0  0  0  0  0  0  0  0  0  0  0
   49.9410   31.2170   38.2210 H   0  0  0  0  0  0  0  0  0  0  0  0
   49.4110   33.0760   37.4130 N   0  0  0  0  0  0  0  0  0  0  0  0
   48.5740   34.1340   37.4320 C   0  0  0  0  0  0  0  0  0  0  0  0
   48.7870   34.9000   36.7130 H   0  0  0  0  0  0  0  0  0  0  0  0
   47.5590   34.1360   38.3420 N   0  0  0  0  0  0  0  0  0  0  0  0
   47.3820   33.1310   39.1920 C   0  0  0  0  0  0  0  0  0  0  0  0
   45.3560   34.5670   44.4680 C   0  0  0  0  0  0  0  0  0  0  0  0
   46.3250   34.2640   43.5180 C   0  0  0  0  0  0  0  0  0  0  0  0
   47.1680   33.1890   43.7990 C   0  0  0  0  0  0  0  0  0  0  0  0
   47.0460   32.4730   44.9400 N   0  0  0  0  0  0  0  0  0  0  0  0
   46.0850   32.8000   45.8400 C   0  0  0  0  0  0  0  0  0  0  0  0
   45.2390   33.8440   45.6130 N   0  0  0  0  0  0  0  0  0  0  0  0
   44.7120   35.4020   44.2380 H   0  0  0  0  0  0  0  0  0  0  0  0
   47.9580   32.8610   43.1770 H   0  0  0  0  0  0  0  0  0  0  0  0
   47.3900   31.7030   47.6500 C   0  0  2  0  0  0  0  0  0  0  0  0
   45.9820   31.9990   47.0570 C   0  0  1  0  0  0  0  0  0  0  0  0
   45.4300   32.6160   48.1270 O   0  0  0  0  0  0  0  0  0  0  0  0
   45.7200   31.8720   49.2350 C   0  0  0  0  0  0  0  0  0  0  0  0
   46.9070   30.9910   48.9190 C   0  0  2  0  0  0  0  0  0  0  0  0
   47.9600   31.0350   46.9830 H   0  0  0  0  0  0  0  0  0  0  0  0
   45.5000   31.0050   46.8980 H   0  0  0  0  0  0  0  0  0  0  0  0
   44.8330   31.2940   49.5640 H   0  0  0  0  0  0  0  0  0  0  0  0
   45.9590   32.5600   50.0730 H   0  0  0  0  0  0  0  0  0  0  0  0
   46.5420   29.9860   48.7020 H   0  0  0  0  0  0  0  0  0  0  0  0
   47.9930   32.8460   48.0180 O   0  0  0  0  0  0  0  0  0  0  0  0
   48.8550   33.0430   47.5910 H   0  0  0  0  0  0  0  0  0  0  0  0
   47.8550   30.9610   49.9050 O   0  0  0  0  0  0  0  0  0  0  0  0
   47.3960   30.8620   50.7860 H   0  0  0  0  0  0  0  0  0  0  0  0
  1  3  1  0  0  0  0
  1 27  1  0  0  0  0
  2  1  1  0  0  0  0
  4  5  1  0  0  0  0
  4  1  1  0  0  0  0
  5 10  1  0  0  0  0
  6 11  1  0  0  0  0
  6  5  2  0  0  0  0
  7  6  1  0  0  0  0
  8  7  2  0  0  0  0
  8  9  1  0  0  0  0
  9  4  2  0  0  0  0
 12  7  1  0  0  0  0
 13  8  1  0  0  0  0
 14  9  1  0  0  0  0
 14 15  1  0  0  0  0
 15 16  1  0  0  0  0
 17 15  2  0  0  0  0
 18 17  1  0  0  0  0
 19 18  2  0  0  0  0
 20 19  1  0  0  0  0
 21 22  2  0  0  0  0
 21 19  1  0  0  0  0
 22 24  1  0  0  0  0
 23 22  1  0  0  0  0
 24 25  2  0  0  0  0
 25 18  1  0  0  0  0
 25 14  1  0  0  0  0
 26 31  1  0  0  0  0
 27 28  1  0  0  0  0
 27 26  2  0  0  0  0
 28 29  2  0  0  0  0
 29 30  1  0  0  0  0
 30 35  1  0  0  0  0
 31 30  2  0  0  0  0
 32 26  1  0  0  0  0
 33 28  1  0  0  0  0
 34 39  1  6  0  0  0
 34 44  1  0  0  0  0
 34 38  1  0  0  0  0
 35 40  1  6  0  0  0
 35 34  1  0  0  0  0
 35 36  1  0  0  0  0
 36 37  1  0  0  0  0
 37 41  1  0  0  0  0
 37 42  1  0  0  0  0
 38 43  1  6  0  0  0
 38 37  1  0  0  0  0
 38 46  1  0  0  0  0
 45 44  1  0  0  0  0
 46 47  1  0  0  0  0
M  END
>  <minimizedAffinity>
-7.04415989

>  <minimizedRMSD>
1.93320262

$$$$
