
 OpenBabel03252500143D

 41 45  0  0  0  0  0  0  0  0999 V2000
   45.4970   32.3740   40.4310 Cl  0  0  0  0  0  0  0  0  0  0  0  0
   46.7990   33.4790   40.0950 C   0  0  0  0  0  0  0  0  0  0  0  0
   47.3690   34.2110   41.1070 C   0  0  0  0  0  0  0  0  0  0  0  0
   48.4130   35.1040   40.8730 C   0  0  0  0  0  0  0  0  0  0  0  0
   48.8380   35.2090   39.5660 C   0  0  0  0  0  0  0  0  0  0  0  0
   48.2660   34.4730   38.5450 C   0  0  0  0  0  0  0  0  0  0  0  0
   47.2680   33.6240   38.7960 C   0  0  0  0  0  0  0  0  0  0  0  0
   48.8410   35.6670   41.6910 H   0  0  0  0  0  0  0  0  0  0  0  0
   49.6440   35.8950   39.3750 H   0  0  0  0  0  0  0  0  0  0  0  0
   48.6190   34.5730   37.5290 H   0  0  0  0  0  0  0  0  0  0  0  0
   46.8470   32.8710   44.5010 C   0  0  0  0  0  0  0  0  0  0  0  0
   45.9240   33.7880   45.0490 C   0  0  0  0  0  0  0  0  0  0  0  0
   45.4970   34.8470   44.2500 C   0  0  0  0  0  0  0  0  0  0  0  0
   45.9900   34.9480   42.9770 N   0  0  0  0  0  0  0  0  0  0  0  0
   46.8720   34.0570   42.4790 C   0  0  0  0  0  0  0  0  0  0  0  0
   47.2900   33.0290   43.2460 N   0  0  0  0  0  0  0  0  0  0  0  0
   47.1520   32.0650   45.1530 H   0  0  0  0  0  0  0  0  0  0  0  0
   45.5400   33.7040   46.0490 H   0  0  0  0  0  0  0  0  0  0  0  0
   44.5230   35.8800   44.7210 C   0  0  0  0  0  0  0  0  0  0  0  0
   44.9940   37.1340   44.4850 F   0  0  0  0  0  0  0  0  0  0  0  0
   43.3380   35.7020   44.0350 F   0  0  0  0  0  0  0  0  0  0  0  0
   44.3220   35.6460   46.0590 F   0  0  0  0  0  0  0  0  0  0  0  0
   46.6390   32.8310   37.7520 C   0  0  0  0  0  0  0  0  0  0  0  0
   45.6040   33.2840   36.9220 C   0  0  0  0  0  0  0  0  0  0  0  0
   45.2400   32.2830   36.0480 C   0  0  0  0  0  0  0  0  0  0  0  0
   46.0870   31.2530   36.3930 C   0  0  0  0  0  0  0  0  0  0  0  0
   46.8870   31.5990   37.3840 O   0  0  0  0  0  0  0  0  0  0  0  0
   45.1210   34.2760   36.9290 H   0  0  0  0  0  0  0  0  0  0  0  0
   44.4960   32.2490   35.2700 H   0  0  0  0  0  0  0  0  0  0  0  0
   46.1310   29.9590   35.7890 N   0  0  0  0  0  0  0  0  0  0  0  0
   47.1990   29.4400   35.1530 C   0  0  0  0  0  0  0  0  0  0  0  0
   48.1790   29.8560   34.9750 H   0  0  0  0  0  0  0  0  0  0  0  0
   46.8730   28.1910   34.7070 N   0  0  0  0  0  0  0  0  0  0  0  0
   45.6010   27.9190   35.0590 C   0  0  0  0  0  0  0  0  0  0  0  0
   44.6820   26.8960   34.9370 C   0  0  0  0  0  0  0  0  0  0  0  0
   45.0290   26.0070   34.4040 H   0  0  0  0  0  0  0  0  0  0  0  0
   43.4350   26.9960   35.4500 N   0  0  0  0  0  0  0  0  0  0  0  0
   43.0310   28.1000   36.1030 C   0  0  0  0  0  0  0  0  0  0  0  0
   42.0500   28.2280   36.5280 H   0  0  0  0  0  0  0  0  0  0  0  0
   43.9040   29.1250   36.2430 N   0  0  0  0  0  0  0  0  0  0  0  0
   45.1480   29.0400   35.7390 C   0  0  0  0  0  0  0  0  0  0  0  0
  2  1  1  0  0  0  0
  2  3  1  0  0  0  0
  3 15  1  0  0  0  0
  4  3  2  0  0  0  0
  4  8  1  0  0  0  0
  5  4  1  0  0  0  0
  6  7  1  0  0  0  0
  6  5  2  0  0  0  0
  7  2  2  0  0  0  0
  9  5  1  0  0  0  0
 10  6  1  0  0  0  0
 11 12  1  0  0  0  0
 11 17  1  0  0  0  0
 12 18  1  0  0  0  0
 13 19  1  0  0  0  0
 13 12  2  0  0  0  0
 14 13  1  0  0  0  0
 15 14  2  0  0  0  0
 15 16  1  0  0  0  0
 16 11  2  0  0  0  0
 19 22  1  0  0  0  0
 20 19  1  0  0  0  0
 21 19  1  0  0  0  0
 23  7  1  0  0  0  0
 24 28  1  0  0  0  0
 24 23  2  0  0  0  0
 25 26  2  0  0  0  0
 25 24  1  0  0  0  0
 26 27  1  0  0  0  0
 27 23  1  0  0  0  0
 29 25  1  0  0  0  0
 30 26  1  0  0  0  0
 31 30  1  0  0  0  0
 32 31  1  0  0  0  0
 33 34  1  0  0  0  0
 33 31  2  0  0  0  0
 34 41  1  0  0  0  0
 35 34  2  0  0  0  0
 35 37  1  0  0  0  0
 36 35  1  0  0  0  0
 37 38  2  0  0  0  0
 38 40  1  0  0  0  0
 38 39  1  0  0  0  0
 41 30  1  0  0  0  0
 41 40  2  0  0  0  0
M  END
>  <minimizedAffinity>
-5.87397671

>  <minimizedRMSD>
0.219013378

$$$$
