
 OpenBabel03242523543D

 48 52  0  0  1  0  0  0  0  0999 V2000
   42.7750   34.4930   38.7990 C   0  0  1  0  0  0  0  0  0  0  0  0
   42.9520   35.2350   40.1150 C   0  0  1  0  0  0  0  0  0  0  0  0
   41.6690   35.5560   40.6130 O   0  0  0  0  0  0  0  0  0  0  0  0
   40.7630   35.8780   39.5960 C   0  0  0  0  0  0  0  0  0  0  0  0
   40.4010   34.6650   38.7590 C   0  0  2  0  0  0  0  0  0  0  0  0
   41.5640   33.6350   38.9620 C   0  0  1  0  0  0  0  0  0  0  0  0
   43.6910   33.8740   38.6280 H   0  0  0  0  0  0  0  0  0  0  0  0
   43.5710   36.1430   40.0140 H   0  0  0  0  0  0  0  0  0  0  0  0
   39.8530   36.2030   40.1090 H   0  0  0  0  0  0  0  0  0  0  0  0
   41.1230   36.7190   38.9730 H   0  0  0  0  0  0  0  0  0  0  0  0
   39.4530   34.1910   39.0530 H   0  0  0  0  0  0  0  0  0  0  0  0
   41.3380   33.4510   40.0650 H   0  0  0  0  0  0  0  0  0  0  0  0
   42.6100   35.3970   37.7370 O   0  0  0  0  0  0  0  0  0  0  0  0
   42.7770   34.8910   36.8940 H   0  0  0  0  0  0  0  0  0  0  0  0
   40.4430   34.9990   37.4140 O   0  0  0  0  0  0  0  0  0  0  0  0
   39.9140   34.3360   36.9310 H   0  0  0  0  0  0  0  0  0  0  0  0
   43.4340   34.2830   41.0170 O   0  0  0  0  0  0  0  0  0  0  0  0
   44.5550   34.4030   41.7380 C   0  0  0  0  0  0  0  0  0  0  0  0
   45.8080   34.4830   41.1140 C   0  0  0  0  0  0  0  0  0  0  0  0
   46.9360   34.6070   41.9090 C   0  0  0  0  0  0  0  0  0  0  0  0
   46.7930   34.6500   43.2860 N   0  0  0  0  0  0  0  0  0  0  0  0
   45.5670   34.5700   43.8500 C   0  0  0  0  0  0  0  0  0  0  0  0
   44.4550   34.4480   43.0820 N   0  0  0  0  0  0  0  0  0  0  0  0
   45.9070   34.4480   40.0360 H   0  0  0  0  0  0  0  0  0  0  0  0
   45.5240   34.6090   44.9350 H   0  0  0  0  0  0  0  0  0  0  0  0
   48.3100   34.6860   41.3070 C   0  0  0  0  0  0  0  0  0  0  0  0
   49.0580   36.0030   41.5000 C   0  0  0  0  0  0  0  0  0  0  0  0
   49.4710   34.6680   42.1450 C   0  0  0  0  0  0  0  0  0  0  0  0
   48.3020   34.3970   40.2270 H   0  0  0  0  0  0  0  0  0  0  0  0
   48.6230   36.7140   42.2560 H   0  0  0  0  0  0  0  0  0  0  0  0
   49.6780   36.4000   40.7000 H   0  0  0  0  0  0  0  0  0  0  0  0
   50.4390   34.2820   41.7560 H   0  0  0  0  0  0  0  0  0  0  0  0
   49.3690   34.5410   43.2250 H   0  0  0  0  0  0  0  0  0  0  0  0
   41.3820   32.6420   38.0790 O   0  0  0  0  0  0  0  0  0  0  0  0
   40.9760   31.3800   38.2270 C   0  0  0  0  0  0  0  0  0  0  0  0
   40.6190   30.6290   37.1900 O   0  0  0  0  0  0  0  0  0  0  0  0
   41.5460   28.5500   38.8120 H   0  0  0  0  0  0  0  0  0  0  0  0
   41.1540   29.2290   39.4720 N   0  0  0  0  0  0  0  0  0  0  0  0
   40.8160   30.4980   39.4510 C   0  0  0  0  0  0  0  0  0  0  0  0
   40.3420   30.7970   40.7030 N   0  0  0  0  0  0  0  0  0  0  0  0
   40.3890   29.7220   41.4840 C   0  0  0  0  0  0  0  0  0  0  0  0
   40.0030   29.6140   42.8030 C   0  0  0  0  0  0  0  0  0  0  0  0
   39.6030   30.4210   43.3810 H   0  0  0  0  0  0  0  0  0  0  0  0
   40.1660   28.3800   43.3540 N   0  0  0  0  0  0  0  0  0  0  0  0
   40.6720   27.3600   42.6280 C   0  0  0  0  0  0  0  0  0  0  0  0
   40.8230   26.3600   43.0120 H   0  0  0  0  0  0  0  0  0  0  0  0
   41.0210   27.5530   41.3480 N   0  0  0  0  0  0  0  0  0  0  0  0
   40.9060   28.7120   40.7120 C   0  0  0  0  0  0  0  0  0  0  0  0
  1  7  1  6  0  0  0
  1  6  1  0  0  0  0
  1  2  1  0  0  0  0
  2  8  1  6  0  0  0
  2  3  1  0  0  0  0
  2 17  1  0  0  0  0
  4  9  1  0  0  0  0
  4  3  1  0  0  0  0
  5  6  1  0  0  0  0
  5 11  1  1  0  0  0
  5  4  1  0  0  0  0
  6 12  1  1  0  0  0
 10  4  1  0  0  0  0
 13  1  1  0  0  0  0
 14 13  1  0  0  0  0
 15  5  1  0  0  0  0
 16 15  1  0  0  0  0
 17 18  1  0  0  0  0
 18 23  1  0  0  0  0
 19 18  2  0  0  0  0
 19 20  1  0  0  0  0
 20 21  2  0  0  0  0
 21 22  1  0  0  0  0
 22 25  1  0  0  0  0
 23 22  2  0  0  0  0
 24 19  1  0  0  0  0
 26 27  1  0  0  0  0
 26 20  1  0  0  0  0
 26 28  1  0  0  0  0
 27 28  1  0  0  0  0
 27 30  1  0  0  0  0
 28 33  1  0  0  0  0
 29 26  1  0  0  0  0
 31 27  1  0  0  0  0
 32 28  1  0  0  0  0
 34 35  1  0  0  0  0
 34  6  1  0  0  0  0
 35 39  1  0  0  0  0
 36 35  2  0  0  0  0
 37 38  1  0  0  0  0
 38 48  1  0  0  0  0
 39 38  1  0  0  0  0
 39 40  2  0  0  0  0
 40 41  1  0  0  0  0
 41 42  1  0  0  0  0
 42 44  2  0  0  0  0
 42 43  1  0  0  0  0
 45 46  1  0  0  0  0
 45 44  1  0  0  0  0
 47 45  2  0  0  0  0
 48 47  1  0  0  0  0
 48 41  2  0  0  0  0
M  END
>  <minimizedAffinity>
-6.22031403

>  <minimizedRMSD>
1.92859173

$$$$
