
     RDKit          3D

 48 52  0  0  0  0  0  0  0  0999 V2000
   42.8273   34.4853   38.7769 C   0  0  1  0  0  0  0  0  0  0  0  0
   42.9571   35.1629   40.1319 C   0  0  1  0  0  0  0  0  0  0  0  0
   41.6558   35.3825   40.6394 O   0  0  0  0  0  0  0  0  0  0  0  0
   40.7357   35.7068   39.6359 C   0  0  0  0  0  0  0  0  0  0  0  0
   40.4472   34.5218   38.7318 C   0  0  2  0  0  0  0  0  0  0  0  0
   41.6674   33.5510   38.8869 C   0  0  1  0  0  0  0  0  0  0  0  0
   42.6129   35.4345   37.7644 O   0  0  0  0  0  0  0  0  0  0  0  0
   40.4731   34.9302   37.4084 O   0  0  0  0  0  0  0  0  0  0  0  0
   43.4905   34.1926   40.9840 O   0  0  0  0  0  0  0  0  0  0  0  0
   44.6016   34.3375   41.7161 C   0  0  0  0  0  0  0  0  0  0  0  0
   45.8581   34.4538   41.1030 C   0  0  0  0  0  0  0  0  0  0  0  0
   46.9747   34.6023   41.9084 C   0  0  0  0  0  0  0  0  0  0  0  0
   46.8200   34.6313   43.2838 N   0  0  0  0  0  0  0  0  0  0  0  0
   45.5919   34.5158   43.8373 C   0  0  0  0  0  0  0  0  0  0  0  0
   44.4900   34.3699   43.0586 N   0  0  0  0  0  0  0  0  0  0  0  0
   48.3519   34.7213   41.3175 C   0  0  0  0  0  0  0  0  0  0  0  0
   49.0678   36.0507   41.5358 C   0  0  0  0  0  0  0  0  0  0  0  0
   49.5060   34.7172   42.1649 C   0  0  0  0  0  0  0  0  0  0  0  0
   41.5446   32.5980   37.9497 O   0  0  0  0  0  0  0  0  0  0  0  0
   40.9319   31.4133   37.9582 C   0  0  0  0  0  0  0  0  0  0  0  0
   39.6603   31.2773   37.5971 O   0  0  0  0  0  0  0  0  0  0  0  0
   43.7770   33.9287   38.5782 H   0  0  0  0  0  0  0  0  0  0  0  0
   43.5225   36.1088   40.0843 H   0  0  0  0  0  0  0  0  0  0  0  0
   39.8071   35.9508   40.1605 H   0  0  0  0  0  0  0  0  0  0  0  0
   41.0486   36.5990   39.0606 H   0  0  0  0  0  0  0  0  0  0  0  0
   39.5266   33.9794   38.9955 H   0  0  0  0  0  0  0  0  0  0  0  0
   41.4492   33.2953   39.9775 H   0  0  0  0  0  0  0  0  0  0  0  0
   42.8110   34.9839   36.8961 H   0  0  0  0  0  0  0  0  0  0  0  0
   39.9848   34.2654   36.8856 H   0  0  0  0  0  0  0  0  0  0  0  0
   45.9662   34.4295   40.0258 H   0  0  0  0  0  0  0  0  0  0  0  0
   45.5394   34.5461   44.9216 H   0  0  0  0  0  0  0  0  0  0  0  0
   48.3588   34.4475   40.2340 H   0  0  0  0  0  0  0  0  0  0  0  0
   48.6112   36.7407   42.2990 H   0  0  0  0  0  0  0  0  0  0  0  0
   49.6850   36.4744   40.7466 H   0  0  0  0  0  0  0  0  0  0  0  0
   50.4862   34.3579   41.7792 H   0  0  0  0  0  0  0  0  0  0  0  0
   49.3991   34.5716   43.2434 H   0  0  0  0  0  0  0  0  0  0  0  0
   42.6269   29.4083   36.6219 H   0  0  0  0  0  0  0  0  0  0  0  0
   42.1860   29.3020   37.5408 N   0  0  0  0  0  0  0  0  0  0  0  0
   41.4109   30.0200   38.3204 C   0  0  0  0  0  0  0  0  0  0  0  0
   41.1803   29.2687   39.4434 N   0  0  0  0  0  0  0  0  0  0  0  0
   41.8076   28.0995   39.3558 C   0  0  0  0  0  0  0  0  0  0  0  0
   41.8235   27.0727   40.2746 C   0  0  0  0  0  0  0  0  0  0  0  0
   41.3084   27.0962   41.2116 H   0  0  0  0  0  0  0  0  0  0  0  0
   42.5576   25.9839   39.9137 N   0  0  0  0  0  0  0  0  0  0  0  0
   43.2089   25.9508   38.7320 C   0  0  0  0  0  0  0  0  0  0  0  0
   43.8060   25.1149   38.3927 H   0  0  0  0  0  0  0  0  0  0  0  0
   43.1398   26.9965   37.8950 N   0  0  0  0  0  0  0  0  0  0  0  0
   42.4547   28.1057   38.1457 C   0  0  0  0  0  0  0  0  0  0  0  0
  1  6  1  0
  1  2  1  0
  2  3  1  0
  2  9  1  0
  4  3  1  0
  5  6  1  0
  5  4  1  0
  7  1  1  0
  8  5  1  0
  9 10  1  0
 10 15  1  0
 11 10  2  0
 11 12  1  0
 12 13  2  0
 13 14  1  0
 15 14  2  0
 16 17  1  0
 16 12  1  0
 16 18  1  0
 17 18  1  0
 19 20  1  0
 19  6  1  0
 21 20  2  0
  1 22  1  6
  2 23  1  6
  4 24  1  0
  4 25  1  0
  5 26  1  1
  6 27  1  1
  7 28  1  0
  8 29  1  0
 11 30  1  0
 14 31  1  0
 16 32  1  0
 17 33  1  0
 17 34  1  0
 18 35  1  0
 18 36  1  0
 37 38  1  0
 38 39  1  0
 39 40  2  0
 40 41  1  0
 41 42  2  0
 42 43  1  0
 42 44  1  0
 44 45  2  0
 45 46  1  0
 45 47  1  0
 47 48  2  0
 48 38  1  0
 48 41  1  0
 20 39  1  0
M  ISO  8  22  13  23  13  24  13  25  13  26  13  27  13  28   3  29   3
M  ISO  8  30  14  31  14  32  13  33  13  34  13  35  13  36  13  37   9
M  ISO  2  43  16  46  16
M  END
>  <DihAtoms>  (1) 
18,19,38,37

>  <DihDeg>  (1) 
179.65356445145176

$$$$
