REMARK  Name = 
REMARK  6 active torsions:
REMARK  status: ('A' for Active; 'I' for Inactive)
REMARK    1  A    between atoms: C_1  and  C_6
REMARK    2  A    between atoms: C_3  and  O_10
REMARK    3  A    between atoms: O_10  and  P_12
REMARK    4  A    between atoms: P_12  and  O_13
REMARK    5  A    between atoms: P_12  and  O_14
REMARK    6  A    between atoms: O_14  and  C_15
REMARK                            x       y       z     vdW  Elec       q    Type
REMARK                         _______ _______ _______ _____ _____    ______ ____
ROOT
ATOM      1  O   UNL     1      46.730  34.064  37.279  0.00  0.00    +0.000 OA
ENDROOT
BRANCH   1   2
ATOM      2  C   UNL     1      45.784  33.088  37.035  0.00  0.00    +0.000 A 
ATOM      3  C   UNL     1      45.656  32.296  35.905  0.00  0.00    +0.000 A 
ATOM      4  C   UNL     1      44.663  31.369  35.811  0.00  0.00    +0.000 A 
ATOM      5  C   UNL     1      43.758  31.195  36.841  0.00  0.00    +0.000 A 
ATOM      6  C   UNL     1      43.928  32.016  37.960  0.00  0.00    +0.000 A 
ATOM      7  N   UNL     1      44.922  32.932  38.035  0.00  0.00    +0.000 NA
ATOM      8  H   UNL     1      46.398  32.487  35.140  0.00  0.00    +0.000 HD
ATOM      9  H   UNL     1      44.614  30.785  34.909  0.00  0.00    +0.000 HD
ATOM     10  H   UNL     1      42.965  30.463  36.780  0.00  0.00    +0.000 HD
ATOM     11  N   UNL     1      42.975  31.803  38.996  0.00  0.00    +0.000 N 
ATOM     12  C   UNL     1      42.818  30.789  39.895  0.00  0.00    +0.000 A 
ATOM     13  H   UNL     1      43.494  29.941  39.904  0.00  0.00    +0.000 HD
ATOM     14  N   UNL     1      41.751  31.081  40.662  0.00  0.00    +0.000 NA
ATOM     15  C   UNL     1      41.203  32.258  40.290  0.00  0.00    +0.000 A 
ATOM     16  C   UNL     1      40.127  33.004  40.726  0.00  0.00    +0.000 A 
ATOM     17  H   UNL     1      39.536  32.631  41.548  0.00  0.00    +0.000 HD
ATOM     18  N   UNL     1      39.831  34.167  40.133  0.00  0.00    +0.000 NA
ATOM     19  C   UNL     1      40.593  34.593  39.114  0.00  0.00    +0.000 A 
ATOM     20  H   UNL     1      40.496  35.497  38.531  0.00  0.00    +0.000 HD
ATOM     21  N   UNL     1      41.646  33.877  38.677  0.00  0.00    +0.000 NA
ATOM     22  C   UNL     1      41.989  32.698  39.239  0.00  0.00    +0.000 A 
ENDBRANCH   1   2
BRANCH   1  24
ATOM     23  O   UNL     1      48.520  32.401  37.987  0.00  0.00    +0.000 OA
ATOM     24  P   UNL     1      48.094  33.848  38.235  0.00  0.00    +0.000 P 
BRANCH  24  25
ATOM     25  O   UNL     1      49.335  34.799  37.580  0.00  0.00    +0.000 OA
ATOM     26  H   UNL     1      48.994  35.682  37.269  0.00  0.00    +0.000 HD
ENDBRANCH  24  25
BRANCH  24  27
ATOM     27  O   UNL     1      47.767  34.141  39.810  0.00  0.00    +0.000 OA
BRANCH  27  30
ATOM     28  C   UNL     1      48.078  35.474  41.808  0.00  0.00    +0.000 C 
ATOM     29  C   UNL     1      49.319  34.699  41.692  0.00  0.00    +0.000 C 
ATOM     30  C   UNL     1      48.486  35.074  40.455  0.00  0.00    +0.000 C 
ATOM     31  H   UNL     1      48.123  36.553  42.024  0.00  0.00    +0.000 HD
ATOM     32  H   UNL     1      49.339  33.593  41.843  0.00  0.00    +0.000 HD
ATOM     33  H   UNL     1      50.291  35.156  41.862  0.00  0.00    +0.000 HD
ATOM     34  H   UNL     1      49.071  35.764  39.816  0.00  0.00    +0.000 HD
BRANCH  28  37
ATOM     35  C   UNL     1      46.051  32.933  43.754  0.00  0.00    +0.000 A 
ATOM     36  C   UNL     1      47.143  33.617  43.228  0.00  0.00    +0.000 A 
ATOM     37  C   UNL     1      46.912  34.730  42.394  0.00  0.00    +0.000 A 
ATOM     38  N   UNL     1      45.639  35.104  42.125  0.00  0.00    +0.000 NA
ATOM     39  C   UNL     1      44.588  34.418  42.650  0.00  0.00    +0.000 A 
ATOM     40  N   UNL     1      44.797  33.333  43.465  0.00  0.00    +0.000 NA
ATOM     41  H   UNL     1      46.182  32.075  44.398  0.00  0.00    +0.000 HD
ATOM     42  H   UNL     1      48.135  33.288  43.467  0.00  0.00    +0.000 HD
ATOM     43  H   UNL     1      43.606  34.787  42.381  0.00  0.00    +0.000 HD
ENDBRANCH  28  37
ENDBRANCH  27  30
ENDBRANCH  24  27
ENDBRANCH   1  24
TORSDOF 6
