
 OpenBabel03242521443D

 41 44  0  0  1  0  0  0  0  0999 V2000
   45.4350   34.4030   43.7910 C   0  0  0  0  0  0  0  0  0  0  0  0
   46.5420   33.7730   43.2100 C   0  0  0  0  0  0  0  0  0  0  0  0
   47.3760   32.9760   43.9920 C   0  0  0  0  0  0  0  0  0  0  0  0
   47.0650   32.8540   45.2820 N   0  0  0  0  0  0  0  0  0  0  0  0
   45.9960   33.4650   45.8380 C   0  0  0  0  0  0  0  0  0  0  0  0
   45.1790   34.2380   45.0990 N   0  0  0  0  0  0  0  0  0  0  0  0
   46.6980   33.9360   42.1710 H   0  0  0  0  0  0  0  0  0  0  0  0
   45.7860   33.3300   46.9060 H   0  0  0  0  0  0  0  0  0  0  0  0
   49.3080   33.2590   42.4580 C   0  0  2  0  0  0  0  0  0  0  0  0
   48.5110   32.3480   43.3220 C   0  0  2  0  0  0  0  0  0  0  0  0
   48.1420   31.3440   42.3800 O   0  0  0  0  0  0  0  0  0  0  0  0
   49.3620   31.0250   41.8200 C   0  0  0  0  0  0  0  0  0  0  0  0
   50.2710   32.2110   41.8630 C   0  0  1  0  0  0  0  0  0  0  0  0
   48.7440   33.6050   41.5500 H   0  0  0  0  0  0  0  0  0  0  0  0
   49.1940   31.8180   44.0260 H   0  0  0  0  0  0  0  0  0  0  0  0
   49.8100   30.1680   42.3790 H   0  0  0  0  0  0  0  0  0  0  0  0
   49.2340   30.7340   40.7510 H   0  0  0  0  0  0  0  0  0  0  0  0
   51.1200   32.1150   42.5500 H   0  0  0  0  0  0  0  0  0  0  0  0
   49.9400   34.2700   43.1160 O   0  0  0  0  0  0  0  0  0  0  0  0
   49.2980   34.6790   43.7160 H   0  0  0  0  0  0  0  0  0  0  0  0
   50.6870   32.6390   40.6090 O   0  0  0  0  0  0  0  0  0  0  0  0
   51.0420   33.5580   40.6780 H   0  0  0  0  0  0  0  0  0  0  0  0
   44.5510   35.2660   42.9360 C   0  0  0  0  0  0  0  0  0  0  0  0
   44.9920   35.3600   41.9380 H   0  0  0  0  0  0  0  0  0  0  0  0
   43.5450   34.8010   42.8970 H   0  0  0  0  0  0  0  0  0  0  0  0
   45.3870   37.5890   43.6150 C   0  0  0  0  0  0  0  0  0  0  0  0
   46.4450   37.3790   42.9610 O   0  0  0  0  0  0  0  0  0  0  0  0
   44.4410   36.5440   43.6360 N   0  0  0  0  0  0  0  0  0  0  0  0
   43.5730   36.7070   44.2130 H   0  0  0  0  0  0  0  0  0  0  0  0
   45.0640   40.2440   42.7080 H   0  0  0  0  0  0  0  0  0  0  0  0
   45.0350   40.0420   43.7120 N   0  0  0  0  0  0  0  0  0  0  0  0
   45.1700   38.8460   44.3070 C   0  0  0  0  0  0  0  0  0  0  0  0
   45.0750   38.9890   45.6410 N   0  0  0  0  0  0  0  0  0  0  0  0
   44.8730   40.2960   45.9430 C   0  0  0  0  0  0  0  0  0  0  0  0
   44.7070   40.9870   47.1350 C   0  0  0  0  0  0  0  0  0  0  0  0
   44.7250   40.4820   48.0800 H   0  0  0  0  0  0  0  0  0  0  0  0
   44.5250   42.3200   47.0180 N   0  0  0  0  0  0  0  0  0  0  0  0
   44.5040   42.9470   45.8250 C   0  0  0  0  0  0  0  0  0  0  0  0
   44.3620   44.0070   45.6800 H   0  0  0  0  0  0  0  0  0  0  0  0
   44.6670   42.2650   44.6550 N   0  0  0  0  0  0  0  0  0  0  0  0
   44.8550   40.9140   44.7140 C   0  0  0  0  0  0  0  0  0  0  0  0
  1  6  1  0  0  0  0
  2  1  2  0  0  0  0
  2  3  1  0  0  0  0
  3  4  2  0  0  0  0
  4  5  1  0  0  0  0
  5  8  1  0  0  0  0
  6  5  2  0  0  0  0
  7  2  1  0  0  0  0
  9 14  1  6  0  0  0
  9 19  1  0  0  0  0
  9 10  1  0  0  0  0
 10  3  1  0  0  0  0
 10 15  1  1  0  0  0
 11 10  1  0  0  0  0
 12 13  1  0  0  0  0
 12 16  1  0  0  0  0
 12 11  1  0  0  0  0
 13  9  1  0  0  0  0
 13 18  1  1  0  0  0
 17 12  1  0  0  0  0
 19 20  1  0  0  0  0
 21 22  1  0  0  0  0
 21 13  1  0  0  0  0
 23 28  1  0  0  0  0
 23  1  1  0  0  0  0
 24 23  1  0  0  0  0
 25 23  1  0  0  0  0
 26 28  1  0  0  0  0
 26 32  1  0  0  0  0
 27 26  2  0  0  0  0
 28 29  1  0  0  0  0
 30 31  1  0  0  0  0
 31 32  1  0  0  0  0
 31 41  1  0  0  0  0
 32 33  2  0  0  0  0
 33 34  1  0  0  0  0
 34 35  1  0  0  0  0
 35 36  1  0  0  0  0
 37 35  2  0  0  0  0
 38 37  1  0  0  0  0
 39 38  1  0  0  0  0
 40 41  1  0  0  0  0
 40 38  2  0  0  0  0
 41 34  2  0  0  0  0
M  END
>  <minimizedAffinity>
-3.46267772

>  <minimizedRMSD>
1.80427921

$$$$
