
 OpenBabel03252507073D

 27 29  0  0  0  0  0  0  0  0999 V2000
   44.5880   36.1070   44.4400 C   0  0  0  0  0  0  0  0  0  0  0  0
   45.2440   36.0010   43.1910 C   0  0  0  0  0  0  0  0  0  0  0  0
   46.0710   34.9060   42.9890 C   0  0  0  0  0  0  0  0  0  0  0  0
   46.2190   33.9960   43.9810 N   0  0  0  0  0  0  0  0  0  0  0  0
   45.5850   34.1150   45.1630 C   0  0  0  0  0  0  0  0  0  0  0  0
   44.7690   35.1730   45.3880 N   0  0  0  0  0  0  0  0  0  0  0  0
   43.9330   36.9460   44.6360 H   0  0  0  0  0  0  0  0  0  0  0  0
   45.0400   36.8030   42.4760 H   0  0  0  0  0  0  0  0  0  0  0  0
   45.7760   33.1260   46.1730 N   0  0  0  0  0  0  0  0  0  0  0  0
   45.2410   33.1560   47.4090 C   0  0  0  0  0  0  0  0  0  0  0  0
   44.5890   33.9020   47.8640 H   0  0  0  0  0  0  0  0  0  0  0  0
   45.6580   32.0470   48.0550 N   0  0  0  0  0  0  0  0  0  0  0  0
   46.4510   31.3170   47.2420 C   0  0  0  0  0  0  0  0  0  0  0  0
   47.1050   30.1030   47.4780 C   0  0  0  0  0  0  0  0  0  0  0  0
   46.9860   29.6410   48.4480 H   0  0  0  0  0  0  0  0  0  0  0  0
   47.8200   29.6520   46.4320 N   0  0  0  0  0  0  0  0  0  0  0  0
   47.8840   30.3330   45.2740 C   0  0  0  0  0  0  0  0  0  0  0  0
   48.5080   29.8170   44.5450 H   0  0  0  0  0  0  0  0  0  0  0  0
   47.2500   31.5090   45.0440 N   0  0  0  0  0  0  0  0  0  0  0  0
   46.5200   32.0100   46.0510 C   0  0  0  0  0  0  0  0  0  0  0  0
   46.7040   34.8250   41.7550 O   0  0  0  0  0  0  0  0  0  0  0  0
   48.7080   33.2460   41.0570 O   0  0  0  0  0  0  0  0  0  0  0  0
   48.4070   34.5880   41.7050 P   0  0  0  0  0  0  0  0  0  0  0  0
   49.0890   35.8520   40.8580 O   0  0  0  0  0  0  0  0  0  0  0  0
   49.8940   36.2030   41.3210 H   0  0  0  0  0  0  0  0  0  0  0  0
   48.9530   34.5240   43.3050 O   0  0  0  0  0  0  0  0  0  0  0  0
   48.9980   33.5800   43.6330 H   0  0  0  0  0  0  0  0  0  0  0  0
  1  7  1  0  0  0  0
  1  6  1  0  0  0  0
  2  1  2  0  0  0  0
  3  2  1  0  0  0  0
  3  4  2  0  0  0  0
  4  5  1  0  0  0  0
  5  6  2  0  0  0  0
  5  9  1  0  0  0  0
  8  2  1  0  0  0  0
  9 10  1  0  0  0  0
 10 11  1  0  0  0  0
 10 12  2  0  0  0  0
 13 14  1  0  0  0  0
 13 12  1  0  0  0  0
 14 15  1  0  0  0  0
 16 14  2  0  0  0  0
 17 16  1  0  0  0  0
 18 17  1  0  0  0  0
 19 17  2  0  0  0  0
 19 20  1  0  0  0  0
 20  9  1  0  0  0  0
 20 13  2  0  0  0  0
 21  3  1  0  0  0  0
 22 23  2  0  0  0  0
 23 21  1  0  0  0  0
 23 26  1  0  0  0  0
 24 25  1  0  0  0  0
 24 23  1  0  0  0  0
 26 27  1  0  0  0  0
M  END
>  <minimizedAffinity>
-6.149611

>  <minimizedRMSD>
0.282297462

$$$$
