
 OpenBabel03252505033D

 37 40  0  0  1  0  0  0  0  0999 V2000
   45.1870   34.8740   44.2660 C   0  0  0  0  0  0  0  0  0  0  0  0
   46.0630   34.6480   43.1890 C   0  0  0  0  0  0  0  0  0  0  0  0
   47.1100   33.7190   43.4040 C   0  0  0  0  0  0  0  0  0  0  0  0
   47.2040   33.1130   44.6140 N   0  0  0  0  0  0  0  0  0  0  0  0
   46.3450   33.3620   45.6070 C   0  0  0  0  0  0  0  0  0  0  0  0
   45.3170   34.2540   45.4420 N   0  0  0  0  0  0  0  0  0  0  0  0
   44.3950   35.5930   44.0680 H   0  0  0  0  0  0  0  0  0  0  0  0
   45.9900   35.1250   42.2330 H   0  0  0  0  0  0  0  0  0  0  0  0
   46.5230   32.6600   46.9040 C   0  0  2  0  0  0  0  0  0  0  0  0
   47.0560   31.3050   46.5680 C   0  0  0  0  0  0  0  0  0  0  0  0
   46.1040   30.1860   46.6890 C   0  0  0  0  0  0  0  0  0  0  0  0
   45.5590   30.2440   48.1010 C   0  0  0  0  0  0  0  0  0  0  0  0
   44.7630   31.4560   48.3400 C   0  0  0  0  0  0  0  0  0  0  0  0
   45.3020   32.7010   47.6940 C   0  0  0  0  0  0  0  0  0  0  0  0
   47.3000   33.2590   47.4400 H   0  0  0  0  0  0  0  0  0  0  0  0
   47.5060   31.2580   45.5500 H   0  0  0  0  0  0  0  0  0  0  0  0
   47.9320   31.1120   47.2470 H   0  0  0  0  0  0  0  0  0  0  0  0
   45.3310   30.1980   45.9170 H   0  0  0  0  0  0  0  0  0  0  0  0
   46.6630   29.2360   46.6110 H   0  0  0  0  0  0  0  0  0  0  0  0
   46.3490   30.0330   48.8140 H   0  0  0  0  0  0  0  0  0  0  0  0
   44.8150   29.4130   48.1460 H   0  0  0  0  0  0  0  0  0  0  0  0
   43.8830   31.7060   48.8580 H   0  0  0  0  0  0  0  0  0  0  0  0
   44.6230   33.9410   47.8470 N   0  0  0  0  0  0  0  0  0  0  0  0
   44.9380   34.7100   48.4800 H   0  0  0  0  0  0  0  0  0  0  0  0
   43.7690   34.0020   47.2500 H   0  0  0  0  0  0  0  0  0  0  0  0
   48.0630   33.3960   42.4050 N   0  0  0  0  0  0  0  0  0  0  0  0
   49.4070   33.5070   42.2890 C   0  0  0  0  0  0  0  0  0  0  0  0
   49.9610   33.9360   43.1180 H   0  0  0  0  0  0  0  0  0  0  0  0
   49.8100   33.0340   41.1000 N   0  0  0  0  0  0  0  0  0  0  0  0
   48.7190   32.6070   40.4260 C   0  0  0  0  0  0  0  0  0  0  0  0
   48.6580   32.0530   39.1770 C   0  0  0  0  0  0  0  0  0  0  0  0
   49.4960   31.8780   38.5480 H   0  0  0  0  0  0  0  0  0  0  0  0
   47.4410   31.7010   38.7050 N   0  0  0  0  0  0  0  0  0  0  0  0
   46.3520   31.9130   39.4880 C   0  0  0  0  0  0  0  0  0  0  0  0
   45.3260   31.6740   39.2220 H   0  0  0  0  0  0  0  0  0  0  0  0
   46.4670   32.4630   40.7120 N   0  0  0  0  0  0  0  0  0  0  0  0
   47.6300   32.8380   41.2500 C   0  0  0  0  0  0  0  0  0  0  0  0
  1  6  1  0  0  0  0
  2  3  1  0  0  0  0
  2  1  2  0  0  0  0
  3  4  2  0  0  0  0
  4  5  1  0  0  0  0
  5  9  1  0  0  0  0
  6  5  2  0  0  0  0
  7  1  1  0  0  0  0
  8  2  1  0  0  0  0
  9 15  1  1  0  0  0
  9 14  1  0  0  0  0
 10 11  1  0  0  0  0
 10  9  1  0  0  0  0
 10 17  1  0  0  0  0
 11 12  1  0  0  0  0
 12 21  1  0  0  0  0
 12 13  1  0  0  0  0
 12 20  1  0  0  0  0
 13 22  1  0  0  0  0
 14 23  1  0  0  0  0
 14 13  2  0  0  0  0
 16 10  1  0  0  0  0
 18 11  1  0  0  0  0
 19 11  1  0  0  0  0
 23 24  1  0  0  0  0
 25 23  1  0  0  0  0
 26  3  1  0  0  0  0
 27 26  1  0  0  0  0
 27 28  1  0  0  0  0
 29 27  2  0  0  0  0
 30 29  1  0  0  0  0
 30 37  1  0  0  0  0
 31 30  2  0  0  0  0
 32 31  1  0  0  0  0
 33 31  1  0  0  0  0
 33 34  2  0  0  0  0
 34 36  1  0  0  0  0
 35 34  1  0  0  0  0
 36 37  2  0  0  0  0
 37 26  1  0  0  0  0
M  END
>  <minimizedAffinity>
-6.0270915

>  <minimizedRMSD>
0.336480528

$$$$
