
 OpenBabel03242516413D

 35 37  0  0  0  0  0  0  0  0999 V2000
   49.2550   32.3000   42.4030 O   0  0  0  0  0  0  0  0  0  0  0  0
   49.1980   33.6350   42.7430 C   0  0  0  0  0  0  0  0  0  0  0  0
   49.2870   33.7330   43.8630 H   0  0  0  0  0  0  0  0  0  0  0  0
   50.0950   34.1680   42.3130 H   0  0  0  0  0  0  0  0  0  0  0  0
   47.9250   34.2580   42.2710 C   0  0  0  0  0  0  0  0  0  0  0  0
   47.5270   33.7310   41.3760 H   0  0  0  0  0  0  0  0  0  0  0  0
   48.1350   35.3220   42.0230 H   0  0  0  0  0  0  0  0  0  0  0  0
   44.8790   35.0820   44.3370 C   0  0  0  0  0  0  0  0  0  0  0  0
   45.8300   35.0760   43.2680 C   0  0  0  0  0  0  0  0  0  0  0  0
   46.9470   34.2570   43.3840 C   0  0  0  0  0  0  0  0  0  0  0  0
   47.0800   33.5150   44.4870 N   0  0  0  0  0  0  0  0  0  0  0  0
   46.1730   33.5330   45.4870 C   0  0  0  0  0  0  0  0  0  0  0  0
   45.0790   34.3050   45.4240 N   0  0  0  0  0  0  0  0  0  0  0  0
   43.7400   35.8980   44.2510 N   0  0  0  0  0  0  0  0  0  0  0  0
   45.6130   35.7170   42.4280 H   0  0  0  0  0  0  0  0  0  0  0  0
   46.3460   32.9050   46.3530 H   0  0  0  0  0  0  0  0  0  0  0  0
   43.3110   36.2350   45.1420 H   0  0  0  0  0  0  0  0  0  0  0  0
   43.2680   36.2100   43.3720 H   0  0  0  0  0  0  0  0  0  0  0  0
   51.2670   30.6480   42.1430 O   0  0  0  0  0  0  0  0  0  0  0  0
   50.6800   31.9050   41.5790 P   0  0  2  0  0  0  0  0  0  0  0  0
   51.7180   33.2320   41.7450 O   0  0  0  0  0  0  0  0  0  0  0  0
   51.6230   33.8840   40.9920 H   0  0  0  0  0  0  0  0  0  0  0  0
   50.3590   31.7740   39.9180 O   0  0  0  0  0  0  0  0  0  0  0  0
   47.7290   30.9980   40.6810 H   0  0  0  0  0  0  0  0  0  0  0  0
   47.8300   31.5900   39.8330 N   0  0  0  0  0  0  0  0  0  0  0  0
   49.0640   31.9660   39.4570 C   0  0  0  0  0  0  0  0  0  0  0  0
   48.9790   32.7270   38.3350 N   0  0  0  0  0  0  0  0  0  0  0  0
   47.6760   32.8470   37.9790 C   0  0  0  0  0  0  0  0  0  0  0  0
   46.9060   33.4420   37.0040 C   0  0  0  0  0  0  0  0  0  0  0  0
   47.4550   34.0090   36.2550 H   0  0  0  0  0  0  0  0  0  0  0  0
   45.5760   33.3180   37.0000 N   0  0  0  0  0  0  0  0  0  0  0  0
   44.9100   32.6130   37.9340 C   0  0  0  0  0  0  0  0  0  0  0  0
   43.8340   32.5180   37.9210 H   0  0  0  0  0  0  0  0  0  0  0  0
   45.6470   32.0160   38.9060 N   0  0  0  0  0  0  0  0  0  0  0  0
   46.9890   32.1240   38.9370 C   0  0  0  0  0  0  0  0  0  0  0  0
  1  2  1  0  0  0  0
  2  3  1  0  0  0  0
  4  2  1  0  0  0  0
  5  2  1  0  0  0  0
  5 10  1  0  0  0  0
  6  5  1  0  0  0  0
  7  5  1  0  0  0  0
  8 13  1  0  0  0  0
  9 10  1  0  0  0  0
  9  8  2  0  0  0  0
 10 11  2  0  0  0  0
 11 12  1  0  0  0  0
 12 16  1  0  0  0  0
 13 12  2  0  0  0  0
 14  8  1  0  0  0  0
 14 17  1  0  0  0  0
 15  9  1  0  0  0  0
 18 14  1  0  0  0  0
 20 21  1  0  0  0  0
 20 19  2  1  0  0  0
 20  1  1  0  0  0  0
 22 21  1  0  0  0  0
 23 20  1  0  0  0  0
 25 24  1  0  0  0  0
 26 25  1  0  0  0  0
 26 23  1  0  0  0  0
 27 26  2  0  0  0  0
 28 27  1  0  0  0  0
 28 35  1  0  0  0  0
 29 28  2  0  0  0  0
 30 29  1  0  0  0  0
 31 29  1  0  0  0  0
 31 32  2  0  0  0  0
 32 34  1  0  0  0  0
 33 32  1  0  0  0  0
 34 35  2  0  0  0  0
 35 25  1  0  0  0  0
M  END
>  <minimizedAffinity>
-4.97597694

>  <minimizedRMSD>
1.18715692

$$$$
