
 OpenBabel03252501063D

 43 47  0  0  1  0  0  0  0  0999 V2000
   46.6750   33.9390   37.3280 O   0  0  0  0  0  0  0  0  0  0  0  0
   45.6030   33.0680   37.3630 C   0  0  0  0  0  0  0  0  0  0  0  0
   45.2950   32.0690   36.4540 C   0  0  0  0  0  0  0  0  0  0  0  0
   44.1940   31.2850   36.6250 C   0  0  0  0  0  0  0  0  0  0  0  0
   43.3570   31.4680   37.7100 C   0  0  0  0  0  0  0  0  0  0  0  0
   43.7100   32.4880   38.5990 C   0  0  0  0  0  0  0  0  0  0  0  0
   44.8090   33.2560   38.4120 N   0  0  0  0  0  0  0  0  0  0  0  0
   45.9930   31.9830   35.6310 H   0  0  0  0  0  0  0  0  0  0  0  0
   44.0060   30.5270   35.8860 H   0  0  0  0  0  0  0  0  0  0  0  0
   42.4800   30.8540   37.8580 H   0  0  0  0  0  0  0  0  0  0  0  0
   42.8220   32.6410   39.7010 N   0  0  0  0  0  0  0  0  0  0  0  0
   42.6150   31.8830   40.8170 C   0  0  0  0  0  0  0  0  0  0  0  0
   43.1840   30.9760   40.9890 H   0  0  0  0  0  0  0  0  0  0  0  0
   41.6530   32.4790   41.5460 N   0  0  0  0  0  0  0  0  0  0  0  0
   41.2220   33.6060   40.9390 C   0  0  0  0  0  0  0  0  0  0  0  0
   40.2800   34.5670   41.2420 C   0  0  0  0  0  0  0  0  0  0  0  0
   39.7140   34.4690   42.1550 H   0  0  0  0  0  0  0  0  0  0  0  0
   40.0790   35.5970   40.4110 N   0  0  0  0  0  0  0  0  0  0  0  0
   40.8050   35.6790   39.2860 C   0  0  0  0  0  0  0  0  0  0  0  0
   40.7720   36.4350   38.5150 H   0  0  0  0  0  0  0  0  0  0  0  0
   41.7290   34.7500   38.9760 N   0  0  0  0  0  0  0  0  0  0  0  0
   41.9710   33.6910   39.7780 C   0  0  0  0  0  0  0  0  0  0  0  0
   48.5160   32.3510   38.0780 O   0  0  0  0  0  0  0  0  0  0  0  0
   48.0490   33.7920   38.2830 P   0  0  1  0  0  0  0  0  0  0  0  0
   49.2590   34.7580   37.5910 O   0  0  0  0  0  0  0  0  0  0  0  0
   48.8910   35.6200   37.2550 H   0  0  0  0  0  0  0  0  0  0  0  0
   47.7220   34.1250   39.8500 O   0  0  0  0  0  0  0  0  0  0  0  0
   48.0770   35.4670   41.8350 C   0  0  1  0  0  0  0  0  0  0  0  0
   49.2980   34.6590   41.7190 C   0  0  0  0  0  0  0  0  0  0  0  0
   48.4680   35.0450   40.4830 C   0  0  1  0  0  0  0  0  0  0  0  0
   48.1510   36.5460   42.0410 H   0  0  0  0  0  0  0  0  0  0  0  0
   49.2900   33.5540   41.8790 H   0  0  0  0  0  0  0  0  0  0  0  0
   50.2820   35.0930   41.8800 H   0  0  0  0  0  0  0  0  0  0  0  0
   49.0670   35.7150   39.8350 H   0  0  0  0  0  0  0  0  0  0  0  0
   45.9990   33.0340   43.8630 C   0  0  0  0  0  0  0  0  0  0  0  0
   47.1050   33.6870   43.3260 C   0  0  0  0  0  0  0  0  0  0  0  0
   46.8960   34.7570   42.4330 C   0  0  0  0  0  0  0  0  0  0  0  0
   45.6310   35.1220   42.1200 N   0  0  0  0  0  0  0  0  0  0  0  0
   44.5660   34.4670   42.6570 C   0  0  0  0  0  0  0  0  0  0  0  0
   44.7530   33.4240   43.5290 N   0  0  0  0  0  0  0  0  0  0  0  0
   46.1130   32.2090   44.5520 H   0  0  0  0  0  0  0  0  0  0  0  0
   48.0900   33.3660   43.6020 H   0  0  0  0  0  0  0  0  0  0  0  0
   43.5910   34.8260   42.3490 H   0  0  0  0  0  0  0  0  0  0  0  0
  1  2  1  0  0  0  0
  1 24  1  0  0  0  0
  2  7  1  0  0  0  0
  3  4  1  0  0  0  0
  3  2  2  0  0  0  0
  4  5  2  0  0  0  0
  5 10  1  0  0  0  0
  5  6  1  0  0  0  0
  6 11  1  0  0  0  0
  7  6  2  0  0  0  0
  8  3  1  0  0  0  0
  9  4  1  0  0  0  0
 11 22  1  0  0  0  0
 11 12  1  0  0  0  0
 12 13  1  0  0  0  0
 12 14  2  0  0  0  0
 15 16  1  0  0  0  0
 15 14  1  0  0  0  0
 16 17  1  0  0  0  0
 18 16  2  0  0  0  0
 19 18  1  0  0  0  0
 20 19  1  0  0  0  0
 21 19  2  0  0  0  0
 21 22  1  0  0  0  0
 22 15  2  0  0  0  0
 24 23  2  6  0  0  0
 24 27  1  0  0  0  0
 25 24  1  0  0  0  0
 26 25  1  0  0  0  0
 27 30  1  0  0  0  0
 28 31  1  1  0  0  0
 28 37  1  0  0  0  0
 29 28  1  0  0  0  0
 29 32  1  0  0  0  0
 29 33  1  0  0  0  0
 30 34  1  6  0  0  0
 30 29  1  0  0  0  0
 30 28  1  0  0  0  0
 35 41  1  0  0  0  0
 36 42  1  0  0  0  0
 36 35  2  0  0  0  0
 37 36  1  0  0  0  0
 38 37  2  0  0  0  0
 38 39  1  0  0  0  0
 39 40  2  0  0  0  0
 40 35  1  0  0  0  0
 43 39  1  0  0  0  0
M  END
>  <minimizedAffinity>
-6.12718296

>  <minimizedRMSD>
0.833711088

$$$$
