
     RDKit          3D

 31 34  0  0  0  0  0  0  0  0999 V2000
   44.4756   35.9672   44.7922 C   0  0  0  0  0  0  0  0  0  0  0  0
   45.1673   35.8841   43.5729 C   0  0  0  0  0  0  0  0  0  0  0  0
   46.0692   34.8432   43.3134 C   0  0  0  0  0  0  0  0  0  0  0  0
   46.2141   33.9497   44.3080 N   0  0  0  0  0  0  0  0  0  0  0  0
   45.5516   34.0332   45.4703 C   0  0  0  0  0  0  0  0  0  0  0  0
   44.6826   35.0378   45.7180 N   0  0  0  0  0  0  0  0  0  0  0  0
   44.7430   33.1905   41.2312 Cl  0  0  0  0  0  0  0  0  0  0  0  0
   46.2668   34.0023   41.0529 C   0  0  0  0  0  0  0  0  0  0  0  0
   46.7940   34.7366   42.0635 C   0  0  0  0  0  0  0  0  0  0  0  0
   48.0133   35.3412   41.8145 C   0  0  0  0  0  0  0  0  0  0  0  0
   48.6687   35.2205   40.6270 C   0  0  0  0  0  0  0  0  0  0  0  0
   48.1325   34.4814   39.6174 C   0  0  0  0  0  0  0  0  0  0  0  0
   46.9164   33.8674   39.8397 C   0  0  0  0  0  0  0  0  0  0  0  0
   43.7823   36.7754   44.9804 H   0  0  0  0  0  0  0  0  0  0  0  0
   44.9978   36.6464   42.8130 H   0  0  0  0  0  0  0  0  0  0  0  0
   45.7520   33.2521   46.1971 H   0  0  0  0  0  0  0  0  0  0  0  0
   48.4653   35.9363   42.5996 H   0  0  0  0  0  0  0  0  0  0  0  0
   49.6250   35.7258   40.5052 H   0  0  0  0  0  0  0  0  0  0  0  0
   48.6690   34.3974   38.6801 H   0  0  0  0  0  0  0  0  0  0  0  0
   46.3902   33.1029   38.7563 N   0  0  0  0  0  0  0  0  0  0  0  0
   45.8654   33.7273   37.6823 C   0  0  0  0  0  0  0  0  0  0  0  0
   45.7132   34.7733   37.3751 H   0  0  0  0  0  0  0  0  0  0  0  0
   45.4238   32.8347   36.7719 N   0  0  0  0  0  0  0  0  0  0  0  0
   45.6678   31.6055   37.2668 C   0  0  0  0  0  0  0  0  0  0  0  0
   45.4606   30.3054   36.8356 C   0  0  0  0  0  0  0  0  0  0  0  0
   44.9894   30.2291   35.8685 H   0  0  0  0  0  0  0  0  0  0  0  0
   45.8477   29.2670   37.6249 N   0  0  0  0  0  0  0  0  0  0  0  0
   46.4330   29.5262   38.8271 C   0  0  0  0  0  0  0  0  0  0  0  0
   46.6792   28.6083   39.3280 H   0  0  0  0  0  0  0  0  0  0  0  0
   46.6605   30.7854   39.3001 N   0  0  0  0  0  0  0  0  0  0  0  0
   46.2667   31.7886   38.4966 C   0  0  0  0  0  0  0  0  0  0  0  0
  1  6  2  0
  2  1  1  0
  3  2  2  0
  3  4  1  0
  4  5  2  0
  5  6  1  0
  8  7  1  0
  8  9  2  0
  9  3  1  0
 10  9  1  0
 11 10  2  0
 12 13  2  0
 12 11  1  0
 13  8  1  0
  1 14  1  0
  2 15  1  0
  5 16  1  0
 10 17  1  0
 11 18  1  0
 12 19  1  0
 20 21  1  0
 21 22  1  0
 21 23  2  0
 23 24  1  0
 24 25  2  0
 25 26  1  0
 25 27  1  0
 27 28  2  0
 28 29  1  0
 28 30  1  0
 30 31  2  0
 31 20  1  0
 31 24  1  0
 13 20  1  0
M  ISO  8  14  14  15  14  16  14  17  14  18  14  19  14  22  15  26  16
M  ISO  1  29  16
M  END
>  <DihAtoms>  (1) 
11,12,19,20

>  <DihDeg>  (1) 
135.82761158071426

$$$$
