
 OpenBabel03242523543D

 48 52  0  0  1  0  0  0  0  0999 V2000
   42.7760   34.4270   38.8100 C   0  0  1  0  0  0  0  0  0  0  0  0
   42.9530   35.1820   40.1180 C   0  0  1  0  0  0  0  0  0  0  0  0
   41.6690   35.4960   40.6200 O   0  0  0  0  0  0  0  0  0  0  0  0
   40.7540   35.7990   39.6060 C   0  0  0  0  0  0  0  0  0  0  0  0
   40.4000   34.5750   38.7810 C   0  0  2  0  0  0  0  0  0  0  0  0
   41.5740   33.5580   38.9890 C   0  0  1  0  0  0  0  0  0  0  0  0
   43.6960   33.8140   38.6390 H   0  0  0  0  0  0  0  0  0  0  0  0
   43.5620   36.0950   40.0050 H   0  0  0  0  0  0  0  0  0  0  0  0
   39.8440   36.1200   40.1200 H   0  0  0  0  0  0  0  0  0  0  0  0
   41.1030   36.6370   38.9720 H   0  0  0  0  0  0  0  0  0  0  0  0
   39.4580   34.0940   39.0860 H   0  0  0  0  0  0  0  0  0  0  0  0
   41.3570   33.3820   40.0940 H   0  0  0  0  0  0  0  0  0  0  0  0
   42.5960   35.3190   37.7400 O   0  0  0  0  0  0  0  0  0  0  0  0
   42.7630   34.8060   36.9010 H   0  0  0  0  0  0  0  0  0  0  0  0
   40.4310   34.8960   37.4340 O   0  0  0  0  0  0  0  0  0  0  0  0
   39.9060   34.2230   36.9590 H   0  0  0  0  0  0  0  0  0  0  0  0
   43.4490   34.2440   41.0260 O   0  0  0  0  0  0  0  0  0  0  0  0
   44.5740   34.3810   41.7390 C   0  0  0  0  0  0  0  0  0  0  0  0
   45.8210   34.4790   41.1050 C   0  0  0  0  0  0  0  0  0  0  0  0
   46.9520   34.6210   41.8910 C   0  0  0  0  0  0  0  0  0  0  0  0
   46.8190   34.6620   43.2690 N   0  0  0  0  0  0  0  0  0  0  0  0
   45.5990   34.5660   43.8430 C   0  0  0  0  0  0  0  0  0  0  0  0
   44.4830   34.4260   43.0830 N   0  0  0  0  0  0  0  0  0  0  0  0
   45.9120   34.4440   40.0270 H   0  0  0  0  0  0  0  0  0  0  0  0
   45.5640   34.6050   44.9280 H   0  0  0  0  0  0  0  0  0  0  0  0
   48.3210   34.7190   41.2790 C   0  0  0  0  0  0  0  0  0  0  0  0
   49.1120   35.9860   41.5920 C   0  0  0  0  0  0  0  0  0  0  0  0
   49.4910   34.5820   42.0920 C   0  0  0  0  0  0  0  0  0  0  0  0
   48.2900   34.5410   40.1750 H   0  0  0  0  0  0  0  0  0  0  0  0
   48.7090   36.6300   42.4230 H   0  0  0  0  0  0  0  0  0  0  0  0
   49.7340   36.4440   40.8270 H   0  0  0  0  0  0  0  0  0  0  0  0
   50.4410   34.2070   41.6520 H   0  0  0  0  0  0  0  0  0  0  0  0
   49.3990   34.3490   43.1560 H   0  0  0  0  0  0  0  0  0  0  0  0
   41.3970   32.5550   38.1150 O   0  0  0  0  0  0  0  0  0  0  0  0
   40.6540   31.4480   38.1670 C   0  0  0  0  0  0  0  0  0  0  0  0
   39.7650   31.1530   37.2240 O   0  0  0  0  0  0  0  0  0  0  0  0
   41.6110   28.6620   38.1880 H   0  0  0  0  0  0  0  0  0  0  0  0
   41.1040   29.1270   38.9490 N   0  0  0  0  0  0  0  0  0  0  0  0
   40.5860   30.3120   39.1700 C   0  0  0  0  0  0  0  0  0  0  0  0
   40.0340   30.2710   40.4240 N   0  0  0  0  0  0  0  0  0  0  0  0
   40.2120   29.0700   40.9690 C   0  0  0  0  0  0  0  0  0  0  0  0
   39.8070   28.6330   42.2110 C   0  0  0  0  0  0  0  0  0  0  0  0
   39.2750   29.2350   42.9170 H   0  0  0  0  0  0  0  0  0  0  0  0
   40.1290   27.3420   42.5040 N   0  0  0  0  0  0  0  0  0  0  0  0
   40.8000   26.5790   41.6160 C   0  0  0  0  0  0  0  0  0  0  0  0
   41.0830   25.5500   41.7930 H   0  0  0  0  0  0  0  0  0  0  0  0
   41.1570   27.0860   40.4260 N   0  0  0  0  0  0  0  0  0  0  0  0
   40.8940   28.3280   40.0380 C   0  0  0  0  0  0  0  0  0  0  0  0
  1  7  1  6  0  0  0
  1  6  1  0  0  0  0
  1  2  1  0  0  0  0
  2  8  1  6  0  0  0
  2  3  1  0  0  0  0
  2 17  1  0  0  0  0
  4  9  1  0  0  0  0
  4  3  1  0  0  0  0
  5  6  1  0  0  0  0
  5 11  1  1  0  0  0
  5  4  1  0  0  0  0
  6 12  1  1  0  0  0
 10  4  1  0  0  0  0
 13  1  1  0  0  0  0
 14 13  1  0  0  0  0
 15  5  1  0  0  0  0
 16 15  1  0  0  0  0
 17 18  1  0  0  0  0
 18 23  1  0  0  0  0
 19 18  2  0  0  0  0
 19 20  1  0  0  0  0
 20 21  2  0  0  0  0
 21 22  1  0  0  0  0
 22 25  1  0  0  0  0
 23 22  2  0  0  0  0
 24 19  1  0  0  0  0
 26 27  1  0  0  0  0
 26 20  1  0  0  0  0
 26 28  1  0  0  0  0
 27 28  1  0  0  0  0
 27 30  1  0  0  0  0
 28 33  1  0  0  0  0
 29 26  1  0  0  0  0
 31 27  1  0  0  0  0
 32 28  1  0  0  0  0
 34 35  1  0  0  0  0
 34  6  1  0  0  0  0
 35 39  1  0  0  0  0
 36 35  2  0  0  0  0
 37 38  1  0  0  0  0
 38 39  1  0  0  0  0
 38 48  1  0  0  0  0
 39 40  2  0  0  0  0
 40 41  1  0  0  0  0
 41 42  1  0  0  0  0
 42 44  2  0  0  0  0
 42 43  1  0  0  0  0
 45 46  1  0  0  0  0
 45 44  1  0  0  0  0
 47 45  2  0  0  0  0
 48 47  1  0  0  0  0
 48 41  2  0  0  0  0
M  END
>  <minimizedAffinity>
-6.06467485

>  <minimizedRMSD>
1.53523469

$$$$
