
 OpenBabel03252507313D

 52 56  0  0  1  0  0  0  0  0999 V2000
   46.9480   32.7860   45.4680 C   0  0  0  0  0  0  0  0  0  0  0  0
   45.8520   33.4630   45.9780 C   0  0  0  0  0  0  0  0  0  0  0  0
   45.1740   34.4070   45.1720 C   0  0  0  0  0  0  0  0  0  0  0  0
   45.6750   34.5940   43.8860 N   0  0  0  0  0  0  0  0  0  0  0  0
   46.7380   33.9090   43.4560 C   0  0  0  0  0  0  0  0  0  0  0  0
   47.3650   33.0210   44.2290 N   0  0  0  0  0  0  0  0  0  0  0  0
   45.3340   33.5060   46.9130 H   0  0  0  0  0  0  0  0  0  0  0  0
   44.3300   35.0070   45.3890 H   0  0  0  0  0  0  0  0  0  0  0  0
   47.2280   34.1670   42.0980 C   0  0  0  0  0  0  0  0  0  0  0  0
   48.1600   35.1500   41.8550 C   0  0  0  0  0  0  0  0  0  0  0  0
   48.6810   35.4660   40.6180 C   0  0  0  0  0  0  0  0  0  0  0  0
   48.1890   34.7030   39.5900 C   0  0  0  0  0  0  0  0  0  0  0  0
   47.2430   33.6990   39.8060 C   0  0  0  0  0  0  0  0  0  0  0  0
   46.7710   33.4410   41.0650 N   0  0  0  0  0  0  0  0  0  0  0  0
   48.5030   35.7150   42.7280 H   0  0  0  0  0  0  0  0  0  0  0  0
   49.4080   36.2360   40.4460 H   0  0  0  0  0  0  0  0  0  0  0  0
   48.5120   34.8440   38.5680 H   0  0  0  0  0  0  0  0  0  0  0  0
   46.7680   32.9370   38.6990 N   0  0  0  0  0  0  0  0  0  0  0  0
   45.8240   33.1780   37.7460 C   0  0  0  0  0  0  0  0  0  0  0  0
   45.2650   34.1040   37.7390 H   0  0  0  0  0  0  0  0  0  0  0  0
   45.7600   32.1130   36.9160 N   0  0  0  0  0  0  0  0  0  0  0  0
   46.6560   31.1850   37.3220 C   0  0  0  0  0  0  0  0  0  0  0  0
   46.9830   29.9320   36.8230 C   0  0  0  0  0  0  0  0  0  0  0  0
   46.4790   29.5370   35.9420 H   0  0  0  0  0  0  0  0  0  0  0  0
   47.9290   29.1850   37.4180 N   0  0  0  0  0  0  0  0  0  0  0  0
   48.5310   29.7250   38.5170 C   0  0  0  0  0  0  0  0  0  0  0  0
   49.3180   29.2050   39.0850 H   0  0  0  0  0  0  0  0  0  0  0  0
   48.2450   30.9350   39.0360 N   0  0  0  0  0  0  0  0  0  0  0  0
   47.2970   31.7030   38.4530 C   0  0  0  0  0  0  0  0  0  0  0  0
   47.5930   31.8110   46.3260 C   0  0  2  0  0  0  0  0  0  0  0  0
   47.3490   30.3590   45.8280 C   0  0  0  0  0  0  0  0  0  0  0  0
   48.1610   29.4100   46.6430 C   0  0  0  0  0  0  0  0  0  0  0  0
   48.1460   29.6400   48.1160 C   0  0  0  0  0  0  0  0  0  0  0  0
   48.1490   31.0310   48.5040 C   0  0  0  0  0  0  0  0  0  0  0  0
   47.1520   31.8990   47.7040 C   0  0  2  0  0  0  0  0  0  0  0  0
   48.6910   31.9200   46.2080 H   0  0  0  0  0  0  0  0  0  0  0  0
   46.2970   30.0850   45.8520 H   0  0  0  0  0  0  0  0  0  0  0  0
   47.6790   30.3230   44.7710 H   0  0  0  0  0  0  0  0  0  0  0  0
   49.1540   29.3610   46.1570 H   0  0  0  0  0  0  0  0  0  0  0  0
   47.7310   28.3790   46.4780 H   0  0  0  0  0  0  0  0  0  0  0  0
   47.7710   28.8460   48.7600 H   0  0  0  0  0  0  0  0  0  0  0  0
   49.2590   29.3850   48.3470 H   0  0  0  0  0  0  0  0  0  0  0  0
   49.1050   31.6040   48.4390 H   0  0  0  0  0  0  0  0  0  0  0  0
   47.8370   31.1650   49.5760 H   0  0  0  0  0  0  0  0  0  0  0  0
   47.2720   32.8620   48.2000 H   0  0  0  0  0  0  0  0  0  0  0  0
   45.8140   31.3190   47.8380 N   0  0  0  0  0  0  0  0  0  0  0  0
   45.1530   30.7390   48.9350 C   0  0  0  0  0  0  0  0  0  0  0  0
   44.6410   31.4310   49.8880 O   0  0  0  0  0  0  0  0  0  0  0  0
   45.0870   29.3130   48.9050 N   0  0  0  0  0  0  0  0  0  0  0  0
   45.1480   31.2100   46.9840 H   0  0  0  0  0  0  0  0  0  0  0  0
   44.7520   28.6820   48.1550 H   0  0  0  0  0  0  0  0  0  0  0  0
   45.4100   28.7500   49.7290 H   0  0  0  0  0  0  0  0  0  0  0  0
  1  2  1  0  0  0  0
  1 30  1  0  0  0  0
  2  7  1  0  0  0  0
  3  8  1  0  0  0  0
  3  2  2  0  0  0  0
  4  3  1  0  0  0  0
  5  4  2  0  0  0  0
  5  6  1  0  0  0  0
  6  1  2  0  0  0  0
  9  5  1  0  0  0  0
 10  9  1  0  0  0  0
 10 15  1  0  0  0  0
 11 10  2  0  0  0  0
 12 13  2  0  0  0  0
 12 11  1  0  0  0  0
 13 14  1  0  0  0  0
 14  9  2  0  0  0  0
 16 11  1  0  0  0  0
 17 12  1  0  0  0  0
 18 13  1  0  0  0  0
 19 18  1  0  0  0  0
 20 19  1  0  0  0  0
 21 22  1  0  0  0  0
 21 19  2  0  0  0  0
 22 29  1  0  0  0  0
 23 22  2  0  0  0  0
 23 25  1  0  0  0  0
 24 23  1  0  0  0  0
 25 26  2  0  0  0  0
 26 28  1  0  0  0  0
 26 27  1  0  0  0  0
 29 18  1  0  0  0  0
 29 28  2  0  0  0  0
 30 36  1  6  0  0  0
 30 35  1  0  0  0  0
 31 37  1  0  0  0  0
 31 30  1  0  0  0  0
 31 32  1  0  0  0  0
 32 33  1  0  0  0  0
 33 42  1  0  0  0  0
 33 34  1  0  0  0  0
 33 41  1  0  0  0  0
 34 44  1  0  0  0  0
 35 46  1  0  0  0  0
 35 45  1  1  0  0  0
 35 34  1  0  0  0  0
 38 31  1  0  0  0  0
 39 32  1  0  0  0  0
 40 32  1  0  0  0  0
 43 34  1  0  0  0  0
 46 47  1  0  0  0  0
 47 48  2  0  0  0  0
 49 47  1  0  0  0  0
 49 52  1  0  0  0  0
 50 46  1  0  0  0  0
 51 49  1  0  0  0  0
M  END
>  <minimizedAffinity>
-6.70718145

>  <minimizedRMSD>
0.186314702

$$$$
