REMARK  Name = 
REMARK  3 active torsions:
REMARK  status: ('A' for Active; 'I' for Inactive)
REMARK    1  A    between atoms: C_1  and  C_11
REMARK    2  A    between atoms: C_6  and  N_13
REMARK    3  A    between atoms: C_9  and  N_26
REMARK                            x       y       z     vdW  Elec       q    Type
REMARK                         _______ _______ _______ _____ _____    ______ ____
ROOT
ATOM      1  C   UNL     1      45.009  35.038  44.270  0.00  0.00    +0.000 A 
ATOM      2  C   UNL     1      45.852  34.879  43.155  0.00  0.00    +0.000 A 
ATOM      3  C   UNL     1      46.928  33.970  43.295  0.00  0.00    +0.000 A 
ATOM      4  N   UNL     1      47.080  33.318  44.475  0.00  0.00    +0.000 NA
ATOM      5  C   UNL     1      46.251  33.504  45.507  0.00  0.00    +0.000 A 
ATOM      6  N   UNL     1      45.196  34.375  45.414  0.00  0.00    +0.000 NA
ATOM      7  H   UNL     1      44.193  35.744  44.130  0.00  0.00    +0.000 HD
ATOM      8  H   UNL     1      45.733  35.393  42.223  0.00  0.00    +0.000 HD
ENDROOT
BRANCH   5   9
ATOM      9  C   UNL     1      46.493  32.755  46.766  0.00  0.00    +0.000 C 
ATOM     10  C   UNL     1      47.021  31.419  46.355  0.00  0.00    +0.000 C 
ATOM     11  C   UNL     1      46.084  30.287  46.475  0.00  0.00    +0.000 C 
ATOM     12  C   UNL     1      45.602  30.286  47.911  0.00  0.00    +0.000 C 
ATOM     13  C   UNL     1      44.808  31.480  48.232  0.00  0.00    +0.000 C 
ATOM     14  C   UNL     1      45.308  32.754  47.611  0.00  0.00    +0.000 C 
ATOM     15  H   UNL     1      47.288  33.341  47.290  0.00  0.00    +0.000 HD
ATOM     16  H   UNL     1      47.425  31.415  45.317  0.00  0.00    +0.000 HD
ATOM     17  H   UNL     1      47.928  31.209  46.987  0.00  0.00    +0.000 HD
ATOM     18  H   UNL     1      45.277  30.321  45.739  0.00  0.00    +0.000 HD
ATOM     19  H   UNL     1      46.646  29.346  46.336  0.00  0.00    +0.000 HD
ATOM     20  H   UNL     1      46.425  30.056  48.580  0.00  0.00    +0.000 HD
ATOM     21  H   UNL     1      44.868  29.447  47.957  0.00  0.00    +0.000 HD
ATOM     22  H   UNL     1      43.950  31.702  48.798  0.00  0.00    +0.000 HD
BRANCH  14  23
ATOM     23  N   UNL     1      44.627  33.981  47.841  0.00  0.00    +0.000 N 
ATOM     24  H   UNL     1      44.963  34.728  48.489  0.00  0.00    +0.000 HD
ATOM     25  H   UNL     1      43.746  34.056  47.286  0.00  0.00    +0.000 HD
ENDBRANCH  14  23
ENDBRANCH   5   9
BRANCH   3  26
ATOM     26  N   UNL     1      47.853  33.713  42.251  0.00  0.00    +0.000 N 
ATOM     27  C   UNL     1      49.004  34.285  41.826  0.00  0.00    +0.000 A 
ATOM     28  H   UNL     1      49.373  35.154  42.360  0.00  0.00    +0.000 HD
ATOM     29  N   UNL     1      49.485  33.622  40.764  0.00  0.00    +0.000 NA
ATOM     30  C   UNL     1      48.643  32.602  40.488  0.00  0.00    +0.000 A 
ATOM     31  C   UNL     1      48.739  31.669  39.492  0.00  0.00    +0.000 A 
ATOM     32  H   UNL     1      49.523  31.623  38.777  0.00  0.00    +0.000 HD
ATOM     33  N   UNL     1      47.767  30.734  39.411  0.00  0.00    +0.000 NA
ATOM     34  C   UNL     1      46.752  30.769  40.314  0.00  0.00    +0.000 A 
ATOM     35  H   UNL     1      45.916  30.075  40.352  0.00  0.00    +0.000 HD
ATOM     36  N   UNL     1      46.705  31.710  41.275  0.00  0.00    +0.000 NA
ATOM     37  C   UNL     1      47.624  32.666  41.424  0.00  0.00    +0.000 A 
ENDBRANCH   3  26
TORSDOF 3
