
 OpenBabel03242516413D

 35 37  0  0  0  0  0  0  0  0999 V2000
   49.0900   32.7600   41.6860 O   0  0  0  0  0  0  0  0  0  0  0  0
   49.1680   34.0690   42.1120 C   0  0  0  0  0  0  0  0  0  0  0  0
   49.3970   34.0830   43.2160 H   0  0  0  0  0  0  0  0  0  0  0  0
   50.0410   34.5740   41.6070 H   0  0  0  0  0  0  0  0  0  0  0  0
   47.8930   34.8010   41.8420 C   0  0  0  0  0  0  0  0  0  0  0  0
   47.4380   34.4740   40.8810 H   0  0  0  0  0  0  0  0  0  0  0  0
   48.1240   35.8890   41.8030 H   0  0  0  0  0  0  0  0  0  0  0  0
   44.8860   35.1300   44.0940 C   0  0  0  0  0  0  0  0  0  0  0  0
   45.7860   35.3220   42.9990 C   0  0  0  0  0  0  0  0  0  0  0  0
   46.9690   34.5940   42.9810 C   0  0  0  0  0  0  0  0  0  0  0  0
   47.2100   33.7490   43.9870 N   0  0  0  0  0  0  0  0  0  0  0  0
   46.3500   33.5800   45.0150 C   0  0  0  0  0  0  0  0  0  0  0  0
   45.1960   34.2580   45.0780 N   0  0  0  0  0  0  0  0  0  0  0  0
   43.6820   35.8510   44.1410 N   0  0  0  0  0  0  0  0  0  0  0  0
   45.4810   36.0320   42.2450 H   0  0  0  0  0  0  0  0  0  0  0  0
   46.6110   32.8770   45.7970 H   0  0  0  0  0  0  0  0  0  0  0  0
   43.2670   36.0500   45.0790 H   0  0  0  0  0  0  0  0  0  0  0  0
   43.1480   36.2160   43.3200 H   0  0  0  0  0  0  0  0  0  0  0  0
   50.7740   30.8800   42.3780 O   0  0  0  0  0  0  0  0  0  0  0  0
   50.6170   32.0620   41.4690 P   0  0  2  0  0  0  0  0  0  0  0  0
   51.7530   33.2750   41.7880 O   0  0  0  0  0  0  0  0  0  0  0  0
   52.0140   33.7760   40.9620 H   0  0  0  0  0  0  0  0  0  0  0  0
   50.8280   31.6470   39.8380 O   0  0  0  0  0  0  0  0  0  0  0  0
   49.2540   33.8620   38.9870 H   0  0  0  0  0  0  0  0  0  0  0  0
   49.0650   32.9400   38.5480 N   0  0  0  0  0  0  0  0  0  0  0  0
   49.7980   31.8830   38.9370 C   0  0  0  0  0  0  0  0  0  0  0  0
   49.3980   30.7810   38.2490 N   0  0  0  0  0  0  0  0  0  0  0  0
   48.3950   31.1270   37.4040 C   0  0  0  0  0  0  0  0  0  0  0  0
   47.5690   30.5500   36.4640 C   0  0  0  0  0  0  0  0  0  0  0  0
   47.7180   29.4840   36.3020 H   0  0  0  0  0  0  0  0  0  0  0  0
   46.6560   31.2720   35.8100 N   0  0  0  0  0  0  0  0  0  0  0  0
   46.4830   32.5890   36.0200 C   0  0  0  0  0  0  0  0  0  0  0  0
   45.7420   33.1630   35.4850 H   0  0  0  0  0  0  0  0  0  0  0  0
   47.2850   33.1820   36.9420 N   0  0  0  0  0  0  0  0  0  0  0  0
   48.2150   32.4820   37.6180 C   0  0  0  0  0  0  0  0  0  0  0  0
  1  2  1  0  0  0  0
  2  3  1  0  0  0  0
  4  2  1  0  0  0  0
  5  2  1  0  0  0  0
  5 10  1  0  0  0  0
  6  5  1  0  0  0  0
  7  5  1  0  0  0  0
  8 14  1  0  0  0  0
  8 13  1  0  0  0  0
  9  8  2  0  0  0  0
 10  9  1  0  0  0  0
 10 11  2  0  0  0  0
 11 12  1  0  0  0  0
 12 13  2  0  0  0  0
 12 16  1  0  0  0  0
 14 17  1  0  0  0  0
 15  9  1  0  0  0  0
 18 14  1  0  0  0  0
 20  1  1  0  0  0  0
 20 21  1  0  0  0  0
 20 19  2  1  0  0  0
 22 21  1  0  0  0  0
 23 20  1  0  0  0  0
 25 26  1  0  0  0  0
 25 24  1  0  0  0  0
 26 23  1  0  0  0  0
 27 26  2  0  0  0  0
 28 35  1  0  0  0  0
 28 27  1  0  0  0  0
 29 28  2  0  0  0  0
 30 29  1  0  0  0  0
 31 32  2  0  0  0  0
 31 29  1  0  0  0  0
 32 34  1  0  0  0  0
 33 32  1  0  0  0  0
 34 35  2  0  0  0  0
 35 25  1  0  0  0  0
M  END
>  <minimizedAffinity>
-5.1075964

>  <minimizedRMSD>
1.43636131

$$$$
