
 OpenBabel03252503463D

 47 51  0  0  1  0  0  0  0  0999 V2000
   45.6990   35.4800   42.7360 C   0  0  0  0  0  0  0  0  0  0  0  0
   46.7060   35.4380   42.2660 H   0  0  0  0  0  0  0  0  0  0  0  0
   45.5550   36.5520   42.9960 H   0  0  0  0  0  0  0  0  0  0  0  0
   44.6850   35.0160   41.7790 C   0  0  0  0  0  0  0  0  0  0  0  0
   43.3290   35.2170   41.9000 C   0  0  0  0  0  0  0  0  0  0  0  0
   42.4210   34.7540   40.9800 C   0  0  0  0  0  0  0  0  0  0  0  0
   42.8870   34.0610   39.8940 C   0  0  0  0  0  0  0  0  0  0  0  0
   44.2560   33.8440   39.7470 C   0  0  0  0  0  0  0  0  0  0  0  0
   45.1660   34.3210   40.6900 C   0  0  0  0  0  0  0  0  0  0  0  0
   43.0520   35.7750   42.7900 H   0  0  0  0  0  0  0  0  0  0  0  0
   41.3710   34.9540   41.1450 H   0  0  0  0  0  0  0  0  0  0  0  0
   42.1260   33.7240   39.2070 H   0  0  0  0  0  0  0  0  0  0  0  0
   44.4500   33.2800   38.8330 H   0  0  0  0  0  0  0  0  0  0  0  0
   46.4740   33.9650   40.2650 N   0  0  0  0  0  0  0  0  0  0  0  0
   47.6490   34.0080   40.9600 C   0  0  0  0  0  0  0  0  0  0  0  0
   47.7690   34.3320   41.9760 H   0  0  0  0  0  0  0  0  0  0  0  0
   48.6800   33.5990   40.2350 N   0  0  0  0  0  0  0  0  0  0  0  0
   48.1830   33.2760   39.0270 C   0  0  0  0  0  0  0  0  0  0  0  0
   48.7060   32.7950   37.8440 C   0  0  0  0  0  0  0  0  0  0  0  0
   49.7720   32.6030   37.7840 H   0  0  0  0  0  0  0  0  0  0  0  0
   47.9420   32.5590   36.7630 N   0  0  0  0  0  0  0  0  0  0  0  0
   46.6120   32.7820   36.7900 C   0  0  0  0  0  0  0  0  0  0  0  0
   46.0910   32.5620   35.8800 H   0  0  0  0  0  0  0  0  0  0  0  0
   46.0630   33.2570   37.9450 N   0  0  0  0  0  0  0  0  0  0  0  0
   46.8010   33.4970   39.0230 C   0  0  0  0  0  0  0  0  0  0  0  0
   44.9790   34.9510   45.0420 C   0  0  0  0  0  0  0  0  0  0  0  0
   45.7160   34.6270   43.9080 C   0  0  0  0  0  0  0  0  0  0  0  0
   46.4630   33.4510   43.9570 C   0  0  0  0  0  0  0  0  0  0  0  0
   46.4690   32.6610   45.0550 N   0  0  0  0  0  0  0  0  0  0  0  0
   45.7350   33.0130   46.1410 C   0  0  0  0  0  0  0  0  0  0  0  0
   44.9900   34.1540   46.1430 N   0  0  0  0  0  0  0  0  0  0  0  0
   44.4070   35.8650   44.9900 H   0  0  0  0  0  0  0  0  0  0  0  0
   47.0810   33.0940   43.1770 H   0  0  0  0  0  0  0  0  0  0  0  0
   47.2260   31.7790   47.7010 C   0  0  2  0  0  0  0  0  0  0  0  0
   45.7630   32.1310   47.3050 C   0  0  1  0  0  0  0  0  0  0  0  0
   45.3570   32.6800   48.4730 O   0  0  0  0  0  0  0  0  0  0  0  0
   45.7630   31.8580   49.4850 C   0  0  0  0  0  0  0  0  0  0  0  0
   46.8850   30.9860   48.9690 C   0  0  2  0  0  0  0  0  0  0  0  0
   47.6980   31.1510   46.9260 H   0  0  0  0  0  0  0  0  0  0  0  0
   45.2450   31.1570   47.1400 H   0  0  0  0  0  0  0  0  0  0  0  0
   44.9110   31.2690   49.8800 H   0  0  0  0  0  0  0  0  0  0  0  0
   46.1160   32.4830   50.3320 H   0  0  0  0  0  0  0  0  0  0  0  0
   46.4770   30.0030   48.7310 H   0  0  0  0  0  0  0  0  0  0  0  0
   47.8920   32.8860   48.0680 O   0  0  0  0  0  0  0  0  0  0  0  0
   48.7000   33.1010   47.5540 H   0  0  0  0  0  0  0  0  0  0  0  0
   47.9450   30.8770   49.8280 O   0  0  0  0  0  0  0  0  0  0  0  0
   47.5940   30.7240   50.7500 H   0  0  0  0  0  0  0  0  0  0  0  0
  1  3  1  0  0  0  0
  1 27  1  0  0  0  0
  2  1  1  0  0  0  0
  4  5  1  0  0  0  0
  4  1  1  0  0  0  0
  5 10  1  0  0  0  0
  6 11  1  0  0  0  0
  6  5  2  0  0  0  0
  7  6  1  0  0  0  0
  8  7  2  0  0  0  0
  8  9  1  0  0  0  0
  9  4  2  0  0  0  0
 12  7  1  0  0  0  0
 13  8  1  0  0  0  0
 14  9  1  0  0  0  0
 14 15  1  0  0  0  0
 15 16  1  0  0  0  0
 17 15  2  0  0  0  0
 18 17  1  0  0  0  0
 19 18  2  0  0  0  0
 20 19  1  0  0  0  0
 21 22  2  0  0  0  0
 21 19  1  0  0  0  0
 22 24  1  0  0  0  0
 23 22  1  0  0  0  0
 24 25  2  0  0  0  0
 25 18  1  0  0  0  0
 25 14  1  0  0  0  0
 26 31  1  0  0  0  0
 27 28  1  0  0  0  0
 27 26  2  0  0  0  0
 28 29  2  0  0  0  0
 29 30  1  0  0  0  0
 30 31  2  0  0  0  0
 30 35  1  0  0  0  0
 32 26  1  0  0  0  0
 33 28  1  0  0  0  0
 34 39  1  6  0  0  0
 34 44  1  0  0  0  0
 34 38  1  0  0  0  0
 35 40  1  6  0  0  0
 35 34  1  0  0  0  0
 35 36  1  0  0  0  0
 36 37  1  0  0  0  0
 37 41  1  0  0  0  0
 37 42  1  0  0  0  0
 38 43  1  6  0  0  0
 38 37  1  0  0  0  0
 38 46  1  0  0  0  0
 45 44  1  0  0  0  0
 46 47  1  0  0  0  0
M  END
>  <minimizedAffinity>
-7.25337696

>  <minimizedRMSD>
0.770589471

$$$$
