
 OpenBabel03252503463D

 47 51  0  0  1  0  0  0  0  0999 V2000
   45.6680   35.7920   43.0260 C   0  0  0  0  0  0  0  0  0  0  0  0
   46.7160   35.8850   42.6670 H   0  0  0  0  0  0  0  0  0  0  0  0
   45.3780   36.8260   43.3160 H   0  0  0  0  0  0  0  0  0  0  0  0
   44.8180   35.2750   41.9450 C   0  0  0  0  0  0  0  0  0  0  0  0
   43.5660   35.7490   41.6240 C   0  0  0  0  0  0  0  0  0  0  0  0
   42.8070   35.2250   40.6080 C   0  0  0  0  0  0  0  0  0  0  0  0
   43.3200   34.1830   39.8810 C   0  0  0  0  0  0  0  0  0  0  0  0
   44.5860   33.6830   40.1840 C   0  0  0  0  0  0  0  0  0  0  0  0
   45.3440   34.2280   41.2200 C   0  0  0  0  0  0  0  0  0  0  0  0
   43.2410   36.5740   42.2530 H   0  0  0  0  0  0  0  0  0  0  0  0
   41.8330   35.6530   40.4170 H   0  0  0  0  0  0  0  0  0  0  0  0
   42.6770   33.8140   39.0960 H   0  0  0  0  0  0  0  0  0  0  0  0
   44.8360   32.8610   39.5120 H   0  0  0  0  0  0  0  0  0  0  0  0
   46.5820   33.5320   41.2770 N   0  0  0  0  0  0  0  0  0  0  0  0
   46.8330   32.2020   41.0850 C   0  0  0  0  0  0  0  0  0  0  0  0
   46.1020   31.4500   40.8540 H   0  0  0  0  0  0  0  0  0  0  0  0
   48.1170   31.9060   41.2190 N   0  0  0  0  0  0  0  0  0  0  0  0
   48.7380   33.0630   41.5070 C   0  0  0  0  0  0  0  0  0  0  0  0
   50.0420   33.4450   41.7590 C   0  0  0  0  0  0  0  0  0  0  0  0
   50.8190   32.6900   41.7420 H   0  0  0  0  0  0  0  0  0  0  0  0
   50.3790   34.7200   42.0260 N   0  0  0  0  0  0  0  0  0  0  0  0
   49.4460   35.6920   42.0580 C   0  0  0  0  0  0  0  0  0  0  0  0
   49.8140   36.6750   42.2800 H   0  0  0  0  0  0  0  0  0  0  0  0
   48.1490   35.3490   41.8130 N   0  0  0  0  0  0  0  0  0  0  0  0
   47.7970   34.0970   41.5480 C   0  0  0  0  0  0  0  0  0  0  0  0
   44.7800   35.0630   45.2160 C   0  0  0  0  0  0  0  0  0  0  0  0
   45.6600   34.8810   44.1540 C   0  0  0  0  0  0  0  0  0  0  0  0
   46.5240   33.7900   44.2320 C   0  0  0  0  0  0  0  0  0  0  0  0
   46.5050   32.9460   45.2880 N   0  0  0  0  0  0  0  0  0  0  0  0
   45.6300   33.1570   46.3030 C   0  0  0  0  0  0  0  0  0  0  0  0
   44.7670   34.2110   46.2750 N   0  0  0  0  0  0  0  0  0  0  0  0
   44.1180   35.9120   45.1430 H   0  0  0  0  0  0  0  0  0  0  0  0
   47.2540   33.5440   43.5080 H   0  0  0  0  0  0  0  0  0  0  0  0
   47.0840   31.7410   47.7400 C   0  0  2  0  0  0  0  0  0  0  0  0
   45.6370   32.2200   47.4240 C   0  0  1  0  0  0  0  0  0  0  0  0
   45.3200   32.7390   48.6320 O   0  0  0  0  0  0  0  0  0  0  0  0
   45.7020   31.8410   49.5870 C   0  0  0  0  0  0  0  0  0  0  0  0
   46.7340   30.9160   48.9840 C   0  0  2  0  0  0  0  0  0  0  0  0
   47.4750   31.1190   46.9180 H   0  0  0  0  0  0  0  0  0  0  0  0
   45.0400   31.2960   47.2360 H   0  0  0  0  0  0  0  0  0  0  0  0
   44.8240   31.2990   49.9910 H   0  0  0  0  0  0  0  0  0  0  0  0
   46.1340   32.3970   50.4460 H   0  0  0  0  0  0  0  0  0  0  0  0
   46.2430   29.9780   48.7190 H   0  0  0  0  0  0  0  0  0  0  0  0
   47.8460   32.7770   48.1280 O   0  0  0  0  0  0  0  0  0  0  0  0
   48.6460   32.9570   47.5900 H   0  0  0  0  0  0  0  0  0  0  0  0
   47.8150   30.6870   49.7910 O   0  0  0  0  0  0  0  0  0  0  0  0
   47.4890   30.5150   50.7190 H   0  0  0  0  0  0  0  0  0  0  0  0
  1  3  1  0  0  0  0
  1 27  1  0  0  0  0
  2  1  1  0  0  0  0
  4  1  1  0  0  0  0
  5  4  1  0  0  0  0
  5 10  1  0  0  0  0
  6  5  2  0  0  0  0
  7  8  2  0  0  0  0
  7  6  1  0  0  0  0
  8  9  1  0  0  0  0
  9 14  1  0  0  0  0
  9  4  2  0  0  0  0
 11  6  1  0  0  0  0
 12  7  1  0  0  0  0
 13  8  1  0  0  0  0
 14 25  1  0  0  0  0
 15 17  2  0  0  0  0
 15 14  1  0  0  0  0
 16 15  1  0  0  0  0
 17 18  1  0  0  0  0
 18 25  2  0  0  0  0
 18 19  1  0  0  0  0
 19 21  2  0  0  0  0
 20 19  1  0  0  0  0
 21 22  1  0  0  0  0
 22 23  1  0  0  0  0
 24 22  2  0  0  0  0
 25 24  1  0  0  0  0
 26 31  1  0  0  0  0
 27 28  1  0  0  0  0
 27 26  2  0  0  0  0
 28 29  2  0  0  0  0
 29 30  1  0  0  0  0
 30 35  1  0  0  0  0
 31 30  2  0  0  0  0
 32 26  1  0  0  0  0
 33 28  1  0  0  0  0
 34 39  1  6  0  0  0
 34 44  1  0  0  0  0
 34 38  1  0  0  0  0
 35 40  1  6  0  0  0
 35 34  1  0  0  0  0
 35 36  1  0  0  0  0
 36 37  1  0  0  0  0
 37 41  1  0  0  0  0
 37 42  1  0  0  0  0
 38 43  1  6  0  0  0
 38 37  1  0  0  0  0
 38 46  1  0  0  0  0
 45 44  1  0  0  0  0
 46 47  1  0  0  0  0
M  END
>  <minimizedAffinity>
-7.14700603

>  <minimizedRMSD>
0.477304518

$$$$
