
 OpenBabel03252507323D

 52 56  0  0  1  0  0  0  0  0999 V2000
   47.0450   32.4800   45.3880 C   0  0  0  0  0  0  0  0  0  0  0  0
   46.0280   33.1840   46.0140 C   0  0  0  0  0  0  0  0  0  0  0  0
   45.3820   34.2400   45.3290 C   0  0  0  0  0  0  0  0  0  0  0  0
   45.8310   34.5030   44.0360 N   0  0  0  0  0  0  0  0  0  0  0  0
   46.8180   33.7870   43.4920 C   0  0  0  0  0  0  0  0  0  0  0  0
   47.4150   32.7940   44.1520 N   0  0  0  0  0  0  0  0  0  0  0  0
   45.5610   33.1800   46.9760 H   0  0  0  0  0  0  0  0  0  0  0  0
   44.5960   34.8760   45.6410 H   0  0  0  0  0  0  0  0  0  0  0  0
   47.2580   34.1290   42.1350 C   0  0  0  0  0  0  0  0  0  0  0  0
   48.2880   35.0170   41.9260 C   0  0  0  0  0  0  0  0  0  0  0  0
   48.7720   35.3990   40.6930 C   0  0  0  0  0  0  0  0  0  0  0  0
   48.1330   34.8110   39.6310 C   0  0  0  0  0  0  0  0  0  0  0  0
   47.0840   33.9070   39.8130 C   0  0  0  0  0  0  0  0  0  0  0  0
   46.6560   33.5740   41.0710 N   0  0  0  0  0  0  0  0  0  0  0  0
   48.7470   35.4420   42.8240 H   0  0  0  0  0  0  0  0  0  0  0  0
   49.5770   36.0930   40.5470 H   0  0  0  0  0  0  0  0  0  0  0  0
   48.4110   35.0210   38.6080 H   0  0  0  0  0  0  0  0  0  0  0  0
   46.4560   33.3280   38.6720 N   0  0  0  0  0  0  0  0  0  0  0  0
   45.1600   33.0240   38.3820 C   0  0  0  0  0  0  0  0  0  0  0  0
   44.3690   33.2250   39.0940 H   0  0  0  0  0  0  0  0  0  0  0  0
   45.1040   32.4820   37.1460 N   0  0  0  0  0  0  0  0  0  0  0  0
   46.3540   32.4300   36.6320 C   0  0  0  0  0  0  0  0  0  0  0  0
   46.8370   31.9690   35.4150 C   0  0  0  0  0  0  0  0  0  0  0  0
   46.1600   31.5540   34.6710 H   0  0  0  0  0  0  0  0  0  0  0  0
   48.1510   32.0270   35.1360 N   0  0  0  0  0  0  0  0  0  0  0  0
   48.9580   32.5550   36.1020 C   0  0  0  0  0  0  0  0  0  0  0  0
   50.0480   32.6530   35.9830 H   0  0  0  0  0  0  0  0  0  0  0  0
   48.5330   33.0150   37.2950 N   0  0  0  0  0  0  0  0  0  0  0  0
   47.2150   32.9650   37.5970 C   0  0  0  0  0  0  0  0  0  0  0  0
   47.6570   31.3920   46.1240 C   0  0  2  0  0  0  0  0  0  0  0  0
   47.2890   30.0090   45.5150 C   0  0  0  0  0  0  0  0  0  0  0  0
   48.0680   28.9400   46.2030 C   0  0  0  0  0  0  0  0  0  0  0  0
   48.1380   29.0370   47.6890 C   0  0  0  0  0  0  0  0  0  0  0  0
   48.2560   30.3840   48.1940 C   0  0  0  0  0  0  0  0  0  0  0  0
   47.2870   31.3850   47.5250 C   0  0  2  0  0  0  0  0  0  0  0  0
   48.7540   31.4380   45.9590 H   0  0  0  0  0  0  0  0  0  0  0  0
   46.2220   29.8050   45.5710 H   0  0  0  0  0  0  0  0  0  0  0  0
   47.5670   30.0470   44.4440 H   0  0  0  0  0  0  0  0  0  0  0  0
   49.0320   28.8690   45.6630 H   0  0  0  0  0  0  0  0  0  0  0  0
   47.5600   27.9580   45.9720 H   0  0  0  0  0  0  0  0  0  0  0  0
   47.7370   28.2150   48.2810 H   0  0  0  0  0  0  0  0  0  0  0  0
   49.2390   28.6890   47.8390 H   0  0  0  0  0  0  0  0  0  0  0  0
   49.2470   30.8960   48.1290 H   0  0  0  0  0  0  0  0  0  0  0  0
   48.0050   30.4420   49.2890 H   0  0  0  0  0  0  0  0  0  0  0  0
   47.4980   32.2900   48.0960 H   0  0  0  0  0  0  0  0  0  0  0  0
   45.9200   30.8850   47.6780 N   0  0  0  0  0  0  0  0  0  0  0  0
   45.1800   30.5210   48.8170 C   0  0  0  0  0  0  0  0  0  0  0  0
   44.6540   31.3800   49.6130 O   0  0  0  0  0  0  0  0  0  0  0  0
   45.0510   29.1130   49.0180 N   0  0  0  0  0  0  0  0  0  0  0  0
   45.2920   30.6600   46.8180 H   0  0  0  0  0  0  0  0  0  0  0  0
   44.7240   28.3790   48.3650 H   0  0  0  0  0  0  0  0  0  0  0  0
   45.3070   28.6840   49.9410 H   0  0  0  0  0  0  0  0  0  0  0  0
  1  2  1  0  0  0  0
  1 30  1  0  0  0  0
  2  7  1  0  0  0  0
  3  8  1  0  0  0  0
  3  2  2  0  0  0  0
  4  3  1  0  0  0  0
  5  4  2  0  0  0  0
  5  6  1  0  0  0  0
  6  1  2  0  0  0  0
  9  5  1  0  0  0  0
 10  9  1  0  0  0  0
 10 15  1  0  0  0  0
 11 10  2  0  0  0  0
 12 13  2  0  0  0  0
 12 11  1  0  0  0  0
 13 14  1  0  0  0  0
 14  9  2  0  0  0  0
 16 11  1  0  0  0  0
 17 12  1  0  0  0  0
 18 13  1  0  0  0  0
 19 18  1  0  0  0  0
 19 20  1  0  0  0  0
 21 19  2  0  0  0  0
 22 21  1  0  0  0  0
 22 29  1  0  0  0  0
 23 22  2  0  0  0  0
 24 23  1  0  0  0  0
 25 23  1  0  0  0  0
 25 26  2  0  0  0  0
 26 28  1  0  0  0  0
 27 26  1  0  0  0  0
 28 29  2  0  0  0  0
 29 18  1  0  0  0  0
 30 36  1  6  0  0  0
 30 35  1  0  0  0  0
 31 37  1  0  0  0  0
 31 30  1  0  0  0  0
 31 32  1  0  0  0  0
 32 33  1  0  0  0  0
 33 42  1  0  0  0  0
 33 34  1  0  0  0  0
 33 41  1  0  0  0  0
 34 44  1  0  0  0  0
 35 46  1  0  0  0  0
 35 45  1  1  0  0  0
 35 34  1  0  0  0  0
 38 31  1  0  0  0  0
 39 32  1  0  0  0  0
 40 32  1  0  0  0  0
 43 34  1  0  0  0  0
 46 47  1  0  0  0  0
 47 49  1  0  0  0  0
 47 48  2  0  0  0  0
 49 52  1  0  0  0  0
 50 46  1  0  0  0  0
 51 49  1  0  0  0  0
M  END
>  <minimizedAffinity>
-7.08274603

>  <minimizedRMSD>
0.549081504

$$$$
