
 OpenBabel03252507313D

 52 56  0  0  1  0  0  0  0  0999 V2000
   47.0740   32.0640   45.2800 C   0  0  0  0  0  0  0  0  0  0  0  0
   46.0610   32.7690   45.9100 C   0  0  0  0  0  0  0  0  0  0  0  0
   45.5550   33.9500   45.3180 C   0  0  0  0  0  0  0  0  0  0  0  0
   46.1320   34.3300   44.1080 N   0  0  0  0  0  0  0  0  0  0  0  0
   47.1090   33.6060   43.5540 C   0  0  0  0  0  0  0  0  0  0  0  0
   47.5730   32.4940   44.1260 N   0  0  0  0  0  0  0  0  0  0  0  0
   45.5130   32.6870   46.8250 H   0  0  0  0  0  0  0  0  0  0  0  0
   44.7930   34.6060   45.6480 H   0  0  0  0  0  0  0  0  0  0  0  0
   47.6890   34.0730   42.2910 C   0  0  0  0  0  0  0  0  0  0  0  0
   48.2050   35.3430   42.1730 C   0  0  0  0  0  0  0  0  0  0  0  0
   48.7700   35.8700   41.0310 C   0  0  0  0  0  0  0  0  0  0  0  0
   48.7880   35.0090   39.9640 C   0  0  0  0  0  0  0  0  0  0  0  0
   48.2710   33.7150   40.0540 C   0  0  0  0  0  0  0  0  0  0  0  0
   47.7240   33.2590   41.2230 N   0  0  0  0  0  0  0  0  0  0  0  0
   48.1540   35.9680   43.0700 H   0  0  0  0  0  0  0  0  0  0  0  0
   49.1680   36.8630   40.9560 H   0  0  0  0  0  0  0  0  0  0  0  0
   49.2020   35.2930   39.0060 H   0  0  0  0  0  0  0  0  0  0  0  0
   48.3170   32.8640   38.9110 N   0  0  0  0  0  0  0  0  0  0  0  0
   49.2850   32.0520   38.3980 C   0  0  0  0  0  0  0  0  0  0  0  0
   50.2500   31.9650   38.8810 H   0  0  0  0  0  0  0  0  0  0  0  0
   48.8100   31.4570   37.2830 N   0  0  0  0  0  0  0  0  0  0  0  0
   47.5410   31.8760   37.0670 C   0  0  0  0  0  0  0  0  0  0  0  0
   46.6220   31.5710   36.0740 C   0  0  0  0  0  0  0  0  0  0  0  0
   46.8770   30.8760   35.2750 H   0  0  0  0  0  0  0  0  0  0  0  0
   45.3990   32.1310   36.0800 N   0  0  0  0  0  0  0  0  0  0  0  0
   45.1290   32.9960   37.1010 C   0  0  0  0  0  0  0  0  0  0  0  0
   44.1630   33.5120   37.2080 H   0  0  0  0  0  0  0  0  0  0  0  0
   45.9910   33.3190   38.0860 N   0  0  0  0  0  0  0  0  0  0  0  0
   47.2260   32.7680   38.0980 C   0  0  0  0  0  0  0  0  0  0  0  0
   47.5400   30.8480   45.9160 C   0  0  2  0  0  0  0  0  0  0  0  0
   46.8410   29.5900   45.3290 C   0  0  0  0  0  0  0  0  0  0  0  0
   47.4670   28.3620   45.8970 C   0  0  0  0  0  0  0  0  0  0  0  0
   47.7220   28.3800   47.3660 C   0  0  0  0  0  0  0  0  0  0  0  0
   48.1600   29.6560   47.8790 C   0  0  0  0  0  0  0  0  0  0  0  0
   47.3380   30.8530   47.3510 C   0  0  2  0  0  0  0  0  0  0  0  0
   48.5990   30.6880   45.6220 H   0  0  0  0  0  0  0  0  0  0  0  0
   45.7680   29.5940   45.5080 H   0  0  0  0  0  0  0  0  0  0  0  0
   46.9970   29.6190   44.2320 H   0  0  0  0  0  0  0  0  0  0  0  0
   48.3300   28.1290   45.2440 H   0  0  0  0  0  0  0  0  0  0  0  0
   46.7520   27.5080   45.7090 H   0  0  0  0  0  0  0  0  0  0  0  0
   47.2370   27.6270   47.9850 H   0  0  0  0  0  0  0  0  0  0  0  0
   48.7430   27.8200   47.3750 H   0  0  0  0  0  0  0  0  0  0  0  0
   49.2180   29.9690   47.7070 H   0  0  0  0  0  0  0  0  0  0  0  0
   48.0510   29.7150   48.9970 H   0  0  0  0  0  0  0  0  0  0  0  0
   47.7850   31.6750   47.9100 H   0  0  0  0  0  0  0  0  0  0  0  0
   45.9250   30.6200   47.6560 N   0  0  0  0  0  0  0  0  0  0  0  0
   45.2460   30.4680   48.8780 C   0  0  0  0  0  0  0  0  0  0  0  0
   44.9580   31.4550   49.6460 O   0  0  0  0  0  0  0  0  0  0  0  0
   44.8910   29.1210   49.1980 N   0  0  0  0  0  0  0  0  0  0  0  0
   45.1880   30.4610   46.8720 H   0  0  0  0  0  0  0  0  0  0  0  0
   44.3800   28.4210   48.6330 H   0  0  0  0  0  0  0  0  0  0  0  0
   45.1560   28.7100   50.1260 H   0  0  0  0  0  0  0  0  0  0  0  0
  1  2  1  0  0  0  0
  1 30  1  0  0  0  0
  2  7  1  0  0  0  0
  3  8  1  0  0  0  0
  3  2  2  0  0  0  0
  4  3  1  0  0  0  0
  5  4  2  0  0  0  0
  5  6  1  0  0  0  0
  6  1  2  0  0  0  0
  9  5  1  0  0  0  0
 10  9  1  0  0  0  0
 10 15  1  0  0  0  0
 11 10  2  0  0  0  0
 12 13  2  0  0  0  0
 12 11  1  0  0  0  0
 13 14  1  0  0  0  0
 14  9  2  0  0  0  0
 16 11  1  0  0  0  0
 17 12  1  0  0  0  0
 18 13  1  0  0  0  0
 19 20  1  0  0  0  0
 19 18  1  0  0  0  0
 21 19  2  0  0  0  0
 22 21  1  0  0  0  0
 22 29  1  0  0  0  0
 23 25  1  0  0  0  0
 23 22  2  0  0  0  0
 24 23  1  0  0  0  0
 25 26  2  0  0  0  0
 26 27  1  0  0  0  0
 26 28  1  0  0  0  0
 28 29  2  0  0  0  0
 29 18  1  0  0  0  0
 30 36  1  6  0  0  0
 30 35  1  0  0  0  0
 31 37  1  0  0  0  0
 31 32  1  0  0  0  0
 31 30  1  0  0  0  0
 32 33  1  0  0  0  0
 33 42  1  0  0  0  0
 33 34  1  0  0  0  0
 33 41  1  0  0  0  0
 34 44  1  0  0  0  0
 35 46  1  0  0  0  0
 35 34  1  0  0  0  0
 35 45  1  1  0  0  0
 38 31  1  0  0  0  0
 39 32  1  0  0  0  0
 40 32  1  0  0  0  0
 43 34  1  0  0  0  0
 46 47  1  0  0  0  0
 47 49  1  0  0  0  0
 47 48  2  0  0  0  0
 49 52  1  0  0  0  0
 50 46  1  0  0  0  0
 51 49  1  0  0  0  0
M  END
>  <minimizedAffinity>
-6.53375244

>  <minimizedRMSD>
1.49368906

$$$$
