
 OpenBabel03252502003D

 37 41  0  0  0  0  0  0  0  0999 V2000
   47.3830   32.1310   48.1600 C   0  0  0  0  0  0  0  0  0  0  0  0
   47.4160   30.7660   47.9690 C   0  0  0  0  0  0  0  0  0  0  0  0
   46.9830   30.3200   46.7560 C   0  0  0  0  0  0  0  0  0  0  0  0
   46.5550   31.1830   45.8220 N   0  0  0  0  0  0  0  0  0  0  0  0
   46.5260   32.5030   46.0160 C   0  0  0  0  0  0  0  0  0  0  0  0
   46.9480   32.9380   47.1960 N   0  0  0  0  0  0  0  0  0  0  0  0
   47.7320   32.4880   49.1380 H   0  0  0  0  0  0  0  0  0  0  0  0
   46.9680   28.9610   46.4430 N   0  0  0  0  0  0  0  0  0  0  0  0
   47.6940   28.2610   45.5500 C   0  0  0  0  0  0  0  0  0  0  0  0
   48.4480   28.6790   44.8970 H   0  0  0  0  0  0  0  0  0  0  0  0
   47.3420   26.9610   45.5890 N   0  0  0  0  0  0  0  0  0  0  0  0
   46.3780   26.8040   46.5140 C   0  0  0  0  0  0  0  0  0  0  0  0
   45.6790   25.6940   46.9450 C   0  0  0  0  0  0  0  0  0  0  0  0
   45.8960   24.7280   46.4960 H   0  0  0  0  0  0  0  0  0  0  0  0
   44.7630   25.8940   47.9100 N   0  0  0  0  0  0  0  0  0  0  0  0
   44.5210   27.1110   48.4430 C   0  0  0  0  0  0  0  0  0  0  0  0
   43.7620   27.2070   49.2250 H   0  0  0  0  0  0  0  0  0  0  0  0
   45.2120   28.1700   48.0090 N   0  0  0  0  0  0  0  0  0  0  0  0
   46.1530   28.0400   47.0360 C   0  0  0  0  0  0  0  0  0  0  0  0
   46.1040   33.6130   45.1490 C   0  0  0  0  0  0  0  0  0  0  0  0
   45.0700   34.4350   45.4370 N   0  0  0  0  0  0  0  0  0  0  0  0
   44.6560   35.4490   44.6800 C   0  0  0  0  0  0  0  0  0  0  0  0
   45.2930   35.7150   43.5210 N   0  0  0  0  0  0  0  0  0  0  0  0
   46.3420   34.9670   43.1210 C   0  0  0  0  0  0  0  0  0  0  0  0
   46.9910   35.2450   41.9310 C   0  0  0  0  0  0  0  0  0  0  0  0
   48.0570   34.4890   41.5220 C   0  0  0  0  0  0  0  0  0  0  0  0
   48.4510   33.4510   42.3330 C   0  0  0  0  0  0  0  0  0  0  0  0
   47.7830   33.2070   43.5040 C   0  0  0  0  0  0  0  0  0  0  0  0
   46.7120   33.9310   43.9600 C   0  0  0  0  0  0  0  0  0  0  0  0
   43.8150   36.0440   45.0090 H   0  0  0  0  0  0  0  0  0  0  0  0
   46.6590   36.0690   41.3110 H   0  0  0  0  0  0  0  0  0  0  0  0
   48.5980   34.6630   40.6030 H   0  0  0  0  0  0  0  0  0  0  0  0
   49.2870   32.8230   42.0560 H   0  0  0  0  0  0  0  0  0  0  0  0
   48.1350   32.3690   44.1150 H   0  0  0  0  0  0  0  0  0  0  0  0
   47.8760   29.9100   48.9850 N   0  0  0  0  0  0  0  0  0  0  0  0
   47.2310   29.4470   49.6620 H   0  0  0  0  0  0  0  0  0  0  0  0
   48.8680   29.6280   49.2000 H   0  0  0  0  0  0  0  0  0  0  0  0
  1  7  1  0  0  0  0
  2  1  1  0  0  0  0
  2 35  1  0  0  0  0
  3  2  2  0  0  0  0
  4  5  2  0  0  0  0
  4  3  1  0  0  0  0
  5  6  1  0  0  0  0
  6  1  2  0  0  0  0
  8  3  1  0  0  0  0
  8 19  1  0  0  0  0
  9 11  2  0  0  0  0
  9  8  1  0  0  0  0
 10  9  1  0  0  0  0
 11 12  1  0  0  0  0
 12 13  2  0  0  0  0
 12 19  1  0  0  0  0
 13 15  1  0  0  0  0
 14 13  1  0  0  0  0
 15 16  2  0  0  0  0
 16 17  1  0  0  0  0
 18 16  1  0  0  0  0
 19 18  2  0  0  0  0
 20 21  1  0  0  0  0
 20  5  1  0  0  0  0
 22 30  1  0  0  0  0
 22 21  2  0  0  0  0
 23 22  1  0  0  0  0
 24 23  2  0  0  0  0
 24 29  1  0  0  0  0
 25 24  1  0  0  0  0
 26 25  2  0  0  0  0
 26 27  1  0  0  0  0
 27 28  2  0  0  0  0
 28 29  1  0  0  0  0
 28 34  1  0  0  0  0
 29 20  2  0  0  0  0
 31 25  1  0  0  0  0
 32 26  1  0  0  0  0
 33 27  1  0  0  0  0
 35 37  1  0  0  0  0
 35 36  1  0  0  0  0
M  END
>  <minimizedAffinity>
-6.54551983

>  <minimizedRMSD>
1.30986273

$$$$
