REMARK  Name = 
REMARK  3 active torsions:
REMARK  status: ('A' for Active; 'I' for Inactive)
REMARK    1  A    between atoms: C_3  and  C_14
REMARK    2  A    between atoms: C_5  and  C_9
REMARK    3  A    between atoms: C_13  and  N_23
REMARK                            x       y       z     vdW  Elec       q    Type
REMARK                         _______ _______ _______ _____ _____    ______ ____
ROOT
ATOM      1 CL   UNL     1      45.106  32.306  39.748  0.00  0.00    +0.000 Cl
ATOM      2  C   UNL     1      46.407  33.173  39.006  0.00  0.00    +0.000 A 
ATOM      3  C   UNL     1      47.277  33.928  39.770  0.00  0.00    +0.000 A 
ATOM      4  C   UNL     1      48.330  34.636  39.215  0.00  0.00    +0.000 A 
ATOM      5  C   UNL     1      48.472  34.552  37.843  0.00  0.00    +0.000 A 
ATOM      6  C   UNL     1      47.613  33.804  37.071  0.00  0.00    +0.000 A 
ATOM      7  C   UNL     1      46.599  33.126  37.639  0.00  0.00    +0.000 A 
ATOM      8  H   UNL     1      49.015  35.225  39.782  0.00  0.00    +0.000 HD
ATOM      9  H   UNL     1      49.269  35.077  37.347  0.00  0.00    +0.000 HD
ATOM     10  H   UNL     1      47.692  33.713  35.991  0.00  0.00    +0.000 HD
ENDROOT
BRANCH   7  11
ATOM     11  N   UNL     1      45.670  32.328  36.879  0.00  0.00    +0.000 N 
ATOM     12  C   UNL     1      45.815  31.447  35.871  0.00  0.00    +0.000 A 
ATOM     13  H   UNL     1      46.813  31.222  35.476  0.00  0.00    +0.000 HD
ATOM     14  N   UNL     1      44.591  30.988  35.533  0.00  0.00    +0.000 NA
ATOM     15  C   UNL     1      43.682  31.586  36.334  0.00  0.00    +0.000 A 
ATOM     16  C   UNL     1      42.309  31.450  36.380  0.00  0.00    +0.000 A 
ATOM     17  H   UNL     1      41.752  30.780  35.710  0.00  0.00    +0.000 HD
ATOM     18  N   UNL     1      41.617  32.179  37.297  0.00  0.00    +0.000 NA
ATOM     19  C   UNL     1      42.268  33.016  38.140  0.00  0.00    +0.000 A 
ATOM     20  H   UNL     1      41.808  33.635  38.898  0.00  0.00    +0.000 HD
ATOM     21  N   UNL     1      43.608  33.147  38.093  0.00  0.00    +0.000 NA
ATOM     22  C   UNL     1      44.349  32.443  37.198  0.00  0.00    +0.000 A 
ENDBRANCH   7  11
BRANCH   3  27
ATOM     23  C   UNL     1      47.590  33.232  43.377  0.00  0.00    +0.000 A 
ATOM     24  C   UNL     1      46.665  34.125  43.943  0.00  0.00    +0.000 A 
ATOM     25  C   UNL     1      45.949  34.950  43.081  0.00  0.00    +0.000 A 
ATOM     26  N   UNL     1      46.166  34.867  41.743  0.00  0.00    +0.000 NA
ATOM     27  C   UNL     1      47.078  33.981  41.227  0.00  0.00    +0.000 A 
ATOM     28  N   UNL     1      47.776  33.179  42.044  0.00  0.00    +0.000 NA
ATOM     29  H   UNL     1      48.152  32.585  44.037  0.00  0.00    +0.000 HD
ATOM     30  H   UNL     1      46.479  34.208  44.988  0.00  0.00    +0.000 HD
BRANCH  25  31
ATOM     31  C   UNL     1      44.929  35.950  43.570  0.00  0.00    +0.000 C 
ATOM     32  F   UNL     1      45.266  37.215  43.175  0.00  0.00    +0.000 F 
ATOM     33  F   UNL     1      43.703  35.621  43.023  0.00  0.00    +0.000 F 
ATOM     34  F   UNL     1      44.877  35.830  44.937  0.00  0.00    +0.000 F 
ENDBRANCH  25  31
ENDBRANCH   3  27
TORSDOF 3
