
 OpenBabel03252508173D

 50 55  0  0  1  0  0  0  0  0999 V2000
   46.9660   31.6970   48.2830 C   0  0  1  0  0  0  0  0  0  0  0  0
   46.3540   30.7030   49.2110 C   0  0  0  0  0  0  0  0  0  0  0  0
   47.6890   31.2330   49.4850 C   0  0  1  0  0  0  0  0  0  0  0  0
   46.3250   32.6280   48.2710 H   0  0  0  0  0  0  0  0  0  0  0  0
   46.3290   29.6260   48.9050 H   0  0  0  0  0  0  0  0  0  0  0  0
   45.5160   30.9430   49.8780 H   0  0  0  0  0  0  0  0  0  0  0  0
   47.7690   31.9560   50.3230 H   0  0  0  0  0  0  0  0  0  0  0  0
   48.9090   30.3920   49.2870 C   0  0  2  0  0  0  0  0  0  0  0  0
   49.6680   30.0830   50.6030 C   0  0  0  0  0  0  0  0  0  0  0  0
   50.2610   31.0140   49.6370 C   0  0  1  0  0  0  0  0  0  0  0  0
   48.8700   29.4800   48.6620 H   0  0  0  0  0  0  0  0  0  0  0  0
   49.2820   30.5380   51.5360 H   0  0  0  0  0  0  0  0  0  0  0  0
   50.1730   29.1310   50.7350 H   0  0  0  0  0  0  0  0  0  0  0  0
   50.2290   32.1270   49.8020 H   0  0  0  0  0  0  0  0  0  0  0  0
   51.3130   30.6210   48.7190 N   0  0  0  0  0  0  0  0  0  0  0  0
   51.1690   29.6430   47.8070 C   0  0  0  0  0  0  0  0  0  0  0  0
   50.3070   29.0190   47.6090 H   0  0  0  0  0  0  0  0  0  0  0  0
   52.3160   29.5170   47.1080 N   0  0  0  0  0  0  0  0  0  0  0  0
   53.1500   30.4360   47.6170 C   0  0  0  0  0  0  0  0  0  0  0  0
   54.4640   30.7230   47.2500 C   0  0  0  0  0  0  0  0  0  0  0  0
   55.0080   30.2120   46.4650 H   0  0  0  0  0  0  0  0  0  0  0  0
   55.0830   31.7080   47.9330 N   0  0  0  0  0  0  0  0  0  0  0  0
   54.4720   32.3810   48.9150 C   0  0  0  0  0  0  0  0  0  0  0  0
   54.9710   33.1710   49.4600 H   0  0  0  0  0  0  0  0  0  0  0  0
   53.2010   32.1290   49.2950 N   0  0  0  0  0  0  0  0  0  0  0  0
   52.5480   31.1580   48.6430 C   0  0  0  0  0  0  0  0  0  0  0  0
   47.3160   31.1570   46.9410 C   0  0  0  0  0  0  0  0  0  0  0  0
   46.6010   30.3100   46.7400 H   0  0  0  0  0  0  0  0  0  0  0  0
   48.3340   30.8580   46.7650 H   0  0  0  0  0  0  0  0  0  0  0  0
   46.1920   33.0850   46.1840 C   0  0  0  0  0  3  0  0  0  0  0  0
   46.9980   32.1630   45.8590 C   0  0  0  0  0  3  0  0  0  0  0  0
   44.5320   35.8460   44.3910 C   0  0  0  0  0  0  0  0  0  0  0  0
   45.1540   35.8310   43.1470 C   0  0  0  0  0  0  0  0  0  0  0  0
   46.1100   34.8850   42.9690 C   0  0  0  0  0  0  0  0  0  0  0  0
   46.4240   34.0130   43.9650 N   0  0  0  0  0  0  0  0  0  0  0  0
   45.7960   34.0590   45.1630 C   0  0  0  0  0  0  0  0  0  0  0  0
   44.8660   34.9780   45.3380 N   0  0  0  0  0  0  0  0  0  0  0  0
   43.7660   36.5840   44.5720 H   0  0  0  0  0  0  0  0  0  0  0  0
   44.9360   36.4990   42.3410 H   0  0  0  0  0  0  0  0  0  0  0  0
   46.8500   34.7470   41.7160 C   0  0  0  0  0  0  0  0  0  0  0  0
   48.0570   35.3450   41.4540 C   0  0  0  0  0  0  0  0  0  0  0  0
   48.7490   35.2090   40.2700 C   0  0  0  0  0  0  0  0  0  0  0  0
   48.2190   34.4230   39.2580 C   0  0  0  0  0  0  0  0  0  0  0  0
   47.0140   33.8030   39.4690 C   0  0  0  0  0  0  0  0  0  0  0  0
   46.3730   33.9810   40.6780 C   0  0  0  0  0  0  0  0  0  0  0  0
   48.5040   35.9750   42.2390 H   0  0  0  0  0  0  0  0  0  0  0  0
   49.7050   35.6990   40.0990 H   0  0  0  0  0  0  0  0  0  0  0  0
   48.7480   34.3100   38.3340 H   0  0  0  0  0  0  0  0  0  0  0  0
   46.5720   33.1870   38.7110 H   0  0  0  0  0  0  0  0  0  0  0  0
   45.4140   33.4640   40.7960 H   0  0  0  0  0  0  0  0  0  0  0  0
  1  4  1  1  0  0  0
  1  2  1  0  0  0  0
  1  3  1  0  0  0  0
  2  3  1  0  0  0  0
  2  6  1  0  0  0  0
  3  7  1  1  0  0  0
  5  2  1  0  0  0  0
  8 11  1  6  0  0  0
  8  3  1  0  0  0  0
  8 10  1  0  0  0  0
  8  9  1  0  0  0  0
  9 13  1  0  0  0  0
  9 12  1  0  0  0  0
 10 14  1  1  0  0  0
 10  9  1  0  0  0  0
 15 10  1  0  0  0  0
 16 15  1  0  0  0  0
 17 16  1  0  0  0  0
 18 19  1  0  0  0  0
 18 16  2  0  0  0  0
 19 26  1  0  0  0  0
 20 19  2  0  0  0  0
 20 22  1  0  0  0  0
 21 20  1  0  0  0  0
 22 23  2  0  0  0  0
 23 25  1  0  0  0  0
 23 24  1  0  0  0  0
 26 15  1  0  0  0  0
 26 25  2  0  0  0  0
 27  1  1  0  0  0  0
 28 27  1  0  0  0  0
 29 27  1  0  0  0  0
 31 30  2  0  0  0  0
 31 27  1  0  0  0  0
 32 38  1  0  0  0  0
 32 37  1  0  0  0  0
 33 32  2  0  0  0  0
 34 33  1  0  0  0  0
 34 35  2  0  0  0  0
 35 36  1  0  0  0  0
 36 37  2  0  0  0  0
 36 30  1  0  0  0  0
 39 33  1  0  0  0  0
 40 34  1  0  0  0  0
 41 40  1  0  0  0  0
 41 46  1  0  0  0  0
 42 41  2  0  0  0  0
 43 44  2  0  0  0  0
 43 42  1  0  0  0  0
 44 45  1  0  0  0  0
 45 50  1  0  0  0  0
 45 40  2  0  0  0  0
 47 42  1  0  0  0  0
 48 43  1  0  0  0  0
 49 44  1  0  0  0  0
M  END
>  <minimizedAffinity>
-6.57481909

>  <minimizedRMSD>
1.00100684

$$$$
