
 OpenBabel03242511303D

 37 41  0  0  0  0  0  0  0  0999 V2000
   38.0010   27.5530   39.2050 Cl  0  0  0  0  0  0  0  0  0  0  0  0
   37.7760   27.8990   40.8850 C   0  0  0  0  0  0  0  0  0  0  0  0
   37.6130   26.8720   41.7800 C   0  0  0  0  0  0  0  0  0  0  0  0
   37.4290   27.1030   43.1450 C   0  0  0  0  0  0  0  0  0  0  0  0
   37.4220   28.4270   43.5310 C   0  0  0  0  0  0  0  0  0  0  0  0
   37.5830   29.4410   42.6470 C   0  0  0  0  0  0  0  0  0  0  0  0
   37.7630   29.1950   41.3090 C   0  0  0  0  0  0  0  0  0  0  0  0
   37.3050   26.2540   43.8030 H   0  0  0  0  0  0  0  0  0  0  0  0
   37.2770   28.6090   44.5980 H   0  0  0  0  0  0  0  0  0  0  0  0
   37.5610   30.4450   43.0610 H   0  0  0  0  0  0  0  0  0  0  0  0
   37.9240   30.3940   40.4770 C   0  0  0  0  0  0  0  0  0  0  0  0
   36.8650   31.2950   40.3950 C   0  0  0  0  0  0  0  0  0  0  0  0
   37.5080   32.6170   39.2620 S   0  0  0  0  0  0  0  0  0  0  0  0
   39.1430   31.6720   39.1080 C   0  0  0  0  0  0  0  0  0  0  0  0
   38.9370   30.7890   39.7610 N   0  0  0  0  0  0  0  0  0  0  0  0
   35.8760   31.2620   40.8710 H   0  0  0  0  0  0  0  0  0  0  0  0
   40.3840   31.9740   38.3450 N   0  0  0  0  0  0  0  0  0  0  0  0
   41.0320   33.1350   38.2190 C   0  0  0  0  0  0  0  0  0  0  0  0
   40.6250   34.0050   38.7320 H   0  0  0  0  0  0  0  0  0  0  0  0
   42.0900   32.8990   37.4340 N   0  0  0  0  0  0  0  0  0  0  0  0
   42.0590   31.5850   37.0980 C   0  0  0  0  0  0  0  0  0  0  0  0
   42.9150   30.8120   36.3040 C   0  0  0  0  0  0  0  0  0  0  0  0
   43.7830   31.2940   35.8430 H   0  0  0  0  0  0  0  0  0  0  0  0
   42.6840   29.4860   36.1000 N   0  0  0  0  0  0  0  0  0  0  0  0
   41.6000   28.9180   36.6840 C   0  0  0  0  0  0  0  0  0  0  0  0
   41.4430   27.8630   36.5040 H   0  0  0  0  0  0  0  0  0  0  0  0
   40.7630   29.6640   37.4580 N   0  0  0  0  0  0  0  0  0  0  0  0
   40.9680   30.9700   37.6740 C   0  0  0  0  0  0  0  0  0  0  0  0
   38.7730   23.4760   40.9260 C   0  0  0  0  0  0  0  0  0  0  0  0
   37.6320   22.8970   40.3920 C   0  0  0  0  0  0  0  0  0  0  0  0
   36.4790   23.6480   40.3200 C   0  0  0  0  0  0  0  0  0  0  0  0
   36.5120   24.9240   40.7780 N   0  0  0  0  0  0  0  0  0  0  0  0
   37.6310   25.4830   41.2990 C   0  0  0  0  0  0  0  0  0  0  0  0
   38.7480   24.7520   41.3660 N   0  0  0  0  0  0  0  0  0  0  0  0
   39.6400   22.8410   40.9550 H   0  0  0  0  0  0  0  0  0  0  0  0
   37.5150   21.8960   40.0070 H   0  0  0  0  0  0  0  0  0  0  0  0
   35.5030   23.3710   39.9400 H   0  0  0  0  0  0  0  0  0  0  0  0
  1  2  1  0  0  0  0
  2  7  2  0  0  0  0
  2  3  1  0  0  0  0
  3  4  2  0  0  0  0
  4  5  1  0  0  0  0
  4  8  1  0  0  0  0
  5  9  1  0  0  0  0
  6 10  1  0  0  0  0
  6  5  2  0  0  0  0
  7  6  1  0  0  0  0
 11  7  1  0  0  0  0
 12 11  2  0  0  0  0
 12 16  1  0  0  0  0
 13 12  1  0  0  0  0
 14 13  1  0  0  0  0
 14 15  2  0  0  0  0
 15 11  1  0  0  0  0
 17 14  1  0  0  0  0
 18 17  1  0  0  0  0
 18 19  1  0  0  0  0
 20 18  2  0  0  0  0
 21 20  1  0  0  0  0
 21 28  1  0  0  0  0
 22 21  2  0  0  0  0
 23 22  1  0  0  0  0
 24 22  1  0  0  0  0
 24 25  2  0  0  0  0
 25 27  1  0  0  0  0
 26 25  1  0  0  0  0
 27 28  2  0  0  0  0
 28 17  1  0  0  0  0
 29 35  1  0  0  0  0
 29 34  1  0  0  0  0
 30 29  2  0  0  0  0
 31 30  1  0  0  0  0
 31 32  2  0  0  0  0
 32 33  1  0  0  0  0
 33 34  2  0  0  0  0
 33  3  1  0  0  0  0
 36 30  1  0  0  0  0
 37 31  1  0  0  0  0
M  END
>  <minimizedAffinity>
-6.50271559

$$$$

 OpenBabel03242511303D

 37 41  0  0  0  0  0  0  0  0999 V2000
   37.8450   27.7640   39.2690 Cl  0  0  0  0  0  0  0  0  0  0  0  0
   37.5980   27.8250   40.9800 C   0  0  0  0  0  0  0  0  0  0  0  0
   37.4400   26.6640   41.6920 C   0  0  0  0  0  0  0  0  0  0  0  0
   37.2410   26.6640   43.0740 C   0  0  0  0  0  0  0  0  0  0  0  0
   37.2120   27.9060   43.6730 C   0  0  0  0  0  0  0  0  0  0  0  0
   37.3670   29.0530   42.9700 C   0  0  0  0  0  0  0  0  0  0  0  0
   37.5640   29.0340   41.6120 C   0  0  0  0  0  0  0  0  0  0  0  0
   37.1220   25.7170   43.5820 H   0  0  0  0  0  0  0  0  0  0  0  0
   37.0540   27.9080   44.7530 H   0  0  0  0  0  0  0  0  0  0  0  0
   37.3280   29.9750   43.5430 H   0  0  0  0  0  0  0  0  0  0  0  0
   37.7160   30.3560   40.9900 C   0  0  0  0  0  0  0  0  0  0  0  0
   36.5780   31.0040   40.5180 C   0  0  0  0  0  0  0  0  0  0  0  0
   37.2410   32.5980   39.8350 S   0  0  0  0  0  0  0  0  0  0  0  0
   38.9900   32.0700   40.3350 C   0  0  0  0  0  0  0  0  0  0  0  0
   38.7850   31.0700   40.7920 N   0  0  0  0  0  0  0  0  0  0  0  0
   35.5290   30.6800   40.5300 H   0  0  0  0  0  0  0  0  0  0  0  0
   40.3030   32.7530   40.1840 N   0  0  0  0  0  0  0  0  0  0  0  0
   40.6160   34.0320   40.4060 C   0  0  0  0  0  0  0  0  0  0  0  0
   39.8250   34.7000   40.7450 H   0  0  0  0  0  0  0  0  0  0  0  0
   41.9190   34.1610   40.1290 N   0  0  0  0  0  0  0  0  0  0  0  0
   42.3720   32.9430   39.7410 C   0  0  0  0  0  0  0  0  0  0  0  0
   43.6430   32.5120   39.3430 C   0  0  0  0  0  0  0  0  0  0  0  0
   44.4620   33.2390   39.3180 H   0  0  0  0  0  0  0  0  0  0  0  0
   43.8720   31.2170   38.9910 N   0  0  0  0  0  0  0  0  0  0  0  0
   42.8390   30.3400   39.0310 C   0  0  0  0  0  0  0  0  0  0  0  0
   43.0510   29.3190   38.7460 H   0  0  0  0  0  0  0  0  0  0  0  0
   41.5990   30.7520   39.4180 N   0  0  0  0  0  0  0  0  0  0  0  0
   41.3480   32.0210   39.7700 C   0  0  0  0  0  0  0  0  0  0  0  0
   38.6740   23.5070   40.2350 C   0  0  0  0  0  0  0  0  0  0  0  0
   37.5270   22.9710   39.6710 C   0  0  0  0  0  0  0  0  0  0  0  0
   36.3450   23.6700   39.7810 C   0  0  0  0  0  0  0  0  0  0  0  0
   36.3570   24.8550   40.4400 N   0  0  0  0  0  0  0  0  0  0  0  0
   37.4820   25.3730   40.9890 C   0  0  0  0  0  0  0  0  0  0  0  0
   38.6270   24.6920   40.8800 N   0  0  0  0  0  0  0  0  0  0  0  0
   39.5640   22.9150   40.1160 H   0  0  0  0  0  0  0  0  0  0  0  0
   37.4250   22.0410   39.1330 H   0  0  0  0  0  0  0  0  0  0  0  0
   35.3590   23.4150   39.4100 H   0  0  0  0  0  0  0  0  0  0  0  0
  1  2  1  0  0  0  0
  2  7  2  0  0  0  0
  2  3  1  0  0  0  0
  3  4  2  0  0  0  0
  4  8  1  0  0  0  0
  4  5  1  0  0  0  0
  5  9  1  0  0  0  0
  6 10  1  0  0  0  0
  6  5  2  0  0  0  0
  7  6  1  0  0  0  0
 11  7  1  0  0  0  0
 12 16  1  0  0  0  0
 12 11  2  0  0  0  0
 13 14  1  0  0  0  0
 13 12  1  0  0  0  0
 14 15  2  0  0  0  0
 15 11  1  0  0  0  0
 17 14  1  0  0  0  0
 17 18  1  0  0  0  0
 18 19  1  0  0  0  0
 20 18  2  0  0  0  0
 21 28  1  0  0  0  0
 21 20  1  0  0  0  0
 22 21  2  0  0  0  0
 23 22  1  0  0  0  0
 24 25  2  0  0  0  0
 24 22  1  0  0  0  0
 25 27  1  0  0  0  0
 26 25  1  0  0  0  0
 27 28  2  0  0  0  0
 28 17  1  0  0  0  0
 29 34  1  0  0  0  0
 30 31  1  0  0  0  0
 30 29  2  0  0  0  0
 31 32  2  0  0  0  0
 32 33  1  0  0  0  0
 33  3  1  0  0  0  0
 34 33  2  0  0  0  0
 35 29  1  0  0  0  0
 36 30  1  0  0  0  0
 37 31  1  0  0  0  0
M  END
>  <minimizedAffinity>
-5.99591064

$$$$

 OpenBabel03242511303D

 37 41  0  0  0  0  0  0  0  0999 V2000
   39.1590   29.1130   41.2510 Cl  0  0  0  0  0  0  0  0  0  0  0  0
   37.8970   29.2110   40.0720 C   0  0  0  0  0  0  0  0  0  0  0  0
   37.1810   28.0900   39.7380 C   0  0  0  0  0  0  0  0  0  0  0  0
   36.1530   28.1220   38.7940 C   0  0  0  0  0  0  0  0  0  0  0  0
   35.9070   29.3510   38.2200 C   0  0  0  0  0  0  0  0  0  0  0  0
   36.6140   30.4590   38.5490 C   0  0  0  0  0  0  0  0  0  0  0  0
   37.6200   30.4090   39.4810 C   0  0  0  0  0  0  0  0  0  0  0  0
   35.6240   27.2050   38.5710 H   0  0  0  0  0  0  0  0  0  0  0  0
   35.1050   29.3780   37.4810 H   0  0  0  0  0  0  0  0  0  0  0  0
   36.3350   31.3750   38.0350 H   0  0  0  0  0  0  0  0  0  0  0  0
   38.2950   31.6900   39.7310 C   0  0  0  0  0  0  0  0  0  0  0  0
   37.5210   32.7920   40.0830 C   0  0  0  0  0  0  0  0  0  0  0  0
   38.7700   34.1480   40.2950 S   0  0  0  0  0  0  0  0  0  0  0  0
   40.1510   32.9270   39.8530 C   0  0  0  0  0  0  0  0  0  0  0  0
   39.5590   31.9950   39.6800 N   0  0  0  0  0  0  0  0  0  0  0  0
   36.4340   32.8750   40.2130 H   0  0  0  0  0  0  0  0  0  0  0  0
   41.6240   33.1070   39.7490 N   0  0  0  0  0  0  0  0  0  0  0  0
   42.4520   33.7610   40.5670 C   0  0  0  0  0  0  0  0  0  0  0  0
   42.0250   34.2440   41.4450 H   0  0  0  0  0  0  0  0  0  0  0  0
   43.6790   33.6380   40.0480 N   0  0  0  0  0  0  0  0  0  0  0  0
   43.5670   32.9030   38.9140 C   0  0  0  0  0  0  0  0  0  0  0  0
   44.5260   32.4790   37.9870 C   0  0  0  0  0  0  0  0  0  0  0  0
   45.5730   32.7550   38.1490 H   0  0  0  0  0  0  0  0  0  0  0  0
   44.1790   31.7350   36.9010 N   0  0  0  0  0  0  0  0  0  0  0  0
   42.8740   31.4090   36.7270 C   0  0  0  0  0  0  0  0  0  0  0  0
   42.6290   30.8180   35.8550 H   0  0  0  0  0  0  0  0  0  0  0  0
   41.9350   31.8190   37.6240 N   0  0  0  0  0  0  0  0  0  0  0  0
   42.2510   32.5500   38.7020 C   0  0  0  0  0  0  0  0  0  0  0  0
   38.6600   24.7810   40.4290 C   0  0  0  0  0  0  0  0  0  0  0  0
   38.0620   24.4330   41.6310 C   0  0  0  0  0  0  0  0  0  0  0  0
   37.1670   25.3090   42.2050 C   0  0  0  0  0  0  0  0  0  0  0  0
   36.9090   26.4770   41.5650 N   0  0  0  0  0  0  0  0  0  0  0  0
   37.4970   26.8100   40.3900 C   0  0  0  0  0  0  0  0  0  0  0  0
   38.3650   25.9580   39.8370 N   0  0  0  0  0  0  0  0  0  0  0  0
   39.3480   24.0570   40.0320 H   0  0  0  0  0  0  0  0  0  0  0  0
   38.2070   23.5320   42.2060 H   0  0  0  0  0  0  0  0  0  0  0  0
   36.6080   25.2130   43.1280 H   0  0  0  0  0  0  0  0  0  0  0  0
  2  1  1  0  0  0  0
  3  2  1  0  0  0  0
  3 33  1  0  0  0  0
  4  3  2  0  0  0  0
  5  6  2  0  0  0  0
  5  4  1  0  0  0  0
  6  7  1  0  0  0  0
  7 11  1  0  0  0  0
  7  2  2  0  0  0  0
  8  4  1  0  0  0  0
  9  5  1  0  0  0  0
 10  6  1  0  0  0  0
 11 12  2  0  0  0  0
 12 16  1  0  0  0  0
 12 13  1  0  0  0  0
 14 13  1  0  0  0  0
 15 11  1  0  0  0  0
 15 14  2  0  0  0  0
 17 14  1  0  0  0  0
 17 18  1  0  0  0  0
 18 19  1  0  0  0  0
 20 18  2  0  0  0  0
 21 20  1  0  0  0  0
 22 23  1  0  0  0  0
 22 21  2  0  0  0  0
 24 22  1  0  0  0  0
 25 24  2  0  0  0  0
 25 27  1  0  0  0  0
 26 25  1  0  0  0  0
 27 28  2  0  0  0  0
 28 21  1  0  0  0  0
 28 17  1  0  0  0  0
 29 30  1  0  0  0  0
 30 31  2  0  0  0  0
 30 36  1  0  0  0  0
 31 37  1  0  0  0  0
 32 31  1  0  0  0  0
 33 32  2  0  0  0  0
 34 33  1  0  0  0  0
 34 29  2  0  0  0  0
 35 29  1  0  0  0  0
M  END
>  <minimizedAffinity>
-5.88134575

$$$$

 OpenBabel03242511303D

 37 41  0  0  0  0  0  0  0  0999 V2000
   37.3370   31.1990   37.0090 Cl  0  0  0  0  0  0  0  0  0  0  0  0
   36.4680   30.4610   38.3110 C   0  0  0  0  0  0  0  0  0  0  0  0
   36.7090   30.8520   39.6030 C   0  0  0  0  0  0  0  0  0  0  0  0
   36.0310   30.2860   40.6850 C   0  0  0  0  0  0  0  0  0  0  0  0
   35.1080   29.3120   40.3690 C   0  0  0  0  0  0  0  0  0  0  0  0
   34.8710   28.9250   39.0930 C   0  0  0  0  0  0  0  0  0  0  0  0
   35.5450   29.4940   38.0410 C   0  0  0  0  0  0  0  0  0  0  0  0
   36.2630   30.6340   41.6830 H   0  0  0  0  0  0  0  0  0  0  0  0
   34.5780   28.8680   41.2140 H   0  0  0  0  0  0  0  0  0  0  0  0
   34.1220   28.1500   38.9580 H   0  0  0  0  0  0  0  0  0  0  0  0
   35.1800   28.9720   36.7170 C   0  0  0  0  0  0  0  0  0  0  0  0
   36.1790   28.4210   35.9200 C   0  0  0  0  0  0  0  0  0  0  0  0
   35.2720   27.9080   34.3830 S   0  0  0  0  0  0  0  0  0  0  0  0
   33.6580   28.5560   35.1360 C   0  0  0  0  0  0  0  0  0  0  0  0
   34.0220   28.9290   36.1240 N   0  0  0  0  0  0  0  0  0  0  0  0
   37.2520   28.3040   36.1190 H   0  0  0  0  0  0  0  0  0  0  0  0
   32.2690   28.5860   34.6030 N   0  0  0  0  0  0  0  0  0  0  0  0
   31.5960   27.6310   33.9560 C   0  0  0  0  0  0  0  0  0  0  0  0
   32.1010   26.6840   33.7730 H   0  0  0  0  0  0  0  0  0  0  0  0
   30.3860   28.1350   33.6830 N   0  0  0  0  0  0  0  0  0  0  0  0
   30.3530   29.3970   34.1780 C   0  0  0  0  0  0  0  0  0  0  0  0
   29.3430   30.3670   34.1710 C   0  0  0  0  0  0  0  0  0  0  0  0
   28.3850   30.1270   33.6990 H   0  0  0  0  0  0  0  0  0  0  0  0
   29.5350   31.5900   34.7380 N   0  0  0  0  0  0  0  0  0  0  0  0
   30.7320   31.8590   35.3150 C   0  0  0  0  0  0  0  0  0  0  0  0
   30.8550   32.8380   35.7560 H   0  0  0  0  0  0  0  0  0  0  0  0
   31.7190   30.9190   35.3250 N   0  0  0  0  0  0  0  0  0  0  0  0
   31.5560   29.7080   34.7740 C   0  0  0  0  0  0  0  0  0  0  0  0
   38.2720   34.1560   40.1060 C   0  0  0  0  0  0  0  0  0  0  0  0
   39.5930   33.8230   40.3660 C   0  0  0  0  0  0  0  0  0  0  0  0
   39.9530   32.4940   40.3720 C   0  0  0  0  0  0  0  0  0  0  0  0
   38.9960   31.5660   40.1220 N   0  0  0  0  0  0  0  0  0  0  0  0
   37.7070   31.8980   39.8690 C   0  0  0  0  0  0  0  0  0  0  0  0
   37.3610   33.1890   39.8640 N   0  0  0  0  0  0  0  0  0  0  0  0
   38.0530   35.2080   40.1150 H   0  0  0  0  0  0  0  0  0  0  0  0
   40.4150   34.4900   40.5740 H   0  0  0  0  0  0  0  0  0  0  0  0
   40.9240   32.0460   40.5530 H   0  0  0  0  0  0  0  0  0  0  0  0
  1  2  1  0  0  0  0
  2  3  1  0  0  0  0
  3 33  1  0  0  0  0
  3  4  2  0  0  0  0
  4  8  1  0  0  0  0
  5  4  1  0  0  0  0
  5  9  1  0  0  0  0
  6  5  2  0  0  0  0
  7  2  2  0  0  0  0
  7  6  1  0  0  0  0
 10  6  1  0  0  0  0
 11  7  1  0  0  0  0
 12 16  1  0  0  0  0
 12 11  2  0  0  0  0
 13 14  1  0  0  0  0
 13 12  1  0  0  0  0
 14 15  2  0  0  0  0
 15 11  1  0  0  0  0
 17 28  1  0  0  0  0
 17 14  1  0  0  0  0
 18 17  1  0  0  0  0
 19 18  1  0  0  0  0
 20 18  2  0  0  0  0
 20 21  1  0  0  0  0
 21 28  1  0  0  0  0
 22 21  2  0  0  0  0
 22 24  1  0  0  0  0
 23 22  1  0  0  0  0
 24 25  2  0  0  0  0
 25 27  1  0  0  0  0
 25 26  1  0  0  0  0
 28 27  2  0  0  0  0
 29 35  1  0  0  0  0
 29 30  1  0  0  0  0
 30 31  2  0  0  0  0
 30 36  1  0  0  0  0
 31 37  1  0  0  0  0
 32 31  1  0  0  0  0
 33 32  2  0  0  0  0
 34 33  1  0  0  0  0
 34 29  2  0  0  0  0
M  END
>  <minimizedAffinity>
-5.83812571

$$$$

 OpenBabel03242511303D

 37 41  0  0  0  0  0  0  0  0999 V2000
   40.6890   30.2050   40.5710 Cl  0  0  0  0  0  0  0  0  0  0  0  0
   39.1450   30.8470   40.1270 C   0  0  0  0  0  0  0  0  0  0  0  0
   39.0680   31.9170   39.2720 C   0  0  0  0  0  0  0  0  0  0  0  0
   37.8440   32.4680   38.8850 C   0  0  0  0  0  0  0  0  0  0  0  0
   36.7230   31.8680   39.4190 C   0  0  0  0  0  0  0  0  0  0  0  0
   36.7990   30.8120   40.2640 C   0  0  0  0  0  0  0  0  0  0  0  0
   38.0100   30.2820   40.6320 C   0  0  0  0  0  0  0  0  0  0  0  0
   37.8460   33.3110   38.2080 H   0  0  0  0  0  0  0  0  0  0  0  0
   35.7660   32.2980   39.1180 H   0  0  0  0  0  0  0  0  0  0  0  0
   35.8530   30.4180   40.6230 H   0  0  0  0  0  0  0  0  0  0  0  0
   37.9310   29.1410   41.5530 C   0  0  0  0  0  0  0  0  0  0  0  0
   37.8660   29.3920   42.9210 C   0  0  0  0  0  0  0  0  0  0  0  0
   37.7810   27.6950   43.6690 S   0  0  0  0  0  0  0  0  0  0  0  0
   37.8500   26.9400   41.9320 C   0  0  0  0  0  0  0  0  0  0  0  0
   37.9090   27.8630   41.3040 N   0  0  0  0  0  0  0  0  0  0  0  0
   37.8650   30.3480   43.4610 H   0  0  0  0  0  0  0  0  0  0  0  0
   37.8360   25.5250   41.4750 N   0  0  0  0  0  0  0  0  0  0  0  0
   37.0710   24.5140   41.8940 C   0  0  0  0  0  0  0  0  0  0  0  0
   36.3440   24.7150   42.6800 H   0  0  0  0  0  0  0  0  0  0  0  0
   37.4320   23.4400   41.1810 N   0  0  0  0  0  0  0  0  0  0  0  0
   38.4180   23.8290   40.3360 C   0  0  0  0  0  0  0  0  0  0  0  0
   39.1500   23.1180   39.3770 C   0  0  0  0  0  0  0  0  0  0  0  0
   38.9360   22.0540   39.2340 H   0  0  0  0  0  0  0  0  0  0  0  0
   40.1110   23.7250   38.6290 N   0  0  0  0  0  0  0  0  0  0  0  0
   40.3540   25.0440   38.8280 C   0  0  0  0  0  0  0  0  0  0  0  0
   41.1240   25.4980   38.2190 H   0  0  0  0  0  0  0  0  0  0  0  0
   39.6460   25.7420   39.7590 N   0  0  0  0  0  0  0  0  0  0  0  0
   38.6940   25.1690   40.5080 C   0  0  0  0  0  0  0  0  0  0  0  0
   41.9800   32.5910   37.1100 C   0  0  0  0  0  0  0  0  0  0  0  0
   42.6110   33.6300   37.7760 C   0  0  0  0  0  0  0  0  0  0  0  0
   42.0580   34.1010   38.9470 C   0  0  0  0  0  0  0  0  0  0  0  0
   40.9160   33.5230   39.3970 N   0  0  0  0  0  0  0  0  0  0  0  0
   40.3050   32.5080   38.7400 C   0  0  0  0  0  0  0  0  0  0  0  0
   40.8450   32.0540   37.6050 N   0  0  0  0  0  0  0  0  0  0  0  0
   42.4590   32.2680   36.2030 H   0  0  0  0  0  0  0  0  0  0  0  0
   43.5150   34.1460   37.4930 H   0  0  0  0  0  0  0  0  0  0  0  0
   42.4020   34.8950   39.5980 H   0  0  0  0  0  0  0  0  0  0  0  0
  2  1  1  0  0  0  0
  2  7  1  0  0  0  0
  3  2  2  0  0  0  0
  4  3  1  0  0  0  0
  4  5  2  0  0  0  0
  5  6  1  0  0  0  0
  6 10  1  0  0  0  0
  6  7  2  0  0  0  0
  7 11  1  0  0  0  0
  8  4  1  0  0  0  0
  9  5  1  0  0  0  0
 11 12  2  0  0  0  0
 12 16  1  0  0  0  0
 12 13  1  0  0  0  0
 14 13  1  0  0  0  0
 15 11  1  0  0  0  0
 15 14  2  0  0  0  0
 17 18  1  0  0  0  0
 17 14  1  0  0  0  0
 18 19  1  0  0  0  0
 20 18  2  0  0  0  0
 21 28  1  0  0  0  0
 21 20  1  0  0  0  0
 22 21  2  0  0  0  0
 23 22  1  0  0  0  0
 24 25  2  0  0  0  0
 24 22  1  0  0  0  0
 25 27  1  0  0  0  0
 26 25  1  0  0  0  0
 27 28  2  0  0  0  0
 28 17  1  0  0  0  0
 29 34  2  0  0  0  0
 29 30  1  0  0  0  0
 30 31  2  0  0  0  0
 31 32  1  0  0  0  0
 31 37  1  0  0  0  0
 33  3  1  0  0  0  0
 33 32  2  0  0  0  0
 34 33  1  0  0  0  0
 35 29  1  0  0  0  0
 36 30  1  0  0  0  0
M  END
>  <minimizedAffinity>
-5.83626175

$$$$

 OpenBabel03242511303D

 37 41  0  0  0  0  0  0  0  0999 V2000
   40.0350   25.8270   40.5560 Cl  0  0  0  0  0  0  0  0  0  0  0  0
   38.8230   26.3670   41.6660 C   0  0  0  0  0  0  0  0  0  0  0  0
   37.6110   25.7270   41.7220 C   0  0  0  0  0  0  0  0  0  0  0  0
   36.6030   26.1260   42.6030 C   0  0  0  0  0  0  0  0  0  0  0  0
   36.9070   27.2030   43.4090 C   0  0  0  0  0  0  0  0  0  0  0  0
   38.1040   27.8350   43.3540 C   0  0  0  0  0  0  0  0  0  0  0  0
   39.0830   27.4280   42.4830 C   0  0  0  0  0  0  0  0  0  0  0  0
   35.6680   25.5840   42.6010 H   0  0  0  0  0  0  0  0  0  0  0  0
   36.1200   27.5170   44.0970 H   0  0  0  0  0  0  0  0  0  0  0  0
   38.2360   28.6710   44.0350 H   0  0  0  0  0  0  0  0  0  0  0  0
   40.3250   28.2100   42.5400 C   0  0  0  0  0  0  0  0  0  0  0  0
   41.3130   27.8260   43.4410 C   0  0  0  0  0  0  0  0  0  0  0  0
   42.6610   29.0730   43.1640 S   0  0  0  0  0  0  0  0  0  0  0  0
   41.5980   29.9060   41.8350 C   0  0  0  0  0  0  0  0  0  0  0  0
   40.6870   29.2580   41.8570 N   0  0  0  0  0  0  0  0  0  0  0  0
   41.3260   26.9940   44.1580 H   0  0  0  0  0  0  0  0  0  0  0  0
   41.8540   31.0920   40.9740 N   0  0  0  0  0  0  0  0  0  0  0  0
   42.9630   31.4250   40.3090 C   0  0  0  0  0  0  0  0  0  0  0  0
   43.8230   30.7600   40.3840 H   0  0  0  0  0  0  0  0  0  0  0  0
   42.7010   32.5780   39.6810 N   0  0  0  0  0  0  0  0  0  0  0  0
   41.4240   32.9200   39.9820 C   0  0  0  0  0  0  0  0  0  0  0  0
   40.6460   34.0190   39.5980 C   0  0  0  0  0  0  0  0  0  0  0  0
   41.0880   34.7720   38.9380 H   0  0  0  0  0  0  0  0  0  0  0  0
   39.3630   34.1610   40.0300 N   0  0  0  0  0  0  0  0  0  0  0  0
   38.8430   33.2120   40.8470 C   0  0  0  0  0  0  0  0  0  0  0  0
   37.8220   33.3530   41.1740 H   0  0  0  0  0  0  0  0  0  0  0  0
   39.5940   32.1400   41.2250 N   0  0  0  0  0  0  0  0  0  0  0  0
   40.8590   31.9770   40.8140 C   0  0  0  0  0  0  0  0  0  0  0  0
   36.3400   23.6780   38.9300 C   0  0  0  0  0  0  0  0  0  0  0  0
   36.8960   22.4350   39.1960 C   0  0  0  0  0  0  0  0  0  0  0  0
   37.6940   22.2900   40.3090 C   0  0  0  0  0  0  0  0  0  0  0  0
   37.9020   23.3740   41.0980 N   0  0  0  0  0  0  0  0  0  0  0  0
   37.3550   24.5850   40.8320 C   0  0  0  0  0  0  0  0  0  0  0  0
   36.5810   24.7210   39.7510 N   0  0  0  0  0  0  0  0  0  0  0  0
   35.7270   23.7270   38.0480 H   0  0  0  0  0  0  0  0  0  0  0  0
   36.7870   21.5250   38.6270 H   0  0  0  0  0  0  0  0  0  0  0  0
   38.2090   21.4100   40.6750 H   0  0  0  0  0  0  0  0  0  0  0  0
  1  2  1  0  0  0  0
  2  3  2  0  0  0  0
  2  7  1  0  0  0  0
  3  4  1  0  0  0  0
  4  5  2  0  0  0  0
  5  9  1  0  0  0  0
  6  5  1  0  0  0  0
  6 10  1  0  0  0  0
  7 11  1  0  0  0  0
  7  6  2  0  0  0  0
  8  4  1  0  0  0  0
 11 12  2  0  0  0  0
 12 16  1  0  0  0  0
 13 12  1  0  0  0  0
 14 15  2  0  0  0  0
 14 13  1  0  0  0  0
 15 11  1  0  0  0  0
 17 14  1  0  0  0  0
 18 19  1  0  0  0  0
 18 17  1  0  0  0  0
 20 21  1  0  0  0  0
 20 18  2  0  0  0  0
 21 28  1  0  0  0  0
 22 21  2  0  0  0  0
 22 24  1  0  0  0  0
 23 22  1  0  0  0  0
 24 25  2  0  0  0  0
 25 26  1  0  0  0  0
 25 27  1  0  0  0  0
 28 17  1  0  0  0  0
 28 27  2  0  0  0  0
 29 30  2  0  0  0  0
 29 34  1  0  0  0  0
 30 31  1  0  0  0  0
 31 37  1  0  0  0  0
 31 32  2  0  0  0  0
 33 32  1  0  0  0  0
 33  3  1  0  0  0  0
 34 33  2  0  0  0  0
 35 29  1  0  0  0  0
 36 30  1  0  0  0  0
M  END
>  <minimizedAffinity>
-5.80738688

$$$$

 OpenBabel03242511303D

 37 41  0  0  0  0  0  0  0  0999 V2000
   39.4460   27.9470   39.6620 Cl  0  0  0  0  0  0  0  0  0  0  0  0
   38.0350   28.8710   40.0500 C   0  0  0  0  0  0  0  0  0  0  0  0
   36.9210   28.2450   40.5460 C   0  0  0  0  0  0  0  0  0  0  0  0
   35.7610   28.9500   40.8750 C   0  0  0  0  0  0  0  0  0  0  0  0
   35.8100   30.3120   40.6670 C   0  0  0  0  0  0  0  0  0  0  0  0
   36.9110   30.9310   40.1760 C   0  0  0  0  0  0  0  0  0  0  0  0
   38.0430   30.2220   39.8600 C   0  0  0  0  0  0  0  0  0  0  0  0
   34.9120   28.4020   41.2620 H   0  0  0  0  0  0  0  0  0  0  0  0
   34.9040   30.8640   40.9220 H   0  0  0  0  0  0  0  0  0  0  0  0
   36.8400   32.0080   40.0530 H   0  0  0  0  0  0  0  0  0  0  0  0
   39.1530   31.0310   39.3400 C   0  0  0  0  0  0  0  0  0  0  0  0
   39.2390   31.2380   37.9660 C   0  0  0  0  0  0  0  0  0  0  0  0
   40.7590   32.2880   37.7810 S   0  0  0  0  0  0  0  0  0  0  0  0
   40.9990   32.2490   39.6600 C   0  0  0  0  0  0  0  0  0  0  0  0
   40.1260   31.6230   39.9700 N   0  0  0  0  0  0  0  0  0  0  0  0
   38.5850   30.8810   37.1590 H   0  0  0  0  0  0  0  0  0  0  0  0
   42.0390   32.8600   40.5300 N   0  0  0  0  0  0  0  0  0  0  0  0
   42.5630   34.0870   40.4800 C   0  0  0  0  0  0  0  0  0  0  0  0
   42.2040   34.7640   39.7060 H   0  0  0  0  0  0  0  0  0  0  0  0
   43.4600   34.1610   41.4700 N   0  0  0  0  0  0  0  0  0  0  0  0
   43.4590   32.9630   42.1060 C   0  0  0  0  0  0  0  0  0  0  0  0
   44.1960   32.4970   43.2010 C   0  0  0  0  0  0  0  0  0  0  0  0
   44.9200   33.1690   43.6740 H   0  0  0  0  0  0  0  0  0  0  0  0
   44.0280   31.2340   43.6800 N   0  0  0  0  0  0  0  0  0  0  0  0
   43.1250   30.4240   43.0730 C   0  0  0  0  0  0  0  0  0  0  0  0
   43.0130   29.4270   43.4750 H   0  0  0  0  0  0  0  0  0  0  0  0
   42.4040   30.8720   42.0070 N   0  0  0  0  0  0  0  0  0  0  0  0
   42.5510   32.1100   41.5170 C   0  0  0  0  0  0  0  0  0  0  0  0
   36.6000   24.6230   39.9270 C   0  0  0  0  0  0  0  0  0  0  0  0
   36.9780   24.0780   41.1450 C   0  0  0  0  0  0  0  0  0  0  0  0
   37.3380   24.9270   42.1680 C   0  0  0  0  0  0  0  0  0  0  0  0
   37.3070   26.2630   41.9370 N   0  0  0  0  0  0  0  0  0  0  0  0
   36.9370   26.7880   40.7440 C   0  0  0  0  0  0  0  0  0  0  0  0
   36.5880   25.9610   39.7540 N   0  0  0  0  0  0  0  0  0  0  0  0
   36.3310   23.9090   39.1690 H   0  0  0  0  0  0  0  0  0  0  0  0
   37.0320   23.0350   41.4160 H   0  0  0  0  0  0  0  0  0  0  0  0
   37.6580   24.6900   43.1760 H   0  0  0  0  0  0  0  0  0  0  0  0
  1  2  1  0  0  0  0
  2  3  1  0  0  0  0
  3 33  1  0  0  0  0
  3  4  2  0  0  0  0
  4  8  1  0  0  0  0
  5  4  1  0  0  0  0
  5  9  1  0  0  0  0
  6  5  2  0  0  0  0
  7  2  2  0  0  0  0
  7  6  1  0  0  0  0
 10  6  1  0  0  0  0
 11  7  1  0  0  0  0
 11 15  1  0  0  0  0
 12 11  2  0  0  0  0
 13 12  1  0  0  0  0
 13 14  1  0  0  0  0
 14 15  2  0  0  0  0
 14 17  1  0  0  0  0
 16 12  1  0  0  0  0
 17 28  1  0  0  0  0
 18 17  1  0  0  0  0
 18 20  2  0  0  0  0
 19 18  1  0  0  0  0
 20 21  1  0  0  0  0
 21 22  1  0  0  0  0
 22 23  1  0  0  0  0
 22 24  2  0  0  0  0
 25 26  1  0  0  0  0
 25 24  1  0  0  0  0
 27 25  2  0  0  0  0
 28 27  1  0  0  0  0
 28 21  2  0  0  0  0
 29 30  1  0  0  0  0
 30 36  1  0  0  0  0
 30 31  2  0  0  0  0
 31 37  1  0  0  0  0
 32 31  1  0  0  0  0
 33 32  2  0  0  0  0
 34 29  2  0  0  0  0
 34 33  1  0  0  0  0
 35 29  1  0  0  0  0
M  END
>  <minimizedAffinity>
-5.79617405

$$$$

 OpenBabel03242511303D

 37 41  0  0  0  0  0  0  0  0999 V2000
   35.7140   29.6370   39.0900 Cl  0  0  0  0  0  0  0  0  0  0  0  0
   35.8860   27.9170   39.0040 C   0  0  0  0  0  0  0  0  0  0  0  0
   35.3300   27.2250   37.9600 C   0  0  0  0  0  0  0  0  0  0  0  0
   35.4440   25.8370   37.8480 C   0  0  0  0  0  0  0  0  0  0  0  0
   36.1500   25.2130   38.8550 C   0  0  0  0  0  0  0  0  0  0  0  0
   36.6990   25.8970   39.8870 C   0  0  0  0  0  0  0  0  0  0  0  0
   36.5780   27.2610   39.9800 C   0  0  0  0  0  0  0  0  0  0  0  0
   34.9840   25.3450   37.0020 H   0  0  0  0  0  0  0  0  0  0  0  0
   36.2390   24.1280   38.7700 H   0  0  0  0  0  0  0  0  0  0  0  0
   37.2340   25.3050   40.6240 H   0  0  0  0  0  0  0  0  0  0  0  0
   37.2260   27.8610   41.1540 C   0  0  0  0  0  0  0  0  0  0  0  0
   36.8200   27.4510   42.4200 C   0  0  0  0  0  0  0  0  0  0  0  0
   37.8870   28.4520   43.5630 S   0  0  0  0  0  0  0  0  0  0  0  0
   38.7110   29.2620   42.0610 C   0  0  0  0  0  0  0  0  0  0  0  0
   38.1670   28.7570   41.2250 N   0  0  0  0  0  0  0  0  0  0  0  0
   36.0560   26.7170   42.7100 H   0  0  0  0  0  0  0  0  0  0  0  0
   39.7830   30.2880   41.9640 N   0  0  0  0  0  0  0  0  0  0  0  0
   40.9250   30.3790   42.6510 C   0  0  0  0  0  0  0  0  0  0  0  0
   41.1350   29.6130   43.3960 H   0  0  0  0  0  0  0  0  0  0  0  0
   41.5530   31.4740   42.2050 N   0  0  0  0  0  0  0  0  0  0  0  0
   40.7690   32.0280   41.2470 C   0  0  0  0  0  0  0  0  0  0  0  0
   40.9400   33.1720   40.4580 C   0  0  0  0  0  0  0  0  0  0  0  0
   41.8480   33.7710   40.5890 H   0  0  0  0  0  0  0  0  0  0  0  0
   40.0050   33.5450   39.5420 N   0  0  0  0  0  0  0  0  0  0  0  0
   38.8920   32.7840   39.4030 C   0  0  0  0  0  0  0  0  0  0  0  0
   38.1670   33.1050   38.6680 H   0  0  0  0  0  0  0  0  0  0  0  0
   38.7190   31.6690   40.1670 N   0  0  0  0  0  0  0  0  0  0  0  0
   39.6240   31.2800   41.0750 C   0  0  0  0  0  0  0  0  0  0  0  0
   34.5440   29.0880   34.8740 C   0  0  0  0  0  0  0  0  0  0  0  0
   33.1820   29.3130   35.0010 C   0  0  0  0  0  0  0  0  0  0  0  0
   32.5330   28.8390   36.1200 C   0  0  0  0  0  0  0  0  0  0  0  0
   33.2590   28.1710   37.0510 N   0  0  0  0  0  0  0  0  0  0  0  0
   34.5900   27.9550   36.9200 C   0  0  0  0  0  0  0  0  0  0  0  0
   35.2160   28.4160   35.8330 N   0  0  0  0  0  0  0  0  0  0  0  0
   34.9930   29.4810   33.9800 H   0  0  0  0  0  0  0  0  0  0  0  0
   32.5300   29.8300   34.3150 H   0  0  0  0  0  0  0  0  0  0  0  0
   31.4860   28.9160   36.3910 H   0  0  0  0  0  0  0  0  0  0  0  0
  2  1  1  0  0  0  0
  2  7  1  0  0  0  0
  3  2  2  0  0  0  0
  4  3  1  0  0  0  0
  4  5  2  0  0  0  0
  5  6  1  0  0  0  0
  6  7  2  0  0  0  0
  6 10  1  0  0  0  0
  7 11  1  0  0  0  0
  8  4  1  0  0  0  0
  9  5  1  0  0  0  0
 11 15  1  0  0  0  0
 11 12  2  0  0  0  0
 12 16  1  0  0  0  0
 12 13  1  0  0  0  0
 14 13  1  0  0  0  0
 15 14  2  0  0  0  0
 17 14  1  0  0  0  0
 17 18  1  0  0  0  0
 18 19  1  0  0  0  0
 20 18  2  0  0  0  0
 21 20  1  0  0  0  0
 22 23  1  0  0  0  0
 22 21  2  0  0  0  0
 24 22  1  0  0  0  0
 25 24  2  0  0  0  0
 25 27  1  0  0  0  0
 26 25  1  0  0  0  0
 27 28  2  0  0  0  0
 28 21  1  0  0  0  0
 28 17  1  0  0  0  0
 29 30  2  0  0  0  0
 29 34  1  0  0  0  0
 30 31  1  0  0  0  0
 31 37  1  0  0  0  0
 31 32  2  0  0  0  0
 33 32  1  0  0  0  0
 33  3  1  0  0  0  0
 34 33  2  0  0  0  0
 35 29  1  0  0  0  0
 36 30  1  0  0  0  0
M  END
>  <minimizedAffinity>
-5.68963766

$$$$

 OpenBabel03242511303D

 37 41  0  0  0  0  0  0  0  0999 V2000
   33.7760   28.9190   38.7290 Cl  0  0  0  0  0  0  0  0  0  0  0  0
   34.7730   29.1840   37.3410 C   0  0  0  0  0  0  0  0  0  0  0  0
   34.3030   28.8750   36.0900 C   0  0  0  0  0  0  0  0  0  0  0  0
   35.0720   29.0730   34.9410 C   0  0  0  0  0  0  0  0  0  0  0  0
   36.3310   29.5970   35.1470 C   0  0  0  0  0  0  0  0  0  0  0  0
   36.7950   29.9010   36.3830 C   0  0  0  0  0  0  0  0  0  0  0  0
   36.0250   29.7010   37.5010 C   0  0  0  0  0  0  0  0  0  0  0  0
   34.6480   28.8110   33.9810 H   0  0  0  0  0  0  0  0  0  0  0  0
   36.9330   29.7520   34.2510 H   0  0  0  0  0  0  0  0  0  0  0  0
   37.8010   30.3090   36.4290 H   0  0  0  0  0  0  0  0  0  0  0  0
   36.6650   30.0790   38.7680 C   0  0  0  0  0  0  0  0  0  0  0  0
   36.9630   31.4210   38.9890 C   0  0  0  0  0  0  0  0  0  0  0  0
   37.7410   31.4200   40.6750 S   0  0  0  0  0  0  0  0  0  0  0  0
   37.5070   29.5410   40.7670 C   0  0  0  0  0  0  0  0  0  0  0  0
   37.0220   29.3420   39.7790 N   0  0  0  0  0  0  0  0  0  0  0  0
   36.7950   32.2940   38.3450 H   0  0  0  0  0  0  0  0  0  0  0  0
   37.8530   28.5600   41.8290 N   0  0  0  0  0  0  0  0  0  0  0  0
   37.6830   28.6550   43.1500 C   0  0  0  0  0  0  0  0  0  0  0  0
   37.2300   29.5650   43.5430 H   0  0  0  0  0  0  0  0  0  0  0  0
   38.1520   27.5180   43.6790 N   0  0  0  0  0  0  0  0  0  0  0  0
   38.6000   26.7500   42.6550 C   0  0  0  0  0  0  0  0  0  0  0  0
   39.1830   25.4780   42.6390 C   0  0  0  0  0  0  0  0  0  0  0  0
   39.3310   24.9540   43.5890 H   0  0  0  0  0  0  0  0  0  0  0  0
   39.5630   24.8900   41.4710 N   0  0  0  0  0  0  0  0  0  0  0  0
   39.3680   25.5630   40.3110 C   0  0  0  0  0  0  0  0  0  0  0  0
   39.6800   25.0710   39.4000 H   0  0  0  0  0  0  0  0  0  0  0  0
   38.8010   26.8020   40.3190 N   0  0  0  0  0  0  0  0  0  0  0  0
   38.4170   27.4020   41.4540 C   0  0  0  0  0  0  0  0  0  0  0  0
   31.5140   26.4800   35.7900 C   0  0  0  0  0  0  0  0  0  0  0  0
   30.4150   27.3160   35.6660 C   0  0  0  0  0  0  0  0  0  0  0  0
   30.6140   28.6800   35.6830 C   0  0  0  0  0  0  0  0  0  0  0  0
   31.8810   29.1440   35.8220 N   0  0  0  0  0  0  0  0  0  0  0  0
   32.9500   28.3190   35.9430 C   0  0  0  0  0  0  0  0  0  0  0  0
   32.7520   26.9980   35.9260 N   0  0  0  0  0  0  0  0  0  0  0  0
   31.2940   25.4280   35.7700 H   0  0  0  0  0  0  0  0  0  0  0  0
   29.3790   27.0380   35.5520 H   0  0  0  0  0  0  0  0  0  0  0  0
   29.8890   29.4810   35.6000 H   0  0  0  0  0  0  0  0  0  0  0  0
  2  7  1  0  0  0  0
  2  1  1  0  0  0  0
  3  2  2  0  0  0  0
  4  5  2  0  0  0  0
  4  3  1  0  0  0  0
  5  6  1  0  0  0  0
  6 10  1  0  0  0  0
  6  7  2  0  0  0  0
  7 11  1  0  0  0  0
  8  4  1  0  0  0  0
  9  5  1  0  0  0  0
 11 12  2  0  0  0  0
 11 15  1  0  0  0  0
 12 13  1  0  0  0  0
 13 14  1  0  0  0  0
 14 17  1  0  0  0  0
 15 14  2  0  0  0  0
 16 12  1  0  0  0  0
 17 18  1  0  0  0  0
 18 19  1  0  0  0  0
 18 20  2  0  0  0  0
 21 20  1  0  0  0  0
 22 21  1  0  0  0  0
 22 23  1  0  0  0  0
 24 22  2  0  0  0  0
 25 27  2  0  0  0  0
 25 24  1  0  0  0  0
 26 25  1  0  0  0  0
 27 28  1  0  0  0  0
 28 17  1  0  0  0  0
 28 21  2  0  0  0  0
 29 34  1  0  0  0  0
 30 31  1  0  0  0  0
 30 29  2  0  0  0  0
 31 32  2  0  0  0  0
 32 33  1  0  0  0  0
 33  3  1  0  0  0  0
 34 33  2  0  0  0  0
 35 29  1  0  0  0  0
 36 30  1  0  0  0  0
 37 31  1  0  0  0  0
M  END
>  <minimizedAffinity>
-5.63475037

$$$$
