
 OpenBabel03252508293D

 42 46  0  0  1  0  0  0  0  0999 V2000
   42.7000   33.0210   40.1750 N   0  0  0  0  0  0  0  0  0  0  0  0
   42.4750   33.9980   41.2460 C   0  0  2  0  0  0  0  0  0  0  0  0
   41.6920   35.1770   40.7870 C   0  0  0  0  0  0  0  0  0  0  0  0
   41.0880   34.9690   39.4850 N   0  0  0  0  0  0  0  0  0  0  0  0
   41.9770   34.5100   38.4820 C   0  0  0  0  0  0  0  0  0  0  0  0
   43.2020   33.8360   39.0440 C   0  0  2  0  0  0  0  0  0  0  0  0
   41.7510   32.6430   39.9120 H   0  0  0  0  0  0  0  0  0  0  0  0
   41.9720   33.5010   42.0890 H   0  0  0  0  0  0  0  0  0  0  0  0
   42.2590   36.1060   40.6010 H   0  0  0  0  0  0  0  0  0  0  0  0
   40.8220   35.4080   41.4690 H   0  0  0  0  0  0  0  0  0  0  0  0
   40.6470   35.8610   39.1810 H   0  0  0  0  0  0  0  0  0  0  0  0
   42.2430   35.2620   37.7320 H   0  0  0  0  0  0  0  0  0  0  0  0
   41.4320   33.7070   37.9050 H   0  0  0  0  0  0  0  0  0  0  0  0
   43.8290   34.6560   39.4650 H   0  0  0  0  0  0  0  0  0  0  0  0
   43.9230   33.0540   38.0990 N   0  0  0  0  0  0  0  0  0  0  0  0
   45.2030   33.3200   37.7090 C   0  0  0  0  0  0  0  0  0  0  0  0
   45.8060   34.1630   38.0830 H   0  0  0  0  0  0  0  0  0  0  0  0
   45.6390   32.4330   36.8170 N   0  0  0  0  0  0  0  0  0  0  0  0
   44.6160   31.5710   36.6220 C   0  0  0  0  0  0  0  0  0  0  0  0
   44.5150   30.4600   35.8070 C   0  0  0  0  0  0  0  0  0  0  0  0
   45.3750   30.2040   35.2050 H   0  0  0  0  0  0  0  0  0  0  0  0
   43.3550   29.7740   35.8140 N   0  0  0  0  0  0  0  0  0  0  0  0
   42.3070   30.1550   36.5990 C   0  0  0  0  0  0  0  0  0  0  0  0
   41.4300   29.5280   36.5200 H   0  0  0  0  0  0  0  0  0  0  0  0
   42.4200   31.2530   37.4000 N   0  0  0  0  0  0  0  0  0  0  0  0
   43.5510   31.9720   37.4320 C   0  0  0  0  0  0  0  0  0  0  0  0
   45.9250   34.6400   42.0990 C   0  0  0  0  0  0  0  0  0  0  0  0
   45.2330   35.7190   42.6520 C   0  0  0  0  0  0  0  0  0  0  0  0
   43.8780   35.5910   42.4020 C   0  0  0  0  0  0  0  0  0  0  0  0
   43.7760   34.4580   41.7110 N   0  0  0  0  0  0  0  0  0  0  0  0
   44.9670   33.9020   41.5350 N   0  0  0  0  0  0  0  0  0  0  0  0
   45.8210   36.4910   43.1880 H   0  0  0  0  0  0  0  0  0  0  0  0
   43.3410   36.4250   42.8390 H   0  0  0  0  0  0  0  0  0  0  0  0
   49.6560   35.0890   42.1110 C   0  0  0  0  0  0  0  0  0  0  0  0
   48.2790   35.4500   41.9980 C   0  0  0  0  0  0  0  0  0  0  0  0
   47.3720   34.4340   42.1790 C   0  0  0  0  0  0  0  0  0  0  0  0
   47.8040   33.1670   42.4500 N   0  0  0  0  0  0  0  0  0  0  0  0
   49.1220   32.8720   42.5490 C   0  0  0  0  0  0  0  0  0  0  0  0
   50.0200   33.8420   42.3770 N   0  0  0  0  0  0  0  0  0  0  0  0
   50.3150   35.9580   41.9530 H   0  0  0  0  0  0  0  0  0  0  0  0
   47.9390   36.4530   41.7830 H   0  0  0  0  0  0  0  0  0  0  0  0
   49.3980   31.8590   42.7650 H   0  0  0  0  0  0  0  0  0  0  0  0
  1  2  1  0  0  0  0
  2 30  1  0  0  0  0
  2  8  1  1  0  0  0
  3  2  1  0  0  0  0
  3 10  1  0  0  0  0
  4  3  1  0  0  0  0
  5  6  1  0  0  0  0
  5  4  1  0  0  0  0
  6 14  1  1  0  0  0
  6  1  1  0  0  0  0
  7  1  1  0  0  0  0
  9  3  1  0  0  0  0
 11  4  1  0  0  0  0
 12  5  1  0  0  0  0
 13  5  1  0  0  0  0
 15  6  1  0  0  0  0
 16 17  1  0  0  0  0
 16 15  1  0  0  0  0
 18 16  2  0  0  0  0
 19 18  1  0  0  0  0
 19 26  1  0  0  0  0
 20 22  1  0  0  0  0
 20 19  2  0  0  0  0
 21 20  1  0  0  0  0
 22 23  2  0  0  0  0
 23 25  1  0  0  0  0
 24 23  1  0  0  0  0
 25 26  2  0  0  0  0
 26 15  1  0  0  0  0
 27 36  1  0  0  0  0
 27 28  1  0  0  0  0
 28 32  1  0  0  0  0
 29 28  2  0  0  0  0
 29 33  1  0  0  0  0
 30 29  1  0  0  0  0
 31 30  1  0  0  0  0
 31 27  2  0  0  0  0
 34 39  1  0  0  0  0
 35 34  2  0  0  0  0
 35 36  1  0  0  0  0
 36 37  2  0  0  0  0
 37 38  1  0  0  0  0
 38 42  1  0  0  0  0
 39 38  2  0  0  0  0
 40 34  1  0  0  0  0
 41 35  1  0  0  0  0
M  END
>  <minimizedAffinity>
-5.16373587

>  <minimizedRMSD>
1.86656225

$$$$
