
 OpenBabel03252505033D

 37 40  0  0  1  0  0  0  0  0999 V2000
   45.2540   34.7880   44.2410 C   0  0  0  0  0  0  0  0  0  0  0  0
   46.1700   34.5670   43.1960 C   0  0  0  0  0  0  0  0  0  0  0  0
   47.2240   33.6590   43.4560 C   0  0  0  0  0  0  0  0  0  0  0  0
   47.2870   33.0660   44.6750 N   0  0  0  0  0  0  0  0  0  0  0  0
   46.3910   33.3100   45.6360 C   0  0  0  0  0  0  0  0  0  0  0  0
   45.3540   34.1830   45.4270 N   0  0  0  0  0  0  0  0  0  0  0  0
   44.4570   35.4920   44.0090 H   0  0  0  0  0  0  0  0  0  0  0  0
   46.1210   35.0340   42.2340 H   0  0  0  0  0  0  0  0  0  0  0  0
   46.5370   32.6240   46.9450 C   0  0  2  0  0  0  0  0  0  0  0  0
   47.0660   31.2610   46.6380 C   0  0  0  0  0  0  0  0  0  0  0  0
   46.1030   30.1510   46.7540 C   0  0  0  0  0  0  0  0  0  0  0  0
   45.5290   30.2320   48.1540 C   0  0  0  0  0  0  0  0  0  0  0  0
   44.7380   31.4530   48.3610 C   0  0  0  0  0  0  0  0  0  0  0  0
   45.3010   32.6850   47.7100 C   0  0  0  0  0  0  0  0  0  0  0  0
   47.3080   33.2250   47.4890 H   0  0  0  0  0  0  0  0  0  0  0  0
   47.5360   31.1970   45.6300 H   0  0  0  0  0  0  0  0  0  0  0  0
   47.9260   31.0710   47.3380 H   0  0  0  0  0  0  0  0  0  0  0  0
   45.3450   30.1590   45.9660 H   0  0  0  0  0  0  0  0  0  0  0  0
   46.6550   29.1960   46.7000 H   0  0  0  0  0  0  0  0  0  0  0  0
   46.3030   30.0250   48.8860 H   0  0  0  0  0  0  0  0  0  0  0  0
   44.7780   29.4080   48.1940 H   0  0  0  0  0  0  0  0  0  0  0  0
   43.8500   31.7170   48.8580 H   0  0  0  0  0  0  0  0  0  0  0  0
   44.6290   33.9330   47.8320 N   0  0  0  0  0  0  0  0  0  0  0  0
   44.9360   34.7070   48.4610 H   0  0  0  0  0  0  0  0  0  0  0  0
   43.7870   33.9920   47.2170 H   0  0  0  0  0  0  0  0  0  0  0  0
   48.2160   33.3430   42.4930 N   0  0  0  0  0  0  0  0  0  0  0  0
   49.5630   33.4580   42.4300 C   0  0  0  0  0  0  0  0  0  0  0  0
   50.0830   33.8880   43.2790 H   0  0  0  0  0  0  0  0  0  0  0  0
   50.0130   32.9920   41.2560 N   0  0  0  0  0  0  0  0  0  0  0  0
   48.9510   32.5640   40.5390 C   0  0  0  0  0  0  0  0  0  0  0  0
   48.9390   32.0130   39.2860 C   0  0  0  0  0  0  0  0  0  0  0  0
   49.8020   31.8430   38.6890 H   0  0  0  0  0  0  0  0  0  0  0  0
   47.7430   31.6570   38.7670 N   0  0  0  0  0  0  0  0  0  0  0  0
   46.6240   31.8620   39.5090 C   0  0  0  0  0  0  0  0  0  0  0  0
   45.6090   31.6190   39.2040 H   0  0  0  0  0  0  0  0  0  0  0  0
   46.6910   32.4090   40.7380 N   0  0  0  0  0  0  0  0  0  0  0  0
   47.8300   32.7860   41.3210 C   0  0  0  0  0  0  0  0  0  0  0  0
  1  6  1  0  0  0  0
  2  3  1  0  0  0  0
  2  1  2  0  0  0  0
  3  4  2  0  0  0  0
  4  5  1  0  0  0  0
  5  9  1  0  0  0  0
  6  5  2  0  0  0  0
  7  1  1  0  0  0  0
  8  2  1  0  0  0  0
  9 15  1  1  0  0  0
  9 14  1  0  0  0  0
 10 11  1  0  0  0  0
 10  9  1  0  0  0  0
 10 17  1  0  0  0  0
 11 12  1  0  0  0  0
 12 21  1  0  0  0  0
 12 13  1  0  0  0  0
 12 20  1  0  0  0  0
 13 22  1  0  0  0  0
 14 23  1  0  0  0  0
 14 13  2  0  0  0  0
 16 10  1  0  0  0  0
 18 11  1  0  0  0  0
 19 11  1  0  0  0  0
 23 24  1  0  0  0  0
 25 23  1  0  0  0  0
 26  3  1  0  0  0  0
 27 26  1  0  0  0  0
 27 28  1  0  0  0  0
 29 27  2  0  0  0  0
 30 29  1  0  0  0  0
 30 37  1  0  0  0  0
 31 30  2  0  0  0  0
 32 31  1  0  0  0  0
 33 31  1  0  0  0  0
 33 34  2  0  0  0  0
 34 36  1  0  0  0  0
 35 34  1  0  0  0  0
 36 37  2  0  0  0  0
 37 26  1  0  0  0  0
M  END
>  <minimizedAffinity>
-6.03750849

>  <minimizedRMSD>
0.45050481

$$$$
