
     RDKit          3D

 37 40  0  0  0  0  0  0  0  0999 V2000
   46.4933   32.7545   46.7658 C   0  0  2  0  0  0  0  0  0  0  0  0
   47.0210   31.4187   46.3550 C   0  0  0  0  0  0  0  0  0  0  0  0
   46.0836   30.2872   46.4752 C   0  0  0  0  0  0  0  0  0  0  0  0
   45.6025   30.2857   47.9114 C   0  0  0  0  0  0  0  0  0  0  0  0
   44.8084   31.4797   48.2321 C   0  0  0  0  0  0  0  0  0  0  0  0
   45.3080   32.7537   47.6115 C   0  0  0  0  0  0  0  0  0  0  0  0
   45.0094   35.0382   44.2705 C   0  0  0  0  0  0  0  0  0  0  0  0
   45.8523   34.8788   43.1552 C   0  0  0  0  0  0  0  0  0  0  0  0
   46.9277   33.9698   43.2951 C   0  0  0  0  0  0  0  0  0  0  0  0
   47.0796   33.3182   44.4750 N   0  0  0  0  0  0  0  0  0  0  0  0
   46.2507   33.5044   45.5070 C   0  0  0  0  0  0  0  0  0  0  0  0
   45.1964   34.3752   45.4141 N   0  0  0  0  0  0  0  0  0  0  0  0
   44.6271   33.9809   47.8412 N   0  0  0  0  0  0  0  0  0  0  0  0
   47.2881   33.3410   47.2899 H   0  0  0  0  0  0  0  0  0  0  0  0
   47.4251   31.4145   45.3167 H   0  0  0  0  0  0  0  0  0  0  0  0
   47.9282   31.2089   46.9869 H   0  0  0  0  0  0  0  0  0  0  0  0
   45.2768   30.3214   45.7392 H   0  0  0  0  0  0  0  0  0  0  0  0
   46.6462   29.3458   46.3361 H   0  0  0  0  0  0  0  0  0  0  0  0
   46.4246   30.0559   48.5801 H   0  0  0  0  0  0  0  0  0  0  0  0
   44.8679   29.4470   47.9571 H   0  0  0  0  0  0  0  0  0  0  0  0
   43.9504   31.7020   48.7982 H   0  0  0  0  0  0  0  0  0  0  0  0
   44.1929   35.7438   44.1298 H   0  0  0  0  0  0  0  0  0  0  0  0
   45.7332   35.3931   42.2232 H   0  0  0  0  0  0  0  0  0  0  0  0
   44.9627   34.7279   48.4894 H   0  0  0  0  0  0  0  0  0  0  0  0
   43.7457   34.0556   47.2858 H   0  0  0  0  0  0  0  0  0  0  0  0
   47.8535   33.7127   42.2508 N   0  0  0  0  0  0  0  0  0  0  0  0
   49.1729   33.4191   42.1891 C   0  0  0  0  0  0  0  0  0  0  0  0
   49.7267   33.3447   43.1189 H   0  0  0  0  0  0  0  0  0  0  0  0
   49.5543   33.2700   40.9118 N   0  0  0  0  0  0  0  0  0  0  0  0
   48.4735   33.4677   40.1252 C   0  0  0  0  0  0  0  0  0  0  0  0
   48.3979   33.4146   38.7599 C   0  0  0  0  0  0  0  0  0  0  0  0
   49.2143   33.2020   38.1140 H   0  0  0  0  0  0  0  0  0  0  0  0
   47.1968   33.6498   38.1877 N   0  0  0  0  0  0  0  0  0  0  0  0
   46.1354   33.9245   38.9903 C   0  0  0  0  0  0  0  0  0  0  0  0
   45.1232   34.1298   38.6506 H   0  0  0  0  0  0  0  0  0  0  0  0
   46.2638   33.9645   40.3292 N   0  0  0  0  0  0  0  0  0  0  0  0
   47.4131   33.7443   40.9716 C   0  0  0  0  0  0  0  0  0  0  0  0
  1  6  1  0
  2  3  1  0
  2  1  1  0
  3  4  1  0
  4  5  1  0
  6 13  1  0
  6  5  2  0
  7 12  2  0
  8  9  2  0
  8  7  1  0
  9 10  1  0
 10 11  2  0
 11  1  1  0
 12 11  1  0
  1 14  1  1
  2 15  1  0
  2 16  1  0
  3 17  1  0
  3 18  1  0
  4 19  1  0
  4 20  1  0
  5 21  1  0
  7 22  1  0
  8 23  1  0
 13 24  1  0
 13 25  1  0
 26 27  1  0
 27 28  1  0
 27 29  2  0
 29 30  1  0
 30 31  2  0
 31 32  1  0
 31 33  1  0
 33 34  2  0
 34 35  1  0
 34 36  1  0
 36 37  2  0
 37 26  1  0
 37 30  1  0
  9 26  1  0
M  ISO  8  14  13  15  13  16  13  17  13  18  13  19  13  20  13  21  13
M  ISO  5  22  14  23  14  28  15  32  16  35  16
M  END
>  <DihAtoms>  (1) 
7,8,25,26

>  <DihDeg>  (1) 
116.20552925673636

$$$$
