
 OpenBabel03252503463D

 47 51  0  0  1  0  0  0  0  0999 V2000
   46.4140   35.1040   42.3530 C   0  0  0  0  0  0  0  0  0  0  0  0
   47.3440   34.7920   41.8300 H   0  0  0  0  0  0  0  0  0  0  0  0
   46.5580   36.1870   42.5610 H   0  0  0  0  0  0  0  0  0  0  0  0
   45.2530   34.8710   41.4830 C   0  0  0  0  0  0  0  0  0  0  0  0
   44.0720   35.5760   41.5290 C   0  0  0  0  0  0  0  0  0  0  0  0
   43.0120   35.3130   40.6970 C   0  0  0  0  0  0  0  0  0  0  0  0
   43.1370   34.3020   39.7810 C   0  0  0  0  0  0  0  0  0  0  0  0
   44.3220   33.5720   39.7120 C   0  0  0  0  0  0  0  0  0  0  0  0
   45.3900   33.8530   40.5640 C   0  0  0  0  0  0  0  0  0  0  0  0
   44.0630   36.3570   42.2850 H   0  0  0  0  0  0  0  0  0  0  0  0
   42.1170   35.9130   40.7950 H   0  0  0  0  0  0  0  0  0  0  0  0
   42.2710   34.1440   39.1560 H   0  0  0  0  0  0  0  0  0  0  0  0
   44.2500   32.8120   38.9330 H   0  0  0  0  0  0  0  0  0  0  0  0
   46.4550   32.9660   40.2490 N   0  0  0  0  0  0  0  0  0  0  0  0
   46.7890   31.7780   40.8350 C   0  0  0  0  0  0  0  0  0  0  0  0
   46.2780   31.3160   41.6590 H   0  0  0  0  0  0  0  0  0  0  0  0
   47.8520   31.2200   40.2740 N   0  0  0  0  0  0  0  0  0  0  0  0
   48.2370   32.0530   39.2930 C   0  0  0  0  0  0  0  0  0  0  0  0
   49.2470   32.0650   38.3510 C   0  0  0  0  0  0  0  0  0  0  0  0
   49.9490   31.2390   38.3270 H   0  0  0  0  0  0  0  0  0  0  0  0
   49.3910   33.0660   37.4640 N   0  0  0  0  0  0  0  0  0  0  0  0
   48.5430   34.1150   37.4560 C   0  0  0  0  0  0  0  0  0  0  0  0
   48.7410   34.8600   36.7120 H   0  0  0  0  0  0  0  0  0  0  0  0
   47.5340   34.1330   38.3730 N   0  0  0  0  0  0  0  0  0  0  0  0
   47.3750   33.1550   39.2570 C   0  0  0  0  0  0  0  0  0  0  0  0
   45.3130   34.5960   44.5090 C   0  0  0  0  0  0  0  0  0  0  0  0
   46.2990   34.3210   43.5680 C   0  0  0  0  0  0  0  0  0  0  0  0
   47.1630   33.2640   43.8530 C   0  0  0  0  0  0  0  0  0  0  0  0
   47.0450   32.5390   44.9880 N   0  0  0  0  0  0  0  0  0  0  0  0
   46.0680   32.8390   45.8790 C   0  0  0  0  0  0  0  0  0  0  0  0
   45.2000   33.8650   45.6480 N   0  0  0  0  0  0  0  0  0  0  0  0
   44.6520   35.4170   44.2750 H   0  0  0  0  0  0  0  0  0  0  0  0
   47.9670   32.9580   43.2380 H   0  0  0  0  0  0  0  0  0  0  0  0
   47.3810   31.7140   47.6660 C   0  0  2  0  0  0  0  0  0  0  0  0
   45.9690   32.0300   47.0910 C   0  0  1  0  0  0  0  0  0  0  0  0
   45.4360   32.6440   48.1720 O   0  0  0  0  0  0  0  0  0  0  0  0
   45.7300   31.8880   49.2710 C   0  0  0  0  0  0  0  0  0  0  0  0
   46.9040   30.9970   48.9350 C   0  0  2  0  0  0  0  0  0  0  0  0
   47.9360   31.0450   46.9870 H   0  0  0  0  0  0  0  0  0  0  0  0
   45.4740   31.0430   46.9300 H   0  0  0  0  0  0  0  0  0  0  0  0
   44.8410   31.3170   49.6050 H   0  0  0  0  0  0  0  0  0  0  0  0
   45.9870   32.5670   50.1120 H   0  0  0  0  0  0  0  0  0  0  0  0
   46.5260   29.9980   48.7140 H   0  0  0  0  0  0  0  0  0  0  0  0
   48.0000   32.8470   48.0360 O   0  0  0  0  0  0  0  0  0  0  0  0
   48.8590   33.0390   47.6010 H   0  0  0  0  0  0  0  0  0  0  0  0
   47.8630   30.9490   49.9100 O   0  0  0  0  0  0  0  0  0  0  0  0
   47.4130   30.8490   50.7950 H   0  0  0  0  0  0  0  0  0  0  0  0
  1  3  1  0  0  0  0
  1 27  1  0  0  0  0
  2  1  1  0  0  0  0
  4  5  1  0  0  0  0
  4  1  1  0  0  0  0
  5 10  1  0  0  0  0
  6 11  1  0  0  0  0
  6  5  2  0  0  0  0
  7  6  1  0  0  0  0
  8  7  2  0  0  0  0
  8  9  1  0  0  0  0
  9  4  2  0  0  0  0
 12  7  1  0  0  0  0
 13  8  1  0  0  0  0
 14  9  1  0  0  0  0
 14 15  1  0  0  0  0
 15 16  1  0  0  0  0
 17 15  2  0  0  0  0
 18 17  1  0  0  0  0
 19 18  2  0  0  0  0
 20 19  1  0  0  0  0
 21 19  1  0  0  0  0
 22 21  2  0  0  0  0
 22 24  1  0  0  0  0
 23 22  1  0  0  0  0
 24 25  2  0  0  0  0
 25 18  1  0  0  0  0
 25 14  1  0  0  0  0
 26 31  1  0  0  0  0
 27 28  1  0  0  0  0
 27 26  2  0  0  0  0
 28 29  2  0  0  0  0
 29 30  1  0  0  0  0
 30 35  1  0  0  0  0
 31 30  2  0  0  0  0
 32 26  1  0  0  0  0
 33 28  1  0  0  0  0
 34 39  1  6  0  0  0
 34 44  1  0  0  0  0
 34 38  1  0  0  0  0
 35 40  1  6  0  0  0
 35 34  1  0  0  0  0
 35 36  1  0  0  0  0
 36 37  1  0  0  0  0
 37 41  1  0  0  0  0
 37 42  1  0  0  0  0
 38 43  1  6  0  0  0
 38 37  1  0  0  0  0
 38 46  1  0  0  0  0
 45 44  1  0  0  0  0
 46 47  1  0  0  0  0
M  END
>  <minimizedAffinity>
-7.05572701

>  <minimizedRMSD>
1.36643958

$$$$
