
 OpenBabel03252509003D

 48 51  0  0  1  0  0  0  0  0999 V2000
   47.1390   34.1670   43.0450 N   0  0  0  0  0  0  0  0  0  0  0  0
   46.6680   35.4210   42.5720 C   0  0  0  0  0  0  0  0  0  0  0  0
   45.1900   35.6730   42.7930 C   0  0  0  0  0  0  0  0  0  0  0  0
   44.6380   35.0670   44.0510 C   0  0  0  0  0  0  0  0  0  0  0  0
   45.7110   34.3860   44.8670 C   0  0  0  0  0  0  0  0  0  0  0  0
   46.3500   33.3660   43.8560 C   0  0  2  0  0  0  0  0  0  0  0  0
   47.2000   36.2070   43.1740 H   0  0  0  0  0  0  0  0  0  0  0  0
   46.8860   35.6500   41.5280 H   0  0  0  0  0  0  0  0  0  0  0  0
   44.6550   35.1940   41.9420 H   0  0  0  0  0  0  0  0  0  0  0  0
   45.0230   36.7630   42.7070 H   0  0  0  0  0  0  0  0  0  0  0  0
   43.8000   34.3830   43.9050 H   0  0  0  0  0  0  0  0  0  0  0  0
   44.2480   35.9150   44.6820 H   0  0  0  0  0  0  0  0  0  0  0  0
   46.4790   35.1050   45.1950 H   0  0  0  0  0  0  0  0  0  0  0  0
   45.2300   33.8120   45.6740 H   0  0  0  0  0  0  0  0  0  0  0  0
   45.4910   32.8370   43.4020 H   0  0  0  0  0  0  0  0  0  0  0  0
   48.1080   33.5400   42.1910 C   0  0  0  0  0  0  0  0  0  0  0  0
   48.7530   34.3150   41.7530 H   0  0  0  0  0  0  0  0  0  0  0  0
   48.7590   32.8810   42.7890 H   0  0  0  0  0  0  0  0  0  0  0  0
   47.3790   32.7240   41.1600 C   0  0  0  0  0  0  0  0  0  0  0  0
   46.3150   33.0340   41.0930 H   0  0  0  0  0  0  0  0  0  0  0  0
   47.3970   31.6420   41.3530 H   0  0  0  0  0  0  0  0  0  0  0  0
   49.3510   32.3050   37.9830 C   0  0  0  0  0  0  0  0  0  0  0  0
   48.7840   32.0560   39.2480 C   0  0  0  0  0  0  0  0  0  0  0  0
   47.9720   33.0000   39.8220 C   0  0  0  0  0  0  0  0  0  0  0  0
   47.7530   34.1320   39.1340 N   0  0  0  0  0  0  0  0  0  0  0  0
   48.2940   34.3680   37.9290 C   0  0  0  0  0  0  0  0  0  0  0  0
   49.0990   33.4540   37.3420 N   0  0  0  0  0  0  0  0  0  0  0  0
   49.9890   31.5370   37.5580 H   0  0  0  0  0  0  0  0  0  0  0  0
   49.0190   31.1120   39.7230 H   0  0  0  0  0  0  0  0  0  0  0  0
   48.0070   35.3330   37.5270 H   0  0  0  0  0  0  0  0  0  0  0  0
   47.1200   32.5780   44.7050 O   0  0  0  0  0  0  0  0  0  0  0  0
   45.7510   30.5980   43.5760 O   0  0  0  0  0  0  0  0  0  0  0  0
   46.5550   30.9970   44.8120 P   0  0  2  0  0  0  0  0  0  0  0  0
   45.4220   30.9830   46.0950 O   0  0  0  0  0  0  0  0  0  0  0  0
   45.9330   31.2240   46.9210 H   0  0  0  0  0  0  0  0  0  0  0  0
   47.7500   29.9080   45.1860 O   0  0  0  0  0  0  0  0  0  0  0  0
   48.5490   30.9500   42.7800 H   0  0  0  0  0  0  0  0  0  0  0  0
   49.1730   30.3400   43.3630 N   0  0  0  0  0  0  0  0  0  0  0  0
   48.9690   29.7340   44.5660 C   0  0  0  0  0  0  0  0  0  0  0  0
   50.0960   29.0480   44.9000 N   0  0  0  0  0  0  0  0  0  0  0  0
   51.0280   29.2080   43.9180 C   0  0  0  0  0  0  0  0  0  0  0  0
   52.3140   28.7250   43.7790 C   0  0  0  0  0  0  0  0  0  0  0  0
   52.6740   28.1020   44.5870 H   0  0  0  0  0  0  0  0  0  0  0  0
   52.9840   29.0770   42.6650 N   0  0  0  0  0  0  0  0  0  0  0  0
   52.3930   29.8640   41.7490 C   0  0  0  0  0  0  0  0  0  0  0  0
   52.9360   30.1470   40.8490 H   0  0  0  0  0  0  0  0  0  0  0  0
   51.1300   30.3480   41.8680 N   0  0  0  0  0  0  0  0  0  0  0  0
   50.4200   30.0160   42.9810 C   0  0  0  0  0  0  0  0  0  0  0  0
  1  6  1  0  0  0  0
  2  3  1  0  0  0  0
  2  1  1  0  0  0  0
  2  7  1  0  0  0  0
  3  4  1  0  0  0  0
  4 12  1  0  0  0  0
  4  5  1  0  0  0  0
  5 13  1  0  0  0  0
  5 14  1  0  0  0  0
  6 15  1  6  0  0  0
  6 31  1  0  0  0  0
  6  5  1  0  0  0  0
  8  2  1  0  0  0  0
  9  3  1  0  0  0  0
 10  3  1  0  0  0  0
 11  4  1  0  0  0  0
 16 18  1  0  0  0  0
 16  1  1  0  0  0  0
 17 16  1  0  0  0  0
 19 21  1  0  0  0  0
 19 16  1  0  0  0  0
 20 19  1  0  0  0  0
 22 23  1  0  0  0  0
 23 29  1  0  0  0  0
 23 24  2  0  0  0  0
 24 19  1  0  0  0  0
 25 24  1  0  0  0  0
 26 25  2  0  0  0  0
 27 26  1  0  0  0  0
 27 22  2  0  0  0  0
 28 22  1  0  0  0  0
 30 26  1  0  0  0  0
 31 33  1  0  0  0  0
 33 32  2  6  0  0  0
 33 36  1  0  0  0  0
 33 34  1  0  0  0  0
 34 35  1  0  0  0  0
 37 38  1  0  0  0  0
 38 39  1  0  0  0  0
 39 40  2  0  0  0  0
 39 36  1  0  0  0  0
 41 40  1  0  0  0  0
 42 41  1  0  0  0  0
 42 43  1  0  0  0  0
 44 42  2  0  0  0  0
 45 47  2  0  0  0  0
 45 44  1  0  0  0  0
 46 45  1  0  0  0  0
 47 48  1  0  0  0  0
 48 38  1  0  0  0  0
 48 41  2  0  0  0  0
M  END
>  <minimizedAffinity>
-4.08764029

>  <minimizedRMSD>
0.882390261

$$$$
