
 OpenBabel03252508253D

 44 49  0  0  1  0  0  0  0  0999 V2000
   46.7300   32.2370   45.7880 C   0  0  1  0  0  0  0  0  0  0  0  0
   46.8610   32.7030   47.1770 C   0  0  0  0  0  0  0  0  0  0  0  0
   45.6090   31.9070   46.6410 C   0  0  2  0  0  0  0  0  0  0  0  0
   47.6520   31.5750   45.6060 H   0  0  0  0  0  0  0  0  0  0  0  0
   47.4220   32.1970   47.9700 H   0  0  0  0  0  0  0  0  0  0  0  0
   46.6670   33.7780   47.3300 H   0  0  0  0  0  0  0  0  0  0  0  0
   44.7360   32.6070   46.8460 H   0  0  0  0  0  0  0  0  0  0  0  0
   45.3090   30.5770   47.1780 C   0  0  0  0  0  0  0  0  0  0  0  0
   45.2300   30.2080   48.4840 C   0  0  0  0  0  0  0  0  0  0  0  0
   45.0660   28.9120   48.9510 C   0  0  0  0  0  0  0  0  0  0  0  0
   44.9760   27.9040   47.9810 C   0  0  0  0  0  0  0  0  0  0  0  0
   45.0510   28.2540   46.6320 C   0  0  0  0  0  0  0  0  0  0  0  0
   44.8940   27.2360   45.7120 C   0  0  0  0  0  0  0  0  0  0  0  0
   44.8900   27.5500   44.3580 C   0  0  0  0  0  0  0  0  0  0  0  0
   45.0360   28.8530   43.9350 C   0  0  0  0  0  0  0  0  0  0  0  0
   45.1900   29.8280   44.8930 C   0  0  0  0  0  0  0  0  0  0  0  0
   45.2100   29.5660   46.2540 C   0  0  0  0  0  0  0  0  0  0  0  0
   45.3060   31.0230   49.2000 H   0  0  0  0  0  0  0  0  0  0  0  0
   45.0110   28.6920   50.0090 H   0  0  0  0  0  0  0  0  0  0  0  0
   44.8510   26.8860   48.3280 H   0  0  0  0  0  0  0  0  0  0  0  0
   44.7780   26.2210   46.0680 H   0  0  0  0  0  0  0  0  0  0  0  0
   44.7610   26.6630   43.7150 H   0  0  0  0  0  0  0  0  0  0  0  0
   45.0040   28.8940   42.8640 H   0  0  0  0  0  0  0  0  0  0  0  0
   45.1950   30.7230   44.3410 H   0  0  0  0  0  0  0  0  0  0  0  0
   45.5410   35.1420   43.8480 C   0  0  0  0  0  0  0  0  0  0  0  0
   46.1690   34.9320   42.5680 C   0  0  0  0  0  0  0  0  0  0  0  0
   47.0050   33.7750   42.4260 C   0  0  0  0  0  0  0  0  0  0  0  0
   47.1690   32.9530   43.4640 N   0  0  0  0  0  0  0  0  0  0  0  0
   46.5410   33.2050   44.6670 C   0  0  0  0  0  0  0  0  0  0  0  0
   45.7570   34.2620   44.8490 N   0  0  0  0  0  0  0  0  0  0  0  0
   44.9320   36.0260   43.8790 H   0  0  0  0  0  0  0  0  0  0  0  0
   45.9990   35.6340   41.7630 H   0  0  0  0  0  0  0  0  0  0  0  0
   47.6290   33.5600   41.1630 N   0  0  0  0  0  0  0  0  0  0  0  0
   47.4420   34.2120   39.9980 C   0  0  0  0  0  0  0  0  0  0  0  0
   46.7350   35.0300   39.9140 H   0  0  0  0  0  0  0  0  0  0  0  0
   48.2160   33.7200   39.0190 N   0  0  0  0  0  0  0  0  0  0  0  0
   48.9410   32.7090   39.5570 C   0  0  0  0  0  0  0  0  0  0  0  0
   49.8920   31.8290   39.0830 C   0  0  0  0  0  0  0  0  0  0  0  0
   50.1870   31.9010   38.0290 H   0  0  0  0  0  0  0  0  0  0  0  0
   50.4410   30.9030   39.9090 N   0  0  0  0  0  0  0  0  0  0  0  0
   50.0670   30.8260   41.2100 C   0  0  0  0  0  0  0  0  0  0  0  0
   50.5040   30.0860   41.8720 H   0  0  0  0  0  0  0  0  0  0  0  0
   49.1290   31.6850   41.6970 N   0  0  0  0  0  0  0  0  0  0  0  0
   48.5720   32.6060   40.9040 C   0  0  0  0  0  0  0  0  0  0  0  0
  1  4  1  6  0  0  0
  1  3  1  0  0  0  0
  1  2  1  0  0  0  0
  2  6  1  0  0  0  0
  2  5  1  0  0  0  0
  3  7  1  6  0  0  0
  3  2  1  0  0  0  0
  3  8  1  0  0  0  0
  8  9  1  0  0  0  0
  9 10  2  0  0  0  0
  9 18  1  0  0  0  0
 10 19  1  0  0  0  0
 11 20  1  0  0  0  0
 11 10  1  0  0  0  0
 12 11  2  0  0  0  0
 13 21  1  0  0  0  0
 13 12  1  0  0  0  0
 14 13  2  0  0  0  0
 15 14  1  0  0  0  0
 15 16  2  0  0  0  0
 16 17  1  0  0  0  0
 17 12  1  0  0  0  0
 17  8  2  0  0  0  0
 22 14  1  0  0  0  0
 23 15  1  0  0  0  0
 24 16  1  0  0  0  0
 25 31  1  0  0  0  0
 25 30  1  0  0  0  0
 26 25  2  0  0  0  0
 27 26  1  0  0  0  0
 27 28  2  0  0  0  0
 28 29  1  0  0  0  0
 29 30  2  0  0  0  0
 29  1  1  0  0  0  0
 32 26  1  0  0  0  0
 33 27  1  0  0  0  0
 34 33  1  0  0  0  0
 35 34  1  0  0  0  0
 36 37  1  0  0  0  0
 36 34  2  0  0  0  0
 37 44  1  0  0  0  0
 38 37  2  0  0  0  0
 38 40  1  0  0  0  0
 39 38  1  0  0  0  0
 40 41  2  0  0  0  0
 41 43  1  0  0  0  0
 41 42  1  0  0  0  0
 44 33  1  0  0  0  0
 44 43  2  0  0  0  0
M  END
>  <minimizedAffinity>
-5.09848356

>  <minimizedRMSD>
1.54571962

$$$$
