REMARK  Name = 
REMARK  3 active torsions:
REMARK  status: ('A' for Active; 'I' for Inactive)
REMARK    1  A    between atoms: C_1  and  O_16
REMARK    2  A    between atoms: C_3  and  C_8
REMARK    3  A    between atoms: O_16  and  C_17
REMARK                            x       y       z     vdW  Elec       q    Type
REMARK                         _______ _______ _______ _____ _____    ______ ____
ROOT
ATOM      1  C   UNL     1      45.485  34.832  43.547  0.00  0.00    +0.000 A 
ATOM      2  C   UNL     1      46.198  33.743  44.123  0.00  0.00    +0.000 A 
ATOM      3  C   UNL     1      46.002  33.527  45.481  0.00  0.00    +0.000 A 
ATOM      4  N   UNL     1      45.179  34.324  46.167  0.00  0.00    +0.000 NA
ATOM      5  C   UNL     1      44.514  35.353  45.589  0.00  0.00    +0.000 A 
ATOM      6  N   UNL     1      44.677  35.589  44.297  0.00  0.00    +0.000 NA
ATOM      7  H   UNL     1      46.858  33.098  43.590  0.00  0.00    +0.000 HD
ATOM      8  H   UNL     1      43.885  35.908  46.276  0.00  0.00    +0.000 HD
ENDROOT
BRANCH   3  10
ATOM      9  C   UNL     1      46.995  32.692  47.543  0.00  0.00    +0.000 A 
ATOM     10  C   UNL     1      46.675  32.439  46.205  0.00  0.00    +0.000 A 
ATOM     11  C   UNL     1      47.004  31.230  45.674  0.00  0.00    +0.000 A 
ATOM     12  C   UNL     1      47.638  30.242  46.396  0.00  0.00    +0.000 A 
ATOM     13  N   UNL     1      48.052  28.997  46.086  0.00  0.00    +0.000 N 
ATOM     14  C   UNL     1      48.631  28.458  47.215  0.00  0.00    +0.000 A 
ATOM     15  N   UNL     1      48.562  29.374  48.187  0.00  0.00    +0.000 NA
ATOM     16  C   UNL     1      47.959  30.473  47.709  0.00  0.00    +0.000 A 
ATOM     17  C   UNL     1      47.639  31.691  48.280  0.00  0.00    +0.000 A 
ATOM     18  H   UNL     1      46.779  33.619  48.063  0.00  0.00    +0.000 HD
ATOM     19  H   UNL     1      46.744  31.051  44.623  0.00  0.00    +0.000 HD
ATOM     20  H   UNL     1      47.910  28.607  45.129  0.00  0.00    +0.000 HD
ATOM     21  H   UNL     1      49.011  27.451  47.104  0.00  0.00    +0.000 HD
ATOM     22  H   UNL     1      47.909  31.836  49.318  0.00  0.00    +0.000 HD
ENDBRANCH   3  10
BRANCH   1  23
ATOM     23  O   UNL     1      45.671  35.060  42.190  0.00  0.00    +0.000 OA
BRANCH  23  24
ATOM     24  C   UNL     1      44.646  34.898  41.298  0.00  0.00    +0.000 A 
ATOM     25  C   UNL     1      44.975  33.776  40.625  0.00  0.00    +0.000 A 
ATOM     26  S   UNL     1      43.546  33.582  39.400  0.00  0.00    +0.000 S 
ATOM     27  C   UNL     1      42.756  35.161  40.105  0.00  0.00    +0.000 A 
ATOM     28  N   UNL     1      43.511  35.411  40.872  0.00  0.00    +0.000 NA
ATOM     29  H   UNL     1      45.666  32.859  40.391  0.00  0.00    +0.000 HD
ATOM     30  N   UNL     1      41.519  35.876  39.768  0.00  0.00    +0.000 N 
ATOM     31  C   UNL     1      40.910  35.755  38.593  0.00  0.00    +0.000 A 
ATOM     32  H   UNL     1      41.203  35.147  37.738  0.00  0.00    +0.000 HD
ATOM     33  N   UNL     1      39.837  36.557  38.690  0.00  0.00    +0.000 NA
ATOM     34  C   UNL     1      39.810  37.141  39.895  0.00  0.00    +0.000 A 
ATOM     35  C   UNL     1      38.937  38.039  40.497  0.00  0.00    +0.000 A 
ATOM     36  H   UNL     1      38.069  38.410  39.981  0.00  0.00    +0.000 HD
ATOM     37  N   UNL     1      39.139  38.485  41.749  0.00  0.00    +0.000 NA
ATOM     38  C   UNL     1      40.222  38.045  42.441  0.00  0.00    +0.000 A 
ATOM     39  H   UNL     1      40.392  38.403  43.459  0.00  0.00    +0.000 HD
ATOM     40  N   UNL     1      41.085  37.164  41.861  0.00  0.00    +0.000 NA
ATOM     41  C   UNL     1      40.906  36.703  40.610  0.00  0.00    +0.000 A 
ENDBRANCH  23  24
ENDBRANCH   1  23
TORSDOF 3
