
 OpenBabel03252503483D

 47 51  0  0  1  0  0  0  0  0999 V2000
   35.8020   29.6860   40.2780 C   0  0  0  0  0  0  0  0  0  0  0  0
   34.9470   30.2490   39.8450 H   0  0  0  0  0  0  0  0  0  0  0  0
   35.5730   29.6200   41.3640 H   0  0  0  0  0  0  0  0  0  0  0  0
   35.8820   28.3550   39.6610 C   0  0  0  0  0  0  0  0  0  0  0  0
   35.2930   27.9960   38.4690 C   0  0  0  0  0  0  0  0  0  0  0  0
   35.3910   26.7340   37.9390 C   0  0  0  0  0  0  0  0  0  0  0  0
   36.1080   25.7910   38.6270 C   0  0  0  0  0  0  0  0  0  0  0  0
   36.7150   26.1270   39.8350 C   0  0  0  0  0  0  0  0  0  0  0  0
   36.6060   27.4150   40.3610 C   0  0  0  0  0  0  0  0  0  0  0  0
   34.7460   28.8070   37.9950 H   0  0  0  0  0  0  0  0  0  0  0  0
   34.9000   26.5300   36.9970 H   0  0  0  0  0  0  0  0  0  0  0  0
   36.1490   24.8190   38.1590 H   0  0  0  0  0  0  0  0  0  0  0  0
   37.2400   25.2630   40.2450 H   0  0  0  0  0  0  0  0  0  0  0  0
   37.3360   27.4600   41.5790 N   0  0  0  0  0  0  0  0  0  0  0  0
   36.8730   27.4490   42.8640 C   0  0  0  0  0  0  0  0  0  0  0  0
   35.8430   27.4040   43.1620 H   0  0  0  0  0  0  0  0  0  0  0  0
   37.8520   27.5050   43.7540 N   0  0  0  0  0  0  0  0  0  0  0  0
   38.9960   27.5570   43.0490 C   0  0  0  0  0  0  0  0  0  0  0  0
   40.3400   27.6250   43.3560 C   0  0  0  0  0  0  0  0  0  0  0  0
   40.6370   27.6500   44.3990 H   0  0  0  0  0  0  0  0  0  0  0  0
   41.2940   27.6650   42.4090 N   0  0  0  0  0  0  0  0  0  0  0  0
   40.9730   27.6370   41.0990 C   0  0  0  0  0  0  0  0  0  0  0  0
   41.8030   27.6720   40.4220 H   0  0  0  0  0  0  0  0  0  0  0  0
   39.6540   27.5680   40.7610 N   0  0  0  0  0  0  0  0  0  0  0  0
   38.6980   27.5290   41.6820 C   0  0  0  0  0  0  0  0  0  0  0  0
   37.4130   30.7220   38.7140 C   0  0  0  0  0  0  0  0  0  0  0  0
   37.0130   30.4380   40.0150 C   0  0  0  0  0  0  0  0  0  0  0  0
   37.8310   30.9070   41.0420 C   0  0  0  0  0  0  0  0  0  0  0  0
   38.9580   31.6090   40.7850 N   0  0  0  0  0  0  0  0  0  0  0  0
   39.3120   31.8670   39.5010 C   0  0  0  0  0  0  0  0  0  0  0  0
   38.5470   31.4270   38.4620 N   0  0  0  0  0  0  0  0  0  0  0  0
   36.7710   30.3520   37.9300 H   0  0  0  0  0  0  0  0  0  0  0  0
   37.6590   30.7490   42.0730 H   0  0  0  0  0  0  0  0  0  0  0  0
   41.0550   32.4130   37.8140 C   0  0  2  0  0  0  0  0  0  0  0  0
   40.5330   32.6330   39.2640 C   0  0  1  0  0  0  0  0  0  0  0  0
   40.3930   33.9780   39.2340 O   0  0  0  0  0  0  0  0  0  0  0  0
   41.5210   34.5040   38.6740 C   0  0  0  0  0  0  0  0  0  0  0  0
   42.2130   33.4170   37.8840 C   0  0  2  0  0  0  0  0  0  0  0  0
   41.4050   31.3760   37.6810 H   0  0  0  0  0  0  0  0  0  0  0  0
   41.3750   32.3520   39.9410 H   0  0  0  0  0  0  0  0  0  0  0  0
   42.1750   34.9500   39.4510 H   0  0  0  0  0  0  0  0  0  0  0  0
   41.2310   35.3430   38.0070 H   0  0  0  0  0  0  0  0  0  0  0  0
   43.0420   33.0320   38.4800 H   0  0  0  0  0  0  0  0  0  0  0  0
   40.1620   32.8690   36.9200 O   0  0  0  0  0  0  0  0  0  0  0  0
   39.8180   32.2160   36.2730 H   0  0  0  0  0  0  0  0  0  0  0  0
   42.6450   33.8160   36.6490 O   0  0  0  0  0  0  0  0  0  0  0  0
   43.0850   34.7080   36.7370 H   0  0  0  0  0  0  0  0  0  0  0  0
  1  3  1  0  0  0  0
  2  1  1  0  0  0  0
  4  1  1  0  0  0  0
  4  9  1  0  0  0  0
  5  4  2  0  0  0  0
  6  5  1  0  0  0  0
  6  7  2  0  0  0  0
  7  8  1  0  0  0  0
  8 13  1  0  0  0  0
  8  9  2  0  0  0  0
  9 14  1  0  0  0  0
 10  5  1  0  0  0  0
 11  6  1  0  0  0  0
 12  7  1  0  0  0  0
 14 25  1  0  0  0  0
 14 15  1  0  0  0  0
 15 16  1  0  0  0  0
 15 17  2  0  0  0  0
 18 19  1  0  0  0  0
 18 17  1  0  0  0  0
 19 20  1  0  0  0  0
 21 19  2  0  0  0  0
 22 21  1  0  0  0  0
 23 22  1  0  0  0  0
 24 22  2  0  0  0  0
 24 25  1  0  0  0  0
 25 18  2  0  0  0  0
 26 27  1  0  0  0  0
 27  1  1  0  0  0  0
 27 28  2  0  0  0  0
 28 33  1  0  0  0  0
 29 28  1  0  0  0  0
 30 29  2  0  0  0  0
 31 26  2  0  0  0  0
 31 30  1  0  0  0  0
 32 26  1  0  0  0  0
 34 39  1  6  0  0  0
 34 38  1  0  0  0  0
 34 35  1  0  0  0  0
 35 30  1  0  0  0  0
 35 40  1  1  0  0  0
 36 35  1  0  0  0  0
 37 36  1  0  0  0  0
 37 41  1  0  0  0  0
 38 43  1  1  0  0  0
 38 37  1  0  0  0  0
 42 37  1  0  0  0  0
 44 34  1  0  0  0  0
 45 44  1  0  0  0  0
 46 47  1  0  0  0  0
 46 38  1  0  0  0  0
M  END
>  <minimizedAffinity>
-6.88256168

$$$$

 OpenBabel03252503483D

 47 51  0  0  1  0  0  0  0  0999 V2000
   35.8260   30.0910   40.5050 C   0  0  0  0  0  0  0  0  0  0  0  0
   35.9060   31.1470   40.8430 H   0  0  0  0  0  0  0  0  0  0  0  0
   34.7800   29.7990   40.7430 H   0  0  0  0  0  0  0  0  0  0  0  0
   36.0940   30.0110   39.0620 C   0  0  0  0  0  0  0  0  0  0  0  0
   35.5340   29.0940   38.2010 C   0  0  0  0  0  0  0  0  0  0  0  0
   35.8250   29.0560   36.8610 C   0  0  0  0  0  0  0  0  0  0  0  0
   36.7120   29.9710   36.3580 C   0  0  0  0  0  0  0  0  0  0  0  0
   37.2940   30.9100   37.2080 C   0  0  0  0  0  0  0  0  0  0  0  0
   36.9870   30.9370   38.5690 C   0  0  0  0  0  0  0  0  0  0  0  0
   34.8450   28.4090   38.6870 H   0  0  0  0  0  0  0  0  0  0  0  0
   35.3430   28.3050   36.2490 H   0  0  0  0  0  0  0  0  0  0  0  0
   36.9000   29.8900   35.2980 H   0  0  0  0  0  0  0  0  0  0  0  0
   37.9700   31.5570   36.6460 H   0  0  0  0  0  0  0  0  0  0  0  0
   37.7110   32.0040   39.1660 N   0  0  0  0  0  0  0  0  0  0  0  0
   37.2960   33.2720   39.4560 C   0  0  0  0  0  0  0  0  0  0  0  0
   36.3180   33.6740   39.2680 H   0  0  0  0  0  0  0  0  0  0  0  0
   38.2500   34.0010   40.0130 N   0  0  0  0  0  0  0  0  0  0  0  0
   39.3300   33.2030   40.0970 C   0  0  0  0  0  0  0  0  0  0  0  0
   40.6210   33.3380   40.5660 C   0  0  0  0  0  0  0  0  0  0  0  0
   40.9280   34.2900   40.9850 H   0  0  0  0  0  0  0  0  0  0  0  0
   41.5130   32.3320   40.5190 N   0  0  0  0  0  0  0  0  0  0  0  0
   41.1780   31.1310   40.0060 C   0  0  0  0  0  0  0  0  0  0  0  0
   41.9570   30.3950   40.0140 H   0  0  0  0  0  0  0  0  0  0  0  0
   39.9100   30.9630   39.5350 N   0  0  0  0  0  0  0  0  0  0  0  0
   39.0150   31.9440   39.5730 C   0  0  0  0  0  0  0  0  0  0  0  0
   36.9050   27.9350   41.0560 C   0  0  0  0  0  0  0  0  0  0  0  0
   36.7980   29.3090   41.2440 C   0  0  0  0  0  0  0  0  0  0  0  0
   37.6650   29.8870   42.1700 C   0  0  0  0  0  0  0  0  0  0  0  0
   38.5690   29.1480   42.8520 N   0  0  0  0  0  0  0  0  0  0  0  0
   38.6420   27.8100   42.6380 C   0  0  0  0  0  0  0  0  0  0  0  0
   37.8150   27.1980   41.7440 N   0  0  0  0  0  0  0  0  0  0  0  0
   36.2280   27.5010   40.3360 H   0  0  0  0  0  0  0  0  0  0  0  0
   37.6800   30.9130   42.4250 H   0  0  0  0  0  0  0  0  0  0  0  0
   40.2150   25.8870   42.5270 C   0  0  2  0  0  0  0  0  0  0  0  0
   39.6360   27.0470   43.3890 C   0  0  1  0  0  0  0  0  0  0  0  0
   40.7900   27.6930   43.6710 O   0  0  0  0  0  0  0  0  0  0  0  0
   41.7100   26.7590   44.0540 C   0  0  0  0  0  0  0  0  0  0  0  0
   41.2590   25.4100   43.5430 C   0  0  2  0  0  0  0  0  0  0  0  0
   39.4400   25.1260   42.3300 H   0  0  0  0  0  0  0  0  0  0  0  0
   39.2280   26.5710   44.3120 H   0  0  0  0  0  0  0  0  0  0  0  0
   41.8520   26.7740   45.1540 H   0  0  0  0  0  0  0  0  0  0  0  0
   42.6950   27.0300   43.6190 H   0  0  0  0  0  0  0  0  0  0  0  0
   40.7980   24.8650   44.3680 H   0  0  0  0  0  0  0  0  0  0  0  0
   40.8650   26.3760   41.4590 O   0  0  0  0  0  0  0  0  0  0  0  0
   40.5390   26.0900   40.5780 H   0  0  0  0  0  0  0  0  0  0  0  0
   42.2580   24.6700   42.9700 O   0  0  0  0  0  0  0  0  0  0  0  0
   43.0690   24.7260   43.5500 H   0  0  0  0  0  0  0  0  0  0  0  0
  1  3  1  0  0  0  0
  1  2  1  0  0  0  0
  1 27  1  0  0  0  0
  4  1  1  0  0  0  0
  5 10  1  0  0  0  0
  5  4  2  0  0  0  0
  6  5  1  0  0  0  0
  7  6  2  0  0  0  0
  7  8  1  0  0  0  0
  8  9  2  0  0  0  0
  9  4  1  0  0  0  0
  9 14  1  0  0  0  0
 11  6  1  0  0  0  0
 12  7  1  0  0  0  0
 13  8  1  0  0  0  0
 14 15  1  0  0  0  0
 14 25  1  0  0  0  0
 15 17  2  0  0  0  0
 16 15  1  0  0  0  0
 17 18  1  0  0  0  0
 18 19  1  0  0  0  0
 19 20  1  0  0  0  0
 21 19  2  0  0  0  0
 22 23  1  0  0  0  0
 22 21  1  0  0  0  0
 24 25  1  0  0  0  0
 24 22  2  0  0  0  0
 25 18  2  0  0  0  0
 26 27  2  0  0  0  0
 26 31  1  0  0  0  0
 27 28  1  0  0  0  0
 28 33  1  0  0  0  0
 28 29  2  0  0  0  0
 30 29  1  0  0  0  0
 30 35  1  0  0  0  0
 31 30  2  0  0  0  0
 32 26  1  0  0  0  0
 34 39  1  6  0  0  0
 34 35  1  0  0  0  0
 34 38  1  0  0  0  0
 35 36  1  0  0  0  0
 35 40  1  1  0  0  0
 36 37  1  0  0  0  0
 37 41  1  0  0  0  0
 38 37  1  0  0  0  0
 38 43  1  1  0  0  0
 42 37  1  0  0  0  0
 44 34  1  0  0  0  0
 45 44  1  0  0  0  0
 46 38  1  0  0  0  0
 46 47  1  0  0  0  0
M  END
>  <minimizedAffinity>
-6.82716846

$$$$

 OpenBabel03252503483D

 47 51  0  0  1  0  0  0  0  0999 V2000
   36.4160   29.3470   40.9870 C   0  0  0  0  0  0  0  0  0  0  0  0
   35.6940   29.9510   41.5780 H   0  0  0  0  0  0  0  0  0  0  0  0
   36.7300   28.5320   41.6740 H   0  0  0  0  0  0  0  0  0  0  0  0
   35.7520   28.8170   39.7880 C   0  0  0  0  0  0  0  0  0  0  0  0
   34.5650   29.2810   39.2660 C   0  0  0  0  0  0  0  0  0  0  0  0
   33.9810   28.7450   38.1460 C   0  0  0  0  0  0  0  0  0  0  0  0
   34.6080   27.7000   37.5200 C   0  0  0  0  0  0  0  0  0  0  0  0
   35.8110   27.2100   38.0260 C   0  0  0  0  0  0  0  0  0  0  0  0
   36.3920   27.7670   39.1660 C   0  0  0  0  0  0  0  0  0  0  0  0
   34.1410   30.1100   39.8280 H   0  0  0  0  0  0  0  0  0  0  0  0
   33.0480   29.1660   37.7980 H   0  0  0  0  0  0  0  0  0  0  0  0
   34.1010   27.3220   36.6460 H   0  0  0  0  0  0  0  0  0  0  0  0
   36.1690   26.3840   37.4100 H   0  0  0  0  0  0  0  0  0  0  0  0
   37.6070   27.0780   39.4260 N   0  0  0  0  0  0  0  0  0  0  0  0
   38.8270   27.2260   38.8300 C   0  0  0  0  0  0  0  0  0  0  0  0
   39.0640   27.9140   38.0410 H   0  0  0  0  0  0  0  0  0  0  0  0
   39.7380   26.4060   39.3330 N   0  0  0  0  0  0  0  0  0  0  0  0
   39.1120   25.6920   40.2860 C   0  0  0  0  0  0  0  0  0  0  0  0
   39.4760   24.6950   41.1680 C   0  0  0  0  0  0  0  0  0  0  0  0
   40.5000   24.3360   41.1580 H   0  0  0  0  0  0  0  0  0  0  0  0
   38.6060   24.1500   42.0370 N   0  0  0  0  0  0  0  0  0  0  0  0
   37.3230   24.5620   42.0860 C   0  0  0  0  0  0  0  0  0  0  0  0
   36.7090   24.0670   42.8120 H   0  0  0  0  0  0  0  0  0  0  0  0
   36.9310   25.5470   41.2290 N   0  0  0  0  0  0  0  0  0  0  0  0
   37.7750   26.0970   40.3630 C   0  0  0  0  0  0  0  0  0  0  0  0
   38.8000   29.9910   41.1130 C   0  0  0  0  0  0  0  0  0  0  0  0
   37.5210   30.2080   40.6120 C   0  0  0  0  0  0  0  0  0  0  0  0
   37.3590   31.2850   39.7420 C   0  0  0  0  0  0  0  0  0  0  0  0
   38.3980   32.0800   39.3980 N   0  0  0  0  0  0  0  0  0  0  0  0
   39.6300   31.8330   39.9070 C   0  0  0  0  0  0  0  0  0  0  0  0
   39.8390   30.7940   40.7640 N   0  0  0  0  0  0  0  0  0  0  0  0
   38.9100   29.1550   41.7850 H   0  0  0  0  0  0  0  0  0  0  0  0
   36.4420   31.5760   39.3030 H   0  0  0  0  0  0  0  0  0  0  0  0
   41.1030   32.4890   38.0140 C   0  0  2  0  0  0  0  0  0  0  0  0
   40.7280   32.7110   39.5080 C   0  0  1  0  0  0  0  0  0  0  0  0
   40.4410   34.0320   39.4560 O   0  0  0  0  0  0  0  0  0  0  0  0
   41.4370   34.6490   38.7550 C   0  0  0  0  0  0  0  0  0  0  0  0
   42.1470   33.6080   37.9200 C   0  0  2  0  0  0  0  0  0  0  0  0
   41.5440   31.4880   37.8690 H   0  0  0  0  0  0  0  0  0  0  0  0
   41.6660   32.5460   40.0890 H   0  0  0  0  0  0  0  0  0  0  0  0
   42.1220   35.1910   39.4360 H   0  0  0  0  0  0  0  0  0  0  0  0
   40.9840   35.4260   38.1030 H   0  0  0  0  0  0  0  0  0  0  0  0
   43.0750   33.3360   38.4250 H   0  0  0  0  0  0  0  0  0  0  0  0
   40.0710   32.8130   37.2180 O   0  0  0  0  0  0  0  0  0  0  0  0
   39.7280   32.1030   36.6340 H   0  0  0  0  0  0  0  0  0  0  0  0
   42.3910   34.0000   36.6310 O   0  0  0  0  0  0  0  0  0  0  0  0
   42.7390   34.9350   36.6430 H   0  0  0  0  0  0  0  0  0  0  0  0
  1  2  1  0  0  0  0
  1  3  1  0  0  0  0
  4  1  1  0  0  0  0
  5  4  1  0  0  0  0
  5 10  1  0  0  0  0
  6  5  2  0  0  0  0
  7  8  2  0  0  0  0
  7  6  1  0  0  0  0
  8  9  1  0  0  0  0
  9 14  1  0  0  0  0
  9  4  2  0  0  0  0
 11  6  1  0  0  0  0
 12  7  1  0  0  0  0
 13  8  1  0  0  0  0
 14 25  1  0  0  0  0
 15 17  2  0  0  0  0
 15 14  1  0  0  0  0
 16 15  1  0  0  0  0
 17 18  1  0  0  0  0
 18 25  2  0  0  0  0
 18 19  1  0  0  0  0
 19 21  2  0  0  0  0
 20 19  1  0  0  0  0
 21 22  1  0  0  0  0
 22 23  1  0  0  0  0
 24 22  2  0  0  0  0
 25 24  1  0  0  0  0
 26 32  1  0  0  0  0
 27  1  1  0  0  0  0
 27 26  2  0  0  0  0
 28 27  1  0  0  0  0
 29 28  2  0  0  0  0
 29 30  1  0  0  0  0
 30 31  2  0  0  0  0
 31 26  1  0  0  0  0
 33 28  1  0  0  0  0
 34 39  1  6  0  0  0
 34 35  1  0  0  0  0
 35 30  1  0  0  0  0
 35 40  1  1  0  0  0
 36 35  1  0  0  0  0
 37 41  1  0  0  0  0
 37 36  1  0  0  0  0
 38 34  1  0  0  0  0
 38 43  1  1  0  0  0
 38 37  1  0  0  0  0
 42 37  1  0  0  0  0
 44 34  1  0  0  0  0
 45 44  1  0  0  0  0
 46 47  1  0  0  0  0
 46 38  1  0  0  0  0
M  END
>  <minimizedAffinity>
-6.69157791

$$$$

 OpenBabel03252503483D

 47 51  0  0  1  0  0  0  0  0999 V2000
   36.1160   28.9930   39.9430 C   0  0  0  0  0  0  0  0  0  0  0  0
   35.8180   28.5610   38.9630 H   0  0  0  0  0  0  0  0  0  0  0  0
   35.2250   29.5650   40.2810 H   0  0  0  0  0  0  0  0  0  0  0  0
   36.4500   27.9100   40.8800 C   0  0  0  0  0  0  0  0  0  0  0  0
   36.4770   28.0280   42.2520 C   0  0  0  0  0  0  0  0  0  0  0  0
   36.8040   26.9860   43.0830 C   0  0  0  0  0  0  0  0  0  0  0  0
   37.1160   25.7760   42.5230 C   0  0  0  0  0  0  0  0  0  0  0  0
   37.0960   25.6290   41.1370 C   0  0  0  0  0  0  0  0  0  0  0  0
   36.7610   26.6970   40.3050 C   0  0  0  0  0  0  0  0  0  0  0  0
   36.2160   29.0220   42.6060 H   0  0  0  0  0  0  0  0  0  0  0  0
   36.8020   27.1580   44.1510 H   0  0  0  0  0  0  0  0  0  0  0  0
   37.3640   24.9970   43.2280 H   0  0  0  0  0  0  0  0  0  0  0  0
   37.3680   24.6080   40.8640 H   0  0  0  0  0  0  0  0  0  0  0  0
   36.8080   26.2440   38.9590 N   0  0  0  0  0  0  0  0  0  0  0  0
   35.7850   25.8470   38.1460 C   0  0  0  0  0  0  0  0  0  0  0  0
   34.7450   25.8170   38.4110 H   0  0  0  0  0  0  0  0  0  0  0  0
   36.2070   25.4840   36.9440 N   0  0  0  0  0  0  0  0  0  0  0  0
   37.5430   25.6390   36.9540 C   0  0  0  0  0  0  0  0  0  0  0  0
   38.5640   25.4450   36.0450 C   0  0  0  0  0  0  0  0  0  0  0  0
   38.3190   25.0770   35.0550 H   0  0  0  0  0  0  0  0  0  0  0  0
   39.8510   25.6940   36.3460 N   0  0  0  0  0  0  0  0  0  0  0  0
   40.2040   26.1520   37.5640 C   0  0  0  0  0  0  0  0  0  0  0  0
   41.2530   26.3200   37.7050 H   0  0  0  0  0  0  0  0  0  0  0  0
   39.2200   26.3560   38.4850 N   0  0  0  0  0  0  0  0  0  0  0  0
   37.9430   26.1150   38.2080 C   0  0  0  0  0  0  0  0  0  0  0  0
   38.0400   29.7290   38.5750 C   0  0  0  0  0  0  0  0  0  0  0  0
   37.2690   29.8450   39.7270 C   0  0  0  0  0  0  0  0  0  0  0  0
   37.6590   30.8120   40.6520 C   0  0  0  0  0  0  0  0  0  0  0  0
   38.7350   31.6030   40.4380 N   0  0  0  0  0  0  0  0  0  0  0  0
   39.4600   31.4600   39.3000 C   0  0  0  0  0  0  0  0  0  0  0  0
   39.1210   30.5270   38.3670 N   0  0  0  0  0  0  0  0  0  0  0  0
   37.7260   28.9760   37.8690 H   0  0  0  0  0  0  0  0  0  0  0  0
   37.1780   30.9950   41.5750 H   0  0  0  0  0  0  0  0  0  0  0  0
   41.1030   32.2860   37.6270 C   0  0  2  0  0  0  0  0  0  0  0  0
   40.6120   32.3360   39.1030 C   0  0  1  0  0  0  0  0  0  0  0  0
   40.3690   33.6640   39.1970 O   0  0  0  0  0  0  0  0  0  0  0  0
   41.4370   34.3240   38.6600 C   0  0  0  0  0  0  0  0  0  0  0  0
   42.1830   33.3670   37.7580 C   0  0  2  0  0  0  0  0  0  0  0  0
   41.5260   31.2950   37.3920 H   0  0  0  0  0  0  0  0  0  0  0  0
   41.4930   32.0630   39.7310 H   0  0  0  0  0  0  0  0  0  0  0  0
   42.0790   34.7500   39.4570 H   0  0  0  0  0  0  0  0  0  0  0  0
   41.0620   35.1930   38.0780 H   0  0  0  0  0  0  0  0  0  0  0  0
   43.0580   32.9980   38.2960 H   0  0  0  0  0  0  0  0  0  0  0  0
   40.1500   32.7470   36.8000 O   0  0  0  0  0  0  0  0  0  0  0  0
   39.8370   32.1290   36.1060 H   0  0  0  0  0  0  0  0  0  0  0  0
   42.5450   33.9050   36.5530 O   0  0  0  0  0  0  0  0  0  0  0  0
   42.9180   34.8180   36.7110 H   0  0  0  0  0  0  0  0  0  0  0  0
  1  3  1  0  0  0  0
  1  4  1  0  0  0  0
  2  1  1  0  0  0  0
  4  5  1  0  0  0  0
  5 10  1  0  0  0  0
  5  6  2  0  0  0  0
  6 11  1  0  0  0  0
  7  6  1  0  0  0  0
  7 12  1  0  0  0  0
  8  7  2  0  0  0  0
  9  4  2  0  0  0  0
  9  8  1  0  0  0  0
 13  8  1  0  0  0  0
 14  9  1  0  0  0  0
 15 16  1  0  0  0  0
 15 14  1  0  0  0  0
 17 18  1  0  0  0  0
 17 15  2  0  0  0  0
 18 25  1  0  0  0  0
 19 21  1  0  0  0  0
 19 18  2  0  0  0  0
 20 19  1  0  0  0  0
 21 22  2  0  0  0  0
 22 23  1  0  0  0  0
 22 24  1  0  0  0  0
 25 24  2  0  0  0  0
 25 14  1  0  0  0  0
 26 27  1  0  0  0  0
 27  1  1  0  0  0  0
 27 28  2  0  0  0  0
 28 33  1  0  0  0  0
 29 28  1  0  0  0  0
 30 29  2  0  0  0  0
 31 26  2  0  0  0  0
 31 30  1  0  0  0  0
 32 26  1  0  0  0  0
 34 39  1  6  0  0  0
 34 38  1  0  0  0  0
 34 35  1  0  0  0  0
 35 36  1  0  0  0  0
 35 30  1  0  0  0  0
 35 40  1  1  0  0  0
 37 36  1  0  0  0  0
 37 41  1  0  0  0  0
 38 43  1  1  0  0  0
 38 37  1  0  0  0  0
 42 37  1  0  0  0  0
 44 34  1  0  0  0  0
 45 44  1  0  0  0  0
 46 47  1  0  0  0  0
 46 38  1  0  0  0  0
M  END
>  <minimizedAffinity>
-6.57523203

$$$$

 OpenBabel03252503483D

 47 51  0  0  1  0  0  0  0  0999 V2000
   36.7630   26.3100   42.8620 C   0  0  0  0  0  0  0  0  0  0  0  0
   35.7130   26.0590   43.1270 H   0  0  0  0  0  0  0  0  0  0  0  0
   37.2990   26.3380   43.8350 H   0  0  0  0  0  0  0  0  0  0  0  0
   37.3100   25.2760   41.9720 C   0  0  0  0  0  0  0  0  0  0  0  0
   36.5620   24.4100   41.2080 C   0  0  0  0  0  0  0  0  0  0  0  0
   37.1230   23.4550   40.3980 C   0  0  0  0  0  0  0  0  0  0  0  0
   38.4890   23.3600   40.3490 C   0  0  0  0  0  0  0  0  0  0  0  0
   39.2710   24.2250   41.1120 C   0  0  0  0  0  0  0  0  0  0  0  0
   38.6850   25.1920   41.9300 C   0  0  0  0  0  0  0  0  0  0  0  0
   35.4900   24.5570   41.3100 H   0  0  0  0  0  0  0  0  0  0  0  0
   36.4670   22.8110   39.8270 H   0  0  0  0  0  0  0  0  0  0  0  0
   38.8700   22.5910   39.6950 H   0  0  0  0  0  0  0  0  0  0  0  0
   40.3300   24.0130   40.9550 H   0  0  0  0  0  0  0  0  0  0  0  0
   39.7240   25.9270   42.5630 N   0  0  0  0  0  0  0  0  0  0  0  0
   40.2970   25.7320   43.7870 C   0  0  0  0  0  0  0  0  0  0  0  0
   40.0390   24.9610   44.4880 H   0  0  0  0  0  0  0  0  0  0  0  0
   41.2430   26.6200   44.0490 N   0  0  0  0  0  0  0  0  0  0  0  0
   41.3040   27.4300   42.9760 C   0  0  0  0  0  0  0  0  0  0  0  0
   42.0560   28.5290   42.6130 C   0  0  0  0  0  0  0  0  0  0  0  0
   42.8040   28.9010   43.3040 H   0  0  0  0  0  0  0  0  0  0  0  0
   41.8900   29.1560   41.4350 N   0  0  0  0  0  0  0  0  0  0  0  0
   40.9700   28.7310   40.5440 C   0  0  0  0  0  0  0  0  0  0  0  0
   40.9160   29.2960   39.6360 H   0  0  0  0  0  0  0  0  0  0  0  0
   40.2120   27.6460   40.8720 N   0  0  0  0  0  0  0  0  0  0  0  0
   40.3600   27.0140   42.0310 C   0  0  0  0  0  0  0  0  0  0  0  0
   37.3240   28.7180   42.8010 C   0  0  0  0  0  0  0  0  0  0  0  0
   36.7610   27.5990   42.1970 C   0  0  0  0  0  0  0  0  0  0  0  0
   36.2010   27.7800   40.9330 C   0  0  0  0  0  0  0  0  0  0  0  0
   36.2070   28.9860   40.3220 N   0  0  0  0  0  0  0  0  0  0  0  0
   36.7680   30.0530   40.9450 C   0  0  0  0  0  0  0  0  0  0  0  0
   37.3260   29.9280   42.1820 N   0  0  0  0  0  0  0  0  0  0  0  0
   37.7530   28.5630   43.7790 H   0  0  0  0  0  0  0  0  0  0  0  0
   35.7250   27.0230   40.3690 H   0  0  0  0  0  0  0  0  0  0  0  0
   37.9470   32.2300   40.7160 C   0  0  2  0  0  0  0  0  0  0  0  0
   36.7600   31.3380   40.2490 C   0  0  1  0  0  0  0  0  0  0  0  0
   37.0380   31.2970   38.9260 O   0  0  0  0  0  0  0  0  0  0  0  0
   37.3240   32.5680   38.5190 C   0  0  0  0  0  0  0  0  0  0  0  0
   37.7040   33.3830   39.7350 C   0  0  2  0  0  0  0  0  0  0  0  0
   37.8120   32.5360   41.7680 H   0  0  0  0  0  0  0  0  0  0  0  0
   35.8360   31.9360   40.4280 H   0  0  0  0  0  0  0  0  0  0  0  0
   36.4720   33.0050   37.9610 H   0  0  0  0  0  0  0  0  0  0  0  0
   38.1690   32.5300   37.7990 H   0  0  0  0  0  0  0  0  0  0  0  0
   36.8440   33.9860   40.0280 H   0  0  0  0  0  0  0  0  0  0  0  0
   39.1190   31.6540   40.4010 O   0  0  0  0  0  0  0  0  0  0  0  0
   39.7280   31.4650   41.1470 H   0  0  0  0  0  0  0  0  0  0  0  0
   38.8100   34.1690   39.5550 O   0  0  0  0  0  0  0  0  0  0  0  0
   38.7380   34.6220   38.6680 H   0  0  0  0  0  0  0  0  0  0  0  0
  1  2  1  0  0  0  0
  1  3  1  0  0  0  0
  4  1  1  0  0  0  0
  5 10  1  0  0  0  0
  5  4  2  0  0  0  0
  6  5  1  0  0  0  0
  7  6  2  0  0  0  0
  7  8  1  0  0  0  0
  8  9  2  0  0  0  0
  9  4  1  0  0  0  0
  9 14  1  0  0  0  0
 11  6  1  0  0  0  0
 12  7  1  0  0  0  0
 13  8  1  0  0  0  0
 14 15  1  0  0  0  0
 15 17  2  0  0  0  0
 15 16  1  0  0  0  0
 18 17  1  0  0  0  0
 19 18  1  0  0  0  0
 19 20  1  0  0  0  0
 21 19  2  0  0  0  0
 22 24  2  0  0  0  0
 22 21  1  0  0  0  0
 23 22  1  0  0  0  0
 24 25  1  0  0  0  0
 25 14  1  0  0  0  0
 25 18  2  0  0  0  0
 26 32  1  0  0  0  0
 27 26  1  0  0  0  0
 27  1  1  0  0  0  0
 28 27  2  0  0  0  0
 29 28  1  0  0  0  0
 29 30  2  0  0  0  0
 30 31  1  0  0  0  0
 31 26  2  0  0  0  0
 33 28  1  0  0  0  0
 34 39  1  1  0  0  0
 35 40  1  1  0  0  0
 35 34  1  0  0  0  0
 35 30  1  0  0  0  0
 36 35  1  0  0  0  0
 37 36  1  0  0  0  0
 37 38  1  0  0  0  0
 38 43  1  1  0  0  0
 38 34  1  0  0  0  0
 41 37  1  0  0  0  0
 42 37  1  0  0  0  0
 44 34  1  0  0  0  0
 44 45  1  0  0  0  0
 46 38  1  0  0  0  0
 47 46  1  0  0  0  0
M  END
>  <minimizedAffinity>
-6.46916485

$$$$

 OpenBabel03252503483D

 47 51  0  0  1  0  0  0  0  0999 V2000
   38.0030   28.4180   41.0140 C   0  0  0  0  0  0  0  0  0  0  0  0
   37.6710   27.8880   40.0950 H   0  0  0  0  0  0  0  0  0  0  0  0
   37.0640   28.7830   41.4830 H   0  0  0  0  0  0  0  0  0  0  0  0
   38.7190   27.4840   41.8940 C   0  0  0  0  0  0  0  0  0  0  0  0
   39.0790   27.7390   43.1980 C   0  0  0  0  0  0  0  0  0  0  0  0
   39.7560   26.8340   43.9760 C   0  0  0  0  0  0  0  0  0  0  0  0
   40.0870   25.6220   43.4300 C   0  0  0  0  0  0  0  0  0  0  0  0
   39.7340   25.3360   42.1120 C   0  0  0  0  0  0  0  0  0  0  0  0
   39.0460   26.2680   41.3340 C   0  0  0  0  0  0  0  0  0  0  0  0
   38.7770   28.7240   43.5460 H   0  0  0  0  0  0  0  0  0  0  0  0
   40.0030   27.1090   44.9930 H   0  0  0  0  0  0  0  0  0  0  0  0
   40.6170   24.9530   44.0910 H   0  0  0  0  0  0  0  0  0  0  0  0
   40.0730   24.3350   41.8410 H   0  0  0  0  0  0  0  0  0  0  0  0
   38.8120   25.6920   40.0560 N   0  0  0  0  0  0  0  0  0  0  0  0
   39.5620   25.7830   38.9190 C   0  0  0  0  0  0  0  0  0  0  0  0
   40.4810   26.3270   38.8120 H   0  0  0  0  0  0  0  0  0  0  0  0
   39.0310   25.1120   37.9080 N   0  0  0  0  0  0  0  0  0  0  0  0
   37.8990   24.5600   38.3800 C   0  0  0  0  0  0  0  0  0  0  0  0
   36.9020   23.7600   37.8590 C   0  0  0  0  0  0  0  0  0  0  0  0
   36.9660   23.4550   36.8200 H   0  0  0  0  0  0  0  0  0  0  0  0
   35.8530   23.3490   38.5930 N   0  0  0  0  0  0  0  0  0  0  0  0
   35.7290   23.7030   39.8880 C   0  0  0  0  0  0  0  0  0  0  0  0
   34.8590   23.3250   40.3870 H   0  0  0  0  0  0  0  0  0  0  0  0
   36.6970   24.4930   40.4340 N   0  0  0  0  0  0  0  0  0  0  0  0
   37.7410   24.9100   39.7250 C   0  0  0  0  0  0  0  0  0  0  0  0
   38.8960   30.7050   41.3160 C   0  0  0  0  0  0  0  0  0  0  0  0
   38.8770   29.5040   40.6140 C   0  0  0  0  0  0  0  0  0  0  0  0
   39.7320   29.4020   39.5180 C   0  0  0  0  0  0  0  0  0  0  0  0
   40.5440   30.4210   39.1560 N   0  0  0  0  0  0  0  0  0  0  0  0
   40.5330   31.5750   39.8680 C   0  0  0  0  0  0  0  0  0  0  0  0
   39.7130   31.7260   40.9460 N   0  0  0  0  0  0  0  0  0  0  0  0
   38.2290   30.7700   42.1620 H   0  0  0  0  0  0  0  0  0  0  0  0
   39.8060   28.5580   38.8860 H   0  0  0  0  0  0  0  0  0  0  0  0
   41.6990   32.5850   37.9170 C   0  0  2  0  0  0  0  0  0  0  0  0
   41.4290   32.6510   39.4490 C   0  0  1  0  0  0  0  0  0  0  0  0
   40.9220   33.9040   39.5180 O   0  0  0  0  0  0  0  0  0  0  0  0
   41.7330   34.7240   38.7860 C   0  0  0  0  0  0  0  0  0  0  0  0
   42.5290   33.8710   37.8240 C   0  0  2  0  0  0  0  0  0  0  0  0
   42.2860   31.6860   37.6660 H   0  0  0  0  0  0  0  0  0  0  0  0
   42.4290   32.6160   39.9410 H   0  0  0  0  0  0  0  0  0  0  0  0
   42.3770   35.3350   39.4500 H   0  0  0  0  0  0  0  0  0  0  0  0
   41.1000   35.4480   38.2310 H   0  0  0  0  0  0  0  0  0  0  0  0
   43.5310   33.7340   38.2330 H   0  0  0  0  0  0  0  0  0  0  0  0
   40.5600   32.7730   37.2320 O   0  0  0  0  0  0  0  0  0  0  0  0
   40.2890   32.0500   36.6260 H   0  0  0  0  0  0  0  0  0  0  0  0
   42.5870   34.3740   36.5530 O   0  0  0  0  0  0  0  0  0  0  0  0
   42.7740   35.3530   36.6060 H   0  0  0  0  0  0  0  0  0  0  0  0
  1  3  1  0  0  0  0
  1  4  1  0  0  0  0
  2  1  1  0  0  0  0
  4  5  1  0  0  0  0
  5 10  1  0  0  0  0
  5  6  2  0  0  0  0
  6 11  1  0  0  0  0
  7  6  1  0  0  0  0
  7 12  1  0  0  0  0
  8  7  2  0  0  0  0
  9  4  2  0  0  0  0
  9  8  1  0  0  0  0
 13  8  1  0  0  0  0
 14  9  1  0  0  0  0
 15 14  1  0  0  0  0
 16 15  1  0  0  0  0
 17 18  1  0  0  0  0
 17 15  2  0  0  0  0
 18 25  1  0  0  0  0
 19 18  2  0  0  0  0
 19 21  1  0  0  0  0
 20 19  1  0  0  0  0
 21 22  2  0  0  0  0
 22 23  1  0  0  0  0
 22 24  1  0  0  0  0
 25 14  1  0  0  0  0
 25 24  2  0  0  0  0
 26 32  1  0  0  0  0
 27  1  1  0  0  0  0
 27 26  2  0  0  0  0
 28 27  1  0  0  0  0
 29 28  2  0  0  0  0
 29 30  1  0  0  0  0
 30 31  2  0  0  0  0
 31 26  1  0  0  0  0
 33 28  1  0  0  0  0
 34 39  1  6  0  0  0
 34 35  1  0  0  0  0
 35 36  1  0  0  0  0
 35 30  1  0  0  0  0
 35 40  1  1  0  0  0
 37 41  1  0  0  0  0
 37 36  1  0  0  0  0
 38 34  1  0  0  0  0
 38 43  1  1  0  0  0
 38 37  1  0  0  0  0
 42 37  1  0  0  0  0
 44 34  1  0  0  0  0
 45 44  1  0  0  0  0
 46 47  1  0  0  0  0
 46 38  1  0  0  0  0
M  END
>  <minimizedAffinity>
-6.42342424

$$$$

 OpenBabel03252503483D

 47 51  0  0  1  0  0  0  0  0999 V2000
   34.9750   29.1340   39.7150 C   0  0  0  0  0  0  0  0  0  0  0  0
   34.0980   29.4730   39.1220 H   0  0  0  0  0  0  0  0  0  0  0  0
   34.5830   29.0030   40.7470 H   0  0  0  0  0  0  0  0  0  0  0  0
   35.4860   27.8700   39.1660 C   0  0  0  0  0  0  0  0  0  0  0  0
   35.0570   27.2810   37.9980 C   0  0  0  0  0  0  0  0  0  0  0  0
   35.5620   26.0930   37.5320 C   0  0  0  0  0  0  0  0  0  0  0  0
   36.5370   25.4670   38.2630 C   0  0  0  0  0  0  0  0  0  0  0  0
   36.9910   26.0420   39.4490 C   0  0  0  0  0  0  0  0  0  0  0  0
   36.4670   27.2510   39.9080 C   0  0  0  0  0  0  0  0  0  0  0  0
   34.2830   27.8470   37.4870 H   0  0  0  0  0  0  0  0  0  0  0  0
   35.1730   25.6940   36.6060 H   0  0  0  0  0  0  0  0  0  0  0  0
   36.8940   24.5380   37.8460 H   0  0  0  0  0  0  0  0  0  0  0  0
   37.7630   25.4150   39.8990 H   0  0  0  0  0  0  0  0  0  0  0  0
   37.1320   27.5910   41.1170 N   0  0  0  0  0  0  0  0  0  0  0  0
   36.7270   27.4000   42.4080 C   0  0  0  0  0  0  0  0  0  0  0  0
   35.8050   26.9460   42.7180 H   0  0  0  0  0  0  0  0  0  0  0  0
   37.6110   27.8490   43.2860 N   0  0  0  0  0  0  0  0  0  0  0  0
   38.6300   28.3520   42.5670 C   0  0  0  0  0  0  0  0  0  0  0  0
   39.8370   28.9560   42.8580 C   0  0  0  0  0  0  0  0  0  0  0  0
   40.1110   29.1030   43.8980 H   0  0  0  0  0  0  0  0  0  0  0  0
   40.6830   29.3710   41.8990 N   0  0  0  0  0  0  0  0  0  0  0  0
   40.3860   29.2120   40.5930 C   0  0  0  0  0  0  0  0  0  0  0  0
   41.1240   29.5740   39.9070 H   0  0  0  0  0  0  0  0  0  0  0  0
   39.2020   28.6170   40.2720 N   0  0  0  0  0  0  0  0  0  0  0  0
   38.3530   28.2010   41.2040 C   0  0  0  0  0  0  0  0  0  0  0  0
   36.2990   30.9510   40.7440 C   0  0  0  0  0  0  0  0  0  0  0  0
   35.9920   30.1650   39.6390 C   0  0  0  0  0  0  0  0  0  0  0  0
   36.7040   30.4190   38.4680 C   0  0  0  0  0  0  0  0  0  0  0  0
   37.6520   31.3810   38.4100 N   0  0  0  0  0  0  0  0  0  0  0  0
   37.9230   32.1250   39.5110 C   0  0  0  0  0  0  0  0  0  0  0  0
   37.2520   31.9180   40.6790 N   0  0  0  0  0  0  0  0  0  0  0  0
   35.7390   30.7440   41.6430 H   0  0  0  0  0  0  0  0  0  0  0  0
   36.5610   29.9110   37.5510 H   0  0  0  0  0  0  0  0  0  0  0  0
   39.4840   33.5520   40.8200 C   0  0  2  0  0  0  0  0  0  0  0  0
   38.9580   33.1520   39.4110 C   0  0  1  0  0  0  0  0  0  0  0  0
   40.1280   32.7620   38.8540 O   0  0  0  0  0  0  0  0  0  0  0  0
   41.0670   33.7090   39.1460 C   0  0  0  0  0  0  0  0  0  0  0  0
   40.5860   34.5040   40.3390 C   0  0  2  0  0  0  0  0  0  0  0  0
   38.6990   34.0720   41.3940 H   0  0  0  0  0  0  0  0  0  0  0  0
   38.6040   34.0970   38.9340 H   0  0  0  0  0  0  0  0  0  0  0  0
   41.2730   34.3450   38.2630 H   0  0  0  0  0  0  0  0  0  0  0  0
   42.0250   33.2000   39.3810 H   0  0  0  0  0  0  0  0  0  0  0  0
   40.1730   35.4480   39.9800 H   0  0  0  0  0  0  0  0  0  0  0  0
   40.0720   32.5020   41.4160 O   0  0  0  0  0  0  0  0  0  0  0  0
   39.6950   32.2200   42.2770 H   0  0  0  0  0  0  0  0  0  0  0  0
   41.5490   34.7240   41.2860 O   0  0  0  0  0  0  0  0  0  0  0  0
   42.3920   34.9970   40.8260 H   0  0  0  0  0  0  0  0  0  0  0  0
  1  3  1  0  0  0  0
  2  1  1  0  0  0  0
  4  1  1  0  0  0  0
  4  9  1  0  0  0  0
  5  4  2  0  0  0  0
  6  5  1  0  0  0  0
  6  7  2  0  0  0  0
  7  8  1  0  0  0  0
  8 13  1  0  0  0  0
  8  9  2  0  0  0  0
  9 14  1  0  0  0  0
 10  5  1  0  0  0  0
 11  6  1  0  0  0  0
 12  7  1  0  0  0  0
 14 25  1  0  0  0  0
 14 15  1  0  0  0  0
 15 16  1  0  0  0  0
 15 17  2  0  0  0  0
 18 19  1  0  0  0  0
 18 17  1  0  0  0  0
 19 20  1  0  0  0  0
 21 19  2  0  0  0  0
 22 21  1  0  0  0  0
 23 22  1  0  0  0  0
 24 22  2  0  0  0  0
 24 25  1  0  0  0  0
 25 18  2  0  0  0  0
 26 32  1  0  0  0  0
 27  1  1  0  0  0  0
 27 26  2  0  0  0  0
 28 27  1  0  0  0  0
 29 28  2  0  0  0  0
 29 30  1  0  0  0  0
 30 31  2  0  0  0  0
 31 26  1  0  0  0  0
 33 28  1  0  0  0  0
 34 39  1  1  0  0  0
 34 44  1  0  0  0  0
 35 40  1  6  0  0  0
 35 30  1  0  0  0  0
 35 34  1  0  0  0  0
 36 37  1  0  0  0  0
 36 35  1  0  0  0  0
 37 42  1  0  0  0  0
 37 38  1  0  0  0  0
 38 43  1  6  0  0  0
 38 34  1  0  0  0  0
 38 46  1  0  0  0  0
 41 37  1  0  0  0  0
 44 45  1  0  0  0  0
 47 46  1  0  0  0  0
M  END
>  <minimizedAffinity>
-6.39176846

$$$$

 OpenBabel03252503483D

 47 51  0  0  1  0  0  0  0  0999 V2000
   36.1230   29.1810   39.9720 C   0  0  0  0  0  0  0  0  0  0  0  0
   35.7840   28.8250   38.9750 H   0  0  0  0  0  0  0  0  0  0  0  0
   35.2540   29.7410   40.3820 H   0  0  0  0  0  0  0  0  0  0  0  0
   36.4700   28.0290   40.8180 C   0  0  0  0  0  0  0  0  0  0  0  0
   36.4130   28.0080   42.1930 C   0  0  0  0  0  0  0  0  0  0  0  0
   36.7560   26.9080   42.9370 C   0  0  0  0  0  0  0  0  0  0  0  0
   37.1730   25.7800   42.2810 C   0  0  0  0  0  0  0  0  0  0  0  0
   37.2400   25.7730   40.8890 C   0  0  0  0  0  0  0  0  0  0  0  0
   36.8870   26.9000   40.1470 C   0  0  0  0  0  0  0  0  0  0  0  0
   36.0720   28.9450   42.6260 H   0  0  0  0  0  0  0  0  0  0  0  0
   36.6840   26.9700   44.0150 H   0  0  0  0  0  0  0  0  0  0  0  0
   37.4290   24.9480   42.9200 H   0  0  0  0  0  0  0  0  0  0  0  0
   37.5890   24.8020   40.5340 H   0  0  0  0  0  0  0  0  0  0  0  0
   37.0370   26.5890   38.7680 N   0  0  0  0  0  0  0  0  0  0  0  0
   38.1760   26.3210   38.0630 C   0  0  0  0  0  0  0  0  0  0  0  0
   39.1730   26.3060   38.4590 H   0  0  0  0  0  0  0  0  0  0  0  0
   37.9320   26.0730   36.7850 N   0  0  0  0  0  0  0  0  0  0  0  0
   36.6000   26.1780   36.6310 C   0  0  0  0  0  0  0  0  0  0  0  0
   35.7170   26.0440   35.5790 C   0  0  0  0  0  0  0  0  0  0  0  0
   36.1060   25.7950   34.5980 H   0  0  0  0  0  0  0  0  0  0  0  0
   34.3910   26.2130   35.7270 N   0  0  0  0  0  0  0  0  0  0  0  0
   33.8590   26.5240   36.9270 C   0  0  0  0  0  0  0  0  0  0  0  0
   32.7940   26.6370   36.9430 H   0  0  0  0  0  0  0  0  0  0  0  0
   34.7050   26.6620   37.9880 N   0  0  0  0  0  0  0  0  0  0  0  0
   36.0170   26.5000   37.8620 C   0  0  0  0  0  0  0  0  0  0  0  0
   38.0880   29.8920   38.6500 C   0  0  0  0  0  0  0  0  0  0  0  0
   37.2820   30.0290   39.7760 C   0  0  0  0  0  0  0  0  0  0  0  0
   37.6450   31.0130   40.6940 C   0  0  0  0  0  0  0  0  0  0  0  0
   38.7270   31.8000   40.4990 N   0  0  0  0  0  0  0  0  0  0  0  0
   39.4860   31.6350   39.3870 C   0  0  0  0  0  0  0  0  0  0  0  0
   39.1750   30.6850   38.4610 N   0  0  0  0  0  0  0  0  0  0  0  0
   37.7960   29.1260   37.9490 H   0  0  0  0  0  0  0  0  0  0  0  0
   37.1350   31.2130   41.5990 H   0  0  0  0  0  0  0  0  0  0  0  0
   41.1750   32.4370   37.7480 C   0  0  2  0  0  0  0  0  0  0  0  0
   40.6440   32.5080   39.2090 C   0  0  1  0  0  0  0  0  0  0  0  0
   40.4010   33.8370   39.2780 O   0  0  0  0  0  0  0  0  0  0  0  0
   41.4830   34.4890   38.7610 C   0  0  0  0  0  0  0  0  0  0  0  0
   42.2530   33.5190   37.8940 C   0  0  2  0  0  0  0  0  0  0  0  0
   41.6030   31.4420   37.5380 H   0  0  0  0  0  0  0  0  0  0  0  0
   41.5070   32.2430   39.8640 H   0  0  0  0  0  0  0  0  0  0  0  0
   42.1040   34.9250   39.5690 H   0  0  0  0  0  0  0  0  0  0  0  0
   41.1260   35.3500   38.1570 H   0  0  0  0  0  0  0  0  0  0  0  0
   43.1120   33.1560   38.4600 H   0  0  0  0  0  0  0  0  0  0  0  0
   40.2460   32.8880   36.8890 O   0  0  0  0  0  0  0  0  0  0  0  0
   39.9510   32.2600   36.1950 H   0  0  0  0  0  0  0  0  0  0  0  0
   42.6480   34.0400   36.6920 O   0  0  0  0  0  0  0  0  0  0  0  0
   43.0180   34.9540   36.8470 H   0  0  0  0  0  0  0  0  0  0  0  0
  1  3  1  0  0  0  0
  1  4  1  0  0  0  0
  2  1  1  0  0  0  0
  4  5  1  0  0  0  0
  5 10  1  0  0  0  0
  5  6  2  0  0  0  0
  6 11  1  0  0  0  0
  7 12  1  0  0  0  0
  7  6  1  0  0  0  0
  8  7  2  0  0  0  0
  9  4  2  0  0  0  0
  9  8  1  0  0  0  0
 13  8  1  0  0  0  0
 14  9  1  0  0  0  0
 15 16  1  0  0  0  0
 15 14  1  0  0  0  0
 17 15  2  0  0  0  0
 18 17  1  0  0  0  0
 18 25  1  0  0  0  0
 19 21  1  0  0  0  0
 19 18  2  0  0  0  0
 20 19  1  0  0  0  0
 21 22  2  0  0  0  0
 22 23  1  0  0  0  0
 22 24  1  0  0  0  0
 25 24  2  0  0  0  0
 25 14  1  0  0  0  0
 26 27  1  0  0  0  0
 27  1  1  0  0  0  0
 27 28  2  0  0  0  0
 28 33  1  0  0  0  0
 29 28  1  0  0  0  0
 30 29  2  0  0  0  0
 31 26  2  0  0  0  0
 31 30  1  0  0  0  0
 32 26  1  0  0  0  0
 34 39  1  6  0  0  0
 34 38  1  0  0  0  0
 34 35  1  0  0  0  0
 35 36  1  0  0  0  0
 35 30  1  0  0  0  0
 35 40  1  1  0  0  0
 37 36  1  0  0  0  0
 37 41  1  0  0  0  0
 38 43  1  1  0  0  0
 38 37  1  0  0  0  0
 42 37  1  0  0  0  0
 44 34  1  0  0  0  0
 45 44  1  0  0  0  0
 46 47  1  0  0  0  0
 46 38  1  0  0  0  0
M  END
>  <minimizedAffinity>
-6.35743284

$$$$

 OpenBabel03252503483D

 47 51  0  0  1  0  0  0  0  0999 V2000
   36.7290   30.7560   41.2820 C   0  0  0  0  0  0  0  0  0  0  0  0
   35.9090   30.8390   40.5360 H   0  0  0  0  0  0  0  0  0  0  0  0
   36.4050   31.3990   42.1290 H   0  0  0  0  0  0  0  0  0  0  0  0
   36.8810   29.3540   41.6960 C   0  0  0  0  0  0  0  0  0  0  0  0
   37.2940   28.9340   42.9410 C   0  0  0  0  0  0  0  0  0  0  0  0
   37.4280   27.6100   43.2750 C   0  0  0  0  0  0  0  0  0  0  0  0
   37.1380   26.6650   42.3270 C   0  0  0  0  0  0  0  0  0  0  0  0
   36.7180   27.0610   41.0590 C   0  0  0  0  0  0  0  0  0  0  0  0
   36.5860   28.4120   40.7350 C   0  0  0  0  0  0  0  0  0  0  0  0
   37.5010   29.7520   43.6260 H   0  0  0  0  0  0  0  0  0  0  0  0
   37.7570   27.3610   44.2750 H   0  0  0  0  0  0  0  0  0  0  0  0
   37.2620   25.6420   42.6500 H   0  0  0  0  0  0  0  0  0  0  0  0
   36.5320   26.1860   40.4340 H   0  0  0  0  0  0  0  0  0  0  0  0
   36.1270   28.5030   39.3930 N   0  0  0  0  0  0  0  0  0  0  0  0
   34.8590   28.7010   38.9260 C   0  0  0  0  0  0  0  0  0  0  0  0
   33.9780   28.8210   39.5260 H   0  0  0  0  0  0  0  0  0  0  0  0
   34.8070   28.7290   37.6030 N   0  0  0  0  0  0  0  0  0  0  0  0
   36.0690   28.5450   37.1750 C   0  0  0  0  0  0  0  0  0  0  0  0
   36.6910   28.4720   35.9440 C   0  0  0  0  0  0  0  0  0  0  0  0
   36.0890   28.5750   35.0480 H   0  0  0  0  0  0  0  0  0  0  0  0
   38.0150   28.2730   35.8180 N   0  0  0  0  0  0  0  0  0  0  0  0
   38.8040   28.1380   36.9040 C   0  0  0  0  0  0  0  0  0  0  0  0
   39.8440   27.9850   36.6990 H   0  0  0  0  0  0  0  0  0  0  0  0
   38.2210   28.2080   38.1350 N   0  0  0  0  0  0  0  0  0  0  0  0
   36.9150   28.4020   38.2800 C   0  0  0  0  0  0  0  0  0  0  0  0
   37.9540   31.6980   39.3510 C   0  0  0  0  0  0  0  0  0  0  0  0
   37.9490   31.2340   40.6630 C   0  0  0  0  0  0  0  0  0  0  0  0
   39.1670   31.2520   41.3410 C   0  0  0  0  0  0  0  0  0  0  0  0
   40.2980   31.7030   40.7540 N   0  0  0  0  0  0  0  0  0  0  0  0
   40.2600   32.1490   39.4730 C   0  0  0  0  0  0  0  0  0  0  0  0
   39.0950   32.1490   38.7660 N   0  0  0  0  0  0  0  0  0  0  0  0
   37.0050   31.6780   38.8380 H   0  0  0  0  0  0  0  0  0  0  0  0
   39.3120   30.9130   42.3320 H   0  0  0  0  0  0  0  0  0  0  0  0
   42.1440   31.5430   37.9680 C   0  0  2  0  0  0  0  0  0  0  0  0
   41.5020   32.6330   38.8750 C   0  0  1  0  0  0  0  0  0  0  0  0
   41.3730   33.6190   37.9580 O   0  0  0  0  0  0  0  0  0  0  0  0
   42.5490   33.7060   37.2700 C   0  0  0  0  0  0  0  0  0  0  0  0
   43.2980   32.4040   37.4400 C   0  0  2  0  0  0  0  0  0  0  0  0
   42.4970   30.6920   38.5750 H   0  0  0  0  0  0  0  0  0  0  0  0
   42.2810   32.9080   39.6260 H   0  0  0  0  0  0  0  0  0  0  0  0
   43.1370   34.5840   37.6030 H   0  0  0  0  0  0  0  0  0  0  0  0
   42.3210   33.8850   36.1970 H   0  0  0  0  0  0  0  0  0  0  0  0
   44.0710   32.5470   38.1960 H   0  0  0  0  0  0  0  0  0  0  0  0
   41.3340   31.2540   36.9370 O   0  0  0  0  0  0  0  0  0  0  0  0
   41.0420   30.3200   36.8580 H   0  0  0  0  0  0  0  0  0  0  0  0
   43.8370   31.9160   36.2800 O   0  0  0  0  0  0  0  0  0  0  0  0
   44.2730   32.6680   35.7900 H   0  0  0  0  0  0  0  0  0  0  0  0
  1  4  1  0  0  0  0
  1  3  1  0  0  0  0
  2  1  1  0  0  0  0
  4  5  1  0  0  0  0
  5  6  2  0  0  0  0
  5 10  1  0  0  0  0
  6 11  1  0  0  0  0
  7 12  1  0  0  0  0
  7  6  1  0  0  0  0
  8  7  2  0  0  0  0
  9  8  1  0  0  0  0
  9  4  2  0  0  0  0
 13  8  1  0  0  0  0
 14  9  1  0  0  0  0
 15 14  1  0  0  0  0
 15 16  1  0  0  0  0
 17 15  2  0  0  0  0
 18 17  1  0  0  0  0
 18 25  1  0  0  0  0
 19 18  2  0  0  0  0
 20 19  1  0  0  0  0
 21 19  1  0  0  0  0
 21 22  2  0  0  0  0
 22 24  1  0  0  0  0
 23 22  1  0  0  0  0
 24 25  2  0  0  0  0
 25 14  1  0  0  0  0
 26 27  1  0  0  0  0
 27  1  1  0  0  0  0
 27 28  2  0  0  0  0
 28 33  1  0  0  0  0
 29 28  1  0  0  0  0
 30 29  2  0  0  0  0
 31 26  2  0  0  0  0
 31 30  1  0  0  0  0
 32 26  1  0  0  0  0
 34 39  1  1  0  0  0
 34 35  1  0  0  0  0
 35 30  1  0  0  0  0
 35 40  1  1  0  0  0
 36 35  1  0  0  0  0
 37 38  1  0  0  0  0
 37 41  1  0  0  0  0
 37 36  1  0  0  0  0
 38 34  1  0  0  0  0
 38 43  1  1  0  0  0
 42 37  1  0  0  0  0
 44 34  1  0  0  0  0
 45 44  1  0  0  0  0
 46 38  1  0  0  0  0
 47 46  1  0  0  0  0
M  END
>  <minimizedAffinity>
-6.21949339

$$$$
