
     RDKit          3D

 46 50  0  0  0  0  0  0  0  0999 V2000
   46.4458   32.9678   46.4695 C   0  0  2  0  0  0  0  0  0  0  0  0
   46.9767   31.7381   45.7868 C   0  0  0  0  0  0  0  0  0  0  0  0
   46.1097   30.5484   45.8096 C   0  0  0  0  0  0  0  0  0  0  0  0
   45.8092   30.2925   47.2809 C   0  0  0  0  0  0  0  0  0  0  0  0
   45.0163   31.3618   47.8852 C   0  0  0  0  0  0  0  0  0  0  0  0
   45.3883   32.7361   47.4278 C   0  0  0  0  0  0  0  0  0  0  0  0
   44.5698   35.5651   44.6090 C   0  0  0  0  0  0  0  0  0  0  0  0
   45.2217   35.5737   43.3560 C   0  0  0  0  0  0  0  0  0  0  0  0
   46.3107   34.6637   43.1848 C   0  0  0  0  0  0  0  0  0  0  0  0
   46.6676   33.8493   44.2023 N   0  0  0  0  0  0  0  0  0  0  0  0
   46.0083   33.8816   45.3843 C   0  0  0  0  0  0  0  0  0  0  0  0
   44.9585   34.7375   45.5933 N   0  0  0  0  0  0  0  0  0  0  0  0
   47.0052   34.6466   41.8937 C   0  0  0  0  0  0  0  0  0  0  0  0
   48.1386   35.3829   41.7673 C   0  0  0  0  0  0  0  0  0  0  0  0
   48.7643   35.3399   40.5209 C   0  0  0  0  0  0  0  0  0  0  0  0
   48.1782   34.5617   39.5456 C   0  0  0  0  0  0  0  0  0  0  0  0
   47.0384   33.8244   39.6809 C   0  0  0  0  0  0  0  0  0  0  0  0
   46.4527   33.8935   40.9235 N   0  0  0  0  0  0  0  0  0  0  0  0
   44.6902   33.8656   47.9405 N   0  0  0  0  0  0  0  0  0  0  0  0
   47.2860   33.5027   46.9750 H   0  0  0  0  0  0  0  0  0  0  0  0
   47.9419   31.4735   46.2663 H   0  0  0  0  0  0  0  0  0  0  0  0
   47.2531   31.9342   44.7138 H   0  0  0  0  0  0  0  0  0  0  0  0
   46.6969   29.6796   45.4767 H   0  0  0  0  0  0  0  0  0  0  0  0
   45.1975   30.7184   45.2287 H   0  0  0  0  0  0  0  0  0  0  0  0
   46.7620   30.1020   47.7944 H   0  0  0  0  0  0  0  0  0  0  0  0
   45.1669   29.3983   47.2914 H   0  0  0  0  0  0  0  0  0  0  0  0
   44.2084   31.3414   48.6028 H   0  0  0  0  0  0  0  0  0  0  0  0
   43.7539   36.2628   44.7040 H   0  0  0  0  0  0  0  0  0  0  0  0
   44.9667   36.2006   42.5359 H   0  0  0  0  0  0  0  0  0  0  0  0
   48.5307   35.9668   42.5852 H   0  0  0  0  0  0  0  0  0  0  0  0
   49.6760   35.9068   40.3534 H   0  0  0  0  0  0  0  0  0  0  0  0
   48.6550   34.5198   38.5716 H   0  0  0  0  0  0  0  0  0  0  0  0
   45.0409   34.4733   48.7167 H   0  0  0  0  0  0  0  0  0  0  0  0
   43.7726   34.1989   47.6018 H   0  0  0  0  0  0  0  0  0  0  0  0
   46.4756   33.0358   38.6358 N   0  0  0  0  0  0  0  0  0  0  0  0
   45.5704   32.0495   38.7959 C   0  0  0  0  0  0  0  0  0  0  0  0
   45.1275   31.6968   39.7222 H   0  0  0  0  0  0  0  0  0  0  0  0
   45.2508   31.5132   37.6241 N   0  0  0  0  0  0  0  0  0  0  0  0
   45.9391   32.1319   36.6446 C   0  0  0  0  0  0  0  0  0  0  0  0
   46.0534   32.0476   35.2605 C   0  0  0  0  0  0  0  0  0  0  0  0
   45.4384   31.2907   34.8036 H   0  0  0  0  0  0  0  0  0  0  0  0
   46.8879   32.8786   34.6022 N   0  0  0  0  0  0  0  0  0  0  0  0
   47.6118   33.7871   35.2559 C   0  0  0  0  0  0  0  0  0  0  0  0
   48.2721   34.4392   34.6990 H   0  0  0  0  0  0  0  0  0  0  0  0
   47.5215   33.8931   36.6060 N   0  0  0  0  0  0  0  0  0  0  0  0
   46.7023   33.0876   37.3208 C   0  0  0  0  0  0  0  0  0  0  0  0
  1  6  1  0
  2  3  1  0
  2  1  1  0
  3  4  1  0
  4  5  1  0
  6  5  2  0
  6 19  1  0
  7 12  2  0
  8  7  1  0
  9  8  2  0
  9 10  1  0
 10 11  2  0
 11 12  1  0
 11  1  1  0
 13  9  1  0
 14 13  2  0
 15 14  1  0
 16 17  1  0
 16 15  2  0
 17 18  2  0
 18 13  1  0
  1 20  1  1
  2 21  1  0
  2 22  1  0
  3 23  1  0
  3 24  1  0
  4 25  1  0
  4 26  1  0
  5 27  1  0
  7 28  1  0
  8 29  1  0
 14 30  1  0
 15 31  1  0
 16 32  1  0
 19 33  1  0
 19 34  1  0
 35 36  1  0
 36 37  1  0
 36 38  2  0
 38 39  1  0
 39 40  2  0
 40 41  1  0
 40 42  1  0
 42 43  2  0
 43 44  1  0
 43 45  1  0
 45 46  2  0
 46 35  1  0
 46 39  1  0
 17 35  1  0
M  ISO  8  20  13  21  13  22  13  23  13  24  13  25  13  26  13  27  13
M  ISO  8  28  14  29  14  30  14  31  14  32  14  37  15  41  16  44  16
M  END
>  <DihAtoms>  (1) 
15,16,34,35

>  <DihDeg>  (1) 
-32.53781059949675

$$$$
