
 OpenBabel03252503463D

 47 51  0  0  1  0  0  0  0  0999 V2000
   45.9530   35.5780   42.7350 C   0  0  0  0  0  0  0  0  0  0  0  0
   46.9500   35.4860   42.2520 H   0  0  0  0  0  0  0  0  0  0  0  0
   45.8750   36.6500   43.0170 H   0  0  0  0  0  0  0  0  0  0  0  0
   44.9030   35.1930   41.7800 C   0  0  0  0  0  0  0  0  0  0  0  0
   43.6040   35.6490   41.8030 C   0  0  0  0  0  0  0  0  0  0  0  0
   42.6580   35.2510   40.8920 C   0  0  0  0  0  0  0  0  0  0  0  0
   43.0240   34.3620   39.9160 C   0  0  0  0  0  0  0  0  0  0  0  0
   44.3330   33.8860   39.8690 C   0  0  0  0  0  0  0  0  0  0  0  0
   45.2830   34.3000   40.8030 C   0  0  0  0  0  0  0  0  0  0  0  0
   43.4050   36.3490   42.6100 H   0  0  0  0  0  0  0  0  0  0  0  0
   41.6580   35.6550   40.9760 H   0  0  0  0  0  0  0  0  0  0  0  0
   42.2370   34.0890   39.2290 H   0  0  0  0  0  0  0  0  0  0  0  0
   44.4500   33.1910   39.0350 H   0  0  0  0  0  0  0  0  0  0  0  0
   46.5160   33.6660   40.4920 N   0  0  0  0  0  0  0  0  0  0  0  0
   47.6090   34.1730   39.8480 C   0  0  0  0  0  0  0  0  0  0  0  0
   47.7070   35.1700   39.4630 H   0  0  0  0  0  0  0  0  0  0  0  0
   48.5850   33.2850   39.7310 N   0  0  0  0  0  0  0  0  0  0  0  0
   48.1340   32.1570   40.3100 C   0  0  0  0  0  0  0  0  0  0  0  0
   48.6400   30.8910   40.5250 C   0  0  0  0  0  0  0  0  0  0  0  0
   49.6400   30.6600   40.1730 H   0  0  0  0  0  0  0  0  0  0  0  0
   47.9360   29.9330   41.1540 N   0  0  0  0  0  0  0  0  0  0  0  0
   46.6890   30.1710   41.6090 C   0  0  0  0  0  0  0  0  0  0  0  0
   46.2110   29.3450   42.0970 H   0  0  0  0  0  0  0  0  0  0  0  0
   46.1590   31.4130   41.4130 N   0  0  0  0  0  0  0  0  0  0  0  0
   46.8390   32.3710   40.7940 C   0  0  0  0  0  0  0  0  0  0  0  0
   45.0080   34.8860   44.9130 C   0  0  0  0  0  0  0  0  0  0  0  0
   45.9310   34.7010   43.8890 C   0  0  0  0  0  0  0  0  0  0  0  0
   46.8240   33.6400   44.0300 C   0  0  0  0  0  0  0  0  0  0  0  0
   46.7930   32.8270   45.1100 N   0  0  0  0  0  0  0  0  0  0  0  0
   45.8760   33.0400   46.0860 C   0  0  0  0  0  0  0  0  0  0  0  0
   44.9830   34.0660   45.9960 N   0  0  0  0  0  0  0  0  0  0  0  0
   44.3240   35.7110   44.7900 H   0  0  0  0  0  0  0  0  0  0  0  0
   47.5870   33.3950   43.3400 H   0  0  0  0  0  0  0  0  0  0  0  0
   47.3210   31.8120   47.6940 C   0  0  2  0  0  0  0  0  0  0  0  0
   45.8700   32.1370   47.2350 C   0  0  1  0  0  0  0  0  0  0  0  0
   45.3960   32.6540   48.3920 O   0  0  0  0  0  0  0  0  0  0  0  0
   45.7740   31.8220   49.4070 C   0  0  0  0  0  0  0  0  0  0  0  0
   46.9400   30.9870   48.9300 C   0  0  2  0  0  0  0  0  0  0  0  0
   47.8440   31.2100   46.9310 H   0  0  0  0  0  0  0  0  0  0  0  0
   45.3840   31.1540   47.0280 H   0  0  0  0  0  0  0  0  0  0  0  0
   44.9190   31.2060   49.7510 H   0  0  0  0  0  0  0  0  0  0  0  0
   46.0710   32.4390   50.2810 H   0  0  0  0  0  0  0  0  0  0  0  0
   46.5670   30.0000   48.6550 H   0  0  0  0  0  0  0  0  0  0  0  0
   47.9420   32.9270   48.1120 O   0  0  0  0  0  0  0  0  0  0  0  0
   48.7670   33.1710   47.6410 H   0  0  0  0  0  0  0  0  0  0  0  0
   47.9600   30.8870   49.8360 O   0  0  0  0  0  0  0  0  0  0  0  0
   47.5700   30.7080   50.7370 H   0  0  0  0  0  0  0  0  0  0  0  0
  1  3  1  0  0  0  0
  1 27  1  0  0  0  0
  2  1  1  0  0  0  0
  4  5  1  0  0  0  0
  4  1  1  0  0  0  0
  5 10  1  0  0  0  0
  6 11  1  0  0  0  0
  6  5  2  0  0  0  0
  7  6  1  0  0  0  0
  8  7  2  0  0  0  0
  8  9  1  0  0  0  0
  9  4  2  0  0  0  0
 12  7  1  0  0  0  0
 13  8  1  0  0  0  0
 14 25  1  0  0  0  0
 14  9  1  0  0  0  0
 15 14  1  0  0  0  0
 16 15  1  0  0  0  0
 17 15  2  0  0  0  0
 17 18  1  0  0  0  0
 18 19  2  0  0  0  0
 18 25  1  0  0  0  0
 19 21  1  0  0  0  0
 20 19  1  0  0  0  0
 21 22  2  0  0  0  0
 22 23  1  0  0  0  0
 24 22  1  0  0  0  0
 25 24  2  0  0  0  0
 26 31  1  0  0  0  0
 27 28  1  0  0  0  0
 27 26  2  0  0  0  0
 28 29  2  0  0  0  0
 29 30  1  0  0  0  0
 30 35  1  0  0  0  0
 31 30  2  0  0  0  0
 32 26  1  0  0  0  0
 33 28  1  0  0  0  0
 34 39  1  6  0  0  0
 34 44  1  0  0  0  0
 34 38  1  0  0  0  0
 35 40  1  6  0  0  0
 35 34  1  0  0  0  0
 35 36  1  0  0  0  0
 36 37  1  0  0  0  0
 37 41  1  0  0  0  0
 37 42  1  0  0  0  0
 38 43  1  6  0  0  0
 38 37  1  0  0  0  0
 38 46  1  0  0  0  0
 45 44  1  0  0  0  0
 46 47  1  0  0  0  0
M  END
>  <minimizedAffinity>
-7.00769663

>  <minimizedRMSD>
0.703609586

$$$$
