
     RDKit          3D

 44 49  0  0  0  0  0  0  0  0999 V2000
   46.3829   32.6683   45.8654 C   0  0  1  0  0  0  0  0  0  0  0  0
   46.9684   32.8393   47.2038 C   0  0  0  0  0  0  0  0  0  0  0  0
   45.5461   32.2054   46.9506 C   0  0  2  0  0  0  0  0  0  0  0  0
   45.3025   30.8027   47.3013 C   0  0  0  0  0  0  0  0  0  0  0  0
   45.1706   30.2692   48.5442 C   0  0  0  0  0  0  0  0  0  0  0  0
   45.0646   28.9170   48.8383 C   0  0  0  0  0  0  0  0  0  0  0  0
   45.0991   28.0346   47.7487 C   0  0  0  0  0  0  0  0  0  0  0  0
   45.2306   28.5554   46.4607 C   0  0  0  0  0  0  0  0  0  0  0  0
   45.1966   27.6538   45.4151 C   0  0  0  0  0  0  0  0  0  0  0  0
   45.2526   28.1340   44.1116 C   0  0  0  0  0  0  0  0  0  0  0  0
   45.3378   29.4863   43.8625 C   0  0  0  0  0  0  0  0  0  0  0  0
   45.3703   30.3407   44.9388 C   0  0  0  0  0  0  0  0  0  0  0  0
   45.3261   29.9109   46.2567 C   0  0  0  0  0  0  0  0  0  0  0  0
   44.6125   35.7402   44.8436 C   0  0  0  0  0  0  0  0  0  0  0  0
   45.1415   35.9745   43.5246 C   0  0  0  0  0  0  0  0  0  0  0  0
   46.1199   35.0458   43.0330 C   0  0  0  0  0  0  0  0  0  0  0  0
   46.4956   34.0216   43.8009 N   0  0  0  0  0  0  0  0  0  0  0  0
   45.9525   33.8484   45.0583 C   0  0  0  0  0  0  0  0  0  0  0  0
   45.0448   34.6789   45.5580 N   0  0  0  0  0  0  0  0  0  0  0  0
   47.1427   32.0299   45.2853 H   0  0  0  0  0  0  0  0  0  0  0  0
   47.6939   32.1662   47.6736 H   0  0  0  0  0  0  0  0  0  0  0  0
   46.9277   33.8650   47.6051 H   0  0  0  0  0  0  0  0  0  0  0  0
   44.8429   32.8731   47.5447 H   0  0  0  0  0  0  0  0  0  0  0  0
   45.1496   30.9901   49.3576 H   0  0  0  0  0  0  0  0  0  0  0  0
   44.9608   28.5629   49.8560 H   0  0  0  0  0  0  0  0  0  0  0  0
   45.0209   26.9758   47.9611 H   0  0  0  0  0  0  0  0  0  0  0  0
   45.1275   26.5972   45.6372 H   0  0  0  0  0  0  0  0  0  0  0  0
   45.2214   27.3292   43.3592 H   0  0  0  0  0  0  0  0  0  0  0  0
   45.3667   29.6592   42.8044 H   0  0  0  0  0  0  0  0  0  0  0  0
   45.3493   31.2971   44.5019 H   0  0  0  0  0  0  0  0  0  0  0  0
   43.8869   36.4739   45.1436 H   0  0  0  0  0  0  0  0  0  0  0  0
   44.7989   36.8221   42.9492 H   0  0  0  0  0  0  0  0  0  0  0  0
   46.6481   35.2697   41.7286 N   0  0  0  0  0  0  0  0  0  0  0  0
   47.7174   36.0001   41.3567 C   0  0  0  0  0  0  0  0  0  0  0  0
   48.3241   36.5289   42.0840 H   0  0  0  0  0  0  0  0  0  0  0  0
   47.9043   35.9735   40.0280 N   0  0  0  0  0  0  0  0  0  0  0  0
   46.9233   35.1982   39.5057 C   0  0  0  0  0  0  0  0  0  0  0  0
   46.5735   34.7895   38.2352 C   0  0  0  0  0  0  0  0  0  0  0  0
   47.1866   35.1312   37.3915 H   0  0  0  0  0  0  0  0  0  0  0  0
   45.4971   33.9855   38.0457 N   0  0  0  0  0  0  0  0  0  0  0  0
   44.7482   33.5706   39.0974 C   0  0  0  0  0  0  0  0  0  0  0  0
   43.8867   32.9275   38.9486 H   0  0  0  0  0  0  0  0  0  0  0  0
   45.0772   33.9633   40.3596 N   0  0  0  0  0  0  0  0  0  0  0  0
   46.1327   34.7549   40.5728 C   0  0  0  0  0  0  0  0  0  0  0  0
  1  3  1  0
  1  2  1  0
  3  2  1  0
  3  4  1  0
  4  5  2  0
  5  6  1  0
  7  6  2  0
  8  7  1  0
  9  8  2  0
 10  9  1  0
 11 10  2  0
 11 12  1  0
 12 13  2  0
 13  8  1  0
 13  4  1  0
 14 19  2  0
 15 14  1  0
 16 15  2  0
 16 17  1  0
 17 18  2  0
 18 19  1  0
 18  1  1  0
  1 20  1  6
  2 21  1  0
  2 22  1  0
  3 23  1  1
  5 24  1  0
  6 25  1  0
  7 26  1  0
  9 27  1  0
 10 28  1  0
 11 29  1  0
 12 30  1  0
 14 31  1  0
 15 32  1  0
 33 34  1  0
 34 35  1  0
 34 36  2  0
 36 37  1  0
 37 38  2  0
 38 39  1  0
 38 40  1  0
 40 41  2  0
 41 42  1  0
 41 43  1  0
 43 44  2  0
 44 33  1  0
 44 37  1  0
 16 33  1  0
M  ISO  8  20  13  21  13  22  13  23  13  24  14  25  14  26  14  27  14
M  ISO  8  28  14  29  14  30  14  31  14  32  14  35  15  39  16  42  16
M  END
>  <DihAtoms>  (1) 
14,15,32,33

>  <DihDeg>  (1) 
-60.735960590860806

$$$$
