
 OpenBabel03242523543D

 48 52  0  0  1  0  0  0  0  0999 V2000
   42.8050   34.5340   38.7230 C   0  0  1  0  0  0  0  0  0  0  0  0
   42.9610   35.1890   40.0870 C   0  0  1  0  0  0  0  0  0  0  0  0
   41.6690   35.4140   40.6160 O   0  0  0  0  0  0  0  0  0  0  0  0
   40.7390   35.7640   39.6310 C   0  0  0  0  0  0  0  0  0  0  0  0
   40.4250   34.5970   38.7120 C   0  0  2  0  0  0  0  0  0  0  0  0
   41.6360   33.6110   38.8340 C   0  0  1  0  0  0  0  0  0  0  0  0
   43.7460   33.9720   38.5020 H   0  0  0  0  0  0  0  0  0  0  0  0
   43.5360   36.1300   40.0460 H   0  0  0  0  0  0  0  0  0  0  0  0
   39.8200   36.0090   40.1720 H   0  0  0  0  0  0  0  0  0  0  0  0
   41.0530   36.6620   39.0660 H   0  0  0  0  0  0  0  0  0  0  0  0
   39.5030   34.0590   38.9800 H   0  0  0  0  0  0  0  0  0  0  0  0
   41.4310   33.3390   39.9230 H   0  0  0  0  0  0  0  0  0  0  0  0
   42.5860   35.5020   37.7290 O   0  0  0  0  0  0  0  0  0  0  0  0
   42.7670   35.0640   36.8510 H   0  0  0  0  0  0  0  0  0  0  0  0
   40.4360   35.0260   37.3950 O   0  0  0  0  0  0  0  0  0  0  0  0
   39.9340   34.3750   36.8690 H   0  0  0  0  0  0  0  0  0  0  0  0
   43.4950   34.2000   40.9150 O   0  0  0  0  0  0  0  0  0  0  0  0
   44.5960   34.3350   41.6660 C   0  0  0  0  0  0  0  0  0  0  0  0
   45.8640   34.4330   41.0750 C   0  0  0  0  0  0  0  0  0  0  0  0
   46.9680   34.5730   41.8990 C   0  0  0  0  0  0  0  0  0  0  0  0
   46.7890   34.6130   43.2720 N   0  0  0  0  0  0  0  0  0  0  0  0
   45.5500   34.5160   43.8030 C   0  0  0  0  0  0  0  0  0  0  0  0
   44.4600   34.3780   43.0070 N   0  0  0  0  0  0  0  0  0  0  0  0
   45.9910   34.4000   40.0000 H   0  0  0  0  0  0  0  0  0  0  0  0
   45.4780   34.5530   44.8870 H   0  0  0  0  0  0  0  0  0  0  0  0
   48.3570   34.6720   41.3330 C   0  0  0  0  0  0  0  0  0  0  0  0
   49.0670   36.0110   41.5130 C   0  0  0  0  0  0  0  0  0  0  0  0
   49.4930   34.7030   42.2020 C   0  0  0  0  0  0  0  0  0  0  0  0
   48.3860   34.3560   40.2610 H   0  0  0  0  0  0  0  0  0  0  0  0
   48.5930   36.7290   42.2400 H   0  0  0  0  0  0  0  0  0  0  0  0
   49.6990   36.4040   40.7210 H   0  0  0  0  0  0  0  0  0  0  0  0
   50.4810   34.3310   41.8510 H   0  0  0  0  0  0  0  0  0  0  0  0
   49.3640   34.5990   43.2830 H   0  0  0  0  0  0  0  0  0  0  0  0
   41.4910   32.6740   37.8840 O   0  0  0  0  0  0  0  0  0  0  0  0
   40.8830   31.4870   37.8880 C   0  0  0  0  0  0  0  0  0  0  0  0
   39.6290   31.3380   37.4730 O   0  0  0  0  0  0  0  0  0  0  0  0
   41.8580   30.3080   40.4060 H   0  0  0  0  0  0  0  0  0  0  0  0
   41.7460   29.8110   39.5160 N   0  0  0  0  0  0  0  0  0  0  0  0
   41.3510   30.1040   38.2980 C   0  0  0  0  0  0  0  0  0  0  0  0
   41.4440   28.9480   37.5690 N   0  0  0  0  0  0  0  0  0  0  0  0
   41.8930   27.9530   38.3300 C   0  0  0  0  0  0  0  0  0  0  0  0
   42.1210   26.6440   37.9680 C   0  0  0  0  0  0  0  0  0  0  0  0
   41.9580   26.2530   36.9850 H   0  0  0  0  0  0  0  0  0  0  0  0
   42.5860   25.8400   38.9650 N   0  0  0  0  0  0  0  0  0  0  0  0
   42.7930   26.3300   40.2060 C   0  0  0  0  0  0  0  0  0  0  0  0
   43.1590   25.7400   41.0350 H   0  0  0  0  0  0  0  0  0  0  0  0
   42.5430   27.6200   40.4720 N   0  0  0  0  0  0  0  0  0  0  0  0
   42.0900   28.4900   39.5770 C   0  0  0  0  0  0  0  0  0  0  0  0
  1  7  1  6  0  0  0
  1  6  1  0  0  0  0
  1  2  1  0  0  0  0
  2  8  1  6  0  0  0
  2  3  1  0  0  0  0
  2 17  1  0  0  0  0
  4  9  1  0  0  0  0
  4  3  1  0  0  0  0
  5  6  1  0  0  0  0
  5 11  1  1  0  0  0
  5  4  1  0  0  0  0
  6 12  1  1  0  0  0
 10  4  1  0  0  0  0
 13  1  1  0  0  0  0
 14 13  1  0  0  0  0
 15  5  1  0  0  0  0
 16 15  1  0  0  0  0
 17 18  1  0  0  0  0
 18 23  1  0  0  0  0
 19 18  2  0  0  0  0
 19 20  1  0  0  0  0
 20 21  2  0  0  0  0
 21 22  1  0  0  0  0
 22 25  1  0  0  0  0
 23 22  2  0  0  0  0
 24 19  1  0  0  0  0
 26 27  1  0  0  0  0
 26 20  1  0  0  0  0
 26 28  1  0  0  0  0
 27 28  1  0  0  0  0
 27 30  1  0  0  0  0
 28 33  1  0  0  0  0
 29 26  1  0  0  0  0
 31 27  1  0  0  0  0
 32 28  1  0  0  0  0
 34 35  1  0  0  0  0
 34  6  1  0  0  0  0
 35 39  1  0  0  0  0
 36 35  2  0  0  0  0
 38 48  1  0  0  0  0
 38 37  1  0  0  0  0
 39 38  1  0  0  0  0
 40 39  2  0  0  0  0
 40 41  1  0  0  0  0
 41 48  1  0  0  0  0
 42 41  2  0  0  0  0
 42 44  1  0  0  0  0
 43 42  1  0  0  0  0
 44 45  2  0  0  0  0
 45 47  1  0  0  0  0
 45 46  1  0  0  0  0
 48 47  2  0  0  0  0
M  END
>  <minimizedAffinity>
-5.63591528

>  <minimizedRMSD>
0.106570244

$$$$
