
 OpenBabel03252507463D

 40 43  0  0  0  0  0  0  0  0999 V2000
   48.7600   33.7670   41.1360 C   0  0  0  0  0  0  0  0  0  0  0  0
   48.9460   32.5410   40.5270 C   0  0  0  0  0  0  0  0  0  0  0  0
   50.0560   31.7410   40.7730 C   0  0  0  0  0  0  0  0  0  0  0  0
   50.9670   32.2580   41.6740 N   0  0  0  0  0  0  0  0  0  0  0  0
   50.7580   33.4540   42.2520 C   0  0  0  0  0  0  0  0  0  0  0  0
   49.6790   34.1850   41.9840 N   0  0  0  0  0  0  0  0  0  0  0  0
   50.1540   30.8000   40.2760 H   0  0  0  0  0  0  0  0  0  0  0  0
   51.5490   33.7420   42.9370 H   0  0  0  0  0  0  0  0  0  0  0  0
   47.5350   34.4960   40.7730 C   0  0  0  0  0  0  0  0  0  0  0  0
   47.7320   35.4070   40.1490 H   0  0  0  0  0  0  0  0  0  0  0  0
   46.8390   33.8730   40.1740 H   0  0  0  0  0  0  0  0  0  0  0  0
   46.7410   34.9290   41.9810 C   0  0  0  0  0  0  0  0  0  0  0  0
   47.0280   35.9760   42.2120 H   0  0  0  0  0  0  0  0  0  0  0  0
   47.0360   34.3510   42.9000 H   0  0  0  0  0  0  0  0  0  0  0  0
   45.2740   34.9290   41.7720 C   0  0  0  0  0  0  0  0  0  0  0  0
   44.4330   35.6070   42.6960 C   0  0  0  0  0  0  0  0  0  0  0  0
   42.7520   35.3260   42.0210 S   0  0  0  0  0  0  0  0  0  0  0  0
   43.4850   34.3180   40.5750 C   0  0  0  0  0  0  0  0  0  0  0  0
   44.6000   34.3630   40.8060 N   0  0  0  0  0  0  0  0  0  0  0  0
   44.7280   36.1550   43.5820 H   0  0  0  0  0  0  0  0  0  0  0  0
   42.6980   33.7490   39.5860 O   0  0  0  0  0  0  0  0  0  0  0  0
   40.7500   33.9780   37.8040 O   0  0  0  0  0  0  0  0  0  0  0  0
   41.7550   34.7710   38.6210 P   0  0  0  0  0  0  0  0  0  0  0  0
   40.9170   35.8240   39.6530 O   0  0  0  0  0  0  0  0  0  0  0  0
   40.5940   35.2720   40.4110 H   0  0  0  0  0  0  0  0  0  0  0  0
   42.7740   35.7000   37.6200 O   0  0  0  0  0  0  0  0  0  0  0  0
   43.1310   35.1090   36.8900 H   0  0  0  0  0  0  0  0  0  0  0  0
   47.7260   31.9210   39.3300 S   0  0  0  0  0  0  0  0  0  0  0  0
   50.0620   30.3850   37.9300 H   0  0  0  0  0  0  0  0  0  0  0  0
   49.5320   31.0370   37.3110 N   0  0  0  0  0  0  0  0  0  0  0  0
   48.4940   31.7870   37.7230 C   0  0  0  0  0  0  0  0  0  0  0  0
   48.0260   32.5180   36.6960 N   0  0  0  0  0  0  0  0  0  0  0  0
   48.7500   32.2600   35.5910 C   0  0  0  0  0  0  0  0  0  0  0  0
   48.7290   32.7020   34.2820 C   0  0  0  0  0  0  0  0  0  0  0  0
   47.9470   33.4410   34.0550 H   0  0  0  0  0  0  0  0  0  0  0  0
   49.6310   32.2250   33.3820 N   0  0  0  0  0  0  0  0  0  0  0  0
   50.5330   31.3150   33.8220 C   0  0  0  0  0  0  0  0  0  0  0  0
   51.2170   30.9870   33.0370 H   0  0  0  0  0  0  0  0  0  0  0  0
   50.5940   30.8490   35.1000 N   0  0  0  0  0  0  0  0  0  0  0  0
   49.6900   31.3260   36.0020 C   0  0  0  0  0  0  0  0  0  0  0  0
  1  6  1  0  0  0  0
  2  3  1  0  0  0  0
  2  1  2  0  0  0  0
  3  4  2  0  0  0  0
  4  5  1  0  0  0  0
  5  8  1  0  0  0  0
  6  5  2  0  0  0  0
  7  3  1  0  0  0  0
  9  1  1  0  0  0  0
  9 12  1  0  0  0  0
 10  9  1  0  0  0  0
 11  9  1  0  0  0  0
 12 13  1  0  0  0  0
 12 14  1  0  0  0  0
 15 12  1  0  0  0  0
 15 16  2  0  0  0  0
 16 20  1  0  0  0  0
 17 16  1  0  0  0  0
 18 19  2  0  0  0  0
 18 17  1  0  0  0  0
 19 15  1  0  0  0  0
 21 18  1  0  0  0  0
 22 23  2  0  0  0  0
 23 21  1  0  0  0  0
 23 24  1  0  0  0  0
 24 25  1  0  0  0  0
 26 23  1  0  0  0  0
 27 26  1  0  0  0  0
 28  2  1  0  0  0  0
 30 31  1  0  0  0  0
 30 29  1  0  0  0  0
 31 28  1  0  0  0  0
 32 31  2  0  0  0  0
 33 40  1  0  0  0  0
 33 32  1  0  0  0  0
 34 33  2  0  0  0  0
 35 34  1  0  0  0  0
 36 37  2  0  0  0  0
 36 34  1  0  0  0  0
 37 39  1  0  0  0  0
 38 37  1  0  0  0  0
 39 40  2  0  0  0  0
 40 30  1  0  0  0  0
M  END
>  <minimizedAffinity>
-5.39415932

>  <minimizedRMSD>
2.88114309

$$$$
