
     RDKit          3D

 31 34  0  0  0  0  0  0  0  0999 V2000
   44.4756   35.9672   44.7922 C   0  0  0  0  0  0  0  0  0  0  0  0
   45.1673   35.8841   43.5729 C   0  0  0  0  0  0  0  0  0  0  0  0
   46.0692   34.8432   43.3134 C   0  0  0  0  0  0  0  0  0  0  0  0
   46.2141   33.9497   44.3080 N   0  0  0  0  0  0  0  0  0  0  0  0
   45.5516   34.0332   45.4703 C   0  0  0  0  0  0  0  0  0  0  0  0
   44.6826   35.0378   45.7180 N   0  0  0  0  0  0  0  0  0  0  0  0
   44.7430   33.1905   41.2312 Cl  0  0  0  0  0  0  0  0  0  0  0  0
   46.2668   34.0023   41.0529 C   0  0  0  0  0  0  0  0  0  0  0  0
   46.7940   34.7366   42.0635 C   0  0  0  0  0  0  0  0  0  0  0  0
   48.0133   35.3412   41.8145 C   0  0  0  0  0  0  0  0  0  0  0  0
   48.6687   35.2205   40.6270 C   0  0  0  0  0  0  0  0  0  0  0  0
   48.1325   34.4814   39.6174 C   0  0  0  0  0  0  0  0  0  0  0  0
   46.9164   33.8674   39.8397 C   0  0  0  0  0  0  0  0  0  0  0  0
   43.7823   36.7754   44.9804 H   0  0  0  0  0  0  0  0  0  0  0  0
   44.9978   36.6464   42.8130 H   0  0  0  0  0  0  0  0  0  0  0  0
   45.7520   33.2521   46.1971 H   0  0  0  0  0  0  0  0  0  0  0  0
   48.4653   35.9363   42.5996 H   0  0  0  0  0  0  0  0  0  0  0  0
   49.6250   35.7258   40.5052 H   0  0  0  0  0  0  0  0  0  0  0  0
   48.6690   34.3974   38.6801 H   0  0  0  0  0  0  0  0  0  0  0  0
   46.3902   33.1029   38.7563 N   0  0  0  0  0  0  0  0  0  0  0  0
   45.3774   33.5940   38.0133 C   0  0  0  0  0  0  0  0  0  0  0  0
   44.7796   34.5182   38.0086 H   0  0  0  0  0  0  0  0  0  0  0  0
   45.0241   32.7255   37.0430 N   0  0  0  0  0  0  0  0  0  0  0  0
   45.8254   31.6486   37.1599 C   0  0  0  0  0  0  0  0  0  0  0  0
   45.9697   30.4444   36.4902 C   0  0  0  0  0  0  0  0  0  0  0  0
   45.2845   30.3096   35.6683 H   0  0  0  0  0  0  0  0  0  0  0  0
   46.9198   29.5599   36.8974 N   0  0  0  0  0  0  0  0  0  0  0  0
   47.7131   29.8759   37.9586 C   0  0  0  0  0  0  0  0  0  0  0  0
   48.4080   29.0807   38.1550 H   0  0  0  0  0  0  0  0  0  0  0  0
   47.6140   31.0458   38.6532 N   0  0  0  0  0  0  0  0  0  0  0  0
   46.6659   31.8977   38.2258 C   0  0  0  0  0  0  0  0  0  0  0  0
  1  6  2  0
  2  1  1  0
  3  2  2  0
  3  4  1  0
  4  5  2  0
  5  6  1  0
  8  7  1  0
  8  9  2  0
  9  3  1  0
 10  9  1  0
 11 10  2  0
 12 13  2  0
 12 11  1  0
 13  8  1  0
  1 14  1  0
  2 15  1  0
  5 16  1  0
 10 17  1  0
 11 18  1  0
 12 19  1  0
 20 21  1  0
 21 22  1  0
 21 23  2  0
 23 24  1  0
 24 25  2  0
 25 26  1  0
 25 27  1  0
 27 28  2  0
 28 29  1  0
 28 30  1  0
 30 31  2  0
 31 20  1  0
 31 24  1  0
 13 20  1  0
M  ISO  8  14  14  15  14  16  14  17  14  18  14  19  14  22  15  26  16
M  ISO  1  29  16
M  END
>  <DihAtoms>  (1) 
11,12,19,20

>  <DihDeg>  (1) 
135.82761158071426

$$$$
