
 OpenBabel03252505063D

 46 50  0  0  1  0  0  0  0  0999 V2000
   44.5820   35.5690   44.5710 C   0  0  0  0  0  0  0  0  0  0  0  0
   45.2490   35.5800   43.3260 C   0  0  0  0  0  0  0  0  0  0  0  0
   46.3420   34.6720   43.1670 C   0  0  0  0  0  0  0  0  0  0  0  0
   46.6890   33.8580   44.1890 N   0  0  0  0  0  0  0  0  0  0  0  0
   46.0150   33.8890   45.3630 C   0  0  0  0  0  0  0  0  0  0  0  0
   44.9610   34.7420   45.5590 N   0  0  0  0  0  0  0  0  0  0  0  0
   43.7630   36.2650   44.6560 H   0  0  0  0  0  0  0  0  0  0  0  0
   45.0020   36.2060   42.5030 H   0  0  0  0  0  0  0  0  0  0  0  0
   47.0510   34.6570   41.8850 C   0  0  0  0  0  0  0  0  0  0  0  0
   48.1660   35.4230   41.7600 C   0  0  0  0  0  0  0  0  0  0  0  0
   48.8060   35.3800   40.5220 C   0  0  0  0  0  0  0  0  0  0  0  0
   48.2540   34.5730   39.5520 C   0  0  0  0  0  0  0  0  0  0  0  0
   47.1330   33.8050   39.6840 C   0  0  0  0  0  0  0  0  0  0  0  0
   46.5320   33.8760   40.9180 N   0  0  0  0  0  0  0  0  0  0  0  0
   48.5320   36.0290   42.5750 H   0  0  0  0  0  0  0  0  0  0  0  0
   49.7040   35.9700   40.3570 H   0  0  0  0  0  0  0  0  0  0  0  0
   48.7430   34.5310   38.5840 H   0  0  0  0  0  0  0  0  0  0  0  0
   46.6050   32.9880   38.6440 N   0  0  0  0  0  0  0  0  0  0  0  0
   46.4080   33.3710   37.3660 C   0  0  0  0  0  0  0  0  0  0  0  0
   46.6110   34.3410   36.9230 H   0  0  0  0  0  0  0  0  0  0  0  0
   45.9030   32.3720   36.6520 N   0  0  0  0  0  0  0  0  0  0  0  0
   45.7490   31.2890   37.4380 C   0  0  0  0  0  0  0  0  0  0  0  0
   45.2910   29.9820   37.3060 C   0  0  0  0  0  0  0  0  0  0  0  0
   44.9570   29.7210   36.3170 H   0  0  0  0  0  0  0  0  0  0  0  0
   45.2920   29.1580   38.3750 N   0  0  0  0  0  0  0  0  0  0  0  0
   45.7270   29.5730   39.5640 C   0  0  0  0  0  0  0  0  0  0  0  0
   45.7150   28.8880   40.4020 H   0  0  0  0  0  0  0  0  0  0  0  0
   46.1800   30.8420   39.7230 N   0  0  0  0  0  0  0  0  0  0  0  0
   46.2030   31.7150   38.6890 C   0  0  0  0  0  0  0  0  0  0  0  0
   46.4420   32.9760   46.4530 C   0  0  2  0  0  0  0  0  0  0  0  0
   46.9730   31.7430   45.7770 C   0  0  0  0  0  0  0  0  0  0  0  0
   46.1020   30.5560   45.7970 C   0  0  0  0  0  0  0  0  0  0  0  0
   45.7900   30.3060   47.2660 C   0  0  0  0  0  0  0  0  0  0  0  0
   44.9970   31.3790   47.8630 C   0  0  0  0  0  0  0  0  0  0  0  0
   45.3770   32.7500   47.4050 C   0  0  0  0  0  0  0  0  0  0  0  0
   47.2810   33.5090   46.9630 H   0  0  0  0  0  0  0  0  0  0  0  0
   47.9340   31.4760   46.2630 H   0  0  0  0  0  0  0  0  0  0  0  0
   47.2570   31.9350   44.7050 H   0  0  0  0  0  0  0  0  0  0  0  0
   46.6880   29.6850   45.4700 H   0  0  0  0  0  0  0  0  0  0  0  0
   45.1930   30.7280   45.2090 H   0  0  0  0  0  0  0  0  0  0  0  0
   46.7390   30.1120   47.7860 H   0  0  0  0  0  0  0  0  0  0  0  0
   45.1450   29.4130   47.2740 H   0  0  0  0  0  0  0  0  0  0  0  0
   44.1840   31.3620   48.5750 H   0  0  0  0  0  0  0  0  0  0  0  0
   44.6800   33.8840   47.9110 N   0  0  0  0  0  0  0  0  0  0  0  0
   45.0280   34.4920   48.6880 H   0  0  0  0  0  0  0  0  0  0  0  0
   43.7660   34.2200   47.5650 H   0  0  0  0  0  0  0  0  0  0  0  0
  1  7  1  0  0  0  0
  1  6  1  0  0  0  0
  2  1  2  0  0  0  0
  3  2  1  0  0  0  0
  3  4  2  0  0  0  0
  4  5  1  0  0  0  0
  5  6  2  0  0  0  0
  5 30  1  0  0  0  0
  8  2  1  0  0  0  0
  9  3  1  0  0  0  0
 10  9  1  0  0  0  0
 10 15  1  0  0  0  0
 11 10  2  0  0  0  0
 12 13  2  0  0  0  0
 12 11  1  0  0  0  0
 13 14  1  0  0  0  0
 14  9  2  0  0  0  0
 16 11  1  0  0  0  0
 17 12  1  0  0  0  0
 18 29  1  0  0  0  0
 18 13  1  0  0  0  0
 19 18  1  0  0  0  0
 20 19  1  0  0  0  0
 21 19  2  0  0  0  0
 21 22  1  0  0  0  0
 22 29  1  0  0  0  0
 23 22  2  0  0  0  0
 23 25  1  0  0  0  0
 24 23  1  0  0  0  0
 25 26  2  0  0  0  0
 26 28  1  0  0  0  0
 26 27  1  0  0  0  0
 29 28  2  0  0  0  0
 30 36  1  1  0  0  0
 30 35  1  0  0  0  0
 31 32  1  0  0  0  0
 31 37  1  0  0  0  0
 31 30  1  0  0  0  0
 32 33  1  0  0  0  0
 33 42  1  0  0  0  0
 33 41  1  0  0  0  0
 33 34  1  0  0  0  0
 34 43  1  0  0  0  0
 35 34  2  0  0  0  0
 35 44  1  0  0  0  0
 38 31  1  0  0  0  0
 39 32  1  0  0  0  0
 40 32  1  0  0  0  0
 44 45  1  0  0  0  0
 46 44  1  0  0  0  0
M  END
>  <minimizedAffinity>
-7.67037153

>  <minimizedRMSD>
0.121739335

$$$$
