
 OpenBabel03252503033D

 36 38  0  0  0  0  0  0  0  0999 V2000
   37.6110   33.6760   39.7920 C   0  0  0  0  0  0  0  0  0  0  0  0
   38.8990   33.8050   40.2880 C   0  0  0  0  0  0  0  0  0  0  0  0
   39.5880   32.7140   40.8400 C   0  0  0  0  0  0  0  0  0  0  0  0
   38.9030   31.5450   40.8500 N   0  0  0  0  0  0  0  0  0  0  0  0
   37.6660   31.4360   40.3700 C   0  0  0  0  0  0  0  0  0  0  0  0
   37.0070   32.4620   39.8460 N   0  0  0  0  0  0  0  0  0  0  0  0
   37.0980   34.5500   39.3650 H   0  0  0  0  0  0  0  0  0  0  0  0
   40.5890   32.8580   41.2160 H   0  0  0  0  0  0  0  0  0  0  0  0
   37.0550   30.1410   40.4400 N   0  0  0  0  0  0  0  0  0  0  0  0
   36.2860   29.4500   39.5790 C   0  0  0  0  0  0  0  0  0  0  0  0
   36.0260   29.8760   38.6190 H   0  0  0  0  0  0  0  0  0  0  0  0
   35.9660   28.2580   40.1370 N   0  0  0  0  0  0  0  0  0  0  0  0
   36.5530   28.2200   41.3680 C   0  0  0  0  0  0  0  0  0  0  0  0
   36.5230   27.2100   42.3320 C   0  0  0  0  0  0  0  0  0  0  0  0
   35.9860   26.2840   42.1800 H   0  0  0  0  0  0  0  0  0  0  0  0
   37.2030   27.4300   43.4920 N   0  0  0  0  0  0  0  0  0  0  0  0
   37.8780   28.5910   43.6840 C   0  0  0  0  0  0  0  0  0  0  0  0
   38.4380   28.8530   44.5590 H   0  0  0  0  0  0  0  0  0  0  0  0
   37.9100   29.5800   42.7460 N   0  0  0  0  0  0  0  0  0  0  0  0
   37.2490   29.4120   41.5740 C   0  0  0  0  0  0  0  0  0  0  0  0
   39.7070   35.4240   40.2170 S   0  0  0  0  0  0  0  0  0  0  0  0
   41.4890   35.1920   40.0810 C   0  0  0  0  0  0  0  0  0  0  0  0
   41.9920   35.9120   40.7640 H   0  0  0  0  0  0  0  0  0  0  0  0
   41.7240   34.1730   40.3990 H   0  0  0  0  0  0  0  0  0  0  0  0
   41.8300   35.4520   38.6950 N   0  0  0  0  0  0  0  0  0  0  0  0
   41.1520   36.0570   38.1950 H   0  0  0  0  0  0  0  0  0  0  0  0
   42.1870   34.0280   37.8120 S   0  0  0  0  0  0  0  0  0  0  0  0
   40.9490   33.2510   37.4980 O   0  0  0  0  0  0  0  0  0  0  0  0
   40.4810   33.3000   36.6160 H   0  0  0  0  0  0  0  0  0  0  0  0
   42.8610   34.4840   36.5400 O   0  0  0  0  0  0  0  0  0  0  0  0
   43.8110   34.7280   36.4930 H   0  0  0  0  0  0  0  0  0  0  0  0
   43.2950   33.0970   38.6550 O   0  0  0  0  0  0  0  0  0  0  0  0
   44.5620   33.6420   38.6460 C   0  0  0  0  0  0  0  0  0  0  0  0
   44.5090   34.7460   38.4620 H   0  0  0  0  0  0  0  0  0  0  0  0
   44.9270   33.5620   39.7120 H   0  0  0  0  0  0  0  0  0  0  0  0
   45.2750   33.1450   37.9690 H   0  0  0  0  0  0  0  0  0  0  0  0
  1  6  2  0  0  0  0
  1  2  1  0  0  0  0
  2  3  2  0  0  0  0
  3  4  1  0  0  0  0
  3  8  1  0  0  0  0
  5  9  1  0  0  0  0
  5  4  2  0  0  0  0
  6  5  1  0  0  0  0
  7  1  1  0  0  0  0
  9 20  1  0  0  0  0
 10 12  2  0  0  0  0
 10  9  1  0  0  0  0
 11 10  1  0  0  0  0
 12 13  1  0  0  0  0
 13 20  2  0  0  0  0
 13 14  1  0  0  0  0
 14 16  2  0  0  0  0
 15 14  1  0  0  0  0
 16 17  1  0  0  0  0
 17 18  1  0  0  0  0
 19 17  2  0  0  0  0
 20 19  1  0  0  0  0
 21  2  1  0  0  0  0
 22 21  1  0  0  0  0
 22 24  1  0  0  0  0
 22 23  1  0  0  0  0
 25 22  1  0  0  0  0
 26 25  1  0  0  0  0
 27 32  1  0  0  0  0
 27 25  1  0  0  0  0
 28 27  1  0  0  0  0
 29 28  1  0  0  0  0
 30 27  1  0  0  0  0
 31 30  1  0  0  0  0
 33 32  1  0  0  0  0
 33 35  1  0  0  0  0
 34 33  1  0  0  0  0
 36 33  1  0  0  0  0
M  END
>  <minimizedAffinity>
-6.39025927

$$$$

 OpenBabel03252503033D

 36 38  0  0  0  0  0  0  0  0999 V2000
   37.4030   33.3520   39.5310 C   0  0  0  0  0  0  0  0  0  0  0  0
   38.5420   33.6730   40.2530 C   0  0  0  0  0  0  0  0  0  0  0  0
   39.2430   32.7050   40.9890 C   0  0  0  0  0  0  0  0  0  0  0  0
   38.7240   31.4550   40.9390 N   0  0  0  0  0  0  0  0  0  0  0  0
   37.6290   31.1610   40.2410 C   0  0  0  0  0  0  0  0  0  0  0  0
   36.9600   32.0690   39.5410 N   0  0  0  0  0  0  0  0  0  0  0  0
   36.8760   34.1320   38.9630 H   0  0  0  0  0  0  0  0  0  0  0  0
   40.1240   32.9970   41.5390 H   0  0  0  0  0  0  0  0  0  0  0  0
   37.1860   29.7980   40.2710 N   0  0  0  0  0  0  0  0  0  0  0  0
   36.6950   28.9800   39.3220 C   0  0  0  0  0  0  0  0  0  0  0  0
   36.5750   29.3330   38.3070 H   0  0  0  0  0  0  0  0  0  0  0  0
   36.4260   27.7750   39.8800 N   0  0  0  0  0  0  0  0  0  0  0  0
   36.7620   27.8590   41.2000 C   0  0  0  0  0  0  0  0  0  0  0  0
   36.6730   26.8870   42.1990 C   0  0  0  0  0  0  0  0  0  0  0  0
   36.2990   25.8920   42.0040 H   0  0  0  0  0  0  0  0  0  0  0  0
   37.0790   27.2370   43.4520 N   0  0  0  0  0  0  0  0  0  0  0  0
   37.5500   28.4850   43.6990 C   0  0  0  0  0  0  0  0  0  0  0  0
   37.8900   28.8500   44.6460 H   0  0  0  0  0  0  0  0  0  0  0  0
   37.6380   29.4370   42.7260 N   0  0  0  0  0  0  0  0  0  0  0  0
   37.2460   29.1410   41.4630 C   0  0  0  0  0  0  0  0  0  0  0  0
   39.1350   35.3830   40.2410 S   0  0  0  0  0  0  0  0  0  0  0  0
   40.9300   35.3880   40.0890 C   0  0  0  0  0  0  0  0  0  0  0  0
   41.2450   34.4440   39.5910 H   0  0  0  0  0  0  0  0  0  0  0  0
   41.2150   36.2360   39.4610 H   0  0  0  0  0  0  0  0  0  0  0  0
   41.4540   35.4740   41.4380 N   0  0  0  0  0  0  0  0  0  0  0  0
   41.5280   36.4400   41.8070 H   0  0  0  0  0  0  0  0  0  0  0  0
   42.9090   34.5970   41.6520 S   0  0  0  0  0  0  0  0  0  0  0  0
   43.9240   34.9530   40.6130 O   0  0  0  0  0  0  0  0  0  0  0  0
   44.6650   35.6040   40.7720 H   0  0  0  0  0  0  0  0  0  0  0  0
   43.4160   34.9560   43.0290 O   0  0  0  0  0  0  0  0  0  0  0  0
   43.0710   34.5460   43.8520 H   0  0  0  0  0  0  0  0  0  0  0  0
   42.5900   32.9520   41.6550 O   0  0  0  0  0  0  0  0  0  0  0  0
   43.4550   32.2420   40.8500 C   0  0  0  0  0  0  0  0  0  0  0  0
   44.4100   32.8120   40.7060 H   0  0  0  0  0  0  0  0  0  0  0  0
   43.7650   31.3460   41.4650 H   0  0  0  0  0  0  0  0  0  0  0  0
   43.0260   31.9080   39.8920 H   0  0  0  0  0  0  0  0  0  0  0  0
  1  6  2  0  0  0  0
  1  2  1  0  0  0  0
  2  3  2  0  0  0  0
  3  8  1  0  0  0  0
  4  3  1  0  0  0  0
  5  9  1  0  0  0  0
  5  4  2  0  0  0  0
  6  5  1  0  0  0  0
  7  1  1  0  0  0  0
  9 20  1  0  0  0  0
 10 12  2  0  0  0  0
 10  9  1  0  0  0  0
 11 10  1  0  0  0  0
 12 13  1  0  0  0  0
 13 20  2  0  0  0  0
 13 14  1  0  0  0  0
 14 16  2  0  0  0  0
 15 14  1  0  0  0  0
 16 17  1  0  0  0  0
 17 18  1  0  0  0  0
 19 17  2  0  0  0  0
 20 19  1  0  0  0  0
 21  2  1  0  0  0  0
 22 21  1  0  0  0  0
 22 25  1  0  0  0  0
 23 22  1  0  0  0  0
 24 22  1  0  0  0  0
 25 27  1  0  0  0  0
 25 26  1  0  0  0  0
 27 32  1  0  0  0  0
 27 30  1  0  0  0  0
 28 29  1  0  0  0  0
 28 27  1  0  0  0  0
 30 31  1  0  0  0  0
 33 35  1  0  0  0  0
 33 32  1  0  0  0  0
 34 33  1  0  0  0  0
 36 33  1  0  0  0  0
M  END
>  <minimizedAffinity>
-5.77561522

$$$$

 OpenBabel03252503033D

 36 38  0  0  0  0  0  0  0  0999 V2000
   37.7520   32.0920   40.5630 C   0  0  0  0  0  0  0  0  0  0  0  0
   39.0880   32.4610   40.5140 C   0  0  0  0  0  0  0  0  0  0  0  0
   40.1170   31.5190   40.6680 C   0  0  0  0  0  0  0  0  0  0  0  0
   39.7060   30.2440   40.8660 N   0  0  0  0  0  0  0  0  0  0  0  0
   38.4200   29.9050   40.9110 C   0  0  0  0  0  0  0  0  0  0  0  0
   37.4400   30.7870   40.7650 N   0  0  0  0  0  0  0  0  0  0  0  0
   36.9680   32.8540   40.4380 H   0  0  0  0  0  0  0  0  0  0  0  0
   41.1430   31.8480   40.6250 H   0  0  0  0  0  0  0  0  0  0  0  0
   38.1210   28.5190   41.1250 N   0  0  0  0  0  0  0  0  0  0  0  0
   37.2010   27.6930   40.5940 C   0  0  0  0  0  0  0  0  0  0  0  0
   36.5070   28.0590   39.8490 H   0  0  0  0  0  0  0  0  0  0  0  0
   37.3430   26.4650   41.1480 N   0  0  0  0  0  0  0  0  0  0  0  0
   38.3740   26.5420   42.0370 C   0  0  0  0  0  0  0  0  0  0  0  0
   38.9090   25.5480   42.8600 C   0  0  0  0  0  0  0  0  0  0  0  0
   38.5250   24.5380   42.8680 H   0  0  0  0  0  0  0  0  0  0  0  0
   39.9510   25.8950   43.6670 N   0  0  0  0  0  0  0  0  0  0  0  0
   40.4360   27.1630   43.6570 C   0  0  0  0  0  0  0  0  0  0  0  0
   41.2470   27.5280   44.2540 H   0  0  0  0  0  0  0  0  0  0  0  0
   39.9160   28.1360   42.8560 N   0  0  0  0  0  0  0  0  0  0  0  0
   38.8780   27.8440   42.0350 C   0  0  0  0  0  0  0  0  0  0  0  0
   39.5070   34.2010   40.2440 S   0  0  0  0  0  0  0  0  0  0  0  0
   41.2980   34.3730   40.1540 C   0  0  0  0  0  0  0  0  0  0  0  0
   41.6290   35.0570   40.9670 H   0  0  0  0  0  0  0  0  0  0  0  0
   41.7430   33.3870   40.3130 H   0  0  0  0  0  0  0  0  0  0  0  0
   41.5910   34.9270   38.8460 N   0  0  0  0  0  0  0  0  0  0  0  0
   40.8520   35.5520   38.4720 H   0  0  0  0  0  0  0  0  0  0  0  0
   42.0630   33.7420   37.7040 S   0  0  0  0  0  0  0  0  0  0  0  0
   40.8850   32.9960   37.1670 O   0  0  0  0  0  0  0  0  0  0  0  0
   40.4530   33.2100   36.2910 H   0  0  0  0  0  0  0  0  0  0  0  0
   42.7650   34.4870   36.5940 O   0  0  0  0  0  0  0  0  0  0  0  0
   43.7030   34.7780   36.6510 H   0  0  0  0  0  0  0  0  0  0  0  0
   43.1840   32.7020   38.3890 O   0  0  0  0  0  0  0  0  0  0  0  0
   44.0260   32.1380   37.4540 C   0  0  0  0  0  0  0  0  0  0  0  0
   44.0730   32.7790   36.5360 H   0  0  0  0  0  0  0  0  0  0  0  0
   45.0610   32.2230   37.8970 H   0  0  0  0  0  0  0  0  0  0  0  0
   43.8080   31.0860   37.2110 H   0  0  0  0  0  0  0  0  0  0  0  0
  1  6  1  0  0  0  0
  2  1  2  0  0  0  0
  2  3  1  0  0  0  0
  3  4  2  0  0  0  0
  4  5  1  0  0  0  0
  5  9  1  0  0  0  0
  6  5  2  0  0  0  0
  7  1  1  0  0  0  0
  8  3  1  0  0  0  0
  9 20  1  0  0  0  0
 10  9  1  0  0  0  0
 10 12  2  0  0  0  0
 11 10  1  0  0  0  0
 12 13  1  0  0  0  0
 13 14  1  0  0  0  0
 14 15  1  0  0  0  0
 14 16  2  0  0  0  0
 17 16  1  0  0  0  0
 17 18  1  0  0  0  0
 19 17  2  0  0  0  0
 20 13  2  0  0  0  0
 20 19  1  0  0  0  0
 21  2  1  0  0  0  0
 22 21  1  0  0  0  0
 22 24  1  0  0  0  0
 22 23  1  0  0  0  0
 25 22  1  0  0  0  0
 26 25  1  0  0  0  0
 27 32  1  0  0  0  0
 27 25  1  0  0  0  0
 28 27  1  0  0  0  0
 29 28  1  0  0  0  0
 30 31  1  0  0  0  0
 30 27  1  0  0  0  0
 33 35  1  0  0  0  0
 33 32  1  0  0  0  0
 34 33  1  0  0  0  0
 36 33  1  0  0  0  0
M  END
>  <minimizedAffinity>
-5.69733429

$$$$

 OpenBabel03252503033D

 36 38  0  0  0  0  0  0  0  0999 V2000
   39.8320   31.8810   41.4850 C   0  0  0  0  0  0  0  0  0  0  0  0
   38.7720   32.4950   40.8340 C   0  0  0  0  0  0  0  0  0  0  0  0
   37.5690   31.8170   40.5870 C   0  0  0  0  0  0  0  0  0  0  0  0
   37.5280   30.5360   41.0250 N   0  0  0  0  0  0  0  0  0  0  0  0
   38.5540   29.9590   41.6480 C   0  0  0  0  0  0  0  0  0  0  0  0
   39.6950   30.5930   41.8870 N   0  0  0  0  0  0  0  0  0  0  0  0
   40.7620   32.4400   41.6650 H   0  0  0  0  0  0  0  0  0  0  0  0
   36.7690   32.3310   40.0770 H   0  0  0  0  0  0  0  0  0  0  0  0
   38.3800   28.5980   42.0630 N   0  0  0  0  0  0  0  0  0  0  0  0
   38.7330   27.9340   43.1780 C   0  0  0  0  0  0  0  0  0  0  0  0
   39.2550   28.4470   43.9750 H   0  0  0  0  0  0  0  0  0  0  0  0
   38.3290   26.6460   43.0670 N   0  0  0  0  0  0  0  0  0  0  0  0
   37.7140   26.5200   41.8570 C   0  0  0  0  0  0  0  0  0  0  0  0
   37.1270   25.3940   41.2740 C   0  0  0  0  0  0  0  0  0  0  0  0
   37.1030   24.4340   41.7710 H   0  0  0  0  0  0  0  0  0  0  0  0
   36.5760   25.5430   40.0370 N   0  0  0  0  0  0  0  0  0  0  0  0
   36.6040   26.7460   39.4120 C   0  0  0  0  0  0  0  0  0  0  0  0
   36.1990   26.9590   38.4430 H   0  0  0  0  0  0  0  0  0  0  0  0
   37.1760   27.8480   39.9760 N   0  0  0  0  0  0  0  0  0  0  0  0
   37.7400   27.7540   41.2060 C   0  0  0  0  0  0  0  0  0  0  0  0
   38.9510   34.2140   40.2960 S   0  0  0  0  0  0  0  0  0  0  0  0
   40.6690   34.5190   39.8440 C   0  0  0  0  0  0  0  0  0  0  0  0
   40.8380   35.6180   39.8180 H   0  0  0  0  0  0  0  0  0  0  0  0
   41.3060   34.0780   40.6160 H   0  0  0  0  0  0  0  0  0  0  0  0
   40.8600   33.9230   38.5360 N   0  0  0  0  0  0  0  0  0  0  0  0
   40.4160   32.9920   38.4220 H   0  0  0  0  0  0  0  0  0  0  0  0
   42.4960   33.9150   38.0320 S   0  0  0  0  0  0  0  0  0  0  0  0
   42.6440   34.4240   36.6350 O   0  0  0  0  0  0  0  0  0  0  0  0
   42.9130   35.3630   36.4190 H   0  0  0  0  0  0  0  0  0  0  0  0
   43.2360   34.8090   39.0000 O   0  0  0  0  0  0  0  0  0  0  0  0
   43.5280   34.5110   39.8890 H   0  0  0  0  0  0  0  0  0  0  0  0
   43.1360   32.3750   38.1920 O   0  0  0  0  0  0  0  0  0  0  0  0
   43.8060   31.9590   37.0610 C   0  0  0  0  0  0  0  0  0  0  0  0
   44.1430   32.8430   36.4610 H   0  0  0  0  0  0  0  0  0  0  0  0
   44.7690   31.5040   37.4370 H   0  0  0  0  0  0  0  0  0  0  0  0
   43.2620   31.2250   36.4450 H   0  0  0  0  0  0  0  0  0  0  0  0
  1  7  1  0  0  0  0
  1  6  1  0  0  0  0
  2  1  2  0  0  0  0
  3  2  1  0  0  0  0
  3  4  2  0  0  0  0
  4  5  1  0  0  0  0
  5  6  2  0  0  0  0
  5  9  1  0  0  0  0
  8  3  1  0  0  0  0
  9 10  1  0  0  0  0
 10 11  1  0  0  0  0
 12 10  2  0  0  0  0
 13 12  1  0  0  0  0
 14 15  1  0  0  0  0
 14 13  1  0  0  0  0
 16 14  2  0  0  0  0
 17 19  2  0  0  0  0
 17 16  1  0  0  0  0
 18 17  1  0  0  0  0
 19 20  1  0  0  0  0
 20 13  2  0  0  0  0
 20  9  1  0  0  0  0
 21  2  1  0  0  0  0
 22 21  1  0  0  0  0
 22 24  1  0  0  0  0
 23 22  1  0  0  0  0
 25 22  1  0  0  0  0
 26 25  1  0  0  0  0
 27 32  1  0  0  0  0
 27 25  1  0  0  0  0
 27 30  1  0  0  0  0
 28 27  1  0  0  0  0
 29 28  1  0  0  0  0
 30 31  1  0  0  0  0
 33 35  1  0  0  0  0
 33 32  1  0  0  0  0
 34 33  1  0  0  0  0
 36 33  1  0  0  0  0
M  END
>  <minimizedAffinity>
-5.63685513

$$$$

 OpenBabel03252503033D

 36 38  0  0  0  0  0  0  0  0999 V2000
   36.5420   30.6050   40.9840 C   0  0  0  0  0  0  0  0  0  0  0  0
   37.3560   29.6650   41.5980 C   0  0  0  0  0  0  0  0  0  0  0  0
   38.7160   29.9140   41.8370 C   0  0  0  0  0  0  0  0  0  0  0  0
   39.1630   31.1240   41.4240 N   0  0  0  0  0  0  0  0  0  0  0  0
   38.3700   32.0160   40.8350 C   0  0  0  0  0  0  0  0  0  0  0  0
   37.0820   31.7910   40.6060 N   0  0  0  0  0  0  0  0  0  0  0  0
   35.4790   30.3810   40.8120 H   0  0  0  0  0  0  0  0  0  0  0  0
   39.3140   29.1550   42.3170 H   0  0  0  0  0  0  0  0  0  0  0  0
   38.9680   33.2600   40.4470 N   0  0  0  0  0  0  0  0  0  0  0  0
   38.5400   34.5340   40.5100 C   0  0  0  0  0  0  0  0  0  0  0  0
   37.5650   34.7620   40.9180 H   0  0  0  0  0  0  0  0  0  0  0  0
   39.5020   35.3440   40.0040 N   0  0  0  0  0  0  0  0  0  0  0  0
   40.5410   34.5460   39.6240 C   0  0  0  0  0  0  0  0  0  0  0  0
   41.7640   34.8990   39.0490 C   0  0  0  0  0  0  0  0  0  0  0  0
   42.0240   35.9260   38.8320 H   0  0  0  0  0  0  0  0  0  0  0  0
   42.6360   33.8920   38.7630 N   0  0  0  0  0  0  0  0  0  0  0  0
   42.3120   32.6030   39.0340 C   0  0  0  0  0  0  0  0  0  0  0  0
   42.9290   31.7480   38.8460 H   0  0  0  0  0  0  0  0  0  0  0  0
   41.1190   32.2540   39.5960 N   0  0  0  0  0  0  0  0  0  0  0  0
   40.2150   33.2170   39.9000 C   0  0  0  0  0  0  0  0  0  0  0  0
   36.6380   28.0820   42.1040 S   0  0  0  0  0  0  0  0  0  0  0  0
   37.8000   27.2190   43.1760 C   0  0  0  0  0  0  0  0  0  0  0  0
   38.5860   27.9380   43.4980 H   0  0  0  0  0  0  0  0  0  0  0  0
   37.2540   26.8680   44.0560 H   0  0  0  0  0  0  0  0  0  0  0  0
   38.3630   26.1420   42.3850 N   0  0  0  0  0  0  0  0  0  0  0  0
   37.6740   25.4270   42.0860 H   0  0  0  0  0  0  0  0  0  0  0  0
   39.7470   25.4320   43.1020 S   0  0  0  0  0  0  0  0  0  0  0  0
   40.0890   26.0860   44.4020 O   0  0  0  0  0  0  0  0  0  0  0  0
   39.8270   25.7080   45.2900 H   0  0  0  0  0  0  0  0  0  0  0  0
   39.4080   23.9770   43.3170 O   0  0  0  0  0  0  0  0  0  0  0  0
   39.4560   23.3030   42.6030 H   0  0  0  0  0  0  0  0  0  0  0  0
   41.0360   25.4880   42.0340 O   0  0  0  0  0  0  0  0  0  0  0  0
   42.2560   25.3660   42.6660 C   0  0  0  0  0  0  0  0  0  0  0  0
   42.1320   24.8490   43.6530 H   0  0  0  0  0  0  0  0  0  0  0  0
   42.8400   24.6260   42.0440 H   0  0  0  0  0  0  0  0  0  0  0  0
   42.8240   26.3050   42.7600 H   0  0  0  0  0  0  0  0  0  0  0  0
  1  2  1  0  0  0  0
  2  3  2  0  0  0  0
  2 21  1  0  0  0  0
  3  8  1  0  0  0  0
  4  3  1  0  0  0  0
  5  4  2  0  0  0  0
  6  5  1  0  0  0  0
  6  1  2  0  0  0  0
  7  1  1  0  0  0  0
  9 10  1  0  0  0  0
  9  5  1  0  0  0  0
 10 11  1  0  0  0  0
 12 10  2  0  0  0  0
 13 20  1  0  0  0  0
 13 12  1  0  0  0  0
 14 13  2  0  0  0  0
 15 14  1  0  0  0  0
 16 17  2  0  0  0  0
 16 14  1  0  0  0  0
 17 19  1  0  0  0  0
 18 17  1  0  0  0  0
 19 20  2  0  0  0  0
 20  9  1  0  0  0  0
 21 22  1  0  0  0  0
 22 23  1  0  0  0  0
 22 24  1  0  0  0  0
 25 27  1  0  0  0  0
 25 22  1  0  0  0  0
 26 25  1  0  0  0  0
 27 30  1  0  0  0  0
 27 28  1  0  0  0  0
 28 29  1  0  0  0  0
 31 30  1  0  0  0  0
 32 33  1  0  0  0  0
 32 27  1  0  0  0  0
 33 36  1  0  0  0  0
 33 34  1  0  0  0  0
 35 33  1  0  0  0  0
M  END
>  <minimizedAffinity>
-5.57896757

$$$$

 OpenBabel03252503033D

 36 38  0  0  0  0  0  0  0  0999 V2000
   36.7120   31.2510   39.5310 C   0  0  0  0  0  0  0  0  0  0  0  0
   37.2960   29.9940   39.5270 C   0  0  0  0  0  0  0  0  0  0  0  0
   38.6900   29.8310   39.5040 C   0  0  0  0  0  0  0  0  0  0  0  0
   39.4050   30.9810   39.4830 N   0  0  0  0  0  0  0  0  0  0  0  0
   38.8300   32.1810   39.4860 C   0  0  0  0  0  0  0  0  0  0  0  0
   37.5130   32.3460   39.5090 N   0  0  0  0  0  0  0  0  0  0  0  0
   35.6160   31.3460   39.5500 H   0  0  0  0  0  0  0  0  0  0  0  0
   39.1040   28.8340   39.5010 H   0  0  0  0  0  0  0  0  0  0  0  0
   39.7020   33.3190   39.4640 N   0  0  0  0  0  0  0  0  0  0  0  0
   39.6710   34.5020   40.1040 C   0  0  0  0  0  0  0  0  0  0  0  0
   38.8680   34.7280   40.7920 H   0  0  0  0  0  0  0  0  0  0  0  0
   40.7470   35.2330   39.7240 N   0  0  0  0  0  0  0  0  0  0  0  0
   41.4510   34.4800   38.8320 C   0  0  0  0  0  0  0  0  0  0  0  0
   42.6330   34.7850   38.1530 C   0  0  0  0  0  0  0  0  0  0  0  0
   43.1450   35.7280   38.2840 H   0  0  0  0  0  0  0  0  0  0  0  0
   43.1320   33.8420   37.3060 N   0  0  0  0  0  0  0  0  0  0  0  0
   42.4910   32.6580   37.1410 C   0  0  0  0  0  0  0  0  0  0  0  0
   42.8040   31.8590   36.5000 H   0  0  0  0  0  0  0  0  0  0  0  0
   41.3360   32.3550   37.8010 N   0  0  0  0  0  0  0  0  0  0  0  0
   40.7970   33.2590   38.6560 C   0  0  0  0  0  0  0  0  0  0  0  0
   36.2300   28.5320   39.5560 S   0  0  0  0  0  0  0  0  0  0  0  0
   36.5630   27.5830   41.0510 C   0  0  0  0  0  0  0  0  0  0  0  0
   35.9330   26.6660   41.0360 H   0  0  0  0  0  0  0  0  0  0  0  0
   37.6170   27.2930   41.0410 H   0  0  0  0  0  0  0  0  0  0  0  0
   36.2170   28.4430   42.1660 N   0  0  0  0  0  0  0  0  0  0  0  0
   35.9570   29.4100   41.8960 H   0  0  0  0  0  0  0  0  0  0  0  0
   37.3860   28.4240   43.4180 S   0  0  0  0  0  0  0  0  0  0  0  0
   36.7720   28.7230   44.7480 O   0  0  0  0  0  0  0  0  0  0  0  0
   36.5190   28.0140   45.4060 H   0  0  0  0  0  0  0  0  0  0  0  0
   37.9820   27.0360   43.4120 O   0  0  0  0  0  0  0  0  0  0  0  0
   38.6810   26.7550   42.7820 H   0  0  0  0  0  0  0  0  0  0  0  0
   38.6220   29.4960   43.0610 O   0  0  0  0  0  0  0  0  0  0  0  0
   39.8220   28.8620   42.8190 C   0  0  0  0  0  0  0  0  0  0  0  0
   39.6440   27.8020   42.5000 H   0  0  0  0  0  0  0  0  0  0  0  0
   40.2380   29.3560   41.8930 H   0  0  0  0  0  0  0  0  0  0  0  0
   40.5540   28.9280   43.6400 H   0  0  0  0  0  0  0  0  0  0  0  0
  1  7  1  0  0  0  0
  2  1  1  0  0  0  0
  2 21  1  0  0  0  0
  3  2  2  0  0  0  0
  4  5  2  0  0  0  0
  4  3  1  0  0  0  0
  5  6  1  0  0  0  0
  6  1  2  0  0  0  0
  8  3  1  0  0  0  0
  9  5  1  0  0  0  0
  9 10  1  0  0  0  0
 10 11  1  0  0  0  0
 12 10  2  0  0  0  0
 13 12  1  0  0  0  0
 14 15  1  0  0  0  0
 14 13  2  0  0  0  0
 16 14  1  0  0  0  0
 17 16  2  0  0  0  0
 17 19  1  0  0  0  0
 18 17  1  0  0  0  0
 19 20  2  0  0  0  0
 20 13  1  0  0  0  0
 20  9  1  0  0  0  0
 21 22  1  0  0  0  0
 22 25  1  0  0  0  0
 23 22  1  0  0  0  0
 24 22  1  0  0  0  0
 25 27  1  0  0  0  0
 26 25  1  0  0  0  0
 27 28  1  0  0  0  0
 28 29  1  0  0  0  0
 30 27  1  0  0  0  0
 31 30  1  0  0  0  0
 32 27  1  0  0  0  0
 33 32  1  0  0  0  0
 33 36  1  0  0  0  0
 34 33  1  0  0  0  0
 35 33  1  0  0  0  0
M  END
>  <minimizedAffinity>
-5.55881119

$$$$

 OpenBabel03252503033D

 36 38  0  0  0  0  0  0  0  0999 V2000
   36.6700   30.5700   41.0610 C   0  0  0  0  0  0  0  0  0  0  0  0
   37.4790   29.7050   41.7820 C   0  0  0  0  0  0  0  0  0  0  0  0
   38.8140   30.0210   42.0770 C   0  0  0  0  0  0  0  0  0  0  0  0
   39.2420   31.2160   41.6060 N   0  0  0  0  0  0  0  0  0  0  0  0
   38.4540   32.0360   40.9140 C   0  0  0  0  0  0  0  0  0  0  0  0
   37.1900   31.7480   40.6310 N   0  0  0  0  0  0  0  0  0  0  0  0
   35.6270   30.2950   40.8460 H   0  0  0  0  0  0  0  0  0  0  0  0
   39.4090   29.3190   42.6410 H   0  0  0  0  0  0  0  0  0  0  0  0
   39.0320   33.2730   40.4750 N   0  0  0  0  0  0  0  0  0  0  0  0
   38.5570   34.5320   40.4250 C   0  0  0  0  0  0  0  0  0  0  0  0
   37.5530   34.7490   40.7620 H   0  0  0  0  0  0  0  0  0  0  0  0
   39.5190   35.3410   39.9180 N   0  0  0  0  0  0  0  0  0  0  0  0
   40.6040   34.5600   39.6520 C   0  0  0  0  0  0  0  0  0  0  0  0
   41.8450   34.9190   39.1210 C   0  0  0  0  0  0  0  0  0  0  0  0
   42.0820   35.9380   38.8480 H   0  0  0  0  0  0  0  0  0  0  0  0
   42.7660   33.9290   38.9540 N   0  0  0  0  0  0  0  0  0  0  0  0
   42.4710   32.6500   39.2960 C   0  0  0  0  0  0  0  0  0  0  0  0
   43.1270   31.8080   39.2020 H   0  0  0  0  0  0  0  0  0  0  0  0
   41.2610   32.2940   39.8150 N   0  0  0  0  0  0  0  0  0  0  0  0
   40.3080   33.2410   40.0010 C   0  0  0  0  0  0  0  0  0  0  0  0
   36.7870   28.1340   42.3560 S   0  0  0  0  0  0  0  0  0  0  0  0
   38.1260   26.9560   42.6150 C   0  0  0  0  0  0  0  0  0  0  0  0
   39.0760   27.5220   42.7410 H   0  0  0  0  0  0  0  0  0  0  0  0
   37.9160   26.4010   43.5340 H   0  0  0  0  0  0  0  0  0  0  0  0
   38.1640   26.1140   41.4350 N   0  0  0  0  0  0  0  0  0  0  0  0
   37.6540   26.5000   40.6180 H   0  0  0  0  0  0  0  0  0  0  0  0
   37.7240   24.4900   41.7520 S   0  0  0  0  0  0  0  0  0  0  0  0
   38.7330   23.8060   42.6160 O   0  0  0  0  0  0  0  0  0  0  0  0
   38.6230   23.6950   43.6040 H   0  0  0  0  0  0  0  0  0  0  0  0
   36.3860   24.5480   42.4490 O   0  0  0  0  0  0  0  0  0  0  0  0
   35.5350   24.6640   41.9700 H   0  0  0  0  0  0  0  0  0  0  0  0
   37.4970   23.6680   40.3100 O   0  0  0  0  0  0  0  0  0  0  0  0
   38.0380   22.4000   40.3310 C   0  0  0  0  0  0  0  0  0  0  0  0
   38.1310   22.0340   41.3870 H   0  0  0  0  0  0  0  0  0  0  0  0
   37.2450   21.7310   39.8830 H   0  0  0  0  0  0  0  0  0  0  0  0
   38.9810   22.2890   39.7720 H   0  0  0  0  0  0  0  0  0  0  0  0
  1  2  1  0  0  0  0
  2  3  2  0  0  0  0
  2 21  1  0  0  0  0
  3  8  1  0  0  0  0
  4  3  1  0  0  0  0
  5  4  2  0  0  0  0
  6  5  1  0  0  0  0
  6  1  2  0  0  0  0
  7  1  1  0  0  0  0
  9  5  1  0  0  0  0
 10  9  1  0  0  0  0
 10 11  1  0  0  0  0
 12 10  2  0  0  0  0
 13 12  1  0  0  0  0
 13 20  1  0  0  0  0
 14 13  2  0  0  0  0
 15 14  1  0  0  0  0
 16 14  1  0  0  0  0
 16 17  2  0  0  0  0
 17 19  1  0  0  0  0
 18 17  1  0  0  0  0
 19 20  2  0  0  0  0
 20  9  1  0  0  0  0
 21 22  1  0  0  0  0
 22 23  1  0  0  0  0
 22 24  1  0  0  0  0
 25 27  1  0  0  0  0
 25 22  1  0  0  0  0
 26 25  1  0  0  0  0
 27 30  1  0  0  0  0
 27 28  1  0  0  0  0
 28 29  1  0  0  0  0
 31 30  1  0  0  0  0
 32 33  1  0  0  0  0
 32 27  1  0  0  0  0
 33 34  1  0  0  0  0
 35 33  1  0  0  0  0
 36 33  1  0  0  0  0
M  END
>  <minimizedAffinity>
-5.37739038

$$$$

 OpenBabel03252503033D

 36 38  0  0  0  0  0  0  0  0999 V2000
   37.2340   28.5340   40.4480 C   0  0  0  0  0  0  0  0  0  0  0  0
   37.8450   28.0320   41.5860 C   0  0  0  0  0  0  0  0  0  0  0  0
   38.6550   28.8370   42.4020 C   0  0  0  0  0  0  0  0  0  0  0  0
   38.7900   30.1210   41.9920 N   0  0  0  0  0  0  0  0  0  0  0  0
   38.1970   30.5890   40.8960 C   0  0  0  0  0  0  0  0  0  0  0  0
   37.4290   29.8360   40.1190 N   0  0  0  0  0  0  0  0  0  0  0  0
   36.6030   27.8780   39.8290 H   0  0  0  0  0  0  0  0  0  0  0  0
   39.1130   28.4070   43.2790 H   0  0  0  0  0  0  0  0  0  0  0  0
   38.4220   31.9690   40.5760 N   0  0  0  0  0  0  0  0  0  0  0  0
   37.6120   32.9390   40.1140 C   0  0  0  0  0  0  0  0  0  0  0  0
   36.5690   32.7310   39.9180 H   0  0  0  0  0  0  0  0  0  0  0  0
   38.3300   34.0800   39.9780 N   0  0  0  0  0  0  0  0  0  0  0  0
   39.6070   33.8000   40.3640 C   0  0  0  0  0  0  0  0  0  0  0  0
   40.7230   34.6390   40.4060 C   0  0  0  0  0  0  0  0  0  0  0  0
   40.6750   35.6780   40.1120 H   0  0  0  0  0  0  0  0  0  0  0  0
   41.8980   34.0990   40.8380 N   0  0  0  0  0  0  0  0  0  0  0  0
   41.9600   32.7960   41.2080 C   0  0  0  0  0  0  0  0  0  0  0  0
   42.8350   32.2850   41.5590 H   0  0  0  0  0  0  0  0  0  0  0  0
   40.8740   31.9730   41.1690 N   0  0  0  0  0  0  0  0  0  0  0  0
   39.6810   32.4600   40.7470 C   0  0  0  0  0  0  0  0  0  0  0  0
   37.5860   26.2960   42.0270 S   0  0  0  0  0  0  0  0  0  0  0  0
   38.7130   25.2660   41.0700 C   0  0  0  0  0  0  0  0  0  0  0  0
   38.5070   24.1990   41.3090 H   0  0  0  0  0  0  0  0  0  0  0  0
   38.5140   25.4400   40.0090 H   0  0  0  0  0  0  0  0  0  0  0  0
   40.0540   25.6470   41.4700 N   0  0  0  0  0  0  0  0  0  0  0  0
   40.7740   25.5070   40.7370 H   0  0  0  0  0  0  0  0  0  0  0  0
   40.5290   24.9670   42.9680 S   0  0  0  0  0  0  0  0  0  0  0  0
   39.7470   23.7320   43.2840 O   0  0  0  0  0  0  0  0  0  0  0  0
   40.0910   22.8090   43.1170 H   0  0  0  0  0  0  0  0  0  0  0  0
   41.9970   24.6410   42.8330 O   0  0  0  0  0  0  0  0  0  0  0  0
   42.7080   25.3120   42.9350 H   0  0  0  0  0  0  0  0  0  0  0  0
   40.3840   26.1090   44.1850 O   0  0  0  0  0  0  0  0  0  0  0  0
   41.5010   26.9100   44.2970 C   0  0  0  0  0  0  0  0  0  0  0  0
   42.0670   26.9250   43.3290 H   0  0  0  0  0  0  0  0  0  0  0  0
   41.1020   27.9630   44.3920 H   0  0  0  0  0  0  0  0  0  0  0  0
   42.1530   26.6780   45.1530 H   0  0  0  0  0  0  0  0  0  0  0  0
  1  2  1  0  0  0  0
  2 21  1  0  0  0  0
  2  3  2  0  0  0  0
  3  8  1  0  0  0  0
  4  3  1  0  0  0  0
  5  4  2  0  0  0  0
  6  1  2  0  0  0  0
  6  5  1  0  0  0  0
  7  1  1  0  0  0  0
  9 20  1  0  0  0  0
  9  5  1  0  0  0  0
 10  9  1  0  0  0  0
 11 10  1  0  0  0  0
 12 10  2  0  0  0  0
 12 13  1  0  0  0  0
 13 14  2  0  0  0  0
 13 20  1  0  0  0  0
 14 16  1  0  0  0  0
 15 14  1  0  0  0  0
 16 17  2  0  0  0  0
 17 18  1  0  0  0  0
 19 17  1  0  0  0  0
 20 19  2  0  0  0  0
 22 23  1  0  0  0  0
 22 25  1  0  0  0  0
 22 21  1  0  0  0  0
 24 22  1  0  0  0  0
 25 27  1  0  0  0  0
 26 25  1  0  0  0  0
 27 28  1  0  0  0  0
 27 32  1  0  0  0  0
 29 28  1  0  0  0  0
 30 31  1  0  0  0  0
 30 27  1  0  0  0  0
 32 33  1  0  0  0  0
 33 35  1  0  0  0  0
 33 36  1  0  0  0  0
 34 33  1  0  0  0  0
M  END
>  <minimizedAffinity>
-5.37668228

$$$$

 OpenBabel03252503033D

 36 38  0  0  0  0  0  0  0  0999 V2000
   41.7770   30.2970   38.8710 C   0  0  0  0  0  0  0  0  0  0  0  0
   40.9420   31.3810   38.6490 C   0  0  0  0  0  0  0  0  0  0  0  0
   39.8310   31.6340   39.4670 C   0  0  0  0  0  0  0  0  0  0  0  0
   39.6410   30.7460   40.4730 N   0  0  0  0  0  0  0  0  0  0  0  0
   40.4510   29.7090   40.6740 C   0  0  0  0  0  0  0  0  0  0  0  0
   41.5050   29.4620   39.9060 N   0  0  0  0  0  0  0  0  0  0  0  0
   42.6410   30.1260   38.2120 H   0  0  0  0  0  0  0  0  0  0  0  0
   39.2060   32.4890   39.2600 H   0  0  0  0  0  0  0  0  0  0  0  0
   40.1380   28.8450   41.7750 N   0  0  0  0  0  0  0  0  0  0  0  0
   40.9040   28.2330   42.6970 C   0  0  0  0  0  0  0  0  0  0  0  0
   41.9780   28.3590   42.6840 H   0  0  0  0  0  0  0  0  0  0  0  0
   40.1040   27.5210   43.5260 N   0  0  0  0  0  0  0  0  0  0  0  0
   38.8210   27.7020   43.1020 C   0  0  0  0  0  0  0  0  0  0  0  0
   37.6340   27.1810   43.6220 C   0  0  0  0  0  0  0  0  0  0  0  0
   37.6200   26.5290   44.4850 H   0  0  0  0  0  0  0  0  0  0  0  0
   36.4720   27.5240   42.9990 N   0  0  0  0  0  0  0  0  0  0  0  0
   36.4870   28.3420   41.9170 C   0  0  0  0  0  0  0  0  0  0  0  0
   35.6290   28.6650   41.3640 H   0  0  0  0  0  0  0  0  0  0  0  0
   37.6430   28.8530   41.4050 N   0  0  0  0  0  0  0  0  0  0  0  0
   38.8270   28.5420   41.9870 C   0  0  0  0  0  0  0  0  0  0  0  0
   41.3030   32.4960   37.2690 S   0  0  0  0  0  0  0  0  0  0  0  0
   42.0310   34.0150   37.9080 C   0  0  0  0  0  0  0  0  0  0  0  0
   41.2490   34.8070   37.9160 H   0  0  0  0  0  0  0  0  0  0  0  0
   42.3610   33.8290   38.9340 H   0  0  0  0  0  0  0  0  0  0  0  0
   43.1190   34.3560   37.0120 N   0  0  0  0  0  0  0  0  0  0  0  0
   42.9730   34.0560   36.0290 H   0  0  0  0  0  0  0  0  0  0  0  0
   44.6530   33.8770   37.6020 S   0  0  0  0  0  0  0  0  0  0  0  0
   45.6030   33.5780   36.4880 O   0  0  0  0  0  0  0  0  0  0  0  0
   46.2860   34.2300   36.1600 H   0  0  0  0  0  0  0  0  0  0  0  0
   45.1610   35.0330   38.4320 O   0  0  0  0  0  0  0  0  0  0  0  0
   44.8770   35.1950   39.3580 H   0  0  0  0  0  0  0  0  0  0  0  0
   44.4860   32.5650   38.6310 O   0  0  0  0  0  0  0  0  0  0  0  0
   45.4020   31.5680   38.3730 C   0  0  0  0  0  0  0  0  0  0  0  0
   46.2990   31.9900   37.8500 H   0  0  0  0  0  0  0  0  0  0  0  0
   45.8000   31.2620   39.3850 H   0  0  0  0  0  0  0  0  0  0  0  0
   44.9950   30.6890   37.8500 H   0  0  0  0  0  0  0  0  0  0  0  0
  1  6  1  0  0  0  0
  2  1  2  0  0  0  0
  2  3  1  0  0  0  0
  3  4  2  0  0  0  0
  4  5  1  0  0  0  0
  5  9  1  0  0  0  0
  6  5  2  0  0  0  0
  7  1  1  0  0  0  0
  8  3  1  0  0  0  0
  9 20  1  0  0  0  0
  9 10  1  0  0  0  0
 10 12  2  0  0  0  0
 11 10  1  0  0  0  0
 13 12  1  0  0  0  0
 13 14  1  0  0  0  0
 14 15  1  0  0  0  0
 16 14  2  0  0  0  0
 17 16  1  0  0  0  0
 18 17  1  0  0  0  0
 19 17  2  0  0  0  0
 19 20  1  0  0  0  0
 20 13  2  0  0  0  0
 21 22  1  0  0  0  0
 21  2  1  0  0  0  0
 22 23  1  0  0  0  0
 22 24  1  0  0  0  0
 25 27  1  0  0  0  0
 25 22  1  0  0  0  0
 26 25  1  0  0  0  0
 27 30  1  0  0  0  0
 27 32  1  0  0  0  0
 28 27  1  0  0  0  0
 29 28  1  0  0  0  0
 30 31  1  0  0  0  0
 33 32  1  0  0  0  0
 33 35  1  0  0  0  0
 34 33  1  0  0  0  0
 36 33  1  0  0  0  0
M  END
>  <minimizedAffinity>
-5.13419676

$$$$
