
 OpenBabel03242519083D

 46 50  0  0  1  0  0  0  0  0999 V2000
   37.8900   32.8150   40.6480 N   0  0  0  0  0  0  0  0  0  0  0  0
   37.6320   32.5740   41.6380 H   0  0  0  0  0  0  0  0  0  0  0  0
   37.0300   30.0580   38.5730 N   0  0  0  0  0  0  0  0  0  0  0  0
   37.5520   30.5270   39.8450 C   0  0  0  0  0  0  0  0  0  0  0  0
   37.1940   31.9790   39.7230 C   0  0  2  0  0  0  0  0  0  0  0  0
   37.6940   32.3120   38.3350 C   0  0  0  0  0  0  0  0  0  0  0  0
   37.4430   31.0260   37.5820 C   0  0  0  0  0  0  0  0  0  0  0  0
   38.6570   30.4220   39.8860 H   0  0  0  0  0  0  0  0  0  0  0  0
   37.0730   30.0200   40.7040 H   0  0  0  0  0  0  0  0  0  0  0  0
   36.0950   32.1170   39.7580 H   0  0  0  0  0  0  0  0  0  0  0  0
   37.0580   33.1260   37.8800 H   0  0  0  0  0  0  0  0  0  0  0  0
   38.7440   32.6210   38.3590 H   0  0  0  0  0  0  0  0  0  0  0  0
   36.7330   31.1490   36.7520 H   0  0  0  0  0  0  0  0  0  0  0  0
   38.4230   30.6780   37.1790 H   0  0  0  0  0  0  0  0  0  0  0  0
   34.3710   27.7340   37.3600 C   0  0  0  0  0  0  0  0  0  0  0  0
   35.0480   28.9260   37.6220 C   0  0  0  0  0  0  0  0  0  0  0  0
   36.2680   28.9130   38.2620 C   0  0  0  0  0  0  0  0  0  0  0  0
   36.7690   27.7030   38.6170 N   0  0  0  0  0  0  0  0  0  0  0  0
   36.1230   26.5410   38.3690 C   0  0  0  0  0  0  0  0  0  0  0  0
   34.9300   26.5610   37.7430 N   0  0  0  0  0  0  0  0  0  0  0  0
   33.4120   27.7500   36.8570 H   0  0  0  0  0  0  0  0  0  0  0  0
   34.6420   29.8830   37.3360 H   0  0  0  0  0  0  0  0  0  0  0  0
   36.5080   25.5740   38.6450 H   0  0  0  0  0  0  0  0  0  0  0  0
   40.2220   33.7190   40.5610 C   0  0  0  0  0  0  0  0  0  0  0  0
   38.8290   33.8680   40.4520 C   0  0  0  0  0  0  0  0  0  0  0  0
   38.4470   35.1490   40.1340 C   0  0  0  0  0  0  0  0  0  0  0  0
   39.2780   36.2140   39.9300 C   0  0  0  0  0  0  0  0  0  0  0  0
   40.6190   36.0130   40.0470 C   0  0  0  0  0  0  0  0  0  0  0  0
   41.0880   34.7570   40.3650 C   0  0  0  0  0  0  0  0  0  0  0  0
   37.3780   35.3300   40.0350 H   0  0  0  0  0  0  0  0  0  0  0  0
   38.9220   37.1920   39.6830 H   0  0  0  0  0  0  0  0  0  0  0  0
   41.3190   36.8260   39.8950 H   0  0  0  0  0  0  0  0  0  0  0  0
   42.4950   34.5770   40.4820 N   0  0  0  0  0  0  0  0  0  0  0  0
   43.3180   33.8930   39.6660 C   0  0  0  0  0  0  0  0  0  0  0  0
   43.0460   33.3540   38.7680 H   0  0  0  0  0  0  0  0  0  0  0  0
   44.5780   33.9710   40.1380 N   0  0  0  0  0  0  0  0  0  0  0  0
   44.5920   34.7170   41.2800 C   0  0  0  0  0  0  0  0  0  0  0  0
   45.6150   35.0850   42.1300 C   0  0  0  0  0  0  0  0  0  0  0  0
   46.6420   34.7910   41.9670 H   0  0  0  0  0  0  0  0  0  0  0  0
   45.2380   35.8340   43.1700 N   0  0  0  0  0  0  0  0  0  0  0  0
   43.9650   36.2240   43.4090 C   0  0  0  0  0  0  0  0  0  0  0  0
   43.7100   36.8380   44.2780 H   0  0  0  0  0  0  0  0  0  0  0  0
   42.9510   35.8600   42.5710 N   0  0  0  0  0  0  0  0  0  0  0  0
   43.2630   35.0930   41.4850 C   0  0  0  0  0  0  0  0  0  0  0  0
   41.1280   31.3330   41.1520 N   0  0  0  0  0  0  0  0  0  0  0  0
   40.7190   32.3870   40.8980 C   0  0  0  0  0  0  0  0  0  0  0  0
  1  2  1  0  0  0  0
  3  4  1  0  0  0  0
  4  8  1  0  0  0  0
  4  9  1  0  0  0  0
  5 10  1  1  0  0  0
  5  4  1  0  0  0  0
  5  1  1  0  0  0  0
  6 12  1  0  0  0  0
  6  5  1  0  0  0  0
  7  6  1  0  0  0  0
  7  3  1  0  0  0  0
 11  6  1  0  0  0  0
 13  7  1  0  0  0  0
 14  7  1  0  0  0  0
 15 16  2  0  0  0  0
 15 20  1  0  0  0  0
 16 17  1  0  0  0  0
 17  3  1  0  0  0  0
 17 18  2  0  0  0  0
 19 18  1  0  0  0  0
 19 23  1  0  0  0  0
 20 19  2  0  0  0  0
 21 15  1  0  0  0  0
 22 16  1  0  0  0  0
 24 46  1  0  0  0  0
 25 24  1  0  0  0  0
 25  1  1  0  0  0  0
 26 25  2  0  0  0  0
 27 28  2  0  0  0  0
 27 26  1  0  0  0  0
 28 29  1  0  0  0  0
 29 33  1  0  0  0  0
 29 24  2  0  0  0  0
 30 26  1  0  0  0  0
 31 27  1  0  0  0  0
 32 28  1  0  0  0  0
 33 44  1  0  0  0  0
 34 36  2  0  0  0  0
 34 33  1  0  0  0  0
 35 34  1  0  0  0  0
 36 37  1  0  0  0  0
 37 44  2  0  0  0  0
 37 38  1  0  0  0  0
 38 40  2  0  0  0  0
 39 38  1  0  0  0  0
 40 41  1  0  0  0  0
 41 42  1  0  0  0  0
 43 41  2  0  0  0  0
 44 43  1  0  0  0  0
 46 45  3  0  0  0  0
M  END
>  <minimizedAffinity>
-6.45638609

$$$$

 OpenBabel03242519083D

 46 50  0  0  1  0  0  0  0  0999 V2000
   38.4620   29.4850   42.4040 N   0  0  0  0  0  0  0  0  0  0  0  0
   38.4960   29.6590   43.4400 H   0  0  0  0  0  0  0  0  0  0  0  0
   38.0740   25.9620   42.1220 N   0  0  0  0  0  0  0  0  0  0  0  0
   37.4750   27.2800   42.0070 C   0  0  0  0  0  0  0  0  0  0  0  0
   38.7190   28.1120   42.1100 C   0  0  2  0  0  0  0  0  0  0  0  0
   39.4070   27.5050   43.3130 C   0  0  0  0  0  0  0  0  0  0  0  0
   39.0380   26.0440   43.1960 C   0  0  0  0  0  0  0  0  0  0  0  0
   36.8150   27.4950   42.8750 H   0  0  0  0  0  0  0  0  0  0  0  0
   36.9300   27.4080   41.0530 H   0  0  0  0  0  0  0  0  0  0  0  0
   39.3590   27.9730   41.2160 H   0  0  0  0  0  0  0  0  0  0  0  0
   40.5260   27.6040   43.2100 H   0  0  0  0  0  0  0  0  0  0  0  0
   39.0690   27.9800   44.2400 H   0  0  0  0  0  0  0  0  0  0  0  0
   39.9140   25.3930   43.0650 H   0  0  0  0  0  0  0  0  0  0  0  0
   38.5050   25.7570   44.1320 H   0  0  0  0  0  0  0  0  0  0  0  0
   38.4440   22.6750   40.3890 C   0  0  0  0  0  0  0  0  0  0  0  0
   38.7790   23.8100   41.1280 C   0  0  0  0  0  0  0  0  0  0  0  0
   37.8370   24.7810   41.3870 C   0  0  0  0  0  0  0  0  0  0  0  0
   36.5890   24.5810   40.8950 N   0  0  0  0  0  0  0  0  0  0  0  0
   36.2510   23.4870   40.1770 C   0  0  0  0  0  0  0  0  0  0  0  0
   37.1770   22.5400   39.9270 N   0  0  0  0  0  0  0  0  0  0  0  0
   39.1880   21.9140   40.1870 H   0  0  0  0  0  0  0  0  0  0  0  0
   39.7740   23.9600   41.5150 H   0  0  0  0  0  0  0  0  0  0  0  0
   35.2640   23.3140   39.7810 H   0  0  0  0  0  0  0  0  0  0  0  0
   39.1220   31.5710   41.1910 C   0  0  0  0  0  0  0  0  0  0  0  0
   38.1800   30.5980   41.5610 C   0  0  0  0  0  0  0  0  0  0  0  0
   36.9340   30.8220   41.0240 C   0  0  0  0  0  0  0  0  0  0  0  0
   36.5790   31.8590   40.2090 C   0  0  0  0  0  0  0  0  0  0  0  0
   37.5320   32.7740   39.8820 C   0  0  0  0  0  0  0  0  0  0  0  0
   38.8090   32.6240   40.3790 C   0  0  0  0  0  0  0  0  0  0  0  0
   36.1580   30.1010   41.2730 H   0  0  0  0  0  0  0  0  0  0  0  0
   35.5900   31.9820   39.8190 H   0  0  0  0  0  0  0  0  0  0  0  0
   37.3000   33.6140   39.2390 H   0  0  0  0  0  0  0  0  0  0  0  0
   39.7850   33.5960   40.0210 N   0  0  0  0  0  0  0  0  0  0  0  0
   40.0100   34.7980   40.5810 C   0  0  0  0  0  0  0  0  0  0  0  0
   39.4780   35.2390   41.4140 H   0  0  0  0  0  0  0  0  0  0  0  0
   41.0280   35.4060   39.9400 N   0  0  0  0  0  0  0  0  0  0  0  0
   41.4850   34.5960   38.9420 C   0  0  0  0  0  0  0  0  0  0  0  0
   42.4940   34.7560   38.0140 C   0  0  0  0  0  0  0  0  0  0  0  0
   43.1100   35.6420   37.9680 H   0  0  0  0  0  0  0  0  0  0  0  0
   42.6530   33.7260   37.1760 N   0  0  0  0  0  0  0  0  0  0  0  0
   41.9050   32.6000   37.2000 C   0  0  0  0  0  0  0  0  0  0  0  0
   42.0770   31.7850   36.4890 H   0  0  0  0  0  0  0  0  0  0  0  0
   40.9060   32.4400   38.1150 N   0  0  0  0  0  0  0  0  0  0  0  0
   40.6860   33.4530   39.0060 C   0  0  0  0  0  0  0  0  0  0  0  0
   41.5480   31.2670   42.1330 N   0  0  0  0  0  0  0  0  0  0  0  0
   40.4760   31.4130   41.7180 C   0  0  0  0  0  0  0  0  0  0  0  0
  1  2  1  0  0  0  0
  3  7  1  0  0  0  0
  4  5  1  0  0  0  0
  4  3  1  0  0  0  0
  4  8  1  0  0  0  0
  5 10  1  6  0  0  0
  5  1  1  0  0  0  0
  5  6  1  0  0  0  0
  6 12  1  0  0  0  0
  7  6  1  0  0  0  0
  7 14  1  0  0  0  0
  9  4  1  0  0  0  0
 11  6  1  0  0  0  0
 13  7  1  0  0  0  0
 15 16  1  0  0  0  0
 16 17  2  0  0  0  0
 16 22  1  0  0  0  0
 17  3  1  0  0  0  0
 18 17  1  0  0  0  0
 19 18  2  0  0  0  0
 20 19  1  0  0  0  0
 20 15  2  0  0  0  0
 21 15  1  0  0  0  0
 23 19  1  0  0  0  0
 24 25  1  0  0  0  0
 24 46  1  0  0  0  0
 25  1  1  0  0  0  0
 26 30  1  0  0  0  0
 26 25  2  0  0  0  0
 27 26  1  0  0  0  0
 28 27  2  0  0  0  0
 28 29  1  0  0  0  0
 29 24  2  0  0  0  0
 31 27  1  0  0  0  0
 32 28  1  0  0  0  0
 33 29  1  0  0  0  0
 33 34  1  0  0  0  0
 34 35  1  0  0  0  0
 36 34  2  0  0  0  0
 37 44  1  0  0  0  0
 37 36  1  0  0  0  0
 38 37  2  0  0  0  0
 39 38  1  0  0  0  0
 40 41  2  0  0  0  0
 40 38  1  0  0  0  0
 41 43  1  0  0  0  0
 42 41  1  0  0  0  0
 43 44  2  0  0  0  0
 44 33  1  0  0  0  0
 46 45  3  0  0  0  0
M  END
>  <minimizedAffinity>
-6.27960348

$$$$

 OpenBabel03242519083D

 46 50  0  0  1  0  0  0  0  0999 V2000
   40.4420   31.9610   39.2160 N   0  0  0  0  0  0  0  0  0  0  0  0
   40.7610   31.4320   38.3650 H   0  0  0  0  0  0  0  0  0  0  0  0
   42.2620   34.3740   41.0890 N   0  0  0  0  0  0  0  0  0  0  0  0
   41.6250   33.0690   41.0510 C   0  0  0  0  0  0  0  0  0  0  0  0
   41.3900   32.9680   39.5720 C   0  0  2  0  0  0  0  0  0  0  0  0
   40.7730   34.3120   39.2570 C   0  0  0  0  0  0  0  0  0  0  0  0
   41.4880   35.2310   40.2220 C   0  0  0  0  0  0  0  0  0  0  0  0
   40.6480   33.0870   41.5790 H   0  0  0  0  0  0  0  0  0  0  0  0
   42.2800   32.2740   41.4540 H   0  0  0  0  0  0  0  0  0  0  0  0
   42.3500   32.8700   39.0280 H   0  0  0  0  0  0  0  0  0  0  0  0
   41.0350   34.6200   38.2040 H   0  0  0  0  0  0  0  0  0  0  0  0
   39.6860   34.2850   39.3850 H   0  0  0  0  0  0  0  0  0  0  0  0
   42.0780   36.0070   39.7130 H   0  0  0  0  0  0  0  0  0  0  0  0
   40.7110   35.7180   40.8560 H   0  0  0  0  0  0  0  0  0  0  0  0
   44.6050   36.2230   43.3320 C   0  0  0  0  0  0  0  0  0  0  0  0
   43.4220   35.8640   42.6860 C   0  0  0  0  0  0  0  0  0  0  0  0
   43.4020   34.8150   41.7930 C   0  0  0  0  0  0  0  0  0  0  0  0
   44.5720   34.1620   41.5780 N   0  0  0  0  0  0  0  0  0  0  0  0
   45.7250   34.5000   42.1970 C   0  0  0  0  0  0  0  0  0  0  0  0
   45.7370   35.5270   43.0700 N   0  0  0  0  0  0  0  0  0  0  0  0
   44.6150   37.0490   44.0340 H   0  0  0  0  0  0  0  0  0  0  0  0
   42.4970   36.3890   42.8630 H   0  0  0  0  0  0  0  0  0  0  0  0
   46.6600   33.9910   42.0360 H   0  0  0  0  0  0  0  0  0  0  0  0
   39.0170   30.4470   40.6070 C   0  0  0  0  0  0  0  0  0  0  0  0
   39.1990   31.5800   39.7980 C   0  0  0  0  0  0  0  0  0  0  0  0
   38.0450   32.3030   39.6140 C   0  0  0  0  0  0  0  0  0  0  0  0
   36.8160   32.0110   40.1340 C   0  0  0  0  0  0  0  0  0  0  0  0
   36.6960   30.9000   40.9120 C   0  0  0  0  0  0  0  0  0  0  0  0
   37.8060   30.1170   41.1460 C   0  0  0  0  0  0  0  0  0  0  0  0
   38.1200   33.1950   38.9950 H   0  0  0  0  0  0  0  0  0  0  0  0
   35.9500   32.6130   39.9570 H   0  0  0  0  0  0  0  0  0  0  0  0
   35.7430   30.6250   41.3480 H   0  0  0  0  0  0  0  0  0  0  0  0
   37.6510   28.9630   41.9640 N   0  0  0  0  0  0  0  0  0  0  0  0
   37.7030   28.8780   43.3050 C   0  0  0  0  0  0  0  0  0  0  0  0
   37.8750   29.6860   44.0040 H   0  0  0  0  0  0  0  0  0  0  0  0
   37.5060   27.5980   43.6790 N   0  0  0  0  0  0  0  0  0  0  0  0
   37.3190   26.8240   42.5710 C   0  0  0  0  0  0  0  0  0  0  0  0
   37.0830   25.4720   42.4190 C   0  0  0  0  0  0  0  0  0  0  0  0
   37.0100   24.7950   43.2570 H   0  0  0  0  0  0  0  0  0  0  0  0
   36.9510   25.0660   41.1530 N   0  0  0  0  0  0  0  0  0  0  0  0
   37.0350   25.8800   40.0760 C   0  0  0  0  0  0  0  0  0  0  0  0
   36.9200   25.4950   39.0580 H   0  0  0  0  0  0  0  0  0  0  0  0
   37.2690   27.2160   40.2240 N   0  0  0  0  0  0  0  0  0  0  0  0
   37.4150   27.7040   41.4920 C   0  0  0  0  0  0  0  0  0  0  0  0
   41.1370   28.9750   41.0620 N   0  0  0  0  0  0  0  0  0  0  0  0
   40.1940   29.6170   40.8560 C   0  0  0  0  0  0  0  0  0  0  0  0
  1  5  1  0  0  0  0
  1 25  1  0  0  0  0
  2  1  1  0  0  0  0
  3 17  1  0  0  0  0
  4  3  1  0  0  0  0
  4  9  1  0  0  0  0
  4  8  1  0  0  0  0
  5 10  1  6  0  0  0
  5  4  1  0  0  0  0
  6 12  1  0  0  0  0
  6  5  1  0  0  0  0
  6  7  1  0  0  0  0
  7 14  1  0  0  0  0
  7  3  1  0  0  0  0
 11  6  1  0  0  0  0
 13  7  1  0  0  0  0
 15 21  1  0  0  0  0
 16 22  1  0  0  0  0
 16 15  2  0  0  0  0
 17 16  1  0  0  0  0
 18 17  2  0  0  0  0
 18 19  1  0  0  0  0
 19 20  2  0  0  0  0
 20 15  1  0  0  0  0
 23 19  1  0  0  0  0
 24 46  1  0  0  0  0
 24 29  1  0  0  0  0
 25 24  2  0  0  0  0
 26 25  1  0  0  0  0
 26 27  2  0  0  0  0
 27 28  1  0  0  0  0
 28 29  2  0  0  0  0
 28 32  1  0  0  0  0
 29 33  1  0  0  0  0
 30 26  1  0  0  0  0
 31 27  1  0  0  0  0
 33 34  1  0  0  0  0
 34 36  2  0  0  0  0
 34 35  1  0  0  0  0
 37 36  1  0  0  0  0
 38 37  1  0  0  0  0
 38 39  1  0  0  0  0
 40 38  2  0  0  0  0
 41 43  2  0  0  0  0
 41 40  1  0  0  0  0
 42 41  1  0  0  0  0
 43 44  1  0  0  0  0
 44 33  1  0  0  0  0
 44 37  2  0  0  0  0
 46 45  3  0  0  0  0
M  END
>  <minimizedAffinity>
-6.23179197

$$$$

 OpenBabel03242519083D

 46 50  0  0  1  0  0  0  0  0999 V2000
   37.7180   29.2990   40.1920 N   0  0  0  0  0  0  0  0  0  0  0  0
   37.0750   28.7990   39.5270 H   0  0  0  0  0  0  0  0  0  0  0  0
   38.3980   32.7780   39.9080 N   0  0  0  0  0  0  0  0  0  0  0  0
   38.4570   31.5740   40.7170 C   0  0  0  0  0  0  0  0  0  0  0  0
   38.1120   30.5650   39.6610 C   0  0  2  0  0  0  0  0  0  0  0  0
   36.8960   31.1900   39.0130 C   0  0  0  0  0  0  0  0  0  0  0  0
   37.2060   32.6670   39.0990 C   0  0  0  0  0  0  0  0  0  0  0  0
   37.6650   31.5770   41.4960 H   0  0  0  0  0  0  0  0  0  0  0  0
   39.4560   31.4230   41.1670 H   0  0  0  0  0  0  0  0  0  0  0  0
   38.9250   30.4870   38.9120 H   0  0  0  0  0  0  0  0  0  0  0  0
   36.8430   30.8950   37.9250 H   0  0  0  0  0  0  0  0  0  0  0  0
   35.9780   30.8930   39.5310 H   0  0  0  0  0  0  0  0  0  0  0  0
   37.2860   33.1430   38.1110 H   0  0  0  0  0  0  0  0  0  0  0  0
   36.3790   33.1490   39.6720 H   0  0  0  0  0  0  0  0  0  0  0  0
   41.3710   34.9830   39.4230 C   0  0  0  0  0  0  0  0  0  0  0  0
   40.5890   33.8280   39.4480 C   0  0  0  0  0  0  0  0  0  0  0  0
   39.2710   33.8840   39.8470 C   0  0  0  0  0  0  0  0  0  0  0  0
   38.7830   35.0970   40.2070 N   0  0  0  0  0  0  0  0  0  0  0  0
   39.5310   36.2240   40.1870 C   0  0  0  0  0  0  0  0  0  0  0  0
   40.8190   36.1630   39.7960 N   0  0  0  0  0  0  0  0  0  0  0  0
   42.4080   34.9350   39.1090 H   0  0  0  0  0  0  0  0  0  0  0  0
   40.9860   32.8690   39.1590 H   0  0  0  0  0  0  0  0  0  0  0  0
   39.1570   37.1930   40.4710 H   0  0  0  0  0  0  0  0  0  0  0  0
   39.2350   27.9390   41.6440 C   0  0  0  0  0  0  0  0  0  0  0  0
   38.0410   28.6420   41.4130 C   0  0  0  0  0  0  0  0  0  0  0  0
   37.1940   28.6370   42.4970 C   0  0  0  0  0  0  0  0  0  0  0  0
   37.4240   28.0340   43.7010 C   0  0  0  0  0  0  0  0  0  0  0  0
   38.5990   27.3670   43.8700 C   0  0  0  0  0  0  0  0  0  0  0  0
   39.5050   27.3220   42.8330 C   0  0  0  0  0  0  0  0  0  0  0  0
   36.2500   29.1660   42.3810 H   0  0  0  0  0  0  0  0  0  0  0  0
   36.7260   28.0650   44.5110 H   0  0  0  0  0  0  0  0  0  0  0  0
   38.8280   26.8720   44.8060 H   0  0  0  0  0  0  0  0  0  0  0  0
   40.7240   26.6160   43.0380 N   0  0  0  0  0  0  0  0  0  0  0  0
   40.9590   25.2990   42.8990 C   0  0  0  0  0  0  0  0  0  0  0  0
   40.2480   24.5380   42.6010 H   0  0  0  0  0  0  0  0  0  0  0  0
   42.2490   25.0430   43.1920 N   0  0  0  0  0  0  0  0  0  0  0  0
   42.8790   26.2050   43.5290 C   0  0  0  0  0  0  0  0  0  0  0  0
   44.1790   26.4740   43.9040 C   0  0  0  0  0  0  0  0  0  0  0  0
   44.9350   25.7060   43.9810 H   0  0  0  0  0  0  0  0  0  0  0  0
   44.4320   27.7600   44.1640 N   0  0  0  0  0  0  0  0  0  0  0  0
   43.5170   28.7520   44.0790 C   0  0  0  0  0  0  0  0  0  0  0  0
   43.7770   29.7910   44.3040 H   0  0  0  0  0  0  0  0  0  0  0  0
   42.2300   28.4880   43.7090 N   0  0  0  0  0  0  0  0  0  0  0  0
   41.8980   27.1930   43.4270 C   0  0  0  0  0  0  0  0  0  0  0  0
   40.9670   27.8700   39.6800 N   0  0  0  0  0  0  0  0  0  0  0  0
   40.1960   27.8910   40.5440 C   0  0  0  0  0  0  0  0  0  0  0  0
  1 25  1  0  0  0  0
  2  1  1  0  0  0  0
  3  4  1  0  0  0  0
  4  9  1  0  0  0  0
  4  8  1  0  0  0  0
  5 10  1  6  0  0  0
  5  1  1  0  0  0  0
  5  4  1  0  0  0  0
  6  7  1  0  0  0  0
  6 12  1  0  0  0  0
  6  5  1  0  0  0  0
  7 14  1  0  0  0  0
  7  3  1  0  0  0  0
 11  6  1  0  0  0  0
 13  7  1  0  0  0  0
 15 16  2  0  0  0  0
 15 20  1  0  0  0  0
 16 17  1  0  0  0  0
 17  3  1  0  0  0  0
 17 18  2  0  0  0  0
 19 18  1  0  0  0  0
 19 23  1  0  0  0  0
 20 19  2  0  0  0  0
 21 15  1  0  0  0  0
 22 16  1  0  0  0  0
 24 29  1  0  0  0  0
 25 24  2  0  0  0  0
 25 26  1  0  0  0  0
 26 27  2  0  0  0  0
 27 28  1  0  0  0  0
 27 31  1  0  0  0  0
 28 32  1  0  0  0  0
 29 33  1  0  0  0  0
 29 28  2  0  0  0  0
 30 26  1  0  0  0  0
 33 44  1  0  0  0  0
 34 33  1  0  0  0  0
 34 36  2  0  0  0  0
 35 34  1  0  0  0  0
 36 37  1  0  0  0  0
 37 38  1  0  0  0  0
 38 39  1  0  0  0  0
 38 40  2  0  0  0  0
 41 40  1  0  0  0  0
 41 42  1  0  0  0  0
 43 41  2  0  0  0  0
 44 37  2  0  0  0  0
 44 43  1  0  0  0  0
 45 46  3  0  0  0  0
 46 24  1  0  0  0  0
M  END
>  <minimizedAffinity>
-6.21128082

$$$$

 OpenBabel03242519083D

 46 50  0  0  1  0  0  0  0  0999 V2000
   40.6190   33.5610   38.3330 N   0  0  0  0  0  0  0  0  0  0  0  0
   40.1290   34.1290   37.5970 H   0  0  0  0  0  0  0  0  0  0  0  0
   42.3260   34.8700   41.1640 N   0  0  0  0  0  0  0  0  0  0  0  0
   41.9310   33.7030   40.3950 C   0  0  0  0  0  0  0  0  0  0  0  0
   41.4290   34.3950   39.1620 C   0  0  2  0  0  0  0  0  0  0  0  0
   40.5370   35.4700   39.7440 C   0  0  0  0  0  0  0  0  0  0  0  0
   41.2580   35.8330   41.0220 C   0  0  0  0  0  0  0  0  0  0  0  0
   41.0910   33.1680   40.8860 H   0  0  0  0  0  0  0  0  0  0  0  0
   42.7810   33.0210   40.2080 H   0  0  0  0  0  0  0  0  0  0  0  0
   42.2640   34.8730   38.6120 H   0  0  0  0  0  0  0  0  0  0  0  0
   40.5270   36.3720   39.0670 H   0  0  0  0  0  0  0  0  0  0  0  0
   39.5180   35.0970   39.8930 H   0  0  0  0  0  0  0  0  0  0  0  0
   41.5910   36.8810   41.0410 H   0  0  0  0  0  0  0  0  0  0  0  0
   40.5500   35.6580   41.8660 H   0  0  0  0  0  0  0  0  0  0  0  0
   44.7920   36.2230   43.6200 C   0  0  0  0  0  0  0  0  0  0  0  0
   43.5940   36.0580   42.9240 C   0  0  0  0  0  0  0  0  0  0  0  0
   43.4880   35.1150   41.9250 C   0  0  0  0  0  0  0  0  0  0  0  0
   44.5890   34.3690   41.6580 N   0  0  0  0  0  0  0  0  0  0  0  0
   45.7560   34.5180   42.3250 C   0  0  0  0  0  0  0  0  0  0  0  0
   45.8530   35.4430   43.3010 N   0  0  0  0  0  0  0  0  0  0  0  0
   44.8710   36.9660   44.4040 H   0  0  0  0  0  0  0  0  0  0  0  0
   42.7250   36.6560   43.1440 H   0  0  0  0  0  0  0  0  0  0  0  0
   46.6380   33.9330   42.1240 H   0  0  0  0  0  0  0  0  0  0  0  0
   39.3130   31.5380   39.0110 C   0  0  0  0  0  0  0  0  0  0  0  0
   40.3830   32.1570   38.3440 C   0  0  0  0  0  0  0  0  0  0  0  0
   41.1990   31.2640   37.6900 C   0  0  0  0  0  0  0  0  0  0  0  0
   41.0450   29.9070   37.6490 C   0  0  0  0  0  0  0  0  0  0  0  0
   39.9900   29.3610   38.3130 C   0  0  0  0  0  0  0  0  0  0  0  0
   39.1230   30.1860   38.9970 C   0  0  0  0  0  0  0  0  0  0  0  0
   42.0480   31.6820   37.1530 H   0  0  0  0  0  0  0  0  0  0  0  0
   41.7140   29.2610   37.1210 H   0  0  0  0  0  0  0  0  0  0  0  0
   39.8250   28.2900   38.3110 H   0  0  0  0  0  0  0  0  0  0  0  0
   38.0290   29.5860   39.6820 N   0  0  0  0  0  0  0  0  0  0  0  0
   36.7660   29.4170   39.2490 C   0  0  0  0  0  0  0  0  0  0  0  0
   36.3600   29.7130   38.2900 H   0  0  0  0  0  0  0  0  0  0  0  0
   36.0440   28.8060   40.2090 N   0  0  0  0  0  0  0  0  0  0  0  0
   36.8380   28.5650   41.2920 C   0  0  0  0  0  0  0  0  0  0  0  0
   36.5800   27.9720   42.5120 C   0  0  0  0  0  0  0  0  0  0  0  0
   35.6070   27.5860   42.7780 H   0  0  0  0  0  0  0  0  0  0  0  0
   37.6290   27.9130   43.3380 N   0  0  0  0  0  0  0  0  0  0  0  0
   38.8620   28.3840   43.0440 C   0  0  0  0  0  0  0  0  0  0  0  0
   39.6870   28.3100   43.7590 H   0  0  0  0  0  0  0  0  0  0  0  0
   39.1190   28.9710   41.8390 N   0  0  0  0  0  0  0  0  0  0  0  0
   38.0930   29.0660   40.9420 C   0  0  0  0  0  0  0  0  0  0  0  0
   37.6580   33.1150   40.2920 N   0  0  0  0  0  0  0  0  0  0  0  0
   38.3930   32.4130   39.7360 C   0  0  0  0  0  0  0  0  0  0  0  0
  1 25  1  0  0  0  0
  1  5  1  0  0  0  0
  2  1  1  0  0  0  0
  3 17  1  0  0  0  0
  4  8  1  0  0  0  0
  4  3  1  0  0  0  0
  5 10  1  6  0  0  0
  5  6  1  0  0  0  0
  5  4  1  0  0  0  0
  6 12  1  0  0  0  0
  6  7  1  0  0  0  0
  7 13  1  0  0  0  0
  7  3  1  0  0  0  0
  7 14  1  0  0  0  0
  9  4  1  0  0  0  0
 11  6  1  0  0  0  0
 15 21  1  0  0  0  0
 16 22  1  0  0  0  0
 16 15  2  0  0  0  0
 17 16  1  0  0  0  0
 18 17  2  0  0  0  0
 18 19  1  0  0  0  0
 19 20  2  0  0  0  0
 20 15  1  0  0  0  0
 23 19  1  0  0  0  0
 24 46  1  0  0  0  0
 25 24  2  0  0  0  0
 26 25  1  0  0  0  0
 27 26  2  0  0  0  0
 27 28  1  0  0  0  0
 28 29  2  0  0  0  0
 29 24  1  0  0  0  0
 29 33  1  0  0  0  0
 30 26  1  0  0  0  0
 31 27  1  0  0  0  0
 32 28  1  0  0  0  0
 33 44  1  0  0  0  0
 34 33  1  0  0  0  0
 34 36  2  0  0  0  0
 35 34  1  0  0  0  0
 36 37  1  0  0  0  0
 37 38  1  0  0  0  0
 38 39  1  0  0  0  0
 38 40  2  0  0  0  0
 41 40  1  0  0  0  0
 41 42  1  0  0  0  0
 43 41  2  0  0  0  0
 44 37  2  0  0  0  0
 44 43  1  0  0  0  0
 46 45  3  0  0  0  0
M  END
>  <minimizedAffinity>
-6.16899109

$$$$

 OpenBabel03242519083D

 46 50  0  0  1  0  0  0  0  0999 V2000
   38.0590   31.2380   40.0070 N   0  0  0  0  0  0  0  0  0  0  0  0
   37.4040   31.0030   39.2190 H   0  0  0  0  0  0  0  0  0  0  0  0
   38.0030   28.0200   41.5190 N   0  0  0  0  0  0  0  0  0  0  0  0
   38.4870   28.8670   40.4430 C   0  0  0  0  0  0  0  0  0  0  0  0
   38.0660   30.2000   40.9880 C   0  0  2  0  0  0  0  0  0  0  0  0
   36.6320   29.9390   41.3920 C   0  0  0  0  0  0  0  0  0  0  0  0
   36.6820   28.5000   41.8530 C   0  0  0  0  0  0  0  0  0  0  0  0
   37.9370   28.6650   39.4990 H   0  0  0  0  0  0  0  0  0  0  0  0
   39.5780   28.7700   40.2950 H   0  0  0  0  0  0  0  0  0  0  0  0
   38.6570   30.4600   41.8890 H   0  0  0  0  0  0  0  0  0  0  0  0
   36.3520   30.5900   42.2690 H   0  0  0  0  0  0  0  0  0  0  0  0
   35.9490   30.1180   40.5540 H   0  0  0  0  0  0  0  0  0  0  0  0
   36.4160   28.3840   42.9140 H   0  0  0  0  0  0  0  0  0  0  0  0
   35.9600   27.9230   41.2290 H   0  0  0  0  0  0  0  0  0  0  0  0
   40.0190   25.8940   43.8340 C   0  0  0  0  0  0  0  0  0  0  0  0
   39.4610   27.0350   43.2570 C   0  0  0  0  0  0  0  0  0  0  0  0
   38.6170   26.9310   42.1730 C   0  0  0  0  0  0  0  0  0  0  0  0
   38.3600   25.6840   41.7050 N   0  0  0  0  0  0  0  0  0  0  0  0
   38.8930   24.5700   42.2550 C   0  0  0  0  0  0  0  0  0  0  0  0
   39.7190   24.6790   43.3150 N   0  0  0  0  0  0  0  0  0  0  0  0
   40.6830   25.9810   44.6850 H   0  0  0  0  0  0  0  0  0  0  0  0
   39.6720   28.0220   43.6360 H   0  0  0  0  0  0  0  0  0  0  0  0
   38.6990   23.5740   41.8940 H   0  0  0  0  0  0  0  0  0  0  0  0
   40.0600   32.6180   39.4150 C   0  0  0  0  0  0  0  0  0  0  0  0
   38.7620   32.4750   39.9310 C   0  0  0  0  0  0  0  0  0  0  0  0
   38.2200   33.6610   40.3660 C   0  0  0  0  0  0  0  0  0  0  0  0
   38.8210   34.8870   40.3300 C   0  0  0  0  0  0  0  0  0  0  0  0
   40.0800   34.9690   39.8180 C   0  0  0  0  0  0  0  0  0  0  0  0
   40.6980   33.8250   39.3600 C   0  0  0  0  0  0  0  0  0  0  0  0
   37.2130   33.6160   40.7780 H   0  0  0  0  0  0  0  0  0  0  0  0
   38.3490   35.7790   40.6830 H   0  0  0  0  0  0  0  0  0  0  0  0
   40.6000   35.9180   39.7670 H   0  0  0  0  0  0  0  0  0  0  0  0
   42.0140   33.9410   38.8300 N   0  0  0  0  0  0  0  0  0  0  0  0
   42.3890   34.0270   37.5410 C   0  0  0  0  0  0  0  0  0  0  0  0
   41.7440   34.0220   36.6720 H   0  0  0  0  0  0  0  0  0  0  0  0
   43.7320   34.1220   37.4730 N   0  0  0  0  0  0  0  0  0  0  0  0
   44.2540   34.1000   38.7330 C   0  0  0  0  0  0  0  0  0  0  0  0
   45.5530   34.1680   39.1950 C   0  0  0  0  0  0  0  0  0  0  0  0
   46.4030   34.2570   38.5350 H   0  0  0  0  0  0  0  0  0  0  0  0
   45.6780   34.1150   40.5250 N   0  0  0  0  0  0  0  0  0  0  0  0
   44.6420   34.0030   41.3860 C   0  0  0  0  0  0  0  0  0  0  0  0
   44.8010   33.9630   42.4690 H   0  0  0  0  0  0  0  0  0  0  0  0
   43.3570   33.9350   40.9320 N   0  0  0  0  0  0  0  0  0  0  0  0
   43.1520   33.9840   39.5820 C   0  0  0  0  0  0  0  0  0  0  0  0
   41.2220   30.4330   38.5550 N   0  0  0  0  0  0  0  0  0  0  0  0
   40.7150   31.4060   38.9280 C   0  0  0  0  0  0  0  0  0  0  0  0
  1  5  1  0  0  0  0
  2  1  1  0  0  0  0
  3  7  1  0  0  0  0
  3 17  1  0  0  0  0
  4  5  1  0  0  0  0
  4  3  1  0  0  0  0
  5  6  1  0  0  0  0
  5 10  1  1  0  0  0
  6  7  1  0  0  0  0
  6 11  1  0  0  0  0
  7 13  1  0  0  0  0
  8  4  1  0  0  0  0
  9  4  1  0  0  0  0
 12  6  1  0  0  0  0
 14  7  1  0  0  0  0
 15 21  1  0  0  0  0
 16 22  1  0  0  0  0
 16 15  2  0  0  0  0
 17 16  1  0  0  0  0
 18 17  2  0  0  0  0
 18 19  1  0  0  0  0
 19 20  2  0  0  0  0
 20 15  1  0  0  0  0
 23 19  1  0  0  0  0
 24 25  1  0  0  0  0
 25  1  1  0  0  0  0
 25 26  2  0  0  0  0
 26 30  1  0  0  0  0
 27 26  1  0  0  0  0
 27 31  1  0  0  0  0
 28 27  2  0  0  0  0
 29 24  2  0  0  0  0
 29 28  1  0  0  0  0
 32 28  1  0  0  0  0
 33 29  1  0  0  0  0
 33 44  1  0  0  0  0
 34 33  1  0  0  0  0
 35 34  1  0  0  0  0
 36 34  2  0  0  0  0
 36 37  1  0  0  0  0
 37 38  2  0  0  0  0
 37 44  1  0  0  0  0
 38 40  1  0  0  0  0
 39 38  1  0  0  0  0
 40 41  2  0  0  0  0
 41 42  1  0  0  0  0
 43 41  1  0  0  0  0
 44 43  2  0  0  0  0
 45 46  3  0  0  0  0
 46 24  1  0  0  0  0
M  END
>  <minimizedAffinity>
-6.16581488

$$$$

 OpenBabel03242519083D

 46 50  0  0  1  0  0  0  0  0999 V2000
   40.4320   33.4350   38.7760 N   0  0  0  0  0  0  0  0  0  0  0  0
   40.6700   33.4060   37.7520 H   0  0  0  0  0  0  0  0  0  0  0  0
   42.2940   34.8930   41.4310 N   0  0  0  0  0  0  0  0  0  0  0  0
   41.6900   33.7030   40.8590 C   0  0  0  0  0  0  0  0  0  0  0  0
   41.3730   34.2350   39.4930 C   0  0  2  0  0  0  0  0  0  0  0  0
   40.7040   35.5530   39.8140 C   0  0  0  0  0  0  0  0  0  0  0  0
   41.4490   36.0020   41.0500 C   0  0  0  0  0  0  0  0  0  0  0  0
   40.7440   33.4450   41.3830 H   0  0  0  0  0  0  0  0  0  0  0  0
   42.3860   32.8440   40.8520 H   0  0  0  0  0  0  0  0  0  0  0  0
   42.3020   34.4270   38.9210 H   0  0  0  0  0  0  0  0  0  0  0  0
   40.8970   36.2960   38.9870 H   0  0  0  0  0  0  0  0  0  0  0  0
   39.6270   35.4220   39.9620 H   0  0  0  0  0  0  0  0  0  0  0  0
   41.9890   36.9490   40.9030 H   0  0  0  0  0  0  0  0  0  0  0  0
   40.6980   36.1320   41.8650 H   0  0  0  0  0  0  0  0  0  0  0  0
   44.9740   36.2240   43.6640 C   0  0  0  0  0  0  0  0  0  0  0  0
   43.7930   36.1740   42.9230 C   0  0  0  0  0  0  0  0  0  0  0  0
   43.4610   35.0440   42.2090 C   0  0  0  0  0  0  0  0  0  0  0  0
   44.3270   34.0010   42.2610 N   0  0  0  0  0  0  0  0  0  0  0  0
   45.4740   34.0360   42.9750 C   0  0  0  0  0  0  0  0  0  0  0  0
   45.7930   35.1440   43.6720 N   0  0  0  0  0  0  0  0  0  0  0  0
   45.2320   37.1150   44.2240 H   0  0  0  0  0  0  0  0  0  0  0  0
   43.1110   37.0090   42.8880 H   0  0  0  0  0  0  0  0  0  0  0  0
   46.1710   33.2150   43.0260 H   0  0  0  0  0  0  0  0  0  0  0  0
   39.2360   31.3130   39.3460 C   0  0  0  0  0  0  0  0  0  0  0  0
   39.2840   32.7090   39.2040 C   0  0  0  0  0  0  0  0  0  0  0  0
   38.0960   33.3250   39.5220 C   0  0  0  0  0  0  0  0  0  0  0  0
   36.9510   32.7080   39.9390 C   0  0  0  0  0  0  0  0  0  0  0  0
   36.9610   31.3520   40.0600 C   0  0  0  0  0  0  0  0  0  0  0  0
   38.1120   30.6560   39.7600 C   0  0  0  0  0  0  0  0  0  0  0  0
   38.0690   34.4090   39.4310 H   0  0  0  0  0  0  0  0  0  0  0  0
   36.0540   33.2410   40.1740 H   0  0  0  0  0  0  0  0  0  0  0  0
   36.0780   30.8160   40.3880 H   0  0  0  0  0  0  0  0  0  0  0  0
   38.0930   29.2390   39.8960 N   0  0  0  0  0  0  0  0  0  0  0  0
   37.9090   28.3120   38.9380 C   0  0  0  0  0  0  0  0  0  0  0  0
   37.7420   28.4890   37.8830 H   0  0  0  0  0  0  0  0  0  0  0  0
   37.9630   27.0840   39.4910 N   0  0  0  0  0  0  0  0  0  0  0  0
   38.1860   27.1970   40.8320 C   0  0  0  0  0  0  0  0  0  0  0  0
   38.3200   26.2510   41.8280 C   0  0  0  0  0  0  0  0  0  0  0  0
   38.2570   25.1900   41.6360 H   0  0  0  0  0  0  0  0  0  0  0  0
   38.5340   26.7500   43.0490 N   0  0  0  0  0  0  0  0  0  0  0  0
   38.6190   28.0700   43.3310 C   0  0  0  0  0  0  0  0  0  0  0  0
   38.7960   28.4260   44.3510 H   0  0  0  0  0  0  0  0  0  0  0  0
   38.4860   29.0070   42.3480 N   0  0  0  0  0  0  0  0  0  0  0  0
   38.2650   28.5700   41.0730 C   0  0  0  0  0  0  0  0  0  0  0  0
   41.4330   30.0070   38.7700 N   0  0  0  0  0  0  0  0  0  0  0  0
   40.4570   30.5750   39.0280 C   0  0  0  0  0  0  0  0  0  0  0  0
  1 25  1  0  0  0  0
  1  5  1  0  0  0  0
  2  1  1  0  0  0  0
  3 17  1  0  0  0  0
  4  8  1  0  0  0  0
  4  3  1  0  0  0  0
  5 10  1  6  0  0  0
  5  6  1  0  0  0  0
  5  4  1  0  0  0  0
  6 12  1  0  0  0  0
  6  7  1  0  0  0  0
  7  3  1  0  0  0  0
  7 14  1  0  0  0  0
  9  4  1  0  0  0  0
 11  6  1  0  0  0  0
 13  7  1  0  0  0  0
 15 20  1  0  0  0  0
 15 21  1  0  0  0  0
 16 15  2  0  0  0  0
 17 18  2  0  0  0  0
 17 16  1  0  0  0  0
 18 19  1  0  0  0  0
 19 23  1  0  0  0  0
 19 20  2  0  0  0  0
 22 16  1  0  0  0  0
 24 29  1  0  0  0  0
 25 24  2  0  0  0  0
 25 26  1  0  0  0  0
 26 27  2  0  0  0  0
 27 28  1  0  0  0  0
 27 31  1  0  0  0  0
 28 32  1  0  0  0  0
 29 33  1  0  0  0  0
 29 28  2  0  0  0  0
 30 26  1  0  0  0  0
 33 44  1  0  0  0  0
 34 36  2  0  0  0  0
 34 33  1  0  0  0  0
 35 34  1  0  0  0  0
 36 37  1  0  0  0  0
 37 44  2  0  0  0  0
 37 38  1  0  0  0  0
 38 40  2  0  0  0  0
 39 38  1  0  0  0  0
 40 41  1  0  0  0  0
 41 42  1  0  0  0  0
 43 41  2  0  0  0  0
 44 43  1  0  0  0  0
 45 46  3  0  0  0  0
 46 24  1  0  0  0  0
M  END
>  <minimizedAffinity>
-6.1551609

$$$$

 OpenBabel03242519083D

 46 50  0  0  1  0  0  0  0  0999 V2000
   36.4790   29.2760   40.1130 N   0  0  0  0  0  0  0  0  0  0  0  0
   35.5040   29.4570   39.7630 H   0  0  0  0  0  0  0  0  0  0  0  0
   37.9210   32.5070   39.7540 N   0  0  0  0  0  0  0  0  0  0  0  0
   37.2610   31.5420   40.6150 C   0  0  0  0  0  0  0  0  0  0  0  0
   37.3600   30.3340   39.7310 C   0  0  2  0  0  0  0  0  0  0  0  0
   36.8800   30.8750   38.4020 C   0  0  0  0  0  0  0  0  0  0  0  0
   37.3930   32.2960   38.4260 C   0  0  0  0  0  0  0  0  0  0  0  0
   36.1910   31.8040   40.7620 H   0  0  0  0  0  0  0  0  0  0  0  0
   37.7780   31.4270   41.5860 H   0  0  0  0  0  0  0  0  0  0  0  0
   38.4130   30.0050   39.6310 H   0  0  0  0  0  0  0  0  0  0  0  0
   37.3820   30.3230   37.5560 H   0  0  0  0  0  0  0  0  0  0  0  0
   35.7910   30.7920   38.3140 H   0  0  0  0  0  0  0  0  0  0  0  0
   38.1110   32.5030   37.6180 H   0  0  0  0  0  0  0  0  0  0  0  0
   36.5130   32.9720   38.3160 H   0  0  0  0  0  0  0  0  0  0  0  0
   39.6630   35.7250   40.4960 C   0  0  0  0  0  0  0  0  0  0  0  0
   38.6320   34.8330   40.2000 C   0  0  0  0  0  0  0  0  0  0  0  0
   38.8900   33.4880   40.0530 C   0  0  0  0  0  0  0  0  0  0  0  0
   40.1750   33.0820   40.2070 N   0  0  0  0  0  0  0  0  0  0  0  0
   41.1840   33.9360   40.4940 C   0  0  0  0  0  0  0  0  0  0  0  0
   40.9250   35.2510   40.6370 N   0  0  0  0  0  0  0  0  0  0  0  0
   39.4560   36.7820   40.6110 H   0  0  0  0  0  0  0  0  0  0  0  0
   37.6130   35.1650   40.0800 H   0  0  0  0  0  0  0  0  0  0  0  0
   42.2080   33.6280   40.6190 H   0  0  0  0  0  0  0  0  0  0  0  0
   37.0610   26.8490   40.2820 C   0  0  0  0  0  0  0  0  0  0  0  0
   36.7000   28.0800   40.8530 C   0  0  0  0  0  0  0  0  0  0  0  0
   36.5770   28.0250   42.2220 C   0  0  0  0  0  0  0  0  0  0  0  0
   36.7700   26.9240   43.0080 C   0  0  0  0  0  0  0  0  0  0  0  0
   37.1190   25.7560   42.4010 C   0  0  0  0  0  0  0  0  0  0  0  0
   37.2630   25.7240   41.0310 C   0  0  0  0  0  0  0  0  0  0  0  0
   36.2990   28.9490   42.7250 H   0  0  0  0  0  0  0  0  0  0  0  0
   36.6600   26.9410   44.0710 H   0  0  0  0  0  0  0  0  0  0  0  0
   37.2840   24.8560   42.9800 H   0  0  0  0  0  0  0  0  0  0  0  0
   37.6280   24.4900   40.4240 N   0  0  0  0  0  0  0  0  0  0  0  0
   38.8600   23.9780   40.2510 C   0  0  0  0  0  0  0  0  0  0  0  0
   39.8000   24.4260   40.5480 H   0  0  0  0  0  0  0  0  0  0  0  0
   38.7650   22.7850   39.6320 N   0  0  0  0  0  0  0  0  0  0  0  0
   37.4520   22.5000   39.3920 C   0  0  0  0  0  0  0  0  0  0  0  0
   36.8370   21.4200   38.7930 C   0  0  0  0  0  0  0  0  0  0  0  0
   37.3880   20.5770   38.4020 H   0  0  0  0  0  0  0  0  0  0  0  0
   35.5040   21.4950   38.7370 N   0  0  0  0  0  0  0  0  0  0  0  0
   34.7750   22.5290   39.2150 C   0  0  0  0  0  0  0  0  0  0  0  0
   33.6830   22.5410   39.1420 H   0  0  0  0  0  0  0  0  0  0  0  0
   35.3820   23.5990   39.8060 N   0  0  0  0  0  0  0  0  0  0  0  0
   36.7450   23.5910   39.9000 C   0  0  0  0  0  0  0  0  0  0  0  0
   37.3270   26.8070   37.6760 N   0  0  0  0  0  0  0  0  0  0  0  0
   37.2140   26.8150   38.8290 C   0  0  0  0  0  0  0  0  0  0  0  0
  1 25  1  0  0  0  0
  2  1  1  0  0  0  0
  3 17  1  0  0  0  0
  3  4  1  0  0  0  0
  4  8  1  0  0  0  0
  4  9  1  0  0  0  0
  5 10  1  6  0  0  0
  5  1  1  0  0  0  0
  5  4  1  0  0  0  0
  6  7  1  0  0  0  0
  6  5  1  0  0  0  0
  7  3  1  0  0  0  0
 11  6  1  0  0  0  0
 12  6  1  0  0  0  0
 13  7  1  0  0  0  0
 14  7  1  0  0  0  0
 15 21  1  0  0  0  0
 15 20  1  0  0  0  0
 16 15  2  0  0  0  0
 17 16  1  0  0  0  0
 17 18  2  0  0  0  0
 18 19  1  0  0  0  0
 19 23  1  0  0  0  0
 19 20  2  0  0  0  0
 22 16  1  0  0  0  0
 24 25  2  0  0  0  0
 24 29  1  0  0  0  0
 25 26  1  0  0  0  0
 26 30  1  0  0  0  0
 26 27  2  0  0  0  0
 27 31  1  0  0  0  0
 28 32  1  0  0  0  0
 28 27  1  0  0  0  0
 29 28  2  0  0  0  0
 33 29  1  0  0  0  0
 34 33  1  0  0  0  0
 34 35  1  0  0  0  0
 36 34  2  0  0  0  0
 37 36  1  0  0  0  0
 37 44  1  0  0  0  0
 38 37  2  0  0  0  0
 39 38  1  0  0  0  0
 40 38  1  0  0  0  0
 40 41  2  0  0  0  0
 41 43  1  0  0  0  0
 42 41  1  0  0  0  0
 43 44  2  0  0  0  0
 44 33  1  0  0  0  0
 45 46  3  0  0  0  0
 46 24  1  0  0  0  0
M  END
>  <minimizedAffinity>
-6.09790373

$$$$

 OpenBabel03242519083D

 46 50  0  0  1  0  0  0  0  0999 V2000
   37.8260   32.8580   40.6370 N   0  0  0  0  0  0  0  0  0  0  0  0
   37.5290   32.6160   41.6160 H   0  0  0  0  0  0  0  0  0  0  0  0
   36.9070   30.1300   38.5510 N   0  0  0  0  0  0  0  0  0  0  0  0
   37.3820   30.5840   39.8460 C   0  0  0  0  0  0  0  0  0  0  0  0
   37.1310   32.0550   39.6830 C   0  0  2  0  0  0  0  0  0  0  0  0
   37.7340   32.3300   38.3240 C   0  0  0  0  0  0  0  0  0  0  0  0
   37.4430   31.0500   37.5740 C   0  0  0  0  0  0  0  0  0  0  0  0
   38.4730   30.4070   39.9550 H   0  0  0  0  0  0  0  0  0  0  0  0
   36.8190   30.1260   40.6800 H   0  0  0  0  0  0  0  0  0  0  0  0
   36.0440   32.2660   39.6490 H   0  0  0  0  0  0  0  0  0  0  0  0
   37.1840   33.1760   37.8200 H   0  0  0  0  0  0  0  0  0  0  0  0
   38.8000   32.5680   38.4070 H   0  0  0  0  0  0  0  0  0  0  0  0
   36.7940   31.2060   36.7000 H   0  0  0  0  0  0  0  0  0  0  0  0
   38.4190   30.6310   37.2350 H   0  0  0  0  0  0  0  0  0  0  0  0
   34.1210   27.9770   37.3080 C   0  0  0  0  0  0  0  0  0  0  0  0
   34.8540   29.1260   37.6060 C   0  0  0  0  0  0  0  0  0  0  0  0
   36.0890   29.0320   38.2090 C   0  0  0  0  0  0  0  0  0  0  0  0
   36.5480   27.7870   38.4940 N   0  0  0  0  0  0  0  0  0  0  0  0
   35.8480   26.6660   38.2110 C   0  0  0  0  0  0  0  0  0  0  0  0
   34.6400   26.7640   37.6200 N   0  0  0  0  0  0  0  0  0  0  0  0
   33.1500   28.0550   36.8340 H   0  0  0  0  0  0  0  0  0  0  0  0
   34.4810   30.1110   37.3750 H   0  0  0  0  0  0  0  0  0  0  0  0
   36.1990   25.6720   38.4310 H   0  0  0  0  0  0  0  0  0  0  0  0
   40.1870   33.6840   40.6250 C   0  0  0  0  0  0  0  0  0  0  0  0
   38.8050   33.8820   40.4810 C   0  0  0  0  0  0  0  0  0  0  0  0
   38.4740   35.1790   40.1700 C   0  0  0  0  0  0  0  0  0  0  0  0
   39.3450   36.2180   40.0030 C   0  0  0  0  0  0  0  0  0  0  0  0
   40.6750   35.9710   40.1530 C   0  0  0  0  0  0  0  0  0  0  0  0
   41.0930   34.6950   40.4670 C   0  0  0  0  0  0  0  0  0  0  0  0
   37.4150   35.3970   40.0450 H   0  0  0  0  0  0  0  0  0  0  0  0
   39.0290   37.2110   39.7600 H   0  0  0  0  0  0  0  0  0  0  0  0
   41.4060   36.7610   40.0310 H   0  0  0  0  0  0  0  0  0  0  0  0
   42.4890   34.4660   40.6180 N   0  0  0  0  0  0  0  0  0  0  0  0
   43.2420   34.6050   41.7250 C   0  0  0  0  0  0  0  0  0  0  0  0
   42.9080   34.9210   42.7050 H   0  0  0  0  0  0  0  0  0  0  0  0
   44.5200   34.2870   41.4370 N   0  0  0  0  0  0  0  0  0  0  0  0
   44.6160   33.9310   40.1240 C   0  0  0  0  0  0  0  0  0  0  0  0
   45.6880   33.5290   39.3530 C   0  0  0  0  0  0  0  0  0  0  0  0
   46.6900   33.4380   39.7490 H   0  0  0  0  0  0  0  0  0  0  0  0
   45.3920   33.2590   38.0790 N   0  0  0  0  0  0  0  0  0  0  0  0
   44.1540   33.3590   37.5440 C   0  0  0  0  0  0  0  0  0  0  0  0
   43.9650   33.1250   36.4910 H   0  0  0  0  0  0  0  0  0  0  0  0
   43.0920   33.7570   38.3040 N   0  0  0  0  0  0  0  0  0  0  0  0
   43.3200   34.0510   39.6180 C   0  0  0  0  0  0  0  0  0  0  0  0
   40.9670   31.2520   41.2070 N   0  0  0  0  0  0  0  0  0  0  0  0
   40.6310   32.3320   40.9570 C   0  0  0  0  0  0  0  0  0  0  0  0
  1  2  1  0  0  0  0
  3  4  1  0  0  0  0
  4  8  1  0  0  0  0
  4  9  1  0  0  0  0
  5 10  1  1  0  0  0
  5  4  1  0  0  0  0
  5  1  1  0  0  0  0
  6 12  1  0  0  0  0
  6  5  1  0  0  0  0
  7  6  1  0  0  0  0
  7  3  1  0  0  0  0
 11  6  1  0  0  0  0
 13  7  1  0  0  0  0
 14  7  1  0  0  0  0
 15 16  2  0  0  0  0
 15 20  1  0  0  0  0
 16 17  1  0  0  0  0
 17 18  2  0  0  0  0
 17  3  1  0  0  0  0
 19 23  1  0  0  0  0
 19 18  1  0  0  0  0
 20 19  2  0  0  0  0
 21 15  1  0  0  0  0
 22 16  1  0  0  0  0
 24 46  1  0  0  0  0
 25 24  1  0  0  0  0
 25  1  1  0  0  0  0
 26 25  2  0  0  0  0
 27 28  2  0  0  0  0
 27 26  1  0  0  0  0
 28 29  1  0  0  0  0
 29 33  1  0  0  0  0
 29 24  2  0  0  0  0
 30 26  1  0  0  0  0
 31 27  1  0  0  0  0
 32 28  1  0  0  0  0
 33 34  1  0  0  0  0
 34 35  1  0  0  0  0
 36 34  2  0  0  0  0
 37 36  1  0  0  0  0
 38 39  1  0  0  0  0
 38 37  2  0  0  0  0
 40 38  1  0  0  0  0
 41 40  2  0  0  0  0
 41 43  1  0  0  0  0
 42 41  1  0  0  0  0
 43 44  2  0  0  0  0
 44 37  1  0  0  0  0
 44 33  1  0  0  0  0
 46 45  3  0  0  0  0
M  END
>  <minimizedAffinity>
-6.09357071

$$$$
