
 OpenBabel03252500143D

 41 45  0  0  0  0  0  0  0  0999 V2000
   45.5670   32.4760   40.3410 Cl  0  0  0  0  0  0  0  0  0  0  0  0
   46.8780   33.5920   40.0810 C   0  0  0  0  0  0  0  0  0  0  0  0
   47.4160   34.2900   41.1340 C   0  0  0  0  0  0  0  0  0  0  0  0
   48.4660   35.1900   40.9620 C   0  0  0  0  0  0  0  0  0  0  0  0
   48.9300   35.3390   39.6720 C   0  0  0  0  0  0  0  0  0  0  0  0
   48.3890   34.6380   38.6100 C   0  0  0  0  0  0  0  0  0  0  0  0
   47.3860   33.7810   38.8020 C   0  0  0  0  0  0  0  0  0  0  0  0
   48.8680   35.7260   41.8110 H   0  0  0  0  0  0  0  0  0  0  0  0
   49.7400   36.0320   39.5290 H   0  0  0  0  0  0  0  0  0  0  0  0
   48.7720   34.7720   37.6090 H   0  0  0  0  0  0  0  0  0  0  0  0
   46.7720   32.8200   44.4520 C   0  0  0  0  0  0  0  0  0  0  0  0
   45.8550   33.7340   45.0140 C   0  0  0  0  0  0  0  0  0  0  0  0
   45.4730   34.8360   44.2500 C   0  0  0  0  0  0  0  0  0  0  0  0
   46.0030   34.9790   42.9970 N   0  0  0  0  0  0  0  0  0  0  0  0
   46.8780   34.0890   42.4850 C   0  0  0  0  0  0  0  0  0  0  0  0
   47.2530   33.0200   43.2170 N   0  0  0  0  0  0  0  0  0  0  0  0
   47.0410   31.9790   45.0760 H   0  0  0  0  0  0  0  0  0  0  0  0
   45.4420   33.6160   45.9990 H   0  0  0  0  0  0  0  0  0  0  0  0
   44.5110   35.8700   44.7400 C   0  0  0  0  0  0  0  0  0  0  0  0
   44.9890   37.1240   44.5150 F   0  0  0  0  0  0  0  0  0  0  0  0
   43.3200   35.7090   44.0600 F   0  0  0  0  0  0  0  0  0  0  0  0
   44.3170   35.6220   46.0760 F   0  0  0  0  0  0  0  0  0  0  0  0
   46.7890   33.0240   37.7140 C   0  0  0  0  0  0  0  0  0  0  0  0
   45.6010   33.3740   37.0570 C   0  0  0  0  0  0  0  0  0  0  0  0
   45.3210   32.4430   36.0810 C   0  0  0  0  0  0  0  0  0  0  0  0
   46.3690   31.5570   36.1920 C   0  0  0  0  0  0  0  0  0  0  0  0
   47.2050   31.9190   37.1470 O   0  0  0  0  0  0  0  0  0  0  0  0
   44.9560   34.2470   37.2530 H   0  0  0  0  0  0  0  0  0  0  0  0
   44.5090   32.3690   35.3770 H   0  0  0  0  0  0  0  0  0  0  0  0
   46.5700   30.3840   35.4020 N   0  0  0  0  0  0  0  0  0  0  0  0
   47.7170   29.6810   35.3400 C   0  0  0  0  0  0  0  0  0  0  0  0
   48.6640   29.8390   35.8350 H   0  0  0  0  0  0  0  0  0  0  0  0
   47.5360   28.6310   34.4870 N   0  0  0  0  0  0  0  0  0  0  0  0
   46.2770   28.6670   34.0080 C   0  0  0  0  0  0  0  0  0  0  0  0
   45.4650   27.9500   33.1510 C   0  0  0  0  0  0  0  0  0  0  0  0
   45.9250   27.0740   32.6850 H   0  0  0  0  0  0  0  0  0  0  0  0
   44.1870   28.3150   32.9110 N   0  0  0  0  0  0  0  0  0  0  0  0
   43.6440   29.3970   33.4970 C   0  0  0  0  0  0  0  0  0  0  0  0
   42.6310   29.7280   33.3370 H   0  0  0  0  0  0  0  0  0  0  0  0
   44.4060   30.1260   34.3440 N   0  0  0  0  0  0  0  0  0  0  0  0
   45.6810   29.7740   34.5930 C   0  0  0  0  0  0  0  0  0  0  0  0
  2  1  1  0  0  0  0
  2  3  1  0  0  0  0
  3 15  1  0  0  0  0
  4  3  2  0  0  0  0
  4  8  1  0  0  0  0
  5  4  1  0  0  0  0
  6  7  1  0  0  0  0
  6  5  2  0  0  0  0
  7  2  2  0  0  0  0
  9  5  1  0  0  0  0
 10  6  1  0  0  0  0
 11 12  1  0  0  0  0
 11 17  1  0  0  0  0
 12 18  1  0  0  0  0
 13 19  1  0  0  0  0
 13 12  2  0  0  0  0
 14 13  1  0  0  0  0
 15 14  2  0  0  0  0
 15 16  1  0  0  0  0
 16 11  2  0  0  0  0
 19 22  1  0  0  0  0
 20 19  1  0  0  0  0
 21 19  1  0  0  0  0
 23  7  1  0  0  0  0
 24 28  1  0  0  0  0
 24 23  2  0  0  0  0
 25 26  2  0  0  0  0
 25 24  1  0  0  0  0
 26 27  1  0  0  0  0
 27 23  1  0  0  0  0
 29 25  1  0  0  0  0
 30 26  1  0  0  0  0
 31 30  1  0  0  0  0
 31 32  1  0  0  0  0
 33 31  2  0  0  0  0
 34 33  1  0  0  0  0
 34 41  1  0  0  0  0
 35 34  2  0  0  0  0
 36 35  1  0  0  0  0
 37 35  1  0  0  0  0
 37 38  2  0  0  0  0
 38 40  1  0  0  0  0
 39 38  1  0  0  0  0
 40 41  2  0  0  0  0
 41 30  1  0  0  0  0
M  END
>  <minimizedAffinity>
-6.19126987

>  <minimizedRMSD>
0.641911864

$$$$
