
 OpenBabel03242515423D

 41 45  0  0  0  0  0  0  0  0999 V2000
   43.6690   34.7310   41.1900 C   0  0  0  0  0  0  0  0  0  0  0  0
   43.6710   33.8380   40.1780 C   0  0  0  0  0  0  0  0  0  0  0  0
   44.9360   33.3240   39.8010 C   0  0  0  0  0  0  0  0  0  0  0  0
   46.0540   33.7370   40.4440 N   0  0  0  0  0  0  0  0  0  0  0  0
   45.9970   34.6320   41.4450 C   0  0  0  0  0  0  0  0  0  0  0  0
   44.8110   35.0820   41.7680 N   0  0  0  0  0  0  0  0  0  0  0  0
   42.7230   33.2900   39.3170 N   0  0  0  0  0  0  0  0  0  0  0  0
   42.1800   34.2070   38.4600 C   0  0  0  0  0  0  0  0  0  0  0  0
   42.2320   35.2750   38.2180 H   0  0  0  0  0  0  0  0  0  0  0  0
   41.2830   33.5870   37.6380 N   0  0  0  0  0  0  0  0  0  0  0  0
   41.2360   32.2830   37.9510 C   0  0  0  0  0  0  0  0  0  0  0  0
   40.6150   31.0810   37.5990 C   0  0  0  0  0  0  0  0  0  0  0  0
   39.8990   31.1970   36.7720 H   0  0  0  0  0  0  0  0  0  0  0  0
   40.8760   29.9280   38.2100 N   0  0  0  0  0  0  0  0  0  0  0  0
   41.7600   29.8420   39.2140 C   0  0  0  0  0  0  0  0  0  0  0  0
   41.9660   28.9050   39.7050 H   0  0  0  0  0  0  0  0  0  0  0  0
   42.4050   30.9810   39.6120 N   0  0  0  0  0  0  0  0  0  0  0  0
   42.1320   32.1430   38.9830 C   0  0  0  0  0  0  0  0  0  0  0  0
   45.0760   32.3560   38.7560 N   0  0  0  0  0  0  0  0  0  0  0  0
   45.6890   31.5310   38.8820 H   0  0  0  0  0  0  0  0  0  0  0  0
   44.5630   32.4550   37.8310 H   0  0  0  0  0  0  0  0  0  0  0  0
   42.0350   35.3520   41.6530 S   0  0  0  0  0  0  0  0  0  0  0  0
   39.7240   34.4540   40.6780 C   0  0  0  0  0  0  0  0  0  0  0  0
   40.8090   34.0730   41.4800 C   0  0  0  0  0  0  0  0  0  0  0  0
   40.8800   32.8080   42.0330 C   0  0  0  0  0  0  0  0  0  0  0  0
   39.8840   31.8880   41.8070 C   0  0  0  0  0  0  0  0  0  0  0  0
   38.8040   32.2520   41.0140 C   0  0  0  0  0  0  0  0  0  0  0  0
   38.7020   33.5140   40.4450 C   0  0  0  0  0  0  0  0  0  0  0  0
   37.9320   31.1410   40.9390 O   0  0  0  0  0  0  0  0  0  0  0  0
   38.3410   30.2520   41.9220 C   0  0  0  0  0  0  0  0  0  0  0  0
   39.6850   30.5770   42.2130 O   0  0  0  0  0  0  0  0  0  0  0  0
   39.6070   35.4170   40.2220 H   0  0  0  0  0  0  0  0  0  0  0  0
   41.7480   32.5940   42.6400 H   0  0  0  0  0  0  0  0  0  0  0  0
   37.8670   33.8110   39.8260 H   0  0  0  0  0  0  0  0  0  0  0  0
   37.6900   30.4070   42.8070 H   0  0  0  0  0  0  0  0  0  0  0  0
   38.2760   29.2030   41.5630 H   0  0  0  0  0  0  0  0  0  0  0  0
   47.0710   35.1150   42.1530 O   0  0  0  0  0  0  0  0  0  0  0  0
   48.3330   35.1080   41.5250 C   0  0  0  0  0  0  0  0  0  0  0  0
   49.0540   33.9850   41.7990 F   0  0  0  0  0  0  0  0  0  0  0  0
   48.0920   35.2630   40.1500 F   0  0  0  0  0  0  0  0  0  0  0  0
   49.0390   36.2110   42.0090 F   0  0  0  0  0  0  0  0  0  0  0  0
  1 22  1  0  0  0  0
  1  6  1  0  0  0  0
  2  1  2  0  0  0  0
  3  2  1  0  0  0  0
  3  4  2  0  0  0  0
  4  5  1  0  0  0  0
  5  6  2  0  0  0  0
  5 37  1  0  0  0  0
  7  2  1  0  0  0  0
  8  7  1  0  0  0  0
  9  8  1  0  0  0  0
 10 11  1  0  0  0  0
 10  8  2  0  0  0  0
 11 18  1  0  0  0  0
 12 11  2  0  0  0  0
 12 14  1  0  0  0  0
 13 12  1  0  0  0  0
 14 15  2  0  0  0  0
 15 17  1  0  0  0  0
 15 16  1  0  0  0  0
 18  7  1  0  0  0  0
 18 17  2  0  0  0  0
 19 20  1  0  0  0  0
 19  3  1  0  0  0  0
 21 19  1  0  0  0  0
 23 24  1  0  0  0  0
 24 22  1  0  0  0  0
 24 25  2  0  0  0  0
 25 33  1  0  0  0  0
 26 25  1  0  0  0  0
 26 31  1  0  0  0  0
 27 26  2  0  0  0  0
 28 23  2  0  0  0  0
 28 27  1  0  0  0  0
 29 27  1  0  0  0  0
 29 30  1  0  0  0  0
 30 31  1  0  0  0  0
 30 35  1  0  0  0  0
 32 23  1  0  0  0  0
 34 28  1  0  0  0  0
 36 30  1  0  0  0  0
 38 39  1  0  0  0  0
 38 41  1  0  0  0  0
 38 37  1  0  0  0  0
 40 38  1  0  0  0  0
M  END
>  <minimizedAffinity>
-5.76052046

>  <minimizedRMSD>
0.512950897

$$$$
