
 OpenBabel03242515383D

 39 43  0  0  0  0  0  0  0  0999 V2000
   43.8400   34.6910   40.8860 C   0  0  0  0  0  0  0  0  0  0  0  0
   43.7600   33.9520   39.7160 C   0  0  0  0  0  0  0  0  0  0  0  0
   44.9540   33.3800   39.2370 C   0  0  0  0  0  0  0  0  0  0  0  0
   46.1020   33.5850   39.9440 N   0  0  0  0  0  0  0  0  0  0  0  0
   46.1290   34.3070   41.0690 C   0  0  0  0  0  0  0  0  0  0  0  0
   44.9960   34.8420   41.5100 N   0  0  0  0  0  0  0  0  0  0  0  0
   42.8300   33.8020   39.1690 H   0  0  0  0  0  0  0  0  0  0  0  0
   44.8800   32.6240   38.0440 N   0  0  0  0  0  0  0  0  0  0  0  0
   43.7620   31.9330   37.7050 C   0  0  0  0  0  0  0  0  0  0  0  0
   42.8310   31.8780   38.2810 H   0  0  0  0  0  0  0  0  0  0  0  0
   43.9400   31.2880   36.5160 N   0  0  0  0  0  0  0  0  0  0  0  0
   45.1720   31.5610   36.0850 C   0  0  0  0  0  0  0  0  0  0  0  0
   45.9210   31.2050   34.9630 C   0  0  0  0  0  0  0  0  0  0  0  0
   45.4880   30.5590   34.2080 H   0  0  0  0  0  0  0  0  0  0  0  0
   47.1730   31.7000   34.8820 N   0  0  0  0  0  0  0  0  0  0  0  0
   47.7250   32.5030   35.8100 C   0  0  0  0  0  0  0  0  0  0  0  0
   48.7500   32.8180   35.5960 H   0  0  0  0  0  0  0  0  0  0  0  0
   47.0100   32.8640   36.9160 N   0  0  0  0  0  0  0  0  0  0  0  0
   45.7390   32.3840   37.0350 C   0  0  0  0  0  0  0  0  0  0  0  0
   42.2780   35.4090   41.4640 S   0  0  0  0  0  0  0  0  0  0  0  0
   39.9230   34.8240   40.2970 C   0  0  0  0  0  0  0  0  0  0  0  0
   40.9170   34.2930   41.1110 C   0  0  0  0  0  0  0  0  0  0  0  0
   40.8200   33.0140   41.5820 C   0  0  0  0  0  0  0  0  0  0  0  0
   39.7430   32.2050   41.2710 C   0  0  0  0  0  0  0  0  0  0  0  0
   38.7390   32.7420   40.4480 C   0  0  0  0  0  0  0  0  0  0  0  0
   38.8190   34.0360   39.9600 C   0  0  0  0  0  0  0  0  0  0  0  0
   37.7700   31.7260   40.2880 O   0  0  0  0  0  0  0  0  0  0  0  0
   38.0160   30.7780   41.2800 C   0  0  0  0  0  0  0  0  0  0  0  0
   39.3970   30.8940   41.6060 O   0  0  0  0  0  0  0  0  0  0  0  0
   39.9090   35.8200   39.8760 H   0  0  0  0  0  0  0  0  0  0  0  0
   41.6240   32.6450   42.2160 H   0  0  0  0  0  0  0  0  0  0  0  0
   38.0240   34.4130   39.3290 H   0  0  0  0  0  0  0  0  0  0  0  0
   37.4300   30.9330   42.2030 H   0  0  0  0  0  0  0  0  0  0  0  0
   37.8160   29.7400   40.9340 H   0  0  0  0  0  0  0  0  0  0  0  0
   47.2500   34.5410   41.8090 O   0  0  0  0  0  0  0  0  0  0  0  0
   48.4270   34.9690   41.1750 C   0  0  0  0  0  0  0  0  0  0  0  0
   49.4660   34.1030   41.3640 F   0  0  0  0  0  0  0  0  0  0  0  0
   48.0850   35.1330   39.8310 F   0  0  0  0  0  0  0  0  0  0  0  0
   48.7760   36.1990   41.7380 F   0  0  0  0  0  0  0  0  0  0  0  0
  1 20  1  0  0  0  0
  1  6  1  0  0  0  0
  2  1  2  0  0  0  0
  3  2  1  0  0  0  0
  3  4  2  0  0  0  0
  4  5  1  0  0  0  0
  5  6  2  0  0  0  0
  5 35  1  0  0  0  0
  7  2  1  0  0  0  0
  8  3  1  0  0  0  0
  9  8  1  0  0  0  0
  9 10  1  0  0  0  0
 11  9  2  0  0  0  0
 12 11  1  0  0  0  0
 12 19  1  0  0  0  0
 13 12  2  0  0  0  0
 14 13  1  0  0  0  0
 15 13  1  0  0  0  0
 15 16  2  0  0  0  0
 16 18  1  0  0  0  0
 17 16  1  0  0  0  0
 18 19  2  0  0  0  0
 19  8  1  0  0  0  0
 21 22  1  0  0  0  0
 22 20  1  0  0  0  0
 22 23  2  0  0  0  0
 23 31  1  0  0  0  0
 24 23  1  0  0  0  0
 24 29  1  0  0  0  0
 25 24  2  0  0  0  0
 26 21  2  0  0  0  0
 26 25  1  0  0  0  0
 27 25  1  0  0  0  0
 27 28  1  0  0  0  0
 28 29  1  0  0  0  0
 28 33  1  0  0  0  0
 30 21  1  0  0  0  0
 32 26  1  0  0  0  0
 34 28  1  0  0  0  0
 36 37  1  0  0  0  0
 36 39  1  0  0  0  0
 36 35  1  0  0  0  0
 38 36  1  0  0  0  0
M  END
>  <minimizedAffinity>
-6.72449636

>  <minimizedRMSD>
0.605421126

$$$$
