
     RDKit          3D

 43 47  0  0  0  0  0  0  0  0999 V2000
   47.7050   31.0042   46.0125 C   0  0  0  0  0  0  0  0  0  0  0  0
   46.9783   32.0701   45.5376 C   0  0  0  0  0  0  0  0  0  0  0  0
   45.9759   32.5866   46.3326 C   0  0  0  0  0  0  0  0  0  0  0  0
   45.6804   32.0747   47.5768 C   0  0  0  0  0  0  0  0  0  0  0  0
   44.8075   32.3207   48.5789 N   0  0  0  0  0  0  0  0  0  0  0  0
   44.9919   31.4583   49.5995 C   0  0  0  0  0  0  0  0  0  0  0  0
   46.0008   30.6574   49.2266 N   0  0  0  0  0  0  0  0  0  0  0  0
   46.4369   31.0063   48.0086 C   0  0  0  0  0  0  0  0  0  0  0  0
   47.4436   30.4572   47.2564 C   0  0  0  0  0  0  0  0  0  0  0  0
   47.1853   34.4147   42.7315 C   0  0  0  0  0  0  0  0  0  0  0  0
   47.8143   33.6613   41.7460 C   0  0  0  0  0  0  0  0  0  0  0  0
   48.1543   32.3519   42.0771 C   0  0  0  0  0  0  0  0  0  0  0  0
   47.8692   31.8709   43.3110 N   0  0  0  0  0  0  0  0  0  0  0  0
   47.2611   32.6410   44.2238 C   0  0  0  0  0  0  0  0  0  0  0  0
   46.9143   33.9059   43.9539 N   0  0  0  0  0  0  0  0  0  0  0  0
   48.0723   34.3056   40.4294 C   0  0  0  0  0  0  0  0  0  0  0  0
   48.5751   35.5539   40.7400 F   0  0  0  0  0  0  0  0  0  0  0  0
   46.8904   34.4333   39.7758 F   0  0  0  0  0  0  0  0  0  0  0  0
   48.9839   33.5124   39.7298 F   0  0  0  0  0  0  0  0  0  0  0  0
   48.1643   29.3831   47.7535 O   0  0  0  0  0  0  0  0  0  0  0  0
   49.7782   28.0737   49.3038 O   0  0  0  0  0  0  0  0  0  0  0  0
   49.4450   29.5064   48.8456 P   0  0  2  0  0  0  0  0  0  0  0  0
   48.9140   30.3655   50.1956 O   0  0  0  0  0  0  0  0  0  0  0  0
   50.8269   30.1820   48.1798 O   0  0  0  0  0  0  0  0  0  0  0  0
   48.4940   30.5882   45.4012 H   0  0  0  0  0  0  0  0  0  0  0  0
   45.3650   33.4277   46.0167 H   0  0  0  0  0  0  0  0  0  0  0  0
   44.1100   33.0835   48.5187 H   0  0  0  0  0  0  0  0  0  0  0  0
   44.4429   31.4076   50.5421 H   0  0  0  0  0  0  0  0  0  0  0  0
   46.8870   35.4469   42.5527 H   0  0  0  0  0  0  0  0  0  0  0  0
   48.6440   31.7687   41.3067 H   0  0  0  0  0  0  0  0  0  0  0  0
   48.7946   29.8179   51.0039 H   0  0  0  0  0  0  0  0  0  0  0  0
   50.6849   27.4492   47.3901 H   0  0  0  0  0  0  0  0  0  0  0  0
   51.4736   28.0357   47.0748 N   0  0  0  0  0  0  0  0  0  0  0  0
   51.6333   29.3362   47.3917 C   0  0  0  0  0  0  0  0  0  0  0  0
   52.7882   29.7252   46.7786 N   0  0  0  0  0  0  0  0  0  0  0  0
   53.3254   28.6811   46.0986 C   0  0  0  0  0  0  0  0  0  0  0  0
   54.4862   28.6686   45.3524 C   0  0  0  0  0  0  0  0  0  0  0  0
   55.0900   29.5761   45.2586 H   0  0  0  0  0  0  0  0  0  0  0  0
   54.7898   27.4961   44.7805 N   0  0  0  0  0  0  0  0  0  0  0  0
   53.9821   26.4082   44.9465 C   0  0  0  0  0  0  0  0  0  0  0  0
   54.3244   25.5169   44.4405 H   0  0  0  0  0  0  0  0  0  0  0  0
   52.8607   26.4913   45.6902 N   0  0  0  0  0  0  0  0  0  0  0  0
   52.4825   27.6288   46.2987 C   0  0  0  0  0  0  0  0  0  0  0  0
  1  9  2  0
  2  1  1  0
  2  3  2  0
  3  4  1  0
  4  8  2  0
  4  5  1  0
  5  6  1  0
  7  6  2  0
  8  7  1  0
  9 20  1  0
  9  8  1  0
 10 15  2  0
 11 12  2  0
 11 10  1  0
 12 13  1  0
 13 14  2  0
 14  2  1  0
 15 14  1  0
 16 17  1  0
 16 11  1  0
 18 16  1  0
 19 16  1  0
 22 20  1  6
 22 21  2  0
 22 23  1  0
 24 22  1  0
  1 25  1  0
  3 26  1  0
  5 27  1  0
  6 28  1  0
 10 29  1  0
 12 30  1  0
 23 31  1  0
 32 33  1  0
 33 34  1  0
 34 35  2  0
 35 36  1  0
 36 37  2  0
 37 38  1  0
 37 39  1  0
 39 40  2  0
 40 41  1  0
 40 42  1  0
 42 43  2  0
 43 33  1  0
 43 36  1  0
 24 34  1  0
M  ISO  8  25  14  26  14  27   9  28  14  29  14  30  14  31   3  32   9
M  ISO  2  38  16  41  16
M  END
>  <DihAtoms>  (1) 
21,23,33,32

>  <DihDeg>  (1) 
-179.99997619606535

$$$$
