
 OpenBabel03252508073D

 47 51  0  0  0  0  0  0  0  0999 V2000
   45.3790   35.8780   42.6940 C   0  0  0  0  0  0  0  0  0  0  0  0
   45.5900   34.5090   42.7510 C   0  0  0  0  0  0  0  0  0  0  0  0
   45.3220   33.8220   43.9100 C   0  0  0  0  0  0  0  0  0  0  0  0
   44.8440   34.5570   44.9770 N   0  0  0  0  0  0  0  0  0  0  0  0
   44.6440   35.8710   44.9150 C   0  0  0  0  0  0  0  0  0  0  0  0
   44.9170   36.5210   43.7640 N   0  0  0  0  0  0  0  0  0  0  0  0
   45.5640   36.4830   41.8290 H   0  0  0  0  0  0  0  0  0  0  0  0
   44.2660   36.3910   45.7910 H   0  0  0  0  0  0  0  0  0  0  0  0
   45.4830   32.4330   44.1300 C   0  0  0  0  0  0  0  0  0  0  0  0
   45.0050   31.4440   43.2670 C   0  0  0  0  0  0  0  0  0  0  0  0
   45.0990   30.0990   43.5110 C   0  0  0  0  0  0  0  0  0  0  0  0
   45.6980   29.6570   44.6700 C   0  0  0  0  0  0  0  0  0  0  0  0
   46.1930   30.6470   45.5620 C   0  0  0  0  0  0  0  0  0  0  0  0
   46.7890   30.2190   46.7190 C   0  0  0  0  0  0  0  0  0  0  0  0
   47.2930   31.1290   47.6270 C   0  0  0  0  0  0  0  0  0  0  0  0
   47.1920   32.5040   47.3550 C   0  0  0  0  0  0  0  0  0  0  0  0
   46.5700   32.8930   46.1530 C   0  0  0  0  0  0  0  0  0  0  0  0
   46.0770   31.9680   45.2740 C   0  0  0  0  0  0  0  0  0  0  0  0
   44.5320   31.8030   42.3530 H   0  0  0  0  0  0  0  0  0  0  0  0
   44.6910   29.4260   42.7650 H   0  0  0  0  0  0  0  0  0  0  0  0
   45.7750   28.6120   44.8700 H   0  0  0  0  0  0  0  0  0  0  0  0
   46.8600   29.1540   46.9140 H   0  0  0  0  0  0  0  0  0  0  0  0
   47.7410   30.7190   48.5070 H   0  0  0  0  0  0  0  0  0  0  0  0
   47.6120   33.1240   48.1150 H   0  0  0  0  0  0  0  0  0  0  0  0
   46.6110   33.9610   46.1180 H   0  0  0  0  0  0  0  0  0  0  0  0
   46.0620   33.9000   41.6220 O   0  0  0  0  0  0  0  0  0  0  0  0
   48.0590   32.3550   40.9220 O   0  0  0  0  0  0  0  0  0  0  0  0
   47.7000   33.7710   41.2140 P   0  0  1  0  0  0  0  0  0  0  0  0
   48.0490   34.6620   39.8170 O   0  0  0  0  0  0  0  0  0  0  0  0
   49.8790   34.1630   37.7150 H   0  0  0  0  0  0  0  0  0  0  0  0
   48.8760   33.8610   37.6490 N   0  0  0  0  0  0  0  0  0  0  0  0
   47.9210   34.0420   38.5810 C   0  0  0  0  0  0  0  0  0  0  0  0
   46.7840   33.5070   38.0980 N   0  0  0  0  0  0  0  0  0  0  0  0
   46.9910   32.9850   36.8770 C   0  0  0  0  0  0  0  0  0  0  0  0
   46.1380   32.3500   36.0220 C   0  0  0  0  0  0  0  0  0  0  0  0
   45.0910   32.1620   36.2240 H   0  0  0  0  0  0  0  0  0  0  0  0
   46.6550   31.9270   34.8350 N   0  0  0  0  0  0  0  0  0  0  0  0
   47.9630   32.1500   34.5570 C   0  0  0  0  0  0  0  0  0  0  0  0
   48.4090   31.8280   33.6220 H   0  0  0  0  0  0  0  0  0  0  0  0
   48.8070   32.7770   35.3980 N   0  0  0  0  0  0  0  0  0  0  0  0
   48.3230   33.2110   36.5930 C   0  0  0  0  0  0  0  0  0  0  0  0
   48.6100   34.3780   42.4830 O   0  0  0  0  0  0  0  0  0  0  0  0
   49.7730   35.1270   42.3880 C   0  0  0  0  0  0  0  0  0  0  0  0
   49.3900   36.2590   42.0420 O   0  0  0  0  0  0  0  0  0  0  0  0
   50.9270   34.3280   42.7150 N   0  0  0  0  0  0  0  0  0  0  0  0
   51.0010   33.9720   43.7050 H   0  0  0  0  0  0  0  0  0  0  0  0
   51.6950   34.0770   42.0360 H   0  0  0  0  0  0  0  0  0  0  0  0
  1  2  2  0  0  0  0
  1  6  1  0  0  0  0
  2  3  1  0  0  0  0
  3  9  1  0  0  0  0
  3  4  2  0  0  0  0
  5  4  1  0  0  0  0
  5  8  1  0  0  0  0
  6  5  2  0  0  0  0
  7  1  1  0  0  0  0
  9 18  1  0  0  0  0
 10 11  1  0  0  0  0
 10  9  2  0  0  0  0
 11 12  2  0  0  0  0
 12 21  1  0  0  0  0
 12 13  1  0  0  0  0
 13 14  1  0  0  0  0
 14 22  1  0  0  0  0
 14 15  2  0  0  0  0
 15 23  1  0  0  0  0
 16 15  1  0  0  0  0
 16 24  1  0  0  0  0
 17 16  2  0  0  0  0
 18 13  2  0  0  0  0
 18 17  1  0  0  0  0
 19 10  1  0  0  0  0
 20 11  1  0  0  0  0
 25 17  1  0  0  0  0
 26  2  1  0  0  0  0
 28 27  2  6  0  0  0
 28 26  1  0  0  0  0
 28 42  1  0  0  0  0
 29 28  1  0  0  0  0
 31 30  1  0  0  0  0
 31 32  1  0  0  0  0
 32 29  1  0  0  0  0
 33 32  2  0  0  0  0
 34 33  1  0  0  0  0
 35 36  1  0  0  0  0
 35 34  2  0  0  0  0
 37 35  1  0  0  0  0
 38 37  2  0  0  0  0
 38 40  1  0  0  0  0
 39 38  1  0  0  0  0
 40 41  2  0  0  0  0
 41 34  1  0  0  0  0
 41 31  1  0  0  0  0
 43 42  1  0  0  0  0
 43 45  1  0  0  0  0
 44 43  2  0  0  0  0
 45 46  1  0  0  0  0
 47 45  1  0  0  0  0
M  END
>  <minimizedAffinity>
-6.74938965

>  <minimizedRMSD>
0.730116963

$$$$
