
     RDKit          3D

 38 41  0  0  0  0  0  0  0  0999 V2000
   48.1489   33.5106   42.5675 C   0  0  1  0  0  0  0  0  0  0  0  0
   46.6795   33.7220   42.2892 C   0  0  2  0  0  0  0  0  0  0  0  0
   46.4763   34.6287   41.2674 O   0  0  0  0  0  0  0  0  0  0  0  0
   46.8774   33.9948   40.1017 C   0  0  0  0  0  0  0  0  0  0  0  0
   48.3817   33.9350   40.0976 C   0  0  2  0  0  0  0  0  0  0  0  0
   48.9857   33.3839   41.3433 C   0  0  2  0  0  0  0  0  0  0  0  0
   44.5832   35.8089   44.6615 C   0  0  0  0  0  0  0  0  0  0  0  0
   45.2171   35.3872   43.4828 C   0  0  0  0  0  0  0  0  0  0  0  0
   45.9872   34.1895   43.5023 C   0  0  0  0  0  0  0  0  0  0  0  0
   46.0661   33.5167   44.6702 N   0  0  0  0  0  0  0  0  0  0  0  0
   45.4436   33.9473   45.7946 C   0  0  0  0  0  0  0  0  0  0  0  0
   44.7035   35.0909   45.7907 N   0  0  0  0  0  0  0  0  0  0  0  0
   48.6529   34.4505   43.4737 O   0  0  0  0  0  0  0  0  0  0  0  0
   48.8161   35.2440   39.8483 O   0  0  0  0  0  0  0  0  0  0  0  0
   49.4618   32.0650   41.1863 O   0  0  0  0  0  0  0  0  0  0  0  0
   48.1910   32.5376   43.1359 H   0  0  0  0  0  0  0  0  0  0  0  0
   46.2475   32.7436   42.0015 H   0  0  0  0  0  0  0  0  0  0  0  0
   46.5812   34.6621   39.2558 H   0  0  0  0  0  0  0  0  0  0  0  0
   46.3870   33.0183   39.9456 H   0  0  0  0  0  0  0  0  0  0  0  0
   48.6967   33.3169   39.2233 H   0  0  0  0  0  0  0  0  0  0  0  0
   49.9221   33.9827   41.5318 H   0  0  0  0  0  0  0  0  0  0  0  0
   44.0326   36.7283   44.5125 H   0  0  0  0  0  0  0  0  0  0  0  0
   45.1599   35.9179   42.5457 H   0  0  0  0  0  0  0  0  0  0  0  0
   45.5380   33.3721   46.7061 H   0  0  0  0  0  0  0  0  0  0  0  0
   49.2149   34.0464   44.1744 H   0  0  0  0  0  0  0  0  0  0  0  0
   49.2273   35.6165   40.6777 H   0  0  0  0  0  0  0  0  0  0  0  0
   51.3192   31.2634   43.1915 H   0  0  0  0  0  0  0  0  0  0  0  0
   51.6869   31.3507   42.2195 N   0  0  0  0  0  0  0  0  0  0  0  0
   50.8050   31.7308   41.2709 C   0  0  0  0  0  0  0  0  0  0  0  0
   51.4652   31.7886   40.0768 N   0  0  0  0  0  0  0  0  0  0  0  0
   52.7381   31.4558   40.2463 C   0  0  0  0  0  0  0  0  0  0  0  0
   53.9058   31.3102   39.5138 C   0  0  0  0  0  0  0  0  0  0  0  0
   53.8249   31.5214   38.4458 H   0  0  0  0  0  0  0  0  0  0  0  0
   55.0741   30.9352   40.0563 N   0  0  0  0  0  0  0  0  0  0  0  0
   55.1304   30.6824   41.3884 C   0  0  0  0  0  0  0  0  0  0  0  0
   56.0934   30.3887   41.7495 H   0  0  0  0  0  0  0  0  0  0  0  0
   54.0127   30.8107   42.1515 N   0  0  0  0  0  0  0  0  0  0  0  0
   52.8531   31.1869   41.5909 C   0  0  0  0  0  0  0  0  0  0  0  0
  1 13  1  0
  2  1  1  0
  2  9  1  0
  3  2  1  0
  4  3  1  0
  5 14  1  0
  5  4  1  0
  5  6  1  0
  6 15  1  0
  6  1  1  0
  7 12  2  0
  8  9  2  0
  8  7  1  0
  9 10  1  0
 10 11  2  0
 12 11  1  0
  1 16  1  1
  2 17  1  6
  4 18  1  0
  4 19  1  0
  5 20  1  6
  6 21  1  1
  7 22  1  0
  8 23  1  0
 11 24  1  0
 13 25  1  0
 14 26  1  0
 27 28  1  0
 28 29  1  0
 29 30  2  0
 30 31  1  0
 31 32  2  0
 32 33  1  0
 32 34  1  0
 34 35  2  0
 35 36  1  0
 35 37  1  0
 37 38  2  0
 38 28  1  0
 38 31  1  0
 15 29  1  0
M  ISO  8  16  13  17  13  18  13  19  13  20  13  21  13  22  14  23  14
M  ISO  6  24  14  25   3  26   3  27   9  33  16  36  16
M  END
>  <DihAtoms>  (1) 
5,14,28,27

>  <DihDeg>  (1) 
-0.0035766470030754627

$$$$
