REMARK  Name = 
REMARK  3 active torsions:
REMARK  status: ('A' for Active; 'I' for Inactive)
REMARK    1  A    between atoms: C_2  and  N_12
REMARK    2  A    between atoms: C_11  and  S_13
REMARK    3  A    between atoms: S_13  and  C_16
REMARK                            x       y       z     vdW  Elec       q    Type
REMARK                         _______ _______ _______ _____ _____    ______ ____
ROOT
ATOM      1  S   UNL     1      46.618  30.076  46.641  0.00  0.00    +0.000 S 
ENDROOT
BRANCH   1   4
ATOM      2  O   UNL     1      45.617  30.510  43.488  0.00  0.00    +0.000 OA
ATOM      3  C   UNL     1      44.983  29.986  44.416  0.00  0.00    +0.000 C 
ATOM      4  C   UNL     1      45.073  29.784  45.883  0.00  0.00    +0.000 C 
ATOM      5  C   UNL     1      44.530  28.386  46.044  0.00  0.00    +0.000 C 
ATOM      6  C   UNL     1      43.222  28.585  45.273  0.00  0.00    +0.000 C 
ATOM      7  N   UNL     1      43.739  29.323  44.127  0.00  0.00    +0.000 N 
ATOM      8  H   UNL     1      44.190  30.400  46.208  0.00  0.00    +0.000 HD
ATOM      9  H   UNL     1      44.269  28.140  47.077  0.00  0.00    +0.000 HD
ATOM     10  H   UNL     1      45.155  27.623  45.551  0.00  0.00    +0.000 HD
ATOM     11  H   UNL     1      42.791  27.638  44.951  0.00  0.00    +0.000 HD
ATOM     12  H   UNL     1      42.540  29.207  45.884  0.00  0.00    +0.000 HD
ATOM     13  H   UNL     1      44.566  29.516  41.438  0.00  0.00    +0.000 HD
ATOM     14  N   UNL     1      43.543  29.415  41.669  0.00  0.00    +0.000 N 
ATOM     15  C   UNL     1      42.987  29.311  42.894  0.00  0.00    +0.000 A 
ATOM     16  N   UNL     1      41.651  29.199  42.713  0.00  0.00    +0.000 NA
ATOM     17  C   UNL     1      41.362  29.232  41.403  0.00  0.00    +0.000 A 
ATOM     18  C   UNL     1      40.197  29.160  40.665  0.00  0.00    +0.000 A 
ATOM     19  H   UNL     1      39.265  29.052  41.212  0.00  0.00    +0.000 HD
ATOM     20  N   UNL     1      40.212  29.221  39.316  0.00  0.00    +0.000 NA
ATOM     21  C   UNL     1      41.400  29.356  38.670  0.00  0.00    +0.000 A 
ATOM     22  H   UNL     1      41.416  29.405  37.581  0.00  0.00    +0.000 HD
ATOM     23  N   UNL     1      42.543  29.427  39.377  0.00  0.00    +0.000 NA
ATOM     24  C   UNL     1      42.559  29.368  40.727  0.00  0.00    +0.000 A 
ENDBRANCH   1   4
BRANCH   1  35
ATOM     25  C   UNL     1      44.498  35.535  45.127  0.00  0.00    +0.000 A 
ATOM     26  C   UNL     1      45.164  35.508  43.878  0.00  0.00    +0.000 A 
ATOM     27  C   UNL     1      46.089  34.541  43.639  0.00  0.00    +0.000 A 
ATOM     28  N   UNL     1      46.314  33.650  44.634  0.00  0.00    +0.000 NA
ATOM     29  C   UNL     1      45.688  33.680  45.801  0.00  0.00    +0.000 A 
ATOM     30  N   UNL     1      44.776  34.616  46.063  0.00  0.00    +0.000 NA
ATOM     31  N   UNL     1      46.014  32.681  46.784  0.00  0.00    +0.000 N 
ATOM     32  C   UNL     1      45.267  32.451  47.967  0.00  0.00    +0.000 C 
ATOM     33  C   UNL     1      46.335  32.119  48.993  0.00  0.00    +0.000 C 
ATOM     34  C   UNL     1      47.622  32.003  48.232  0.00  0.00    +0.000 C 
ATOM     35  C   UNL     1      47.132  31.770  46.805  0.00  0.00    +0.000 C 
ATOM     36  H   UNL     1      43.764  36.312  45.301  0.00  0.00    +0.000 HD
ATOM     37  H   UNL     1      46.601  34.504  42.706  0.00  0.00    +0.000 HD
ATOM     38  H   UNL     1      44.892  33.468  48.308  0.00  0.00    +0.000 HD
ATOM     39  H   UNL     1      44.461  31.800  48.066  0.00  0.00    +0.000 HD
ATOM     40  H   UNL     1      46.097  31.119  49.456  0.00  0.00    +0.000 HD
ATOM     41  H   UNL     1      46.397  32.812  49.831  0.00  0.00    +0.000 HD
ATOM     42  H   UNL     1      48.237  32.898  48.344  0.00  0.00    +0.000 HD
ATOM     43  H   UNL     1      48.172  31.087  48.575  0.00  0.00    +0.000 HD
ATOM     44  H   UNL     1      47.953  32.075  46.136  0.00  0.00    +0.000 HD
BRANCH  26  45
ATOM     45  N   UNL     1      44.813  36.525  42.926  0.00  0.00    +0.000 N 
ATOM     46  H   UNL     1      45.647  36.883  42.384  0.00  0.00    +0.000 HD
ATOM     47  H   UNL     1      43.867  36.907  42.743  0.00  0.00    +0.000 HD
ENDBRANCH  26  45
ENDBRANCH   1  35
TORSDOF 3
