
 OpenBabel03252506383D

 47 51  0  0  1  0  0  0  0  0999 V2000
   46.7380   29.9740   46.5120 S   0  0  0  0  0  0  0  0  0  0  0  0
   45.3150   30.5770   43.5550 O   0  0  0  0  0  0  0  0  0  0  0  0
   44.8230   29.9740   44.5210 C   0  0  0  0  0  0  0  0  0  0  0  0
   45.1130   29.6820   45.9460 C   0  0  1  0  0  0  0  0  0  0  0  0
   44.6290   28.2600   46.0830 C   0  0  0  0  0  0  0  0  0  0  0  0
   43.2250   28.4660   45.5060 C   0  0  0  0  0  0  0  0  0  0  0  0
   43.5670   29.2920   44.3550 N   0  0  0  0  0  0  0  0  0  0  0  0
   44.2670   30.2470   46.4260 H   0  0  0  0  0  0  0  0  0  0  0  0
   44.5140   27.9400   47.1220 H   0  0  0  0  0  0  0  0  0  0  0  0
   45.2000   27.5500   45.4610 H   0  0  0  0  0  0  0  0  0  0  0  0
   42.7770   27.5280   45.1800 H   0  0  0  0  0  0  0  0  0  0  0  0
   42.6170   29.0250   46.2420 H   0  0  0  0  0  0  0  0  0  0  0  0
   43.3880   31.0620   42.1670 H   0  0  0  0  0  0  0  0  0  0  0  0
   42.7070   30.2630   42.2550 N   0  0  0  0  0  0  0  0  0  0  0  0
   42.6580   29.3350   43.2340 C   0  0  0  0  0  0  0  0  0  0  0  0
   41.6280   28.5070   42.9420 N   0  0  0  0  0  0  0  0  0  0  0  0
   41.0340   28.9000   41.8040 C   0  0  0  0  0  0  0  0  0  0  0  0
   39.9660   28.4380   41.0580 C   0  0  0  0  0  0  0  0  0  0  0  0
   39.4450   27.5590   41.4230 H   0  0  0  0  0  0  0  0  0  0  0  0
   39.5850   29.0540   39.9190 N   0  0  0  0  0  0  0  0  0  0  0  0
   40.2650   30.1510   39.4950 C   0  0  0  0  0  0  0  0  0  0  0  0
   39.9590   30.6520   38.5760 H   0  0  0  0  0  0  0  0  0  0  0  0
   41.3070   30.6110   40.2130 N   0  0  0  0  0  0  0  0  0  0  0  0
   41.7130   30.0170   41.3570 C   0  0  0  0  0  0  0  0  0  0  0  0
   44.5320   35.4470   45.1820 C   0  0  0  0  0  0  0  0  0  0  0  0
   45.1950   35.4710   43.9320 C   0  0  0  0  0  0  0  0  0  0  0  0
   46.1340   34.5270   43.6590 C   0  0  0  0  0  0  0  0  0  0  0  0
   46.3750   33.6070   44.6240 N   0  0  0  0  0  0  0  0  0  0  0  0
   45.7510   33.5890   45.7930 C   0  0  0  0  0  0  0  0  0  0  0  0
   44.8260   34.5020   46.0870 N   0  0  0  0  0  0  0  0  0  0  0  0
   46.0950   32.5640   46.7420 N   0  0  0  0  0  0  0  0  0  0  0  0
   45.3540   32.2840   47.9180 C   0  0  0  0  0  0  0  0  0  0  0  0
   46.4300   31.9340   48.9300 C   0  0  0  0  0  0  0  0  0  0  0  0
   47.7170   31.8630   48.1630 C   0  0  0  0  0  0  0  0  0  0  0  0
   47.2270   31.6700   46.7310 C   0  0  1  0  0  0  0  0  0  0  0  0
   43.7860   36.2060   45.3830 H   0  0  0  0  0  0  0  0  0  0  0  0
   46.6440   34.5280   42.7240 H   0  0  0  0  0  0  0  0  0  0  0  0
   44.9650   33.2830   48.2930 H   0  0  0  0  0  0  0  0  0  0  0  0
   44.5590   31.6170   47.9970 H   0  0  0  0  0  0  0  0  0  0  0  0
   46.2080   30.9160   49.3610 H   0  0  0  0  0  0  0  0  0  0  0  0
   46.4830   32.6010   49.7900 H   0  0  0  0  0  0  0  0  0  0  0  0
   48.3180   32.7630   48.3040 H   0  0  0  0  0  0  0  0  0  0  0  0
   48.2810   30.9450   48.4750 H   0  0  0  0  0  0  0  0  0  0  0  0
   48.0410   32.0090   46.0700 H   0  0  0  0  0  0  0  0  0  0  0  0
   44.8260   36.5130   43.0140 N   0  0  0  0  0  0  0  0  0  0  0  0
   45.6530   36.9010   42.4820 H   0  0  0  0  0  0  0  0  0  0  0  0
   43.8740   36.8860   42.8460 H   0  0  0  0  0  0  0  0  0  0  0  0
  1 35  1  0  0  0  0
  2  3  2  0  0  0  0
  3  4  1  0  0  0  0
  4  5  1  0  0  0  0
  4  8  1  1  0  0  0
  4  1  1  0  0  0  0
  5  9  1  0  0  0  0
  6  5  1  0  0  0  0
  6 12  1  0  0  0  0
  7  3  1  0  0  0  0
  7  6  1  0  0  0  0
 10  5  1  0  0  0  0
 11  6  1  0  0  0  0
 13 14  1  0  0  0  0
 14 15  1  0  0  0  0
 15  7  1  0  0  0  0
 16 15  2  0  0  0  0
 17 16  1  0  0  0  0
 18 19  1  0  0  0  0
 18 17  2  0  0  0  0
 20 18  1  0  0  0  0
 21 20  2  0  0  0  0
 21 23  1  0  0  0  0
 22 21  1  0  0  0  0
 23 24  2  0  0  0  0
 24 17  1  0  0  0  0
 24 14  1  0  0  0  0
 25 36  1  0  0  0  0
 25 30  1  0  0  0  0
 26 25  2  0  0  0  0
 27 26  1  0  0  0  0
 27 28  2  0  0  0  0
 28 29  1  0  0  0  0
 29 30  2  0  0  0  0
 29 31  1  0  0  0  0
 31 32  1  0  0  0  0
 32 39  1  0  0  0  0
 32 38  1  0  0  0  0
 32 33  1  0  0  0  0
 33 40  1  0  0  0  0
 33 41  1  0  0  0  0
 34 42  1  0  0  0  0
 34 43  1  0  0  0  0
 34 33  1  0  0  0  0
 35 44  1  6  0  0  0
 35 31  1  0  0  0  0
 35 34  1  0  0  0  0
 37 27  1  0  0  0  0
 45 26  1  0  0  0  0
 46 45  1  0  0  0  0
 47 45  1  0  0  0  0
M  END
>  <minimizedAffinity>
-5.8534956

>  <minimizedRMSD>
0.493323863

$$$$
