
 OpenBabel03242521293D

 38 41  0  0  1  0  0  0  0  0999 V2000
   37.3460   29.8090   41.8170 C   0  0  1  0  0  0  0  0  0  0  0  0
   37.8950   28.6430   41.0280 C   0  0  2  0  0  0  0  0  0  0  0  0
   36.8920   27.9370   40.3930 O   0  0  0  0  0  0  0  0  0  0  0  0
   36.4320   28.7520   39.3720 C   0  0  0  0  0  0  0  0  0  0  0  0
   35.6160   29.8570   39.9900 C   0  0  2  0  0  0  0  0  0  0  0  0
   36.2900   30.5800   41.1040 C   0  0  2  0  0  0  0  0  0  0  0  0
   38.2350   30.4820   41.9810 H   0  0  0  0  0  0  0  0  0  0  0  0
   38.5930   29.0490   40.2720 H   0  0  0  0  0  0  0  0  0  0  0  0
   35.7260   28.1360   38.7630 H   0  0  0  0  0  0  0  0  0  0  0  0
   37.2340   29.1060   38.7000 H   0  0  0  0  0  0  0  0  0  0  0  0
   35.3500   30.5800   39.1810 H   0  0  0  0  0  0  0  0  0  0  0  0
   35.4890   30.8050   41.8650 H   0  0  0  0  0  0  0  0  0  0  0  0
   39.0910   25.5100   42.7960 C   0  0  0  0  0  0  0  0  0  0  0  0
   38.3610   26.3420   41.9340 C   0  0  0  0  0  0  0  0  0  0  0  0
   38.6490   27.7350   41.9090 C   0  0  0  0  0  0  0  0  0  0  0  0
   39.6240   28.1860   42.7280 N   0  0  0  0  0  0  0  0  0  0  0  0
   40.3140   27.3610   43.5520 C   0  0  0  0  0  0  0  0  0  0  0  0
   40.0490   26.0240   43.5860 N   0  0  0  0  0  0  0  0  0  0  0  0
   38.7760   24.4780   42.7200 H   0  0  0  0  0  0  0  0  0  0  0  0
   37.5810   25.9910   41.2780 H   0  0  0  0  0  0  0  0  0  0  0  0
   41.0860   27.7710   44.1890 H   0  0  0  0  0  0  0  0  0  0  0  0
   36.9640   29.4360   43.1110 O   0  0  0  0  0  0  0  0  0  0  0  0
   37.2760   30.0660   43.8000 H   0  0  0  0  0  0  0  0  0  0  0  0
   34.4190   29.2600   40.4090 O   0  0  0  0  0  0  0  0  0  0  0  0
   34.4030   29.2260   41.4070 H   0  0  0  0  0  0  0  0  0  0  0  0
   36.7580   31.8570   40.7280 O   0  0  0  0  0  0  0  0  0  0  0  0
   37.8470   30.7640   38.3330 H   0  0  0  0  0  0  0  0  0  0  0  0
   38.3890   31.5310   38.7880 N   0  0  0  0  0  0  0  0  0  0  0  0
   37.8710   32.0460   39.9220 C   0  0  0  0  0  0  0  0  0  0  0  0
   38.7120   33.0270   40.3650 N   0  0  0  0  0  0  0  0  0  0  0  0
   39.7460   33.1430   39.5410 C   0  0  0  0  0  0  0  0  0  0  0  0
   40.9050   33.8870   39.3880 C   0  0  0  0  0  0  0  0  0  0  0  0
   41.0910   34.6380   40.1580 H   0  0  0  0  0  0  0  0  0  0  0  0
   41.7610   33.7160   38.3690 N   0  0  0  0  0  0  0  0  0  0  0  0
   41.4920   32.7710   37.4350 C   0  0  0  0  0  0  0  0  0  0  0  0
   42.2170   32.6910   36.6530 H   0  0  0  0  0  0  0  0  0  0  0  0
   40.3670   32.0140   37.5390 N   0  0  0  0  0  0  0  0  0  0  0  0
   39.5220   32.2000   38.5650 C   0  0  0  0  0  0  0  0  0  0  0  0
  1  7  1  1  0  0  0
  1 22  1  0  0  0  0
  2  8  1  6  0  0  0
  2  1  1  0  0  0  0
  2 15  1  0  0  0  0
  3  2  1  0  0  0  0
  4  5  1  0  0  0  0
  4  3  1  0  0  0  0
  5 11  1  6  0  0  0
  5 24  1  0  0  0  0
  5  6  1  0  0  0  0
  6  1  1  0  0  0  0
  6 12  1  1  0  0  0
  9  4  1  0  0  0  0
 10  4  1  0  0  0  0
 13 18  1  0  0  0  0
 14 13  2  0  0  0  0
 15 14  1  0  0  0  0
 15 16  2  0  0  0  0
 16 17  1  0  0  0  0
 17 18  2  0  0  0  0
 17 21  1  0  0  0  0
 19 13  1  0  0  0  0
 20 14  1  0  0  0  0
 22 23  1  0  0  0  0
 24 25  1  0  0  0  0
 26  6  1  0  0  0  0
 27 28  1  0  0  0  0
 28 29  1  0  0  0  0
 29 30  2  0  0  0  0
 29 26  1  0  0  0  0
 31 30  1  0  0  0  0
 32 31  1  0  0  0  0
 32 33  1  0  0  0  0
 34 32  2  0  0  0  0
 35 37  2  0  0  0  0
 35 34  1  0  0  0  0
 36 35  1  0  0  0  0
 37 38  1  0  0  0  0
 38 28  1  0  0  0  0
 38 31  2  0  0  0  0
M  END
>  <minimizedAffinity>
-6.32628441

$$$$

 OpenBabel03242521293D

 38 41  0  0  1  0  0  0  0  0999 V2000
   38.6730   31.8170   38.0310 C   0  0  1  0  0  0  0  0  0  0  0  0
   39.8180   32.2000   38.9400 C   0  0  2  0  0  0  0  0  0  0  0  0
   39.6610   33.4730   39.4530 O   0  0  0  0  0  0  0  0  0  0  0  0
   38.6170   33.3980   40.3610 C   0  0  0  0  0  0  0  0  0  0  0  0
   37.3320   33.2730   39.5850 C   0  0  2  0  0  0  0  0  0  0  0  0
   37.3320   32.2020   38.5510 C   0  0  2  0  0  0  0  0  0  0  0  0
   38.7270   30.6920   37.9690 H   0  0  0  0  0  0  0  0  0  0  0  0
   39.8450   31.4700   39.7710 H   0  0  0  0  0  0  0  0  0  0  0  0
   38.5790   34.3820   40.8880 H   0  0  0  0  0  0  0  0  0  0  0  0
   38.7590   32.6140   41.1260 H   0  0  0  0  0  0  0  0  0  0  0  0
   36.5080   33.0890   40.3160 H   0  0  0  0  0  0  0  0  0  0  0  0
   36.7540   32.6110   37.6730 H   0  0  0  0  0  0  0  0  0  0  0  0
   43.2170   33.1010   37.5240 C   0  0  0  0  0  0  0  0  0  0  0  0
   42.0130   33.2090   38.2360 C   0  0  0  0  0  0  0  0  0  0  0  0
   41.0980   32.1190   38.2170 C   0  0  0  0  0  0  0  0  0  0  0  0
   41.4450   31.0250   37.5050 N   0  0  0  0  0  0  0  0  0  0  0  0
   42.6150   30.9460   36.8250 C   0  0  0  0  0  0  0  0  0  0  0  0
   43.5000   31.9820   36.8350 N   0  0  0  0  0  0  0  0  0  0  0  0
   43.8200   33.9930   37.6190 H   0  0  0  0  0  0  0  0  0  0  0  0
   41.7280   34.0780   38.8070 H   0  0  0  0  0  0  0  0  0  0  0  0
   42.8460   30.0480   36.2690 H   0  0  0  0  0  0  0  0  0  0  0  0
   38.8840   32.2360   36.7130 O   0  0  0  0  0  0  0  0  0  0  0  0
   38.6780   31.5380   36.0500 H   0  0  0  0  0  0  0  0  0  0  0  0
   37.1010   34.5360   39.0230 O   0  0  0  0  0  0  0  0  0  0  0  0
   37.2410   34.4850   38.0360 H   0  0  0  0  0  0  0  0  0  0  0  0
   36.5890   31.0650   38.9360 O   0  0  0  0  0  0  0  0  0  0  0  0
   36.2950   31.2650   41.7630 H   0  0  0  0  0  0  0  0  0  0  0  0
   36.7540   30.4020   41.3980 N   0  0  0  0  0  0  0  0  0  0  0  0
   36.8920   30.3100   40.0590 C   0  0  0  0  0  0  0  0  0  0  0  0
   37.5080   29.1240   39.7760 N   0  0  0  0  0  0  0  0  0  0  0  0
   37.7620   28.4660   40.9000 C   0  0  0  0  0  0  0  0  0  0  0  0
   38.3300   27.2780   41.3320 C   0  0  0  0  0  0  0  0  0  0  0  0
   38.7130   26.6240   40.5470 H   0  0  0  0  0  0  0  0  0  0  0  0
   38.4160   26.9300   42.6250 N   0  0  0  0  0  0  0  0  0  0  0  0
   37.9270   27.7730   43.5680 C   0  0  0  0  0  0  0  0  0  0  0  0
   38.0300   27.4290   44.5760 H   0  0  0  0  0  0  0  0  0  0  0  0
   37.3600   28.9510   43.1970 N   0  0  0  0  0  0  0  0  0  0  0  0
   37.2820   29.2830   41.8990 C   0  0  0  0  0  0  0  0  0  0  0  0
  1  7  1  6  0  0  0
  1  6  1  0  0  0  0
  1  2  1  0  0  0  0
  2  3  1  0  0  0  0
  2  8  1  1  0  0  0
  3  4  1  0  0  0  0
  4  9  1  0  0  0  0
  4 10  1  0  0  0  0
  5 11  1  1  0  0  0
  5  4  1  0  0  0  0
  6 12  1  6  0  0  0
  6 26  1  0  0  0  0
  6  5  1  0  0  0  0
 13 19  1  0  0  0  0
 13 14  1  0  0  0  0
 14 20  1  0  0  0  0
 15 14  2  0  0  0  0
 15  2  1  0  0  0  0
 16 15  1  0  0  0  0
 17 18  1  0  0  0  0
 17 16  2  0  0  0  0
 18 13  2  0  0  0  0
 21 17  1  0  0  0  0
 22  1  1  0  0  0  0
 23 22  1  0  0  0  0
 24  5  1  0  0  0  0
 25 24  1  0  0  0  0
 26 29  1  0  0  0  0
 28 27  1  0  0  0  0
 28 38  1  0  0  0  0
 29 28  1  0  0  0  0
 30 29  2  0  0  0  0
 30 31  1  0  0  0  0
 31 32  2  0  0  0  0
 31 38  1  0  0  0  0
 32 34  1  0  0  0  0
 33 32  1  0  0  0  0
 34 35  2  0  0  0  0
 35 36  1  0  0  0  0
 37 35  1  0  0  0  0
 38 37  2  0  0  0  0
M  END
>  <minimizedAffinity>
-6.26495934

$$$$

 OpenBabel03242521293D

 38 41  0  0  1  0  0  0  0  0999 V2000
   35.8240   29.4640   40.2380 C   0  0  1  0  0  0  0  0  0  0  0  0
   36.5120   29.4160   38.8940 C   0  0  2  0  0  0  0  0  0  0  0  0
   36.8730   30.6760   38.4570 O   0  0  0  0  0  0  0  0  0  0  0  0
   37.9170   31.0840   39.2730 C   0  0  0  0  0  0  0  0  0  0  0  0
   37.3450   31.4330   40.6220 C   0  0  2  0  0  0  0  0  0  0  0  0
   36.4670   30.3860   41.2150 C   0  0  2  0  0  0  0  0  0  0  0  0
   35.9010   28.4100   40.6320 H   0  0  0  0  0  0  0  0  0  0  0  0
   37.4200   28.7920   39.0030 H   0  0  0  0  0  0  0  0  0  0  0  0
   38.3120   32.0340   38.8380 H   0  0  0  0  0  0  0  0  0  0  0  0
   38.7500   30.3600   39.3110 H   0  0  0  0  0  0  0  0  0  0  0  0
   38.1980   31.6410   41.3120 H   0  0  0  0  0  0  0  0  0  0  0  0
   35.6300   30.9330   41.7360 H   0  0  0  0  0  0  0  0  0  0  0  0
   34.6080   28.7510   35.6840 C   0  0  0  0  0  0  0  0  0  0  0  0
   35.4580   29.3740   36.6090 C   0  0  0  0  0  0  0  0  0  0  0  0
   35.6390   28.7840   37.8910 C   0  0  0  0  0  0  0  0  0  0  0  0
   34.9720   27.6390   38.1500 N   0  0  0  0  0  0  0  0  0  0  0  0
   34.1550   27.0560   37.2390 C   0  0  0  0  0  0  0  0  0  0  0  0
   33.9730   27.6110   36.0070 N   0  0  0  0  0  0  0  0  0  0  0  0
   34.5580   29.2980   34.7530 H   0  0  0  0  0  0  0  0  0  0  0  0
   35.9950   30.2890   36.4110 H   0  0  0  0  0  0  0  0  0  0  0  0
   33.6430   26.1390   37.4950 H   0  0  0  0  0  0  0  0  0  0  0  0
   34.4470   29.6770   40.1170 O   0  0  0  0  0  0  0  0  0  0  0  0
   33.9140   29.0790   40.6890 H   0  0  0  0  0  0  0  0  0  0  0  0
   36.6600   32.6430   40.4460 O   0  0  0  0  0  0  0  0  0  0  0  0
   35.6780   32.4760   40.5120 H   0  0  0  0  0  0  0  0  0  0  0  0
   37.0930   29.6680   42.2560 O   0  0  0  0  0  0  0  0  0  0  0  0
   35.7960   27.2230   42.9290 H   0  0  0  0  0  0  0  0  0  0  0  0
   36.7460   27.1490   42.5030 N   0  0  0  0  0  0  0  0  0  0  0  0
   37.3580   28.3090   42.1850 C   0  0  0  0  0  0  0  0  0  0  0  0
   38.5760   28.0120   41.6440 N   0  0  0  0  0  0  0  0  0  0  0  0
   38.7490   26.6960   41.6130 C   0  0  0  0  0  0  0  0  0  0  0  0
   39.6880   25.7560   41.2200 C   0  0  0  0  0  0  0  0  0  0  0  0
   40.6080   26.1570   40.7910 H   0  0  0  0  0  0  0  0  0  0  0  0
   39.5060   24.4340   41.3500 N   0  0  0  0  0  0  0  0  0  0  0  0
   38.3480   23.9780   41.8900 C   0  0  0  0  0  0  0  0  0  0  0  0
   38.2730   22.9140   41.9610 H   0  0  0  0  0  0  0  0  0  0  0  0
   37.3930   24.8590   42.2900 N   0  0  0  0  0  0  0  0  0  0  0  0
   37.5940   26.1790   42.1530 C   0  0  0  0  0  0  0  0  0  0  0  0
  1  7  1  1  0  0  0
  1  6  1  0  0  0  0
  2  8  1  1  0  0  0
  2  1  1  0  0  0  0
  3  2  1  0  0  0  0
  3  4  1  0  0  0  0
  4 10  1  0  0  0  0
  4  5  1  0  0  0  0
  5  6  1  0  0  0  0
  5 11  1  1  0  0  0
  6 12  1  1  0  0  0
  6 26  1  0  0  0  0
  9  4  1  0  0  0  0
 13 18  2  0  0  0  0
 13 14  1  0  0  0  0
 14 15  2  0  0  0  0
 15 16  1  0  0  0  0
 15  2  1  0  0  0  0
 17 21  1  0  0  0  0
 17 16  2  0  0  0  0
 18 17  1  0  0  0  0
 19 13  1  0  0  0  0
 20 14  1  0  0  0  0
 22  1  1  0  0  0  0
 22 23  1  0  0  0  0
 24 25  1  0  0  0  0
 24  5  1  0  0  0  0
 28 27  1  0  0  0  0
 29 26  1  0  0  0  0
 29 28  1  0  0  0  0
 30 29  2  0  0  0  0
 31 30  1  0  0  0  0
 31 38  1  0  0  0  0
 32 34  1  0  0  0  0
 32 31  2  0  0  0  0
 33 32  1  0  0  0  0
 34 35  2  0  0  0  0
 35 36  1  0  0  0  0
 35 37  1  0  0  0  0
 38 37  2  0  0  0  0
 38 28  1  0  0  0  0
M  END
>  <minimizedAffinity>
-5.74692202

$$$$

 OpenBabel03242521293D

 38 41  0  0  1  0  0  0  0  0999 V2000
   39.3910   30.8730   40.0460 C   0  0  1  0  0  0  0  0  0  0  0  0
   38.1110   30.1930   40.4730 C   0  0  2  0  0  0  0  0  0  0  0  0
   37.2060   31.0900   41.0070 O   0  0  0  0  0  0  0  0  0  0  0  0
   36.7550   31.8610   39.9480 C   0  0  0  0  0  0  0  0  0  0  0  0
   37.8580   32.8090   39.5570 C   0  0  2  0  0  0  0  0  0  0  0  0
   39.1820   32.1640   39.3340 C   0  0  2  0  0  0  0  0  0  0  0  0
   39.8740   30.1430   39.3350 H   0  0  0  0  0  0  0  0  0  0  0  0
   37.6690   29.7170   39.5770 H   0  0  0  0  0  0  0  0  0  0  0  0
   35.9180   32.4880   40.3420 H   0  0  0  0  0  0  0  0  0  0  0  0
   36.3580   31.2620   39.1100 H   0  0  0  0  0  0  0  0  0  0  0  0
   37.5390   33.3410   38.6290 H   0  0  0  0  0  0  0  0  0  0  0  0
   39.9540   32.8800   39.7380 H   0  0  0  0  0  0  0  0  0  0  0  0
   37.9620   28.0530   43.5990 C   0  0  0  0  0  0  0  0  0  0  0  0
   37.6560   29.0640   42.6760 C   0  0  0  0  0  0  0  0  0  0  0  0
   38.3930   29.1370   41.4600 C   0  0  0  0  0  0  0  0  0  0  0  0
   39.3600   28.2170   41.2600 N   0  0  0  0  0  0  0  0  0  0  0  0
   39.6370   27.2500   42.1690 C   0  0  0  0  0  0  0  0  0  0  0  0
   38.9390   27.1680   43.3370 N   0  0  0  0  0  0  0  0  0  0  0  0
   37.3330   28.1080   44.4770 H   0  0  0  0  0  0  0  0  0  0  0  0
   36.8860   29.8040   42.8280 H   0  0  0  0  0  0  0  0  0  0  0  0
   40.4220   26.5360   41.9620 H   0  0  0  0  0  0  0  0  0  0  0  0
   40.3080   30.9750   41.0970 O   0  0  0  0  0  0  0  0  0  0  0  0
   41.2220   30.7190   40.8360 H   0  0  0  0  0  0  0  0  0  0  0  0
   37.9150   33.7690   40.5760 O   0  0  0  0  0  0  0  0  0  0  0  0
   38.7530   33.6380   41.1040 H   0  0  0  0  0  0  0  0  0  0  0  0
   39.5160   32.0520   37.9680 O   0  0  0  0  0  0  0  0  0  0  0  0
   40.8750   30.1330   36.3600 H   0  0  0  0  0  0  0  0  0  0  0  0
   41.4540   30.9030   36.7620 N   0  0  0  0  0  0  0  0  0  0  0  0
   40.8070   31.8110   37.5230 C   0  0  0  0  0  0  0  0  0  0  0  0
   41.7200   32.7310   37.9530 N   0  0  0  0  0  0  0  0  0  0  0  0
   42.9240   32.4280   37.4840 C   0  0  0  0  0  0  0  0  0  0  0  0
   44.2280   32.8960   37.5200 C   0  0  0  0  0  0  0  0  0  0  0  0
   44.3900   33.8020   38.1060 H   0  0  0  0  0  0  0  0  0  0  0  0
   45.2450   32.2920   36.8870 N   0  0  0  0  0  0  0  0  0  0  0  0
   45.0000   31.1670   36.1710 C   0  0  0  0  0  0  0  0  0  0  0  0
   45.8570   30.7410   35.6930 H   0  0  0  0  0  0  0  0  0  0  0  0
   43.7370   30.6670   36.1030 N   0  0  0  0  0  0  0  0  0  0  0  0
   42.7330   31.2840   36.7440 C   0  0  0  0  0  0  0  0  0  0  0  0
  1  7  1  6  0  0  0
  1  2  1  0  0  0  0
  1 22  1  0  0  0  0
  2  8  1  6  0  0  0
  2  3  1  0  0  0  0
  2 15  1  0  0  0  0
  4  9  1  0  0  0  0
  4  3  1  0  0  0  0
  5 11  1  6  0  0  0
  5  4  1  0  0  0  0
  5 24  1  0  0  0  0
  6  5  1  0  0  0  0
  6 12  1  1  0  0  0
  6  1  1  0  0  0  0
 10  4  1  0  0  0  0
 13 19  1  0  0  0  0
 14 20  1  0  0  0  0
 14 13  2  0  0  0  0
 15 14  1  0  0  0  0
 16 15  2  0  0  0  0
 16 17  1  0  0  0  0
 17 18  2  0  0  0  0
 18 13  1  0  0  0  0
 21 17  1  0  0  0  0
 23 22  1  0  0  0  0
 24 25  1  0  0  0  0
 26  6  1  0  0  0  0
 27 28  1  0  0  0  0
 28 29  1  0  0  0  0
 29 30  2  0  0  0  0
 29 26  1  0  0  0  0
 31 32  1  0  0  0  0
 31 30  1  0  0  0  0
 32 33  1  0  0  0  0
 34 32  2  0  0  0  0
 35 34  1  0  0  0  0
 36 35  1  0  0  0  0
 37 35  2  0  0  0  0
 37 38  1  0  0  0  0
 38 28  1  0  0  0  0
 38 31  2  0  0  0  0
M  END
>  <minimizedAffinity>
-5.71290636

$$$$

 OpenBabel03242521293D

 38 41  0  0  1  0  0  0  0  0999 V2000
   39.2000   31.8520   38.1700 C   0  0  1  0  0  0  0  0  0  0  0  0
   40.1080   32.4880   39.1970 C   0  0  2  0  0  0  0  0  0  0  0  0
   39.5640   33.6480   39.7140 O   0  0  0  0  0  0  0  0  0  0  0  0
   38.5010   33.2560   40.5100 C   0  0  0  0  0  0  0  0  0  0  0  0
   37.3760   32.8240   39.6060 C   0  0  2  0  0  0  0  0  0  0  0  0
   37.7630   31.8390   38.5580 C   0  0  2  0  0  0  0  0  0  0  0  0
   39.5630   30.7880   38.0940 H   0  0  0  0  0  0  0  0  0  0  0  0
   40.2550   31.7570   40.0140 H   0  0  0  0  0  0  0  0  0  0  0  0
   38.1470   34.1690   41.0470 H   0  0  0  0  0  0  0  0  0  0  0  0
   38.7790   32.5060   41.2710 H   0  0  0  0  0  0  0  0  0  0  0  0
   36.5690   32.3930   40.2460 H   0  0  0  0  0  0  0  0  0  0  0  0
   37.1800   32.1160   37.6330 H   0  0  0  0  0  0  0  0  0  0  0  0
   43.7060   32.1370   38.0530 C   0  0  0  0  0  0  0  0  0  0  0  0
   42.4610   31.8120   38.6130 C   0  0  0  0  0  0  0  0  0  0  0  0
   41.4240   32.7870   38.6060 C   0  0  0  0  0  0  0  0  0  0  0  0
   41.6990   33.9880   38.0530 N   0  0  0  0  0  0  0  0  0  0  0  0
   42.9110   34.2760   37.5190 C   0  0  0  0  0  0  0  0  0  0  0  0
   43.9130   33.3520   37.5180 N   0  0  0  0  0  0  0  0  0  0  0  0
   44.4030   31.3130   38.1220 H   0  0  0  0  0  0  0  0  0  0  0  0
   42.2320   30.8560   39.0570 H   0  0  0  0  0  0  0  0  0  0  0  0
   43.0820   35.2530   37.0870 H   0  0  0  0  0  0  0  0  0  0  0  0
   39.4110   32.3700   36.8880 O   0  0  0  0  0  0  0  0  0  0  0  0
   39.4640   31.6730   36.1950 H   0  0  0  0  0  0  0  0  0  0  0  0
   36.8630   34.0020   39.0440 O   0  0  0  0  0  0  0  0  0  0  0  0
   37.1030   34.0340   38.0760 H   0  0  0  0  0  0  0  0  0  0  0  0
   37.3250   30.5290   38.8460 O   0  0  0  0  0  0  0  0  0  0  0  0
   34.8040   29.3260   39.4070 H   0  0  0  0  0  0  0  0  0  0  0  0
   35.1110   29.3310   38.4100 N   0  0  0  0  0  0  0  0  0  0  0  0
   36.3050   29.9020   38.1470 C   0  0  0  0  0  0  0  0  0  0  0  0
   36.5310   29.8130   36.8030 N   0  0  0  0  0  0  0  0  0  0  0  0
   35.5120   29.2020   36.2120 C   0  0  0  0  0  0  0  0  0  0  0  0
   35.0990   28.8000   34.9510 C   0  0  0  0  0  0  0  0  0  0  0  0
   35.7860   29.0270   34.1340 H   0  0  0  0  0  0  0  0  0  0  0  0
   33.9370   28.1710   34.7220 N   0  0  0  0  0  0  0  0  0  0  0  0
   33.1130   27.9080   35.7670 C   0  0  0  0  0  0  0  0  0  0  0  0
   32.2050   27.4050   35.5090 H   0  0  0  0  0  0  0  0  0  0  0  0
   33.4720   28.2830   37.0240 N   0  0  0  0  0  0  0  0  0  0  0  0
   34.6380   28.9110   37.2340 C   0  0  0  0  0  0  0  0  0  0  0  0
  1  7  1  6  0  0  0
  1  6  1  0  0  0  0
  1  2  1  0  0  0  0
  2  3  1  0  0  0  0
  2  8  1  1  0  0  0
  3  4  1  0  0  0  0
  4  9  1  0  0  0  0
  4 10  1  0  0  0  0
  5 11  1  1  0  0  0
  5  4  1  0  0  0  0
  6 12  1  6  0  0  0
  6 26  1  0  0  0  0
  6  5  1  0  0  0  0
 13 19  1  0  0  0  0
 13 14  1  0  0  0  0
 14 20  1  0  0  0  0
 15 14  2  0  0  0  0
 15  2  1  0  0  0  0
 16 15  1  0  0  0  0
 17 16  2  0  0  0  0
 18 17  1  0  0  0  0
 18 13  2  0  0  0  0
 21 17  1  0  0  0  0
 22  1  1  0  0  0  0
 23 22  1  0  0  0  0
 24  5  1  0  0  0  0
 25 24  1  0  0  0  0
 28 27  1  0  0  0  0
 29 28  1  0  0  0  0
 29 26  1  0  0  0  0
 30 29  2  0  0  0  0
 31 30  1  0  0  0  0
 31 38  1  0  0  0  0
 32 31  2  0  0  0  0
 33 32  1  0  0  0  0
 34 32  1  0  0  0  0
 34 35  2  0  0  0  0
 35 37  1  0  0  0  0
 36 35  1  0  0  0  0
 37 38  2  0  0  0  0
 38 28  1  0  0  0  0
M  END
>  <minimizedAffinity>
-5.6778903

$$$$

 OpenBabel03242521293D

 38 41  0  0  1  0  0  0  0  0999 V2000
   39.2330   31.6990   40.4800 C   0  0  1  0  0  0  0  0  0  0  0  0
   39.7840   33.0810   40.7420 C   0  0  2  0  0  0  0  0  0  0  0  0
   39.3890   33.9830   39.7730 O   0  0  0  0  0  0  0  0  0  0  0  0
   38.0340   34.1970   39.9720 C   0  0  0  0  0  0  0  0  0  0  0  0
   37.2950   32.9720   39.5020 C   0  0  2  0  0  0  0  0  0  0  0  0
   37.8070   31.6860   40.0520 C   0  0  2  0  0  0  0  0  0  0  0  0
   39.3160   31.1700   41.4730 H   0  0  0  0  0  0  0  0  0  0  0  0
   39.4040   33.4130   41.7270 H   0  0  0  0  0  0  0  0  0  0  0  0
   37.7380   35.0310   39.2910 H   0  0  0  0  0  0  0  0  0  0  0  0
   37.7880   34.5030   41.0040 H   0  0  0  0  0  0  0  0  0  0  0  0
   36.2190   33.0950   39.7770 H   0  0  0  0  0  0  0  0  0  0  0  0
   37.7310   30.9320   39.2170 H   0  0  0  0  0  0  0  0  0  0  0  0
   43.4360   33.8640   40.0950 C   0  0  0  0  0  0  0  0  0  0  0  0
   42.0380   33.9370   40.0190 C   0  0  0  0  0  0  0  0  0  0  0  0
   41.2550   33.0460   40.8060 C   0  0  0  0  0  0  0  0  0  0  0  0
   41.9110   32.1670   41.5940 N   0  0  0  0  0  0  0  0  0  0  0  0
   43.2650   32.1170   41.6480 C   0  0  0  0  0  0  0  0  0  0  0  0
   44.0270   32.9650   40.9010 N   0  0  0  0  0  0  0  0  0  0  0  0
   43.9110   34.5920   39.4510 H   0  0  0  0  0  0  0  0  0  0  0  0
   41.5050   34.6340   39.3920 H   0  0  0  0  0  0  0  0  0  0  0  0
   43.7430   31.3950   42.2960 H   0  0  0  0  0  0  0  0  0  0  0  0
   40.0600   30.9540   39.6330 O   0  0  0  0  0  0  0  0  0  0  0  0
   40.2080   30.0340   39.9510 H   0  0  0  0  0  0  0  0  0  0  0  0
   37.3620   32.9990   38.1020 O   0  0  0  0  0  0  0  0  0  0  0  0
   37.9670   32.2690   37.7890 H   0  0  0  0  0  0  0  0  0  0  0  0
   36.9770   31.1500   41.0600 O   0  0  0  0  0  0  0  0  0  0  0  0
   36.9330   29.5520   43.4180 H   0  0  0  0  0  0  0  0  0  0  0  0
   36.9430   29.0440   42.5060 N   0  0  0  0  0  0  0  0  0  0  0  0
   36.9640   29.8040   41.3910 C   0  0  0  0  0  0  0  0  0  0  0  0
   36.9740   28.9690   40.3100 N   0  0  0  0  0  0  0  0  0  0  0  0
   36.9600   27.7050   40.7130 C   0  0  0  0  0  0  0  0  0  0  0  0
   36.9590   26.4210   40.1900 C   0  0  0  0  0  0  0  0  0  0  0  0
   36.9740   26.3540   39.1010 H   0  0  0  0  0  0  0  0  0  0  0  0
   36.9410   25.3160   40.9500 N   0  0  0  0  0  0  0  0  0  0  0  0
   36.9230   25.4450   42.3000 C   0  0  0  0  0  0  0  0  0  0  0  0
   36.9090   24.5220   42.8400 H   0  0  0  0  0  0  0  0  0  0  0  0
   36.9230   26.6820   42.8630 N   0  0  0  0  0  0  0  0  0  0  0  0
   36.9410   27.7760   42.0870 C   0  0  0  0  0  0  0  0  0  0  0  0
  1  2  1  0  0  0  0
  1  7  1  1  0  0  0
  2 15  1  0  0  0  0
  2  8  1  1  0  0  0
  3  4  1  0  0  0  0
  3  2  1  0  0  0  0
  4 10  1  0  0  0  0
  5 11  1  1  0  0  0
  5  4  1  0  0  0  0
  5  6  1  0  0  0  0
  6 12  1  6  0  0  0
  6  1  1  0  0  0  0
  6 26  1  0  0  0  0
  9  4  1  0  0  0  0
 13 18  1  0  0  0  0
 14 13  2  0  0  0  0
 14 15  1  0  0  0  0
 15 16  2  0  0  0  0
 16 17  1  0  0  0  0
 17 21  1  0  0  0  0
 18 17  2  0  0  0  0
 19 13  1  0  0  0  0
 20 14  1  0  0  0  0
 22 23  1  0  0  0  0
 22  1  1  0  0  0  0
 24  5  1  0  0  0  0
 25 24  1  0  0  0  0
 26 29  1  0  0  0  0
 28 27  1  0  0  0  0
 29 28  1  0  0  0  0
 30 31  1  0  0  0  0
 30 29  2  0  0  0  0
 31 38  1  0  0  0  0
 32 31  2  0  0  0  0
 32 34  1  0  0  0  0
 33 32  1  0  0  0  0
 34 35  2  0  0  0  0
 35 36  1  0  0  0  0
 35 37  1  0  0  0  0
 38 28  1  0  0  0  0
 38 37  2  0  0  0  0
M  END
>  <minimizedAffinity>
-5.65213156

$$$$

 OpenBabel03242521293D

 38 41  0  0  1  0  0  0  0  0999 V2000
   39.1280   31.8670   38.0170 C   0  0  1  0  0  0  0  0  0  0  0  0
   40.0480   32.3830   39.0990 C   0  0  2  0  0  0  0  0  0  0  0  0
   39.5470   33.5240   39.6970 O   0  0  0  0  0  0  0  0  0  0  0  0
   38.4560   33.1190   40.4490 C   0  0  0  0  0  0  0  0  0  0  0  0
   37.3270   32.8080   39.5030 C   0  0  2  0  0  0  0  0  0  0  0  0
   37.6860   31.8890   38.3870 C   0  0  2  0  0  0  0  0  0  0  0  0
   39.4450   30.7960   37.8650 H   0  0  0  0  0  0  0  0  0  0  0  0
   40.1510   31.5860   39.8600 H   0  0  0  0  0  0  0  0  0  0  0  0
   38.1350   34.0050   41.0500 H   0  0  0  0  0  0  0  0  0  0  0  0
   38.6910   32.3030   41.1540 H   0  0  0  0  0  0  0  0  0  0  0  0
   36.4930   32.3660   40.0990 H   0  0  0  0  0  0  0  0  0  0  0  0
   37.1290   32.2600   37.4800 H   0  0  0  0  0  0  0  0  0  0  0  0
   43.6670   31.9830   38.0440 C   0  0  0  0  0  0  0  0  0  0  0  0
   42.4030   31.6730   38.5660 C   0  0  0  0  0  0  0  0  0  0  0  0
   41.3830   32.6660   38.5480 C   0  0  0  0  0  0  0  0  0  0  0  0
   41.6940   33.8700   38.0210 N   0  0  0  0  0  0  0  0  0  0  0  0
   42.9250   34.1450   37.5230 C   0  0  0  0  0  0  0  0  0  0  0  0
   43.9100   33.2030   37.5330 N   0  0  0  0  0  0  0  0  0  0  0  0
   44.3480   31.1470   38.1180 H   0  0  0  0  0  0  0  0  0  0  0  0
   42.1460   30.7150   38.9890 H   0  0  0  0  0  0  0  0  0  0  0  0
   43.1240   35.1250   37.1110 H   0  0  0  0  0  0  0  0  0  0  0  0
   39.3790   32.4710   36.7810 O   0  0  0  0  0  0  0  0  0  0  0  0
   39.4120   31.8260   36.0380 H   0  0  0  0  0  0  0  0  0  0  0  0
   36.8740   34.0460   39.0270 O   0  0  0  0  0  0  0  0  0  0  0  0
   37.1290   34.1410   38.0660 H   0  0  0  0  0  0  0  0  0  0  0  0
   37.1870   30.5810   38.5700 O   0  0  0  0  0  0  0  0  0  0  0  0
   37.2590   30.0660   35.7700 H   0  0  0  0  0  0  0  0  0  0  0  0
   36.4450   29.6820   36.2970 N   0  0  0  0  0  0  0  0  0  0  0  0
   36.4130   29.9280   37.6240 C   0  0  0  0  0  0  0  0  0  0  0  0
   35.2860   29.3520   38.1350 N   0  0  0  0  0  0  0  0  0  0  0  0
   34.6050   28.7510   37.1670 C   0  0  0  0  0  0  0  0  0  0  0  0
   33.4450   28.0160   36.9810 C   0  0  0  0  0  0  0  0  0  0  0  0
   32.8490   27.8370   37.8780 H   0  0  0  0  0  0  0  0  0  0  0  0
   33.0550   27.5440   35.7880 N   0  0  0  0  0  0  0  0  0  0  0  0
   33.8250   27.7900   34.6980 C   0  0  0  0  0  0  0  0  0  0  0  0
   33.4530   27.3830   33.7820 H   0  0  0  0  0  0  0  0  0  0  0  0
   34.9740   28.5050   34.8280 N   0  0  0  0  0  0  0  0  0  0  0  0
   35.3480   28.9690   36.0300 C   0  0  0  0  0  0  0  0  0  0  0  0
  1  7  1  6  0  0  0
  1  6  1  0  0  0  0
  1  2  1  0  0  0  0
  2  3  1  0  0  0  0
  2  8  1  1  0  0  0
  3  4  1  0  0  0  0
  4  9  1  0  0  0  0
  4 10  1  0  0  0  0
  5 11  1  1  0  0  0
  5  4  1  0  0  0  0
  6 12  1  6  0  0  0
  6 26  1  0  0  0  0
  6  5  1  0  0  0  0
 13 19  1  0  0  0  0
 13 14  1  0  0  0  0
 14 20  1  0  0  0  0
 15 14  2  0  0  0  0
 15  2  1  0  0  0  0
 16 15  1  0  0  0  0
 17 18  1  0  0  0  0
 17 16  2  0  0  0  0
 18 13  2  0  0  0  0
 21 17  1  0  0  0  0
 22  1  1  0  0  0  0
 23 22  1  0  0  0  0
 24  5  1  0  0  0  0
 25 24  1  0  0  0  0
 27 28  1  0  0  0  0
 28 29  1  0  0  0  0
 29 30  2  0  0  0  0
 29 26  1  0  0  0  0
 31 30  1  0  0  0  0
 32 31  1  0  0  0  0
 32 33  1  0  0  0  0
 34 32  2  0  0  0  0
 35 37  2  0  0  0  0
 35 34  1  0  0  0  0
 36 35  1  0  0  0  0
 37 38  1  0  0  0  0
 38 28  1  0  0  0  0
 38 31  2  0  0  0  0
M  END
>  <minimizedAffinity>
-5.63283348

$$$$

 OpenBabel03242521293D

 38 41  0  0  1  0  0  0  0  0999 V2000
   39.0190   31.8740   37.9610 C   0  0  1  0  0  0  0  0  0  0  0  0
   39.9580   32.3920   39.0260 C   0  0  2  0  0  0  0  0  0  0  0  0
   39.4920   33.5610   39.5970 O   0  0  0  0  0  0  0  0  0  0  0  0
   38.3940   33.2060   40.3640 C   0  0  0  0  0  0  0  0  0  0  0  0
   37.2520   32.9020   39.4300 C   0  0  2  0  0  0  0  0  0  0  0  0
   37.5800   31.9450   38.3370 C   0  0  2  0  0  0  0  0  0  0  0  0
   39.3060   30.7920   37.8350 H   0  0  0  0  0  0  0  0  0  0  0  0
   40.0430   31.6120   39.8060 H   0  0  0  0  0  0  0  0  0  0  0  0
   38.1010   34.1150   40.9430 H   0  0  0  0  0  0  0  0  0  0  0  0
   38.6100   32.4010   41.0880 H   0  0  0  0  0  0  0  0  0  0  0  0
   36.4090   32.4980   40.0420 H   0  0  0  0  0  0  0  0  0  0  0  0
   37.0280   32.3080   37.4230 H   0  0  0  0  0  0  0  0  0  0  0  0
   43.4980   31.8150   37.7980 C   0  0  0  0  0  0  0  0  0  0  0  0
   42.2260   31.5540   38.3280 C   0  0  0  0  0  0  0  0  0  0  0  0
   41.2980   32.6250   38.4610 C   0  0  0  0  0  0  0  0  0  0  0  0
   41.6990   33.8510   38.0640 N   0  0  0  0  0  0  0  0  0  0  0  0
   42.9350   34.0780   37.5560 C   0  0  0  0  0  0  0  0  0  0  0  0
   43.8340   33.0620   37.4220 N   0  0  0  0  0  0  0  0  0  0  0  0
   44.1050   30.9210   37.7510 H   0  0  0  0  0  0  0  0  0  0  0  0
   41.8970   30.5780   38.6480 H   0  0  0  0  0  0  0  0  0  0  0  0
   43.2090   35.0790   37.2520 H   0  0  0  0  0  0  0  0  0  0  0  0
   39.2800   32.4390   36.7090 O   0  0  0  0  0  0  0  0  0  0  0  0
   39.2920   31.7750   35.9820 H   0  0  0  0  0  0  0  0  0  0  0  0
   36.8310   34.1400   38.9250 O   0  0  0  0  0  0  0  0  0  0  0  0
   37.0830   34.2030   37.9610 H   0  0  0  0  0  0  0  0  0  0  0  0
   37.0470   30.6570   38.5560 O   0  0  0  0  0  0  0  0  0  0  0  0
   37.8020   30.4430   41.2940 H   0  0  0  0  0  0  0  0  0  0  0  0
   38.0030   29.6190   40.6860 N   0  0  0  0  0  0  0  0  0  0  0  0
   37.6440   29.7230   39.3890 C   0  0  0  0  0  0  0  0  0  0  0  0
   37.9830   28.5600   38.7610 N   0  0  0  0  0  0  0  0  0  0  0  0
   38.5470   27.7250   39.6250 C   0  0  0  0  0  0  0  0  0  0  0  0
   39.0950   26.4530   39.6730 C   0  0  0  0  0  0  0  0  0  0  0  0
   39.0990   25.9040   38.7300 H   0  0  0  0  0  0  0  0  0  0  0  0
   39.5970   25.9090   40.7910 N   0  0  0  0  0  0  0  0  0  0  0  0
   39.5740   26.6270   41.9410 C   0  0  0  0  0  0  0  0  0  0  0  0
   39.9900   26.1290   42.7910 H   0  0  0  0  0  0  0  0  0  0  0  0
   39.0450   27.8800   41.9480 N   0  0  0  0  0  0  0  0  0  0  0  0
   38.5480   28.4080   40.8200 C   0  0  0  0  0  0  0  0  0  0  0  0
  1  7  1  6  0  0  0
  1  6  1  0  0  0  0
  1  2  1  0  0  0  0
  2  3  1  0  0  0  0
  2  8  1  1  0  0  0
  3  4  1  0  0  0  0
  4  9  1  0  0  0  0
  4 10  1  0  0  0  0
  5 11  1  1  0  0  0
  5  4  1  0  0  0  0
  6 12  1  6  0  0  0
  6 26  1  0  0  0  0
  6  5  1  0  0  0  0
 13 14  1  0  0  0  0
 14 15  2  0  0  0  0
 14 20  1  0  0  0  0
 15  2  1  0  0  0  0
 16 15  1  0  0  0  0
 17 16  2  0  0  0  0
 18 17  1  0  0  0  0
 18 13  2  0  0  0  0
 19 13  1  0  0  0  0
 21 17  1  0  0  0  0
 22  1  1  0  0  0  0
 23 22  1  0  0  0  0
 24  5  1  0  0  0  0
 25 24  1  0  0  0  0
 26 29  1  0  0  0  0
 28 38  1  0  0  0  0
 28 27  1  0  0  0  0
 29 28  1  0  0  0  0
 30 29  2  0  0  0  0
 30 31  1  0  0  0  0
 31 32  2  0  0  0  0
 31 38  1  0  0  0  0
 32 34  1  0  0  0  0
 33 32  1  0  0  0  0
 34 35  2  0  0  0  0
 35 37  1  0  0  0  0
 35 36  1  0  0  0  0
 38 37  2  0  0  0  0
M  END
>  <minimizedAffinity>
-5.63080263

$$$$

 OpenBabel03242521293D

 38 41  0  0  1  0  0  0  0  0999 V2000
   37.3440   28.4220   42.1670 C   0  0  1  0  0  0  0  0  0  0  0  0
   38.2750   28.7930   41.0370 C   0  0  2  0  0  0  0  0  0  0  0  0
   39.6010   28.6520   41.3970 O   0  0  0  0  0  0  0  0  0  0  0  0
   39.8330   27.2890   41.4920 C   0  0  0  0  0  0  0  0  0  0  0  0
   39.1700   26.7900   42.7490 C   0  0  2  0  0  0  0  0  0  0  0  0
   37.7430   27.1880   42.9000 C   0  0  2  0  0  0  0  0  0  0  0  0
   36.3510   28.2380   41.6660 H   0  0  0  0  0  0  0  0  0  0  0  0
   38.0540   28.1230   40.1850 H   0  0  0  0  0  0  0  0  0  0  0  0
   40.9340   27.1610   41.6380 H   0  0  0  0  0  0  0  0  0  0  0  0
   39.5490   26.7340   40.5820 H   0  0  0  0  0  0  0  0  0  0  0  0
   39.2520   25.6770   42.7600 H   0  0  0  0  0  0  0  0  0  0  0  0
   37.5890   27.4030   43.9960 H   0  0  0  0  0  0  0  0  0  0  0  0
   36.9510   31.7910   39.1300 C   0  0  0  0  0  0  0  0  0  0  0  0
   37.1480   30.4590   39.5230 C   0  0  0  0  0  0  0  0  0  0  0  0
   38.0320   30.1800   40.6040 C   0  0  0  0  0  0  0  0  0  0  0  0
   38.6400   31.2280   41.2000 N   0  0  0  0  0  0  0  0  0  0  0  0
   38.4330   32.5060   40.8000 C   0  0  0  0  0  0  0  0  0  0  0  0
   37.5890   32.7880   39.7670 N   0  0  0  0  0  0  0  0  0  0  0  0
   36.2610   31.8670   38.3020 H   0  0  0  0  0  0  0  0  0  0  0  0
   36.6680   29.6160   39.0530 H   0  0  0  0  0  0  0  0  0  0  0  0
   38.9440   33.3110   41.3100 H   0  0  0  0  0  0  0  0  0  0  0  0
   37.0940   29.5020   43.0200 O   0  0  0  0  0  0  0  0  0  0  0  0
   36.1410   29.6000   43.2470 H   0  0  0  0  0  0  0  0  0  0  0  0
   39.9540   27.2650   43.8090 O   0  0  0  0  0  0  0  0  0  0  0  0
   39.4500   27.9760   44.2970 H   0  0  0  0  0  0  0  0  0  0  0  0
   36.8470   26.1290   42.6400 O   0  0  0  0  0  0  0  0  0  0  0  0
   37.9790   23.5320   42.9320 H   0  0  0  0  0  0  0  0  0  0  0  0
   37.7040   23.8180   41.9670 N   0  0  0  0  0  0  0  0  0  0  0  0
   37.1670   25.0490   41.8320 C   0  0  0  0  0  0  0  0  0  0  0  0
   36.8730   25.2410   40.5130 N   0  0  0  0  0  0  0  0  0  0  0  0
   37.2080   24.1650   39.8120 C   0  0  0  0  0  0  0  0  0  0  0  0
   37.1920   23.6960   38.5080 C   0  0  0  0  0  0  0  0  0  0  0  0
   36.7840   24.3830   37.7640 H   0  0  0  0  0  0  0  0  0  0  0  0
   37.6410   22.4830   38.1550 N   0  0  0  0  0  0  0  0  0  0  0  0
   38.1410   21.6610   39.1110 C   0  0  0  0  0  0  0  0  0  0  0  0
   38.4800   20.7110   38.7570 H   0  0  0  0  0  0  0  0  0  0  0  0
   38.1790   22.0730   40.4070 N   0  0  0  0  0  0  0  0  0  0  0  0
   37.7240   23.2900   40.7410 C   0  0  0  0  0  0  0  0  0  0  0  0
  1  7  1  6  0  0  0
  1  6  1  0  0  0  0
  1 22  1  0  0  0  0
  2  8  1  6  0  0  0
  2  3  1  0  0  0  0
  2  1  1  0  0  0  0
  3  4  1  0  0  0  0
  4  9  1  0  0  0  0
  4  5  1  0  0  0  0
  5 11  1  1  0  0  0
  5  6  1  0  0  0  0
  5 24  1  0  0  0  0
  6 12  1  1  0  0  0
 10  4  1  0  0  0  0
 13 14  2  0  0  0  0
 13 18  1  0  0  0  0
 14 15  1  0  0  0  0
 15  2  1  0  0  0  0
 15 16  2  0  0  0  0
 17 16  1  0  0  0  0
 17 21  1  0  0  0  0
 18 17  2  0  0  0  0
 19 13  1  0  0  0  0
 20 14  1  0  0  0  0
 22 23  1  0  0  0  0
 24 25  1  0  0  0  0
 26  6  1  0  0  0  0
 28 27  1  0  0  0  0
 29 28  1  0  0  0  0
 29 26  1  0  0  0  0
 30 29  2  0  0  0  0
 31 30  1  0  0  0  0
 31 38  1  0  0  0  0
 32 31  2  0  0  0  0
 33 32  1  0  0  0  0
 34 32  1  0  0  0  0
 34 35  2  0  0  0  0
 35 37  1  0  0  0  0
 36 35  1  0  0  0  0
 37 38  2  0  0  0  0
 38 28  1  0  0  0  0
M  END
>  <minimizedAffinity>
-5.60297012

$$$$
