
 OpenBabel03252508083D

 47 51  0  0  0  0  0  0  0  0999 V2000
   45.2990   36.1130   42.7640 C   0  0  0  0  0  0  0  0  0  0  0  0
   45.5010   34.7420   42.7600 C   0  0  0  0  0  0  0  0  0  0  0  0
   45.2470   34.0080   43.8920 C   0  0  0  0  0  0  0  0  0  0  0  0
   44.7910   34.7000   44.9970 N   0  0  0  0  0  0  0  0  0  0  0  0
   44.5990   36.0170   44.9950 C   0  0  0  0  0  0  0  0  0  0  0  0
   44.8590   36.7130   43.8680 N   0  0  0  0  0  0  0  0  0  0  0  0
   45.4750   36.7530   41.9230 H   0  0  0  0  0  0  0  0  0  0  0  0
   44.2390   36.5010   45.8970 H   0  0  0  0  0  0  0  0  0  0  0  0
   45.4020   32.6100   44.0510 C   0  0  0  0  0  0  0  0  0  0  0  0
   44.8960   31.6610   43.1600 C   0  0  0  0  0  0  0  0  0  0  0  0
   44.9850   30.3070   43.3450 C   0  0  0  0  0  0  0  0  0  0  0  0
   45.6070   29.8120   44.4700 C   0  0  0  0  0  0  0  0  0  0  0  0
   46.1310   30.7610   45.3900 C   0  0  0  0  0  0  0  0  0  0  0  0
   46.7500   30.2800   46.5140 C   0  0  0  0  0  0  0  0  0  0  0  0
   47.2820   31.1480   47.4470 C   0  0  0  0  0  0  0  0  0  0  0  0
   47.1860   32.5340   47.2340 C   0  0  0  0  0  0  0  0  0  0  0  0
   46.5400   32.9770   46.0650 C   0  0  0  0  0  0  0  0  0  0  0  0
   46.0190   32.0940   45.1610 C   0  0  0  0  0  0  0  0  0  0  0  0
   44.4050   32.0610   42.2730 H   0  0  0  0  0  0  0  0  0  0  0  0
   44.5540   29.6680   42.5810 H   0  0  0  0  0  0  0  0  0  0  0  0
   45.6810   28.7600   44.6250 H   0  0  0  0  0  0  0  0  0  0  0  0
   46.8170   29.2080   46.6640 H   0  0  0  0  0  0  0  0  0  0  0  0
   47.7480   30.6980   48.2990 H   0  0  0  0  0  0  0  0  0  0  0  0
   47.6290   33.1190   48.0100 H   0  0  0  0  0  0  0  0  0  0  0  0
   46.5890   34.0450   46.0740 H   0  0  0  0  0  0  0  0  0  0  0  0
   45.9520   34.1780   41.5980 O   0  0  0  0  0  0  0  0  0  0  0  0
   47.8500   32.4450   41.0900 O   0  0  0  0  0  0  0  0  0  0  0  0
   47.5820   33.9040   41.2330 P   0  0  1  0  0  0  0  0  0  0  0  0
   48.0030   34.6260   39.7610 O   0  0  0  0  0  0  0  0  0  0  0  0
   45.9320   32.8930   38.9090 H   0  0  0  0  0  0  0  0  0  0  0  0
   46.7480   33.1150   38.2890 N   0  0  0  0  0  0  0  0  0  0  0  0
   47.7860   33.9200   38.5850 C   0  0  0  0  0  0  0  0  0  0  0  0
   48.6050   33.9280   37.5160 N   0  0  0  0  0  0  0  0  0  0  0  0
   48.1140   33.1440   36.5420 C   0  0  0  0  0  0  0  0  0  0  0  0
   48.6000   32.8560   35.2990 C   0  0  0  0  0  0  0  0  0  0  0  0
   49.5220   33.2490   34.8920 H   0  0  0  0  0  0  0  0  0  0  0  0
   47.8580   32.0110   34.5280 N   0  0  0  0  0  0  0  0  0  0  0  0
   46.6980   31.5040   35.0130 C   0  0  0  0  0  0  0  0  0  0  0  0
   46.0850   30.8290   34.4280 H   0  0  0  0  0  0  0  0  0  0  0  0
   46.2160   31.7870   36.2380 N   0  0  0  0  0  0  0  0  0  0  0  0
   46.9320   32.6270   37.0340 C   0  0  0  0  0  0  0  0  0  0  0  0
   48.5170   34.5750   42.4520 O   0  0  0  0  0  0  0  0  0  0  0  0
   49.7190   35.2490   42.3000 C   0  0  0  0  0  0  0  0  0  0  0  0
   49.3980   36.3620   41.8460 O   0  0  0  0  0  0  0  0  0  0  0  0
   50.8260   34.4250   42.7140 N   0  0  0  0  0  0  0  0  0  0  0  0
   50.8740   34.1600   43.7340 H   0  0  0  0  0  0  0  0  0  0  0  0
   51.5840   34.0720   42.0700 H   0  0  0  0  0  0  0  0  0  0  0  0
  1  6  1  0  0  0  0
  2  1  2  0  0  0  0
  2  3  1  0  0  0  0
  3  9  1  0  0  0  0
  3  4  2  0  0  0  0
  5  4  1  0  0  0  0
  5  8  1  0  0  0  0
  6  5  2  0  0  0  0
  7  1  1  0  0  0  0
  9 18  1  0  0  0  0
 10 11  1  0  0  0  0
 10  9  2  0  0  0  0
 11 12  2  0  0  0  0
 12 21  1  0  0  0  0
 12 13  1  0  0  0  0
 13 14  1  0  0  0  0
 14 22  1  0  0  0  0
 14 15  2  0  0  0  0
 15 23  1  0  0  0  0
 16 15  1  0  0  0  0
 16 24  1  0  0  0  0
 17 25  1  0  0  0  0
 17 16  2  0  0  0  0
 18 13  2  0  0  0  0
 18 17  1  0  0  0  0
 19 10  1  0  0  0  0
 20 11  1  0  0  0  0
 26  2  1  0  0  0  0
 28 27  2  6  0  0  0
 28 26  1  0  0  0  0
 28 42  1  0  0  0  0
 29 28  1  0  0  0  0
 31 32  1  0  0  0  0
 31 30  1  0  0  0  0
 32 29  1  0  0  0  0
 33 32  2  0  0  0  0
 34 41  1  0  0  0  0
 34 33  1  0  0  0  0
 35 34  2  0  0  0  0
 36 35  1  0  0  0  0
 37 38  2  0  0  0  0
 37 35  1  0  0  0  0
 38 40  1  0  0  0  0
 39 38  1  0  0  0  0
 40 41  2  0  0  0  0
 41 31  1  0  0  0  0
 43 42  1  0  0  0  0
 43 45  1  0  0  0  0
 44 43  2  0  0  0  0
 45 46  1  0  0  0  0
 47 45  1  0  0  0  0
M  END
>  <minimizedAffinity>
-6.62914085

>  <minimizedRMSD>
0.396458209

$$$$
