
 OpenBabel03252506393D

 47 51  0  0  1  0  0  0  0  0999 V2000
   36.9470   31.0110   38.6790 S   0  0  0  0  0  0  0  0  0  0  0  0
   40.2510   30.8820   39.1260 O   0  0  0  0  0  0  0  0  0  0  0  0
   39.4510   31.6780   39.6380 C   0  0  0  0  0  0  0  0  0  0  0  0
   37.9890   31.9010   39.7610 C   0  0  1  0  0  0  0  0  0  0  0  0
   37.8880   33.4030   39.6620 C   0  0  0  0  0  0  0  0  0  0  0  0
   38.9130   33.7480   40.7460 C   0  0  0  0  0  0  0  0  0  0  0  0
   39.9590   32.7970   40.3870 N   0  0  0  0  0  0  0  0  0  0  0  0
   37.8710   31.7470   40.8680 H   0  0  0  0  0  0  0  0  0  0  0  0
   36.9210   33.7940   39.9880 H   0  0  0  0  0  0  0  0  0  0  0  0
   38.2170   33.7920   38.6840 H   0  0  0  0  0  0  0  0  0  0  0  0
   39.2800   34.7690   40.6500 H   0  0  0  0  0  0  0  0  0  0  0  0
   38.4760   33.5160   41.7360 H   0  0  0  0  0  0  0  0  0  0  0  0
   41.3700   32.0910   42.7240 H   0  0  0  0  0  0  0  0  0  0  0  0
   41.8470   32.6510   41.9690 N   0  0  0  0  0  0  0  0  0  0  0  0
   41.3170   33.0660   40.7990 C   0  0  0  0  0  0  0  0  0  0  0  0
   42.2850   33.7480   40.1470 N   0  0  0  0  0  0  0  0  0  0  0  0
   43.4070   33.7670   40.8820 C   0  0  0  0  0  0  0  0  0  0  0  0
   44.6690   34.3040   40.7120 C   0  0  0  0  0  0  0  0  0  0  0  0
   44.8610   34.8480   39.7920 H   0  0  0  0  0  0  0  0  0  0  0  0
   45.6280   34.1590   41.6510 N   0  0  0  0  0  0  0  0  0  0  0  0
   45.3470   33.4710   42.7880 C   0  0  0  0  0  0  0  0  0  0  0  0
   46.1190   33.3520   43.5480 H   0  0  0  0  0  0  0  0  0  0  0  0
   44.1220   32.9430   42.9660 N   0  0  0  0  0  0  0  0  0  0  0  0
   43.1420   33.0710   42.0450 C   0  0  0  0  0  0  0  0  0  0  0  0
   37.6880   27.0250   43.1680 C   0  0  0  0  0  0  0  0  0  0  0  0
   39.0710   26.8930   42.8960 C   0  0  0  0  0  0  0  0  0  0  0  0
   39.5770   27.4240   41.7520 C   0  0  0  0  0  0  0  0  0  0  0  0
   38.7040   28.0560   40.9320 N   0  0  0  0  0  0  0  0  0  0  0  0
   37.4100   28.1760   41.1910 C   0  0  0  0  0  0  0  0  0  0  0  0
   36.8860   27.6670   42.3050 N   0  0  0  0  0  0  0  0  0  0  0  0
   36.5790   28.8680   40.2410 N   0  0  0  0  0  0  0  0  0  0  0  0
   35.2440   29.2720   40.4950 C   0  0  0  0  0  0  0  0  0  0  0  0
   34.5550   29.0530   39.1600 C   0  0  0  0  0  0  0  0  0  0  0  0
   35.6400   28.7100   38.1830 C   0  0  0  0  0  0  0  0  0  0  0  0
   36.8860   29.2460   38.8840 C   0  0  1  0  0  0  0  0  0  0  0  0
   37.3010   26.5960   44.0840 H   0  0  0  0  0  0  0  0  0  0  0  0
   40.6150   27.3350   41.5290 H   0  0  0  0  0  0  0  0  0  0  0  0
   34.7870   28.4660   41.1530 H   0  0  0  0  0  0  0  0  0  0  0  0
   34.9460   30.1810   40.9060 H   0  0  0  0  0  0  0  0  0  0  0  0
   34.0710   30.0190   38.8370 H   0  0  0  0  0  0  0  0  0  0  0  0
   33.7480   28.3220   39.1740 H   0  0  0  0  0  0  0  0  0  0  0  0
   35.6770   27.6370   37.9840 H   0  0  0  0  0  0  0  0  0  0  0  0
   35.4830   29.2920   37.2370 H   0  0  0  0  0  0  0  0  0  0  0  0
   37.7450   28.6980   38.4640 H   0  0  0  0  0  0  0  0  0  0  0  0
   39.8650   26.1930   43.8670 N   0  0  0  0  0  0  0  0  0  0  0  0
   40.6040   25.5790   43.4250 H   0  0  0  0  0  0  0  0  0  0  0  0
   39.7740   26.2410   44.8980 H   0  0  0  0  0  0  0  0  0  0  0  0
  1 35  1  0  0  0  0
  1  4  1  0  0  0  0
  2  3  2  0  0  0  0
  3  4  1  0  0  0  0
  3  7  1  0  0  0  0
  4  8  1  1  0  0  0
  5  4  1  0  0  0  0
  5  9  1  0  0  0  0
  5  6  1  0  0  0  0
  6 12  1  0  0  0  0
  7  6  1  0  0  0  0
  7 15  1  0  0  0  0
 10  5  1  0  0  0  0
 11  6  1  0  0  0  0
 14 24  1  0  0  0  0
 14 13  1  0  0  0  0
 15 14  1  0  0  0  0
 16 15  2  0  0  0  0
 16 17  1  0  0  0  0
 17 24  1  0  0  0  0
 18 17  2  0  0  0  0
 18 20  1  0  0  0  0
 19 18  1  0  0  0  0
 20 21  2  0  0  0  0
 21 23  1  0  0  0  0
 21 22  1  0  0  0  0
 24 23  2  0  0  0  0
 25 36  1  0  0  0  0
 26 25  1  0  0  0  0
 26 45  1  0  0  0  0
 27 26  2  0  0  0  0
 28 29  2  0  0  0  0
 28 27  1  0  0  0  0
 29 30  1  0  0  0  0
 30 25  2  0  0  0  0
 31 32  1  0  0  0  0
 31 29  1  0  0  0  0
 32 39  1  0  0  0  0
 32 38  1  0  0  0  0
 33 41  1  0  0  0  0
 33 32  1  0  0  0  0
 34 35  1  0  0  0  0
 34 33  1  0  0  0  0
 35 44  1  6  0  0  0
 35 31  1  0  0  0  0
 37 27  1  0  0  0  0
 40 33  1  0  0  0  0
 42 34  1  0  0  0  0
 43 34  1  0  0  0  0
 45 47  1  0  0  0  0
 46 45  1  0  0  0  0
M  END
>  <minimizedAffinity>
-6.64707851

$$$$

 OpenBabel03252506393D

 47 51  0  0  1  0  0  0  0  0999 V2000
   41.9030   31.7290   41.1510 S   0  0  0  0  0  0  0  0  0  0  0  0
   40.1510   29.5320   39.3520 O   0  0  0  0  0  0  0  0  0  0  0  0
   39.9540   30.7520   39.4540 C   0  0  0  0  0  0  0  0  0  0  0  0
   40.5970   31.9650   40.0170 C   0  0  1  0  0  0  0  0  0  0  0  0
   39.4130   32.7340   40.5480 C   0  0  0  0  0  0  0  0  0  0  0  0
   38.5660   32.7120   39.2720 C   0  0  0  0  0  0  0  0  0  0  0  0
   38.7550   31.3170   38.8930 N   0  0  0  0  0  0  0  0  0  0  0  0
   40.8080   32.5210   39.0620 H   0  0  0  0  0  0  0  0  0  0  0  0
   39.6420   33.7790   40.7730 H   0  0  0  0  0  0  0  0  0  0  0  0
   38.8910   32.2080   41.3650 H   0  0  0  0  0  0  0  0  0  0  0  0
   37.5150   32.9100   39.4770 H   0  0  0  0  0  0  0  0  0  0  0  0
   39.0200   33.3990   38.5320 H   0  0  0  0  0  0  0  0  0  0  0  0
   38.5770   31.1180   36.0850 H   0  0  0  0  0  0  0  0  0  0  0  0
   37.8340   30.6820   36.6930 N   0  0  0  0  0  0  0  0  0  0  0  0
   37.7730   30.6870   38.0410 C   0  0  0  0  0  0  0  0  0  0  0  0
   36.6540   30.0130   38.3880 N   0  0  0  0  0  0  0  0  0  0  0  0
   36.0160   29.5870   37.2870 C   0  0  0  0  0  0  0  0  0  0  0  0
   34.8580   28.8700   37.0540 C   0  0  0  0  0  0  0  0  0  0  0  0
   34.2860   28.5470   37.9180 H   0  0  0  0  0  0  0  0  0  0  0  0
   34.4500   28.5800   35.7990 N   0  0  0  0  0  0  0  0  0  0  0  0
   35.1950   29.0020   34.7440 C   0  0  0  0  0  0  0  0  0  0  0  0
   34.8680   28.7690   33.7300 H   0  0  0  0  0  0  0  0  0  0  0  0
   36.3250   29.7010   34.9570 N   0  0  0  0  0  0  0  0  0  0  0  0
   36.7580   30.0060   36.2000 C   0  0  0  0  0  0  0  0  0  0  0  0
   38.5880   27.1340   43.2700 C   0  0  0  0  0  0  0  0  0  0  0  0
   37.4320   27.9440   43.3740 C   0  0  0  0  0  0  0  0  0  0  0  0
   37.5490   29.2910   43.2320 C   0  0  0  0  0  0  0  0  0  0  0  0
   38.7910   29.7750   42.9940 N   0  0  0  0  0  0  0  0  0  0  0  0
   39.8700   29.0130   42.8980 C   0  0  0  0  0  0  0  0  0  0  0  0
   39.7850   27.6890   43.0320 N   0  0  0  0  0  0  0  0  0  0  0  0
   41.1390   29.6420   42.6460 N   0  0  0  0  0  0  0  0  0  0  0  0
   42.3210   28.9440   42.2890 C   0  0  0  0  0  0  0  0  0  0  0  0
   43.4110   29.7150   43.0100 C   0  0  0  0  0  0  0  0  0  0  0  0
   42.7510   30.9350   43.5810 C   0  0  0  0  0  0  0  0  0  0  0  0
   41.4840   31.0400   42.7360 C   0  0  1  0  0  0  0  0  0  0  0  0
   38.4770   26.0630   43.3850 H   0  0  0  0  0  0  0  0  0  0  0  0
   36.6910   29.9170   43.3070 H   0  0  0  0  0  0  0  0  0  0  0  0
   42.2890   27.9580   42.8530 H   0  0  0  0  0  0  0  0  0  0  0  0
   42.6260   28.7120   41.3220 H   0  0  0  0  0  0  0  0  0  0  0  0
   44.1850   30.0410   42.2580 H   0  0  0  0  0  0  0  0  0  0  0  0
   43.9620   29.1420   43.7540 H   0  0  0  0  0  0  0  0  0  0  0  0
   42.5580   30.8250   44.6490 H   0  0  0  0  0  0  0  0  0  0  0  0
   43.3930   31.8320   43.3750 H   0  0  0  0  0  0  0  0  0  0  0  0
   40.7610   31.6290   43.3240 H   0  0  0  0  0  0  0  0  0  0  0  0
   36.1860   27.2770   43.6300 N   0  0  0  0  0  0  0  0  0  0  0  0
   35.5640   27.8130   44.2960 H   0  0  0  0  0  0  0  0  0  0  0  0
   35.8720   26.3710   43.2360 H   0  0  0  0  0  0  0  0  0  0  0  0
  1 35  1  0  0  0  0
  2  3  2  0  0  0  0
  3  4  1  0  0  0  0
  4  8  1  6  0  0  0
  4  5  1  0  0  0  0
  4  1  1  0  0  0  0
  5  9  1  0  0  0  0
  5 10  1  0  0  0  0
  6 11  1  0  0  0  0
  6  5  1  0  0  0  0
  7  6  1  0  0  0  0
  7  3  1  0  0  0  0
 12  6  1  0  0  0  0
 13 14  1  0  0  0  0
 14 15  1  0  0  0  0
 15 16  2  0  0  0  0
 15  7  1  0  0  0  0
 17 16  1  0  0  0  0
 18 17  1  0  0  0  0
 18 19  1  0  0  0  0
 20 18  2  0  0  0  0
 21 23  2  0  0  0  0
 21 20  1  0  0  0  0
 22 21  1  0  0  0  0
 23 24  1  0  0  0  0
 24 14  1  0  0  0  0
 24 17  2  0  0  0  0
 25 26  1  0  0  0  0
 25 36  1  0  0  0  0
 26 45  1  0  0  0  0
 27 37  1  0  0  0  0
 27 26  2  0  0  0  0
 28 27  1  0  0  0  0
 29 28  2  0  0  0  0
 29 30  1  0  0  0  0
 30 25  2  0  0  0  0
 31 35  1  0  0  0  0
 31 29  1  0  0  0  0
 32 31  1  0  0  0  0
 32 38  1  0  0  0  0
 32 33  1  0  0  0  0
 33 34  1  0  0  0  0
 33 41  1  0  0  0  0
 34 42  1  0  0  0  0
 35 44  1  1  0  0  0
 35 34  1  0  0  0  0
 39 32  1  0  0  0  0
 40 33  1  0  0  0  0
 43 34  1  0  0  0  0
 45 46  1  0  0  0  0
 47 45  1  0  0  0  0
M  END
>  <minimizedAffinity>
-6.08445978

$$$$

 OpenBabel03252506393D

 47 51  0  0  1  0  0  0  0  0999 V2000
   37.4400   26.4950   42.2580 S   0  0  0  0  0  0  0  0  0  0  0  0
   39.9930   28.2360   41.0010 O   0  0  0  0  0  0  0  0  0  0  0  0
   38.9210   28.6780   41.4400 C   0  0  0  0  0  0  0  0  0  0  0  0
   37.7120   28.2160   42.1650 C   0  0  1  0  0  0  0  0  0  0  0  0
   36.6180   29.0060   41.4900 C   0  0  0  0  0  0  0  0  0  0  0  0
   37.2440   30.3950   41.6430 C   0  0  0  0  0  0  0  0  0  0  0  0
   38.6140   30.0730   41.2630 N   0  0  0  0  0  0  0  0  0  0  0  0
   37.8390   28.7930   43.1220 H   0  0  0  0  0  0  0  0  0  0  0  0
   35.6770   29.0060   42.0490 H   0  0  0  0  0  0  0  0  0  0  0  0
   36.4990   28.7520   40.4240 H   0  0  0  0  0  0  0  0  0  0  0  0
   36.8160   31.1130   40.9450 H   0  0  0  0  0  0  0  0  0  0  0  0
   37.1770   30.7010   42.7040 H   0  0  0  0  0  0  0  0  0  0  0  0
   40.3560   31.8290   42.6180 H   0  0  0  0  0  0  0  0  0  0  0  0
   40.2540   31.8920   41.5710 N   0  0  0  0  0  0  0  0  0  0  0  0
   39.4700   31.1320   40.7780 C   0  0  0  0  0  0  0  0  0  0  0  0
   39.6560   31.5610   39.5100 N   0  0  0  0  0  0  0  0  0  0  0  0
   40.5380   32.5720   39.4930 C   0  0  0  0  0  0  0  0  0  0  0  0
   41.0850   33.3650   38.5030 C   0  0  0  0  0  0  0  0  0  0  0  0
   40.7690   33.1790   37.4810 H   0  0  0  0  0  0  0  0  0  0  0  0
   41.9780   34.3360   38.7920 N   0  0  0  0  0  0  0  0  0  0  0  0
   42.3480   34.5360   40.0840 C   0  0  0  0  0  0  0  0  0  0  0  0
   43.0700   35.3190   40.3200 H   0  0  0  0  0  0  0  0  0  0  0  0
   41.8230   33.7700   41.0570 N   0  0  0  0  0  0  0  0  0  0  0  0
   40.9280   32.7920   40.8000 C   0  0  0  0  0  0  0  0  0  0  0  0
   38.5740   26.8820   36.3300 C   0  0  0  0  0  0  0  0  0  0  0  0
   37.5190   27.8060   36.1320 C   0  0  0  0  0  0  0  0  0  0  0  0
   36.6270   28.0210   37.1360 C   0  0  0  0  0  0  0  0  0  0  0  0
   36.8150   27.3220   38.2810 N   0  0  0  0  0  0  0  0  0  0  0  0
   37.8040   26.4590   38.4600 C   0  0  0  0  0  0  0  0  0  0  0  0
   38.6930   26.2290   37.4940 N   0  0  0  0  0  0  0  0  0  0  0  0
   37.9000   25.7720   39.7210 N   0  0  0  0  0  0  0  0  0  0  0  0
   39.0230   25.0120   40.1330 C   0  0  0  0  0  0  0  0  0  0  0  0
   38.3990   23.8520   40.8870 C   0  0  0  0  0  0  0  0  0  0  0  0
   36.9370   24.1670   41.0010 C   0  0  0  0  0  0  0  0  0  0  0  0
   36.9150   25.6760   40.7700 C   0  0  1  0  0  0  0  0  0  0  0  0
   39.2750   26.7230   35.5200 H   0  0  0  0  0  0  0  0  0  0  0  0
   35.8270   28.7110   37.0070 H   0  0  0  0  0  0  0  0  0  0  0  0
   39.4320   24.5170   39.1950 H   0  0  0  0  0  0  0  0  0  0  0  0
   39.8510   25.3720   40.6510 H   0  0  0  0  0  0  0  0  0  0  0  0
   38.8420   23.8110   41.9230 H   0  0  0  0  0  0  0  0  0  0  0  0
   38.5910   22.8690   40.4580 H   0  0  0  0  0  0  0  0  0  0  0  0
   36.3470   23.6030   40.2760 H   0  0  0  0  0  0  0  0  0  0  0  0
   36.5960   23.9610   42.0500 H   0  0  0  0  0  0  0  0  0  0  0  0
   35.8960   25.9280   40.4340 H   0  0  0  0  0  0  0  0  0  0  0  0
   37.4560   28.4670   34.8590 N   0  0  0  0  0  0  0  0  0  0  0  0
   36.4660   28.5850   34.5070 H   0  0  0  0  0  0  0  0  0  0  0  0
   38.2550   28.8150   34.2970 H   0  0  0  0  0  0  0  0  0  0  0  0
  2  3  2  0  0  0  0
  3  4  1  0  0  0  0
  4  1  1  0  0  0  0
  4  8  1  1  0  0  0
  5  6  1  0  0  0  0
  5  9  1  0  0  0  0
  5  4  1  0  0  0  0
  6 12  1  0  0  0  0
  7  3  1  0  0  0  0
  7  6  1  0  0  0  0
 10  5  1  0  0  0  0
 11  6  1  0  0  0  0
 14 13  1  0  0  0  0
 15  7  1  0  0  0  0
 15 14  1  0  0  0  0
 16 15  2  0  0  0  0
 17 16  1  0  0  0  0
 17 24  1  0  0  0  0
 18 20  1  0  0  0  0
 18 17  2  0  0  0  0
 19 18  1  0  0  0  0
 20 21  2  0  0  0  0
 21 22  1  0  0  0  0
 21 23  1  0  0  0  0
 24 23  2  0  0  0  0
 24 14  1  0  0  0  0
 25 30  1  0  0  0  0
 26 25  2  0  0  0  0
 26 27  1  0  0  0  0
 27 28  2  0  0  0  0
 28 29  1  0  0  0  0
 29 31  1  0  0  0  0
 30 29  2  0  0  0  0
 31 32  1  0  0  0  0
 31 35  1  0  0  0  0
 32 39  1  0  0  0  0
 32 33  1  0  0  0  0
 33 34  1  0  0  0  0
 33 40  1  0  0  0  0
 34 43  1  0  0  0  0
 35 44  1  6  0  0  0
 35 34  1  0  0  0  0
 35  1  1  0  0  0  0
 36 25  1  0  0  0  0
 37 27  1  0  0  0  0
 38 32  1  0  0  0  0
 41 33  1  0  0  0  0
 42 34  1  0  0  0  0
 45 26  1  0  0  0  0
 46 45  1  0  0  0  0
 47 45  1  0  0  0  0
M  END
>  <minimizedAffinity>
-6.04175186

$$$$

 OpenBabel03252506393D

 47 51  0  0  1  0  0  0  0  0999 V2000
   36.7070   30.2620   37.9350 S   0  0  0  0  0  0  0  0  0  0  0  0
   38.2530   31.5690   40.5870 O   0  0  0  0  0  0  0  0  0  0  0  0
   38.7390   31.3300   39.4720 C   0  0  0  0  0  0  0  0  0  0  0  0
   38.3150   30.9160   38.1120 C   0  0  1  0  0  0  0  0  0  0  0  0
   39.4350   29.9940   37.6980 C   0  0  0  0  0  0  0  0  0  0  0  0
   40.6000   30.9430   37.9940 C   0  0  0  0  0  0  0  0  0  0  0  0
   40.1610   31.4520   39.2870 N   0  0  0  0  0  0  0  0  0  0  0  0
   38.5810   31.8500   37.5440 H   0  0  0  0  0  0  0  0  0  0  0  0
   39.4470   29.7830   36.6250 H   0  0  0  0  0  0  0  0  0  0  0  0
   39.5040   29.0920   38.3280 H   0  0  0  0  0  0  0  0  0  0  0  0
   41.5440   30.4090   38.0980 H   0  0  0  0  0  0  0  0  0  0  0  0
   40.6150   31.7390   37.2260 H   0  0  0  0  0  0  0  0  0  0  0  0
   41.1550   34.0730   39.6030 H   0  0  0  0  0  0  0  0  0  0  0  0
   41.5160   33.2950   40.2160 N   0  0  0  0  0  0  0  0  0  0  0  0
   41.1460   31.9970   40.1920 C   0  0  0  0  0  0  0  0  0  0  0  0
   41.8630   31.3650   41.1480 N   0  0  0  0  0  0  0  0  0  0  0  0
   42.6720   32.2390   41.7680 C   0  0  0  0  0  0  0  0  0  0  0  0
   43.5960   32.1480   42.7900 C   0  0  0  0  0  0  0  0  0  0  0  0
   43.7520   31.1720   43.2390 H   0  0  0  0  0  0  0  0  0  0  0  0
   44.2820   33.2300   43.2180 N   0  0  0  0  0  0  0  0  0  0  0  0
   44.0580   34.4340   42.6290 C   0  0  0  0  0  0  0  0  0  0  0  0
   44.6100   35.3090   42.9720 H   0  0  0  0  0  0  0  0  0  0  0  0
   43.1610   34.5360   41.6320 N   0  0  0  0  0  0  0  0  0  0  0  0
   42.4590   33.4720   41.1830 C   0  0  0  0  0  0  0  0  0  0  0  0
   37.4950   27.3940   43.2030 C   0  0  0  0  0  0  0  0  0  0  0  0
   38.7900   26.9570   42.8340 C   0  0  0  0  0  0  0  0  0  0  0  0
   39.1980   27.1000   41.5450 C   0  0  0  0  0  0  0  0  0  0  0  0
   38.3180   27.6640   40.6840 N   0  0  0  0  0  0  0  0  0  0  0  0
   37.1070   28.0710   41.0340 C   0  0  0  0  0  0  0  0  0  0  0  0
   36.6800   27.9440   42.2910 N   0  0  0  0  0  0  0  0  0  0  0  0
   36.2570   28.6530   40.0290 N   0  0  0  0  0  0  0  0  0  0  0  0
   35.0470   29.3380   40.3050 C   0  0  0  0  0  0  0  0  0  0  0  0
   34.1480   28.9340   39.1500 C   0  0  0  0  0  0  0  0  0  0  0  0
   35.0180   28.1790   38.1900 C   0  0  0  0  0  0  0  0  0  0  0  0
   36.4170   28.6360   38.5960 C   0  0  1  0  0  0  0  0  0  0  0  0
   37.1860   27.2730   44.2330 H   0  0  0  0  0  0  0  0  0  0  0  0
   40.1680   26.7780   41.2480 H   0  0  0  0  0  0  0  0  0  0  0  0
   34.5770   28.8060   41.1930 H   0  0  0  0  0  0  0  0  0  0  0  0
   34.9480   30.3560   40.4950 H   0  0  0  0  0  0  0  0  0  0  0  0
   33.7690   29.8650   38.6400 H   0  0  0  0  0  0  0  0  0  0  0  0
   33.2530   28.3830   39.4370 H   0  0  0  0  0  0  0  0  0  0  0  0
   34.8680   27.1010   38.2730 H   0  0  0  0  0  0  0  0  0  0  0  0
   34.8140   28.5380   37.1470 H   0  0  0  0  0  0  0  0  0  0  0  0
   37.1170   27.8600   38.2460 H   0  0  0  0  0  0  0  0  0  0  0  0
   39.6050   26.3780   43.8660 N   0  0  0  0  0  0  0  0  0  0  0  0
   40.1740   25.5560   43.5240 H   0  0  0  0  0  0  0  0  0  0  0  0
   39.6720   26.6870   44.8530 H   0  0  0  0  0  0  0  0  0  0  0  0
  1  4  1  0  0  0  0
  1 35  1  0  0  0  0
  3  2  2  0  0  0  0
  4  8  1  6  0  0  0
  4  3  1  0  0  0  0
  5  6  1  0  0  0  0
  5  4  1  0  0  0  0
  5 10  1  0  0  0  0
  6 11  1  0  0  0  0
  6  7  1  0  0  0  0
  7  3  1  0  0  0  0
  7 15  1  0  0  0  0
  9  5  1  0  0  0  0
 12  6  1  0  0  0  0
 13 14  1  0  0  0  0
 14 24  1  0  0  0  0
 15 14  1  0  0  0  0
 15 16  2  0  0  0  0
 16 17  1  0  0  0  0
 17 18  1  0  0  0  0
 18 20  2  0  0  0  0
 18 19  1  0  0  0  0
 21 22  1  0  0  0  0
 21 20  1  0  0  0  0
 23 21  2  0  0  0  0
 24 23  1  0  0  0  0
 24 17  2  0  0  0  0
 25 36  1  0  0  0  0
 26 25  1  0  0  0  0
 26 45  1  0  0  0  0
 27 26  2  0  0  0  0
 28 29  2  0  0  0  0
 28 27  1  0  0  0  0
 29 30  1  0  0  0  0
 30 25  2  0  0  0  0
 31 32  1  0  0  0  0
 31 29  1  0  0  0  0
 32 39  1  0  0  0  0
 32 38  1  0  0  0  0
 33 41  1  0  0  0  0
 33 32  1  0  0  0  0
 34 42  1  0  0  0  0
 34 35  1  0  0  0  0
 34 33  1  0  0  0  0
 35 44  1  6  0  0  0
 35 31  1  0  0  0  0
 37 27  1  0  0  0  0
 40 33  1  0  0  0  0
 43 34  1  0  0  0  0
 45 47  1  0  0  0  0
 46 45  1  0  0  0  0
M  END
>  <minimizedAffinity>
-6.01897764

$$$$

 OpenBabel03252506393D

 47 51  0  0  1  0  0  0  0  0999 V2000
   37.6470   27.2400   39.5690 S   0  0  0  0  0  0  0  0  0  0  0  0
   35.7120   29.6690   38.3490 O   0  0  0  0  0  0  0  0  0  0  0  0
   35.5020   28.4470   38.3150 C   0  0  0  0  0  0  0  0  0  0  0  0
   36.0520   27.1830   38.8630 C   0  0  1  0  0  0  0  0  0  0  0  0
   35.8960   26.2390   37.6970 C   0  0  0  0  0  0  0  0  0  0  0  0
   34.4110   26.4940   37.4240 C   0  0  0  0  0  0  0  0  0  0  0  0
   34.4030   27.9480   37.5320 N   0  0  0  0  0  0  0  0  0  0  0  0
   35.1870   26.8730   39.5120 H   0  0  0  0  0  0  0  0  0  0  0  0
   36.0030   25.1870   37.9760 H   0  0  0  0  0  0  0  0  0  0  0  0
   36.5030   26.5300   36.8240 H   0  0  0  0  0  0  0  0  0  0  0  0
   34.1230   26.1860   36.4200 H   0  0  0  0  0  0  0  0  0  0  0  0
   33.8150   26.0230   38.2290 H   0  0  0  0  0  0  0  0  0  0  0  0
   31.8600   28.7660   38.4380 H   0  0  0  0  0  0  0  0  0  0  0  0
   32.1720   29.0030   37.4600 N   0  0  0  0  0  0  0  0  0  0  0  0
   33.3490   28.6890   36.8780 C   0  0  0  0  0  0  0  0  0  0  0  0
   33.3160   29.1930   35.6240 N   0  0  0  0  0  0  0  0  0  0  0  0
   32.1470   29.8150   35.4100 C   0  0  0  0  0  0  0  0  0  0  0  0
   31.5880   30.4890   34.3420 C   0  0  0  0  0  0  0  0  0  0  0  0
   32.1800   30.5690   33.4350 H   0  0  0  0  0  0  0  0  0  0  0  0
   30.3520   31.0280   34.4180 N   0  0  0  0  0  0  0  0  0  0  0  0
   29.6430   30.9060   35.5700 C   0  0  0  0  0  0  0  0  0  0  0  0
   28.6450   31.3400   35.6350 H   0  0  0  0  0  0  0  0  0  0  0  0
   30.1760   30.2520   36.6190 N   0  0  0  0  0  0  0  0  0  0  0  0
   31.4090   29.7010   36.5730 C   0  0  0  0  0  0  0  0  0  0  0  0
   42.0400   26.7850   43.7020 C   0  0  0  0  0  0  0  0  0  0  0  0
   42.3710   25.4730   43.2850 C   0  0  0  0  0  0  0  0  0  0  0  0
   41.5420   24.8180   42.4310 C   0  0  0  0  0  0  0  0  0  0  0  0
   40.4320   25.4800   42.0270 N   0  0  0  0  0  0  0  0  0  0  0  0
   40.1260   26.7080   42.4200 C   0  0  0  0  0  0  0  0  0  0  0  0
   40.9210   27.3740   43.2570 N   0  0  0  0  0  0  0  0  0  0  0  0
   38.9150   27.3090   41.9260 N   0  0  0  0  0  0  0  0  0  0  0  0
   38.5880   28.6800   42.0720 C   0  0  0  0  0  0  0  0  0  0  0  0
   37.0880   28.6560   42.3020 C   0  0  0  0  0  0  0  0  0  0  0  0
   36.6540   27.2390   42.0720 C   0  0  0  0  0  0  0  0  0  0  0  0
   37.8100   26.6780   41.2480 C   0  0  1  0  0  0  0  0  0  0  0  0
   42.7120   27.2920   44.3830 H   0  0  0  0  0  0  0  0  0  0  0  0
   41.7730   23.8300   42.1060 H   0  0  0  0  0  0  0  0  0  0  0  0
   38.9960   28.9980   43.0840 H   0  0  0  0  0  0  0  0  0  0  0  0
   38.8360   29.4430   41.4090 H   0  0  0  0  0  0  0  0  0  0  0  0
   36.5910   29.3160   41.5340 H   0  0  0  0  0  0  0  0  0  0  0  0
   36.7650   29.0500   43.2650 H   0  0  0  0  0  0  0  0  0  0  0  0
   36.4900   26.7120   43.0140 H   0  0  0  0  0  0  0  0  0  0  0  0
   35.7280   27.2350   41.4380 H   0  0  0  0  0  0  0  0  0  0  0  0
   37.7880   25.5840   41.3780 H   0  0  0  0  0  0  0  0  0  0  0  0
   43.5860   24.9080   43.8040 N   0  0  0  0  0  0  0  0  0  0  0  0
   43.4940   23.8800   44.0330 H   0  0  0  0  0  0  0  0  0  0  0  0
   44.4850   25.3990   43.9590 H   0  0  0  0  0  0  0  0  0  0  0  0
  1 35  1  0  0  0  0
  3  2  2  0  0  0  0
  3  4  1  0  0  0  0
  4  8  1  1  0  0  0
  4  1  1  0  0  0  0
  5  9  1  0  0  0  0
  5  4  1  0  0  0  0
  6  7  1  0  0  0  0
  6  5  1  0  0  0  0
  6 12  1  0  0  0  0
  7  3  1  0  0  0  0
 10  5  1  0  0  0  0
 11  6  1  0  0  0  0
 14 13  1  0  0  0  0
 15 14  1  0  0  0  0
 15  7  1  0  0  0  0
 16 15  2  0  0  0  0
 17 16  1  0  0  0  0
 17 24  1  0  0  0  0
 18 20  1  0  0  0  0
 18 17  2  0  0  0  0
 19 18  1  0  0  0  0
 20 21  2  0  0  0  0
 21 22  1  0  0  0  0
 21 23  1  0  0  0  0
 24 23  2  0  0  0  0
 24 14  1  0  0  0  0
 25 36  1  0  0  0  0
 26 25  1  0  0  0  0
 26 45  1  0  0  0  0
 27 26  2  0  0  0  0
 28 29  2  0  0  0  0
 28 27  1  0  0  0  0
 29 30  1  0  0  0  0
 30 25  2  0  0  0  0
 31 32  1  0  0  0  0
 31 29  1  0  0  0  0
 32 33  1  0  0  0  0
 32 38  1  0  0  0  0
 33 41  1  0  0  0  0
 34 33  1  0  0  0  0
 34 42  1  0  0  0  0
 35 44  1  1  0  0  0
 35 31  1  0  0  0  0
 35 34  1  0  0  0  0
 37 27  1  0  0  0  0
 39 32  1  0  0  0  0
 40 33  1  0  0  0  0
 43 34  1  0  0  0  0
 45 47  1  0  0  0  0
 45 46  1  0  0  0  0
M  END
>  <minimizedAffinity>
-5.99402046

$$$$

 OpenBabel03252506393D

 47 51  0  0  1  0  0  0  0  0999 V2000
   37.9340   29.4680   40.0220 S   0  0  0  0  0  0  0  0  0  0  0  0
   35.1400   28.1060   38.8090 O   0  0  0  0  0  0  0  0  0  0  0  0
   36.0100   28.7300   38.1820 C   0  0  0  0  0  0  0  0  0  0  0  0
   37.3640   29.3010   38.3800 C   0  0  1  0  0  0  0  0  0  0  0  0
   37.2850   30.5840   37.5910 C   0  0  0  0  0  0  0  0  0  0  0  0
   36.7790   29.9850   36.2760 C   0  0  0  0  0  0  0  0  0  0  0  0
   35.7650   29.0830   36.8090 N   0  0  0  0  0  0  0  0  0  0  0  0
   37.9450   28.6460   37.6740 H   0  0  0  0  0  0  0  0  0  0  0  0
   38.2640   31.0310   37.3940 H   0  0  0  0  0  0  0  0  0  0  0  0
   36.5480   31.2950   38.0000 H   0  0  0  0  0  0  0  0  0  0  0  0
   36.3190   30.7370   35.6360 H   0  0  0  0  0  0  0  0  0  0  0  0
   37.6070   29.4280   35.7970 H   0  0  0  0  0  0  0  0  0  0  0  0
   35.5200   26.8790   35.0660 H   0  0  0  0  0  0  0  0  0  0  0  0
   34.7260   27.5650   35.1620 N   0  0  0  0  0  0  0  0  0  0  0  0
   34.6840   28.6630   35.9470 C   0  0  0  0  0  0  0  0  0  0  0  0
   33.4780   29.2410   35.7530 N   0  0  0  0  0  0  0  0  0  0  0  0
   32.7660   28.5300   34.8650 C   0  0  0  0  0  0  0  0  0  0  0  0
   31.5070   28.6540   34.3100 C   0  0  0  0  0  0  0  0  0  0  0  0
   30.9030   29.5000   34.6220 H   0  0  0  0  0  0  0  0  0  0  0  0
   31.0420   27.7570   33.4130 N   0  0  0  0  0  0  0  0  0  0  0  0
   31.8290   26.7110   33.0490 C   0  0  0  0  0  0  0  0  0  0  0  0
   31.4560   25.9860   32.3260 H   0  0  0  0  0  0  0  0  0  0  0  0
   33.0570   26.5790   33.5830 N   0  0  0  0  0  0  0  0  0  0  0  0
   33.5500   27.4590   34.4810 C   0  0  0  0  0  0  0  0  0  0  0  0
   41.6620   34.0820   38.8390 C   0  0  0  0  0  0  0  0  0  0  0  0
   41.9980   33.5570   37.5680 C   0  0  0  0  0  0  0  0  0  0  0  0
   41.6210   32.2900   37.2520 C   0  0  0  0  0  0  0  0  0  0  0  0
   40.9350   31.6020   38.1950 N   0  0  0  0  0  0  0  0  0  0  0  0
   40.6240   32.0980   39.3840 C   0  0  0  0  0  0  0  0  0  0  0  0
   40.9800   33.3370   39.7210 N   0  0  0  0  0  0  0  0  0  0  0  0
   39.8950   31.2700   40.3070 N   0  0  0  0  0  0  0  0  0  0  0  0
   39.2980   31.7420   41.5030 C   0  0  0  0  0  0  0  0  0  0  0  0
   39.5140   30.5960   42.4750 C   0  0  0  0  0  0  0  0  0  0  0  0
   40.0680   29.4620   41.6650 C   0  0  0  0  0  0  0  0  0  0  0  0
   39.6560   29.8480   40.2460 C   0  0  1  0  0  0  0  0  0  0  0  0
   41.9700   35.0930   39.0750 H   0  0  0  0  0  0  0  0  0  0  0  0
   41.8640   31.8770   36.3000 H   0  0  0  0  0  0  0  0  0  0  0  0
   39.9880   32.5510   41.9040 H   0  0  0  0  0  0  0  0  0  0  0  0
   38.3310   32.1150   41.6000 H   0  0  0  0  0  0  0  0  0  0  0  0
   38.5170   30.2840   42.8990 H   0  0  0  0  0  0  0  0  0  0  0  0
   40.1270   30.8390   43.3420 H   0  0  0  0  0  0  0  0  0  0  0  0
   41.1470   29.3630   41.7970 H   0  0  0  0  0  0  0  0  0  0  0  0
   39.5360   28.5140   41.9450 H   0  0  0  0  0  0  0  0  0  0  0  0
   40.3430   29.3220   39.5640 H   0  0  0  0  0  0  0  0  0  0  0  0
   42.7290   34.4140   36.6770 N   0  0  0  0  0  0  0  0  0  0  0  0
   43.4660   33.8960   36.1230 H   0  0  0  0  0  0  0  0  0  0  0  0
   42.5980   35.4340   36.5450 H   0  0  0  0  0  0  0  0  0  0  0  0
  1 35  1  0  0  0  0
  3  4  1  0  0  0  0
  3  2  2  0  0  0  0
  4  8  1  6  0  0  0
  4  1  1  0  0  0  0
  5 10  1  0  0  0  0
  5  4  1  0  0  0  0
  6  7  1  0  0  0  0
  6  5  1  0  0  0  0
  7  3  1  0  0  0  0
  9  5  1  0  0  0  0
 11  6  1  0  0  0  0
 12  6  1  0  0  0  0
 13 14  1  0  0  0  0
 14 15  1  0  0  0  0
 15  7  1  0  0  0  0
 16 15  2  0  0  0  0
 17 16  1  0  0  0  0
 18 19  1  0  0  0  0
 18 17  2  0  0  0  0
 20 18  1  0  0  0  0
 21 20  2  0  0  0  0
 21 23  1  0  0  0  0
 22 21  1  0  0  0  0
 23 24  2  0  0  0  0
 24 17  1  0  0  0  0
 24 14  1  0  0  0  0
 25 36  1  0  0  0  0
 25 30  1  0  0  0  0
 26 25  2  0  0  0  0
 27 26  1  0  0  0  0
 27 28  2  0  0  0  0
 28 29  1  0  0  0  0
 29 30  2  0  0  0  0
 29 31  1  0  0  0  0
 31 32  1  0  0  0  0
 32 39  1  0  0  0  0
 32 38  1  0  0  0  0
 32 33  1  0  0  0  0
 33 40  1  0  0  0  0
 33 41  1  0  0  0  0
 34 42  1  0  0  0  0
 34 43  1  0  0  0  0
 34 33  1  0  0  0  0
 35 44  1  6  0  0  0
 35 31  1  0  0  0  0
 35 34  1  0  0  0  0
 37 27  1  0  0  0  0
 45 26  1  0  0  0  0
 46 45  1  0  0  0  0
 47 45  1  0  0  0  0
M  END
>  <minimizedAffinity>
-5.85131979

$$$$

 OpenBabel03252506393D

 47 51  0  0  1  0  0  0  0  0999 V2000
   38.5280   24.9900   41.8090 S   0  0  0  0  0  0  0  0  0  0  0  0
   39.0400   27.7560   40.0150 O   0  0  0  0  0  0  0  0  0  0  0  0
   38.5860   27.6760   41.1660 C   0  0  0  0  0  0  0  0  0  0  0  0
   38.3850   26.6750   42.2420 C   0  0  1  0  0  0  0  0  0  0  0  0
   37.0470   27.0840   42.8080 C   0  0  0  0  0  0  0  0  0  0  0  0
   37.3700   28.5620   43.0460 C   0  0  0  0  0  0  0  0  0  0  0  0
   38.0470   28.8560   41.7890 N   0  0  0  0  0  0  0  0  0  0  0  0
   39.0860   27.0920   43.0160 H   0  0  0  0  0  0  0  0  0  0  0  0
   36.8340   26.6320   43.7810 H   0  0  0  0  0  0  0  0  0  0  0  0
   36.2240   26.9810   42.0820 H   0  0  0  0  0  0  0  0  0  0  0  0
   36.4680   29.1650   43.1410 H   0  0  0  0  0  0  0  0  0  0  0  0
   38.0590   28.6410   43.9090 H   0  0  0  0  0  0  0  0  0  0  0  0
   39.9370   30.8990   42.2470 H   0  0  0  0  0  0  0  0  0  0  0  0
   39.0920   31.0880   41.6460 N   0  0  0  0  0  0  0  0  0  0  0  0
   38.1020   30.2250   41.3320 C   0  0  0  0  0  0  0  0  0  0  0  0
   37.2310   30.8930   40.5430 N   0  0  0  0  0  0  0  0  0  0  0  0
   37.6550   32.1530   40.3570 C   0  0  0  0  0  0  0  0  0  0  0  0
   37.1740   33.2450   39.6620 C   0  0  0  0  0  0  0  0  0  0  0  0
   36.2420   33.1220   39.1190 H   0  0  0  0  0  0  0  0  0  0  0  0
   37.8340   34.4230   39.6550 N   0  0  0  0  0  0  0  0  0  0  0  0
   38.9980   34.5360   40.3480 C   0  0  0  0  0  0  0  0  0  0  0  0
   39.5340   35.4860   40.3440 H   0  0  0  0  0  0  0  0  0  0  0  0
   39.4780   33.4800   41.0290 N   0  0  0  0  0  0  0  0  0  0  0  0
   38.8390   32.2900   41.0550 C   0  0  0  0  0  0  0  0  0  0  0  0
   36.7200   26.3140   36.1900 C   0  0  0  0  0  0  0  0  0  0  0  0
   35.6980   27.1720   36.6620 C   0  0  0  0  0  0  0  0  0  0  0  0
   35.3880   27.1710   37.9860 C   0  0  0  0  0  0  0  0  0  0  0  0
   36.0950   26.3310   38.7790 N   0  0  0  0  0  0  0  0  0  0  0  0
   37.0510   25.5300   38.3320 C   0  0  0  0  0  0  0  0  0  0  0  0
   37.3760   25.5100   37.0400 N   0  0  0  0  0  0  0  0  0  0  0  0
   37.7310   24.6780   39.2710 N   0  0  0  0  0  0  0  0  0  0  0  0
   38.9150   23.9550   38.9800 C   0  0  0  0  0  0  0  0  0  0  0  0
   38.7220   22.6540   39.7380 C   0  0  0  0  0  0  0  0  0  0  0  0
   37.4890   22.8360   40.5710 C   0  0  0  0  0  0  0  0  0  0  0  0
   37.3600   24.3560   40.6270 C   0  0  1  0  0  0  0  0  0  0  0  0
   36.9540   26.3270   35.1330 H   0  0  0  0  0  0  0  0  0  0  0  0
   34.6220   27.8090   38.3610 H   0  0  0  0  0  0  0  0  0  0  0  0
   38.8310   23.6330   37.8940 H   0  0  0  0  0  0  0  0  0  0  0  0
   39.8900   24.2990   39.1030 H   0  0  0  0  0  0  0  0  0  0  0  0
   39.6030   22.4980   40.4240 H   0  0  0  0  0  0  0  0  0  0  0  0
   38.6870   21.7610   39.1150 H   0  0  0  0  0  0  0  0  0  0  0  0
   36.6250   22.3390   40.1240 H   0  0  0  0  0  0  0  0  0  0  0  0
   37.6840   22.4550   41.6080 H   0  0  0  0  0  0  0  0  0  0  0  0
   36.3040   24.5750   40.8520 H   0  0  0  0  0  0  0  0  0  0  0  0
   35.0400   28.0030   35.6930 N   0  0  0  0  0  0  0  0  0  0  0  0
   34.0020   28.0940   35.8690 H   0  0  0  0  0  0  0  0  0  0  0  0
   35.4790   28.4880   34.8890 H   0  0  0  0  0  0  0  0  0  0  0  0
  1  4  1  0  0  0  0
  2  3  2  0  0  0  0
  3  7  1  0  0  0  0
  3  4  1  0  0  0  0
  4  5  1  0  0  0  0
  4  8  1  1  0  0  0
  5  6  1  0  0  0  0
  5  9  1  0  0  0  0
  6 11  1  0  0  0  0
  6 12  1  0  0  0  0
  7  6  1  0  0  0  0
 10  5  1  0  0  0  0
 14 13  1  0  0  0  0
 15 14  1  0  0  0  0
 15  7  1  0  0  0  0
 16 15  2  0  0  0  0
 17 16  1  0  0  0  0
 17 24  1  0  0  0  0
 18 17  2  0  0  0  0
 19 18  1  0  0  0  0
 20 18  1  0  0  0  0
 20 21  2  0  0  0  0
 21 23  1  0  0  0  0
 22 21  1  0  0  0  0
 23 24  2  0  0  0  0
 24 14  1  0  0  0  0
 25 26  2  0  0  0  0
 25 30  1  0  0  0  0
 26 27  1  0  0  0  0
 27 37  1  0  0  0  0
 27 28  2  0  0  0  0
 29 28  1  0  0  0  0
 29 31  1  0  0  0  0
 30 29  2  0  0  0  0
 31 35  1  0  0  0  0
 32 39  1  0  0  0  0
 32 31  1  0  0  0  0
 32 33  1  0  0  0  0
 33 40  1  0  0  0  0
 33 34  1  0  0  0  0
 34 35  1  0  0  0  0
 34 43  1  0  0  0  0
 35 44  1  1  0  0  0
 35  1  1  0  0  0  0
 36 25  1  0  0  0  0
 38 32  1  0  0  0  0
 41 33  1  0  0  0  0
 42 34  1  0  0  0  0
 45 46  1  0  0  0  0
 45 26  1  0  0  0  0
 47 45  1  0  0  0  0
M  END
>  <minimizedAffinity>
-5.8396101

$$$$

 OpenBabel03252506393D

 47 51  0  0  1  0  0  0  0  0999 V2000
   37.8280   26.6710   41.4120 S   0  0  0  0  0  0  0  0  0  0  0  0
   35.2960   28.4070   40.1060 O   0  0  0  0  0  0  0  0  0  0  0  0
   35.9180   27.4700   39.5830 C   0  0  0  0  0  0  0  0  0  0  0  0
   36.9340   26.4460   39.9300 C   0  0  1  0  0  0  0  0  0  0  0  0
   37.7690   26.3920   38.6750 C   0  0  0  0  0  0  0  0  0  0  0  0
   36.6270   26.1790   37.6780 C   0  0  0  0  0  0  0  0  0  0  0  0
   35.6800   27.1580   38.1990 N   0  0  0  0  0  0  0  0  0  0  0  0
   36.3070   25.5190   39.8150 H   0  0  0  0  0  0  0  0  0  0  0  0
   38.4180   25.5130   38.6250 H   0  0  0  0  0  0  0  0  0  0  0  0
   38.2920   27.3400   38.4650 H   0  0  0  0  0  0  0  0  0  0  0  0
   36.9200   26.4380   36.6620 H   0  0  0  0  0  0  0  0  0  0  0  0
   36.2460   25.1460   37.7890 H   0  0  0  0  0  0  0  0  0  0  0  0
   33.0650   26.2630   37.6380 H   0  0  0  0  0  0  0  0  0  0  0  0
   33.4410   27.1240   37.1600 N   0  0  0  0  0  0  0  0  0  0  0  0
   34.6620   27.6790   37.3170 C   0  0  0  0  0  0  0  0  0  0  0  0
   34.7080   28.7640   36.5110 N   0  0  0  0  0  0  0  0  0  0  0  0
   33.5450   28.8980   35.8560 C   0  0  0  0  0  0  0  0  0  0  0  0
   33.0510   29.7990   34.9330 C   0  0  0  0  0  0  0  0  0  0  0  0
   33.7040   30.6100   34.6250 H   0  0  0  0  0  0  0  0  0  0  0  0
   31.8030   29.6800   34.4310 N   0  0  0  0  0  0  0  0  0  0  0  0
   31.0160   28.6510   34.8420 C   0  0  0  0  0  0  0  0  0  0  0  0
   30.0080   28.5520   34.4390 H   0  0  0  0  0  0  0  0  0  0  0  0
   31.4860   27.7660   35.7410 N   0  0  0  0  0  0  0  0  0  0  0  0
   32.7290   27.8590   36.2610 C   0  0  0  0  0  0  0  0  0  0  0  0
   38.6540   32.0890   38.8530 C   0  0  0  0  0  0  0  0  0  0  0  0
   39.3260   31.5230   37.7430 C   0  0  0  0  0  0  0  0  0  0  0  0
   39.7030   30.2180   37.7890 C   0  0  0  0  0  0  0  0  0  0  0  0
   39.4020   29.5340   38.9180 N   0  0  0  0  0  0  0  0  0  0  0  0
   38.7730   30.0680   39.9540 C   0  0  0  0  0  0  0  0  0  0  0  0
   38.3910   31.3450   39.9370 N   0  0  0  0  0  0  0  0  0  0  0  0
   38.5110   29.2420   41.1030 N   0  0  0  0  0  0  0  0  0  0  0  0
   37.6520   29.6070   42.1700 C   0  0  0  0  0  0  0  0  0  0  0  0
   38.3520   29.0370   43.3900 C   0  0  0  0  0  0  0  0  0  0  0  0
   39.4900   28.2100   42.8690 C   0  0  0  0  0  0  0  0  0  0  0  0
   39.0630   27.9490   41.4260 C   0  0  1  0  0  0  0  0  0  0  0  0
   38.3610   33.1300   38.7990 H   0  0  0  0  0  0  0  0  0  0  0  0
   40.2110   29.7740   36.9640 H   0  0  0  0  0  0  0  0  0  0  0  0
   37.7740   30.7290   42.3050 H   0  0  0  0  0  0  0  0  0  0  0  0
   36.6290   29.4210   42.2250 H   0  0  0  0  0  0  0  0  0  0  0  0
   37.6360   28.3620   43.9390 H   0  0  0  0  0  0  0  0  0  0  0  0
   38.6660   29.7770   44.1250 H   0  0  0  0  0  0  0  0  0  0  0  0
   40.4420   28.7360   42.9570 H   0  0  0  0  0  0  0  0  0  0  0  0
   39.5150   27.2310   43.4170 H   0  0  0  0  0  0  0  0  0  0  0  0
   39.9820   27.7160   40.8640 H   0  0  0  0  0  0  0  0  0  0  0  0
   39.5730   32.3820   36.6180 N   0  0  0  0  0  0  0  0  0  0  0  0
   40.5170   32.2150   36.1740 H   0  0  0  0  0  0  0  0  0  0  0  0
   38.9360   33.1050   36.2350 H   0  0  0  0  0  0  0  0  0  0  0  0
  1 35  1  0  0  0  0
  3  4  1  0  0  0  0
  3  2  2  0  0  0  0
  4  8  1  1  0  0  0
  4  1  1  0  0  0  0
  5  4  1  0  0  0  0
  6 12  1  0  0  0  0
  6  7  1  0  0  0  0
  6  5  1  0  0  0  0
  7  3  1  0  0  0  0
  9  5  1  0  0  0  0
 10  5  1  0  0  0  0
 11  6  1  0  0  0  0
 14 15  1  0  0  0  0
 14 13  1  0  0  0  0
 15  7  1  0  0  0  0
 16 15  2  0  0  0  0
 17 24  1  0  0  0  0
 17 16  1  0  0  0  0
 18 17  2  0  0  0  0
 19 18  1  0  0  0  0
 20 21  2  0  0  0  0
 20 18  1  0  0  0  0
 21 23  1  0  0  0  0
 22 21  1  0  0  0  0
 23 24  2  0  0  0  0
 24 14  1  0  0  0  0
 25 30  1  0  0  0  0
 26 27  1  0  0  0  0
 26 25  2  0  0  0  0
 27 28  2  0  0  0  0
 28 29  1  0  0  0  0
 29 31  1  0  0  0  0
 30 29  2  0  0  0  0
 31 35  1  0  0  0  0
 31 32  1  0  0  0  0
 32 39  1  0  0  0  0
 32 38  1  0  0  0  0
 32 33  1  0  0  0  0
 33 40  1  0  0  0  0
 33 41  1  0  0  0  0
 34 42  1  0  0  0  0
 34 33  1  0  0  0  0
 34 43  1  0  0  0  0
 35 44  1  6  0  0  0
 35 34  1  0  0  0  0
 36 25  1  0  0  0  0
 37 27  1  0  0  0  0
 45 26  1  0  0  0  0
 46 45  1  0  0  0  0
 47 45  1  0  0  0  0
M  END
>  <minimizedAffinity>
-5.7607317

$$$$

 OpenBabel03252506393D

 47 51  0  0  1  0  0  0  0  0999 V2000
   35.8400   27.2970   38.3920 S   0  0  0  0  0  0  0  0  0  0  0  0
   39.1180   27.1740   39.0030 O   0  0  0  0  0  0  0  0  0  0  0  0
   38.1930   27.0650   39.8210 C   0  0  0  0  0  0  0  0  0  0  0  0
   36.7160   26.9310   39.8570 C   0  0  1  0  0  0  0  0  0  0  0  0
   36.3500   27.7730   41.0540 C   0  0  0  0  0  0  0  0  0  0  0  0
   37.3050   27.1240   42.0590 C   0  0  0  0  0  0  0  0  0  0  0  0
   38.5000   27.0480   41.2270 N   0  0  0  0  0  0  0  0  0  0  0  0
   36.6350   25.8940   40.2860 H   0  0  0  0  0  0  0  0  0  0  0  0
   35.3300   27.5990   41.4090 H   0  0  0  0  0  0  0  0  0  0  0  0
   36.5970   28.8390   40.9210 H   0  0  0  0  0  0  0  0  0  0  0  0
   37.4840   27.7640   42.9220 H   0  0  0  0  0  0  0  0  0  0  0  0
   36.9230   26.1180   42.3150 H   0  0  0  0  0  0  0  0  0  0  0  0
   40.0320   24.8300   42.0580 H   0  0  0  0  0  0  0  0  0  0  0  0
   40.3960   25.8080   42.2060 N   0  0  0  0  0  0  0  0  0  0  0  0
   39.7910   26.9670   41.8680 C   0  0  0  0  0  0  0  0  0  0  0  0
   40.6190   27.9680   42.2450 N   0  0  0  0  0  0  0  0  0  0  0  0
   41.7250   27.4600   42.8090 C   0  0  0  0  0  0  0  0  0  0  0  0
   42.8700   28.0040   43.3580 C   0  0  0  0  0  0  0  0  0  0  0  0
   42.9570   29.0870   43.3650 H   0  0  0  0  0  0  0  0  0  0  0  0
   43.8470   27.2230   43.8670 N   0  0  0  0  0  0  0  0  0  0  0  0
   43.7000   25.8720   43.8390 C   0  0  0  0  0  0  0  0  0  0  0  0
   44.4870   25.2390   44.2490 H   0  0  0  0  0  0  0  0  0  0  0  0
   42.5900   25.3300   43.3070 N   0  0  0  0  0  0  0  0  0  0  0  0
   41.5960   26.0850   42.7900 C   0  0  0  0  0  0  0  0  0  0  0  0
   38.7580   32.5550   39.0460 C   0  0  0  0  0  0  0  0  0  0  0  0
   38.1900   32.7740   40.3240 C   0  0  0  0  0  0  0  0  0  0  0  0
   37.1680   31.9810   40.7420 C   0  0  0  0  0  0  0  0  0  0  0  0
   36.7550   31.0140   39.8880 N   0  0  0  0  0  0  0  0  0  0  0  0
   37.2900   30.8130   38.6930 C   0  0  0  0  0  0  0  0  0  0  0  0
   38.2930   31.5750   38.2570 N   0  0  0  0  0  0  0  0  0  0  0  0
   36.7640   29.7560   37.8710 N   0  0  0  0  0  0  0  0  0  0  0  0
   37.3840   29.2810   36.6870 C   0  0  0  0  0  0  0  0  0  0  0  0
   36.2070   28.9760   35.7780 C   0  0  0  0  0  0  0  0  0  0  0  0
   34.9770   29.1340   36.6210 C   0  0  0  0  0  0  0  0  0  0  0  0
   35.5390   29.0120   38.0360 C   0  0  1  0  0  0  0  0  0  0  0  0
   39.5710   33.1960   38.7280 H   0  0  0  0  0  0  0  0  0  0  0  0
   36.7280   32.1300   41.7000 H   0  0  0  0  0  0  0  0  0  0  0  0
   37.8600   30.1870   36.1940 H   0  0  0  0  0  0  0  0  0  0  0  0
   38.0890   28.5180   36.6290 H   0  0  0  0  0  0  0  0  0  0  0  0
   36.2780   27.9040   35.4380 H   0  0  0  0  0  0  0  0  0  0  0  0
   36.1730   29.5630   34.8610 H   0  0  0  0  0  0  0  0  0  0  0  0
   34.4770   30.0840   36.4280 H   0  0  0  0  0  0  0  0  0  0  0  0
   34.2890   28.2670   36.4350 H   0  0  0  0  0  0  0  0  0  0  0  0
   34.8170   29.5080   38.7050 H   0  0  0  0  0  0  0  0  0  0  0  0
   38.7410   33.8420   41.1120 N   0  0  0  0  0  0  0  0  0  0  0  0
   38.0030   34.3760   41.6490 H   0  0  0  0  0  0  0  0  0  0  0  0
   39.7390   34.1090   41.1870 H   0  0  0  0  0  0  0  0  0  0  0  0
  1  4  1  0  0  0  0
  2  3  2  0  0  0  0
  3  4  1  0  0  0  0
  3  7  1  0  0  0  0
  4  8  1  1  0  0  0
  4  5  1  0  0  0  0
  5  9  1  0  0  0  0
  5  6  1  0  0  0  0
  6 12  1  0  0  0  0
  6 11  1  0  0  0  0
  7 15  1  0  0  0  0
  7  6  1  0  0  0  0
 10  5  1  0  0  0  0
 13 14  1  0  0  0  0
 14 24  1  0  0  0  0
 15 14  1  0  0  0  0
 15 16  2  0  0  0  0
 16 17  1  0  0  0  0
 17 18  1  0  0  0  0
 18 19  1  0  0  0  0
 18 20  2  0  0  0  0
 21 20  1  0  0  0  0
 21 22  1  0  0  0  0
 23 21  2  0  0  0  0
 24 17  2  0  0  0  0
 24 23  1  0  0  0  0
 25 26  1  0  0  0  0
 26 27  2  0  0  0  0
 26 45  1  0  0  0  0
 27 37  1  0  0  0  0
 28 27  1  0  0  0  0
 29 28  2  0  0  0  0
 30 29  1  0  0  0  0
 30 25  2  0  0  0  0
 31 35  1  0  0  0  0
 31 29  1  0  0  0  0
 32 31  1  0  0  0  0
 33 34  1  0  0  0  0
 33 32  1  0  0  0  0
 34 35  1  0  0  0  0
 35  1  1  0  0  0  0
 35 44  1  1  0  0  0
 36 25  1  0  0  0  0
 38 32  1  0  0  0  0
 39 32  1  0  0  0  0
 40 33  1  0  0  0  0
 41 33  1  0  0  0  0
 42 34  1  0  0  0  0
 43 34  1  0  0  0  0
 45 47  1  0  0  0  0
 45 46  1  0  0  0  0
M  END
>  <minimizedAffinity>
-5.74686432

$$$$
