
 OpenBabel03252506383D

 47 51  0  0  1  0  0  0  0  0999 V2000
   46.7650   30.0190   46.5630 S   0  0  0  0  0  0  0  0  0  0  0  0
   45.4780   30.5500   43.5310 O   0  0  0  0  0  0  0  0  0  0  0  0
   44.9440   29.9680   44.4870 C   0  0  0  0  0  0  0  0  0  0  0  0
   45.1690   29.7080   45.9300 C   0  0  1  0  0  0  0  0  0  0  0  0
   44.6830   28.2880   46.0760 C   0  0  0  0  0  0  0  0  0  0  0  0
   43.3070   28.4750   45.4310 C   0  0  0  0  0  0  0  0  0  0  0  0
   43.6990   29.2770   44.2780 N   0  0  0  0  0  0  0  0  0  0  0  0
   44.3000   30.2810   46.3580 H   0  0  0  0  0  0  0  0  0  0  0  0
   44.5210   27.9910   47.1160 H   0  0  0  0  0  0  0  0  0  0  0  0
   45.2840   27.5670   45.4970 H   0  0  0  0  0  0  0  0  0  0  0  0
   42.8770   27.5290   45.1060 H   0  0  0  0  0  0  0  0  0  0  0  0
   42.6630   29.0490   46.1260 H   0  0  0  0  0  0  0  0  0  0  0  0
   42.8330   27.2020   42.5780 H   0  0  0  0  0  0  0  0  0  0  0  0
   42.5200   28.1920   42.4010 N   0  0  0  0  0  0  0  0  0  0  0  0
   42.8420   29.2910   43.1160 C   0  0  0  0  0  0  0  0  0  0  0  0
   42.2170   30.3380   42.5320 N   0  0  0  0  0  0  0  0  0  0  0  0
   41.5140   29.9180   41.4680 C   0  0  0  0  0  0  0  0  0  0  0  0
   40.7100   30.5370   40.5310 C   0  0  0  0  0  0  0  0  0  0  0  0
   40.5750   31.6100   40.6190 H   0  0  0  0  0  0  0  0  0  0  0  0
   40.1130   29.8360   39.5420 N   0  0  0  0  0  0  0  0  0  0  0  0
   40.3080   28.4930   39.4680 C   0  0  0  0  0  0  0  0  0  0  0  0
   39.8270   27.9250   38.6710 H   0  0  0  0  0  0  0  0  0  0  0  0
   41.0890   27.8780   40.3750 N   0  0  0  0  0  0  0  0  0  0  0  0
   41.6990   28.5510   41.3750 C   0  0  0  0  0  0  0  0  0  0  0  0
   44.5260   35.4590   45.1540 C   0  0  0  0  0  0  0  0  0  0  0  0
   45.2000   35.4750   43.9090 C   0  0  0  0  0  0  0  0  0  0  0  0
   46.1490   34.5350   43.6560 C   0  0  0  0  0  0  0  0  0  0  0  0
   46.3890   33.6280   44.6320 N   0  0  0  0  0  0  0  0  0  0  0  0
   45.7550   33.6180   45.7960 C   0  0  0  0  0  0  0  0  0  0  0  0
   44.8200   34.5260   46.0720 N   0  0  0  0  0  0  0  0  0  0  0  0
   46.0990   32.6060   46.7590 N   0  0  0  0  0  0  0  0  0  0  0  0
   45.3500   32.3320   47.9310 C   0  0  0  0  0  0  0  0  0  0  0  0
   46.4190   32.0030   48.9570 C   0  0  0  0  0  0  0  0  0  0  0  0
   47.7130   31.9340   48.2030 C   0  0  0  0  0  0  0  0  0  0  0  0
   47.2380   31.7210   46.7680 C   0  0  1  0  0  0  0  0  0  0  0  0
   43.7720   36.2140   45.3400 H   0  0  0  0  0  0  0  0  0  0  0  0
   46.6680   34.5310   42.7260 H   0  0  0  0  0  0  0  0  0  0  0  0
   44.9490   33.3320   48.2920 H   0  0  0  0  0  0  0  0  0  0  0  0
   44.5590   31.6600   48.0100 H   0  0  0  0  0  0  0  0  0  0  0  0
   46.2020   30.9880   49.3970 H   0  0  0  0  0  0  0  0  0  0  0  0
   46.4590   32.6790   49.8100 H   0  0  0  0  0  0  0  0  0  0  0  0
   48.3060   32.8410   48.3380 H   0  0  0  0  0  0  0  0  0  0  0  0
   48.2830   31.0240   48.5290 H   0  0  0  0  0  0  0  0  0  0  0  0
   48.0560   32.0600   46.1110 H   0  0  0  0  0  0  0  0  0  0  0  0
   44.8310   36.5040   42.9770 N   0  0  0  0  0  0  0  0  0  0  0  0
   45.6600   36.8930   42.4490 H   0  0  0  0  0  0  0  0  0  0  0  0
   43.8780   36.8670   42.7960 H   0  0  0  0  0  0  0  0  0  0  0  0
  1 35  1  0  0  0  0
  2  3  2  0  0  0  0
  3  4  1  0  0  0  0
  4  5  1  0  0  0  0
  4  8  1  1  0  0  0
  4  1  1  0  0  0  0
  5  9  1  0  0  0  0
  6  5  1  0  0  0  0
  6 12  1  0  0  0  0
  7  3  1  0  0  0  0
  7  6  1  0  0  0  0
 10  5  1  0  0  0  0
 11  6  1  0  0  0  0
 14 13  1  0  0  0  0
 14 15  1  0  0  0  0
 15  7  1  0  0  0  0
 16 15  2  0  0  0  0
 17 16  1  0  0  0  0
 18 19  1  0  0  0  0
 18 17  2  0  0  0  0
 20 18  1  0  0  0  0
 21 20  2  0  0  0  0
 21 23  1  0  0  0  0
 22 21  1  0  0  0  0
 23 24  2  0  0  0  0
 24 17  1  0  0  0  0
 24 14  1  0  0  0  0
 25 36  1  0  0  0  0
 25 30  1  0  0  0  0
 26 25  2  0  0  0  0
 27 26  1  0  0  0  0
 27 28  2  0  0  0  0
 28 29  1  0  0  0  0
 29 30  2  0  0  0  0
 29 31  1  0  0  0  0
 31 35  1  0  0  0  0
 31 32  1  0  0  0  0
 32 39  1  0  0  0  0
 32 38  1  0  0  0  0
 32 33  1  0  0  0  0
 33 40  1  0  0  0  0
 33 41  1  0  0  0  0
 34 42  1  0  0  0  0
 34 43  1  0  0  0  0
 34 33  1  0  0  0  0
 35 44  1  6  0  0  0
 35 34  1  0  0  0  0
 37 27  1  0  0  0  0
 45 26  1  0  0  0  0
 46 45  1  0  0  0  0
 47 45  1  0  0  0  0
M  END
>  <minimizedAffinity>
-5.84692955

>  <minimizedRMSD>
0.293161899

$$$$
