
 OpenBabel03252508073D

 47 51  0  0  0  0  0  0  0  0999 V2000
   45.1690   35.6040   43.1570 C   0  0  0  0  0  0  0  0  0  0  0  0
   45.5340   34.2680   43.2150 C   0  0  0  0  0  0  0  0  0  0  0  0
   45.4270   33.5780   44.3970 C   0  0  0  0  0  0  0  0  0  0  0  0
   44.9480   34.2780   45.4880 N   0  0  0  0  0  0  0  0  0  0  0  0
   44.6000   35.5610   45.4260 C   0  0  0  0  0  0  0  0  0  0  0  0
   44.7170   36.2140   44.2500 N   0  0  0  0  0  0  0  0  0  0  0  0
   45.2250   36.2090   42.2740 H   0  0  0  0  0  0  0  0  0  0  0  0
   44.2320   36.0530   46.3210 H   0  0  0  0  0  0  0  0  0  0  0  0
   45.7560   32.2200   44.6210 C   0  0  0  0  0  0  0  0  0  0  0  0
   45.4050   31.1780   43.7590 C   0  0  0  0  0  0  0  0  0  0  0  0
   45.6620   29.8560   44.0060 C   0  0  0  0  0  0  0  0  0  0  0  0
   46.3060   29.4920   45.1680 C   0  0  0  0  0  0  0  0  0  0  0  0
   46.6730   30.5370   46.0600 C   0  0  0  0  0  0  0  0  0  0  0  0
   47.3130   30.1860   47.2200 C   0  0  0  0  0  0  0  0  0  0  0  0
   47.6990   31.1530   48.1270 C   0  0  0  0  0  0  0  0  0  0  0  0
   47.4320   32.5050   47.8510 C   0  0  0  0  0  0  0  0  0  0  0  0
   46.7720   32.8130   46.6470 C   0  0  0  0  0  0  0  0  0  0  0  0
   46.3980   31.8330   45.7690 C   0  0  0  0  0  0  0  0  0  0  0  0
   44.8950   31.4750   42.8430 H   0  0  0  0  0  0  0  0  0  0  0  0
   45.3410   29.1360   43.2600 H   0  0  0  0  0  0  0  0  0  0  0  0
   46.5100   28.4650   45.3710 H   0  0  0  0  0  0  0  0  0  0  0  0
   47.5130   29.1390   47.4180 H   0  0  0  0  0  0  0  0  0  0  0  0
   48.1910   30.8020   49.0100 H   0  0  0  0  0  0  0  0  0  0  0  0
   47.7710   33.1740   48.6120 H   0  0  0  0  0  0  0  0  0  0  0  0
   46.6820   33.8780   46.6100 H   0  0  0  0  0  0  0  0  0  0  0  0
   45.9880   33.6920   42.0610 O   0  0  0  0  0  0  0  0  0  0  0  0
   48.1740   32.3070   41.6490 O   0  0  0  0  0  0  0  0  0  0  0  0
   47.6080   33.6830   41.5660 P   0  0  1  0  0  0  0  0  0  0  0  0
   47.7510   34.1740   39.9520 O   0  0  0  0  0  0  0  0  0  0  0  0
   47.1230   34.7410   37.2490 H   0  0  0  0  0  0  0  0  0  0  0  0
   46.8200   33.8460   37.7040 N   0  0  0  0  0  0  0  0  0  0  0  0
   47.0590   33.4700   38.9750 C   0  0  0  0  0  0  0  0  0  0  0  0
   46.4980   32.2580   39.1470 N   0  0  0  0  0  0  0  0  0  0  0  0
   45.9050   31.8490   38.0130 C   0  0  0  0  0  0  0  0  0  0  0  0
   45.2220   30.7030   37.7280 C   0  0  0  0  0  0  0  0  0  0  0  0
   45.0500   29.8970   38.4300 H   0  0  0  0  0  0  0  0  0  0  0  0
   44.7290   30.5770   36.4630 N   0  0  0  0  0  0  0  0  0  0  0  0
   44.9320   31.5710   35.5630 C   0  0  0  0  0  0  0  0  0  0  0  0
   44.5540   31.5040   34.5480 H   0  0  0  0  0  0  0  0  0  0  0  0
   45.6050   32.7020   35.8420 N   0  0  0  0  0  0  0  0  0  0  0  0
   46.1100   32.8610   37.0960 C   0  0  0  0  0  0  0  0  0  0  0  0
   48.4630   34.7500   42.5340 O   0  0  0  0  0  0  0  0  0  0  0  0
   49.6770   35.3490   42.2380 C   0  0  0  0  0  0  0  0  0  0  0  0
   49.3720   36.4030   41.6500 O   0  0  0  0  0  0  0  0  0  0  0  0
   50.7760   34.5460   42.7110 N   0  0  0  0  0  0  0  0  0  0  0  0
   50.8660   34.4200   43.7550 H   0  0  0  0  0  0  0  0  0  0  0  0
   51.4890   34.0790   42.0890 H   0  0  0  0  0  0  0  0  0  0  0  0
  1  2  2  0  0  0  0
  1  6  1  0  0  0  0
  2  3  1  0  0  0  0
  3  9  1  0  0  0  0
  3  4  2  0  0  0  0
  5  4  1  0  0  0  0
  5  8  1  0  0  0  0
  6  5  2  0  0  0  0
  7  1  1  0  0  0  0
  9 18  1  0  0  0  0
 10 11  1  0  0  0  0
 10  9  2  0  0  0  0
 11 12  2  0  0  0  0
 12 21  1  0  0  0  0
 12 13  1  0  0  0  0
 13 14  1  0  0  0  0
 14 22  1  0  0  0  0
 14 15  2  0  0  0  0
 15 23  1  0  0  0  0
 16 15  1  0  0  0  0
 16 24  1  0  0  0  0
 17 16  2  0  0  0  0
 18 13  2  0  0  0  0
 18 17  1  0  0  0  0
 19 10  1  0  0  0  0
 20 11  1  0  0  0  0
 25 17  1  0  0  0  0
 26  2  1  0  0  0  0
 28 27  2  1  0  0  0
 28 26  1  0  0  0  0
 28 42  1  0  0  0  0
 29 28  1  0  0  0  0
 30 31  1  0  0  0  0
 31 32  1  0  0  0  0
 32 33  2  0  0  0  0
 32 29  1  0  0  0  0
 34 33  1  0  0  0  0
 35 34  1  0  0  0  0
 35 36  1  0  0  0  0
 37 35  2  0  0  0  0
 38 40  2  0  0  0  0
 38 37  1  0  0  0  0
 39 38  1  0  0  0  0
 40 41  1  0  0  0  0
 41 31  1  0  0  0  0
 41 34  2  0  0  0  0
 43 42  1  0  0  0  0
 43 45  1  0  0  0  0
 44 43  2  0  0  0  0
 45 46  1  0  0  0  0
 47 45  1  0  0  0  0
M  END
>  <minimizedAffinity>
-6.5557766

>  <minimizedRMSD>
0.845481873

$$$$
