
 OpenBabel03252508073D

 47 51  0  0  0  0  0  0  0  0999 V2000
   45.2380   35.9060   42.9070 C   0  0  0  0  0  0  0  0  0  0  0  0
   45.4950   34.5440   42.9250 C   0  0  0  0  0  0  0  0  0  0  0  0
   45.3010   33.8250   44.0780 C   0  0  0  0  0  0  0  0  0  0  0  0
   44.8470   34.5220   45.1810 N   0  0  0  0  0  0  0  0  0  0  0  0
   44.6030   35.8300   45.1580 C   0  0  0  0  0  0  0  0  0  0  0  0
   44.8040   36.5110   44.0100 N   0  0  0  0  0  0  0  0  0  0  0  0
   45.3660   36.5350   42.0480 H   0  0  0  0  0  0  0  0  0  0  0  0
   44.2480   36.3180   46.0600 H   0  0  0  0  0  0  0  0  0  0  0  0
   45.5160   32.4380   44.2610 C   0  0  0  0  0  0  0  0  0  0  0  0
   45.0630   31.4540   43.3800 C   0  0  0  0  0  0  0  0  0  0  0  0
   45.2100   30.1080   43.5870 C   0  0  0  0  0  0  0  0  0  0  0  0
   45.8400   29.6590   44.7260 C   0  0  0  0  0  0  0  0  0  0  0  0
   46.3120   30.6440   45.6370 C   0  0  0  0  0  0  0  0  0  0  0  0
   46.9400   30.2090   46.7740 C   0  0  0  0  0  0  0  0  0  0  0  0
   47.4220   31.1140   47.6980 C   0  0  0  0  0  0  0  0  0  0  0  0
   47.2670   32.4900   47.4630 C   0  0  0  0  0  0  0  0  0  0  0  0
   46.6150   32.8870   46.2810 C   0  0  0  0  0  0  0  0  0  0  0  0
   46.1440   31.9670   45.3850 C   0  0  0  0  0  0  0  0  0  0  0  0
   44.5640   31.8180   42.4810 H   0  0  0  0  0  0  0  0  0  0  0  0
   44.8160   29.4390   42.8290 H   0  0  0  0  0  0  0  0  0  0  0  0
   45.9590   28.6130   44.8990 H   0  0  0  0  0  0  0  0  0  0  0  0
   47.0530   29.1430   46.9410 H   0  0  0  0  0  0  0  0  0  0  0  0
   47.8990   30.6990   48.5620 H   0  0  0  0  0  0  0  0  0  0  0  0
   47.6760   33.1070   48.2340 H   0  0  0  0  0  0  0  0  0  0  0  0
   46.6160   33.9560   46.2730 H   0  0  0  0  0  0  0  0  0  0  0  0
   45.9370   33.9750   41.7630 O   0  0  0  0  0  0  0  0  0  0  0  0
   47.9580   32.4240   41.1510 O   0  0  0  0  0  0  0  0  0  0  0  0
   47.5640   33.8520   41.3110 P   0  0  1  0  0  0  0  0  0  0  0  0
   47.8380   34.6050   39.8200 O   0  0  0  0  0  0  0  0  0  0  0  0
   50.0730   33.0280   39.0920 H   0  0  0  0  0  0  0  0  0  0  0  0
   49.2310   33.0990   38.4720 N   0  0  0  0  0  0  0  0  0  0  0  0
   48.1150   33.8140   38.7130 C   0  0  0  0  0  0  0  0  0  0  0  0
   47.2880   33.6290   37.6680 N   0  0  0  0  0  0  0  0  0  0  0  0
   47.8490   32.8110   36.7630 C   0  0  0  0  0  0  0  0  0  0  0  0
   47.3820   32.3500   35.5660 C   0  0  0  0  0  0  0  0  0  0  0  0
   46.4170   32.6000   35.1430 H   0  0  0  0  0  0  0  0  0  0  0  0
   48.2000   31.5180   34.8630 N   0  0  0  0  0  0  0  0  0  0  0  0
   49.4140   31.1880   35.3680 C   0  0  0  0  0  0  0  0  0  0  0  0
   50.0910   30.5280   34.8360 H   0  0  0  0  0  0  0  0  0  0  0  0
   49.8780   31.6400   36.5480 N   0  0  0  0  0  0  0  0  0  0  0  0
   49.0860   32.4740   37.2760 C   0  0  0  0  0  0  0  0  0  0  0  0
   48.4960   34.6100   42.4800 O   0  0  0  0  0  0  0  0  0  0  0  0
   49.7040   35.2610   42.2850 C   0  0  0  0  0  0  0  0  0  0  0  0
   49.3920   36.3590   41.7890 O   0  0  0  0  0  0  0  0  0  0  0  0
   50.8060   34.4400   42.7170 N   0  0  0  0  0  0  0  0  0  0  0  0
   50.8650   34.2170   43.7470 H   0  0  0  0  0  0  0  0  0  0  0  0
   51.5510   34.0510   42.0790 H   0  0  0  0  0  0  0  0  0  0  0  0
  1  2  2  0  0  0  0
  1  6  1  0  0  0  0
  2  3  1  0  0  0  0
  3  9  1  0  0  0  0
  3  4  2  0  0  0  0
  5  4  1  0  0  0  0
  5  8  1  0  0  0  0
  6  5  2  0  0  0  0
  7  1  1  0  0  0  0
  9 18  1  0  0  0  0
 10 11  1  0  0  0  0
 10  9  2  0  0  0  0
 11 12  2  0  0  0  0
 12 21  1  0  0  0  0
 12 13  1  0  0  0  0
 13 14  1  0  0  0  0
 14 22  1  0  0  0  0
 14 15  2  0  0  0  0
 15 23  1  0  0  0  0
 16 15  1  0  0  0  0
 16 24  1  0  0  0  0
 17 16  2  0  0  0  0
 18 13  2  0  0  0  0
 18 17  1  0  0  0  0
 19 10  1  0  0  0  0
 20 11  1  0  0  0  0
 25 17  1  0  0  0  0
 26  2  1  0  0  0  0
 28 27  2  6  0  0  0
 28 26  1  0  0  0  0
 28 42  1  0  0  0  0
 29 28  1  0  0  0  0
 31 32  1  0  0  0  0
 31 30  1  0  0  0  0
 32 29  1  0  0  0  0
 33 32  2  0  0  0  0
 34 41  1  0  0  0  0
 34 33  1  0  0  0  0
 35 34  2  0  0  0  0
 36 35  1  0  0  0  0
 37 38  2  0  0  0  0
 37 35  1  0  0  0  0
 38 40  1  0  0  0  0
 39 38  1  0  0  0  0
 40 41  2  0  0  0  0
 41 31  1  0  0  0  0
 43 42  1  0  0  0  0
 43 45  1  0  0  0  0
 44 43  2  0  0  0  0
 45 46  1  0  0  0  0
 47 45  1  0  0  0  0
M  END
>  <minimizedAffinity>
-6.72942019

>  <minimizedRMSD>
1.03274047

$$$$
