
 OpenBabel03242521283D

 38 41  0  0  1  0  0  0  0  0999 V2000
   48.1590   33.5100   42.6100 C   0  0  1  0  0  0  0  0  0  0  0  0
   46.6860   33.7250   42.3520 C   0  0  2  0  0  0  0  0  0  0  0  0
   46.4700   34.6690   41.3660 O   0  0  0  0  0  0  0  0  0  0  0  0
   46.8640   34.0810   40.1750 C   0  0  0  0  0  0  0  0  0  0  0  0
   48.3690   34.0280   40.1560 C   0  0  2  0  0  0  0  0  0  0  0  0
   48.9860   33.4330   41.3750 C   0  0  2  0  0  0  0  0  0  0  0  0
   48.2090   32.5160   43.1410 H   0  0  0  0  0  0  0  0  0  0  0  0
   46.2560   32.7570   42.0310 H   0  0  0  0  0  0  0  0  0  0  0  0
   46.5580   34.7780   39.3570 H   0  0  0  0  0  0  0  0  0  0  0  0
   46.3770   33.1090   39.9860 H   0  0  0  0  0  0  0  0  0  0  0  0
   48.6790   33.4450   39.2560 H   0  0  0  0  0  0  0  0  0  0  0  0
   49.9210   34.0280   41.5780 H   0  0  0  0  0  0  0  0  0  0  0  0
   44.5730   35.6940   44.8090 C   0  0  0  0  0  0  0  0  0  0  0  0
   45.1980   35.3180   43.6100 C   0  0  0  0  0  0  0  0  0  0  0  0
   46.0020   34.1440   43.5870 C   0  0  0  0  0  0  0  0  0  0  0  0
   46.1200   33.4460   44.7370 N   0  0  0  0  0  0  0  0  0  0  0  0
   45.5060   33.8310   45.8820 C   0  0  0  0  0  0  0  0  0  0  0  0
   44.7330   34.9530   45.9190 N   0  0  0  0  0  0  0  0  0  0  0  0
   43.9950   36.6000   44.6920 H   0  0  0  0  0  0  0  0  0  0  0  0
   45.1100   35.8700   42.6880 H   0  0  0  0  0  0  0  0  0  0  0  0
   45.6320   33.2370   46.7770 H   0  0  0  0  0  0  0  0  0  0  0  0
   48.6660   34.4160   43.5470 O   0  0  0  0  0  0  0  0  0  0  0  0
   49.2360   33.9890   44.2270 H   0  0  0  0  0  0  0  0  0  0  0  0
   48.7960   35.3470   39.9520 O   0  0  0  0  0  0  0  0  0  0  0  0
   49.2120   35.6900   40.7920 H   0  0  0  0  0  0  0  0  0  0  0  0
   49.4660   32.1230   41.1640 O   0  0  0  0  0  0  0  0  0  0  0  0
   52.3020   32.3290   41.3280 H   0  0  0  0  0  0  0  0  0  0  0  0
   51.9100   31.9360   40.4450 N   0  0  0  0  0  0  0  0  0  0  0  0
   50.5660   31.8400   40.3690 C   0  0  0  0  0  0  0  0  0  0  0  0
   50.2470   31.3100   39.1520 N   0  0  0  0  0  0  0  0  0  0  0  0
   51.3520   31.0700   38.4580 C   0  0  0  0  0  0  0  0  0  0  0  0
   51.7470   30.5690   37.2270 C   0  0  0  0  0  0  0  0  0  0  0  0
   50.9410   30.2500   36.5640 H   0  0  0  0  0  0  0  0  0  0  0  0
   53.0300   30.4710   36.8500 N   0  0  0  0  0  0  0  0  0  0  0  0
   54.0020   30.8790   37.7060 C   0  0  0  0  0  0  0  0  0  0  0  0
   55.0000   30.7720   37.3360 H   0  0  0  0  0  0  0  0  0  0  0  0
   53.6660   31.3780   38.9240 N   0  0  0  0  0  0  0  0  0  0  0  0
   52.3770   31.4680   39.2840 C   0  0  0  0  0  0  0  0  0  0  0  0
  1  7  1  1  0  0  0
  1 22  1  0  0  0  0
  2  8  1  6  0  0  0
  2  1  1  0  0  0  0
  2 15  1  0  0  0  0
  3  2  1  0  0  0  0
  4  3  1  0  0  0  0
  5 11  1  6  0  0  0
  5  4  1  0  0  0  0
  5  6  1  0  0  0  0
  6 12  1  1  0  0  0
  6  1  1  0  0  0  0
  9  4  1  0  0  0  0
 10  4  1  0  0  0  0
 13 18  1  0  0  0  0
 14 13  2  0  0  0  0
 15 14  1  0  0  0  0
 15 16  2  0  0  0  0
 16 17  1  0  0  0  0
 17 18  2  0  0  0  0
 17 21  1  0  0  0  0
 19 13  1  0  0  0  0
 20 14  1  0  0  0  0
 22 23  1  0  0  0  0
 24  5  1  0  0  0  0
 24 25  1  0  0  0  0
 26  6  1  0  0  0  0
 28 27  1  0  0  0  0
 29 28  1  0  0  0  0
 29 26  1  0  0  0  0
 30 29  2  0  0  0  0
 31 30  1  0  0  0  0
 31 38  1  0  0  0  0
 32 31  2  0  0  0  0
 33 32  1  0  0  0  0
 34 32  1  0  0  0  0
 34 35  2  0  0  0  0
 35 37  1  0  0  0  0
 36 35  1  0  0  0  0
 37 38  2  0  0  0  0
 38 28  1  0  0  0  0
M  END
>  <minimizedAffinity>
-6.26502132

>  <minimizedRMSD>
1.82036471

$$$$
