
     RDKit          3D

 50 54  0  0  0  0  0  0  0  0999 V2000
   47.1999   34.1111   42.4368 C   0  0  2  0  0  0  0  0  0  0  0  0
   48.5727   34.6937   42.5873 C   0  0  0  0  0  0  0  0  0  0  0  0
   48.8879   35.6832   41.5343 C   0  0  0  0  0  0  0  0  0  0  0  0
   48.7106   35.1412   40.1328 C   0  0  0  0  0  0  0  0  0  0  0  0
   47.5165   34.2461   39.9801 C   0  0  0  0  0  0  0  0  0  0  0  0
   46.5424   34.3632   41.1301 C   0  0  1  0  0  0  0  0  0  0  0  0
   46.2967   34.4795   43.5458 C   0  0  0  0  0  0  0  0  0  0  0  0
   45.6086   35.6591   43.3210 C   0  0  0  0  0  0  0  0  0  0  0  0
   44.7058   36.1356   44.2868 C   0  0  0  0  0  0  0  0  0  0  0  0
   44.5802   35.3427   45.4351 N   0  0  0  0  0  0  0  0  0  0  0  0
   45.2759   34.1999   45.6059 C   0  0  0  0  0  0  0  0  0  0  0  0
   46.1270   33.7863   44.6519 N   0  0  0  0  0  0  0  0  0  0  0  0
   45.4782   33.3196   40.9356 C   0  0  2  0  0  0  0  0  0  0  0  0
   44.8172   33.2339   39.5708 C   0  0  0  0  0  0  0  0  0  0  0  0
   44.0570   33.7117   40.7374 C   0  0  1  0  0  0  0  0  0  0  0  0
   43.1097   32.8601   41.5255 C   0  0  0  0  0  0  0  0  0  0  0  0
   41.6597   33.1051   41.2028 C   0  0  0  0  0  0  0  0  0  0  0  0
   47.3282   32.9899   42.5467 H   0  0  0  0  0  0  0  0  0  0  0  0
   49.3584   33.9126   42.5650 H   0  0  0  0  0  0  0  0  0  0  0  0
   48.6323   35.1924   43.5665 H   0  0  0  0  0  0  0  0  0  0  0  0
   49.9655   35.9531   41.6159 H   0  0  0  0  0  0  0  0  0  0  0  0
   48.2824   36.6049   41.6983 H   0  0  0  0  0  0  0  0  0  0  0  0
   48.5999   36.0165   39.4599 H   0  0  0  0  0  0  0  0  0  0  0  0
   49.6594   34.6336   39.7992 H   0  0  0  0  0  0  0  0  0  0  0  0
   47.0090   34.4487   39.0346 H   0  0  0  0  0  0  0  0  0  0  0  0
   47.9048   33.1898   39.9882 H   0  0  0  0  0  0  0  0  0  0  0  0
   46.0518   35.3380   40.9982 H   0  0  0  0  0  0  0  0  0  0  0  0
   45.5690   36.3995   42.5360 H   0  0  0  0  0  0  0  0  0  0  0  0
   44.0938   36.9994   44.3034 H   0  0  0  0  0  0  0  0  0  0  0  0
   45.1040   33.6706   46.5224 H   0  0  0  0  0  0  0  0  0  0  0  0
   45.7365   32.3179   41.3378 H   0  0  0  0  0  0  0  0  0  0  0  0
   45.0453   33.9520   38.7823 H   0  0  0  0  0  0  0  0  0  0  0  0
   44.4937   32.2354   39.1856 H   0  0  0  0  0  0  0  0  0  0  0  0
   43.8492   34.8077   40.8207 H   0  0  0  0  0  0  0  0  0  0  0  0
   43.3683   31.8030   41.3752 H   0  0  0  0  0  0  0  0  0  0  0  0
   43.2668   33.0947   42.5912 H   0  0  0  0  0  0  0  0  0  0  0  0
   41.4212   32.8374   40.1715 H   0  0  0  0  0  0  0  0  0  0  0  0
   41.3368   34.1213   41.4695 H   0  0  0  0  0  0  0  0  0  0  0  0
   40.8958   32.1889   42.0646 N   0  0  0  0  0  0  0  0  0  0  0  0
   41.1617   31.6904   43.2798 C   0  0  0  0  0  0  0  0  0  0  0  0
   42.0644   31.9363   43.8123 H   0  0  0  0  0  0  0  0  0  0  0  0
   40.1585   30.8860   43.6725 N   0  0  0  0  0  0  0  0  0  0  0  0
   39.2177   30.8357   42.7356 C   0  0  0  0  0  0  0  0  0  0  0  0
   38.0043   30.1922   42.5999 C   0  0  0  0  0  0  0  0  0  0  0  0
   37.6249   29.5466   43.3813 H   0  0  0  0  0  0  0  0  0  0  0  0
   37.2706   30.3725   41.4624 N   0  0  0  0  0  0  0  0  0  0  0  0
   37.7702   31.1907   40.4930 C   0  0  0  0  0  0  0  0  0  0  0  0
   37.2794   31.4083   39.5521 H   0  0  0  0  0  0  0  0  0  0  0  0
   38.9531   31.8227   40.6166 N   0  0  0  0  0  0  0  0  0  0  0  0
   39.6916   31.6538   41.7380 C   0  0  0  0  0  0  0  0  0  0  0  0
  1  2  1  0
  1  7  1  0
  3  2  1  0
  4  3  1  0
  5  4  1  0
  5  6  1  0
  6  1  1  0
  7 12  1  0
  8  7  2  0
  8  9  1  0
  9 10  2  0
 10 11  1  0
 12 11  2  0
 13  6  1  0
 14 15  1  0
 14 13  1  0
 15 13  1  0
 15 16  1  0
 17 16  1  0
  1 18  1  1
  2 19  1  0
  2 20  1  0
  3 21  1  0
  3 22  1  0
  4 23  1  0
  4 24  1  0
  5 25  1  0
  5 26  1  0
  6 27  1  1
  8 28  1  0
  9 29  1  0
 11 30  1  0
 13 31  1  1
 14 32  1  0
 14 33  1  0
 15 34  1  6
 16 35  1  0
 16 36  1  0
 17 37  1  0
 17 38  1  0
 39 40  1  0
 40 41  1  0
 40 42  2  0
 42 43  1  0
 43 44  2  0
 44 45  1  0
 44 46  1  0
 46 47  2  0
 47 48  1  0
 47 49  1  0
 49 50  2  0
 50 39  1  0
 50 43  1  0
 17 39  1  0
M  ISO  8  18  13  19  13  20  13  21  13  22  13  23  13  24  13  25  13
M  ISO  8  26  13  27  13  28  14  29  14  30  14  31  13  32  13  33  13
M  ISO  8  34  13  35   8  36   8  37   8  38   8  41  15  45  16  48  16
M  END
>  <DihAtoms>  (1) 
15,16,38,39

>  <DihDeg>  (1) 
90.00298383113282

$$$$
