REMARK  Name = 
REMARK  5 active torsions:
REMARK  status: ('A' for Active; 'I' for Inactive)
REMARK    1  A    between atoms: C_1  and  C_7
REMARK    2  A    between atoms: C_6  and  C_13
REMARK    3  A    between atoms: C_15  and  C_16
REMARK    4  A    between atoms: C_16  and  C_17
REMARK    5  A    between atoms: C_17  and  N_39
REMARK                            x       y       z     vdW  Elec       q    Type
REMARK                         _______ _______ _______ _____ _____    ______ ____
ROOT
ATOM      1  C   UNL     1      47.200  34.111  42.437  0.00  0.00    +0.000 C 
ATOM      2  C   UNL     1      48.573  34.694  42.587  0.00  0.00    +0.000 C 
ATOM      3  C   UNL     1      48.888  35.683  41.534  0.00  0.00    +0.000 C 
ATOM      4  C   UNL     1      48.711  35.141  40.133  0.00  0.00    +0.000 C 
ATOM      5  C   UNL     1      47.517  34.246  39.980  0.00  0.00    +0.000 C 
ATOM      6  C   UNL     1      46.542  34.363  41.130  0.00  0.00    +0.000 C 
ATOM      7  H   UNL     1      47.328  32.990  42.547  0.00  0.00    +0.000 HD
ATOM      8  H   UNL     1      49.358  33.913  42.565  0.00  0.00    +0.000 HD
ATOM      9  H   UNL     1      48.632  35.192  43.566  0.00  0.00    +0.000 HD
ATOM     10  H   UNL     1      49.965  35.953  41.616  0.00  0.00    +0.000 HD
ATOM     11  H   UNL     1      48.282  36.605  41.698  0.00  0.00    +0.000 HD
ATOM     12  H   UNL     1      48.600  36.017  39.460  0.00  0.00    +0.000 HD
ATOM     13  H   UNL     1      49.659  34.634  39.799  0.00  0.00    +0.000 HD
ATOM     14  H   UNL     1      47.009  34.449  39.035  0.00  0.00    +0.000 HD
ATOM     15  H   UNL     1      47.905  33.190  39.988  0.00  0.00    +0.000 HD
ATOM     16  H   UNL     1      46.052  35.338  40.998  0.00  0.00    +0.000 HD
ENDROOT
BRANCH   1  17
ATOM     17  C   UNL     1      46.297  34.480  43.546  0.00  0.00    +0.000 A 
ATOM     18  C   UNL     1      45.609  35.659  43.321  0.00  0.00    +0.000 A 
ATOM     19  C   UNL     1      44.706  36.136  44.287  0.00  0.00    +0.000 A 
ATOM     20  N   UNL     1      44.580  35.343  45.435  0.00  0.00    +0.000 NA
ATOM     21  C   UNL     1      45.276  34.200  45.606  0.00  0.00    +0.000 A 
ATOM     22  N   UNL     1      46.127  33.786  44.652  0.00  0.00    +0.000 NA
ATOM     23  H   UNL     1      45.569  36.400  42.536  0.00  0.00    +0.000 HD
ATOM     24  H   UNL     1      44.094  36.999  44.303  0.00  0.00    +0.000 HD
ATOM     25  H   UNL     1      45.104  33.671  46.522  0.00  0.00    +0.000 HD
ENDBRANCH   1  17
BRANCH   6  26
ATOM     26  C   UNL     1      45.478  33.320  40.936  0.00  0.00    +0.000 C 
ATOM     27  C   UNL     1      44.817  33.234  39.571  0.00  0.00    +0.000 C 
ATOM     28  C   UNL     1      44.057  33.712  40.737  0.00  0.00    +0.000 C 
ATOM     29  H   UNL     1      45.736  32.318  41.338  0.00  0.00    +0.000 HD
ATOM     30  H   UNL     1      45.045  33.952  38.782  0.00  0.00    +0.000 HD
ATOM     31  H   UNL     1      44.494  32.235  39.186  0.00  0.00    +0.000 HD
ATOM     32  H   UNL     1      43.849  34.808  40.821  0.00  0.00    +0.000 HD
BRANCH  28  33
ATOM     33  C   UNL     1      43.110  32.860  41.526  0.00  0.00    +0.000 C 
ATOM     34  H   UNL     1      43.368  31.803  41.375  0.00  0.00    +0.000 HD
ATOM     35  H   UNL     1      43.267  33.095  42.591  0.00  0.00    +0.000 HD
BRANCH  33  36
ATOM     36  C   UNL     1      41.660  33.105  41.203  0.00  0.00    +0.000 C 
ATOM     37  H   UNL     1      41.421  32.837  40.172  0.00  0.00    +0.000 HD
ATOM     38  H   UNL     1      41.337  34.121  41.469  0.00  0.00    +0.000 HD
BRANCH  36  39
ATOM     39  N   UNL     1      40.896  32.189  42.065  0.00  0.00    +0.000 N 
ATOM     40  C   UNL     1      39.672  32.294  42.601  0.00  0.00    +0.000 A 
ATOM     41  H   UNL     1      39.050  33.157  42.439  0.00  0.00    +0.000 HD
ATOM     42  N   UNL     1      39.396  31.195  43.325  0.00  0.00    +0.000 NA
ATOM     43  C   UNL     1      40.419  30.349  43.283  0.00  0.00    +0.000 A 
ATOM     44  C   UNL     1      40.685  29.106  43.821  0.00  0.00    +0.000 A 
ATOM     45  H   UNL     1      39.958  28.601  44.444  0.00  0.00    +0.000 HD
ATOM     46  N   UNL     1      41.883  28.504  43.564  0.00  0.00    +0.000 NA
ATOM     47  C   UNL     1      42.782  29.160  42.776  0.00  0.00    +0.000 A 
ATOM     48  H   UNL     1      43.760  28.783  42.505  0.00  0.00    +0.000 HD
ATOM     49  N   UNL     1      42.531  30.373  42.247  0.00  0.00    +0.000 NA
ATOM     50  C   UNL     1      41.348  30.983  42.493  0.00  0.00    +0.000 A 
ENDBRANCH  36  39
ENDBRANCH  33  36
ENDBRANCH  28  33
ENDBRANCH   6  26
TORSDOF 5
