
 OpenBabel03242512033D

 50 54  0  0  1  0  0  0  0  0999 V2000
   37.4390   26.1470   39.4210 C   0  0  2  0  0  0  0  0  0  0  0  0
   36.9870   25.0210   38.5410 C   0  0  0  0  0  0  0  0  0  0  0  0
   35.8740   24.2490   39.1340 C   0  0  0  0  0  0  0  0  0  0  0  0
   36.1820   23.7250   40.5200 C   0  0  0  0  0  0  0  0  0  0  0  0
   36.9540   24.6900   41.3700 C   0  0  0  0  0  0  0  0  0  0  0  0
   36.9440   26.0990   40.8200 C   0  0  1  0  0  0  0  0  0  0  0  0
   38.5700   26.0770   39.4550 H   0  0  0  0  0  0  0  0  0  0  0  0
   37.8100   24.3140   38.3190 H   0  0  0  0  0  0  0  0  0  0  0  0
   36.6490   25.4450   37.5840 H   0  0  0  0  0  0  0  0  0  0  0  0
   35.6990   23.3460   38.5060 H   0  0  0  0  0  0  0  0  0  0  0  0
   34.9470   24.8680   39.1250 H   0  0  0  0  0  0  0  0  0  0  0  0
   35.2080   23.5080   41.0060 H   0  0  0  0  0  0  0  0  0  0  0  0
   36.7000   22.7280   40.4430 H   0  0  0  0  0  0  0  0  0  0  0  0
   36.5730   24.6830   42.3930 H   0  0  0  0  0  0  0  0  0  0  0  0
   38.0240   24.3430   41.3570 H   0  0  0  0  0  0  0  0  0  0  0  0
   35.9270   26.4750   41.0030 H   0  0  0  0  0  0  0  0  0  0  0  0
   37.1790   27.4760   38.8310 C   0  0  0  0  0  0  0  0  0  0  0  0
   35.8320   27.7830   38.7480 C   0  0  0  0  0  0  0  0  0  0  0  0
   35.4290   29.0180   38.2120 C   0  0  0  0  0  0  0  0  0  0  0  0
   36.4680   29.8590   37.7940 N   0  0  0  0  0  0  0  0  0  0  0  0
   37.7680   29.5110   37.8950 C   0  0  0  0  0  0  0  0  0  0  0  0
   38.1020   28.3180   38.4160 N   0  0  0  0  0  0  0  0  0  0  0  0
   34.9040   27.2890   38.9970 H   0  0  0  0  0  0  0  0  0  0  0  0
   34.4670   29.4340   38.0670 H   0  0  0  0  0  0  0  0  0  0  0  0
   38.4820   30.2290   37.5440 H   0  0  0  0  0  0  0  0  0  0  0  0
   37.8650   26.9280   41.6690 C   0  0  2  0  0  0  0  0  0  0  0  0
   38.4750   26.2710   42.8950 C   0  0  0  0  0  0  0  0  0  0  0  0
   37.4700   27.3360   43.0440 C   0  0  1  0  0  0  0  0  0  0  0  0
   38.6110   27.5190   41.0980 H   0  0  0  0  0  0  0  0  0  0  0  0
   38.1960   25.2610   43.1980 H   0  0  0  0  0  0  0  0  0  0  0  0
   39.5080   26.5620   43.2100 H   0  0  0  0  0  0  0  0  0  0  0  0
   36.4330   27.0470   43.3470 H   0  0  0  0  0  0  0  0  0  0  0  0
   37.8040   28.7670   43.3370 C   0  0  0  0  0  0  0  0  0  0  0  0
   36.8740   29.3510   43.3790 H   0  0  0  0  0  0  0  0  0  0  0  0
   38.2640   28.7980   44.3370 H   0  0  0  0  0  0  0  0  0  0  0  0
   38.7710   29.3780   42.3580 C   0  0  0  0  0  0  0  0  0  0  0  0
   39.1090   28.6540   41.6140 H   0  0  0  0  0  0  0  0  0  0  0  0
   39.6000   29.8990   42.8570 H   0  0  0  0  0  0  0  0  0  0  0  0
   38.0120   30.4080   41.6320 N   0  0  0  0  0  0  0  0  0  0  0  0
   36.7070   30.5040   41.3430 C   0  0  0  0  0  0  0  0  0  0  0  0
   35.9980   29.7530   41.6450 H   0  0  0  0  0  0  0  0  0  0  0  0
   36.4750   31.6350   40.6540 N   0  0  0  0  0  0  0  0  0  0  0  0
   37.6090   32.3040   40.4750 C   0  0  0  0  0  0  0  0  0  0  0  0
   37.9600   33.4890   39.8610 C   0  0  0  0  0  0  0  0  0  0  0  0
   37.2170   34.1060   39.3730 H   0  0  0  0  0  0  0  0  0  0  0  0
   39.2670   33.8880   39.8670 N   0  0  0  0  0  0  0  0  0  0  0  0
   40.1830   33.0920   40.4870 C   0  0  0  0  0  0  0  0  0  0  0  0
   41.2440   33.3050   40.5560 H   0  0  0  0  0  0  0  0  0  0  0  0
   39.8490   31.9350   41.0900 N   0  0  0  0  0  0  0  0  0  0  0  0
   38.5590   31.5260   41.0910 C   0  0  0  0  0  0  0  0  0  0  0  0
  1  7  1  1  0  0  0
  1  6  1  0  0  0  0
  2  3  1  0  0  0  0
  2  1  1  0  0  0  0
  3  4  1  0  0  0  0
  4 12  1  0  0  0  0
  4  5  1  0  0  0  0
  5 14  1  0  0  0  0
  6 16  1  1  0  0  0
  6  5  1  0  0  0  0
  6 26  1  0  0  0  0
  8  2  1  0  0  0  0
  9  2  1  0  0  0  0
 10  3  1  0  0  0  0
 11  3  1  0  0  0  0
 13  4  1  0  0  0  0
 15  5  1  0  0  0  0
 17  1  1  0  0  0  0
 18 17  1  0  0  0  0
 18 23  1  0  0  0  0
 19 18  2  0  0  0  0
 20 21  2  0  0  0  0
 20 19  1  0  0  0  0
 21 22  1  0  0  0  0
 22 17  2  0  0  0  0
 24 19  1  0  0  0  0
 25 21  1  0  0  0  0
 26 29  1  6  0  0  0
 26 27  1  0  0  0  0
 26 28  1  0  0  0  0
 27 28  1  0  0  0  0
 27 30  1  0  0  0  0
 27 31  1  0  0  0  0
 28 33  1  0  0  0  0
 28 32  1  1  0  0  0
 33 34  1  0  0  0  0
 33 35  1  0  0  0  0
 36 38  1  0  0  0  0
 36 33  1  0  0  0  0
 37 36  1  0  0  0  0
 39 36  1  0  0  0  0
 40 39  1  0  0  0  0
 40 41  1  0  0  0  0
 42 40  2  0  0  0  0
 43 42  1  0  0  0  0
 43 50  1  0  0  0  0
 44 46  1  0  0  0  0
 44 43  2  0  0  0  0
 45 44  1  0  0  0  0
 46 47  2  0  0  0  0
 47 48  1  0  0  0  0
 47 49  1  0  0  0  0
 49 50  2  0  0  0  0
 50 39  1  0  0  0  0
M  END
>  <minimizedAffinity>
-5.9034524

$$$$

 OpenBabel03242512033D

 50 54  0  0  1  0  0  0  0  0999 V2000
   36.9520   26.0070   41.4510 C   0  0  2  0  0  0  0  0  0  0  0  0
   37.1330   24.7100   42.1810 C   0  0  0  0  0  0  0  0  0  0  0  0
   37.6290   23.6290   41.3030 C   0  0  0  0  0  0  0  0  0  0  0  0
   36.7690   23.4130   40.0780 C   0  0  0  0  0  0  0  0  0  0  0  0
   36.2520   24.6840   39.4730 C   0  0  0  0  0  0  0  0  0  0  0  0
   36.9810   25.9120   39.9700 C   0  0  1  0  0  0  0  0  0  0  0  0
   35.9280   26.3890   41.7510 H   0  0  0  0  0  0  0  0  0  0  0  0
   36.1900   24.3640   42.6470 H   0  0  0  0  0  0  0  0  0  0  0  0
   37.8620   24.8680   42.9900 H   0  0  0  0  0  0  0  0  0  0  0  0
   37.5900   22.6710   41.8680 H   0  0  0  0  0  0  0  0  0  0  0  0
   38.6910   23.8310   41.0290 H   0  0  0  0  0  0  0  0  0  0  0  0
   37.3970   22.8820   39.3320 H   0  0  0  0  0  0  0  0  0  0  0  0
   35.9350   22.6960   40.3200 H   0  0  0  0  0  0  0  0  0  0  0  0
   36.3010   24.6340   38.3830 H   0  0  0  0  0  0  0  0  0  0  0  0
   35.1810   24.7840   39.8050 H   0  0  0  0  0  0  0  0  0  0  0  0
   37.9700   25.8760   39.4910 H   0  0  0  0  0  0  0  0  0  0  0  0
   37.8780   27.0600   41.9160 C   0  0  0  0  0  0  0  0  0  0  0  0
   37.2770   27.9870   42.7480 C   0  0  0  0  0  0  0  0  0  0  0  0
   38.0360   29.0470   43.2760 C   0  0  0  0  0  0  0  0  0  0  0  0
   39.3840   29.0680   42.8960 N   0  0  0  0  0  0  0  0  0  0  0  0
   39.9210   28.1380   42.0790 C   0  0  0  0  0  0  0  0  0  0  0  0
   39.1540   27.1440   41.6020 N   0  0  0  0  0  0  0  0  0  0  0  0
   36.2860   28.1520   43.1440 H   0  0  0  0  0  0  0  0  0  0  0  0
   37.7680   29.8430   43.9190 H   0  0  0  0  0  0  0  0  0  0  0  0
   40.9630   28.2500   41.8520 H   0  0  0  0  0  0  0  0  0  0  0  0
   36.2790   27.1180   39.4120 C   0  0  2  0  0  0  0  0  0  0  0  0
   36.4050   27.3790   37.9210 C   0  0  0  0  0  0  0  0  0  0  0  0
   37.0550   28.2750   38.8910 C   0  0  1  0  0  0  0  0  0  0  0  0
   35.2380   27.2530   39.7720 H   0  0  0  0  0  0  0  0  0  0  0  0
   37.0460   26.7640   37.2880 H   0  0  0  0  0  0  0  0  0  0  0  0
   35.5430   27.8360   37.3750 H   0  0  0  0  0  0  0  0  0  0  0  0
   38.1640   28.2020   39.0200 H   0  0  0  0  0  0  0  0  0  0  0  0
   36.4870   29.5910   39.3270 C   0  0  0  0  0  0  0  0  0  0  0  0
   35.4080   29.4760   39.5000 H   0  0  0  0  0  0  0  0  0  0  0  0
   36.9560   29.8480   40.2900 H   0  0  0  0  0  0  0  0  0  0  0  0
   36.7530   30.7170   38.3630 C   0  0  0  0  0  0  0  0  0  0  0  0
   35.8360   31.2350   38.0770 H   0  0  0  0  0  0  0  0  0  0  0  0
   37.3520   30.3960   37.4990 H   0  0  0  0  0  0  0  0  0  0  0  0
   37.5760   31.6900   39.0990 N   0  0  0  0  0  0  0  0  0  0  0  0
   37.3540   32.3470   40.2460 C   0  0  0  0  0  0  0  0  0  0  0  0
   36.4480   32.2170   40.8110 H   0  0  0  0  0  0  0  0  0  0  0  0
   38.4030   33.1390   40.5280 N   0  0  0  0  0  0  0  0  0  0  0  0
   39.3320   33.0230   39.5850 C   0  0  0  0  0  0  0  0  0  0  0  0
   40.5750   33.5790   39.3610 C   0  0  0  0  0  0  0  0  0  0  0  0
   40.9990   34.2950   40.0530 H   0  0  0  0  0  0  0  0  0  0  0  0
   41.2820   33.2220   38.2480 N   0  0  0  0  0  0  0  0  0  0  0  0
   40.7260   32.3190   37.3910 C   0  0  0  0  0  0  0  0  0  0  0  0
   41.1920   31.9610   36.4800 H   0  0  0  0  0  0  0  0  0  0  0  0
   39.5140   31.7700   37.6020 N   0  0  0  0  0  0  0  0  0  0  0  0
   38.8020   32.1160   38.6990 C   0  0  0  0  0  0  0  0  0  0  0  0
  1  7  1  1  0  0  0
  1 17  1  0  0  0  0
  1  2  1  0  0  0  0
  2  8  1  0  0  0  0
  2  9  1  0  0  0  0
  3 10  1  0  0  0  0
  3  2  1  0  0  0  0
  4 13  1  0  0  0  0
  4  3  1  0  0  0  0
  5 15  1  0  0  0  0
  5  6  1  0  0  0  0
  5  4  1  0  0  0  0
  6 16  1  6  0  0  0
  6  1  1  0  0  0  0
 11  3  1  0  0  0  0
 12  4  1  0  0  0  0
 14  5  1  0  0  0  0
 17 18  1  0  0  0  0
 18 23  1  0  0  0  0
 18 19  2  0  0  0  0
 19 24  1  0  0  0  0
 20 19  1  0  0  0  0
 21 20  2  0  0  0  0
 22 17  2  0  0  0  0
 22 21  1  0  0  0  0
 25 21  1  0  0  0  0
 26 29  1  1  0  0  0
 26  6  1  0  0  0  0
 27 28  1  0  0  0  0
 27 26  1  0  0  0  0
 28 32  1  1  0  0  0
 28 33  1  0  0  0  0
 28 26  1  0  0  0  0
 30 27  1  0  0  0  0
 31 27  1  0  0  0  0
 33 34  1  0  0  0  0
 33 35  1  0  0  0  0
 36 39  1  0  0  0  0
 36 33  1  0  0  0  0
 37 36  1  0  0  0  0
 38 36  1  0  0  0  0
 39 40  1  0  0  0  0
 40 42  2  0  0  0  0
 40 41  1  0  0  0  0
 43 42  1  0  0  0  0
 44 43  1  0  0  0  0
 44 45  1  0  0  0  0
 46 44  2  0  0  0  0
 47 49  2  0  0  0  0
 47 46  1  0  0  0  0
 48 47  1  0  0  0  0
 49 50  1  0  0  0  0
 50 39  1  0  0  0  0
 50 43  2  0  0  0  0
M  END
>  <minimizedAffinity>
-5.90035772

$$$$

 OpenBabel03242512033D

 50 54  0  0  1  0  0  0  0  0999 V2000
   39.3200   24.7600   41.3600 C   0  0  2  0  0  0  0  0  0  0  0  0
   38.8230   23.4000   40.9720 C   0  0  0  0  0  0  0  0  0  0  0  0
   37.4870   23.4430   40.3400 C   0  0  0  0  0  0  0  0  0  0  0  0
   36.4490   24.1460   41.1850 C   0  0  0  0  0  0  0  0  0  0  0  0
   36.9730   25.3570   41.8990 C   0  0  0  0  0  0  0  0  0  0  0  0
   38.2970   25.8370   41.3500 C   0  0  1  0  0  0  0  0  0  0  0  0
   39.7000   24.6570   42.4230 H   0  0  0  0  0  0  0  0  0  0  0  0
   38.7660   22.7180   41.8420 H   0  0  0  0  0  0  0  0  0  0  0  0
   39.5360   22.9630   40.2570 H   0  0  0  0  0  0  0  0  0  0  0  0
   37.1200   22.3980   40.2230 H   0  0  0  0  0  0  0  0  0  0  0  0
   37.5710   23.9000   39.3260 H   0  0  0  0  0  0  0  0  0  0  0  0
   35.6290   24.4510   40.5010 H   0  0  0  0  0  0  0  0  0  0  0  0
   35.9770   23.4120   41.8970 H   0  0  0  0  0  0  0  0  0  0  0  0
   36.2380   26.1640   41.8680 H   0  0  0  0  0  0  0  0  0  0  0  0
   37.1550   25.0460   42.9650 H   0  0  0  0  0  0  0  0  0  0  0  0
   38.0610   26.2920   40.3780 H   0  0  0  0  0  0  0  0  0  0  0  0
   40.5100   25.1760   40.5910 C   0  0  0  0  0  0  0  0  0  0  0  0
   40.2200   25.5360   39.2870 C   0  0  0  0  0  0  0  0  0  0  0  0
   41.2530   25.9610   38.4340 C   0  0  0  0  0  0  0  0  0  0  0  0
   42.5330   25.9820   39.0040 N   0  0  0  0  0  0  0  0  0  0  0  0
   42.7620   25.6210   40.2830 C   0  0  0  0  0  0  0  0  0  0  0  0
   41.7400   25.2220   41.0590 N   0  0  0  0  0  0  0  0  0  0  0  0
   39.3350   25.5800   38.6700 H   0  0  0  0  0  0  0  0  0  0  0  0
   41.2380   26.2730   37.4230 H   0  0  0  0  0  0  0  0  0  0  0  0
   43.7790   25.6740   40.6170 H   0  0  0  0  0  0  0  0  0  0  0  0
   38.7840   26.9490   42.2360 C   0  0  2  0  0  0  0  0  0  0  0  0
   39.2140   26.5880   43.6470 C   0  0  0  0  0  0  0  0  0  0  0  0
   37.9940   27.3770   43.4210 C   0  0  1  0  0  0  0  0  0  0  0  0
   39.4950   27.6480   41.7490 H   0  0  0  0  0  0  0  0  0  0  0  0
   39.1010   25.5740   44.0350 H   0  0  0  0  0  0  0  0  0  0  0  0
   40.0520   27.1560   44.1220 H   0  0  0  0  0  0  0  0  0  0  0  0
   37.0040   26.8700   43.5430 H   0  0  0  0  0  0  0  0  0  0  0  0
   37.9230   28.8680   43.5570 C   0  0  0  0  0  0  0  0  0  0  0  0
   36.8850   29.1930   43.4040 H   0  0  0  0  0  0  0  0  0  0  0  0
   38.2040   29.1170   44.5920 H   0  0  0  0  0  0  0  0  0  0  0  0
   38.8530   29.6060   42.6310 C   0  0  0  0  0  0  0  0  0  0  0  0
   39.4200   28.9240   41.9930 H   0  0  0  0  0  0  0  0  0  0  0  0
   39.4900   30.3260   43.1630 H   0  0  0  0  0  0  0  0  0  0  0  0
   37.9890   30.3970   41.7400 N   0  0  0  0  0  0  0  0  0  0  0  0
   36.7390   30.1870   41.3060 C   0  0  0  0  0  0  0  0  0  0  0  0
   36.1730   29.3190   41.5950 H   0  0  0  0  0  0  0  0  0  0  0  0
   36.3610   31.1940   40.5000 N   0  0  0  0  0  0  0  0  0  0  0  0
   37.3420   32.0830   40.3850 C   0  0  0  0  0  0  0  0  0  0  0  0
   37.5090   33.2750   39.7100 C   0  0  0  0  0  0  0  0  0  0  0  0
   36.7180   33.6830   39.0940 H   0  0  0  0  0  0  0  0  0  0  0  0
   38.6910   33.9510   39.8210 N   0  0  0  0  0  0  0  0  0  0  0  0
   39.6710   33.4150   40.6030 C   0  0  0  0  0  0  0  0  0  0  0  0
   40.6460   33.8600   40.7650 H   0  0  0  0  0  0  0  0  0  0  0  0
   39.5170   32.2530   41.2650 N   0  0  0  0  0  0  0  0  0  0  0  0
   38.3520   31.5720   41.1640 C   0  0  0  0  0  0  0  0  0  0  0  0
  1  7  1  1  0  0  0
  2  1  1  0  0  0  0
  2  8  1  0  0  0  0
  3  2  1  0  0  0  0
  3  4  1  0  0  0  0
  4 13  1  0  0  0  0
  4  5  1  0  0  0  0
  5 15  1  0  0  0  0
  6 16  1  6  0  0  0
  6  1  1  0  0  0  0
  6  5  1  0  0  0  0
  6 26  1  0  0  0  0
  9  2  1  0  0  0  0
 10  3  1  0  0  0  0
 11  3  1  0  0  0  0
 12  4  1  0  0  0  0
 14  5  1  0  0  0  0
 17 22  1  0  0  0  0
 17  1  1  0  0  0  0
 18 17  2  0  0  0  0
 19 20  2  0  0  0  0
 19 18  1  0  0  0  0
 20 21  1  0  0  0  0
 21 25  1  0  0  0  0
 21 22  2  0  0  0  0
 23 18  1  0  0  0  0
 24 19  1  0  0  0  0
 26 29  1  6  0  0  0
 26 28  1  0  0  0  0
 26 27  1  0  0  0  0
 27 30  1  0  0  0  0
 27 31  1  0  0  0  0
 28 32  1  1  0  0  0
 28 33  1  0  0  0  0
 28 27  1  0  0  0  0
 33 35  1  0  0  0  0
 34 33  1  0  0  0  0
 36 38  1  0  0  0  0
 36 33  1  0  0  0  0
 37 36  1  0  0  0  0
 39 36  1  0  0  0  0
 40 41  1  0  0  0  0
 40 39  1  0  0  0  0
 42 40  2  0  0  0  0
 43 42  1  0  0  0  0
 43 50  1  0  0  0  0
 44 46  1  0  0  0  0
 44 43  2  0  0  0  0
 45 44  1  0  0  0  0
 46 47  2  0  0  0  0
 47 48  1  0  0  0  0
 47 49  1  0  0  0  0
 50 49  2  0  0  0  0
 50 39  1  0  0  0  0
M  END
>  <minimizedAffinity>
-5.75981379

$$$$

 OpenBabel03242512033D

 50 54  0  0  1  0  0  0  0  0999 V2000
   37.9410   30.2210   38.4190 C   0  0  2  0  0  0  0  0  0  0  0  0
   38.0190   30.4180   36.9350 C   0  0  0  0  0  0  0  0  0  0  0  0
   36.7010   30.2900   36.2760 C   0  0  0  0  0  0  0  0  0  0  0  0
   36.0020   28.9850   36.5850 C   0  0  0  0  0  0  0  0  0  0  0  0
   36.1700   28.5330   38.0060 C   0  0  0  0  0  0  0  0  0  0  0  0
   36.6730   29.6310   38.9170 C   0  0  1  0  0  0  0  0  0  0  0  0
   38.7800   29.5040   38.6790 H   0  0  0  0  0  0  0  0  0  0  0  0
   38.7080   29.6940   36.4580 H   0  0  0  0  0  0  0  0  0  0  0  0
   38.4130   31.4260   36.7400 H   0  0  0  0  0  0  0  0  0  0  0  0
   36.8580   30.2920   35.1740 H   0  0  0  0  0  0  0  0  0  0  0  0
   36.0670   31.1690   36.5410 H   0  0  0  0  0  0  0  0  0  0  0  0
   34.9230   29.1400   36.3760 H   0  0  0  0  0  0  0  0  0  0  0  0
   36.3310   28.1950   35.8540 H   0  0  0  0  0  0  0  0  0  0  0  0
   35.2320   28.1280   38.3890 H   0  0  0  0  0  0  0  0  0  0  0  0
   36.9590   27.7310   37.9960 H   0  0  0  0  0  0  0  0  0  0  0  0
   35.8220   30.3140   39.0470 H   0  0  0  0  0  0  0  0  0  0  0  0
   38.2690   31.4460   39.1770 C   0  0  0  0  0  0  0  0  0  0  0  0
   37.3070   32.4330   39.0630 C   0  0  0  0  0  0  0  0  0  0  0  0
   37.4780   33.6560   39.7340 C   0  0  0  0  0  0  0  0  0  0  0  0
   38.6530   33.7690   40.4880 N   0  0  0  0  0  0  0  0  0  0  0  0
   39.5620   32.7750   40.5650 C   0  0  0  0  0  0  0  0  0  0  0  0
   39.3520   31.6230   39.9050 N   0  0  0  0  0  0  0  0  0  0  0  0
   36.3660   32.5480   38.5440 H   0  0  0  0  0  0  0  0  0  0  0  0
   36.8680   34.5200   39.7750 H   0  0  0  0  0  0  0  0  0  0  0  0
   40.4270   32.9670   41.1690 H   0  0  0  0  0  0  0  0  0  0  0  0
   36.9410   29.0210   40.2640 C   0  0  2  0  0  0  0  0  0  0  0  0
   35.7470   28.7410   41.1600 C   0  0  0  0  0  0  0  0  0  0  0  0
   36.7090   29.7990   41.5100 C   0  0  1  0  0  0  0  0  0  0  0  0
   37.6600   28.1750   40.2520 H   0  0  0  0  0  0  0  0  0  0  0  0
   34.7380   29.0440   40.8750 H   0  0  0  0  0  0  0  0  0  0  0  0
   35.7720   27.8510   41.8360 H   0  0  0  0  0  0  0  0  0  0  0  0
   36.4050   30.8640   41.3570 H   0  0  0  0  0  0  0  0  0  0  0  0
   37.8140   29.6280   42.5080 C   0  0  0  0  0  0  0  0  0  0  0  0
   38.7560   29.4480   41.9720 H   0  0  0  0  0  0  0  0  0  0  0  0
   37.9140   30.5810   43.0510 H   0  0  0  0  0  0  0  0  0  0  0  0
   37.5590   28.5400   43.5160 C   0  0  0  0  0  0  0  0  0  0  0  0
   36.5730   28.0890   43.3890 H   0  0  0  0  0  0  0  0  0  0  0  0
   37.7510   28.8700   44.5470 H   0  0  0  0  0  0  0  0  0  0  0  0
   38.5450   27.4860   43.2290 N   0  0  0  0  0  0  0  0  0  0  0  0
   39.8740   27.4490   43.4000 C   0  0  0  0  0  0  0  0  0  0  0  0
   40.4190   28.2790   43.8120 H   0  0  0  0  0  0  0  0  0  0  0  0
   40.3530   26.2620   42.9880 N   0  0  0  0  0  0  0  0  0  0  0  0
   39.3620   25.4970   42.5410 C   0  0  0  0  0  0  0  0  0  0  0  0
   39.2680   24.2260   42.0140 C   0  0  0  0  0  0  0  0  0  0  0  0
   40.1480   23.6080   41.8870 H   0  0  0  0  0  0  0  0  0  0  0  0
   38.0470   23.7390   41.6450 N   0  0  0  0  0  0  0  0  0  0  0  0
   36.9540   24.5370   41.8140 C   0  0  0  0  0  0  0  0  0  0  0  0
   35.9380   24.2590   41.5590 H   0  0  0  0  0  0  0  0  0  0  0  0
   37.0360   25.7790   42.3280 N   0  0  0  0  0  0  0  0  0  0  0  0
   38.2400   26.2750   42.6970 C   0  0  0  0  0  0  0  0  0  0  0  0
  1  7  1  1  0  0  0
  1  6  1  0  0  0  0
  1 17  1  0  0  0  0
  2  1  1  0  0  0  0
  3 11  1  0  0  0  0
  3  4  1  0  0  0  0
  3  2  1  0  0  0  0
  4  5  1  0  0  0  0
  5 14  1  0  0  0  0
  5  6  1  0  0  0  0
  6 16  1  1  0  0  0
  6 26  1  0  0  0  0
  8  2  1  0  0  0  0
  9  2  1  0  0  0  0
 10  3  1  0  0  0  0
 12  4  1  0  0  0  0
 13  4  1  0  0  0  0
 15  5  1  0  0  0  0
 17 22  1  0  0  0  0
 18 17  2  0  0  0  0
 18 19  1  0  0  0  0
 19 24  1  0  0  0  0
 19 20  2  0  0  0  0
 20 21  1  0  0  0  0
 21 25  1  0  0  0  0
 22 21  2  0  0  0  0
 23 18  1  0  0  0  0
 26 29  1  1  0  0  0
 26 27  1  0  0  0  0
 26 28  1  0  0  0  0
 27 28  1  0  0  0  0
 27 31  1  0  0  0  0
 28 32  1  6  0  0  0
 28 33  1  0  0  0  0
 30 27  1  0  0  0  0
 33 35  1  0  0  0  0
 33 36  1  0  0  0  0
 34 33  1  0  0  0  0
 36 38  1  0  0  0  0
 37 36  1  0  0  0  0
 39 40  1  0  0  0  0
 39 36  1  0  0  0  0
 40 41  1  0  0  0  0
 42 40  2  0  0  0  0
 43 50  1  0  0  0  0
 43 42  1  0  0  0  0
 44 43  2  0  0  0  0
 45 44  1  0  0  0  0
 46 47  2  0  0  0  0
 46 44  1  0  0  0  0
 47 49  1  0  0  0  0
 48 47  1  0  0  0  0
 49 50  2  0  0  0  0
 50 39  1  0  0  0  0
M  END
>  <minimizedAffinity>
-5.7466011

$$$$

 OpenBabel03242512033D

 50 54  0  0  1  0  0  0  0  0999 V2000
   39.2020   26.1400   41.2150 C   0  0  2  0  0  0  0  0  0  0  0  0
   40.3410   25.1750   41.3560 C   0  0  0  0  0  0  0  0  0  0  0  0
   40.5860   24.7870   42.7610 C   0  0  0  0  0  0  0  0  0  0  0  0
   40.7990   25.9700   43.6790 C   0  0  0  0  0  0  0  0  0  0  0  0
   39.9080   27.1370   43.3750 C   0  0  0  0  0  0  0  0  0  0  0  0
   38.7450   26.7720   42.4790 C   0  0  1  0  0  0  0  0  0  0  0  0
   39.5790   26.9640   40.5350 H   0  0  0  0  0  0  0  0  0  0  0  0
   41.2840   25.5880   40.9480 H   0  0  0  0  0  0  0  0  0  0  0  0
   40.1010   24.2710   40.7780 H   0  0  0  0  0  0  0  0  0  0  0  0
   41.5320   24.2010   42.8040 H   0  0  0  0  0  0  0  0  0  0  0  0
   39.7540   24.1350   43.1160 H   0  0  0  0  0  0  0  0  0  0  0  0
   40.5980   25.6160   44.7130 H   0  0  0  0  0  0  0  0  0  0  0  0
   41.8860   26.2620   43.6770 H   0  0  0  0  0  0  0  0  0  0  0  0
   39.5420   27.5870   44.3000 H   0  0  0  0  0  0  0  0  0  0  0  0
   40.5350   27.8800   42.8090 H   0  0  0  0  0  0  0  0  0  0  0  0
   38.0630   26.1870   43.1110 H   0  0  0  0  0  0  0  0  0  0  0  0
   38.0540   25.5670   40.4840 C   0  0  0  0  0  0  0  0  0  0  0  0
   37.3960   24.5750   41.1890 C   0  0  0  0  0  0  0  0  0  0  0  0
   36.2770   23.9400   40.6230 C   0  0  0  0  0  0  0  0  0  0  0  0
   35.9160   24.3860   39.3450 N   0  0  0  0  0  0  0  0  0  0  0  0
   36.5930   25.3580   38.6990 C   0  0  0  0  0  0  0  0  0  0  0  0
   37.6560   25.9350   39.2840 N   0  0  0  0  0  0  0  0  0  0  0  0
   37.5140   24.0930   42.1490 H   0  0  0  0  0  0  0  0  0  0  0  0
   35.6490   23.1740   40.9940 H   0  0  0  0  0  0  0  0  0  0  0  0
   36.2310   25.6220   37.7250 H   0  0  0  0  0  0  0  0  0  0  0  0
   38.0210   28.0410   42.1290 C   0  0  2  0  0  0  0  0  0  0  0  0
   37.2830   28.7610   43.2440 C   0  0  0  0  0  0  0  0  0  0  0  0
   36.5350   28.1020   42.1610 C   0  0  1  0  0  0  0  0  0  0  0  0
   38.6010   28.7420   41.4930 H   0  0  0  0  0  0  0  0  0  0  0  0
   37.2100   28.3350   44.2460 H   0  0  0  0  0  0  0  0  0  0  0  0
   37.2310   29.8780   43.2290 H   0  0  0  0  0  0  0  0  0  0  0  0
   36.0240   27.1320   42.3840 H   0  0  0  0  0  0  0  0  0  0  0  0
   35.9640   28.8230   40.9790 C   0  0  0  0  0  0  0  0  0  0  0  0
   36.4170   28.4230   40.0610 H   0  0  0  0  0  0  0  0  0  0  0  0
   34.8860   28.5970   40.9470 H   0  0  0  0  0  0  0  0  0  0  0  0
   36.1260   30.3190   41.0430 C   0  0  0  0  0  0  0  0  0  0  0  0
   36.6930   30.6300   41.9230 H   0  0  0  0  0  0  0  0  0  0  0  0
   35.1690   30.8490   40.9390 H   0  0  0  0  0  0  0  0  0  0  0  0
   36.9330   30.6860   39.8690 N   0  0  0  0  0  0  0  0  0  0  0  0
   36.7570   30.4400   38.5640 C   0  0  0  0  0  0  0  0  0  0  0  0
   35.9120   29.8850   38.1960 H   0  0  0  0  0  0  0  0  0  0  0  0
   37.7650   30.9810   37.8580 N   0  0  0  0  0  0  0  0  0  0  0  0
   38.6200   31.5910   38.6720 C   0  0  0  0  0  0  0  0  0  0  0  0
   39.7970   32.2930   38.5090 C   0  0  0  0  0  0  0  0  0  0  0  0
   40.2230   32.4480   37.5260 H   0  0  0  0  0  0  0  0  0  0  0  0
   40.4350   32.8000   39.6050 N   0  0  0  0  0  0  0  0  0  0  0  0
   39.8790   32.5900   40.8320 C   0  0  0  0  0  0  0  0  0  0  0  0
   40.2930   32.9440   41.7690 H   0  0  0  0  0  0  0  0  0  0  0  0
   38.7300   31.9070   41.0010 N   0  0  0  0  0  0  0  0  0  0  0  0
   38.0870   31.3980   39.9240 C   0  0  0  0  0  0  0  0  0  0  0  0
  1  7  1  6  0  0  0
  1  2  1  0  0  0  0
  1  6  1  0  0  0  0
  2  3  1  0  0  0  0
  3 10  1  0  0  0  0
  3 11  1  0  0  0  0
  3  4  1  0  0  0  0
  4 12  1  0  0  0  0
  5  4  1  0  0  0  0
  5 14  1  0  0  0  0
  6 16  1  1  0  0  0
  6  5  1  0  0  0  0
  8  2  1  0  0  0  0
  9  2  1  0  0  0  0
 13  4  1  0  0  0  0
 15  5  1  0  0  0  0
 17 18  1  0  0  0  0
 17  1  1  0  0  0  0
 18 23  1  0  0  0  0
 19 24  1  0  0  0  0
 19 18  2  0  0  0  0
 20 19  1  0  0  0  0
 21 22  1  0  0  0  0
 21 20  2  0  0  0  0
 22 17  2  0  0  0  0
 25 21  1  0  0  0  0
 26 29  1  6  0  0  0
 26 28  1  0  0  0  0
 26  6  1  0  0  0  0
 26 27  1  0  0  0  0
 27 30  1  0  0  0  0
 28 32  1  1  0  0  0
 28 27  1  0  0  0  0
 31 27  1  0  0  0  0
 33 36  1  0  0  0  0
 33 28  1  0  0  0  0
 34 33  1  0  0  0  0
 35 33  1  0  0  0  0
 36 37  1  0  0  0  0
 38 36  1  0  0  0  0
 39 50  1  0  0  0  0
 39 36  1  0  0  0  0
 40 39  1  0  0  0  0
 41 40  1  0  0  0  0
 42 40  2  0  0  0  0
 42 43  1  0  0  0  0
 43 50  1  0  0  0  0
 44 43  2  0  0  0  0
 44 46  1  0  0  0  0
 45 44  1  0  0  0  0
 46 47  2  0  0  0  0
 47 49  1  0  0  0  0
 47 48  1  0  0  0  0
 50 49  2  0  0  0  0
M  END
>  <minimizedAffinity>
-5.67253351

$$$$

 OpenBabel03242512033D

 50 54  0  0  1  0  0  0  0  0999 V2000
   37.6980   26.5590   40.1770 C   0  0  2  0  0  0  0  0  0  0  0  0
   37.3790   25.1740   39.7010 C   0  0  0  0  0  0  0  0  0  0  0  0
   36.4520   24.4620   40.6070 C   0  0  0  0  0  0  0  0  0  0  0  0
   36.9360   24.4130   42.0390 C   0  0  0  0  0  0  0  0  0  0  0  0
   37.5940   25.6810   42.4950 C   0  0  0  0  0  0  0  0  0  0  0  0
   37.3140   26.8530   41.5810 C   0  0  1  0  0  0  0  0  0  0  0  0
   38.8240   26.6590   40.1010 H   0  0  0  0  0  0  0  0  0  0  0  0
   38.2910   24.5550   39.5920 H   0  0  0  0  0  0  0  0  0  0  0  0
   36.9120   25.2490   38.7080 H   0  0  0  0  0  0  0  0  0  0  0  0
   36.3860   23.4000   40.2780 H   0  0  0  0  0  0  0  0  0  0  0  0
   35.4370   24.9160   40.5310 H   0  0  0  0  0  0  0  0  0  0  0  0
   36.0470   24.2140   42.6730 H   0  0  0  0  0  0  0  0  0  0  0  0
   37.6050   23.5190   42.1840 H   0  0  0  0  0  0  0  0  0  0  0  0
   37.2900   25.9210   43.5170 H   0  0  0  0  0  0  0  0  0  0  0  0
   38.7040   25.4980   42.4590 H   0  0  0  0  0  0  0  0  0  0  0  0
   36.2640   27.1210   41.7660 H   0  0  0  0  0  0  0  0  0  0  0  0
   37.1820   27.6080   39.2740 C   0  0  0  0  0  0  0  0  0  0  0  0
   35.8390   27.8800   39.4640 C   0  0  0  0  0  0  0  0  0  0  0  0
   35.2080   28.8620   38.6800 C   0  0  0  0  0  0  0  0  0  0  0  0
   36.0290   29.5000   37.7410 N   0  0  0  0  0  0  0  0  0  0  0  0
   37.3350   29.1960   37.5950 C   0  0  0  0  0  0  0  0  0  0  0  0
   37.8920   28.2500   38.3700 N   0  0  0  0  0  0  0  0  0  0  0  0
   35.0520   27.5100   40.1040 H   0  0  0  0  0  0  0  0  0  0  0  0
   34.2090   29.2120   38.6720 H   0  0  0  0  0  0  0  0  0  0  0  0
   37.8700   29.7450   36.8460 H   0  0  0  0  0  0  0  0  0  0  0  0
   38.1410   28.0130   42.0570 C   0  0  2  0  0  0  0  0  0  0  0  0
   37.8200   28.5930   43.4240 C   0  0  0  0  0  0  0  0  0  0  0  0
   37.5390   29.3660   42.2040 C   0  0  1  0  0  0  0  0  0  0  0  0
   39.2330   27.8960   41.9000 H   0  0  0  0  0  0  0  0  0  0  0  0
   36.9710   28.2360   44.0080 H   0  0  0  0  0  0  0  0  0  0  0  0
   38.6520   29.0020   44.0500 H   0  0  0  0  0  0  0  0  0  0  0  0
   36.4770   29.4540   41.8650 H   0  0  0  0  0  0  0  0  0  0  0  0
   38.4280   30.4500   41.6760 C   0  0  0  0  0  0  0  0  0  0  0  0
   38.7420   31.0940   42.5090 H   0  0  0  0  0  0  0  0  0  0  0  0
   39.3300   29.9660   41.2680 H   0  0  0  0  0  0  0  0  0  0  0  0
   37.8020   31.2690   40.5790 C   0  0  0  0  0  0  0  0  0  0  0  0
   36.8880   31.7650   40.9110 H   0  0  0  0  0  0  0  0  0  0  0  0
   37.6660   30.6940   39.6520 H   0  0  0  0  0  0  0  0  0  0  0  0
   38.7700   32.3320   40.2670 N   0  0  0  0  0  0  0  0  0  0  0  0
   38.9830   33.5280   40.8340 C   0  0  0  0  0  0  0  0  0  0  0  0
   38.4010   33.8740   41.6700 H   0  0  0  0  0  0  0  0  0  0  0  0
   39.9870   34.1600   40.2020 N   0  0  0  0  0  0  0  0  0  0  0  0
   40.4560   33.4040   39.2150 C   0  0  0  0  0  0  0  0  0  0  0  0
   41.4490   33.5370   38.2660 C   0  0  0  0  0  0  0  0  0  0  0  0
   42.0580   34.4310   38.2180 H   0  0  0  0  0  0  0  0  0  0  0  0
   41.6670   32.5270   37.3730 N   0  0  0  0  0  0  0  0  0  0  0  0
   40.8850   31.4120   37.4540 C   0  0  0  0  0  0  0  0  0  0  0  0
   40.9660   30.5500   36.8020 H   0  0  0  0  0  0  0  0  0  0  0  0
   39.9140   31.2730   38.3770 N   0  0  0  0  0  0  0  0  0  0  0  0
   39.6870   32.2660   39.2680 C   0  0  0  0  0  0  0  0  0  0  0  0
  1  7  1  6  0  0  0
  1  6  1  0  0  0  0
  2  1  1  0  0  0  0
  2  3  1  0  0  0  0
  3  4  1  0  0  0  0
  4 13  1  0  0  0  0
  4  5  1  0  0  0  0
  4 12  1  0  0  0  0
  5 14  1  0  0  0  0
  6 16  1  1  0  0  0
  6 26  1  0  0  0  0
  6  5  1  0  0  0  0
  8  2  1  0  0  0  0
  9  2  1  0  0  0  0
 10  3  1  0  0  0  0
 11  3  1  0  0  0  0
 15  5  1  0  0  0  0
 17 18  1  0  0  0  0
 17  1  1  0  0  0  0
 18 23  1  0  0  0  0
 19 18  2  0  0  0  0
 20 19  1  0  0  0  0
 21 20  2  0  0  0  0
 21 22  1  0  0  0  0
 22 17  2  0  0  0  0
 24 19  1  0  0  0  0
 25 21  1  0  0  0  0
 26 29  1  6  0  0  0
 26 28  1  0  0  0  0
 26 27  1  0  0  0  0
 27 30  1  0  0  0  0
 27 31  1  0  0  0  0
 28 32  1  6  0  0  0
 28 27  1  0  0  0  0
 33 28  1  0  0  0  0
 33 34  1  0  0  0  0
 35 33  1  0  0  0  0
 36 37  1  0  0  0  0
 36 33  1  0  0  0  0
 38 36  1  0  0  0  0
 39 36  1  0  0  0  0
 39 40  1  0  0  0  0
 40 41  1  0  0  0  0
 42 40  2  0  0  0  0
 43 50  1  0  0  0  0
 43 42  1  0  0  0  0
 44 43  2  0  0  0  0
 45 44  1  0  0  0  0
 46 47  2  0  0  0  0
 46 44  1  0  0  0  0
 47 49  1  0  0  0  0
 48 47  1  0  0  0  0
 49 50  2  0  0  0  0
 50 39  1  0  0  0  0
M  END
>  <minimizedAffinity>
-5.65821218

$$$$

 OpenBabel03242512033D

 50 54  0  0  1  0  0  0  0  0999 V2000
   37.5920   26.4870   40.1910 C   0  0  2  0  0  0  0  0  0  0  0  0
   37.0800   25.2910   39.4460 C   0  0  0  0  0  0  0  0  0  0  0  0
   36.4110   24.3140   40.3310 C   0  0  0  0  0  0  0  0  0  0  0  0
   37.2760   23.8660   41.4880 C   0  0  0  0  0  0  0  0  0  0  0  0
   38.1020   24.9670   42.0840 C   0  0  0  0  0  0  0  0  0  0  0  0
   37.6360   26.3440   41.6680 C   0  0  1  0  0  0  0  0  0  0  0  0
   38.6550   26.6430   39.8280 H   0  0  0  0  0  0  0  0  0  0  0  0
   37.8900   24.7620   38.9070 H   0  0  0  0  0  0  0  0  0  0  0  0
   36.3560   25.6370   38.6930 H   0  0  0  0  0  0  0  0  0  0  0  0
   36.1990   23.3930   39.7420 H   0  0  0  0  0  0  0  0  0  0  0  0
   35.4410   24.7360   40.6830 H   0  0  0  0  0  0  0  0  0  0  0  0
   36.5930   23.4600   42.2630 H   0  0  0  0  0  0  0  0  0  0  0  0
   37.9110   22.9920   41.1710 H   0  0  0  0  0  0  0  0  0  0  0  0
   38.1120   24.8870   43.1730 H   0  0  0  0  0  0  0  0  0  0  0  0
   39.1450   24.8400   41.6810 H   0  0  0  0  0  0  0  0  0  0  0  0
   36.6970   26.5110   42.2130 H   0  0  0  0  0  0  0  0  0  0  0  0
   36.8980   27.7350   39.8160 C   0  0  0  0  0  0  0  0  0  0  0  0
   37.4620   28.3660   38.7210 C   0  0  0  0  0  0  0  0  0  0  0  0
   36.9050   29.5650   38.2420 C   0  0  0  0  0  0  0  0  0  0  0  0
   35.7860   30.0300   38.9450 N   0  0  0  0  0  0  0  0  0  0  0  0
   35.2750   29.3770   40.0090 C   0  0  0  0  0  0  0  0  0  0  0  0
   35.8440   28.2330   40.4280 N   0  0  0  0  0  0  0  0  0  0  0  0
   38.3000   28.1860   38.0640 H   0  0  0  0  0  0  0  0  0  0  0  0
   37.1820   30.1880   37.4330 H   0  0  0  0  0  0  0  0  0  0  0  0
   34.4180   29.8210   40.4740 H   0  0  0  0  0  0  0  0  0  0  0  0
   38.6240   27.3430   42.2030 C   0  0  2  0  0  0  0  0  0  0  0  0
   38.9760   27.2640   43.6780 C   0  0  0  0  0  0  0  0  0  0  0  0
   38.1950   28.3980   43.1590 C   0  0  1  0  0  0  0  0  0  0  0  0
   39.5220   27.4880   41.5670 H   0  0  0  0  0  0  0  0  0  0  0  0
   38.4730   26.5630   44.3460 H   0  0  0  0  0  0  0  0  0  0  0  0
   40.0130   27.5270   44.0040 H   0  0  0  0  0  0  0  0  0  0  0  0
   37.0980   28.4290   43.3740 H   0  0  0  0  0  0  0  0  0  0  0  0
   38.7800   29.7390   42.8350 C   0  0  0  0  0  0  0  0  0  0  0  0
   37.9890   30.4990   42.8940 H   0  0  0  0  0  0  0  0  0  0  0  0
   39.5250   29.9690   43.6130 H   0  0  0  0  0  0  0  0  0  0  0  0
   39.4710   29.7930   41.4980 C   0  0  0  0  0  0  0  0  0  0  0  0
   39.0170   29.1100   40.7770 H   0  0  0  0  0  0  0  0  0  0  0  0
   40.5590   29.6680   41.5830 H   0  0  0  0  0  0  0  0  0  0  0  0
   39.2490   31.1550   40.9860 N   0  0  0  0  0  0  0  0  0  0  0  0
   38.1270   31.8750   40.8480 C   0  0  0  0  0  0  0  0  0  0  0  0
   37.1630   31.4900   41.1280 H   0  0  0  0  0  0  0  0  0  0  0  0
   38.4210   33.0810   40.3300 N   0  0  0  0  0  0  0  0  0  0  0  0
   39.7290   33.1830   40.1180 C   0  0  0  0  0  0  0  0  0  0  0  0
   40.5670   34.1600   39.6200 C   0  0  0  0  0  0  0  0  0  0  0  0
   40.1770   35.1150   39.2910 H   0  0  0  0  0  0  0  0  0  0  0  0
   41.9090   33.9180   39.5380 N   0  0  0  0  0  0  0  0  0  0  0  0
   42.3740   32.7070   39.9580 C   0  0  0  0  0  0  0  0  0  0  0  0
   43.4150   32.4030   39.9420 H   0  0  0  0  0  0  0  0  0  0  0  0
   41.5640   31.7480   40.4460 N   0  0  0  0  0  0  0  0  0  0  0  0
   40.2320   31.9730   40.5310 C   0  0  0  0  0  0  0  0  0  0  0  0
  1  7  1  6  0  0  0
  1  6  1  0  0  0  0
  2  1  1  0  0  0  0
  2  3  1  0  0  0  0
  3 11  1  0  0  0  0
  3  4  1  0  0  0  0
  4  5  1  0  0  0  0
  4 12  1  0  0  0  0
  5 14  1  0  0  0  0
  6  5  1  0  0  0  0
  6 26  1  0  0  0  0
  6 16  1  1  0  0  0
  8  2  1  0  0  0  0
  9  2  1  0  0  0  0
 10  3  1  0  0  0  0
 13  4  1  0  0  0  0
 15  5  1  0  0  0  0
 17  1  1  0  0  0  0
 17 22  1  0  0  0  0
 18 17  2  0  0  0  0
 19 18  1  0  0  0  0
 19 20  2  0  0  0  0
 20 21  1  0  0  0  0
 21 22  2  0  0  0  0
 21 25  1  0  0  0  0
 23 18  1  0  0  0  0
 24 19  1  0  0  0  0
 26 29  1  6  0  0  0
 26 28  1  0  0  0  0
 26 27  1  0  0  0  0
 27 31  1  0  0  0  0
 27 30  1  0  0  0  0
 28 32  1  1  0  0  0
 28 27  1  0  0  0  0
 33 34  1  0  0  0  0
 33 28  1  0  0  0  0
 33 35  1  0  0  0  0
 36 38  1  0  0  0  0
 36 33  1  0  0  0  0
 37 36  1  0  0  0  0
 39 36  1  0  0  0  0
 40 39  1  0  0  0  0
 40 41  1  0  0  0  0
 42 40  2  0  0  0  0
 43 42  1  0  0  0  0
 43 50  1  0  0  0  0
 44 43  2  0  0  0  0
 45 44  1  0  0  0  0
 46 44  1  0  0  0  0
 46 47  2  0  0  0  0
 47 49  1  0  0  0  0
 48 47  1  0  0  0  0
 49 50  2  0  0  0  0
 50 39  1  0  0  0  0
M  END
>  <minimizedAffinity>
-5.59872818

$$$$

 OpenBabel03242512033D

 50 54  0  0  1  0  0  0  0  0999 V2000
   37.5420   26.3730   40.2790 C   0  0  2  0  0  0  0  0  0  0  0  0
   36.9400   25.1900   39.5820 C   0  0  0  0  0  0  0  0  0  0  0  0
   36.2980   24.2450   40.5190 C   0  0  0  0  0  0  0  0  0  0  0  0
   37.2210   23.7760   41.6220 C   0  0  0  0  0  0  0  0  0  0  0  0
   38.1230   24.8510   42.1510 C   0  0  0  0  0  0  0  0  0  0  0  0
   37.6790   26.2410   41.7510 C   0  0  1  0  0  0  0  0  0  0  0  0
   38.5840   26.4880   39.8460 H   0  0  0  0  0  0  0  0  0  0  0  0
   37.6940   24.6280   38.9960 H   0  0  0  0  0  0  0  0  0  0  0  0
   36.1810   25.5550   38.8750 H   0  0  0  0  0  0  0  0  0  0  0  0
   36.0150   23.3270   39.9560 H   0  0  0  0  0  0  0  0  0  0  0  0
   35.3680   24.7040   40.9300 H   0  0  0  0  0  0  0  0  0  0  0  0
   36.5770   23.4010   42.4440 H   0  0  0  0  0  0  0  0  0  0  0  0
   37.8030   22.8770   41.2730 H   0  0  0  0  0  0  0  0  0  0  0  0
   38.2020   24.7800   43.2370 H   0  0  0  0  0  0  0  0  0  0  0  0
   39.1310   24.6840   41.6810 H   0  0  0  0  0  0  0  0  0  0  0  0
   36.7840   26.4450   42.3560 H   0  0  0  0  0  0  0  0  0  0  0  0
   36.8690   27.6420   39.9370 C   0  0  0  0  0  0  0  0  0  0  0  0
   37.4790   28.3220   38.8980 C   0  0  0  0  0  0  0  0  0  0  0  0
   36.9470   29.5460   38.4560 C   0  0  0  0  0  0  0  0  0  0  0  0
   35.8020   29.9830   39.1350 N   0  0  0  0  0  0  0  0  0  0  0  0
   35.2460   29.2820   40.1450 C   0  0  0  0  0  0  0  0  0  0  0  0
   35.7930   28.1160   40.5300 N   0  0  0  0  0  0  0  0  0  0  0  0
   38.3430   28.1690   38.2680 H   0  0  0  0  0  0  0  0  0  0  0  0
   37.2590   30.2060   37.6900 H   0  0  0  0  0  0  0  0  0  0  0  0
   34.3730   29.7090   40.5960 H   0  0  0  0  0  0  0  0  0  0  0  0
   38.7340   27.2080   42.2090 C   0  0  2  0  0  0  0  0  0  0  0  0
   39.1260   27.1790   43.6770 C   0  0  0  0  0  0  0  0  0  0  0  0
   38.3910   28.3290   43.1250 C   0  0  1  0  0  0  0  0  0  0  0  0
   39.6190   27.2740   41.5430 H   0  0  0  0  0  0  0  0  0  0  0  0
   38.6070   26.5390   44.3920 H   0  0  0  0  0  0  0  0  0  0  0  0
   40.1850   27.4000   43.9610 H   0  0  0  0  0  0  0  0  0  0  0  0
   37.3040   28.4290   43.3680 H   0  0  0  0  0  0  0  0  0  0  0  0
   39.0370   29.6190   42.7200 C   0  0  0  0  0  0  0  0  0  0  0  0
   38.2550   30.3360   42.4330 H   0  0  0  0  0  0  0  0  0  0  0  0
   39.5510   30.0210   43.6080 H   0  0  0  0  0  0  0  0  0  0  0  0
   40.0520   29.4700   41.6190 C   0  0  0  0  0  0  0  0  0  0  0  0
   39.6040   29.0920   40.6990 H   0  0  0  0  0  0  0  0  0  0  0  0
   40.9330   28.8950   41.9360 H   0  0  0  0  0  0  0  0  0  0  0  0
   40.5300   30.8310   41.3270 N   0  0  0  0  0  0  0  0  0  0  0  0
   41.7570   31.3690   41.3840 C   0  0  0  0  0  0  0  0  0  0  0  0
   42.6170   30.7970   41.6840 H   0  0  0  0  0  0  0  0  0  0  0  0
   41.7050   32.6620   41.0210 N   0  0  0  0  0  0  0  0  0  0  0  0
   40.4570   33.0040   40.7190 C   0  0  0  0  0  0  0  0  0  0  0  0
   39.8330   34.1610   40.2980 C   0  0  0  0  0  0  0  0  0  0  0  0
   40.3950   35.0730   40.1430 H   0  0  0  0  0  0  0  0  0  0  0  0
   38.4860   34.1560   40.0750 N   0  0  0  0  0  0  0  0  0  0  0  0
   37.8000   32.9950   40.2780 C   0  0  0  0  0  0  0  0  0  0  0  0
   36.7330   32.8710   40.1340 H   0  0  0  0  0  0  0  0  0  0  0  0
   38.4010   31.8610   40.6880 N   0  0  0  0  0  0  0  0  0  0  0  0
   39.7350   31.8510   40.9150 C   0  0  0  0  0  0  0  0  0  0  0  0
  1  7  1  6  0  0  0
  1  6  1  0  0  0  0
  2  1  1  0  0  0  0
  2  3  1  0  0  0  0
  3 11  1  0  0  0  0
  3  4  1  0  0  0  0
  4  5  1  0  0  0  0
  4 12  1  0  0  0  0
  5 14  1  0  0  0  0
  6  5  1  0  0  0  0
  6 26  1  0  0  0  0
  6 16  1  1  0  0  0
  8  2  1  0  0  0  0
  9  2  1  0  0  0  0
 10  3  1  0  0  0  0
 13  4  1  0  0  0  0
 15  5  1  0  0  0  0
 17  1  1  0  0  0  0
 17 22  1  0  0  0  0
 18 17  2  0  0  0  0
 19 18  1  0  0  0  0
 19 20  2  0  0  0  0
 20 21  1  0  0  0  0
 21 22  2  0  0  0  0
 21 25  1  0  0  0  0
 23 18  1  0  0  0  0
 24 19  1  0  0  0  0
 26 29  1  6  0  0  0
 26 28  1  0  0  0  0
 26 27  1  0  0  0  0
 27 31  1  0  0  0  0
 27 30  1  0  0  0  0
 28 32  1  1  0  0  0
 28 27  1  0  0  0  0
 33 28  1  0  0  0  0
 33 35  1  0  0  0  0
 34 33  1  0  0  0  0
 36 38  1  0  0  0  0
 36 33  1  0  0  0  0
 37 36  1  0  0  0  0
 39 40  1  0  0  0  0
 39 36  1  0  0  0  0
 40 41  1  0  0  0  0
 42 40  2  0  0  0  0
 43 50  1  0  0  0  0
 43 42  1  0  0  0  0
 44 43  2  0  0  0  0
 45 44  1  0  0  0  0
 46 47  2  0  0  0  0
 46 44  1  0  0  0  0
 47 49  1  0  0  0  0
 48 47  1  0  0  0  0
 49 50  2  0  0  0  0
 50 39  1  0  0  0  0
M  END
>  <minimizedAffinity>
-5.59432983

$$$$

 OpenBabel03242512033D

 50 54  0  0  1  0  0  0  0  0999 V2000
   36.9480   28.7370   36.9970 C   0  0  2  0  0  0  0  0  0  0  0  0
   37.2610   28.6670   35.5320 C   0  0  0  0  0  0  0  0  0  0  0  0
   36.2410   29.3400   34.7010 C   0  0  0  0  0  0  0  0  0  0  0  0
   34.8380   28.8330   34.9500 C   0  0  0  0  0  0  0  0  0  0  0  0
   34.5490   28.5440   36.3930 C   0  0  0  0  0  0  0  0  0  0  0  0
   35.5640   29.1580   37.3310 C   0  0  1  0  0  0  0  0  0  0  0  0
   37.0910   27.6840   37.3930 H   0  0  0  0  0  0  0  0  0  0  0  0
   37.3520   27.6210   35.1790 H   0  0  0  0  0  0  0  0  0  0  0  0
   38.2320   29.1560   35.3630 H   0  0  0  0  0  0  0  0  0  0  0  0
   36.4540   29.1150   33.6310 H   0  0  0  0  0  0  0  0  0  0  0  0
   36.3120   30.4430   34.8470 H   0  0  0  0  0  0  0  0  0  0  0  0
   34.1420   29.6180   34.5880 H   0  0  0  0  0  0  0  0  0  0  0  0
   34.6350   27.9390   34.2960 H   0  0  0  0  0  0  0  0  0  0  0  0
   33.5440   28.8820   36.6540 H   0  0  0  0  0  0  0  0  0  0  0  0
   34.6230   27.4290   36.5180 H   0  0  0  0  0  0  0  0  0  0  0  0
   35.3550   30.2380   37.3200 H   0  0  0  0  0  0  0  0  0  0  0  0
   37.9270   29.5420   37.7540 C   0  0  0  0  0  0  0  0  0  0  0  0
   37.7930   30.9030   37.5450 C   0  0  0  0  0  0  0  0  0  0  0  0
   38.6530   31.7990   38.2050 C   0  0  0  0  0  0  0  0  0  0  0  0
   39.6050   31.2090   39.0460 N   0  0  0  0  0  0  0  0  0  0  0  0
   39.6940   29.8730   39.2140 C   0  0  0  0  0  0  0  0  0  0  0  0
   38.8480   29.0580   38.5620 N   0  0  0  0  0  0  0  0  0  0  0  0
   37.1540   31.5410   36.9520 H   0  0  0  0  0  0  0  0  0  0  0  0
   38.7100   32.8550   38.1800 H   0  0  0  0  0  0  0  0  0  0  0  0
   40.4590   29.5280   39.8810 H   0  0  0  0  0  0  0  0  0  0  0  0
   35.2540   28.6770   38.7200 C   0  0  2  0  0  0  0  0  0  0  0  0
   33.9620   29.1570   39.3590 C   0  0  0  0  0  0  0  0  0  0  0  0
   35.2620   29.6210   39.8700 C   0  0  1  0  0  0  0  0  0  0  0  0
   35.4190   27.5910   38.8800 H   0  0  0  0  0  0  0  0  0  0  0  0
   33.3190   29.8870   38.8650 H   0  0  0  0  0  0  0  0  0  0  0  0
   33.4110   28.4720   40.0500 H   0  0  0  0  0  0  0  0  0  0  0  0
   35.5850   30.6640   39.6280 H   0  0  0  0  0  0  0  0  0  0  0  0
   35.9390   29.0480   41.0780 C   0  0  0  0  0  0  0  0  0  0  0  0
   36.6720   29.7740   41.4560 H   0  0  0  0  0  0  0  0  0  0  0  0
   35.1680   28.9140   41.8540 H   0  0  0  0  0  0  0  0  0  0  0  0
   36.5900   27.7130   40.8330 C   0  0  0  0  0  0  0  0  0  0  0  0
   37.0400   27.6550   39.8400 H   0  0  0  0  0  0  0  0  0  0  0  0
   35.9180   26.8720   41.0500 H   0  0  0  0  0  0  0  0  0  0  0  0
   37.6950   27.6210   41.8020 N   0  0  0  0  0  0  0  0  0  0  0  0
   38.3370   28.5660   42.5020 C   0  0  0  0  0  0  0  0  0  0  0  0
   38.0850   29.6080   42.4180 H   0  0  0  0  0  0  0  0  0  0  0  0
   39.2850   27.9990   43.2680 N   0  0  0  0  0  0  0  0  0  0  0  0
   39.2900   26.6820   43.0940 C   0  0  0  0  0  0  0  0  0  0  0  0
   40.0230   25.6300   43.6040 C   0  0  0  0  0  0  0  0  0  0  0  0
   40.8110   25.7970   44.3260 H   0  0  0  0  0  0  0  0  0  0  0  0
   39.7510   24.3570   43.1890 N   0  0  0  0  0  0  0  0  0  0  0  0
   38.7530   24.1730   42.2770 C   0  0  0  0  0  0  0  0  0  0  0  0
   38.4490   23.2130   41.8770 H   0  0  0  0  0  0  0  0  0  0  0  0
   38.0320   25.1940   41.7750 N   0  0  0  0  0  0  0  0  0  0  0  0
   38.2920   26.4610   42.1760 C   0  0  0  0  0  0  0  0  0  0  0  0
  1  6  1  0  0  0  0
  1  7  1  1  0  0  0
  1 17  1  0  0  0  0
  2  1  1  0  0  0  0
  3 11  1  0  0  0  0
  3  4  1  0  0  0  0
  3  2  1  0  0  0  0
  4  5  1  0  0  0  0
  5 15  1  0  0  0  0
  5 14  1  0  0  0  0
  5  6  1  0  0  0  0
  6 16  1  6  0  0  0
  6 26  1  0  0  0  0
  8  2  1  0  0  0  0
  9  2  1  0  0  0  0
 10  3  1  0  0  0  0
 12  4  1  0  0  0  0
 13  4  1  0  0  0  0
 17 22  1  0  0  0  0
 18 17  2  0  0  0  0
 18 19  1  0  0  0  0
 19 20  2  0  0  0  0
 20 21  1  0  0  0  0
 21 25  1  0  0  0  0
 22 21  2  0  0  0  0
 23 18  1  0  0  0  0
 24 19  1  0  0  0  0
 26 29  1  1  0  0  0
 26 27  1  0  0  0  0
 26 28  1  0  0  0  0
 27 28  1  0  0  0  0
 27 31  1  0  0  0  0
 28 32  1  6  0  0  0
 28 33  1  0  0  0  0
 30 27  1  0  0  0  0
 33 34  1  0  0  0  0
 33 35  1  0  0  0  0
 36 38  1  0  0  0  0
 36 33  1  0  0  0  0
 36 39  1  0  0  0  0
 37 36  1  0  0  0  0
 39 50  1  0  0  0  0
 39 40  1  0  0  0  0
 40 42  2  0  0  0  0
 41 40  1  0  0  0  0
 43 42  1  0  0  0  0
 43 44  1  0  0  0  0
 44 45  1  0  0  0  0
 46 44  2  0  0  0  0
 47 46  1  0  0  0  0
 48 47  1  0  0  0  0
 49 50  1  0  0  0  0
 49 47  2  0  0  0  0
 50 43  2  0  0  0  0
M  END
>  <minimizedAffinity>
-5.58329105

$$$$
