
 OpenBabel03242512003D

 50 54  0  0  1  0  0  0  0  0999 V2000
   47.1250   34.1090   42.4560 C   0  0  2  0  0  0  0  0  0  0  0  0
   48.5210   34.6350   42.6080 C   0  0  0  0  0  0  0  0  0  0  0  0
   48.8700   35.6280   41.5700 C   0  0  0  0  0  0  0  0  0  0  0  0
   48.6650   35.1180   40.1610 C   0  0  0  0  0  0  0  0  0  0  0  0
   47.4360   34.2730   40.0000 C   0  0  0  0  0  0  0  0  0  0  0  0
   46.4720   34.4090   41.1570 C   0  0  1  0  0  0  0  0  0  0  0  0
   47.2100   32.9820   42.5460 H   0  0  0  0  0  0  0  0  0  0  0  0
   49.2750   33.8240   42.5690 H   0  0  0  0  0  0  0  0  0  0  0  0
   48.6040   35.1140   43.5950 H   0  0  0  0  0  0  0  0  0  0  0  0
   49.9570   35.8540   41.6510 H   0  0  0  0  0  0  0  0  0  0  0  0
   48.3020   36.5710   41.7530 H   0  0  0  0  0  0  0  0  0  0  0  0
   48.5860   36.0090   39.5040 H   0  0  0  0  0  0  0  0  0  0  0  0
   49.5910   34.5790   39.8140 H   0  0  0  0  0  0  0  0  0  0  0  0
   46.9320   34.5120   39.0610 H   0  0  0  0  0  0  0  0  0  0  0  0
   47.7820   33.2030   39.9880 H   0  0  0  0  0  0  0  0  0  0  0  0
   46.0200   35.4050   41.0440 H   0  0  0  0  0  0  0  0  0  0  0  0
   46.2430   34.4950   43.5760 C   0  0  0  0  0  0  0  0  0  0  0  0
   45.5700   35.6830   43.3560 C   0  0  0  0  0  0  0  0  0  0  0  0
   44.6870   36.1760   44.3330 C   0  0  0  0  0  0  0  0  0  0  0  0
   44.5650   35.3880   45.4850 N   0  0  0  0  0  0  0  0  0  0  0  0
   45.2460   34.2360   45.6500 C   0  0  0  0  0  0  0  0  0  0  0  0
   46.0780   33.8060   44.6860 N   0  0  0  0  0  0  0  0  0  0  0  0
   45.5300   36.4230   42.5700 H   0  0  0  0  0  0  0  0  0  0  0  0
   44.0880   37.0480   44.3550 H   0  0  0  0  0  0  0  0  0  0  0  0
   45.0780   33.7120   46.5700 H   0  0  0  0  0  0  0  0  0  0  0  0
   45.3660   33.4120   40.9510 C   0  0  2  0  0  0  0  0  0  0  0  0
   44.7130   33.3580   39.5810 C   0  0  0  0  0  0  0  0  0  0  0  0
   43.9650   33.8640   40.7420 C   0  0  1  0  0  0  0  0  0  0  0  0
   45.5790   32.3990   41.3520 H   0  0  0  0  0  0  0  0  0  0  0  0
   44.9780   34.0680   38.7960 H   0  0  0  0  0  0  0  0  0  0  0  0
   44.3520   32.3750   39.1900 H   0  0  0  0  0  0  0  0  0  0  0  0
   43.8020   34.9680   40.8280 H   0  0  0  0  0  0  0  0  0  0  0  0
   42.9770   33.0510   41.5210 C   0  0  0  0  0  0  0  0  0  0  0  0
   43.2550   33.0690   42.5830 H   0  0  0  0  0  0  0  0  0  0  0  0
   41.9960   33.5440   41.4230 H   0  0  0  0  0  0  0  0  0  0  0  0
   42.8370   31.6340   41.0310 C   0  0  0  0  0  0  0  0  0  0  0  0
   43.7060   31.0250   41.2910 H   0  0  0  0  0  0  0  0  0  0  0  0
   42.5800   31.5820   39.9640 H   0  0  0  0  0  0  0  0  0  0  0  0
   41.6920   31.0670   41.7610 N   0  0  0  0  0  0  0  0  0  0  0  0
   40.3730   31.2720   41.6330 C   0  0  0  0  0  0  0  0  0  0  0  0
   39.9690   31.9480   40.9000 H   0  0  0  0  0  0  0  0  0  0  0  0
   39.7070   30.5240   42.5300 N   0  0  0  0  0  0  0  0  0  0  0  0
   40.5600   29.8170   43.2620 C   0  0  0  0  0  0  0  0  0  0  0  0
   40.4460   28.9100   44.2960 C   0  0  0  0  0  0  0  0  0  0  0  0
   39.4770   28.6300   44.6880 H   0  0  0  0  0  0  0  0  0  0  0  0
   41.5730   28.3570   44.8330 N   0  0  0  0  0  0  0  0  0  0  0  0
   42.7820   28.7250   44.3220 C   0  0  0  0  0  0  0  0  0  0  0  0
   43.7400   28.3540   44.6670 H   0  0  0  0  0  0  0  0  0  0  0  0
   42.9030   29.6090   43.3140 N   0  0  0  0  0  0  0  0  0  0  0  0
   41.7950   30.1670   42.7710 C   0  0  0  0  0  0  0  0  0  0  0  0
  1  7  1  1  0  0  0
  1  2  1  0  0  0  0
  1 17  1  0  0  0  0
  2  9  1  0  0  0  0
  3 10  1  0  0  0  0
  3 11  1  0  0  0  0
  3  2  1  0  0  0  0
  4  3  1  0  0  0  0
  5  4  1  0  0  0  0
  5  6  1  0  0  0  0
  6 16  1  1  0  0  0
  6  1  1  0  0  0  0
  8  2  1  0  0  0  0
 12  4  1  0  0  0  0
 13  4  1  0  0  0  0
 14  5  1  0  0  0  0
 15  5  1  0  0  0  0
 17 22  1  0  0  0  0
 18 17  2  0  0  0  0
 18 19  1  0  0  0  0
 19 24  1  0  0  0  0
 19 20  2  0  0  0  0
 20 21  1  0  0  0  0
 21 25  1  0  0  0  0
 22 21  2  0  0  0  0
 23 18  1  0  0  0  0
 26  6  1  0  0  0  0
 26 29  1  1  0  0  0
 27 28  1  0  0  0  0
 27 26  1  0  0  0  0
 28 32  1  1  0  0  0
 28 26  1  0  0  0  0
 28 33  1  0  0  0  0
 30 27  1  0  0  0  0
 31 27  1  0  0  0  0
 33 34  1  0  0  0  0
 35 33  1  0  0  0  0
 36 37  1  0  0  0  0
 36 33  1  0  0  0  0
 36 39  1  0  0  0  0
 38 36  1  0  0  0  0
 39 50  1  0  0  0  0
 40 39  1  0  0  0  0
 40 42  2  0  0  0  0
 41 40  1  0  0  0  0
 42 43  1  0  0  0  0
 43 44  1  0  0  0  0
 44 45  1  0  0  0  0
 44 46  2  0  0  0  0
 47 48  1  0  0  0  0
 47 46  1  0  0  0  0
 49 47  2  0  0  0  0
 50 43  2  0  0  0  0
 50 49  1  0  0  0  0
M  END
>  <minimizedAffinity>
-6.08410597

>  <minimizedRMSD>
0.812097549

$$$$
