
 OpenBabel03242512013D

 50 54  0  0  1  0  0  0  0  0999 V2000
   47.1860   34.1060   42.4230 C   0  0  2  0  0  0  0  0  0  0  0  0
   48.5600   34.6860   42.5660 C   0  0  0  0  0  0  0  0  0  0  0  0
   48.8730   35.6730   41.5110 C   0  0  0  0  0  0  0  0  0  0  0  0
   48.6890   35.1300   40.1110 C   0  0  0  0  0  0  0  0  0  0  0  0
   47.4930   34.2370   39.9640 C   0  0  0  0  0  0  0  0  0  0  0  0
   46.5230   34.3570   41.1180 C   0  0  1  0  0  0  0  0  0  0  0  0
   47.3120   32.9850   42.5330 H   0  0  0  0  0  0  0  0  0  0  0  0
   49.3440   33.9040   42.5420 H   0  0  0  0  0  0  0  0  0  0  0  0
   48.6240   35.1850   43.5440 H   0  0  0  0  0  0  0  0  0  0  0  0
   49.9510   35.9410   41.5880 H   0  0  0  0  0  0  0  0  0  0  0  0
   48.2700   36.5970   41.6760 H   0  0  0  0  0  0  0  0  0  0  0  0
   48.5770   36.0050   39.4380 H   0  0  0  0  0  0  0  0  0  0  0  0
   49.6350   34.6210   39.7740 H   0  0  0  0  0  0  0  0  0  0  0  0
   46.9820   34.4400   39.0210 H   0  0  0  0  0  0  0  0  0  0  0  0
   47.8790   33.1800   39.9720 H   0  0  0  0  0  0  0  0  0  0  0  0
   46.0340   35.3330   40.9870 H   0  0  0  0  0  0  0  0  0  0  0  0
   46.2880   34.4780   43.5350 C   0  0  0  0  0  0  0  0  0  0  0  0
   45.5970   35.6550   43.3080 C   0  0  0  0  0  0  0  0  0  0  0  0
   44.6980   36.1340   44.2770 C   0  0  0  0  0  0  0  0  0  0  0  0
   44.5790   35.3460   45.4290 N   0  0  0  0  0  0  0  0  0  0  0  0
   45.2790   34.2050   45.6010 C   0  0  0  0  0  0  0  0  0  0  0  0
   46.1250   33.7880   44.6450 N   0  0  0  0  0  0  0  0  0  0  0  0
   45.5510   36.3920   42.5200 H   0  0  0  0  0  0  0  0  0  0  0  0
   44.0840   36.9960   44.2920 H   0  0  0  0  0  0  0  0  0  0  0  0
   45.1120   33.6800   46.5210 H   0  0  0  0  0  0  0  0  0  0  0  0
   45.4560   33.3160   40.9300 C   0  0  2  0  0  0  0  0  0  0  0  0
   44.7880   33.2320   39.5680 C   0  0  0  0  0  0  0  0  0  0  0  0
   44.0350   33.7110   40.7380 C   0  0  1  0  0  0  0  0  0  0  0  0
   45.7150   32.3140   41.3300 H   0  0  0  0  0  0  0  0  0  0  0  0
   45.0120   33.9490   38.7780 H   0  0  0  0  0  0  0  0  0  0  0  0
   44.4610   32.2330   39.1850 H   0  0  0  0  0  0  0  0  0  0  0  0
   43.8290   34.8070   40.8240 H   0  0  0  0  0  0  0  0  0  0  0  0
   43.0910   32.8600   41.5320 C   0  0  0  0  0  0  0  0  0  0  0  0
   43.3140   31.8020   41.3410 H   0  0  0  0  0  0  0  0  0  0  0  0
   43.2890   33.0570   42.5980 H   0  0  0  0  0  0  0  0  0  0  0  0
   41.6380   33.1540   41.2660 C   0  0  0  0  0  0  0  0  0  0  0  0
   41.4480   33.3400   40.2070 H   0  0  0  0  0  0  0  0  0  0  0  0
   41.2440   33.9440   41.9190 H   0  0  0  0  0  0  0  0  0  0  0  0
   40.9090   31.9250   41.6160 N   0  0  0  0  0  0  0  0  0  0  0  0
   41.0600   31.0670   42.6340 C   0  0  0  0  0  0  0  0  0  0  0  0
   41.8170   31.2030   43.3870 H   0  0  0  0  0  0  0  0  0  0  0  0
   40.1520   30.0800   42.5380 N   0  0  0  0  0  0  0  0  0  0  0  0
   39.3890   30.2630   41.4660 C   0  0  0  0  0  0  0  0  0  0  0  0
   38.3310   29.5870   40.8900 C   0  0  0  0  0  0  0  0  0  0  0  0
   37.9450   28.6770   41.3300 H   0  0  0  0  0  0  0  0  0  0  0  0
   37.7630   30.0750   39.7490 N   0  0  0  0  0  0  0  0  0  0  0  0
   38.2680   31.2230   39.2140 C   0  0  0  0  0  0  0  0  0  0  0  0
   37.9000   31.7010   38.3150 H   0  0  0  0  0  0  0  0  0  0  0  0
   39.2990   31.8890   39.7690 N   0  0  0  0  0  0  0  0  0  0  0  0
   39.8730   31.4180   40.9000 C   0  0  0  0  0  0  0  0  0  0  0  0
  1  7  1  1  0  0  0
  1  2  1  0  0  0  0
  1 17  1  0  0  0  0
  2  9  1  0  0  0  0
  3 10  1  0  0  0  0
  3 11  1  0  0  0  0
  3  2  1  0  0  0  0
  4  3  1  0  0  0  0
  5 15  1  0  0  0  0
  5  4  1  0  0  0  0
  5  6  1  0  0  0  0
  6 16  1  1  0  0  0
  6  1  1  0  0  0  0
  8  2  1  0  0  0  0
 12  4  1  0  0  0  0
 13  4  1  0  0  0  0
 14  5  1  0  0  0  0
 17 22  1  0  0  0  0
 18 17  2  0  0  0  0
 18 19  1  0  0  0  0
 19 24  1  0  0  0  0
 19 20  2  0  0  0  0
 20 21  1  0  0  0  0
 21 25  1  0  0  0  0
 22 21  2  0  0  0  0
 23 18  1  0  0  0  0
 26  6  1  0  0  0  0
 26 29  1  1  0  0  0
 27 28  1  0  0  0  0
 27 26  1  0  0  0  0
 28 32  1  1  0  0  0
 28 26  1  0  0  0  0
 28 33  1  0  0  0  0
 30 27  1  0  0  0  0
 31 27  1  0  0  0  0
 33 35  1  0  0  0  0
 34 33  1  0  0  0  0
 36 33  1  0  0  0  0
 36 39  1  0  0  0  0
 36 38  1  0  0  0  0
 37 36  1  0  0  0  0
 39 40  1  0  0  0  0
 40 41  1  0  0  0  0
 42 40  2  0  0  0  0
 43 42  1  0  0  0  0
 44 45  1  0  0  0  0
 44 43  2  0  0  0  0
 46 44  1  0  0  0  0
 47 46  2  0  0  0  0
 47 49  1  0  0  0  0
 48 47  1  0  0  0  0
 49 50  2  0  0  0  0
 50 43  1  0  0  0  0
 50 39  1  0  0  0  0
M  END
>  <minimizedAffinity>
-6.32360744

>  <minimizedRMSD>
0.700844049

$$$$
