
 OpenBabel03252501053D

 38 40  0  0  1  0  0  0  0  0999 V2000
   48.5930   32.3520   38.0720 O   0  0  0  0  0  0  0  0  0  0  0  0
   48.1030   33.7890   38.2480 P   0  0  2  0  0  0  0  0  0  0  0  0
   49.3150   34.7600   37.5670 O   0  0  0  0  0  0  0  0  0  0  0  0
   48.9670   35.6920   37.5680 H   0  0  0  0  0  0  0  0  0  0  0  0
   47.7390   34.1340   39.8040 O   0  0  0  0  0  0  0  0  0  0  0  0
   48.0810   35.4600   41.8000 C   0  0  1  0  0  0  0  0  0  0  0  0
   49.3110   34.6680   41.6760 C   0  0  0  0  0  0  0  0  0  0  0  0
   48.4690   35.0650   40.4490 C   0  0  1  0  0  0  0  0  0  0  0  0
   48.1580   36.5110   42.1170 H   0  0  0  0  0  0  0  0  0  0  0  0
   49.3380   33.5590   41.8530 H   0  0  0  0  0  0  0  0  0  0  0  0
   50.3150   35.1170   41.7790 H   0  0  0  0  0  0  0  0  0  0  0  0
   49.0190   35.7750   39.8030 H   0  0  0  0  0  0  0  0  0  0  0  0
   46.0460   32.9580   43.7890 C   0  0  0  0  0  0  0  0  0  0  0  0
   47.1390   33.6350   43.2580 C   0  0  0  0  0  0  0  0  0  0  0  0
   46.9130   34.7250   42.3960 C   0  0  0  0  0  0  0  0  0  0  0  0
   45.6360   35.0820   42.1100 N   0  0  0  0  0  0  0  0  0  0  0  0
   44.5860   34.4090   42.6390 C   0  0  0  0  0  0  0  0  0  0  0  0
   44.7880   33.3520   43.4750 N   0  0  0  0  0  0  0  0  0  0  0  0
   46.2280   32.1220   44.4510 H   0  0  0  0  0  0  0  0  0  0  0  0
   48.1250   33.3120   43.5150 H   0  0  0  0  0  0  0  0  0  0  0  0
   43.5980   34.7690   42.3530 H   0  0  0  0  0  0  0  0  0  0  0  0
   46.7490   33.9110   37.2630 O   0  0  0  0  0  0  0  0  0  0  0  0
   45.6680   33.0440   37.3240 C   0  0  0  0  0  0  0  0  0  0  0  0
   45.3470   32.0170   36.4560 C   0  0  0  0  0  0  0  0  0  0  0  0
   44.2400   31.2530   36.6590 C   0  0  0  0  0  0  0  0  0  0  0  0
   43.4040   31.4740   37.7320 C   0  0  0  0  0  0  0  0  0  0  0  0
   43.7620   32.5220   38.5880 C   0  0  0  0  0  0  0  0  0  0  0  0
   44.8740   33.2800   38.3730 N   0  0  0  0  0  0  0  0  0  0  0  0
   46.0450   31.8990   35.6350 H   0  0  0  0  0  0  0  0  0  0  0  0
   44.0480   30.4660   35.9410 H   0  0  0  0  0  0  0  0  0  0  0  0
   42.5370   30.8810   37.8980 H   0  0  0  0  0  0  0  0  0  0  0  0
   42.8630   32.7640   39.7470 C   0  0  0  0  0  2  0  0  0  0  0  0
   41.7820   33.6650   39.4940 N   0  0  0  0  0  4  0  0  0  0  0  0
   41.3800   33.5810   38.5330 H   0  0  0  0  0  0  0  0  0  0  0  0
   40.6900   33.3060   40.3880 C   0  0  0  0  0  2  0  0  0  0  0  0
   41.0760   32.6820   41.2380 H   0  0  0  0  0  0  0  0  0  0  0  0
   42.1350   35.0340   39.8200 C   0  0  0  0  0  2  0  0  0  0  0  0
   42.0630   35.1390   40.9370 H   0  0  0  0  0  0  0  0  0  0  0  0
  2  1  2  6  0  0  0
  2  5  1  0  0  0  0
  3  4  1  0  0  0  0
  3  2  1  0  0  0  0
  5  8  1  0  0  0  0
  6  9  1  1  0  0  0
  6 15  1  0  0  0  0
  7 11  1  0  0  0  0
  7  6  1  0  0  0  0
  7 10  1  0  0  0  0
  8 12  1  6  0  0  0
  8  7  1  0  0  0  0
  8  6  1  0  0  0  0
 13 19  1  0  0  0  0
 14 20  1  0  0  0  0
 14 13  2  0  0  0  0
 15 14  1  0  0  0  0
 16 15  2  0  0  0  0
 16 17  1  0  0  0  0
 17 18  2  0  0  0  0
 18 13  1  0  0  0  0
 21 17  1  0  0  0  0
 22 23  1  0  0  0  0
 22  2  1  0  0  0  0
 23 28  1  0  0  0  0
 24 25  1  0  0  0  0
 24 23  2  0  0  0  0
 25 26  2  0  0  0  0
 26 31  1  0  0  0  0
 26 27  1  0  0  0  0
 27 32  1  0  0  0  0
 28 27  2  0  0  0  0
 29 24  1  0  0  0  0
 30 25  1  0  0  0  0
 33 32  1  0  0  0  0
 33 37  1  0  0  0  0
 33 35  1  0  0  0  0
 34 33  1  0  0  0  0
 35 36  1  0  0  0  0
 37 38  1  0  0  0  0
M  END
>  <minimizedAffinity>
-4.56883669

>  <minimizedRMSD>
0.724956512

$$$$
