
 OpenBabel03252501063D

 38 40  0  0  1  0  0  0  0  0999 V2000
   48.4720   32.3780   38.2360 O   0  0  0  0  0  0  0  0  0  0  0  0
   48.0320   33.8390   38.3220 P   0  0  2  0  0  0  0  0  0  0  0  0
   49.2850   34.7250   37.6010 O   0  0  0  0  0  0  0  0  0  0  0  0
   48.9720   35.6670   37.5420 H   0  0  0  0  0  0  0  0  0  0  0  0
   47.6640   34.2890   39.8500 O   0  0  0  0  0  0  0  0  0  0  0  0
   48.2240   35.4600   41.8930 C   0  0  1  0  0  0  0  0  0  0  0  0
   49.3700   34.5730   41.6590 C   0  0  0  0  0  0  0  0  0  0  0  0
   48.5070   35.1130   40.5030 C   0  0  1  0  0  0  0  0  0  0  0  0
   48.4110   36.4800   42.2620 H   0  0  0  0  0  0  0  0  0  0  0  0
   49.3060   33.4580   41.7740 H   0  0  0  0  0  0  0  0  0  0  0  0
   50.4140   34.9270   41.7310 H   0  0  0  0  0  0  0  0  0  0  0  0
   49.0850   35.8090   39.8670 H   0  0  0  0  0  0  0  0  0  0  0  0
   46.0560   32.9610   43.7400 C   0  0  0  0  0  0  0  0  0  0  0  0
   47.1780   33.5680   43.1850 C   0  0  0  0  0  0  0  0  0  0  0  0
   47.0260   34.7960   42.5130 C   0  0  0  0  0  0  0  0  0  0  0  0
   45.7900   35.3480   42.4250 N   0  0  0  0  0  0  0  0  0  0  0  0
   44.7110   34.7390   42.9730 C   0  0  0  0  0  0  0  0  0  0  0  0
   44.8410   33.5510   43.6280 N   0  0  0  0  0  0  0  0  0  0  0  0
   46.1810   32.0190   44.2560 H   0  0  0  0  0  0  0  0  0  0  0  0
   48.1280   33.0900   43.2830 H   0  0  0  0  0  0  0  0  0  0  0  0
   43.7610   35.2590   42.8530 H   0  0  0  0  0  0  0  0  0  0  0  0
   46.6930   33.9510   37.3150 O   0  0  0  0  0  0  0  0  0  0  0  0
   45.6870   32.9990   37.2590 C   0  0  0  0  0  0  0  0  0  0  0  0
   45.6360   31.8530   36.4880 C   0  0  0  0  0  0  0  0  0  0  0  0
   44.5650   31.0170   36.5500 C   0  0  0  0  0  0  0  0  0  0  0  0
   43.4980   31.2820   37.3800 C   0  0  0  0  0  0  0  0  0  0  0  0
   43.5840   32.4510   38.1450 C   0  0  0  0  0  0  0  0  0  0  0  0
   44.6640   33.2800   38.0730 N   0  0  0  0  0  0  0  0  0  0  0  0
   46.5070   31.7060   35.8590 H   0  0  0  0  0  0  0  0  0  0  0  0
   44.5910   30.1380   35.9200 H   0  0  0  0  0  0  0  0  0  0  0  0
   42.6560   30.6330   37.4350 H   0  0  0  0  0  0  0  0  0  0  0  0
   42.4350   32.7400   39.0420 C   0  0  0  0  0  2  0  0  0  0  0  0
   42.7800   32.9650   40.4100 N   0  0  0  0  0  4  0  0  0  0  0  0
   43.6100   33.5870   40.5400 H   0  0  0  0  0  0  0  0  0  0  0  0
   41.6760   33.6820   41.0320 C   0  0  0  0  0  2  0  0  0  0  0  0
   40.7460   33.5720   40.4130 H   0  0  0  0  0  0  0  0  0  0  0  0
   42.9140   31.7190   41.1450 C   0  0  0  0  0  2  0  0  0  0  0  0
   41.8740   31.3610   41.3830 H   0  0  0  0  0  0  0  0  0  0  0  0
  2  1  2  1  0  0  0
  2  5  1  0  0  0  0
  3  2  1  0  0  0  0
  4  3  1  0  0  0  0
  5  8  1  0  0  0  0
  6  9  1  1  0  0  0
  6 15  1  0  0  0  0
  7 11  1  0  0  0  0
  7 10  1  0  0  0  0
  7  6  1  0  0  0  0
  8 12  1  6  0  0  0
  8  7  1  0  0  0  0
  8  6  1  0  0  0  0
 13 19  1  0  0  0  0
 14 20  1  0  0  0  0
 14 13  2  0  0  0  0
 15 14  1  0  0  0  0
 16 15  2  0  0  0  0
 16 17  1  0  0  0  0
 17 18  2  0  0  0  0
 18 13  1  0  0  0  0
 21 17  1  0  0  0  0
 22  2  1  0  0  0  0
 23 22  1  0  0  0  0
 23 28  1  0  0  0  0
 24 25  1  0  0  0  0
 24 23  2  0  0  0  0
 25 26  2  0  0  0  0
 26 31  1  0  0  0  0
 26 27  1  0  0  0  0
 27 32  1  0  0  0  0
 28 27  2  0  0  0  0
 29 24  1  0  0  0  0
 30 25  1  0  0  0  0
 32 33  1  0  0  0  0
 33 34  1  0  0  0  0
 33 35  1  0  0  0  0
 33 37  1  0  0  0  0
 36 35  1  0  0  0  0
 37 38  1  0  0  0  0
M  END
>  <minimizedAffinity>
-4.40966797

>  <minimizedRMSD>
1.18286657

$$$$
