
 OpenBabel03252507073D

 22 22  0  0  0  0  0  0  0  0999 V2000
   44.6690   36.1970   44.4550 C   0  0  0  0  0  0  0  0  0  0  0  0
   45.3140   36.1210   43.2090 C   0  0  0  0  0  0  0  0  0  0  0  0
   46.0450   34.9610   42.9550 C   0  0  0  0  0  0  0  0  0  0  0  0
   46.1050   33.9820   43.8870 N   0  0  0  0  0  0  0  0  0  0  0  0
   45.4690   34.0910   45.0800 C   0  0  0  0  0  0  0  0  0  0  0  0
   44.7490   35.2070   45.3570 N   0  0  0  0  0  0  0  0  0  0  0  0
   44.1070   37.1100   44.6260 H   0  0  0  0  0  0  0  0  0  0  0  0
   45.2440   36.9200   42.4920 H   0  0  0  0  0  0  0  0  0  0  0  0
   46.6880   34.8860   41.7150 O   0  0  0  0  0  0  0  0  0  0  0  0
   48.6710   33.2850   41.0160 O   0  0  0  0  0  0  0  0  0  0  0  0
   48.3790   34.6370   41.6670 P   0  0  0  0  0  0  0  0  0  0  0  0
   49.0990   35.8920   40.8440 O   0  0  0  0  0  0  0  0  0  0  0  0
   49.8680   36.2190   41.3770 H   0  0  0  0  0  0  0  0  0  0  0  0
   48.9300   34.5520   43.2690 O   0  0  0  0  0  0  0  0  0  0  0  0
   48.9640   33.6210   43.6010 H   0  0  0  0  0  0  0  0  0  0  0  0
   45.5830   32.9870   46.0340 C   0  0  0  0  0  2  0  0  0  0  0  0
   46.9660   32.6630   46.2770 N   0  0  0  0  0  4  0  0  0  0  0  0
   47.5230   33.4360   45.8280 H   0  0  0  0  0  0  0  0  0  0  0  0
   47.3450   31.4540   45.5620 C   0  0  0  0  0  2  0  0  0  0  0  0
   47.3120   30.5610   46.2170 H   0  0  0  0  0  0  0  0  0  0  0  0
   47.3470   32.6270   47.6540 C   0  0  0  0  0  2  0  0  0  0  0  0
   47.9120   31.6850   47.9070 H   0  0  0  0  0  0  0  0  0  0  0  0
  1  7  1  0  0  0  0
  1  6  1  0  0  0  0
  2  1  2  0  0  0  0
  3  2  1  0  0  0  0
  3  4  2  0  0  0  0
  4  5  1  0  0  0  0
  5  6  2  0  0  0  0
  5 16  1  0  0  0  0
  8  2  1  0  0  0  0
  9  3  1  0  0  0  0
 10 11  2  0  0  0  0
 11  9  1  0  0  0  0
 11 14  1  0  0  0  0
 12 13  1  0  0  0  0
 12 11  1  0  0  0  0
 14 15  1  0  0  0  0
 16 17  1  0  0  0  0
 17 21  1  0  0  0  0
 18 17  1  0  0  0  0
 19 20  1  0  0  0  0
 19 17  1  0  0  0  0
 21 22  1  0  0  0  0
M  END
>  <minimizedAffinity>
-4.7241292

>  <minimizedRMSD>
0.831737697

$$$$
