REMARK  Name = 
REMARK  9 active torsions:
REMARK  status: ('A' for Active; 'I' for Inactive)
REMARK    1  A    between atoms: C_1  and  O_12
REMARK    2  A    between atoms: C_4  and  C_6
REMARK    3  A    between atoms: C_8  and  N_11
REMARK    4  A    between atoms: O_12  and  C_13
REMARK    5  A    between atoms: C_13  and  C_15
REMARK    6  A    between atoms: C_19  and  C_31
REMARK    7  A    between atoms: C_31  and  N_32
REMARK    8  A    between atoms: N_32  and  C_33
REMARK    9  A    between atoms: N_32  and  C_35
REMARK                            x       y       z     vdW  Elec       q    Type
REMARK                         _______ _______ _______ _____ _____    ______ ____
ROOT
ATOM      1  C   UNL     1      47.371  33.745  39.760  0.00  0.00    +0.000 A 
ATOM      2  C   UNL     1      48.281  34.489  38.992  0.00  0.00    +0.000 A 
ATOM      3  C   UNL     1      47.991  34.298  37.657  0.00  0.00    +0.000 A 
ATOM      4  C   UNL     1      46.928  33.455  37.664  0.00  0.00    +0.000 A 
ATOM      5  O   UNL     1      46.561  33.127  38.898  0.00  0.00    +0.000 OA
ATOM      6  H   UNL     1      49.040  35.076  39.478  0.00  0.00    +0.000 HD
ATOM      7  H   UNL     1      48.523  34.744  36.851  0.00  0.00    +0.000 HD
ENDROOT
BRANCH   4   8
ATOM      8  C   UNL     1      46.257  32.962  36.442  0.00  0.00    +0.000 C 
ATOM      9  C   UNL     1      46.051  31.530  36.234  0.00  0.00    +0.000 C 
ATOM     10  C   UNL     1      47.196  32.142  35.512  0.00  0.00    +0.000 C 
ATOM     11  H   UNL     1      45.670  33.751  35.934  0.00  0.00    +0.000 HD
ATOM     12  H   UNL     1      46.242  30.808  37.039  0.00  0.00    +0.000 HD
ATOM     13  H   UNL     1      45.123  31.267  35.650  0.00  0.00    +0.000 HD
ATOM     14  H   UNL     1      48.220  31.997  35.865  0.00  0.00    +0.000 HD
BRANCH  10  17
ATOM     15  C   UNL     1      48.095  32.617  33.246  0.00  0.00    +0.000 C 
ATOM     16  O   UNL     1      49.293  32.585  33.650  0.00  0.00    +0.000 OA
ATOM     17  N   UNL     1      46.975  32.437  34.097  0.00  0.00    +0.000 N 
ATOM     18  H   UNL     1      47.838  32.790  32.196  0.00  0.00    +0.000 HD
ATOM     19  H   UNL     1      45.995  32.509  33.748  0.00  0.00    +0.000 HD
ENDBRANCH  10  17
ENDBRANCH   4   8
BRANCH   1  20
ATOM     20  O   UNL     1      47.215  33.581  41.162  0.00  0.00    +0.000 OA
BRANCH  20  21
ATOM     21  C   UNL     1      47.346  34.725  41.989  0.00  0.00    +0.000 C 
ATOM     22  O   UNL     1      48.238  35.552  41.655  0.00  0.00    +0.000 OA
BRANCH  21  23
ATOM     23  C   UNL     1      46.462  34.810  43.096  0.00  0.00    +0.000 A 
ATOM     24  C   UNL     1      45.579  35.840  43.088  0.00  0.00    +0.000 A 
ATOM     25  C   UNL     1      44.685  35.977  44.147  0.00  0.00    +0.000 A 
ATOM     26  N   UNL     1      44.736  35.073  45.141  0.00  0.00    +0.000 NA
ATOM     27  C   UNL     1      45.615  34.068  45.126  0.00  0.00    +0.000 A 
ATOM     28  N   UNL     1      46.451  33.972  44.100  0.00  0.00    +0.000 NA
ATOM     29  H   UNL     1      45.529  36.572  42.293  0.00  0.00    +0.000 HD
ATOM     30  H   UNL     1      43.963  36.788  44.175  0.00  0.00    +0.000 HD
BRANCH  27  31
ATOM     31  C   UNL     1      45.547  33.158  46.291  0.00  0.00    +0.000 C 
BRANCH  31  32
ATOM     32  N   UNL     1      44.768  33.809  47.322  0.00  0.00    +0.000 N 
ATOM     33  H   UNL     1      44.584  33.078  48.051  0.00  0.00    +0.000 HD
BRANCH  32  34
ATOM     34  C   UNL     1      45.429  34.961  47.865  0.00  0.00    +0.000 C 
ATOM     35  H   UNL     1      45.541  34.813  48.959  0.00  0.00    +0.000 HD
ENDBRANCH  32  34
BRANCH  32  36
ATOM     36  C   UNL     1      43.474  34.132  46.741  0.00  0.00    +0.000 C 
ATOM     37  H   UNL     1      42.742  34.171  47.562  0.00  0.00    +0.000 HD
ENDBRANCH  32  36
ENDBRANCH  31  32
ENDBRANCH  27  31
ENDBRANCH  21  23
ENDBRANCH  20  21
ENDBRANCH   1  20
TORSDOF 9
