
 OpenBabel03242520563D

 39 40  0  0  0  0  0  0  0  0999 V2000
   48.4880   31.3470   48.5770 C   0  0  0  0  0  3  0  0  0  0  0  0
   47.4810   32.1930   48.6650 C   0  0  0  0  0  3  0  0  0  0  0  0
   51.2250   32.1800   50.8510 C   0  0  0  0  0  0  0  0  0  0  0  0
   51.3250   30.9980   51.6380 C   0  0  0  0  0  0  0  0  0  0  0  0
   50.4770   29.9480   51.3690 C   0  0  0  0  0  0  0  0  0  0  0  0
   49.6040   30.1170   50.3770 N   0  0  0  0  0  0  0  0  0  0  0  0
   49.4990   31.2270   49.6320 C   0  0  0  0  0  0  0  0  0  0  0  0
   50.3120   32.2700   49.8630 N   0  0  0  0  0  0  0  0  0  0  0  0
   51.8370   33.0670   50.9660 H   0  0  0  0  0  0  0  0  0  0  0  0
   50.5250   28.8000   52.0720 O   0  0  0  0  0  0  0  0  0  0  0  0
   51.4470   27.7900   51.6360 C   0  0  0  0  0  0  0  0  0  0  0  0
   51.9540   28.1380   50.3720 F   0  0  0  0  0  0  0  0  0  0  0  0
   52.5140   27.8240   52.5310 F   0  0  0  0  0  0  0  0  0  0  0  0
   50.9170   26.5060   51.6360 F   0  0  0  0  0  0  0  0  0  0  0  0
   52.3280   31.1630   52.7080 C   0  0  0  0  0  2  0  0  0  0  0  0
   51.7170   31.8500   53.8690 N   0  0  0  0  0  4  0  0  0  0  0  0
   50.6770   32.0020   53.6930 H   0  0  0  0  0  0  0  0  0  0  0  0
   51.7940   31.0370   55.0670 C   0  0  0  0  0  2  0  0  0  0  0  0
   52.0450   31.6790   55.9570 H   0  0  0  0  0  0  0  0  0  0  0  0
   52.3630   33.1200   54.1130 C   0  0  0  0  0  2  0  0  0  0  0  0
   52.6780   33.1900   55.1930 H   0  0  0  0  0  0  0  0  0  0  0  0
   46.4810   32.2760   47.5680 C   0  0  0  0  0  0  0  0  0  0  0  0
   46.3520   31.2410   47.2300 H   0  0  0  0  0  0  0  0  0  0  0  0
   45.4850   32.5870   48.0120 H   0  0  0  0  0  0  0  0  0  0  0  0
   46.6250   32.7790   45.2860 C   0  0  0  0  0  0  0  0  0  0  0  0
   46.1790   31.7210   44.7950 O   0  0  0  0  0  0  0  0  0  0  0  0
   46.8230   33.2240   46.5890 N   0  0  0  0  0  0  0  0  0  0  0  0
   47.1920   34.1730   46.7360 H   0  0  0  0  0  0  0  0  0  0  0  0
   44.8730   35.1030   44.3680 Cl  0  0  0  0  0  0  0  0  0  0  0  0
   46.2770   34.5870   43.4750 C   0  0  0  0  0  0  0  0  0  0  0  0
   46.9230   33.5290   44.0590 C   0  0  0  0  0  0  0  0  0  0  0  0
   48.0740   32.9880   43.4740 C   0  0  0  0  0  0  0  0  0  0  0  0
   48.5690   33.5300   42.2880 C   0  0  0  0  0  0  0  0  0  0  0  0
   47.8930   34.6030   41.7180 C   0  0  0  0  0  0  0  0  0  0  0  0
   48.4740   35.3230   40.2330 Cl  0  0  0  0  0  0  0  0  0  0  0  0
   46.7690   35.1150   42.3100 C   0  0  0  0  0  0  0  0  0  0  0  0
   48.6610   32.1810   43.8150 H   0  0  0  0  0  0  0  0  0  0  0  0
   49.4490   33.1710   41.7730 H   0  0  0  0  0  0  0  0  0  0  0  0
   46.2000   35.9490   41.9130 H   0  0  0  0  0  0  0  0  0  0  0  0
  1  2  2  0  0  0  0
  1  7  1  0  0  0  0
  3  9  1  0  0  0  0
  3  4  1  0  0  0  0
  4 15  1  0  0  0  0
  5  4  2  0  0  0  0
  5 10  1  0  0  0  0
  6  5  1  0  0  0  0
  7  8  1  0  0  0  0
  7  6  2  0  0  0  0
  8  3  2  0  0  0  0
 11 10  1  0  0  0  0
 11 13  1  0  0  0  0
 12 11  1  0  0  0  0
 14 11  1  0  0  0  0
 15 16  1  0  0  0  0
 16 20  1  0  0  0  0
 16 18  1  0  0  0  0
 17 16  1  0  0  0  0
 18 19  1  0  0  0  0
 20 21  1  0  0  0  0
 22 24  1  0  0  0  0
 22  2  1  0  0  0  0
 23 22  1  0  0  0  0
 25 27  1  0  0  0  0
 26 25  2  0  0  0  0
 27 28  1  0  0  0  0
 27 22  1  0  0  0  0
 30 31  1  0  0  0  0
 30 29  1  0  0  0  0
 31 25  1  0  0  0  0
 32 37  1  0  0  0  0
 32 31  2  0  0  0  0
 33 32  1  0  0  0  0
 34 33  2  0  0  0  0
 34 36  1  0  0  0  0
 35 34  1  0  0  0  0
 36 30  2  0  0  0  0
 38 33  1  0  0  0  0
 39 36  1  0  0  0  0
M  END
>  <minimizedAffinity>
-6.65228415

>  <minimizedRMSD>
0.292960137

$$$$
