
 OpenBabel03252506183D

 21 21  0  0  0  0  0  0  0  0999 V2000
   44.8060   35.7210   43.7570 C   0  0  0  0  0  0  0  0  0  0  0  0
   44.1720   35.4960   42.5170 C   0  0  0  0  0  0  0  0  0  0  0  0
   44.1310   34.1830   42.0420 C   0  0  0  0  0  0  0  0  0  0  0  0
   44.6940   33.2020   42.7860 N   0  0  0  0  0  0  0  0  0  0  0  0
   45.2950   33.4500   43.9700 C   0  0  0  0  0  0  0  0  0  0  0  0
   45.3390   34.6990   44.4320 N   0  0  0  0  0  0  0  0  0  0  0  0
   43.7640   36.3400   42.0190 H   0  0  0  0  0  0  0  0  0  0  0  0
   43.6470   34.0040   41.0920 H   0  0  0  0  0  0  0  0  0  0  0  0
   44.8590   37.0890   44.2720 C   0  0  0  0  0  3  0  0  0  0  0  0
   45.3560   38.0400   43.5030 C   0  0  0  0  0  3  0  0  0  0  0  0
   45.4470   39.4510   43.9470 C   0  0  0  0  0  0  0  0  0  0  0  0
   46.3620   39.6290   44.5360 H   0  0  0  0  0  0  0  0  0  0  0  0
   44.5480   39.7350   44.5360 H   0  0  0  0  0  0  0  0  0  0  0  0
   45.4820   40.1200   43.0610 H   0  0  0  0  0  0  0  0  0  0  0  0
   45.8470   32.2620   44.6300 C   0  0  0  0  0  2  0  0  0  0  0  0
   46.2430   31.2080   43.7160 N   0  0  0  0  0  4  0  0  0  0  0  0
   45.8530   31.3800   42.7530 H   0  0  0  0  0  0  0  0  0  0  0  0
   47.6950   31.2310   43.6890 C   0  0  0  0  0  2  0  0  0  0  0  0
   48.0250   31.3430   44.7570 H   0  0  0  0  0  0  0  0  0  0  0  0
   45.8180   29.9100   44.1420 C   0  0  0  0  0  2  0  0  0  0  0  0
   45.6300   29.8470   45.2260 H   0  0  0  0  0  0  0  0  0  0  0  0
  1  9  1  0  0  0  0
  1  6  1  0  0  0  0
  2  1  2  0  0  0  0
  3  2  1  0  0  0  0
  3  4  2  0  0  0  0
  4  5  1  0  0  0  0
  5  6  2  0  0  0  0
  5 15  1  0  0  0  0
  7  2  1  0  0  0  0
  8  3  1  0  0  0  0
 10 11  1  0  0  0  0
 10  9  2  0  0  0  0
 11 13  1  0  0  0  0
 11 12  1  0  0  0  0
 14 11  1  0  0  0  0
 16 20  1  0  0  0  0
 16 15  1  0  0  0  0
 17 16  1  0  0  0  0
 18 16  1  0  0  0  0
 18 19  1  0  0  0  0
 20 21  1  0  0  0  0
M  END
>  <minimizedAffinity>
-2.63242984

>  <minimizedRMSD>
1.01382542

$$$$
