
 OpenBabel03242518123D

 29 30  0  0  0  0  0  0  0  0999 V2000
   49.3370   34.0660   42.0660 C   0  0  0  0  0  0  0  0  0  0  0  0
   50.2980   34.5760   42.2940 H   0  0  0  0  0  0  0  0  0  0  0  0
   48.9630   33.6720   43.0390 H   0  0  0  0  0  0  0  0  0  0  0  0
   49.5800   33.0280   41.1160 C   0  0  0  0  0  0  0  0  0  0  0  0
   48.9190   32.4760   39.9670 C   0  0  0  0  0  0  0  0  0  0  0  0
   49.5110   31.4460   39.2960 C   0  0  0  0  0  0  0  0  0  0  0  0
   50.7900   30.9600   39.7870 C   0  0  0  0  0  0  0  0  0  0  0  0
   51.1500   31.9910   41.2290 S   0  0  0  0  0  0  0  0  0  0  0  0
   47.9830   32.9410   39.7310 H   0  0  0  0  0  0  0  0  0  0  0  0
   49.0500   31.0060   38.4300 H   0  0  0  0  0  0  0  0  0  0  0  0
   51.5510   29.9160   39.2360 C   0  0  0  0  0  2  0  0  0  0  0  0
   52.2730   30.3220   38.0780 N   0  0  0  0  0  4  0  0  0  0  0  0
   53.1830   29.8090   38.0260 H   0  0  0  0  0  0  0  0  0  0  0  0
   52.4940   31.7460   37.9750 C   0  0  0  0  0  2  0  0  0  0  0  0
   53.4060   32.0230   38.5420 H   0  0  0  0  0  0  0  0  0  0  0  0
   51.5500   29.9070   36.8730 C   0  0  0  0  0  2  0  0  0  0  0  0
   51.3860   28.7970   36.9370 H   0  0  0  0  0  0  0  0  0  0  0  0
   48.3740   35.1420   41.6230 C   0  0  0  0  0  0  0  0  0  0  0  0
   48.6420   36.1120   42.1170 H   0  0  0  0  0  0  0  0  0  0  0  0
   48.4730   35.2780   40.5510 H   0  0  0  0  0  0  0  0  0  0  0  0
   47.0270   34.7560   42.0160 C   0  0  0  0  0  0  0  0  0  0  0  0
   46.6640   34.5630   43.3360 C   0  0  0  0  0  0  0  0  0  0  0  0
   45.3520   34.1920   43.6260 C   0  0  0  0  0  0  0  0  0  0  0  0
   44.4980   34.0380   42.5900 N   0  0  0  0  0  0  0  0  0  0  0  0
   44.8570   34.2250   41.3200 C   0  0  0  0  0  0  0  0  0  0  0  0
   46.0990   34.5750   41.0660 N   0  0  0  0  0  0  0  0  0  0  0  0
   47.3900   34.7020   44.1340 H   0  0  0  0  0  0  0  0  0  0  0  0
   45.0420   34.0350   44.6670 H   0  0  0  0  0  0  0  0  0  0  0  0
   44.1450   34.0920   40.5160 H   0  0  0  0  0  0  0  0  0  0  0  0
  1  2  1  0  0  0  0
  1  3  1  0  0  0  0
  4  8  1  0  0  0  0
  4  1  1  0  0  0  0
  5  4  2  0  0  0  0
  6  7  2  0  0  0  0
  6  5  1  0  0  0  0
  7  8  1  0  0  0  0
  9  5  1  0  0  0  0
 10  6  1  0  0  0  0
 11  7  1  0  0  0  0
 12 11  1  0  0  0  0
 13 12  1  0  0  0  0
 14 12  1  0  0  0  0
 14 15  1  0  0  0  0
 16 17  1  0  0  0  0
 16 12  1  0  0  0  0
 18 21  1  0  0  0  0
 18  1  1  0  0  0  0
 18 19  1  0  0  0  0
 20 18  1  0  0  0  0
 21 22  1  0  0  0  0
 22 23  2  0  0  0  0
 22 27  1  0  0  0  0
 23 28  1  0  0  0  0
 24 23  1  0  0  0  0
 25 24  2  0  0  0  0
 26 25  1  0  0  0  0
 26 21  2  0  0  0  0
 29 25  1  0  0  0  0
M  END
>  <minimizedAffinity>
-3.34404135

>  <minimizedRMSD>
0.508284271

$$$$
