
 OpenBabel03252500253D

 35 36  0  0  1  0  0  0  0  0999 V2000
   46.9170   30.3190   48.1950 C   0  0  2  0  0  0  0  0  0  0  0  0
   45.4550   30.5430   48.2780 C   0  0  2  0  0  0  0  0  0  0  0  0
   44.8950   29.6370   47.2440 C   0  0  0  0  0  0  0  0  0  0  0  0
   45.7460   28.5560   47.1290 O   0  0  0  0  0  0  0  0  0  0  0  0
   46.8740   28.8080   47.8400 C   0  0  0  0  0  0  0  0  0  0  0  0
   47.5620   30.6850   47.4510 H   0  0  0  0  0  0  0  0  0  0  0  0
   45.1720   30.1670   49.3000 H   0  0  0  0  0  0  0  0  0  0  0  0
   43.9570   29.1740   47.6810 H   0  0  0  0  0  0  0  0  0  0  0  0
   44.5210   30.0720   46.3190 H   0  0  0  0  0  0  0  0  0  0  0  0
   46.8220   28.3260   48.8560 H   0  0  0  0  0  0  0  0  0  0  0  0
   47.7880   28.4640   47.3650 H   0  0  0  0  0  0  0  0  0  0  0  0
   45.0930   31.8570   48.0890 O   0  0  0  0  0  0  0  0  0  0  0  0
   47.2670   32.9190   47.2210 O   0  0  0  0  0  0  0  0  0  0  0  0
   45.8940   32.4940   46.7800 P   0  0  1  0  0  0  0  0  0  0  0  0
   46.0560   31.3040   45.5850 O   0  0  0  0  0  0  0  0  0  0  0  0
   45.5260   31.5160   44.7970 H   0  0  0  0  0  0  0  0  0  0  0  0
   45.1280   33.8930   46.1630 O   0  0  0  0  0  0  0  0  0  0  0  0
   45.2470   36.2140   43.4450 C   0  0  0  0  0  0  0  0  0  0  0  0
   45.9790   35.5300   42.4350 C   0  0  0  0  0  0  0  0  0  0  0  0
   46.4250   34.2350   42.7440 C   0  0  0  0  0  0  0  0  0  0  0  0
   46.1380   33.7260   43.9590 N   0  0  0  0  0  0  0  0  0  0  0  0
   45.4390   34.4050   44.8920 C   0  0  0  0  0  0  0  0  0  0  0  0
   44.9970   35.6500   44.6270 N   0  0  0  0  0  0  0  0  0  0  0  0
   46.1920   35.9670   41.4740 H   0  0  0  0  0  0  0  0  0  0  0  0
   46.9910   33.6450   42.0300 H   0  0  0  0  0  0  0  0  0  0  0  0
   44.8120   37.4790   43.1420 O   0  0  0  0  0  0  0  0  0  0  0  0
   45.4720   38.2180   42.9950 H   0  0  0  0  0  0  0  0  0  0  0  0
   47.6080   30.5300   49.3510 O   0  0  0  0  0  0  0  0  0  0  0  0
   48.8920   30.7880   49.4430 C   0  0  0  0  0  2  0  0  0  0  0  0
   49.5650   29.9720   50.4750 N   0  0  0  0  0  4  0  0  0  0  0  0
   48.9080   29.6120   51.1720 H   0  0  0  0  0  0  0  0  0  0  0  0
   50.1830   28.8040   49.8280 C   0  0  0  0  0  2  0  0  0  0  0  0
   49.5440   28.6130   48.9190 H   0  0  0  0  0  0  0  0  0  0  0  0
   50.6490   30.6790   51.1060 C   0  0  0  0  0  2  0  0  0  0  0  0
   50.3700   31.2940   51.9620 H   0  0  0  0  0  0  0  0  0  0  0  0
  1  6  1  6  0  0  0
  1  2  1  0  0  0  0
  1 28  1  0  0  0  0
  2  7  1  1  0  0  0
  3  8  1  0  0  0  0
  3  2  1  0  0  0  0
  4  3  1  0  0  0  0
  4  5  1  0  0  0  0
  5  1  1  0  0  0  0
  5 10  1  0  0  0  0
  9  3  1  0  0  0  0
 11  5  1  0  0  0  0
 12  2  1  0  0  0  0
 14 13  2  1  0  0  0
 14 12  1  0  0  0  0
 15 14  1  0  0  0  0
 16 15  1  0  0  0  0
 17 14  1  0  0  0  0
 18 23  1  0  0  0  0
 19 20  1  0  0  0  0
 19 18  2  0  0  0  0
 20 21  2  0  0  0  0
 21 22  1  0  0  0  0
 22 17  1  0  0  0  0
 23 22  2  0  0  0  0
 24 19  1  0  0  0  0
 25 20  1  0  0  0  0
 26 18  1  0  0  0  0
 27 26  1  0  0  0  0
 28 29  1  0  0  0  0
 29 30  1  0  0  0  0
 30 34  1  0  0  0  0
 30 31  1  0  0  0  0
 32 30  1  0  0  0  0
 33 32  1  0  0  0  0
 34 35  1  0  0  0  0
M  END
>  <minimizedAffinity>
-4.74929905

>  <minimizedRMSD>
0.641771197

$$$$
