
 OpenBabel03242520563D

 39 40  0  0  0  0  0  0  0  0999 V2000
   48.5720   31.2940   48.7150 C   0  0  0  0  0  3  0  0  0  0  0  0
   47.5690   32.1450   48.8020 C   0  0  0  0  0  3  0  0  0  0  0  0
   51.2620   32.0950   51.0560 C   0  0  0  0  0  0  0  0  0  0  0  0
   51.3730   30.8880   51.8020 C   0  0  0  0  0  0  0  0  0  0  0  0
   50.5470   29.8340   51.4840 C   0  0  0  0  0  0  0  0  0  0  0  0
   49.6860   30.0220   50.4860 N   0  0  0  0  0  0  0  0  0  0  0  0
   49.5700   31.1560   49.7790 C   0  0  0  0  0  0  0  0  0  0  0  0
   50.3610   32.2040   50.0590 N   0  0  0  0  0  0  0  0  0  0  0  0
   51.8560   32.9880   51.2100 H   0  0  0  0  0  0  0  0  0  0  0  0
   50.6070   28.6620   52.1470 O   0  0  0  0  0  0  0  0  0  0  0  0
   51.5040   27.6590   51.6490 C   0  0  0  0  0  0  0  0  0  0  0  0
   51.9980   28.0590   50.3950 F   0  0  0  0  0  0  0  0  0  0  0  0
   52.5840   27.6310   52.5270 F   0  0  0  0  0  0  0  0  0  0  0  0
   50.9510   26.3860   51.5960 F   0  0  0  0  0  0  0  0  0  0  0  0
   52.3580   31.0330   52.8920 C   0  0  0  0  0  2  0  0  0  0  0  0
   52.1700   32.3380   53.5690 N   0  0  0  0  0  4  0  0  0  0  0  0
   51.5270   32.9570   52.9880 H   0  0  0  0  0  0  0  0  0  0  0  0
   51.5100   32.1800   54.8490 C   0  0  0  0  0  2  0  0  0  0  0  0
   51.9760   32.8640   55.6130 H   0  0  0  0  0  0  0  0  0  0  0  0
   53.4400   33.0000   53.7650 C   0  0  0  0  0  2  0  0  0  0  0  0
   53.5500   33.3070   54.8450 H   0  0  0  0  0  0  0  0  0  0  0  0
   46.5820   32.2480   47.6950 C   0  0  0  0  0  0  0  0  0  0  0  0
   46.4020   31.2110   47.3850 H   0  0  0  0  0  0  0  0  0  0  0  0
   45.6000   32.6220   48.1220 H   0  0  0  0  0  0  0  0  0  0  0  0
   46.5610   32.7850   45.4160 C   0  0  0  0  0  0  0  0  0  0  0  0
   45.8810   31.8380   44.9700 O   0  0  0  0  0  0  0  0  0  0  0  0
   46.9780   33.1490   46.6920 N   0  0  0  0  0  0  0  0  0  0  0  0
   47.5260   34.0120   46.8060 H   0  0  0  0  0  0  0  0  0  0  0  0
   44.8630   35.1530   44.5070 Cl  0  0  0  0  0  0  0  0  0  0  0  0
   46.2260   34.5770   43.5870 C   0  0  0  0  0  0  0  0  0  0  0  0
   46.8520   33.5060   44.1700 C   0  0  0  0  0  0  0  0  0  0  0  0
   47.9680   32.9190   43.5650 C   0  0  0  0  0  0  0  0  0  0  0  0
   48.4500   33.4260   42.3580 C   0  0  0  0  0  0  0  0  0  0  0  0
   47.7950   34.5130   41.7890 C   0  0  0  0  0  0  0  0  0  0  0  0
   48.3610   35.1900   40.2790 Cl  0  0  0  0  0  0  0  0  0  0  0  0
   46.7040   35.0710   42.4010 C   0  0  0  0  0  0  0  0  0  0  0  0
   48.5370   32.0970   43.9040 H   0  0  0  0  0  0  0  0  0  0  0  0
   49.3040   33.0300   41.8270 H   0  0  0  0  0  0  0  0  0  0  0  0
   46.1530   35.9170   42.0060 H   0  0  0  0  0  0  0  0  0  0  0  0
  1  2  2  0  0  0  0
  1  7  1  0  0  0  0
  3  9  1  0  0  0  0
  3  4  1  0  0  0  0
  4 15  1  0  0  0  0
  5  4  2  0  0  0  0
  5 10  1  0  0  0  0
  6  5  1  0  0  0  0
  7  8  1  0  0  0  0
  7  6  2  0  0  0  0
  8  3  2  0  0  0  0
 11 10  1  0  0  0  0
 11 13  1  0  0  0  0
 12 11  1  0  0  0  0
 14 11  1  0  0  0  0
 15 16  1  0  0  0  0
 16 20  1  0  0  0  0
 16 18  1  0  0  0  0
 17 16  1  0  0  0  0
 18 19  1  0  0  0  0
 20 21  1  0  0  0  0
 22 24  1  0  0  0  0
 22  2  1  0  0  0  0
 23 22  1  0  0  0  0
 25 27  1  0  0  0  0
 26 25  2  0  0  0  0
 27 28  1  0  0  0  0
 27 22  1  0  0  0  0
 30 31  1  0  0  0  0
 30 29  1  0  0  0  0
 31 25  1  0  0  0  0
 32 37  1  0  0  0  0
 32 31  2  0  0  0  0
 33 32  1  0  0  0  0
 34 33  2  0  0  0  0
 34 36  1  0  0  0  0
 35 34  1  0  0  0  0
 36 30  2  0  0  0  0
 38 33  1  0  0  0  0
 39 36  1  0  0  0  0
M  END
>  <minimizedAffinity>
-6.48498917

>  <minimizedRMSD>
0.547812045

$$$$
