
 OpenBabel03242520563D

 39 40  0  0  0  0  0  0  0  0999 V2000
   48.5700   31.2480   48.7150 C   0  0  0  0  0  3  0  0  0  0  0  0
   47.6250   32.1670   48.7280 C   0  0  0  0  0  3  0  0  0  0  0  0
   51.2040   32.1400   51.0870 C   0  0  0  0  0  0  0  0  0  0  0  0
   51.3660   30.9280   51.8160 C   0  0  0  0  0  0  0  0  0  0  0  0
   50.5930   29.8410   51.4780 C   0  0  0  0  0  0  0  0  0  0  0  0
   49.7300   30.0040   50.4760 N   0  0  0  0  0  0  0  0  0  0  0  0
   49.5670   31.1410   49.7840 C   0  0  0  0  0  0  0  0  0  0  0  0
   50.3050   32.2200   50.0840 N   0  0  0  0  0  0  0  0  0  0  0  0
   51.7550   33.0570   51.2580 H   0  0  0  0  0  0  0  0  0  0  0  0
   50.7020   28.6640   52.1240 O   0  0  0  0  0  0  0  0  0  0  0  0
   51.4050   27.6020   51.4620 C   0  0  0  0  0  0  0  0  0  0  0  0
   52.1910   28.1400   50.4270 F   0  0  0  0  0  0  0  0  0  0  0  0
   52.2780   27.0650   52.4050 F   0  0  0  0  0  0  0  0  0  0  0  0
   50.5810   26.5850   50.9990 F   0  0  0  0  0  0  0  0  0  0  0  0
   52.3360   31.1030   52.9150 C   0  0  0  0  0  2  0  0  0  0  0  0
   53.4380   30.1230   52.7720 N   0  0  0  0  0  4  0  0  0  0  0  0
   53.0390   29.1530   52.5890 H   0  0  0  0  0  0  0  0  0  0  0  0
   54.2710   30.4250   51.6230 C   0  0  0  0  0  2  0  0  0  0  0  0
   55.3560   30.2600   51.8750 H   0  0  0  0  0  0  0  0  0  0  0  0
   54.2590   30.0970   53.9620 C   0  0  0  0  0  2  0  0  0  0  0  0
   55.3440   30.2260   53.6830 H   0  0  0  0  0  0  0  0  0  0  0  0
   46.6370   32.2340   47.6190 C   0  0  0  0  0  0  0  0  0  0  0  0
   46.5070   31.1940   47.2990 H   0  0  0  0  0  0  0  0  0  0  0  0
   45.6380   32.5580   48.0460 H   0  0  0  0  0  0  0  0  0  0  0  0
   46.6580   32.7600   45.3370 C   0  0  0  0  0  0  0  0  0  0  0  0
   46.0790   31.7570   44.8710 O   0  0  0  0  0  0  0  0  0  0  0  0
   46.9940   33.1630   46.6260 N   0  0  0  0  0  0  0  0  0  0  0  0
   47.4610   34.0700   46.7540 H   0  0  0  0  0  0  0  0  0  0  0  0
   44.9040   35.0920   44.4440 Cl  0  0  0  0  0  0  0  0  0  0  0  0
   46.2830   34.5590   43.5230 C   0  0  0  0  0  0  0  0  0  0  0  0
   46.9340   33.5000   44.0990 C   0  0  0  0  0  0  0  0  0  0  0  0
   48.0670   32.9460   43.4910 C   0  0  0  0  0  0  0  0  0  0  0  0
   48.5390   33.4760   42.2910 C   0  0  0  0  0  0  0  0  0  0  0  0
   47.8580   34.5510   41.7290 C   0  0  0  0  0  0  0  0  0  0  0  0
   48.4120   35.2550   40.2270 Cl  0  0  0  0  0  0  0  0  0  0  0  0
   46.7520   35.0750   42.3430 C   0  0  0  0  0  0  0  0  0  0  0  0
   48.6560   32.1360   43.8250 H   0  0  0  0  0  0  0  0  0  0  0  0
   49.4040   33.1070   41.7590 H   0  0  0  0  0  0  0  0  0  0  0  0
   46.1810   35.9110   41.9530 H   0  0  0  0  0  0  0  0  0  0  0  0
  1  2  2  0  0  0  0
  1  7  1  0  0  0  0
  3  9  1  0  0  0  0
  3  4  1  0  0  0  0
  4 15  1  0  0  0  0
  5  4  2  0  0  0  0
  5 10  1  0  0  0  0
  6  5  1  0  0  0  0
  7  8  1  0  0  0  0
  7  6  2  0  0  0  0
  8  3  2  0  0  0  0
 11 10  1  0  0  0  0
 11 13  1  0  0  0  0
 12 11  1  0  0  0  0
 14 11  1  0  0  0  0
 16 15  1  0  0  0  0
 16 20  1  0  0  0  0
 17 16  1  0  0  0  0
 18 19  1  0  0  0  0
 18 16  1  0  0  0  0
 21 20  1  0  0  0  0
 22 24  1  0  0  0  0
 22  2  1  0  0  0  0
 23 22  1  0  0  0  0
 25 27  1  0  0  0  0
 26 25  2  0  0  0  0
 27 28  1  0  0  0  0
 27 22  1  0  0  0  0
 30 31  1  0  0  0  0
 30 29  1  0  0  0  0
 31 25  1  0  0  0  0
 32 37  1  0  0  0  0
 32 31  2  0  0  0  0
 33 32  1  0  0  0  0
 34 33  2  0  0  0  0
 34 36  1  0  0  0  0
 35 34  1  0  0  0  0
 36 30  2  0  0  0  0
 38 33  1  0  0  0  0
 39 36  1  0  0  0  0
M  END
>  <minimizedAffinity>
-6.22874546

>  <minimizedRMSD>
0.380177051

$$$$
