
 OpenBabel03252507033D

 36 37  0  0  0  0  0  0  0  0999 V2000
   37.6910   27.4280   43.2840 C   0  0  0  0  0  0  0  0  0  0  0  0
   36.6450   27.2090   42.8860 H   0  0  0  0  0  0  0  0  0  0  0  0
   37.5610   27.1370   44.3610 H   0  0  0  0  0  0  0  0  0  0  0  0
   38.7280   26.7900   42.7540 N   0  0  0  0  0  0  0  0  0  0  0  0
   40.0310   27.2840   42.4850 C   0  0  0  0  0  0  0  0  0  0  0  0
   40.7760   26.6390   43.6800 C   0  0  0  0  0  0  0  0  0  0  0  0
   40.7260   25.1760   43.6660 C   0  0  0  0  0  0  0  0  0  0  0  0
   39.6370   24.5140   42.9450 C   0  0  0  0  0  0  0  0  0  0  0  0
   38.5120   25.3730   42.4460 C   0  0  0  0  0  0  0  0  0  0  0  0
   40.4990   27.0940   41.5360 H   0  0  0  0  0  0  0  0  0  0  0  0
   40.0250   28.3860   42.7290 H   0  0  0  0  0  0  0  0  0  0  0  0
   41.8310   27.0160   43.6350 H   0  0  0  0  0  0  0  0  0  0  0  0
   40.2720   27.0570   44.5800 H   0  0  0  0  0  0  0  0  0  0  0  0
   40.6760   24.8200   44.7340 H   0  0  0  0  0  0  0  0  0  0  0  0
   41.6800   24.7240   43.2720 H   0  0  0  0  0  0  0  0  0  0  0  0
   39.5340   23.4780   42.7480 H   0  0  0  0  0  0  0  0  0  0  0  0
   37.1070   24.6750   41.6360 S   0  0  0  0  0  0  0  0  0  0  0  0
   37.1600   24.9220   40.2510 H   0  0  0  0  0  0  0  0  0  0  0  0
   37.8280   28.9210   43.2350 C   0  0  0  0  0  0  0  0  0  0  0  0
   38.8760   29.2860   43.2620 H   0  0  0  0  0  0  0  0  0  0  0  0
   37.3160   29.3340   44.1280 H   0  0  0  0  0  0  0  0  0  0  0  0
   37.1040   29.3880   42.0260 C   0  0  0  0  0  0  0  0  0  0  0  0
   36.1370   28.6030   41.4310 C   0  0  0  0  0  0  0  0  0  0  0  0
   35.5080   29.1110   40.2820 C   0  0  0  0  0  0  0  0  0  0  0  0
   35.8830   30.3440   39.8180 N   0  0  0  0  0  0  0  0  0  0  0  0
   36.8290   31.0510   40.4450 C   0  0  0  0  0  0  0  0  0  0  0  0
   37.4190   30.5730   41.5240 N   0  0  0  0  0  0  0  0  0  0  0  0
   35.8750   27.6450   41.8270 H   0  0  0  0  0  0  0  0  0  0  0  0
   34.7430   28.5380   39.7770 H   0  0  0  0  0  0  0  0  0  0  0  0
   37.2340   32.3910   39.9380 C   0  0  0  0  0  2  0  0  0  0  0  0
   38.6370   32.6690   40.0950 N   0  0  0  0  0  4  0  0  0  0  0  0
   38.9750   32.1510   40.9380 H   0  0  0  0  0  0  0  0  0  0  0  0
   39.4550   32.2300   38.9920 C   0  0  0  0  0  2  0  0  0  0  0  0
   39.7010   31.1520   39.0510 H   0  0  0  0  0  0  0  0  0  0  0  0
   38.8570   34.0790   40.3950 C   0  0  0  0  0  2  0  0  0  0  0  0
   37.8660   34.6050   40.2980 H   0  0  0  0  0  0  0  0  0  0  0  0
  1  3  1  0  0  0  0
  2  1  1  0  0  0  0
  4  1  1  0  0  0  0
  5 11  1  0  0  0  0
  5  4  1  0  0  0  0
  5  6  1  0  0  0  0
  6 13  1  0  0  0  0
  7  6  1  0  0  0  0
  7 14  1  0  0  0  0
  8  7  1  0  0  0  0
  9  4  1  0  0  0  0
  9  8  2  0  0  0  0
 10  5  1  0  0  0  0
 12  6  1  0  0  0  0
 15  7  1  0  0  0  0
 16  8  1  0  0  0  0
 17  9  1  0  0  0  0
 18 17  1  0  0  0  0
 19 20  1  0  0  0  0
 19  1  1  0  0  0  0
 19 21  1  0  0  0  0
 22 19  1  0  0  0  0
 23 28  1  0  0  0  0
 23 22  2  0  0  0  0
 24 23  1  0  0  0  0
 25 24  2  0  0  0  0
 25 26  1  0  0  0  0
 26 27  2  0  0  0  0
 27 22  1  0  0  0  0
 29 24  1  0  0  0  0
 30 31  1  0  0  0  0
 30 26  1  0  0  0  0
 31 35  1  0  0  0  0
 31 32  1  0  0  0  0
 33 34  1  0  0  0  0
 33 31  1  0  0  0  0
 36 35  1  0  0  0  0
M  END
>  <minimizedAffinity>
-4.72509193

$$$$

 OpenBabel03252507033D

 36 37  0  0  0  0  0  0  0  0999 V2000
   36.4010   30.6800   41.1190 C   0  0  0  0  0  0  0  0  0  0  0  0
   36.6550   30.2860   42.1580 H   0  0  0  0  0  0  0  0  0  0  0  0
   35.5880   31.4120   41.3750 H   0  0  0  0  0  0  0  0  0  0  0  0
   37.3520   31.2750   40.4070 N   0  0  0  0  0  0  0  0  0  0  0  0
   37.3080   31.7090   39.0560 C   0  0  0  0  0  0  0  0  0  0  0  0
   37.1260   33.2270   39.3050 C   0  0  0  0  0  0  0  0  0  0  0  0
   38.2390   33.8270   40.0430 C   0  0  0  0  0  0  0  0  0  0  0  0
   39.0680   32.9670   40.8890 C   0  0  0  0  0  0  0  0  0  0  0  0
   38.5980   31.5620   41.1240 C   0  0  0  0  0  0  0  0  0  0  0  0
   38.1170   31.4800   38.3860 H   0  0  0  0  0  0  0  0  0  0  0  0
   36.3160   31.3800   38.6340 H   0  0  0  0  0  0  0  0  0  0  0  0
   36.9970   33.6990   38.2970 H   0  0  0  0  0  0  0  0  0  0  0  0
   36.1700   33.3030   39.8730 H   0  0  0  0  0  0  0  0  0  0  0  0
   37.8200   34.6340   40.7070 H   0  0  0  0  0  0  0  0  0  0  0  0
   38.9500   34.3740   39.3630 H   0  0  0  0  0  0  0  0  0  0  0  0
   39.9690   33.2290   41.3840 H   0  0  0  0  0  0  0  0  0  0  0  0
   39.4740   30.4620   42.1920 S   0  0  0  0  0  0  0  0  0  0  0  0
   40.1780   29.4990   41.4430 H   0  0  0  0  0  0  0  0  0  0  0  0
   35.7610   29.5290   40.4040 C   0  0  0  0  0  0  0  0  0  0  0  0
   35.9090   29.5330   39.3040 H   0  0  0  0  0  0  0  0  0  0  0  0
   34.6680   29.5880   40.5850 H   0  0  0  0  0  0  0  0  0  0  0  0
   36.2710   28.2840   41.0320 C   0  0  0  0  0  0  0  0  0  0  0  0
   36.5180   28.2250   42.3900 C   0  0  0  0  0  0  0  0  0  0  0  0
   37.0130   27.0150   42.9040 C   0  0  0  0  0  0  0  0  0  0  0  0
   37.2220   25.9700   42.0430 N   0  0  0  0  0  0  0  0  0  0  0  0
   36.9600   26.0980   40.7390 C   0  0  0  0  0  0  0  0  0  0  0  0
   36.4950   27.2340   40.2560 N   0  0  0  0  0  0  0  0  0  0  0  0
   36.3410   29.0650   43.0260 H   0  0  0  0  0  0  0  0  0  0  0  0
   37.2240   26.9130   43.9600 H   0  0  0  0  0  0  0  0  0  0  0  0
   37.1880   24.9600   39.8060 C   0  0  0  0  0  2  0  0  0  0  0  0
   36.6230   23.7170   40.2610 N   0  0  0  0  0  4  0  0  0  0  0  0
   36.3960   23.8190   41.2760 H   0  0  0  0  0  0  0  0  0  0  0  0
   35.3950   23.3480   39.6030 C   0  0  0  0  0  2  0  0  0  0  0  0
   34.5140   23.8630   40.0350 H   0  0  0  0  0  0  0  0  0  0  0  0
   37.6080   22.6430   40.1920 C   0  0  0  0  0  2  0  0  0  0  0  0
   38.5220   23.0540   39.6770 H   0  0  0  0  0  0  0  0  0  0  0  0
  1  3  1  0  0  0  0
  1  2  1  0  0  0  0
  4  1  1  0  0  0  0
  4  9  1  0  0  0  0
  5  6  1  0  0  0  0
  5  4  1  0  0  0  0
  6 13  1  0  0  0  0
  6  7  1  0  0  0  0
  7 14  1  0  0  0  0
  7  8  1  0  0  0  0
  8  9  2  0  0  0  0
  8 16  1  0  0  0  0
  9 17  1  0  0  0  0
 10  5  1  0  0  0  0
 11  5  1  0  0  0  0
 12  6  1  0  0  0  0
 15  7  1  0  0  0  0
 18 17  1  0  0  0  0
 19 21  1  0  0  0  0
 19 22  1  0  0  0  0
 19  1  1  0  0  0  0
 20 19  1  0  0  0  0
 22 23  1  0  0  0  0
 23 24  2  0  0  0  0
 23 28  1  0  0  0  0
 24 29  1  0  0  0  0
 25 24  1  0  0  0  0
 26 25  2  0  0  0  0
 27 26  1  0  0  0  0
 27 22  2  0  0  0  0
 30 31  1  0  0  0  0
 30 26  1  0  0  0  0
 31 32  1  0  0  0  0
 33 34  1  0  0  0  0
 33 31  1  0  0  0  0
 35 31  1  0  0  0  0
 36 35  1  0  0  0  0
M  END
>  <minimizedAffinity>
-4.5975523

$$$$

 OpenBabel03252507033D

 36 37  0  0  0  0  0  0  0  0999 V2000
   39.9610   30.8710   40.5580 C   0  0  0  0  0  0  0  0  0  0  0  0
   39.8710   29.7680   40.2870 H   0  0  0  0  0  0  0  0  0  0  0  0
   41.0770   30.9640   40.6530 H   0  0  0  0  0  0  0  0  0  0  0  0
   39.4910   31.7820   39.7130 N   0  0  0  0  0  0  0  0  0  0  0  0
   38.6930   31.5920   38.5550 C   0  0  0  0  0  0  0  0  0  0  0  0
   37.3280   32.0340   39.1380 C   0  0  0  0  0  0  0  0  0  0  0  0
   37.3200   33.4260   39.5920 C   0  0  0  0  0  0  0  0  0  0  0  0
   38.5910   34.0570   39.9520 C   0  0  0  0  0  0  0  0  0  0  0  0
   39.8020   33.1760   40.0450 C   0  0  0  0  0  0  0  0  0  0  0  0
   38.9450   32.0850   37.6350 H   0  0  0  0  0  0  0  0  0  0  0  0
   38.5810   30.4790   38.4100 H   0  0  0  0  0  0  0  0  0  0  0  0
   36.5690   31.8580   38.3330 H   0  0  0  0  0  0  0  0  0  0  0  0
   37.1430   31.3290   39.9800 H   0  0  0  0  0  0  0  0  0  0  0  0
   36.6540   33.4930   40.4970 H   0  0  0  0  0  0  0  0  0  0  0  0
   36.8330   34.1110   38.8430 H   0  0  0  0  0  0  0  0  0  0  0  0
   38.7590   35.0790   40.1800 H   0  0  0  0  0  0  0  0  0  0  0  0
   41.3700   33.8130   40.5500 S   0  0  0  0  0  0  0  0  0  0  0  0
   42.2370   33.9290   39.4460 H   0  0  0  0  0  0  0  0  0  0  0  0
   39.3810   30.9900   41.9350 C   0  0  0  0  0  0  0  0  0  0  0  0
   38.7090   31.8620   42.0770 H   0  0  0  0  0  0  0  0  0  0  0  0
   40.2250   31.1100   42.6450 H   0  0  0  0  0  0  0  0  0  0  0  0
   38.7000   29.7050   42.2360 C   0  0  0  0  0  0  0  0  0  0  0  0
   37.3540   29.5380   41.9760 C   0  0  0  0  0  0  0  0  0  0  0  0
   36.7810   28.2970   42.3020 C   0  0  0  0  0  0  0  0  0  0  0  0
   37.5790   27.3290   42.8530 N   0  0  0  0  0  0  0  0  0  0  0  0
   38.8760   27.5600   43.0770 C   0  0  0  0  0  0  0  0  0  0  0  0
   39.4130   28.7250   42.7710 N   0  0  0  0  0  0  0  0  0  0  0  0
   36.7690   30.3220   41.5440 H   0  0  0  0  0  0  0  0  0  0  0  0
   35.7320   28.1130   42.1190 H   0  0  0  0  0  0  0  0  0  0  0  0
   39.7400   26.5050   43.6760 C   0  0  0  0  0  2  0  0  0  0  0  0
   40.3030   25.6010   42.7090 N   0  0  0  0  0  4  0  0  0  0  0  0
   40.1880   26.0290   41.7620 H   0  0  0  0  0  0  0  0  0  0  0  0
   41.7140   25.3560   42.8780 C   0  0  0  0  0  2  0  0  0  0  0  0
   42.3380   26.1570   42.4350 H   0  0  0  0  0  0  0  0  0  0  0  0
   39.5470   24.3540   42.6620 C   0  0  0  0  0  2  0  0  0  0  0  0
   38.7900   24.3860   43.4960 H   0  0  0  0  0  0  0  0  0  0  0  0
  1  3  1  0  0  0  0
  1 19  1  0  0  0  0
  2  1  1  0  0  0  0
  4  9  1  0  0  0  0
  4  1  1  0  0  0  0
  5  6  1  0  0  0  0
  5  4  1  0  0  0  0
  6  7  1  0  0  0  0
  6 13  1  0  0  0  0
  7  8  1  0  0  0  0
  7 14  1  0  0  0  0
  8  9  2  0  0  0  0
  8 16  1  0  0  0  0
  9 17  1  0  0  0  0
 10  5  1  0  0  0  0
 11  5  1  0  0  0  0
 12  6  1  0  0  0  0
 15  7  1  0  0  0  0
 18 17  1  0  0  0  0
 19 20  1  0  0  0  0
 19 22  1  0  0  0  0
 19 21  1  0  0  0  0
 22 27  1  0  0  0  0
 23 22  2  0  0  0  0
 23 24  1  0  0  0  0
 24 25  2  0  0  0  0
 25 26  1  0  0  0  0
 26 30  1  0  0  0  0
 27 26  2  0  0  0  0
 28 23  1  0  0  0  0
 29 24  1  0  0  0  0
 31 33  1  0  0  0  0
 31 30  1  0  0  0  0
 32 31  1  0  0  0  0
 34 33  1  0  0  0  0
 35 31  1  0  0  0  0
 35 36  1  0  0  0  0
M  END
>  <minimizedAffinity>
-4.51751375

$$$$

 OpenBabel03252507033D

 36 37  0  0  0  0  0  0  0  0999 V2000
   38.5210   28.7230   40.1320 C   0  0  0  0  0  0  0  0  0  0  0  0
   39.4700   29.2760   39.8280 H   0  0  0  0  0  0  0  0  0  0  0  0
   38.3980   28.0370   39.2500 H   0  0  0  0  0  0  0  0  0  0  0  0
   38.5150   28.0280   41.2640 N   0  0  0  0  0  0  0  0  0  0  0  0
   39.3810   28.1440   42.3820 C   0  0  0  0  0  0  0  0  0  0  0  0
   38.4300   28.9100   43.3340 C   0  0  0  0  0  0  0  0  0  0  0  0
   37.2120   28.1640   43.6540 C   0  0  0  0  0  0  0  0  0  0  0  0
   36.7570   27.1270   42.7270 C   0  0  0  0  0  0  0  0  0  0  0  0
   37.4410   27.0370   41.3950 C   0  0  0  0  0  0  0  0  0  0  0  0
   39.8150   27.2670   42.8250 H   0  0  0  0  0  0  0  0  0  0  0  0
   40.1700   28.9040   42.1120 H   0  0  0  0  0  0  0  0  0  0  0  0
   39.0260   29.1430   44.2550 H   0  0  0  0  0  0  0  0  0  0  0  0
   38.2000   29.8570   42.7950 H   0  0  0  0  0  0  0  0  0  0  0  0
   36.3690   28.9030   43.7580 H   0  0  0  0  0  0  0  0  0  0  0  0
   37.2710   27.6730   44.6660 H   0  0  0  0  0  0  0  0  0  0  0  0
   35.9720   26.4300   42.8770 H   0  0  0  0  0  0  0  0  0  0  0  0
   36.9220   25.8800   40.1660 S   0  0  0  0  0  0  0  0  0  0  0  0
   37.8360   24.8130   40.0720 H   0  0  0  0  0  0  0  0  0  0  0  0
   37.4260   29.7450   40.0610 C   0  0  0  0  0  0  0  0  0  0  0  0
   36.6220   29.6090   40.8140 H   0  0  0  0  0  0  0  0  0  0  0  0
   36.9530   29.6620   39.0610 H   0  0  0  0  0  0  0  0  0  0  0  0
   38.0670   31.0810   40.1630 C   0  0  0  0  0  0  0  0  0  0  0  0
   37.3170   32.2370   40.0680 C   0  0  0  0  0  0  0  0  0  0  0  0
   38.0010   33.4610   40.1600 C   0  0  0  0  0  0  0  0  0  0  0  0
   39.3590   33.4430   40.3380 N   0  0  0  0  0  0  0  0  0  0  0  0
   40.0220   32.2860   40.4220 C   0  0  0  0  0  0  0  0  0  0  0  0
   39.3800   31.1370   40.3350 N   0  0  0  0  0  0  0  0  0  0  0  0
   36.2580   32.2030   39.9290 H   0  0  0  0  0  0  0  0  0  0  0  0
   37.4630   34.3950   40.0920 H   0  0  0  0  0  0  0  0  0  0  0  0
   41.4990   32.2710   40.6160 C   0  0  0  0  0  2  0  0  0  0  0  0
   41.9070   32.5500   41.9670 N   0  0  0  0  0  4  0  0  0  0  0  0
   41.1750   33.1520   42.4070 H   0  0  0  0  0  0  0  0  0  0  0  0
   42.0310   31.3810   42.8020 C   0  0  0  0  0  2  0  0  0  0  0  0
   41.0560   31.0460   43.2070 H   0  0  0  0  0  0  0  0  0  0  0  0
   43.1260   33.3510   41.9860 C   0  0  0  0  0  2  0  0  0  0  0  0
   43.4950   33.4320   40.9250 H   0  0  0  0  0  0  0  0  0  0  0  0
  1  4  1  0  0  0  0
  2  1  1  0  0  0  0
  3  1  1  0  0  0  0
  4  9  1  0  0  0  0
  4  5  1  0  0  0  0
  5 10  1  0  0  0  0
  5  6  1  0  0  0  0
  6  7  1  0  0  0  0
  6 12  1  0  0  0  0
  7 14  1  0  0  0  0
  7 15  1  0  0  0  0
  8 16  1  0  0  0  0
  8  7  1  0  0  0  0
  9  8  2  0  0  0  0
 11  5  1  0  0  0  0
 13  6  1  0  0  0  0
 17  9  1  0  0  0  0
 18 17  1  0  0  0  0
 19  1  1  0  0  0  0
 19 22  1  0  0  0  0
 19 20  1  0  0  0  0
 21 19  1  0  0  0  0
 22 27  1  0  0  0  0
 23 24  1  0  0  0  0
 23 22  2  0  0  0  0
 24 25  2  0  0  0  0
 25 26  1  0  0  0  0
 26 30  1  0  0  0  0
 27 26  2  0  0  0  0
 28 23  1  0  0  0  0
 29 24  1  0  0  0  0
 30 31  1  0  0  0  0
 31 35  1  0  0  0  0
 31 32  1  0  0  0  0
 31 33  1  0  0  0  0
 33 34  1  0  0  0  0
 36 35  1  0  0  0  0
M  END
>  <minimizedAffinity>
-4.50907898

$$$$

 OpenBabel03252507033D

 36 37  0  0  0  0  0  0  0  0999 V2000
   36.8990   27.1650   42.4530 C   0  0  0  0  0  0  0  0  0  0  0  0
   36.3000   28.0600   42.0800 H   0  0  0  0  0  0  0  0  0  0  0  0
   36.1270   26.6600   43.0950 H   0  0  0  0  0  0  0  0  0  0  0  0
   37.3950   26.3080   41.5670 N   0  0  0  0  0  0  0  0  0  0  0  0
   38.4400   25.3630   41.7350 C   0  0  0  0  0  0  0  0  0  0  0  0
   37.5780   24.0830   41.8660 C   0  0  0  0  0  0  0  0  0  0  0  0
   36.7700   23.8090   40.6760 C   0  0  0  0  0  0  0  0  0  0  0  0
   36.4320   24.9180   39.7820 C   0  0  0  0  0  0  0  0  0  0  0  0
   36.7470   26.3080   40.2520 C   0  0  0  0  0  0  0  0  0  0  0  0
   39.2200   25.2800   41.0000 H   0  0  0  0  0  0  0  0  0  0  0  0
   38.8620   25.5160   42.7700 H   0  0  0  0  0  0  0  0  0  0  0  0
   38.2880   23.2450   42.0850 H   0  0  0  0  0  0  0  0  0  0  0  0
   36.9390   24.2690   42.7600 H   0  0  0  0  0  0  0  0  0  0  0  0
   35.7980   23.3530   41.0140 H   0  0  0  0  0  0  0  0  0  0  0  0
   37.2330   23.0150   40.0260 H   0  0  0  0  0  0  0  0  0  0  0  0
   35.9630   24.8580   38.8340 H   0  0  0  0  0  0  0  0  0  0  0  0
   36.3100   27.7270   39.2940 S   0  0  0  0  0  0  0  0  0  0  0  0
   37.4500   28.2830   38.6830 H   0  0  0  0  0  0  0  0  0  0  0  0
   37.9400   27.7380   43.3660 C   0  0  0  0  0  0  0  0  0  0  0  0
   38.7280   27.0190   43.6720 H   0  0  0  0  0  0  0  0  0  0  0  0
   37.4270   28.0720   44.2920 H   0  0  0  0  0  0  0  0  0  0  0  0
   38.5060   28.9330   42.6910 C   0  0  0  0  0  0  0  0  0  0  0  0
   39.8490   29.2360   42.7920 C   0  0  0  0  0  0  0  0  0  0  0  0
   40.3030   30.3920   42.1350 C   0  0  0  0  0  0  0  0  0  0  0  0
   39.4000   31.1480   41.4360 N   0  0  0  0  0  0  0  0  0  0  0  0
   38.1120   30.7950   41.3800 C   0  0  0  0  0  0  0  0  0  0  0  0
   37.6870   29.7100   41.9970 N   0  0  0  0  0  0  0  0  0  0  0  0
   40.5190   28.6170   43.3490 H   0  0  0  0  0  0  0  0  0  0  0  0
   41.3450   30.6750   42.1820 H   0  0  0  0  0  0  0  0  0  0  0  0
   37.1330   31.6200   40.6180 C   0  0  0  0  0  2  0  0  0  0  0  0
   37.7150   32.3330   39.5130 N   0  0  0  0  0  4  0  0  0  0  0  0
   38.7550   32.2830   39.6080 H   0  0  0  0  0  0  0  0  0  0  0  0
   37.3960   31.7830   38.2190 C   0  0  0  0  0  2  0  0  0  0  0  0
   38.0430   30.9230   37.9550 H   0  0  0  0  0  0  0  0  0  0  0  0
   37.3910   33.7540   39.5820 C   0  0  0  0  0  2  0  0  0  0  0  0
   36.6580   33.8930   40.4260 H   0  0  0  0  0  0  0  0  0  0  0  0
  1  3  1  0  0  0  0
  1 19  1  0  0  0  0
  2  1  1  0  0  0  0
  4  5  1  0  0  0  0
  4  1  1  0  0  0  0
  5  6  1  0  0  0  0
  5 11  1  0  0  0  0
  6 12  1  0  0  0  0
  6 13  1  0  0  0  0
  7 14  1  0  0  0  0
  7  6  1  0  0  0  0
  8  9  2  0  0  0  0
  8  7  1  0  0  0  0
  9  4  1  0  0  0  0
 10  5  1  0  0  0  0
 15  7  1  0  0  0  0
 16  8  1  0  0  0  0
 17  9  1  0  0  0  0
 18 17  1  0  0  0  0
 19 20  1  0  0  0  0
 19 21  1  0  0  0  0
 22 23  1  0  0  0  0
 22 19  1  0  0  0  0
 23 28  1  0  0  0  0
 24 29  1  0  0  0  0
 24 23  2  0  0  0  0
 25 24  1  0  0  0  0
 26 25  2  0  0  0  0
 26 27  1  0  0  0  0
 27 22  2  0  0  0  0
 30 26  1  0  0  0  0
 31 35  1  0  0  0  0
 31 32  1  0  0  0  0
 31 30  1  0  0  0  0
 33 31  1  0  0  0  0
 34 33  1  0  0  0  0
 35 36  1  0  0  0  0
M  END
>  <minimizedAffinity>
-4.45884466

$$$$

 OpenBabel03252507033D

 36 37  0  0  0  0  0  0  0  0999 V2000
   38.8660   27.2690   40.5050 C   0  0  0  0  0  0  0  0  0  0  0  0
   39.7550   27.9040   40.1820 H   0  0  0  0  0  0  0  0  0  0  0  0
   39.1320   26.2900   40.0230 H   0  0  0  0  0  0  0  0  0  0  0  0
   38.6330   27.0980   41.8010 N   0  0  0  0  0  0  0  0  0  0  0  0
   39.3330   27.6450   42.9090 C   0  0  0  0  0  0  0  0  0  0  0  0
   38.3220   28.7510   43.2990 C   0  0  0  0  0  0  0  0  0  0  0  0
   37.0100   28.2240   43.6790 C   0  0  0  0  0  0  0  0  0  0  0  0
   36.6080   26.9070   43.1820 C   0  0  0  0  0  0  0  0  0  0  0  0
   37.4710   26.2680   42.1340 C   0  0  0  0  0  0  0  0  0  0  0  0
   39.6200   27.0180   43.7330 H   0  0  0  0  0  0  0  0  0  0  0  0
   40.2150   28.2130   42.4950 H   0  0  0  0  0  0  0  0  0  0  0  0
   38.7930   29.3280   44.1360 H   0  0  0  0  0  0  0  0  0  0  0  0
   38.2560   29.3990   42.3950 H   0  0  0  0  0  0  0  0  0  0  0  0
   36.2280   28.9570   43.3340 H   0  0  0  0  0  0  0  0  0  0  0  0
   36.8770   28.1890   44.7970 H   0  0  0  0  0  0  0  0  0  0  0  0
   35.7520   26.3480   43.4630 H   0  0  0  0  0  0  0  0  0  0  0  0
   37.0400   24.7190   41.4030 S   0  0  0  0  0  0  0  0  0  0  0  0
   37.8630   23.6900   41.9000 H   0  0  0  0  0  0  0  0  0  0  0  0
   37.6890   27.8290   39.7630 C   0  0  0  0  0  0  0  0  0  0  0  0
   36.7180   27.3580   40.0210 H   0  0  0  0  0  0  0  0  0  0  0  0
   37.8600   27.6540   38.6810 H   0  0  0  0  0  0  0  0  0  0  0  0
   37.6790   29.2950   40.0010 C   0  0  0  0  0  0  0  0  0  0  0  0
   36.5170   29.9470   40.3610 C   0  0  0  0  0  0  0  0  0  0  0  0
   36.5880   31.3370   40.5540 C   0  0  0  0  0  0  0  0  0  0  0  0
   37.7930   31.9640   40.3780 N   0  0  0  0  0  0  0  0  0  0  0  0
   38.8800   31.2690   40.0290 C   0  0  0  0  0  0  0  0  0  0  0  0
   38.8120   29.9650   39.8480 N   0  0  0  0  0  0  0  0  0  0  0  0
   35.5970   29.4180   40.4880 H   0  0  0  0  0  0  0  0  0  0  0  0
   35.7080   31.8970   40.8370 H   0  0  0  0  0  0  0  0  0  0  0  0
   40.1880   31.9550   39.8390 C   0  0  0  0  0  2  0  0  0  0  0  0
   40.1960   32.8930   38.7480 N   0  0  0  0  0  4  0  0  0  0  0  0
   39.2200   33.2470   38.6210 H   0  0  0  0  0  0  0  0  0  0  0  0
   41.0250   34.0520   38.9690 C   0  0  0  0  0  2  0  0  0  0  0  0
   40.5170   34.8240   39.5800 H   0  0  0  0  0  0  0  0  0  0  0  0
   40.5300   32.2290   37.4930 C   0  0  0  0  0  2  0  0  0  0  0  0
   40.8200   31.1680   37.7380 H   0  0  0  0  0  0  0  0  0  0  0  0
  1  4  1  0  0  0  0
  2  1  1  0  0  0  0
  3  1  1  0  0  0  0
  4  9  1  0  0  0  0
  4  5  1  0  0  0  0
  5  6  1  0  0  0  0
  5 10  1  0  0  0  0
  6  7  1  0  0  0  0
  6 12  1  0  0  0  0
  7 15  1  0  0  0  0
  8 16  1  0  0  0  0
  8  7  1  0  0  0  0
  9  8  2  0  0  0  0
 11  5  1  0  0  0  0
 13  6  1  0  0  0  0
 14  7  1  0  0  0  0
 17 18  1  0  0  0  0
 17  9  1  0  0  0  0
 19 22  1  0  0  0  0
 19 20  1  0  0  0  0
 19  1  1  0  0  0  0
 21 19  1  0  0  0  0
 22 23  1  0  0  0  0
 23 28  1  0  0  0  0
 23 24  2  0  0  0  0
 24 29  1  0  0  0  0
 25 24  1  0  0  0  0
 26 25  2  0  0  0  0
 27 22  2  0  0  0  0
 27 26  1  0  0  0  0
 30 26  1  0  0  0  0
 31 33  1  0  0  0  0
 31 30  1  0  0  0  0
 32 31  1  0  0  0  0
 33 34  1  0  0  0  0
 35 36  1  0  0  0  0
 35 31  1  0  0  0  0
M  END
>  <minimizedAffinity>
-4.43864536

$$$$

 OpenBabel03252507033D

 36 37  0  0  0  0  0  0  0  0999 V2000
   39.1860   29.6610   42.6090 C   0  0  0  0  0  0  0  0  0  0  0  0
   38.8110   30.7130   42.8360 H   0  0  0  0  0  0  0  0  0  0  0  0
   40.2370   29.7340   42.9990 H   0  0  0  0  0  0  0  0  0  0  0  0
   38.5610   28.6230   43.1550 N   0  0  0  0  0  0  0  0  0  0  0  0
   37.2420   28.5540   43.6730 C   0  0  0  0  0  0  0  0  0  0  0  0
   36.5690   27.8070   42.4950 C   0  0  0  0  0  0  0  0  0  0  0  0
   37.1380   26.4800   42.2530 C   0  0  0  0  0  0  0  0  0  0  0  0
   38.5050   26.2080   42.7020 C   0  0  0  0  0  0  0  0  0  0  0  0
   39.3210   27.3700   43.1870 C   0  0  0  0  0  0  0  0  0  0  0  0
   37.0580   28.0980   44.6290 H   0  0  0  0  0  0  0  0  0  0  0  0
   36.8100   29.5940   43.6210 H   0  0  0  0  0  0  0  0  0  0  0  0
   35.4770   27.7490   42.7410 H   0  0  0  0  0  0  0  0  0  0  0  0
   36.7140   28.4810   41.6190 H   0  0  0  0  0  0  0  0  0  0  0  0
   37.1140   26.2890   41.1440 H   0  0  0  0  0  0  0  0  0  0  0  0
   36.4990   25.6610   42.6870 H   0  0  0  0  0  0  0  0  0  0  0  0
   39.0050   25.2730   42.7050 H   0  0  0  0  0  0  0  0  0  0  0  0
   41.0070   27.1740   43.6750 S   0  0  0  0  0  0  0  0  0  0  0  0
   41.1270   27.2310   45.0770 H   0  0  0  0  0  0  0  0  0  0  0  0
   39.2650   29.5820   41.1140 C   0  0  0  0  0  0  0  0  0  0  0  0
   38.7300   28.7160   40.6720 H   0  0  0  0  0  0  0  0  0  0  0  0
   40.3350   29.4780   40.8400 H   0  0  0  0  0  0  0  0  0  0  0  0
   38.7710   30.8760   40.5800 C   0  0  0  0  0  0  0  0  0  0  0  0
   37.4450   31.0390   40.2280 C   0  0  0  0  0  0  0  0  0  0  0  0
   37.0600   32.2900   39.7180 C   0  0  0  0  0  0  0  0  0  0  0  0
   38.0080   33.2710   39.5990 N   0  0  0  0  0  0  0  0  0  0  0  0
   39.2750   33.0450   39.9600 C   0  0  0  0  0  0  0  0  0  0  0  0
   39.6360   31.8700   40.4390 N   0  0  0  0  0  0  0  0  0  0  0  0
   36.7380   30.2440   40.3380 H   0  0  0  0  0  0  0  0  0  0  0  0
   36.0350   32.4710   39.4270 H   0  0  0  0  0  0  0  0  0  0  0  0
   40.3030   34.1140   39.8290 C   0  0  0  0  0  2  0  0  0  0  0  0
   41.5830   33.6340   39.3820 N   0  0  0  0  0  4  0  0  0  0  0  0
   41.6060   32.5990   39.5230 H   0  0  0  0  0  0  0  0  0  0  0  0
   41.8440   33.8610   37.9820 C   0  0  0  0  0  2  0  0  0  0  0  0
   41.3730   33.0940   37.3350 H   0  0  0  0  0  0  0  0  0  0  0  0
   42.6570   34.1610   40.2160 C   0  0  0  0  0  2  0  0  0  0  0  0
   42.2000   34.9130   40.9210 H   0  0  0  0  0  0  0  0  0  0  0  0
  1  2  1  0  0  0  0
  1  3  1  0  0  0  0
  1  4  1  0  0  0  0
  4  9  1  0  0  0  0
  4  5  1  0  0  0  0
  5 10  1  0  0  0  0
  6 12  1  0  0  0  0
  6  5  1  0  0  0  0
  7  6  1  0  0  0  0
  7 15  1  0  0  0  0
  7  8  1  0  0  0  0
  8 16  1  0  0  0  0
  8  9  2  0  0  0  0
  9 17  1  0  0  0  0
 11  5  1  0  0  0  0
 13  6  1  0  0  0  0
 14  7  1  0  0  0  0
 17 18  1  0  0  0  0
 19  1  1  0  0  0  0
 20 19  1  0  0  0  0
 21 19  1  0  0  0  0
 22 19  1  0  0  0  0
 23 28  1  0  0  0  0
 23 22  2  0  0  0  0
 24 23  1  0  0  0  0
 25 24  2  0  0  0  0
 25 26  1  0  0  0  0
 26 27  2  0  0  0  0
 27 22  1  0  0  0  0
 29 24  1  0  0  0  0
 30 26  1  0  0  0  0
 31 32  1  0  0  0  0
 31 30  1  0  0  0  0
 31 35  1  0  0  0  0
 33 31  1  0  0  0  0
 34 33  1  0  0  0  0
 35 36  1  0  0  0  0
M  END
>  <minimizedAffinity>
-4.43457365

$$$$

 OpenBabel03252507033D

 36 37  0  0  0  0  0  0  0  0999 V2000
   39.4290   28.5390   41.0160 C   0  0  0  0  0  0  0  0  0  0  0  0
   40.0790   28.1830   40.1500 H   0  0  0  0  0  0  0  0  0  0  0  0
   38.5660   28.9830   40.4490 H   0  0  0  0  0  0  0  0  0  0  0  0
   38.9930   27.6510   41.9020 N   0  0  0  0  0  0  0  0  0  0  0  0
   39.1170   27.6740   43.3160 C   0  0  0  0  0  0  0  0  0  0  0  0
   37.6740   28.1130   43.6690 C   0  0  0  0  0  0  0  0  0  0  0  0
   36.6560   27.1610   43.2180 C   0  0  0  0  0  0  0  0  0  0  0  0
   36.9750   26.2630   42.1060 C   0  0  0  0  0  0  0  0  0  0  0  0
   38.2450   26.5170   41.3500 C   0  0  0  0  0  0  0  0  0  0  0  0
   39.4390   26.7960   43.8460 H   0  0  0  0  0  0  0  0  0  0  0  0
   39.7480   28.5700   43.5800 H   0  0  0  0  0  0  0  0  0  0  0  0
   37.6490   28.2480   44.7810 H   0  0  0  0  0  0  0  0  0  0  0  0
   37.5560   29.1030   43.1730 H   0  0  0  0  0  0  0  0  0  0  0  0
   35.7440   27.7480   42.9140 H   0  0  0  0  0  0  0  0  0  0  0  0
   36.2930   26.5030   44.0560 H   0  0  0  0  0  0  0  0  0  0  0  0
   36.3930   25.4510   41.7510 H   0  0  0  0  0  0  0  0  0  0  0  0
   38.6900   25.5500   39.9410 S   0  0  0  0  0  0  0  0  0  0  0  0
   39.7270   24.6520   40.2630 H   0  0  0  0  0  0  0  0  0  0  0  0
   40.1870   29.6720   41.6400 C   0  0  0  0  0  0  0  0  0  0  0  0
   41.2870   29.5240   41.6750 H   0  0  0  0  0  0  0  0  0  0  0  0
   39.8380   29.7720   42.6880 H   0  0  0  0  0  0  0  0  0  0  0  0
   39.8130   30.9070   40.9050 C   0  0  0  0  0  0  0  0  0  0  0  0
   39.3340   32.0150   41.5770 C   0  0  0  0  0  0  0  0  0  0  0  0
   38.9890   33.1380   40.8080 C   0  0  0  0  0  0  0  0  0  0  0  0
   39.1450   33.0780   39.4480 N   0  0  0  0  0  0  0  0  0  0  0  0
   39.6160   31.9720   38.8640 C   0  0  0  0  0  0  0  0  0  0  0  0
   39.9390   30.9170   39.5860 N   0  0  0  0  0  0  0  0  0  0  0  0
   39.2280   32.0180   42.6410 H   0  0  0  0  0  0  0  0  0  0  0  0
   38.6090   34.0320   41.2830 H   0  0  0  0  0  0  0  0  0  0  0  0
   39.7840   31.9100   37.3850 C   0  0  0  0  0  2  0  0  0  0  0  0
   41.0960   32.2930   36.9360 N   0  0  0  0  0  4  0  0  0  0  0  0
   41.0120   32.6360   35.9530 H   0  0  0  0  0  0  0  0  0  0  0  0
   41.6920   33.3650   37.6940 C   0  0  0  0  0  2  0  0  0  0  0  0
   41.3320   34.3620   37.3700 H   0  0  0  0  0  0  0  0  0  0  0  0
   41.9800   31.1350   36.8660 C   0  0  0  0  0  2  0  0  0  0  0  0
   41.4260   30.2590   37.3080 H   0  0  0  0  0  0  0  0  0  0  0  0
  1 19  1  0  0  0  0
  1  4  1  0  0  0  0
  2  1  1  0  0  0  0
  3  1  1  0  0  0  0
  4  5  1  0  0  0  0
  5 11  1  0  0  0  0
  5  6  1  0  0  0  0
  5 10  1  0  0  0  0
  6 12  1  0  0  0  0
  7  6  1  0  0  0  0
  7 15  1  0  0  0  0
  8  7  1  0  0  0  0
  9  4  1  0  0  0  0
  9  8  2  0  0  0  0
 13  6  1  0  0  0  0
 14  7  1  0  0  0  0
 16  8  1  0  0  0  0
 17 18  1  0  0  0  0
 17  9  1  0  0  0  0
 19 20  1  0  0  0  0
 19 21  1  0  0  0  0
 22 23  1  0  0  0  0
 22 19  1  0  0  0  0
 23 28  1  0  0  0  0
 24 29  1  0  0  0  0
 24 23  2  0  0  0  0
 25 24  1  0  0  0  0
 26 25  2  0  0  0  0
 26 27  1  0  0  0  0
 27 22  2  0  0  0  0
 30 26  1  0  0  0  0
 31 30  1  0  0  0  0
 31 33  1  0  0  0  0
 32 31  1  0  0  0  0
 34 33  1  0  0  0  0
 35 31  1  0  0  0  0
 35 36  1  0  0  0  0
M  END
>  <minimizedAffinity>
-4.42875624

$$$$

 OpenBabel03252507033D

 36 37  0  0  0  0  0  0  0  0999 V2000
   36.0470   29.3400   40.8230 C   0  0  0  0  0  0  0  0  0  0  0  0
   35.9410   29.2220   39.6940 H   0  0  0  0  0  0  0  0  0  0  0  0
   35.0120   29.0520   41.1530 H   0  0  0  0  0  0  0  0  0  0  0  0
   36.9560   28.6140   41.4640 N   0  0  0  0  0  0  0  0  0  0  0  0
   37.5200   28.8290   42.7480 C   0  0  0  0  0  0  0  0  0  0  0  0
   36.7190   27.7620   43.5360 C   0  0  0  0  0  0  0  0  0  0  0  0
   36.9480   26.3990   43.0530 C   0  0  0  0  0  0  0  0  0  0  0  0
   37.4050   26.2060   41.6760 C   0  0  0  0  0  0  0  0  0  0  0  0
   37.4050   27.4020   40.7700 C   0  0  0  0  0  0  0  0  0  0  0  0
   38.5830   28.7590   42.8930 H   0  0  0  0  0  0  0  0  0  0  0  0
   37.1150   29.8100   43.1280 H   0  0  0  0  0  0  0  0  0  0  0  0
   37.0170   27.8740   44.6100 H   0  0  0  0  0  0  0  0  0  0  0  0
   35.6550   28.0670   43.4130 H   0  0  0  0  0  0  0  0  0  0  0  0
   35.9840   25.8270   43.1610 H   0  0  0  0  0  0  0  0  0  0  0  0
   37.6740   25.8360   43.7040 H   0  0  0  0  0  0  0  0  0  0  0  0
   37.7240   25.3000   41.2260 H   0  0  0  0  0  0  0  0  0  0  0  0
   37.8580   27.2720   39.0680 S   0  0  0  0  0  0  0  0  0  0  0  0
   39.1390   27.8160   38.8530 H   0  0  0  0  0  0  0  0  0  0  0  0
   36.1990   30.8130   41.0550 C   0  0  0  0  0  0  0  0  0  0  0  0
   36.5220   31.0850   42.0820 H   0  0  0  0  0  0  0  0  0  0  0  0
   35.2070   31.2830   40.8910 H   0  0  0  0  0  0  0  0  0  0  0  0
   37.1340   31.3260   40.0210 C   0  0  0  0  0  0  0  0  0  0  0  0
   37.0170   30.9330   38.7020 C   0  0  0  0  0  0  0  0  0  0  0  0
   37.9490   31.4520   37.7880 C   0  0  0  0  0  0  0  0  0  0  0  0
   38.9130   32.3100   38.2470 N   0  0  0  0  0  0  0  0  0  0  0  0
   38.9670   32.6480   39.5390 C   0  0  0  0  0  0  0  0  0  0  0  0
   38.0910   32.1610   40.3970 N   0  0  0  0  0  0  0  0  0  0  0  0
   36.2480   30.2600   38.3870 H   0  0  0  0  0  0  0  0  0  0  0  0
   37.9030   31.1780   36.7440 H   0  0  0  0  0  0  0  0  0  0  0  0
   40.0160   33.5820   40.0350 C   0  0  0  0  0  2  0  0  0  0  0  0
   41.3530   33.1930   39.6730 N   0  0  0  0  0  4  0  0  0  0  0  0
   41.2910   32.3190   39.1030 H   0  0  0  0  0  0  0  0  0  0  0  0
   42.0530   34.1600   38.8660 C   0  0  0  0  0  2  0  0  0  0  0  0
   41.7840   34.0880   37.7930 H   0  0  0  0  0  0  0  0  0  0  0  0
   42.1250   32.8260   40.8560 C   0  0  0  0  0  2  0  0  0  0  0  0
   41.4970   33.0690   41.7590 H   0  0  0  0  0  0  0  0  0  0  0  0
  1 19  1  0  0  0  0
  1  3  1  0  0  0  0
  1  4  1  0  0  0  0
  2  1  1  0  0  0  0
  4  5  1  0  0  0  0
  5 10  1  0  0  0  0
  5 11  1  0  0  0  0
  5  6  1  0  0  0  0
  6 12  1  0  0  0  0
  7 14  1  0  0  0  0
  7  6  1  0  0  0  0
  7 15  1  0  0  0  0
  8  7  1  0  0  0  0
  9  4  1  0  0  0  0
  9  8  2  0  0  0  0
 13  6  1  0  0  0  0
 16  8  1  0  0  0  0
 17  9  1  0  0  0  0
 18 17  1  0  0  0  0
 19 20  1  0  0  0  0
 21 19  1  0  0  0  0
 22 27  1  0  0  0  0
 22 19  1  0  0  0  0
 23 22  2  0  0  0  0
 24 25  2  0  0  0  0
 24 23  1  0  0  0  0
 25 26  1  0  0  0  0
 26 30  1  0  0  0  0
 26 27  2  0  0  0  0
 28 23  1  0  0  0  0
 29 24  1  0  0  0  0
 31 30  1  0  0  0  0
 31 35  1  0  0  0  0
 32 31  1  0  0  0  0
 33 31  1  0  0  0  0
 34 33  1  0  0  0  0
 35 36  1  0  0  0  0
M  END
>  <minimizedAffinity>
-4.42017078

$$$$
