
 OpenBabel03252501063D

 38 40  0  0  1  0  0  0  0  0999 V2000
   48.6120   32.3650   38.1180 O   0  0  0  0  0  0  0  0  0  0  0  0
   48.0920   33.7950   38.2530 P   0  0  2  0  0  0  0  0  0  0  0  0
   49.2960   34.7740   37.5690 O   0  0  0  0  0  0  0  0  0  0  0  0
   48.9310   35.6990   37.5420 H   0  0  0  0  0  0  0  0  0  0  0  0
   47.6970   34.1690   39.7950 O   0  0  0  0  0  0  0  0  0  0  0  0
   48.0640   35.4570   41.8110 C   0  0  1  0  0  0  0  0  0  0  0  0
   49.2890   34.6620   41.6610 C   0  0  0  0  0  0  0  0  0  0  0  0
   48.4380   35.0850   40.4500 C   0  0  1  0  0  0  0  0  0  0  0  0
   48.1500   36.5020   42.1470 H   0  0  0  0  0  0  0  0  0  0  0  0
   49.3120   33.5500   41.8190 H   0  0  0  0  0  0  0  0  0  0  0  0
   50.2970   35.1040   41.7630 H   0  0  0  0  0  0  0  0  0  0  0  0
   48.9860   35.8030   39.8110 H   0  0  0  0  0  0  0  0  0  0  0  0
   46.0370   32.9400   43.7870 C   0  0  0  0  0  0  0  0  0  0  0  0
   47.1280   33.6210   43.2580 C   0  0  0  0  0  0  0  0  0  0  0  0
   46.8990   34.7180   42.4050 C   0  0  0  0  0  0  0  0  0  0  0  0
   45.6210   35.0760   42.1260 N   0  0  0  0  0  0  0  0  0  0  0  0
   44.5720   34.3980   42.6530 C   0  0  0  0  0  0  0  0  0  0  0  0
   44.7770   33.3350   43.4800 N   0  0  0  0  0  0  0  0  0  0  0  0
   46.2210   32.0990   44.4420 H   0  0  0  0  0  0  0  0  0  0  0  0
   48.1140   33.2970   43.5100 H   0  0  0  0  0  0  0  0  0  0  0  0
   43.5840   34.7600   42.3720 H   0  0  0  0  0  0  0  0  0  0  0  0
   46.7510   33.8690   37.2460 O   0  0  0  0  0  0  0  0  0  0  0  0
   45.6850   32.9850   37.3120 C   0  0  0  0  0  0  0  0  0  0  0  0
   45.5610   31.7480   36.7060 C   0  0  0  0  0  0  0  0  0  0  0  0
   44.4390   30.9990   36.8730 C   0  0  0  0  0  0  0  0  0  0  0  0
   43.3900   31.4430   37.6480 C   0  0  0  0  0  0  0  0  0  0  0  0
   43.5510   32.6990   38.2460 C   0  0  0  0  0  0  0  0  0  0  0  0
   44.6820   33.4400   38.0700 N   0  0  0  0  0  0  0  0  0  0  0  0
   46.4210   31.4610   36.1110 H   0  0  0  0  0  0  0  0  0  0  0  0
   44.4080   30.0410   36.3700 H   0  0  0  0  0  0  0  0  0  0  0  0
   42.5090   30.8630   37.7840 H   0  0  0  0  0  0  0  0  0  0  0  0
   42.4230   33.1820   39.0830 C   0  0  0  0  0  2  0  0  0  0  0  0
   42.0930   34.5610   38.9110 N   0  0  0  0  0  4  0  0  0  0  0  0
   42.7790   35.0900   38.3250 H   0  0  0  0  0  0  0  0  0  0  0  0
   40.8420   34.6270   38.1680 C   0  0  0  0  0  2  0  0  0  0  0  0
   40.3070   33.6420   38.2240 H   0  0  0  0  0  0  0  0  0  0  0  0
   41.8410   35.2190   40.1810 C   0  0  0  0  0  2  0  0  0  0  0  0
   40.8030   34.9290   40.5040 H   0  0  0  0  0  0  0  0  0  0  0  0
  2  1  2  6  0  0  0
  2  5  1  0  0  0  0
  3  2  1  0  0  0  0
  4  3  1  0  0  0  0
  5  8  1  0  0  0  0
  6  9  1  1  0  0  0
  6 15  1  0  0  0  0
  7 11  1  0  0  0  0
  7  6  1  0  0  0  0
  7 10  1  0  0  0  0
  8 12  1  6  0  0  0
  8  7  1  0  0  0  0
  8  6  1  0  0  0  0
 13 19  1  0  0  0  0
 14 20  1  0  0  0  0
 14 13  2  0  0  0  0
 15 14  1  0  0  0  0
 16 15  2  0  0  0  0
 16 17  1  0  0  0  0
 17 18  2  0  0  0  0
 18 13  1  0  0  0  0
 21 17  1  0  0  0  0
 22 23  1  0  0  0  0
 22  2  1  0  0  0  0
 23 28  1  0  0  0  0
 24 25  1  0  0  0  0
 24 23  2  0  0  0  0
 25 26  2  0  0  0  0
 26 31  1  0  0  0  0
 26 27  1  0  0  0  0
 27 32  1  0  0  0  0
 28 27  2  0  0  0  0
 29 24  1  0  0  0  0
 30 25  1  0  0  0  0
 33 32  1  0  0  0  0
 33 37  1  0  0  0  0
 34 33  1  0  0  0  0
 35 36  1  0  0  0  0
 35 33  1  0  0  0  0
 37 38  1  0  0  0  0
M  END
>  <minimizedAffinity>
-4.64037609

>  <minimizedRMSD>
1.24630666

$$$$
