
 OpenBabel03252507023D

 36 37  0  0  0  0  0  0  0  0999 V2000
   45.3970   32.3810   41.1410 C   0  0  0  0  0  0  0  0  0  0  0  0
   44.7730   31.5750   40.6320 H   0  0  0  0  0  0  0  0  0  0  0  0
   46.1700   31.7440   41.6510 H   0  0  0  0  0  0  0  0  0  0  0  0
   45.9830   33.3110   40.3950 N   0  0  0  0  0  0  0  0  0  0  0  0
   46.8390   34.3670   40.8020 C   0  0  0  0  0  0  0  0  0  0  0  0
   48.1910   33.7530   40.3600 C   0  0  0  0  0  0  0  0  0  0  0  0
   48.2660   33.5050   38.9180 C   0  0  0  0  0  0  0  0  0  0  0  0
   47.0210   33.3340   38.1670 C   0  0  0  0  0  0  0  0  0  0  0  0
   45.7480   33.2060   38.9510 C   0  0  0  0  0  0  0  0  0  0  0  0
   46.6820   35.3640   40.4360 H   0  0  0  0  0  0  0  0  0  0  0  0
   46.8830   34.3420   41.9290 H   0  0  0  0  0  0  0  0  0  0  0  0
   48.9870   34.4670   40.6970 H   0  0  0  0  0  0  0  0  0  0  0  0
   48.2710   32.8070   40.9430 H   0  0  0  0  0  0  0  0  0  0  0  0
   48.8750   32.5710   38.7590 H   0  0  0  0  0  0  0  0  0  0  0  0
   48.8470   34.3060   38.3820 H   0  0  0  0  0  0  0  0  0  0  0  0
   46.9110   33.2680   37.1150 H   0  0  0  0  0  0  0  0  0  0  0  0
   44.1990   32.9150   38.1550 S   0  0  0  0  0  0  0  0  0  0  0  0
   43.4160   34.0850   38.1530 H   0  0  0  0  0  0  0  0  0  0  0  0
   44.5120   32.9530   42.2080 C   0  0  0  0  0  0  0  0  0  0  0  0
   44.5700   34.0570   42.3090 H   0  0  0  0  0  0  0  0  0  0  0  0
   44.8320   32.5190   43.1780 H   0  0  0  0  0  0  0  0  0  0  0  0
   43.1290   32.4900   41.9240 C   0  0  0  0  0  0  0  0  0  0  0  0
   42.7210   31.2180   42.2760 C   0  0  0  0  0  0  0  0  0  0  0  0
   41.4020   30.8520   41.9610 C   0  0  0  0  0  0  0  0  0  0  0  0
   40.5990   31.7650   41.3290 N   0  0  0  0  0  0  0  0  0  0  0  0
   41.0610   32.9800   41.0180 C   0  0  0  0  0  0  0  0  0  0  0  0
   42.3000   33.3230   41.3140 N   0  0  0  0  0  0  0  0  0  0  0  0
   43.3820   30.5370   42.7690 H   0  0  0  0  0  0  0  0  0  0  0  0
   41.0310   29.8690   42.2140 H   0  0  0  0  0  0  0  0  0  0  0  0
   40.1850   33.9700   40.3310 C   0  0  0  0  0  2  0  0  0  0  0  0
   40.8620   35.1860   39.9680 N   0  0  0  0  0  4  0  0  0  0  0  0
   41.8370   35.1360   40.3400 H   0  0  0  0  0  0  0  0  0  0  0  0
   40.9760   35.4000   38.5460 C   0  0  0  0  0  2  0  0  0  0  0  0
   41.8240   34.8400   38.1030 H   0  0  0  0  0  0  0  0  0  0  0  0
   40.2560   36.3350   40.6310 C   0  0  0  0  0  2  0  0  0  0  0  0
   39.3290   35.9710   41.1600 H   0  0  0  0  0  0  0  0  0  0  0  0
  1  3  1  0  0  0  0
  1 19  1  0  0  0  0
  2  1  1  0  0  0  0
  4  5  1  0  0  0  0
  4  1  1  0  0  0  0
  5 11  1  0  0  0  0
  6 12  1  0  0  0  0
  6  5  1  0  0  0  0
  6 13  1  0  0  0  0
  7  6  1  0  0  0  0
  8  7  1  0  0  0  0
  8  9  2  0  0  0  0
  9  4  1  0  0  0  0
 10  5  1  0  0  0  0
 14  7  1  0  0  0  0
 15  7  1  0  0  0  0
 16  8  1  0  0  0  0
 17  9  1  0  0  0  0
 18 17  1  0  0  0  0
 19 20  1  0  0  0  0
 19 21  1  0  0  0  0
 22 19  1  0  0  0  0
 22 23  1  0  0  0  0
 23 28  1  0  0  0  0
 24 29  1  0  0  0  0
 24 23  2  0  0  0  0
 25 24  1  0  0  0  0
 26 27  1  0  0  0  0
 26 25  2  0  0  0  0
 27 22  2  0  0  0  0
 30 26  1  0  0  0  0
 31 30  1  0  0  0  0
 31 32  1  0  0  0  0
 31 35  1  0  0  0  0
 33 31  1  0  0  0  0
 34 33  1  0  0  0  0
 35 36  1  0  0  0  0
M  END
>  <minimizedAffinity>
-3.59339356

>  <minimizedRMSD>
3.3564949

$$$$
