
 OpenBabel03242520563D

 39 40  0  0  0  0  0  0  0  0999 V2000
   48.5840   31.3850   48.6540 C   0  0  0  0  0  3  0  0  0  0  0  0
   47.4890   32.1020   48.8120 C   0  0  0  0  0  3  0  0  0  0  0  0
   51.2820   32.1520   50.9970 C   0  0  0  0  0  0  0  0  0  0  0  0
   51.3700   30.9470   51.7500 C   0  0  0  0  0  0  0  0  0  0  0  0
   50.5270   29.9050   51.4360 C   0  0  0  0  0  0  0  0  0  0  0  0
   49.6710   30.1030   50.4350 N   0  0  0  0  0  0  0  0  0  0  0  0
   49.5770   31.2350   49.7220 C   0  0  0  0  0  0  0  0  0  0  0  0
   50.3850   32.2700   49.9970 N   0  0  0  0  0  0  0  0  0  0  0  0
   51.8910   33.0350   51.1480 H   0  0  0  0  0  0  0  0  0  0  0  0
   50.5650   28.7370   52.1060 O   0  0  0  0  0  0  0  0  0  0  0  0
   51.4730   27.7290   51.6380 C   0  0  0  0  0  0  0  0  0  0  0  0
   51.9820   28.1090   50.3840 F   0  0  0  0  0  0  0  0  0  0  0  0
   52.5420   27.7230   52.5310 F   0  0  0  0  0  0  0  0  0  0  0  0
   50.9270   26.4530   51.6010 F   0  0  0  0  0  0  0  0  0  0  0  0
   52.3550   31.0810   52.8410 C   0  0  0  0  0  2  0  0  0  0  0  0
   52.2390   32.4220   53.4620 N   0  0  0  0  0  4  0  0  0  0  0  0
   51.6720   33.0640   52.8300 H   0  0  0  0  0  0  0  0  0  0  0  0
   51.5110   32.3640   54.7140 C   0  0  0  0  0  2  0  0  0  0  0  0
   51.9930   33.0400   55.4750 H   0  0  0  0  0  0  0  0  0  0  0  0
   53.5460   32.9930   53.6960 C   0  0  0  0  0  2  0  0  0  0  0  0
   53.6300   33.3330   54.7680 H   0  0  0  0  0  0  0  0  0  0  0  0
   46.5120   32.2230   47.6990 C   0  0  0  0  0  0  0  0  0  0  0  0
   46.3310   31.1910   47.3730 H   0  0  0  0  0  0  0  0  0  0  0  0
   45.5280   32.5950   48.1220 H   0  0  0  0  0  0  0  0  0  0  0  0
   46.5290   32.7790   45.4240 C   0  0  0  0  0  0  0  0  0  0  0  0
   45.8650   31.8310   44.9570 O   0  0  0  0  0  0  0  0  0  0  0  0
   46.9200   33.1360   46.7110 N   0  0  0  0  0  0  0  0  0  0  0  0
   47.4580   34.0020   46.8420 H   0  0  0  0  0  0  0  0  0  0  0  0
   44.8450   35.1570   44.5160 Cl  0  0  0  0  0  0  0  0  0  0  0  0
   46.2200   34.5900   43.6090 C   0  0  0  0  0  0  0  0  0  0  0  0
   46.8380   33.5140   44.1900 C   0  0  0  0  0  0  0  0  0  0  0  0
   47.9620   32.9320   43.5940 C   0  0  0  0  0  0  0  0  0  0  0  0
   48.4610   33.4520   42.4000 C   0  0  0  0  0  0  0  0  0  0  0  0
   47.8140   34.5450   41.8330 C   0  0  0  0  0  0  0  0  0  0  0  0
   48.4020   35.2380   40.3380 Cl  0  0  0  0  0  0  0  0  0  0  0  0
   46.7150   35.0970   42.4360 C   0  0  0  0  0  0  0  0  0  0  0  0
   48.5270   32.1070   43.9320 H   0  0  0  0  0  0  0  0  0  0  0  0
   49.3220   33.0620   41.8770 H   0  0  0  0  0  0  0  0  0  0  0  0
   46.1700   35.9480   42.0420 H   0  0  0  0  0  0  0  0  0  0  0  0
  1  2  2  0  0  0  0
  1  7  1  0  0  0  0
  3  9  1  0  0  0  0
  3  4  1  0  0  0  0
  4 15  1  0  0  0  0
  5  4  2  0  0  0  0
  5 10  1  0  0  0  0
  6  5  1  0  0  0  0
  7  8  1  0  0  0  0
  7  6  2  0  0  0  0
  8  3  2  0  0  0  0
 11 10  1  0  0  0  0
 11 13  1  0  0  0  0
 12 11  1  0  0  0  0
 14 11  1  0  0  0  0
 15 16  1  0  0  0  0
 16 20  1  0  0  0  0
 16 18  1  0  0  0  0
 17 16  1  0  0  0  0
 18 19  1  0  0  0  0
 20 21  1  0  0  0  0
 22 24  1  0  0  0  0
 22  2  1  0  0  0  0
 23 22  1  0  0  0  0
 25 27  1  0  0  0  0
 26 25  2  0  0  0  0
 27 28  1  0  0  0  0
 27 22  1  0  0  0  0
 30 31  1  0  0  0  0
 30 29  1  0  0  0  0
 31 25  1  0  0  0  0
 32 37  1  0  0  0  0
 32 31  2  0  0  0  0
 33 32  1  0  0  0  0
 34 33  2  0  0  0  0
 34 36  1  0  0  0  0
 35 34  1  0  0  0  0
 36 30  2  0  0  0  0
 38 33  1  0  0  0  0
 39 36  1  0  0  0  0
M  END
>  <minimizedAffinity>
-6.47705078

>  <minimizedRMSD>
0.351046383

$$$$
