
 OpenBabel03242516153D

 39 41  0  0  0  0  0  0  0  0999 V2000
   36.1410   29.0590   40.1720 C   0  0  0  0  0  0  0  0  0  0  0  0
   34.6550   29.2030   39.8450 C   0  0  0  0  0  0  0  0  0  0  0  0
   35.5400   28.3400   39.0550 C   0  0  0  0  0  0  0  0  0  0  0  0
   34.3880   30.1870   39.4120 H   0  0  0  0  0  0  0  0  0  0  0  0
   33.9190   28.8380   40.5700 H   0  0  0  0  0  0  0  0  0  0  0  0
   35.3250   27.2340   39.1190 H   0  0  0  0  0  0  0  0  0  0  0  0
   35.7000   28.6400   38.0100 H   0  0  0  0  0  0  0  0  0  0  0  0
   36.4100   28.3210   41.4530 C   0  0  0  0  0  0  0  0  0  0  0  0
   37.3800   29.0120   42.3870 C   0  0  0  0  0  0  0  0  0  0  0  0
   37.4040   28.1650   43.6550 C   0  0  0  0  0  0  0  0  0  0  0  0
   38.1010   26.9970   43.3610 O   0  0  0  0  0  0  0  0  0  0  0  0
   37.1990   26.2730   42.5450 C   0  0  0  0  0  0  0  0  0  0  0  0
   37.1020   26.9770   41.1930 C   0  0  0  0  0  0  0  0  0  0  0  0
   35.4450   28.1590   41.9560 H   0  0  0  0  0  0  0  0  0  0  0  0
   38.3950   29.0400   41.9950 H   0  0  0  0  0  0  0  0  0  0  0  0
   36.9860   30.0080   42.7010 H   0  0  0  0  0  0  0  0  0  0  0  0
   37.8220   28.7130   44.5140 H   0  0  0  0  0  0  0  0  0  0  0  0
   36.3340   27.9330   43.8860 H   0  0  0  0  0  0  0  0  0  0  0  0
   36.1750   26.3060   42.9820 H   0  0  0  0  0  0  0  0  0  0  0  0
   37.5290   25.2230   42.4280 H   0  0  0  0  0  0  0  0  0  0  0  0
   36.5740   26.3550   40.4700 H   0  0  0  0  0  0  0  0  0  0  0  0
   38.1410   27.2350   40.9160 H   0  0  0  0  0  0  0  0  0  0  0  0
   36.6840   31.4830   40.4450 C   0  0  0  0  0  0  0  0  0  0  0  0
   37.0100   30.2460   39.8960 C   0  0  0  0  0  0  0  0  0  0  0  0
   38.1610   30.1770   39.0810 C   0  0  0  0  0  0  0  0  0  0  0  0
   38.8800   31.3010   38.8740 N   0  0  0  0  0  0  0  0  0  0  0  0
   38.5130   32.4630   39.4320 C   0  0  0  0  0  0  0  0  0  0  0  0
   37.4360   32.5790   40.2100 N   0  0  0  0  0  0  0  0  0  0  0  0
   39.2410   33.6740   39.2460 N   0  0  0  0  0  0  0  0  0  0  0  0
   35.7980   31.5050   41.0670 H   0  0  0  0  0  0  0  0  0  0  0  0
   39.2530   34.2390   38.3740 H   0  0  0  0  0  0  0  0  0  0  0  0
   39.8510   34.1260   39.9840 H   0  0  0  0  0  0  0  0  0  0  0  0
   38.6240   28.9270   38.4740 C   0  0  0  0  0  2  0  0  0  0  0  0
   38.9390   28.9540   37.0830 N   0  0  0  0  0  4  0  0  0  0  0  0
   39.0050   29.9240   36.7000 H   0  0  0  0  0  0  0  0  0  0  0  0
   40.3150   28.4340   36.9400 C   0  0  0  0  0  2  0  0  0  0  0  0
   40.7590   28.7140   35.9740 H   0  0  0  0  0  0  0  0  0  0  0  0
   38.1240   28.1930   36.2030 C   0  0  0  0  0  2  0  0  0  0  0  0
   38.7640   27.9350   35.3030 H   0  0  0  0  0  0  0  0  0  0  0  0
  1  8  1  0  0  0  0
  2  1  1  0  0  0  0
  2  5  1  0  0  0  0
  3  6  1  0  0  0  0
  3  2  1  0  0  0  0
  3  1  1  0  0  0  0
  4  2  1  0  0  0  0
  7  3  1  0  0  0  0
  8 14  1  0  0  0  0
  8  9  1  0  0  0  0
  9 16  1  0  0  0  0
  9 10  1  0  0  0  0
 10 18  1  0  0  0  0
 10 17  1  0  0  0  0
 11 10  1  0  0  0  0
 12 19  1  0  0  0  0
 12 11  1  0  0  0  0
 13  8  1  0  0  0  0
 13 12  1  0  0  0  0
 15  9  1  0  0  0  0
 20 12  1  0  0  0  0
 21 13  1  0  0  0  0
 22 13  1  0  0  0  0
 23 30  1  0  0  0  0
 24  1  1  0  0  0  0
 24 23  2  0  0  0  0
 25 24  1  0  0  0  0
 26 25  2  0  0  0  0
 26 27  1  0  0  0  0
 27 28  2  0  0  0  0
 28 23  1  0  0  0  0
 29 27  1  0  0  0  0
 29 32  1  0  0  0  0
 31 29  1  0  0  0  0
 33 25  1  0  0  0  0
 34 33  1  0  0  0  0
 35 34  1  0  0  0  0
 36 34  1  0  0  0  0
 37 36  1  0  0  0  0
 38 34  1  0  0  0  0
 39 38  1  0  0  0  0
M  END
>  <minimizedAffinity>
-5.12799311

$$$$

 OpenBabel03242516153D

 39 41  0  0  0  0  0  0  0  0999 V2000
   37.7010   27.5590   42.6530 C   0  0  0  0  0  0  0  0  0  0  0  0
   36.5650   27.2750   43.6350 C   0  0  0  0  0  0  0  0  0  0  0  0
   37.3300   28.5260   43.6800 C   0  0  0  0  0  0  0  0  0  0  0  0
   36.8110   26.5020   44.3900 H   0  0  0  0  0  0  0  0  0  0  0  0
   35.5440   27.1870   43.2470 H   0  0  0  0  0  0  0  0  0  0  0  0
   36.7530   29.4600   43.4220 H   0  0  0  0  0  0  0  0  0  0  0  0
   37.9390   28.6870   44.5810 H   0  0  0  0  0  0  0  0  0  0  0  0
   37.2400   27.7830   41.2410 C   0  0  0  0  0  0  0  0  0  0  0  0
   38.3510   27.8380   40.2150 C   0  0  0  0  0  0  0  0  0  0  0  0
   37.6550   27.9400   38.8620 C   0  0  0  0  0  0  0  0  0  0  0  0
   37.1340   29.2260   38.7590 O   0  0  0  0  0  0  0  0  0  0  0  0
   36.0330   29.2050   39.6500 C   0  0  0  0  0  0  0  0  0  0  0  0
   36.5700   29.1540   41.0790 C   0  0  0  0  0  0  0  0  0  0  0  0
   36.5270   26.9820   40.9910 H   0  0  0  0  0  0  0  0  0  0  0  0
   38.9820   28.7180   40.3250 H   0  0  0  0  0  0  0  0  0  0  0  0
   38.9140   26.8740   40.1890 H   0  0  0  0  0  0  0  0  0  0  0  0
   38.3270   27.6800   38.0280 H   0  0  0  0  0  0  0  0  0  0  0  0
   36.8310   27.1850   38.8840 H   0  0  0  0  0  0  0  0  0  0  0  0
   35.4440   28.2700   39.5100 H   0  0  0  0  0  0  0  0  0  0  0  0
   35.3850   30.0880   39.4960 H   0  0  0  0  0  0  0  0  0  0  0  0
   35.7730   29.3300   41.7990 H   0  0  0  0  0  0  0  0  0  0  0  0
   37.3990   29.8850   41.1110 H   0  0  0  0  0  0  0  0  0  0  0  0
   40.1230   27.3830   43.2470 C   0  0  0  0  0  0  0  0  0  0  0  0
   38.9540   26.7570   42.8210 C   0  0  0  0  0  0  0  0  0  0  0  0
   39.0160   25.3710   42.5550 C   0  0  0  0  0  0  0  0  0  0  0  0
   40.1910   24.7290   42.7210 N   0  0  0  0  0  0  0  0  0  0  0  0
   41.2820   25.3900   43.1330 C   0  0  0  0  0  0  0  0  0  0  0  0
   41.2750   26.6960   43.4000 N   0  0  0  0  0  0  0  0  0  0  0  0
   42.5440   24.7550   43.3270 N   0  0  0  0  0  0  0  0  0  0  0  0
   40.0440   28.4450   43.4450 H   0  0  0  0  0  0  0  0  0  0  0  0
   43.1770   24.4340   42.5680 H   0  0  0  0  0  0  0  0  0  0  0  0
   42.9680   24.5420   44.2730 H   0  0  0  0  0  0  0  0  0  0  0  0
   37.8470   24.5970   42.1330 C   0  0  0  0  0  2  0  0  0  0  0  0
   37.7550   24.2530   40.7520 N   0  0  0  0  0  4  0  0  0  0  0  0
   38.4930   24.7100   40.1690 H   0  0  0  0  0  0  0  0  0  0  0  0
   38.0740   22.8140   40.6410 C   0  0  0  0  0  2  0  0  0  0  0  0
   38.3460   22.5340   39.6130 H   0  0  0  0  0  0  0  0  0  0  0  0
   36.5070   24.4430   40.1020 C   0  0  0  0  0  2  0  0  0  0  0  0
   36.4690   23.7060   39.2400 H   0  0  0  0  0  0  0  0  0  0  0  0
  1 24  1  0  0  0  0
  1  2  1  0  0  0  0
  1  3  1  0  0  0  0
  2  3  1  0  0  0  0
  2  4  1  0  0  0  0
  3  7  1  0  0  0  0
  5  2  1  0  0  0  0
  6  3  1  0  0  0  0
  8  1  1  0  0  0  0
  9 15  1  0  0  0  0
  9  8  1  0  0  0  0
 10 18  1  0  0  0  0
 10  9  1  0  0  0  0
 11 10  1  0  0  0  0
 11 12  1  0  0  0  0
 12 13  1  0  0  0  0
 13 22  1  0  0  0  0
 13  8  1  0  0  0  0
 13 21  1  0  0  0  0
 14  8  1  0  0  0  0
 16  9  1  0  0  0  0
 17 10  1  0  0  0  0
 19 12  1  0  0  0  0
 20 12  1  0  0  0  0
 23 28  1  0  0  0  0
 23 30  1  0  0  0  0
 24 23  2  0  0  0  0
 25 26  2  0  0  0  0
 25 24  1  0  0  0  0
 26 27  1  0  0  0  0
 27 29  1  0  0  0  0
 27 28  2  0  0  0  0
 29 32  1  0  0  0  0
 31 29  1  0  0  0  0
 33 25  1  0  0  0  0
 34 33  1  0  0  0  0
 35 34  1  0  0  0  0
 36 34  1  0  0  0  0
 37 36  1  0  0  0  0
 38 34  1  0  0  0  0
 39 38  1  0  0  0  0
M  END
>  <minimizedAffinity>
-5.12549543

$$$$

 OpenBabel03242516153D

 39 41  0  0  0  0  0  0  0  0999 V2000
   37.4340   27.7400   42.2610 C   0  0  0  0  0  0  0  0  0  0  0  0
   37.9830   27.5880   43.6800 C   0  0  0  0  0  0  0  0  0  0  0  0
   36.5590   27.4050   43.3790 C   0  0  0  0  0  0  0  0  0  0  0  0
   38.2850   28.5460   44.1460 H   0  0  0  0  0  0  0  0  0  0  0  0
   38.6820   26.7690   43.8880 H   0  0  0  0  0  0  0  0  0  0  0  0
   36.1610   26.3580   43.5180 H   0  0  0  0  0  0  0  0  0  0  0  0
   35.8730   28.1390   43.8270 H   0  0  0  0  0  0  0  0  0  0  0  0
   37.8670   26.6490   41.3240 C   0  0  0  0  0  0  0  0  0  0  0  0
   37.3370   26.7820   39.9130 C   0  0  0  0  0  0  0  0  0  0  0  0
   37.9960   25.6590   39.1180 C   0  0  0  0  0  0  0  0  0  0  0  0
   37.4020   24.4650   39.5150 O   0  0  0  0  0  0  0  0  0  0  0  0
   37.9300   24.2530   40.8120 C   0  0  0  0  0  0  0  0  0  0  0  0
   37.3170   25.2840   41.7570 C   0  0  0  0  0  0  0  0  0  0  0  0
   38.9680   26.6290   41.3190 H   0  0  0  0  0  0  0  0  0  0  0  0
   36.2600   26.6360   39.8520 H   0  0  0  0  0  0  0  0  0  0  0  0
   37.6940   27.7300   39.4430 H   0  0  0  0  0  0  0  0  0  0  0  0
   37.9390   25.8290   38.0310 H   0  0  0  0  0  0  0  0  0  0  0  0
   39.0760   25.6730   39.4090 H   0  0  0  0  0  0  0  0  0  0  0  0
   39.0270   24.4460   40.8170 H   0  0  0  0  0  0  0  0  0  0  0  0
   37.7250   23.2210   41.1560 H   0  0  0  0  0  0  0  0  0  0  0  0
   37.5410   25.0400   42.7950 H   0  0  0  0  0  0  0  0  0  0  0  0
   36.2400   25.3140   41.5070 H   0  0  0  0  0  0  0  0  0  0  0  0
   36.1810   29.7720   41.5200 C   0  0  0  0  0  0  0  0  0  0  0  0
   37.4030   29.1250   41.6960 C   0  0  0  0  0  0  0  0  0  0  0  0
   38.5700   29.8210   41.3130 C   0  0  0  0  0  0  0  0  0  0  0  0
   38.4470   31.0640   40.8000 N   0  0  0  0  0  0  0  0  0  0  0  0
   37.2420   31.6310   40.6560 C   0  0  0  0  0  0  0  0  0  0  0  0
   36.1110   31.0170   41.0040 N   0  0  0  0  0  0  0  0  0  0  0  0
   37.0620   32.9410   40.1220 N   0  0  0  0  0  0  0  0  0  0  0  0
   35.3040   29.2140   41.8250 H   0  0  0  0  0  0  0  0  0  0  0  0
   37.1660   33.2010   39.1210 H   0  0  0  0  0  0  0  0  0  0  0  0
   36.8030   33.7910   40.6970 H   0  0  0  0  0  0  0  0  0  0  0  0
   39.9120   29.2600   41.4780 C   0  0  0  0  0  2  0  0  0  0  0  0
   40.6430   29.6450   42.6410 N   0  0  0  0  0  4  0  0  0  0  0  0
   40.0340   29.7650   43.4820 H   0  0  0  0  0  0  0  0  0  0  0  0
   41.5110   28.5070   43.0050 C   0  0  0  0  0  2  0  0  0  0  0  0
   41.8600   28.5740   44.0450 H   0  0  0  0  0  0  0  0  0  0  0  0
   41.4850   30.7850   42.5480 C   0  0  0  0  0  2  0  0  0  0  0  0
   42.3040   30.6520   43.3230 H   0  0  0  0  0  0  0  0  0  0  0  0
  1  3  1  0  0  0  0
  1  2  1  0  0  0  0
  2  5  1  0  0  0  0
  2  4  1  0  0  0  0
  3  6  1  0  0  0  0
  3  2  1  0  0  0  0
  3  7  1  0  0  0  0
  8 13  1  0  0  0  0
  8  1  1  0  0  0  0
  9  8  1  0  0  0  0
 10 18  1  0  0  0  0
 10 11  1  0  0  0  0
 10  9  1  0  0  0  0
 11 12  1  0  0  0  0
 12 19  1  0  0  0  0
 12 20  1  0  0  0  0
 12 13  1  0  0  0  0
 13 21  1  0  0  0  0
 14  8  1  0  0  0  0
 15  9  1  0  0  0  0
 16  9  1  0  0  0  0
 17 10  1  0  0  0  0
 22 13  1  0  0  0  0
 23 24  1  0  0  0  0
 23 30  1  0  0  0  0
 24  1  1  0  0  0  0
 25 33  1  0  0  0  0
 25 24  2  0  0  0  0
 26 25  1  0  0  0  0
 27 26  2  0  0  0  0
 27 28  1  0  0  0  0
 28 23  2  0  0  0  0
 29 27  1  0  0  0  0
 29 32  1  0  0  0  0
 31 29  1  0  0  0  0
 33 34  1  0  0  0  0
 34 36  1  0  0  0  0
 34 35  1  0  0  0  0
 36 37  1  0  0  0  0
 38 34  1  0  0  0  0
 38 39  1  0  0  0  0
M  END
>  <minimizedAffinity>
-5.0313797

$$$$

 OpenBabel03242516153D

 39 41  0  0  0  0  0  0  0  0999 V2000
   36.2880   29.0330   39.9490 C   0  0  0  0  0  0  0  0  0  0  0  0
   34.7900   29.2190   39.7080 C   0  0  0  0  0  0  0  0  0  0  0  0
   35.4920   27.9970   39.3010 C   0  0  0  0  0  0  0  0  0  0  0  0
   34.5540   29.9560   38.9150 H   0  0  0  0  0  0  0  0  0  0  0  0
   34.1230   29.2900   40.5750 H   0  0  0  0  0  0  0  0  0  0  0  0
   35.1950   27.0570   39.8520 H   0  0  0  0  0  0  0  0  0  0  0  0
   35.5450   27.8080   38.2200 H   0  0  0  0  0  0  0  0  0  0  0  0
   36.6530   28.8730   41.3970 C   0  0  0  0  0  0  0  0  0  0  0  0
   38.0130   29.4210   41.7700 C   0  0  0  0  0  0  0  0  0  0  0  0
   38.1170   29.2690   43.2840 C   0  0  0  0  0  0  0  0  0  0  0  0
   38.2920   27.9150   43.5540 O   0  0  0  0  0  0  0  0  0  0  0  0
   37.0140   27.3620   43.2940 C   0  0  0  0  0  0  0  0  0  0  0  0
   36.7740   27.3930   41.7860 C   0  0  0  0  0  0  0  0  0  0  0  0
   35.8680   29.3590   41.9970 H   0  0  0  0  0  0  0  0  0  0  0  0
   38.8310   28.8530   41.3280 H   0  0  0  0  0  0  0  0  0  0  0  0
   38.0650   30.5190   41.5750 H   0  0  0  0  0  0  0  0  0  0  0  0
   38.9130   29.9000   43.7120 H   0  0  0  0  0  0  0  0  0  0  0  0
   37.1400   29.6260   43.6940 H   0  0  0  0  0  0  0  0  0  0  0  0
   36.2200   28.0010   43.7440 H   0  0  0  0  0  0  0  0  0  0  0  0
   36.9430   26.3320   43.6910 H   0  0  0  0  0  0  0  0  0  0  0  0
   35.8950   26.8070   41.5220 H   0  0  0  0  0  0  0  0  0  0  0  0
   37.7200   27.0500   41.3270 H   0  0  0  0  0  0  0  0  0  0  0  0
   37.0480   31.2540   39.0890 C   0  0  0  0  0  0  0  0  0  0  0  0
   37.2120   29.8710   39.1220 C   0  0  0  0  0  0  0  0  0  0  0  0
   38.2560   29.3190   38.3470 C   0  0  0  0  0  0  0  0  0  0  0  0
   39.0340   30.1490   37.6200 N   0  0  0  0  0  0  0  0  0  0  0  0
   38.8240   31.4720   37.6310 C   0  0  0  0  0  0  0  0  0  0  0  0
   37.8540   32.0420   38.3460 N   0  0  0  0  0  0  0  0  0  0  0  0
   39.6220   32.3880   36.8830 N   0  0  0  0  0  0  0  0  0  0  0  0
   36.2410   31.6470   39.6940 H   0  0  0  0  0  0  0  0  0  0  0  0
   39.5810   32.5160   35.8520 H   0  0  0  0  0  0  0  0  0  0  0  0
   40.3430   33.0370   37.3050 H   0  0  0  0  0  0  0  0  0  0  0  0
   38.5470   27.8840   38.3240 C   0  0  0  0  0  2  0  0  0  0  0  0
   39.4830   27.3920   39.2820 N   0  0  0  0  0  4  0  0  0  0  0  0
   39.3440   27.8010   40.2340 H   0  0  0  0  0  0  0  0  0  0  0  0
   39.1910   25.9580   39.4780 C   0  0  0  0  0  2  0  0  0  0  0  0
   39.6280   25.5750   40.4110 H   0  0  0  0  0  0  0  0  0  0  0  0
   40.8650   27.4860   38.9670 C   0  0  0  0  0  2  0  0  0  0  0  0
   41.3890   26.6600   39.5420 H   0  0  0  0  0  0  0  0  0  0  0  0
  1  8  1  0  0  0  0
  2  1  1  0  0  0  0
  2  5  1  0  0  0  0
  3  2  1  0  0  0  0
  3  6  1  0  0  0  0
  3  1  1  0  0  0  0
  4  2  1  0  0  0  0
  7  3  1  0  0  0  0
  8  9  1  0  0  0  0
  8 13  1  0  0  0  0
  8 14  1  0  0  0  0
  9 10  1  0  0  0  0
 10 11  1  0  0  0  0
 10 18  1  0  0  0  0
 10 17  1  0  0  0  0
 12 11  1  0  0  0  0
 12 20  1  0  0  0  0
 12 19  1  0  0  0  0
 13 12  1  0  0  0  0
 15  9  1  0  0  0  0
 16  9  1  0  0  0  0
 21 13  1  0  0  0  0
 22 13  1  0  0  0  0
 23 24  1  0  0  0  0
 23 30  1  0  0  0  0
 24  1  1  0  0  0  0
 25 24  2  0  0  0  0
 26 27  2  0  0  0  0
 26 25  1  0  0  0  0
 27 28  1  0  0  0  0
 28 23  2  0  0  0  0
 29 32  1  0  0  0  0
 29 27  1  0  0  0  0
 31 29  1  0  0  0  0
 33 25  1  0  0  0  0
 33 34  1  0  0  0  0
 34 36  1  0  0  0  0
 34 35  1  0  0  0  0
 36 37  1  0  0  0  0
 38 34  1  0  0  0  0
 38 39  1  0  0  0  0
M  END
>  <minimizedAffinity>
-4.75430918

$$$$

 OpenBabel03242516153D

 39 41  0  0  0  0  0  0  0  0999 V2000
   36.1110   28.9620   38.6340 C   0  0  0  0  0  0  0  0  0  0  0  0
   34.6020   28.7200   38.6100 C   0  0  0  0  0  0  0  0  0  0  0  0
   35.3940   28.7840   37.3760 C   0  0  0  0  0  0  0  0  0  0  0  0
   34.0020   29.6130   38.8750 H   0  0  0  0  0  0  0  0  0  0  0  0
   34.2100   27.7940   39.0460 H   0  0  0  0  0  0  0  0  0  0  0  0
   35.4660   27.8220   36.7920 H   0  0  0  0  0  0  0  0  0  0  0  0
   35.1720   29.6260   36.7040 H   0  0  0  0  0  0  0  0  0  0  0  0
   36.9000   27.8120   39.1910 C   0  0  0  0  0  0  0  0  0  0  0  0
   38.4010   27.9600   39.0710 C   0  0  0  0  0  0  0  0  0  0  0  0
   38.9920   26.7600   39.8040 C   0  0  0  0  0  0  0  0  0  0  0  0
   38.7700   25.6380   39.0110 O   0  0  0  0  0  0  0  0  0  0  0  0
   37.3800   25.4090   39.1510 C   0  0  0  0  0  0  0  0  0  0  0  0
   36.6310   26.5170   38.4140 C   0  0  0  0  0  0  0  0  0  0  0  0
   36.6110   27.6870   40.2460 H   0  0  0  0  0  0  0  0  0  0  0  0
   38.7480   27.9150   38.0400 H   0  0  0  0  0  0  0  0  0  0  0  0
   38.7570   28.8570   39.6320 H   0  0  0  0  0  0  0  0  0  0  0  0
   40.0550   26.9070   40.0550 H   0  0  0  0  0  0  0  0  0  0  0  0
   38.4230   26.6780   40.7630 H   0  0  0  0  0  0  0  0  0  0  0  0
   37.0820   25.4960   40.2210 H   0  0  0  0  0  0  0  0  0  0  0  0
   37.1050   24.4100   38.7610 H   0  0  0  0  0  0  0  0  0  0  0  0
   35.5720   26.2790   38.3290 H   0  0  0  0  0  0  0  0  0  0  0  0
   37.1600   26.6430   37.4510 H   0  0  0  0  0  0  0  0  0  0  0  0
   36.9960   31.2260   38.0510 C   0  0  0  0  0  0  0  0  0  0  0  0
   36.5670   30.3320   39.0290 C   0  0  0  0  0  0  0  0  0  0  0  0
   36.5960   30.7700   40.3710 C   0  0  0  0  0  0  0  0  0  0  0  0
   37.0350   32.0190   40.6380 N   0  0  0  0  0  0  0  0  0  0  0  0
   37.4360   32.8310   39.6500 C   0  0  0  0  0  0  0  0  0  0  0  0
   37.4250   32.4660   38.3680 N   0  0  0  0  0  0  0  0  0  0  0  0
   37.9030   34.1580   39.8820 N   0  0  0  0  0  0  0  0  0  0  0  0
   36.9610   30.8620   37.0310 H   0  0  0  0  0  0  0  0  0  0  0  0
   38.8250   34.4060   40.2920 H   0  0  0  0  0  0  0  0  0  0  0  0
   37.3530   35.0340   39.6590 H   0  0  0  0  0  0  0  0  0  0  0  0
   36.1410   29.9340   41.4830 C   0  0  0  0  0  2  0  0  0  0  0  0
   37.0860   29.6420   42.5110 N   0  0  0  0  0  4  0  0  0  0  0  0
   36.8790   30.1410   43.4060 H   0  0  0  0  0  0  0  0  0  0  0  0
   36.9180   28.2180   42.8640 C   0  0  0  0  0  2  0  0  0  0  0  0
   37.3580   27.9850   43.8450 H   0  0  0  0  0  0  0  0  0  0  0  0
   38.4630   29.8280   42.2180 C   0  0  0  0  0  2  0  0  0  0  0  0
   39.0410   29.1260   42.8960 H   0  0  0  0  0  0  0  0  0  0  0  0
  1 24  1  0  0  0  0
  1  8  1  0  0  0  0
  2  1  1  0  0  0  0
  2  4  1  0  0  0  0
  2  5  1  0  0  0  0
  3  2  1  0  0  0  0
  3  1  1  0  0  0  0
  6  3  1  0  0  0  0
  7  3  1  0  0  0  0
  8 14  1  0  0  0  0
  9  8  1  0  0  0  0
  9 16  1  0  0  0  0
  9 10  1  0  0  0  0
 10 17  1  0  0  0  0
 10 18  1  0  0  0  0
 11 12  1  0  0  0  0
 11 10  1  0  0  0  0
 12 19  1  0  0  0  0
 13 12  1  0  0  0  0
 13  8  1  0  0  0  0
 15  9  1  0  0  0  0
 20 12  1  0  0  0  0
 21 13  1  0  0  0  0
 22 13  1  0  0  0  0
 23 28  2  0  0  0  0
 23 24  1  0  0  0  0
 24 25  2  0  0  0  0
 25 26  1  0  0  0  0
 25 33  1  0  0  0  0
 27 29  1  0  0  0  0
 27 26  2  0  0  0  0
 28 27  1  0  0  0  0
 29 31  1  0  0  0  0
 30 23  1  0  0  0  0
 32 29  1  0  0  0  0
 33 34  1  0  0  0  0
 34 36  1  0  0  0  0
 34 35  1  0  0  0  0
 36 37  1  0  0  0  0
 38 34  1  0  0  0  0
 38 39  1  0  0  0  0
M  END
>  <minimizedAffinity>
-4.67938137

$$$$

 OpenBabel03242516153D

 39 41  0  0  0  0  0  0  0  0999 V2000
   37.2520   29.9360   40.4990 C   0  0  0  0  0  0  0  0  0  0  0  0
   36.4920   31.2530   40.6610 C   0  0  0  0  0  0  0  0  0  0  0  0
   35.8790   30.0800   40.0270 C   0  0  0  0  0  0  0  0  0  0  0  0
   36.8520   32.0600   39.9930 H   0  0  0  0  0  0  0  0  0  0  0  0
   36.2570   31.6030   41.6720 H   0  0  0  0  0  0  0  0  0  0  0  0
   35.0160   29.6180   40.5880 H   0  0  0  0  0  0  0  0  0  0  0  0
   35.6340   30.1810   38.9600 H   0  0  0  0  0  0  0  0  0  0  0  0
   37.5050   29.2200   41.7940 C   0  0  0  0  0  0  0  0  0  0  0  0
   38.8420   28.5160   41.8750 C   0  0  0  0  0  0  0  0  0  0  0  0
   38.9370   27.9760   43.2990 C   0  0  0  0  0  0  0  0  0  0  0  0
   38.0620   26.8980   43.3930 O   0  0  0  0  0  0  0  0  0  0  0  0
   36.7850   27.5130   43.3990 C   0  0  0  0  0  0  0  0  0  0  0  0
   36.5110   28.0690   42.0040 C   0  0  0  0  0  0  0  0  0  0  0  0
   37.4100   29.9550   42.6080 H   0  0  0  0  0  0  0  0  0  0  0  0
   38.9120   27.6660   41.1990 H   0  0  0  0  0  0  0  0  0  0  0  0
   39.6810   29.2460   41.7760 H   0  0  0  0  0  0  0  0  0  0  0  0
   39.9710   27.7180   43.5780 H   0  0  0  0  0  0  0  0  0  0  0  0
   38.6020   28.8100   43.9640 H   0  0  0  0  0  0  0  0  0  0  0  0
   36.7860   28.3900   44.0860 H   0  0  0  0  0  0  0  0  0  0  0  0
   36.0030   26.7920   43.7050 H   0  0  0  0  0  0  0  0  0  0  0  0
   35.4710   28.3770   41.9070 H   0  0  0  0  0  0  0  0  0  0  0  0
   36.8320   27.2790   41.3000 H   0  0  0  0  0  0  0  0  0  0  0  0
   38.3690   28.9790   38.4780 C   0  0  0  0  0  0  0  0  0  0  0  0
   38.3700   29.9210   39.5040 C   0  0  0  0  0  0  0  0  0  0  0  0
   39.4540   30.8240   39.5590 C   0  0  0  0  0  0  0  0  0  0  0  0
   40.4270   30.7310   38.6270 N   0  0  0  0  0  0  0  0  0  0  0  0
   40.3670   29.8010   37.6650 C   0  0  0  0  0  0  0  0  0  0  0  0
   39.3650   28.9270   37.5680 N   0  0  0  0  0  0  0  0  0  0  0  0
   41.3680   29.6650   36.6570 N   0  0  0  0  0  0  0  0  0  0  0  0
   37.5240   28.3020   38.4600 H   0  0  0  0  0  0  0  0  0  0  0  0
   42.3190   29.2740   36.8050 H   0  0  0  0  0  0  0  0  0  0  0  0
   41.2430   29.9540   35.6470 H   0  0  0  0  0  0  0  0  0  0  0  0
   39.5510   31.8790   40.5710 C   0  0  0  0  0  2  0  0  0  0  0  0
   39.9270   33.1800   40.1250 N   0  0  0  0  0  4  0  0  0  0  0  0
   39.8790   33.2830   39.0850 H   0  0  0  0  0  0  0  0  0  0  0  0
   38.8960   34.1200   40.6100 C   0  0  0  0  0  2  0  0  0  0  0  0
   38.9170   35.0710   40.0580 H   0  0  0  0  0  0  0  0  0  0  0  0
   41.1800   33.6930   40.5550 C   0  0  0  0  0  2  0  0  0  0  0  0
   41.0950   34.8240   40.5390 H   0  0  0  0  0  0  0  0  0  0  0  0
  1  2  1  0  0  0  0
  1  8  1  0  0  0  0
  2  5  1  0  0  0  0
  3  1  1  0  0  0  0
  3  6  1  0  0  0  0
  3  2  1  0  0  0  0
  4  2  1  0  0  0  0
  7  3  1  0  0  0  0
  8  9  1  0  0  0  0
  8 13  1  0  0  0  0
  8 14  1  0  0  0  0
  9 10  1  0  0  0  0
 10 11  1  0  0  0  0
 10 17  1  0  0  0  0
 10 18  1  0  0  0  0
 11 12  1  0  0  0  0
 12 20  1  0  0  0  0
 12 19  1  0  0  0  0
 13 12  1  0  0  0  0
 15  9  1  0  0  0  0
 16  9  1  0  0  0  0
 21 13  1  0  0  0  0
 22 13  1  0  0  0  0
 23 24  1  0  0  0  0
 24 25  2  0  0  0  0
 24  1  1  0  0  0  0
 25 33  1  0  0  0  0
 26 25  1  0  0  0  0
 27 26  2  0  0  0  0
 28 27  1  0  0  0  0
 28 23  2  0  0  0  0
 29 31  1  0  0  0  0
 29 27  1  0  0  0  0
 30 23  1  0  0  0  0
 32 29  1  0  0  0  0
 34 38  1  0  0  0  0
 34 33  1  0  0  0  0
 34 36  1  0  0  0  0
 35 34  1  0  0  0  0
 37 36  1  0  0  0  0
 39 38  1  0  0  0  0
M  END
>  <minimizedAffinity>
-4.63853359

$$$$

 OpenBabel03242516153D

 39 41  0  0  0  0  0  0  0  0999 V2000
   36.5370   28.8660   40.1950 C   0  0  0  0  0  0  0  0  0  0  0  0
   35.0340   29.1410   40.2180 C   0  0  0  0  0  0  0  0  0  0  0  0
   35.9580   29.8220   41.1320 C   0  0  0  0  0  0  0  0  0  0  0  0
   34.4340   28.3070   40.6310 H   0  0  0  0  0  0  0  0  0  0  0  0
   34.5720   29.6110   39.3420 H   0  0  0  0  0  0  0  0  0  0  0  0
   36.0670   30.9340   40.9770 H   0  0  0  0  0  0  0  0  0  0  0  0
   35.8340   29.5940   42.2010 H   0  0  0  0  0  0  0  0  0  0  0  0
   37.2290   29.3800   38.9650 C   0  0  0  0  0  0  0  0  0  0  0  0
   37.8710   30.7410   39.1250 C   0  0  0  0  0  0  0  0  0  0  0  0
   38.6110   31.0020   37.8170 C   0  0  0  0  0  0  0  0  0  0  0  0
   37.6530   31.2710   36.8440 O   0  0  0  0  0  0  0  0  0  0  0  0
   37.0700   30.0040   36.6000 C   0  0  0  0  0  0  0  0  0  0  0  0
   36.2360   29.6140   37.8190 C   0  0  0  0  0  0  0  0  0  0  0  0
   37.9820   28.6340   38.6680 H   0  0  0  0  0  0  0  0  0  0  0  0
   37.1410   31.5390   39.2510 H   0  0  0  0  0  0  0  0  0  0  0  0
   38.6600   30.7170   39.9150 H   0  0  0  0  0  0  0  0  0  0  0  0
   39.3620   31.8020   37.9160 H   0  0  0  0  0  0  0  0  0  0  0  0
   39.1530   30.0530   37.5790 H   0  0  0  0  0  0  0  0  0  0  0  0
   37.8630   29.2270   36.5100 H   0  0  0  0  0  0  0  0  0  0  0  0
   36.4530   30.0250   35.6810 H   0  0  0  0  0  0  0  0  0  0  0  0
   35.6170   28.7450   37.6020 H   0  0  0  0  0  0  0  0  0  0  0  0
   35.6790   30.5260   38.1010 H   0  0  0  0  0  0  0  0  0  0  0  0
   36.5890   26.3730   40.0280 C   0  0  0  0  0  0  0  0  0  0  0  0
   36.9850   27.5290   40.6970 C   0  0  0  0  0  0  0  0  0  0  0  0
   37.7940   27.3740   41.8440 C   0  0  0  0  0  0  0  0  0  0  0  0
   38.1400   26.1280   42.2330 N   0  0  0  0  0  0  0  0  0  0  0  0
   37.7260   25.0550   41.5450 C   0  0  0  0  0  0  0  0  0  0  0  0
   36.9620   25.1480   40.4560 N   0  0  0  0  0  0  0  0  0  0  0  0
   38.0680   23.7210   41.9150 N   0  0  0  0  0  0  0  0  0  0  0  0
   35.9710   26.5230   39.1520 H   0  0  0  0  0  0  0  0  0  0  0  0
   37.6710   23.2020   42.7230 H   0  0  0  0  0  0  0  0  0  0  0  0
   38.7680   23.1180   41.3990 H   0  0  0  0  0  0  0  0  0  0  0  0
   38.2990   28.5140   42.6120 C   0  0  0  0  0  2  0  0  0  0  0  0
   39.5340   29.0900   42.1910 N   0  0  0  0  0  4  0  0  0  0  0  0
   39.6550   29.0770   41.1530 H   0  0  0  0  0  0  0  0  0  0  0  0
   39.4720   30.5310   42.5110 C   0  0  0  0  0  2  0  0  0  0  0  0
   40.2180   31.1080   41.9450 H   0  0  0  0  0  0  0  0  0  0  0  0
   40.7300   28.5950   42.7750 C   0  0  0  0  0  2  0  0  0  0  0  0
   41.4930   29.4330   42.7220 H   0  0  0  0  0  0  0  0  0  0  0  0
  1  2  1  0  0  0  0
  1 24  1  0  0  0  0
  1  3  1  0  0  0  0
  2  4  1  0  0  0  0
  2  3  1  0  0  0  0
  3  7  1  0  0  0  0
  5  2  1  0  0  0  0
  6  3  1  0  0  0  0
  8  9  1  0  0  0  0
  8  1  1  0  0  0  0
  9 15  1  0  0  0  0
  9 16  1  0  0  0  0
 10 17  1  0  0  0  0
 10  9  1  0  0  0  0
 11 10  1  0  0  0  0
 12 11  1  0  0  0  0
 12 13  1  0  0  0  0
 13 22  1  0  0  0  0
 13  8  1  0  0  0  0
 14  8  1  0  0  0  0
 18 10  1  0  0  0  0
 19 12  1  0  0  0  0
 20 12  1  0  0  0  0
 21 13  1  0  0  0  0
 23 28  2  0  0  0  0
 23 24  1  0  0  0  0
 24 25  2  0  0  0  0
 25 26  1  0  0  0  0
 25 33  1  0  0  0  0
 27 29  1  0  0  0  0
 27 26  2  0  0  0  0
 28 27  1  0  0  0  0
 29 31  1  0  0  0  0
 30 23  1  0  0  0  0
 32 29  1  0  0  0  0
 34 36  1  0  0  0  0
 34 33  1  0  0  0  0
 34 38  1  0  0  0  0
 35 34  1  0  0  0  0
 37 36  1  0  0  0  0
 39 38  1  0  0  0  0
M  END
>  <minimizedAffinity>
-4.58360291

$$$$

 OpenBabel03242516153D

 39 41  0  0  0  0  0  0  0  0999 V2000
   35.6970   29.0320   39.1540 C   0  0  0  0  0  0  0  0  0  0  0  0
   34.3960   28.8730   38.3680 C   0  0  0  0  0  0  0  0  0  0  0  0
   34.3990   29.1770   39.8030 C   0  0  0  0  0  0  0  0  0  0  0  0
   34.1790   27.8270   38.0710 H   0  0  0  0  0  0  0  0  0  0  0  0
   34.1640   29.6000   37.5810 H   0  0  0  0  0  0  0  0  0  0  0  0
   33.9970   30.1920   40.0870 H   0  0  0  0  0  0  0  0  0  0  0  0
   33.9830   28.4010   40.4620 H   0  0  0  0  0  0  0  0  0  0  0  0
   36.4740   30.2670   38.7960 C   0  0  0  0  0  0  0  0  0  0  0  0
   37.9330   30.0240   38.4770 C   0  0  0  0  0  0  0  0  0  0  0  0
   38.4850   31.3710   38.0230 C   0  0  0  0  0  0  0  0  0  0  0  0
   38.5890   32.1780   39.1520 O   0  0  0  0  0  0  0  0  0  0  0  0
   37.2420   32.5010   39.4490 C   0  0  0  0  0  0  0  0  0  0  0  0
   36.5510   31.2450   39.9750 C   0  0  0  0  0  0  0  0  0  0  0  0
   35.9700   30.7430   37.9410 H   0  0  0  0  0  0  0  0  0  0  0  0
   38.5080   29.7120   39.3470 H   0  0  0  0  0  0  0  0  0  0  0  0
   38.0390   29.3460   37.5960 H   0  0  0  0  0  0  0  0  0  0  0  0
   39.4360   31.2690   37.4770 H   0  0  0  0  0  0  0  0  0  0  0  0
   37.7270   31.7880   37.3140 H   0  0  0  0  0  0  0  0  0  0  0  0
   36.7000   32.7820   38.5170 H   0  0  0  0  0  0  0  0  0  0  0  0
   37.1880   33.3270   40.1840 H   0  0  0  0  0  0  0  0  0  0  0  0
   35.5760   31.4870   40.3970 H   0  0  0  0  0  0  0  0  0  0  0  0
   37.2660   30.7870   40.6840 H   0  0  0  0  0  0  0  0  0  0  0  0
   36.8930   27.0080   38.3070 C   0  0  0  0  0  0  0  0  0  0  0  0
   36.4980   27.7900   39.3900 C   0  0  0  0  0  0  0  0  0  0  0  0
   36.8730   27.3550   40.6800 C   0  0  0  0  0  0  0  0  0  0  0  0
   37.5850   26.2150   40.8010 N   0  0  0  0  0  0  0  0  0  0  0  0
   37.9340   25.5060   39.7180 C   0  0  0  0  0  0  0  0  0  0  0  0
   37.6070   25.8750   38.4790 N   0  0  0  0  0  0  0  0  0  0  0  0
   38.6890   24.2980   39.7950 N   0  0  0  0  0  0  0  0  0  0  0  0
   36.5940   27.3670   37.3310 H   0  0  0  0  0  0  0  0  0  0  0  0
   38.3230   23.3820   40.1230 H   0  0  0  0  0  0  0  0  0  0  0  0
   39.7080   24.2110   39.5230 H   0  0  0  0  0  0  0  0  0  0  0  0
   36.5440   28.1080   41.8920 C   0  0  0  0  0  2  0  0  0  0  0  0
   37.6250   28.7120   42.5990 N   0  0  0  0  0  4  0  0  0  0  0  0
   37.3410   29.5760   43.1150 H   0  0  0  0  0  0  0  0  0  0  0  0
   38.0130   27.7810   43.6780 C   0  0  0  0  0  2  0  0  0  0  0  0
   38.5990   28.2820   44.4610 H   0  0  0  0  0  0  0  0  0  0  0  0
   38.8090   29.0080   41.8740 C   0  0  0  0  0  2  0  0  0  0  0  0
   39.6630   29.0020   42.6210 H   0  0  0  0  0  0  0  0  0  0  0  0
  1 24  1  0  0  0  0
  1  3  1  0  0  0  0
  2  1  1  0  0  0  0
  2  3  1  0  0  0  0
  3  6  1  0  0  0  0
  3  7  1  0  0  0  0
  4  2  1  0  0  0  0
  5  2  1  0  0  0  0
  8  1  1  0  0  0  0
  8 13  1  0  0  0  0
  9  8  1  0  0  0  0
  9 15  1  0  0  0  0
 10  9  1  0  0  0  0
 10 11  1  0  0  0  0
 11 12  1  0  0  0  0
 12 13  1  0  0  0  0
 12 20  1  0  0  0  0
 13 21  1  0  0  0  0
 13 22  1  0  0  0  0
 14  8  1  0  0  0  0
 16  9  1  0  0  0  0
 17 10  1  0  0  0  0
 18 10  1  0  0  0  0
 19 12  1  0  0  0  0
 23 28  2  0  0  0  0
 23 24  1  0  0  0  0
 24 25  2  0  0  0  0
 25 26  1  0  0  0  0
 25 33  1  0  0  0  0
 27 29  1  0  0  0  0
 27 26  2  0  0  0  0
 28 27  1  0  0  0  0
 29 31  1  0  0  0  0
 30 23  1  0  0  0  0
 32 29  1  0  0  0  0
 33 34  1  0  0  0  0
 34 35  1  0  0  0  0
 34 36  1  0  0  0  0
 36 37  1  0  0  0  0
 38 34  1  0  0  0  0
 38 39  1  0  0  0  0
M  END
>  <minimizedAffinity>
-4.48944807

$$$$

 OpenBabel03242516153D

 39 41  0  0  0  0  0  0  0  0999 V2000
   37.3380   27.7160   42.2300 C   0  0  0  0  0  0  0  0  0  0  0  0
   36.9020   27.9290   43.6800 C   0  0  0  0  0  0  0  0  0  0  0  0
   38.1960   28.4100   43.1830 C   0  0  0  0  0  0  0  0  0  0  0  0
   36.9050   27.0020   44.2870 H   0  0  0  0  0  0  0  0  0  0  0  0
   36.0380   28.5720   43.8800 H   0  0  0  0  0  0  0  0  0  0  0  0
   38.3190   29.5320   43.1510 H   0  0  0  0  0  0  0  0  0  0  0  0
   39.0870   27.9380   43.6220 H   0  0  0  0  0  0  0  0  0  0  0  0
   36.5510   28.5230   41.2370 C   0  0  0  0  0  0  0  0  0  0  0  0
   36.1960   27.7840   39.9650 C   0  0  0  0  0  0  0  0  0  0  0  0
   35.3040   28.7350   39.1730 C   0  0  0  0  0  0  0  0  0  0  0  0
   36.1170   29.7490   38.6750 O   0  0  0  0  0  0  0  0  0  0  0  0
   36.4170   30.5210   39.8240 C   0  0  0  0  0  0  0  0  0  0  0  0
   37.3620   29.7150   40.7130 C   0  0  0  0  0  0  0  0  0  0  0  0
   35.6390   28.8780   41.7410 H   0  0  0  0  0  0  0  0  0  0  0  0
   37.0660   27.5640   39.3480 H   0  0  0  0  0  0  0  0  0  0  0  0
   35.5600   26.8940   40.1870 H   0  0  0  0  0  0  0  0  0  0  0  0
   34.7340   28.2140   38.3870 H   0  0  0  0  0  0  0  0  0  0  0  0
   34.5700   29.1490   39.9090 H   0  0  0  0  0  0  0  0  0  0  0  0
   35.4950   30.6870   40.4270 H   0  0  0  0  0  0  0  0  0  0  0  0
   36.8650   31.4930   39.5390 H   0  0  0  0  0  0  0  0  0  0  0  0
   37.7720   30.3380   41.5070 H   0  0  0  0  0  0  0  0  0  0  0  0
   38.1120   29.2760   40.0280 H   0  0  0  0  0  0  0  0  0  0  0  0
   36.8160   25.2730   42.1660 C   0  0  0  0  0  0  0  0  0  0  0  0
   37.6750   26.3150   41.8270 C   0  0  0  0  0  0  0  0  0  0  0  0
   38.8500   25.9860   41.1160 C   0  0  0  0  0  0  0  0  0  0  0  0
   39.0820   24.6930   40.8050 N   0  0  0  0  0  0  0  0  0  0  0  0
   38.2140   23.7360   41.1610 C   0  0  0  0  0  0  0  0  0  0  0  0
   37.0910   23.9940   41.8300 N   0  0  0  0  0  0  0  0  0  0  0  0
   38.4130   22.3580   40.8510 N   0  0  0  0  0  0  0  0  0  0  0  0
   35.9220   25.5550   42.7090 H   0  0  0  0  0  0  0  0  0  0  0  0
   39.1020   21.7320   41.3140 H   0  0  0  0  0  0  0  0  0  0  0  0
   37.8750   21.8270   40.1110 H   0  0  0  0  0  0  0  0  0  0  0  0
   39.8150   26.9970   40.6770 C   0  0  0  0  0  2  0  0  0  0  0  0
   41.1740   26.8170   41.0690 N   0  0  0  0  0  4  0  0  0  0  0  0
   41.4000   25.8250   41.3070 H   0  0  0  0  0  0  0  0  0  0  0  0
   42.0080   27.0840   39.8800 C   0  0  0  0  0  2  0  0  0  0  0  0
   43.0190   26.6640   39.9860 H   0  0  0  0  0  0  0  0  0  0  0  0
   41.6780   27.6400   42.1120 C   0  0  0  0  0  2  0  0  0  0  0  0
   42.7980   27.7200   41.9550 H   0  0  0  0  0  0  0  0  0  0  0  0
  1  3  1  0  0  0  0
  1  2  1  0  0  0  0
  2  5  1  0  0  0  0
  2  4  1  0  0  0  0
  3  7  1  0  0  0  0
  3  2  1  0  0  0  0
  6  3  1  0  0  0  0
  8 14  1  0  0  0  0
  8  1  1  0  0  0  0
  9 16  1  0  0  0  0
  9  8  1  0  0  0  0
 10 18  1  0  0  0  0
 10  9  1  0  0  0  0
 11 10  1  0  0  0  0
 11 12  1  0  0  0  0
 12 19  1  0  0  0  0
 12 13  1  0  0  0  0
 13  8  1  0  0  0  0
 13 21  1  0  0  0  0
 15  9  1  0  0  0  0
 17 10  1  0  0  0  0
 20 12  1  0  0  0  0
 22 13  1  0  0  0  0
 23 30  1  0  0  0  0
 24 23  2  0  0  0  0
 24  1  1  0  0  0  0
 25 24  1  0  0  0  0
 26 25  2  0  0  0  0
 26 27  1  0  0  0  0
 27 28  2  0  0  0  0
 28 23  1  0  0  0  0
 29 27  1  0  0  0  0
 29 31  1  0  0  0  0
 32 29  1  0  0  0  0
 33 34  1  0  0  0  0
 33 25  1  0  0  0  0
 34 35  1  0  0  0  0
 34 38  1  0  0  0  0
 36 37  1  0  0  0  0
 36 34  1  0  0  0  0
 39 38  1  0  0  0  0
M  END
>  <minimizedAffinity>
-4.47538996

$$$$
