
 OpenBabel03242516043D

 34 36  0  0  0  0  0  0  0  0999 V2000
   45.2260   33.0410   41.0660 Cl  0  0  0  0  0  0  0  0  0  0  0  0
   46.6540   34.0300   40.9490 C   0  0  0  0  0  0  0  0  0  0  0  0
   47.0530   34.8470   41.9710 C   0  0  0  0  0  0  0  0  0  0  0  0
   48.1860   35.5780   41.7570 C   0  0  0  0  0  0  0  0  0  0  0  0
   48.8940   35.5190   40.6130 C   0  0  0  0  0  0  0  0  0  0  0  0
   48.4990   34.7040   39.5870 C   0  0  0  0  0  0  0  0  0  0  0  0
   47.3440   33.9400   39.7690 C   0  0  0  0  0  0  0  0  0  0  0  0
   48.5340   36.2370   42.5400 H   0  0  0  0  0  0  0  0  0  0  0  0
   49.7910   36.1080   40.4620 H   0  0  0  0  0  0  0  0  0  0  0  0
   49.0870   34.6710   38.6710 H   0  0  0  0  0  0  0  0  0  0  0  0
   44.5030   35.8050   44.6070 C   0  0  0  0  0  0  0  0  0  0  0  0
   45.2590   35.8070   43.4280 C   0  0  0  0  0  0  0  0  0  0  0  0
   46.2580   34.8720   43.1740 C   0  0  0  0  0  0  0  0  0  0  0  0
   46.4290   33.9620   44.1710 N   0  0  0  0  0  0  0  0  0  0  0  0
   45.7140   33.9510   45.2990 C   0  0  0  0  0  0  0  0  0  0  0  0
   44.7570   34.8670   45.5140 N   0  0  0  0  0  0  0  0  0  0  0  0
   43.7630   36.5850   44.6750 H   0  0  0  0  0  0  0  0  0  0  0  0
   45.1050   36.5430   42.6450 H   0  0  0  0  0  0  0  0  0  0  0  0
   45.8880   33.2020   46.0690 H   0  0  0  0  0  0  0  0  0  0  0  0
   46.9010   33.0550   38.6710 C   0  0  0  0  0  0  0  0  0  0  0  0
   47.1530   31.6810   38.6600 C   0  0  0  0  0  0  0  0  0  0  0  0
   46.3930   31.1270   37.1020 S   0  0  0  0  0  0  0  0  0  0  0  0
   45.8340   32.9150   36.6960 C   0  0  0  0  0  0  0  0  0  0  0  0
   46.2360   33.4300   37.5990 N   0  0  0  0  0  0  0  0  0  0  0  0
   45.1160   33.3240   35.5290 N   0  0  0  0  0  0  0  0  0  0  0  0
   44.1840   32.9640   35.2260 H   0  0  0  0  0  0  0  0  0  0  0  0
   45.6360   34.0610   34.9670 H   0  0  0  0  0  0  0  0  0  0  0  0
   47.8440   30.7640   39.5630 C   0  0  0  0  0  2  0  0  0  0  0  0
   49.1620   30.4380   39.0690 N   0  0  0  0  0  4  0  0  0  0  0  0
   49.7410   30.2570   39.9430 H   0  0  0  0  0  0  0  0  0  0  0  0
   49.8160   31.5060   38.3790 C   0  0  0  0  0  2  0  0  0  0  0  0
   49.2580   32.4470   38.4300 H   0  0  0  0  0  0  0  0  0  0  0  0
   49.1950   29.1990   38.3290 C   0  0  0  0  0  2  0  0  0  0  0  0
   48.3120   29.0700   37.6690 H   0  0  0  0  0  0  0  0  0  0  0  0
  2  1  1  0  0  0  0
  2  3  1  0  0  0  0
  3 13  1  0  0  0  0
  4  3  2  0  0  0  0
  4  8  1  0  0  0  0
  5  4  1  0  0  0  0
  6  7  1  0  0  0  0
  6  5  2  0  0  0  0
  7  2  2  0  0  0  0
  9  5  1  0  0  0  0
 10  6  1  0  0  0  0
 11 17  1  0  0  0  0
 11 16  1  0  0  0  0
 12 11  2  0  0  0  0
 13 12  1  0  0  0  0
 13 14  2  0  0  0  0
 14 15  1  0  0  0  0
 15 16  2  0  0  0  0
 15 19  1  0  0  0  0
 18 12  1  0  0  0  0
 20  7  1  0  0  0  0
 21 20  2  0  0  0  0
 21 28  1  0  0  0  0
 22 21  1  0  0  0  0
 23 22  1  0  0  0  0
 23 24  2  0  0  0  0
 24 20  1  0  0  0  0
 25 23  1  0  0  0  0
 26 25  1  0  0  0  0
 27 25  1  0  0  0  0
 29 28  1  0  0  0  0
 29 30  1  0  0  0  0
 31 32  1  0  0  0  0
 31 29  1  0  0  0  0
 33 29  1  0  0  0  0
 34 33  1  0  0  0  0
M  END
>  <minimizedAffinity>
-5.66930151

>  <minimizedRMSD>
0.485058367

$$$$
