
 OpenBabel03252500253D

 35 36  0  0  1  0  0  0  0  0999 V2000
   46.9050   30.2260   48.2000 C   0  0  2  0  0  0  0  0  0  0  0  0
   45.4460   30.4760   48.2480 C   0  0  2  0  0  0  0  0  0  0  0  0
   44.8970   29.5890   47.1920 C   0  0  0  0  0  0  0  0  0  0  0  0
   45.7320   28.4940   47.0880 O   0  0  0  0  0  0  0  0  0  0  0  0
   46.8450   28.7190   47.8300 C   0  0  0  0  0  0  0  0  0  0  0  0
   47.5760   30.5870   47.4760 H   0  0  0  0  0  0  0  0  0  0  0  0
   45.1310   30.0960   49.2580 H   0  0  0  0  0  0  0  0  0  0  0  0
   43.9400   29.1400   47.6010 H   0  0  0  0  0  0  0  0  0  0  0  0
   44.5540   30.0390   46.2610 H   0  0  0  0  0  0  0  0  0  0  0  0
   46.7590   28.2290   48.8400 H   0  0  0  0  0  0  0  0  0  0  0  0
   47.7650   28.3630   47.3750 H   0  0  0  0  0  0  0  0  0  0  0  0
   45.1130   31.7980   48.0620 O   0  0  0  0  0  0  0  0  0  0  0  0
   47.3320   32.8910   47.3630 O   0  0  0  0  0  0  0  0  0  0  0  0
   46.0020   32.4480   46.8190 P   0  0  1  0  0  0  0  0  0  0  0  0
   46.2700   31.2630   45.6380 O   0  0  0  0  0  0  0  0  0  0  0  0
   45.7990   31.4700   44.8120 H   0  0  0  0  0  0  0  0  0  0  0  0
   45.2670   33.8390   46.1470 O   0  0  0  0  0  0  0  0  0  0  0  0
   45.2220   35.9250   43.2440 C   0  0  0  0  0  0  0  0  0  0  0  0
   46.2690   35.4090   42.4290 C   0  0  0  0  0  0  0  0  0  0  0  0
   46.9830   34.3120   42.9350 C   0  0  0  0  0  0  0  0  0  0  0  0
   46.6410   33.8200   44.1430 N   0  0  0  0  0  0  0  0  0  0  0  0
   45.6400   34.3360   44.8870 C   0  0  0  0  0  0  0  0  0  0  0  0
   44.9360   35.3890   44.4300 N   0  0  0  0  0  0  0  0  0  0  0  0
   46.5170   35.8270   41.4680 H   0  0  0  0  0  0  0  0  0  0  0  0
   47.7970   33.8580   42.3770 H   0  0  0  0  0  0  0  0  0  0  0  0
   44.5270   36.9980   42.7480 O   0  0  0  0  0  0  0  0  0  0  0  0
   44.9830   37.8810   42.6200 H   0  0  0  0  0  0  0  0  0  0  0  0
   47.5700   30.4140   49.3750 O   0  0  0  0  0  0  0  0  0  0  0  0
   48.8570   30.6450   49.5020 C   0  0  0  0  0  2  0  0  0  0  0  0
   49.5990   29.4700   50.0080 N   0  0  0  0  0  4  0  0  0  0  0  0
   48.9840   28.6700   50.1800 H   0  0  0  0  0  0  0  0  0  0  0  0
   50.5720   29.0480   48.9870 C   0  0  0  0  0  2  0  0  0  0  0  0
   50.1120   29.3690   48.0090 H   0  0  0  0  0  0  0  0  0  0  0  0
   50.3800   29.7820   51.1760 C   0  0  0  0  0  2  0  0  0  0  0  0
   49.8530   29.6940   52.1270 H   0  0  0  0  0  0  0  0  0  0  0  0
  1  6  1  6  0  0  0
  1  2  1  0  0  0  0
  1 28  1  0  0  0  0
  2  7  1  1  0  0  0
  3  8  1  0  0  0  0
  3  2  1  0  0  0  0
  4  3  1  0  0  0  0
  4  5  1  0  0  0  0
  5  1  1  0  0  0  0
  5 10  1  0  0  0  0
  9  3  1  0  0  0  0
 11  5  1  0  0  0  0
 12  2  1  0  0  0  0
 14 13  2  1  0  0  0
 14 12  1  0  0  0  0
 15 14  1  0  0  0  0
 16 15  1  0  0  0  0
 17 14  1  0  0  0  0
 18 23  1  0  0  0  0
 19 20  1  0  0  0  0
 19 18  2  0  0  0  0
 20 21  2  0  0  0  0
 21 22  1  0  0  0  0
 22 17  1  0  0  0  0
 23 22  2  0  0  0  0
 24 19  1  0  0  0  0
 25 20  1  0  0  0  0
 26 18  1  0  0  0  0
 27 26  1  0  0  0  0
 28 29  1  0  0  0  0
 29 30  1  0  0  0  0
 30 31  1  0  0  0  0
 30 34  1  0  0  0  0
 32 30  1  0  0  0  0
 33 32  1  0  0  0  0
 34 35  1  0  0  0  0
M  END
>  <minimizedAffinity>
-4.72855043

>  <minimizedRMSD>
0.423637778

$$$$
