
 OpenBabel03252507513D

 29 30  0  0  1  0  0  0  0  0999 V2000
   47.1520   34.6940   42.1340 C   0  0  2  0  0  0  0  0  0  0  0  0
   46.4970   34.3690   40.8350 C   0  0  0  0  0  0  0  0  0  0  0  0
   47.7210   34.0220   39.9970 C   0  0  0  0  0  0  0  0  0  0  0  0
   48.7120   33.4070   40.9740 C   0  0  1  0  0  0  0  0  0  0  0  0
   48.0290   33.4470   42.3240 C   0  0  0  0  0  0  0  0  0  0  0  0
   47.8280   35.5610   42.0180 H   0  0  0  0  0  0  0  0  0  0  0  0
   45.7970   33.5370   40.9020 H   0  0  0  0  0  0  0  0  0  0  0  0
   46.0700   35.3010   40.4170 H   0  0  0  0  0  0  0  0  0  0  0  0
   47.3640   33.2850   39.2470 H   0  0  0  0  0  0  0  0  0  0  0  0
   48.1300   34.9050   39.4700 H   0  0  0  0  0  0  0  0  0  0  0  0
   49.5780   34.0600   41.0140 H   0  0  0  0  0  0  0  0  0  0  0  0
   48.7620   33.7110   43.1110 H   0  0  0  0  0  0  0  0  0  0  0  0
   47.3920   32.5860   42.5410 H   0  0  0  0  0  0  0  0  0  0  0  0
   44.5140   35.9960   44.4970 C   0  0  0  0  0  0  0  0  0  0  0  0
   45.3140   35.9280   43.3620 C   0  0  0  0  0  0  0  0  0  0  0  0
   46.2420   34.8970   43.2800 C   0  0  0  0  0  0  0  0  0  0  0  0
   46.3140   34.0110   44.3180 N   0  0  0  0  0  0  0  0  0  0  0  0
   45.5290   34.0950   45.4090 C   0  0  0  0  0  0  0  0  0  0  0  0
   44.6280   35.0850   45.5030 N   0  0  0  0  0  0  0  0  0  0  0  0
   43.7740   36.7920   44.5960 H   0  0  0  0  0  0  0  0  0  0  0  0
   45.2490   36.6250   42.5600 H   0  0  0  0  0  0  0  0  0  0  0  0
   45.6230   33.3720   46.2040 H   0  0  0  0  0  0  0  0  0  0  0  0
   48.9520   32.0020   40.5460 C   0  0  0  0  0  2  0  0  0  0  0  0
   50.1770   31.4110   40.9740 N   0  0  0  0  0  4  0  0  0  0  0  0
   50.6000   30.9610   40.1070 H   0  0  0  0  0  0  0  0  0  0  0  0
   51.1590   32.3450   41.4460 C   0  0  0  0  0  2  0  0  0  0  0  0
   51.4130   32.0850   42.5110 H   0  0  0  0  0  0  0  0  0  0  0  0
   49.9890   30.2840   41.8870 C   0  0  0  0  0  2  0  0  0  0  0  0
   50.8660   29.5840   41.7630 H   0  0  0  0  0  0  0  0  0  0  0  0
  1  6  1  6  0  0  0
  1  5  1  0  0  0  0
  1 16  1  0  0  0  0
  2  7  1  0  0  0  0
  2  1  1  0  0  0  0
  3  2  1  0  0  0  0
  3  4  1  0  0  0  0
  4 11  1  1  0  0  0
  4  5  1  0  0  0  0
  5 13  1  0  0  0  0
  5 12  1  0  0  0  0
  8  2  1  0  0  0  0
  9  3  1  0  0  0  0
 10  3  1  0  0  0  0
 14 20  1  0  0  0  0
 14 19  1  0  0  0  0
 15 14  2  0  0  0  0
 16 15  1  0  0  0  0
 16 17  2  0  0  0  0
 17 18  1  0  0  0  0
 18 19  2  0  0  0  0
 18 22  1  0  0  0  0
 21 15  1  0  0  0  0
 23  4  1  0  0  0  0
 23 24  1  0  0  0  0
 24 26  1  0  0  0  0
 24 28  1  0  0  0  0
 25 24  1  0  0  0  0
 26 27  1  0  0  0  0
 29 28  1  0  0  0  0
M  END
>  <minimizedAffinity>
-4.18206263

>  <minimizedRMSD>
1.48185539

$$$$
