
 OpenBabel03252502103D

 46 49  0  0  0  0  0  0  0  0999 V2000
   37.4380   32.2350   40.1700 C   0  0  0  0  0  0  0  0  0  0  0  0
   37.1470   31.1070   40.9480 C   0  0  0  0  0  0  0  0  0  0  0  0
   38.2020   30.4250   41.4540 C   0  0  0  0  0  0  0  0  0  0  0  0
   39.4540   30.8410   41.2080 N   0  0  0  0  0  0  0  0  0  0  0  0
   39.7520   31.8980   40.4840 C   0  0  0  0  0  0  0  0  0  0  0  0
   38.7140   32.5930   39.9640 N   0  0  0  0  0  0  0  0  0  0  0  0
   37.9990   29.2930   42.2090 N   0  0  0  0  0  0  0  0  0  0  0  0
   39.0810   28.3700   42.6610 C   0  0  0  0  0  0  0  0  0  0  0  0
   38.4500   27.4660   43.6780 C   0  0  0  0  0  0  0  0  0  0  0  0
   37.0200   27.4390   43.2620 C   0  0  0  0  0  0  0  0  0  0  0  0
   36.7450   28.7870   42.6850 C   0  0  0  0  0  0  0  0  0  0  0  0
   36.6180   32.8210   39.7340 H   0  0  0  0  0  0  0  0  0  0  0  0
   39.9130   28.9050   43.1130 H   0  0  0  0  0  0  0  0  0  0  0  0
   39.3810   27.8170   41.7290 H   0  0  0  0  0  0  0  0  0  0  0  0
   38.8530   26.4170   43.6060 H   0  0  0  0  0  0  0  0  0  0  0  0
   38.5360   27.8780   44.6860 H   0  0  0  0  0  0  0  0  0  0  0  0
   36.8400   26.5910   42.5490 H   0  0  0  0  0  0  0  0  0  0  0  0
   36.3420   27.2390   44.1230 H   0  0  0  0  0  0  0  0  0  0  0  0
   36.0780   28.5740   41.8240 H   0  0  0  0  0  0  0  0  0  0  0  0
   36.3050   29.4030   43.4780 H   0  0  0  0  0  0  0  0  0  0  0  0
   41.0450   32.5300   40.1300 C   0  0  0  0  0  0  0  0  0  0  0  0
   41.5630   33.5840   40.7750 N   0  0  0  0  0  0  0  0  0  0  0  0
   42.7240   34.1610   40.4770 C   0  0  0  0  0  0  0  0  0  0  0  0
   43.4780   33.6870   39.4570 N   0  0  0  0  0  0  0  0  0  0  0  0
   43.0730   32.6480   38.7430 C   0  0  0  0  0  0  0  0  0  0  0  0
   43.8390   32.1480   37.6990 C   0  0  0  0  0  0  0  0  0  0  0  0
   43.4380   31.0780   36.9650 C   0  0  0  0  0  0  0  0  0  0  0  0
   42.2360   30.4960   37.2880 C   0  0  0  0  0  0  0  0  0  0  0  0
   41.4890   31.0140   38.3340 C   0  0  0  0  0  0  0  0  0  0  0  0
   41.8580   32.0840   39.0920 C   0  0  0  0  0  0  0  0  0  0  0  0
   43.0490   35.0190   41.0740 H   0  0  0  0  0  0  0  0  0  0  0  0
   44.7800   32.6250   37.4650 H   0  0  0  0  0  0  0  0  0  0  0  0
   44.0550   30.7090   36.1570 H   0  0  0  0  0  0  0  0  0  0  0  0
   40.2730   30.2960   38.5220 N   0  0  0  0  0  0  0  0  0  0  0  0
   39.6220   30.7810   37.8610 H   0  0  0  0  0  0  0  0  0  0  0  0
   39.9820   29.4890   39.1110 H   0  0  0  0  0  0  0  0  0  0  0  0
   41.8250   29.3240   36.4720 C   0  0  0  0  0  2  0  0  0  0  0  0
   42.3630   28.0850   36.9670 N   0  0  0  0  0  4  0  0  0  0  0  0
   42.6810   28.2230   37.9420 H   0  0  0  0  0  0  0  0  0  0  0  0
   43.4120   27.5440   36.1390 C   0  0  0  0  0  2  0  0  0  0  0  0
   43.8770   26.7080   36.7030 H   0  0  0  0  0  0  0  0  0  0  0  0
   41.3280   27.0560   37.0040 C   0  0  0  0  0  2  0  0  0  0  0  0
   41.2020   26.6610   35.9580 H   0  0  0  0  0  0  0  0  0  0  0  0
   35.8300   30.8090   41.1660 N   0  0  0  0  0  0  0  0  0  0  0  0
   35.4160   31.1020   42.0780 H   0  0  0  0  0  0  0  0  0  0  0  0
   35.1930   30.3080   40.4750 H   0  0  0  0  0  0  0  0  0  0  0  0
  1  2  1  0  0  0  0
  2 44  1  0  0  0  0
  2  3  2  0  0  0  0
  3  7  1  0  0  0  0
  4  3  1  0  0  0  0
  5  4  2  0  0  0  0
  6  1  2  0  0  0  0
  6  5  1  0  0  0  0
  7  8  1  0  0  0  0
  7 11  1  0  0  0  0
  8 13  1  0  0  0  0
  8  9  1  0  0  0  0
  9 16  1  0  0  0  0
 10  9  1  0  0  0  0
 10 18  1  0  0  0  0
 11 10  1  0  0  0  0
 11 20  1  0  0  0  0
 12  1  1  0  0  0  0
 14  8  1  0  0  0  0
 15  9  1  0  0  0  0
 17 10  1  0  0  0  0
 19 11  1  0  0  0  0
 21  5  1  0  0  0  0
 21 22  1  0  0  0  0
 23 22  2  0  0  0  0
 23 31  1  0  0  0  0
 24 23  1  0  0  0  0
 25 30  1  0  0  0  0
 25 24  2  0  0  0  0
 26 25  1  0  0  0  0
 27 28  1  0  0  0  0
 27 26  2  0  0  0  0
 28 29  2  0  0  0  0
 29 34  1  0  0  0  0
 29 30  1  0  0  0  0
 30 21  2  0  0  0  0
 32 26  1  0  0  0  0
 33 27  1  0  0  0  0
 34 36  1  0  0  0  0
 35 34  1  0  0  0  0
 37 38  1  0  0  0  0
 37 28  1  0  0  0  0
 38 42  1  0  0  0  0
 38 39  1  0  0  0  0
 40 41  1  0  0  0  0
 40 38  1  0  0  0  0
 43 42  1  0  0  0  0
 44 45  1  0  0  0  0
 46 44  1  0  0  0  0
M  END
>  <minimizedAffinity>
-5.93431234

$$$$

 OpenBabel03252502103D

 46 49  0  0  0  0  0  0  0  0999 V2000
   36.2570   30.7170   41.1380 C   0  0  0  0  0  0  0  0  0  0  0  0
   37.2600   31.4880   40.5370 C   0  0  0  0  0  0  0  0  0  0  0  0
   38.3350   30.8230   40.0540 C   0  0  0  0  0  0  0  0  0  0  0  0
   38.4040   29.4860   40.1570 N   0  0  0  0  0  0  0  0  0  0  0  0
   37.4740   28.7410   40.7140 C   0  0  0  0  0  0  0  0  0  0  0  0
   36.3910   29.3840   41.2080 N   0  0  0  0  0  0  0  0  0  0  0  0
   39.3740   31.5110   39.4700 N   0  0  0  0  0  0  0  0  0  0  0  0
   40.6760   30.9030   39.0710 C   0  0  0  0  0  0  0  0  0  0  0  0
   41.3670   31.9320   38.2260 C   0  0  0  0  0  0  0  0  0  0  0  0
   40.8110   33.2150   38.7390 C   0  0  0  0  0  0  0  0  0  0  0  0
   39.4110   32.9080   39.1510 C   0  0  0  0  0  0  0  0  0  0  0  0
   35.3650   31.2100   41.5490 H   0  0  0  0  0  0  0  0  0  0  0  0
   40.5430   29.9890   38.4960 H   0  0  0  0  0  0  0  0  0  0  0  0
   41.2090   30.7250   40.0450 H   0  0  0  0  0  0  0  0  0  0  0  0
   42.4790   31.9380   38.4080 H   0  0  0  0  0  0  0  0  0  0  0  0
   41.1170   31.8150   37.1700 H   0  0  0  0  0  0  0  0  0  0  0  0
   41.4550   33.6140   39.5690 H   0  0  0  0  0  0  0  0  0  0  0  0
   40.8220   34.0110   37.9600 H   0  0  0  0  0  0  0  0  0  0  0  0
   39.2720   33.5060   40.0770 H   0  0  0  0  0  0  0  0  0  0  0  0
   38.7530   33.1770   38.3170 H   0  0  0  0  0  0  0  0  0  0  0  0
   37.3480   27.2740   40.8930 C   0  0  0  0  0  0  0  0  0  0  0  0
   37.8400   26.6060   41.9450 N   0  0  0  0  0  0  0  0  0  0  0  0
   37.7310   25.2930   42.1280 C   0  0  0  0  0  0  0  0  0  0  0  0
   37.0860   24.5290   41.2160 N   0  0  0  0  0  0  0  0  0  0  0  0
   36.5550   25.0750   40.1320 C   0  0  0  0  0  0  0  0  0  0  0  0
   35.8840   24.3050   39.1920 C   0  0  0  0  0  0  0  0  0  0  0  0
   35.3290   24.8540   38.0810 C   0  0  0  0  0  0  0  0  0  0  0  0
   35.4520   26.2110   37.9090 C   0  0  0  0  0  0  0  0  0  0  0  0
   36.1270   26.9590   38.8620 C   0  0  0  0  0  0  0  0  0  0  0  0
   36.6960   26.4440   39.9880 C   0  0  0  0  0  0  0  0  0  0  0  0
   38.1740   24.8530   43.0290 H   0  0  0  0  0  0  0  0  0  0  0  0
   35.8020   23.2390   39.3510 H   0  0  0  0  0  0  0  0  0  0  0  0
   34.8120   24.2300   37.3650 H   0  0  0  0  0  0  0  0  0  0  0  0
   36.1660   28.3410   38.5190 N   0  0  0  0  0  0  0  0  0  0  0  0
   37.0200   28.3990   37.9170 H   0  0  0  0  0  0  0  0  0  0  0  0
   35.5680   29.1650   38.7330 H   0  0  0  0  0  0  0  0  0  0  0  0
   34.8300   26.7860   36.6880 C   0  0  0  0  0  2  0  0  0  0  0  0
   33.4100   26.9690   36.8190 N   0  0  0  0  0  4  0  0  0  0  0  0
   33.1250   26.7070   37.7800 H   0  0  0  0  0  0  0  0  0  0  0  0
   32.6460   26.2540   35.8270 C   0  0  0  0  0  2  0  0  0  0  0  0
   31.5800   26.3080   36.1330 H   0  0  0  0  0  0  0  0  0  0  0  0
   33.0560   28.3740   36.6440 C   0  0  0  0  0  2  0  0  0  0  0  0
   33.0490   28.5880   35.5400 H   0  0  0  0  0  0  0  0  0  0  0  0
   37.0560   32.8380   40.4510 N   0  0  0  0  0  0  0  0  0  0  0  0
   36.7180   33.2150   39.5390 H   0  0  0  0  0  0  0  0  0  0  0  0
   37.2100   33.5320   41.2440 H   0  0  0  0  0  0  0  0  0  0  0  0
  1  6  1  0  0  0  0
  1 12  1  0  0  0  0
  2  1  2  0  0  0  0
  3  4  2  0  0  0  0
  3  2  1  0  0  0  0
  4  5  1  0  0  0  0
  5 21  1  0  0  0  0
  5  6  2  0  0  0  0
  7  3  1  0  0  0  0
  8  7  1  0  0  0  0
  8 14  1  0  0  0  0
  9 15  1  0  0  0  0
  9 10  1  0  0  0  0
  9  8  1  0  0  0  0
 10 11  1  0  0  0  0
 10 17  1  0  0  0  0
 11  7  1  0  0  0  0
 11 19  1  0  0  0  0
 13  8  1  0  0  0  0
 16  9  1  0  0  0  0
 18 10  1  0  0  0  0
 20 11  1  0  0  0  0
 21 22  1  0  0  0  0
 22 23  2  0  0  0  0
 23 31  1  0  0  0  0
 24 23  1  0  0  0  0
 25 24  2  0  0  0  0
 26 32  1  0  0  0  0
 26 25  1  0  0  0  0
 27 26  2  0  0  0  0
 28 27  1  0  0  0  0
 28 29  2  0  0  0  0
 29 30  1  0  0  0  0
 30 25  1  0  0  0  0
 30 21  2  0  0  0  0
 33 27  1  0  0  0  0
 34 36  1  0  0  0  0
 34 29  1  0  0  0  0
 35 34  1  0  0  0  0
 37 38  1  0  0  0  0
 37 28  1  0  0  0  0
 38 39  1  0  0  0  0
 40 41  1  0  0  0  0
 40 38  1  0  0  0  0
 42 38  1  0  0  0  0
 43 42  1  0  0  0  0
 44  2  1  0  0  0  0
 44 46  1  0  0  0  0
 45 44  1  0  0  0  0
M  END
>  <minimizedAffinity>
-5.81426287

$$$$

 OpenBabel03252502103D

 46 49  0  0  0  0  0  0  0  0999 V2000
   37.3010   32.2780   40.2360 C   0  0  0  0  0  0  0  0  0  0  0  0
   38.5680   32.8720   40.1970 C   0  0  0  0  0  0  0  0  0  0  0  0
   39.5870   32.1780   40.7560 C   0  0  0  0  0  0  0  0  0  0  0  0
   39.3600   30.9760   41.3100 N   0  0  0  0  0  0  0  0  0  0  0  0
   38.1800   30.3960   41.3560 C   0  0  0  0  0  0  0  0  0  0  0  0
   37.1450   31.0730   40.8060 N   0  0  0  0  0  0  0  0  0  0  0  0
   40.8580   32.7050   40.7780 N   0  0  0  0  0  0  0  0  0  0  0  0
   42.0080   32.1130   41.5220 C   0  0  0  0  0  0  0  0  0  0  0  0
   43.2280   32.8350   41.0300 C   0  0  0  0  0  0  0  0  0  0  0  0
   42.6900   34.1610   40.6170 C   0  0  0  0  0  0  0  0  0  0  0  0
   41.3090   33.8960   40.1200 C   0  0  0  0  0  0  0  0  0  0  0  0
   36.4410   32.8020   39.7980 H   0  0  0  0  0  0  0  0  0  0  0  0
   42.1130   31.0470   41.3330 H   0  0  0  0  0  0  0  0  0  0  0  0
   41.7870   32.3400   42.6010 H   0  0  0  0  0  0  0  0  0  0  0  0
   43.9720   33.0030   41.8590 H   0  0  0  0  0  0  0  0  0  0  0  0
   43.6700   32.3290   40.1690 H   0  0  0  0  0  0  0  0  0  0  0  0
   42.7370   34.8830   41.4760 H   0  0  0  0  0  0  0  0  0  0  0  0
   43.3080   34.6270   39.8170 H   0  0  0  0  0  0  0  0  0  0  0  0
   40.7260   34.7670   40.4860 H   0  0  0  0  0  0  0  0  0  0  0  0
   41.3630   33.7920   39.0310 H   0  0  0  0  0  0  0  0  0  0  0  0
   37.7350   29.0830   41.8820 C   0  0  0  0  0  0  0  0  0  0  0  0
   37.2940   28.8910   43.1330 N   0  0  0  0  0  0  0  0  0  0  0  0
   36.8840   27.7240   43.6210 C   0  0  0  0  0  0  0  0  0  0  0  0
   36.8920   26.6180   42.8410 N   0  0  0  0  0  0  0  0  0  0  0  0
   37.3070   26.6810   41.5840 C   0  0  0  0  0  0  0  0  0  0  0  0
   37.3140   25.5560   40.7710 C   0  0  0  0  0  0  0  0  0  0  0  0
   37.7290   25.6090   39.4790 C   0  0  0  0  0  0  0  0  0  0  0  0
   38.1490   26.8230   38.9920 C   0  0  0  0  0  0  0  0  0  0  0  0
   38.1330   27.9320   39.8240 C   0  0  0  0  0  0  0  0  0  0  0  0
   37.7230   27.9170   41.1240 C   0  0  0  0  0  0  0  0  0  0  0  0
   36.5440   27.6840   44.6610 H   0  0  0  0  0  0  0  0  0  0  0  0
   36.9790   24.6120   41.1790 H   0  0  0  0  0  0  0  0  0  0  0  0
   37.7230   24.7170   38.8670 H   0  0  0  0  0  0  0  0  0  0  0  0
   38.6080   29.0990   39.1600 N   0  0  0  0  0  0  0  0  0  0  0  0
   39.6420   29.0400   39.3140 H   0  0  0  0  0  0  0  0  0  0  0  0
   38.1600   29.8700   38.6240 H   0  0  0  0  0  0  0  0  0  0  0  0
   38.5920   26.8540   37.5740 C   0  0  0  0  0  2  0  0  0  0  0  0
   37.5080   26.6670   36.6470 N   0  0  0  0  0  4  0  0  0  0  0  0
   36.6320   26.5250   37.1800 H   0  0  0  0  0  0  0  0  0  0  0  0
   37.7350   25.6000   35.7060 C   0  0  0  0  0  2  0  0  0  0  0  0
   36.7770   25.4200   35.1760 H   0  0  0  0  0  0  0  0  0  0  0  0
   37.3160   27.8660   35.8360 C   0  0  0  0  0  2  0  0  0  0  0  0
   38.0980   27.8590   35.0270 H   0  0  0  0  0  0  0  0  0  0  0  0
   38.6830   34.0800   39.5650 N   0  0  0  0  0  0  0  0  0  0  0  0
   39.0480   34.0790   38.5880 H   0  0  0  0  0  0  0  0  0  0  0  0
   38.4230   35.0210   39.9910 H   0  0  0  0  0  0  0  0  0  0  0  0
  1  6  1  0  0  0  0
  2  1  2  0  0  0  0
  2  3  1  0  0  0  0
  3  7  1  0  0  0  0
  3  4  2  0  0  0  0
  4  5  1  0  0  0  0
  5 21  1  0  0  0  0
  6  5  2  0  0  0  0
  7  8  1  0  0  0  0
  8 14  1  0  0  0  0
  9  8  1  0  0  0  0
  9 15  1  0  0  0  0
 10  9  1  0  0  0  0
 10 17  1  0  0  0  0
 11 19  1  0  0  0  0
 11 10  1  0  0  0  0
 11  7  1  0  0  0  0
 12  1  1  0  0  0  0
 13  8  1  0  0  0  0
 16  9  1  0  0  0  0
 18 10  1  0  0  0  0
 20 11  1  0  0  0  0
 21 22  1  0  0  0  0
 22 23  2  0  0  0  0
 23 31  1  0  0  0  0
 24 23  1  0  0  0  0
 25 24  2  0  0  0  0
 26 32  1  0  0  0  0
 26 25  1  0  0  0  0
 27 26  2  0  0  0  0
 28 27  1  0  0  0  0
 28 29  2  0  0  0  0
 29 30  1  0  0  0  0
 30 25  1  0  0  0  0
 30 21  2  0  0  0  0
 33 27  1  0  0  0  0
 34 35  1  0  0  0  0
 34 29  1  0  0  0  0
 36 34  1  0  0  0  0
 37 28  1  0  0  0  0
 38 39  1  0  0  0  0
 38 37  1  0  0  0  0
 40 38  1  0  0  0  0
 41 40  1  0  0  0  0
 42 38  1  0  0  0  0
 43 42  1  0  0  0  0
 44 46  1  0  0  0  0
 44  2  1  0  0  0  0
 45 44  1  0  0  0  0
M  END
>  <minimizedAffinity>
-5.7436552

$$$$

 OpenBabel03252502103D

 46 49  0  0  0  0  0  0  0  0999 V2000
   37.8800   31.3930   38.5740 C   0  0  0  0  0  0  0  0  0  0  0  0
   39.1580   31.5190   38.0130 C   0  0  0  0  0  0  0  0  0  0  0  0
   40.1590   30.8360   38.6140 C   0  0  0  0  0  0  0  0  0  0  0  0
   39.9070   30.0770   39.6930 N   0  0  0  0  0  0  0  0  0  0  0  0
   38.7160   29.9400   40.2350 C   0  0  0  0  0  0  0  0  0  0  0  0
   37.6990   30.6170   39.6540 N   0  0  0  0  0  0  0  0  0  0  0  0
   41.4470   30.9270   38.1370 N   0  0  0  0  0  0  0  0  0  0  0  0
   42.6470   30.3670   38.8230 C   0  0  0  0  0  0  0  0  0  0  0  0
   43.7620   30.4390   37.8220 C   0  0  0  0  0  0  0  0  0  0  0  0
   43.3660   31.5870   36.9600 C   0  0  0  0  0  0  0  0  0  0  0  0
   41.8750   31.5690   36.9290 C   0  0  0  0  0  0  0  0  0  0  0  0
   37.0340   31.9300   38.1250 H   0  0  0  0  0  0  0  0  0  0  0  0
   42.4990   29.3350   39.1310 H   0  0  0  0  0  0  0  0  0  0  0  0
   42.8150   31.0560   39.6950 H   0  0  0  0  0  0  0  0  0  0  0  0
   44.7440   30.6940   38.3120 H   0  0  0  0  0  0  0  0  0  0  0  0
   43.8190   29.5280   37.2230 H   0  0  0  0  0  0  0  0  0  0  0  0
   43.8030   32.5420   37.3610 H   0  0  0  0  0  0  0  0  0  0  0  0
   43.7780   31.4940   35.9300 H   0  0  0  0  0  0  0  0  0  0  0  0
   41.5980   32.6440   36.9590 H   0  0  0  0  0  0  0  0  0  0  0  0
   41.5690   31.0320   36.0240 H   0  0  0  0  0  0  0  0  0  0  0  0
   38.2320   29.1390   41.3840 C   0  0  0  0  0  0  0  0  0  0  0  0
   38.1370   29.6090   42.6360 N   0  0  0  0  0  0  0  0  0  0  0  0
   37.6990   28.9090   43.6780 C   0  0  0  0  0  0  0  0  0  0  0  0
   37.3070   27.6230   43.5190 N   0  0  0  0  0  0  0  0  0  0  0  0
   37.3540   27.0450   42.3280 C   0  0  0  0  0  0  0  0  0  0  0  0
   36.9480   25.7290   42.1490 C   0  0  0  0  0  0  0  0  0  0  0  0
   36.9840   25.1280   40.9320 C   0  0  0  0  0  0  0  0  0  0  0  0
   37.4400   25.8670   39.8680 C   0  0  0  0  0  0  0  0  0  0  0  0
   37.8410   27.1780   40.0720 C   0  0  0  0  0  0  0  0  0  0  0  0
   37.8180   27.8150   41.2760 C   0  0  0  0  0  0  0  0  0  0  0  0
   37.6640   29.3980   44.6580 H   0  0  0  0  0  0  0  0  0  0  0  0
   36.5940   25.1700   43.0040 H   0  0  0  0  0  0  0  0  0  0  0  0
   36.6620   24.1020   40.8210 H   0  0  0  0  0  0  0  0  0  0  0  0
   38.2900   27.7880   38.8660 N   0  0  0  0  0  0  0  0  0  0  0  0
   39.3020   27.5190   38.8420 H   0  0  0  0  0  0  0  0  0  0  0  0
   37.8410   28.3580   38.1210 H   0  0  0  0  0  0  0  0  0  0  0  0
   37.4640   25.1860   38.5470 C   0  0  0  0  0  2  0  0  0  0  0  0
   36.1660   24.7180   38.1380 N   0  0  0  0  0  4  0  0  0  0  0  0
   35.6570   24.3750   38.9710 H   0  0  0  0  0  0  0  0  0  0  0  0
   36.2180   23.7210   37.0990 C   0  0  0  0  0  2  0  0  0  0  0  0
   35.1960   23.2980   36.9990 H   0  0  0  0  0  0  0  0  0  0  0  0
   35.3780   25.8150   37.5840 C   0  0  0  0  0  2  0  0  0  0  0  0
   35.7240   25.9840   36.5280 H   0  0  0  0  0  0  0  0  0  0  0  0
   39.2820   32.2860   36.8870 N   0  0  0  0  0  0  0  0  0  0  0  0
   39.3200   31.7890   35.9700 H   0  0  0  0  0  0  0  0  0  0  0  0
   39.3370   33.3490   36.8730 H   0  0  0  0  0  0  0  0  0  0  0  0
  1  6  1  0  0  0  0
  2  1  2  0  0  0  0
  2  3  1  0  0  0  0
  3  4  2  0  0  0  0
  4  5  1  0  0  0  0
  5 21  1  0  0  0  0
  6  5  2  0  0  0  0
  7  3  1  0  0  0  0
  7  8  1  0  0  0  0
  8 13  1  0  0  0  0
  8 14  1  0  0  0  0
  9 15  1  0  0  0  0
  9  8  1  0  0  0  0
 10 17  1  0  0  0  0
 10  9  1  0  0  0  0
 11 19  1  0  0  0  0
 11 10  1  0  0  0  0
 11  7  1  0  0  0  0
 12  1  1  0  0  0  0
 16  9  1  0  0  0  0
 18 10  1  0  0  0  0
 20 11  1  0  0  0  0
 21 22  1  0  0  0  0
 22 23  2  0  0  0  0
 23 31  1  0  0  0  0
 24 23  1  0  0  0  0
 25 24  2  0  0  0  0
 26 25  1  0  0  0  0
 26 32  1  0  0  0  0
 27 26  2  0  0  0  0
 28 29  2  0  0  0  0
 28 27  1  0  0  0  0
 29 30  1  0  0  0  0
 30 21  2  0  0  0  0
 30 25  1  0  0  0  0
 33 27  1  0  0  0  0
 34 29  1  0  0  0  0
 35 34  1  0  0  0  0
 36 34  1  0  0  0  0
 37 28  1  0  0  0  0
 38 37  1  0  0  0  0
 38 39  1  0  0  0  0
 40 38  1  0  0  0  0
 41 40  1  0  0  0  0
 42 38  1  0  0  0  0
 43 42  1  0  0  0  0
 44  2  1  0  0  0  0
 45 44  1  0  0  0  0
 46 44  1  0  0  0  0
M  END
>  <minimizedAffinity>
-5.71654701

$$$$

 OpenBabel03252502103D

 46 49  0  0  0  0  0  0  0  0999 V2000
   38.4510   28.6170   36.6340 C   0  0  0  0  0  0  0  0  0  0  0  0
   37.1880   28.6960   36.0320 C   0  0  0  0  0  0  0  0  0  0  0  0
   36.1340   28.9200   36.8510 C   0  0  0  0  0  0  0  0  0  0  0  0
   36.3230   29.0610   38.1720 N   0  0  0  0  0  0  0  0  0  0  0  0
   37.4980   28.9940   38.7600 C   0  0  0  0  0  0  0  0  0  0  0  0
   38.5680   28.7660   37.9620 N   0  0  0  0  0  0  0  0  0  0  0  0
   34.8580   28.9880   36.3380 N   0  0  0  0  0  0  0  0  0  0  0  0
   33.6160   29.0500   37.1610 C   0  0  0  0  0  0  0  0  0  0  0  0
   32.5120   29.4060   36.2110 C   0  0  0  0  0  0  0  0  0  0  0  0
   33.0000   28.8660   34.9120 C   0  0  0  0  0  0  0  0  0  0  0  0
   34.4850   29.0020   34.9540 C   0  0  0  0  0  0  0  0  0  0  0  0
   39.3380   28.4340   36.0140 H   0  0  0  0  0  0  0  0  0  0  0  0
   33.6800   29.8010   37.9450 H   0  0  0  0  0  0  0  0  0  0  0  0
   33.5040   28.0090   37.5720 H   0  0  0  0  0  0  0  0  0  0  0  0
   31.5530   28.8740   36.4710 H   0  0  0  0  0  0  0  0  0  0  0  0
   32.3820   30.4880   36.1380 H   0  0  0  0  0  0  0  0  0  0  0  0
   32.6410   27.8110   34.7700 H   0  0  0  0  0  0  0  0  0  0  0  0
   32.5830   29.4290   34.0460 H   0  0  0  0  0  0  0  0  0  0  0  0
   34.8480   28.0760   34.4610 H   0  0  0  0  0  0  0  0  0  0  0  0
   34.7470   29.9370   34.4460 H   0  0  0  0  0  0  0  0  0  0  0  0
   37.9150   29.1520   40.1740 C   0  0  0  0  0  0  0  0  0  0  0  0
   38.3550   30.3040   40.6980 N   0  0  0  0  0  0  0  0  0  0  0  0
   38.7270   30.4680   41.9650 C   0  0  0  0  0  0  0  0  0  0  0  0
   38.6760   29.4280   42.8290 N   0  0  0  0  0  0  0  0  0  0  0  0
   38.2580   28.2360   42.4300 C   0  0  0  0  0  0  0  0  0  0  0  0
   38.1940   27.1640   43.3080 C   0  0  0  0  0  0  0  0  0  0  0  0
   37.7600   25.9390   42.9120 C   0  0  0  0  0  0  0  0  0  0  0  0
   37.3810   25.7890   41.6000 C   0  0  0  0  0  0  0  0  0  0  0  0
   37.4540   26.8750   40.7430 C   0  0  0  0  0  0  0  0  0  0  0  0
   37.8830   28.1170   41.1030 C   0  0  0  0  0  0  0  0  0  0  0  0
   39.0700   31.4580   42.2830 H   0  0  0  0  0  0  0  0  0  0  0  0
   38.4990   27.3080   44.3350 H   0  0  0  0  0  0  0  0  0  0  0  0
   37.7200   25.1210   43.6180 H   0  0  0  0  0  0  0  0  0  0  0  0
   37.0320   26.5380   39.4250 N   0  0  0  0  0  0  0  0  0  0  0  0
   37.9140   26.1800   38.9910 H   0  0  0  0  0  0  0  0  0  0  0  0
   36.1270   26.5780   38.9130 H   0  0  0  0  0  0  0  0  0  0  0  0
   36.9040   24.4410   41.1960 C   0  0  0  0  0  2  0  0  0  0  0  0
   37.9490   23.4520   41.2160 N   0  0  0  0  0  4  0  0  0  0  0  0
   38.0410   23.0810   42.1780 H   0  0  0  0  0  0  0  0  0  0  0  0
   39.2080   23.9380   40.7120 C   0  0  0  0  0  2  0  0  0  0  0  0
   39.9750   23.1700   40.9480 H   0  0  0  0  0  0  0  0  0  0  0  0
   37.5990   22.3210   40.3610 C   0  0  0  0  0  2  0  0  0  0  0  0
   37.8100   22.6200   39.2970 H   0  0  0  0  0  0  0  0  0  0  0  0
   37.1270   28.5830   34.6700 N   0  0  0  0  0  0  0  0  0  0  0  0
   37.0500   29.4640   34.1170 H   0  0  0  0  0  0  0  0  0  0  0  0
   37.1580   27.6650   34.1300 H   0  0  0  0  0  0  0  0  0  0  0  0
  1  6  1  0  0  0  0
  2  1  2  0  0  0  0
  2  3  1  0  0  0  0
  3  4  2  0  0  0  0
  4  5  1  0  0  0  0
  5 21  1  0  0  0  0
  6  5  2  0  0  0  0
  7  3  1  0  0  0  0
  7  8  1  0  0  0  0
  8 14  1  0  0  0  0
  8 13  1  0  0  0  0
  9 15  1  0  0  0  0
  9  8  1  0  0  0  0
 10 11  1  0  0  0  0
 10  9  1  0  0  0  0
 11  7  1  0  0  0  0
 12  1  1  0  0  0  0
 16  9  1  0  0  0  0
 17 10  1  0  0  0  0
 18 10  1  0  0  0  0
 19 11  1  0  0  0  0
 20 11  1  0  0  0  0
 21 22  2  0  0  0  0
 21 30  1  0  0  0  0
 22 23  1  0  0  0  0
 23 31  1  0  0  0  0
 23 24  2  0  0  0  0
 25 24  1  0  0  0  0
 25 26  1  0  0  0  0
 26 32  1  0  0  0  0
 27 26  2  0  0  0  0
 27 33  1  0  0  0  0
 28 27  1  0  0  0  0
 29 30  1  0  0  0  0
 29 28  2  0  0  0  0
 30 25  2  0  0  0  0
 34 29  1  0  0  0  0
 35 34  1  0  0  0  0
 36 34  1  0  0  0  0
 37 38  1  0  0  0  0
 37 28  1  0  0  0  0
 38 39  1  0  0  0  0
 40 41  1  0  0  0  0
 40 38  1  0  0  0  0
 42 38  1  0  0  0  0
 43 42  1  0  0  0  0
 44  2  1  0  0  0  0
 45 44  1  0  0  0  0
 46 44  1  0  0  0  0
M  END
>  <minimizedAffinity>
-5.68486691

$$$$

 OpenBabel03252502103D

 46 49  0  0  0  0  0  0  0  0999 V2000
   36.9480   31.9110   40.6800 C   0  0  0  0  0  0  0  0  0  0  0  0
   38.1220   32.5230   40.2220 C   0  0  0  0  0  0  0  0  0  0  0  0
   38.7620   31.9240   39.1910 C   0  0  0  0  0  0  0  0  0  0  0  0
   38.2660   30.7990   38.6510 N   0  0  0  0  0  0  0  0  0  0  0  0
   37.1650   30.2080   39.0610 C   0  0  0  0  0  0  0  0  0  0  0  0
   36.5100   30.7870   40.0940 N   0  0  0  0  0  0  0  0  0  0  0  0
   39.9340   32.4520   38.6990 N   0  0  0  0  0  0  0  0  0  0  0  0
   40.8110   31.7810   37.6960 C   0  0  0  0  0  0  0  0  0  0  0  0
   41.7900   32.8240   37.2450 C   0  0  0  0  0  0  0  0  0  0  0  0
   41.8820   33.7300   38.4240 C   0  0  0  0  0  0  0  0  0  0  0  0
   40.5300   33.7070   39.0530 C   0  0  0  0  0  0  0  0  0  0  0  0
   36.3930   32.3560   41.5160 H   0  0  0  0  0  0  0  0  0  0  0  0
   40.2480   31.4140   36.8400 H   0  0  0  0  0  0  0  0  0  0  0  0
   41.3080   30.9530   38.2710 H   0  0  0  0  0  0  0  0  0  0  0  0
   42.8110   32.3830   37.0640 H   0  0  0  0  0  0  0  0  0  0  0  0
   41.4150   33.3770   36.3810 H   0  0  0  0  0  0  0  0  0  0  0  0
   42.7100   33.3960   39.1060 H   0  0  0  0  0  0  0  0  0  0  0  0
   42.1550   34.7680   38.1280 H   0  0  0  0  0  0  0  0  0  0  0  0
   40.7460   33.7230   40.1420 H   0  0  0  0  0  0  0  0  0  0  0  0
   39.9730   34.5710   38.6730 H   0  0  0  0  0  0  0  0  0  0  0  0
   36.4470   29.0010   38.5860 C   0  0  0  0  0  0  0  0  0  0  0  0
   35.4220   29.0340   37.7230 N   0  0  0  0  0  0  0  0  0  0  0  0
   34.7690   27.9640   37.2790 C   0  0  0  0  0  0  0  0  0  0  0  0
   35.1250   26.7270   37.6980 N   0  0  0  0  0  0  0  0  0  0  0  0
   36.1240   26.5640   38.5530 C   0  0  0  0  0  0  0  0  0  0  0  0
   36.5030   25.3010   38.9860 C   0  0  0  0  0  0  0  0  0  0  0  0
   37.5300   25.1210   39.8560 C   0  0  0  0  0  0  0  0  0  0  0  0
   38.1920   26.2380   40.3030 C   0  0  0  0  0  0  0  0  0  0  0  0
   37.7940   27.4880   39.8570 C   0  0  0  0  0  0  0  0  0  0  0  0
   36.7700   27.7080   38.9850 C   0  0  0  0  0  0  0  0  0  0  0  0
   33.9460   28.1110   36.5720 H   0  0  0  0  0  0  0  0  0  0  0  0
   35.9650   24.4380   38.6190 H   0  0  0  0  0  0  0  0  0  0  0  0
   37.8050   24.1250   40.1760 H   0  0  0  0  0  0  0  0  0  0  0  0
   38.5820   28.5290   40.4270 N   0  0  0  0  0  0  0  0  0  0  0  0
   38.0780   28.7260   41.3240 H   0  0  0  0  0  0  0  0  0  0  0  0
   39.4450   29.0350   40.1420 H   0  0  0  0  0  0  0  0  0  0  0  0
   39.3150   26.0120   41.2490 C   0  0  0  0  0  2  0  0  0  0  0  0
   38.8680   25.6710   42.5730 N   0  0  0  0  0  4  0  0  0  0  0  0
   37.8820   25.3600   42.5240 H   0  0  0  0  0  0  0  0  0  0  0  0
   39.0410   26.7370   43.5280 C   0  0  0  0  0  2  0  0  0  0  0  0
   38.4970   26.4430   44.4510 H   0  0  0  0  0  0  0  0  0  0  0  0
   39.6380   24.5490   43.1010 C   0  0  0  0  0  2  0  0  0  0  0  0
   40.6230   24.9520   43.4640 H   0  0  0  0  0  0  0  0  0  0  0  0
   38.5030   33.6920   40.8220 N   0  0  0  0  0  0  0  0  0  0  0  0
   38.2720   34.5830   40.3300 H   0  0  0  0  0  0  0  0  0  0  0  0
   39.0110   33.7640   41.7550 H   0  0  0  0  0  0  0  0  0  0  0  0
  1 12  1  0  0  0  0
  2  1  1  0  0  0  0
  2 44  1  0  0  0  0
  3  2  2  0  0  0  0
  4  5  2  0  0  0  0
  4  3  1  0  0  0  0
  5  6  1  0  0  0  0
  6  1  2  0  0  0  0
  7 11  1  0  0  0  0
  7  3  1  0  0  0  0
  8 14  1  0  0  0  0
  8  7  1  0  0  0  0
  9  8  1  0  0  0  0
  9 10  1  0  0  0  0
 10 11  1  0  0  0  0
 10 17  1  0  0  0  0
 11 19  1  0  0  0  0
 13  8  1  0  0  0  0
 15  9  1  0  0  0  0
 16  9  1  0  0  0  0
 18 10  1  0  0  0  0
 20 11  1  0  0  0  0
 21 30  1  0  0  0  0
 21  5  1  0  0  0  0
 22 21  2  0  0  0  0
 23 24  2  0  0  0  0
 23 22  1  0  0  0  0
 24 25  1  0  0  0  0
 25 30  2  0  0  0  0
 25 26  1  0  0  0  0
 26 27  2  0  0  0  0
 27 33  1  0  0  0  0
 27 28  1  0  0  0  0
 28 37  1  0  0  0  0
 29 28  2  0  0  0  0
 29 34  1  0  0  0  0
 30 29  1  0  0  0  0
 31 23  1  0  0  0  0
 32 26  1  0  0  0  0
 34 35  1  0  0  0  0
 36 34  1  0  0  0  0
 37 38  1  0  0  0  0
 38 42  1  0  0  0  0
 38 40  1  0  0  0  0
 39 38  1  0  0  0  0
 40 41  1  0  0  0  0
 42 43  1  0  0  0  0
 44 46  1  0  0  0  0
 45 44  1  0  0  0  0
M  END
>  <minimizedAffinity>
-5.6066041

$$$$

 OpenBabel03252502103D

 46 49  0  0  0  0  0  0  0  0999 V2000
   37.6350   27.0650   36.6730 C   0  0  0  0  0  0  0  0  0  0  0  0
   36.4780   27.5850   36.0800 C   0  0  0  0  0  0  0  0  0  0  0  0
   35.5070   28.0230   36.9140 C   0  0  0  0  0  0  0  0  0  0  0  0
   35.6780   27.9550   38.2440 N   0  0  0  0  0  0  0  0  0  0  0  0
   36.7550   27.4740   38.8250 C   0  0  0  0  0  0  0  0  0  0  0  0
   37.7390   27.0250   38.0110 N   0  0  0  0  0  0  0  0  0  0  0  0
   34.3300   28.5270   36.4080 N   0  0  0  0  0  0  0  0  0  0  0  0
   33.1310   28.8670   37.2270 C   0  0  0  0  0  0  0  0  0  0  0  0
   32.2210   29.6410   36.3200 C   0  0  0  0  0  0  0  0  0  0  0  0
   32.5770   29.1250   34.9690 C   0  0  0  0  0  0  0  0  0  0  0  0
   34.0320   28.8030   35.0330 C   0  0  0  0  0  0  0  0  0  0  0  0
   38.4510   26.6930   36.0400 H   0  0  0  0  0  0  0  0  0  0  0  0
   33.3850   29.4740   38.0930 H   0  0  0  0  0  0  0  0  0  0  0  0
   32.6980   27.8700   37.5130 H   0  0  0  0  0  0  0  0  0  0  0  0
   31.1380   29.3950   36.5120 H   0  0  0  0  0  0  0  0  0  0  0  0
   32.4210   30.7130   36.3730 H   0  0  0  0  0  0  0  0  0  0  0  0
   31.9260   28.2480   34.7040 H   0  0  0  0  0  0  0  0  0  0  0  0
   32.3800   29.8790   34.1730 H   0  0  0  0  0  0  0  0  0  0  0  0
   34.1220   27.8710   34.4370 H   0  0  0  0  0  0  0  0  0  0  0  0
   34.5800   29.6660   34.6380 H   0  0  0  0  0  0  0  0  0  0  0  0
   37.1450   27.3440   40.2490 C   0  0  0  0  0  0  0  0  0  0  0  0
   36.9250   26.2460   40.9860 N   0  0  0  0  0  0  0  0  0  0  0  0
   37.2730   26.1070   42.2620 C   0  0  0  0  0  0  0  0  0  0  0  0
   37.8980   27.1160   42.9120 N   0  0  0  0  0  0  0  0  0  0  0  0
   38.1710   28.2540   42.2900 C   0  0  0  0  0  0  0  0  0  0  0  0
   38.8170   29.2950   42.9420 C   0  0  0  0  0  0  0  0  0  0  0  0
   39.1090   30.4620   42.3130 C   0  0  0  0  0  0  0  0  0  0  0  0
   38.7420   30.5870   40.9960 C   0  0  0  0  0  0  0  0  0  0  0  0
   38.0970   29.5340   40.3670 C   0  0  0  0  0  0  0  0  0  0  0  0
   37.7880   28.3490   40.9640 C   0  0  0  0  0  0  0  0  0  0  0  0
   37.0430   25.1620   42.7660 H   0  0  0  0  0  0  0  0  0  0  0  0
   39.0950   29.1710   43.9800 H   0  0  0  0  0  0  0  0  0  0  0  0
   39.6140   31.2570   42.8460 H   0  0  0  0  0  0  0  0  0  0  0  0
   37.7830   29.8400   39.0110 N   0  0  0  0  0  0  0  0  0  0  0  0
   36.8540   30.3130   39.0970 H   0  0  0  0  0  0  0  0  0  0  0  0
   38.2620   29.6970   38.0990 H   0  0  0  0  0  0  0  0  0  0  0  0
   39.0790   31.8730   40.3300 C   0  0  0  0  0  2  0  0  0  0  0  0
   38.1560   32.9270   40.6560 N   0  0  0  0  0  4  0  0  0  0  0  0
   37.6350   32.6640   41.5110 H   0  0  0  0  0  0  0  0  0  0  0  0
   37.2650   33.2640   39.5750 C   0  0  0  0  0  2  0  0  0  0  0  0
   36.4860   33.9390   39.9890 H   0  0  0  0  0  0  0  0  0  0  0  0
   38.8760   34.1600   40.9640 C   0  0  0  0  0  2  0  0  0  0  0  0
   39.1760   34.6320   39.9890 H   0  0  0  0  0  0  0  0  0  0  0  0
   36.4390   27.6440   34.7130 N   0  0  0  0  0  0  0  0  0  0  0  0
   36.6490   28.5640   34.2670 H   0  0  0  0  0  0  0  0  0  0  0  0
   36.2160   26.8250   34.0710 H   0  0  0  0  0  0  0  0  0  0  0  0
  1  6  1  0  0  0  0
  2  1  2  0  0  0  0
  2  3  1  0  0  0  0
  3  4  2  0  0  0  0
  4  5  1  0  0  0  0
  5 21  1  0  0  0  0
  6  5  2  0  0  0  0
  7  3  1  0  0  0  0
  7  8  1  0  0  0  0
  8 14  1  0  0  0  0
  8 13  1  0  0  0  0
  9 16  1  0  0  0  0
  9 15  1  0  0  0  0
  9  8  1  0  0  0  0
 10 11  1  0  0  0  0
 10  9  1  0  0  0  0
 11  7  1  0  0  0  0
 12  1  1  0  0  0  0
 17 10  1  0  0  0  0
 18 10  1  0  0  0  0
 19 11  1  0  0  0  0
 20 11  1  0  0  0  0
 21 30  2  0  0  0  0
 21 22  1  0  0  0  0
 22 23  2  0  0  0  0
 23 31  1  0  0  0  0
 23 24  1  0  0  0  0
 25 24  2  0  0  0  0
 25 26  1  0  0  0  0
 26 32  1  0  0  0  0
 27 33  1  0  0  0  0
 27 26  2  0  0  0  0
 28 27  1  0  0  0  0
 29 30  1  0  0  0  0
 29 28  2  0  0  0  0
 30 25  1  0  0  0  0
 34 35  1  0  0  0  0
 34 29  1  0  0  0  0
 36 34  1  0  0  0  0
 37 38  1  0  0  0  0
 37 28  1  0  0  0  0
 38 42  1  0  0  0  0
 38 39  1  0  0  0  0
 40 41  1  0  0  0  0
 40 38  1  0  0  0  0
 43 42  1  0  0  0  0
 44  2  1  0  0  0  0
 45 44  1  0  0  0  0
 46 44  1  0  0  0  0
M  END
>  <minimizedAffinity>
-5.59634352

$$$$

 OpenBabel03252502103D

 46 49  0  0  0  0  0  0  0  0999 V2000
   36.9760   28.6030   39.3950 C   0  0  0  0  0  0  0  0  0  0  0  0
   37.4270   27.5840   40.2440 C   0  0  0  0  0  0  0  0  0  0  0  0
   38.4700   27.8810   41.0550 C   0  0  0  0  0  0  0  0  0  0  0  0
   39.0200   29.1060   41.0250 N   0  0  0  0  0  0  0  0  0  0  0  0
   38.6120   30.0780   40.2400 C   0  0  0  0  0  0  0  0  0  0  0  0
   37.5730   29.8040   39.4180 N   0  0  0  0  0  0  0  0  0  0  0  0
   38.9860   26.9270   41.9010 N   0  0  0  0  0  0  0  0  0  0  0  0
   40.2360   27.0870   42.6990 C   0  0  0  0  0  0  0  0  0  0  0  0
   40.2480   25.9490   43.6750 C   0  0  0  0  0  0  0  0  0  0  0  0
   39.4650   24.8950   42.9720 C   0  0  0  0  0  0  0  0  0  0  0  0
   38.4450   25.6260   42.1660 C   0  0  0  0  0  0  0  0  0  0  0  0
   36.1340   28.4120   38.7160 H   0  0  0  0  0  0  0  0  0  0  0  0
   40.2600   28.0320   43.2380 H   0  0  0  0  0  0  0  0  0  0  0  0
   41.0620   27.0050   41.9400 H   0  0  0  0  0  0  0  0  0  0  0  0
   41.2910   25.5550   43.8400 H   0  0  0  0  0  0  0  0  0  0  0  0
   39.7520   26.2190   44.6100 H   0  0  0  0  0  0  0  0  0  0  0  0
   40.1480   24.2440   42.3640 H   0  0  0  0  0  0  0  0  0  0  0  0
   38.9700   24.2000   43.6880 H   0  0  0  0  0  0  0  0  0  0  0  0
   38.3910   25.0450   41.2210 H   0  0  0  0  0  0  0  0  0  0  0  0
   37.5180   25.6550   42.7510 H   0  0  0  0  0  0  0  0  0  0  0  0
   39.0560   31.4840   40.0830 C   0  0  0  0  0  0  0  0  0  0  0  0
   38.5670   32.5060   40.8000 N   0  0  0  0  0  0  0  0  0  0  0  0
   38.9570   33.7720   40.6800 C   0  0  0  0  0  0  0  0  0  0  0  0
   39.9140   34.1080   39.7840 N   0  0  0  0  0  0  0  0  0  0  0  0
   40.4740   33.1860   39.0160 C   0  0  0  0  0  0  0  0  0  0  0  0
   41.4610   33.5150   38.0970 C   0  0  0  0  0  0  0  0  0  0  0  0
   42.0490   32.5770   37.3100 C   0  0  0  0  0  0  0  0  0  0  0  0
   41.6330   31.2760   37.4480 C   0  0  0  0  0  0  0  0  0  0  0  0
   40.6450   30.9720   38.3720 C   0  0  0  0  0  0  0  0  0  0  0  0
   40.0340   31.8840   39.1790 C   0  0  0  0  0  0  0  0  0  0  0  0
   38.4870   34.5260   41.3210 H   0  0  0  0  0  0  0  0  0  0  0  0
   41.7700   34.5480   38.0080 H   0  0  0  0  0  0  0  0  0  0  0  0
   42.8160   32.8630   36.6030 H   0  0  0  0  0  0  0  0  0  0  0  0
   40.3340   29.5820   38.3750 N   0  0  0  0  0  0  0  0  0  0  0  0
   39.6070   29.5130   37.6250 H   0  0  0  0  0  0  0  0  0  0  0  0
   40.6690   28.7570   38.9120 H   0  0  0  0  0  0  0  0  0  0  0  0
   42.2970   30.2700   36.5790 C   0  0  0  0  0  2  0  0  0  0  0  0
   43.7310   30.2950   36.6920 N   0  0  0  0  0  4  0  0  0  0  0  0
   44.0050   31.0890   37.2970 H   0  0  0  0  0  0  0  0  0  0  0  0
   44.4060   30.3410   35.4190 C   0  0  0  0  0  2  0  0  0  0  0  0
   45.4770   30.5490   35.6230 H   0  0  0  0  0  0  0  0  0  0  0  0
   44.2140   29.0820   37.3440 C   0  0  0  0  0  2  0  0  0  0  0  0
   44.2220   28.2610   36.5750 H   0  0  0  0  0  0  0  0  0  0  0  0
   36.7570   26.3920   40.2160 N   0  0  0  0  0  0  0  0  0  0  0  0
   36.0550   26.2180   40.9690 H   0  0  0  0  0  0  0  0  0  0  0  0
   36.8910   25.6320   39.4830 H   0  0  0  0  0  0  0  0  0  0  0  0
  1  6  2  0  0  0  0
  1  2  1  0  0  0  0
  2  3  2  0  0  0  0
  3  7  1  0  0  0  0
  4  3  1  0  0  0  0
  5  4  2  0  0  0  0
  6  5  1  0  0  0  0
  7 11  1  0  0  0  0
  7  8  1  0  0  0  0
  8 13  1  0  0  0  0
  8  9  1  0  0  0  0
  9 15  1  0  0  0  0
  9 16  1  0  0  0  0
 10  9  1  0  0  0  0
 10 18  1  0  0  0  0
 11 20  1  0  0  0  0
 11 10  1  0  0  0  0
 12  1  1  0  0  0  0
 14  8  1  0  0  0  0
 17 10  1  0  0  0  0
 19 11  1  0  0  0  0
 21  5  1  0  0  0  0
 21 22  1  0  0  0  0
 23 22  2  0  0  0  0
 23 31  1  0  0  0  0
 24 23  1  0  0  0  0
 25 30  1  0  0  0  0
 25 24  2  0  0  0  0
 26 25  1  0  0  0  0
 27 28  1  0  0  0  0
 27 26  2  0  0  0  0
 28 29  2  0  0  0  0
 29 34  1  0  0  0  0
 29 30  1  0  0  0  0
 30 21  2  0  0  0  0
 32 26  1  0  0  0  0
 33 27  1  0  0  0  0
 34 36  1  0  0  0  0
 35 34  1  0  0  0  0
 37 38  1  0  0  0  0
 37 28  1  0  0  0  0
 38 39  1  0  0  0  0
 38 42  1  0  0  0  0
 40 41  1  0  0  0  0
 40 38  1  0  0  0  0
 43 42  1  0  0  0  0
 44  2  1  0  0  0  0
 44 45  1  0  0  0  0
 46 44  1  0  0  0  0
M  END
>  <minimizedAffinity>
-5.55129528

$$$$

 OpenBabel03252502103D

 46 49  0  0  0  0  0  0  0  0999 V2000
   40.6390   29.4300   37.5520 C   0  0  0  0  0  0  0  0  0  0  0  0
   41.5410   30.4420   37.9050 C   0  0  0  0  0  0  0  0  0  0  0  0
   41.1910   31.2400   38.9400 C   0  0  0  0  0  0  0  0  0  0  0  0
   40.0290   31.0410   39.5830 N   0  0  0  0  0  0  0  0  0  0  0  0
   39.1680   30.0970   39.2720 C   0  0  0  0  0  0  0  0  0  0  0  0
   39.4940   29.2880   38.2370 N   0  0  0  0  0  0  0  0  0  0  0  0
   42.0140   32.2710   39.3330 N   0  0  0  0  0  0  0  0  0  0  0  0
   41.6480   33.3140   40.3340 C   0  0  0  0  0  0  0  0  0  0  0  0
   42.9220   34.0350   40.6590 C   0  0  0  0  0  0  0  0  0  0  0  0
   43.7270   33.8720   39.4160 C   0  0  0  0  0  0  0  0  0  0  0  0
   43.3400   32.5420   38.8610 C   0  0  0  0  0  0  0  0  0  0  0  0
   40.8750   28.7580   36.7160 H   0  0  0  0  0  0  0  0  0  0  0  0
   41.2300   32.8830   41.2410 H   0  0  0  0  0  0  0  0  0  0  0  0
   40.9140   33.9720   39.7930 H   0  0  0  0  0  0  0  0  0  0  0  0
   42.7460   35.1370   40.8170 H   0  0  0  0  0  0  0  0  0  0  0  0
   43.4400   33.5710   41.5000 H   0  0  0  0  0  0  0  0  0  0  0  0
   43.5400   34.7310   38.7170 H   0  0  0  0  0  0  0  0  0  0  0  0
   44.8200   33.9040   39.6240 H   0  0  0  0  0  0  0  0  0  0  0  0
   43.3190   32.7110   37.7640 H   0  0  0  0  0  0  0  0  0  0  0  0
   44.0790   31.8110   39.2080 H   0  0  0  0  0  0  0  0  0  0  0  0
   37.8700   29.6980   39.8680 C   0  0  0  0  0  0  0  0  0  0  0  0
   36.6810   30.1330   39.4270 N   0  0  0  0  0  0  0  0  0  0  0  0
   35.5060   29.7820   39.9420 C   0  0  0  0  0  0  0  0  0  0  0  0
   35.4500   28.9260   40.9890 N   0  0  0  0  0  0  0  0  0  0  0  0
   36.5590   28.4260   41.5140 C   0  0  0  0  0  0  0  0  0  0  0  0
   36.5150   27.5420   42.5830 C   0  0  0  0  0  0  0  0  0  0  0  0
   37.6450   27.0180   43.1250 C   0  0  0  0  0  0  0  0  0  0  0  0
   38.8490   27.3920   42.5800 C   0  0  0  0  0  0  0  0  0  0  0  0
   38.8660   28.2770   41.5130 C   0  0  0  0  0  0  0  0  0  0  0  0
   37.7550   28.8230   40.9430 C   0  0  0  0  0  0  0  0  0  0  0  0
   34.5960   30.2000   39.4990 H   0  0  0  0  0  0  0  0  0  0  0  0
   35.5550   27.2640   42.9940 H   0  0  0  0  0  0  0  0  0  0  0  0
   37.5820   26.3310   43.9580 H   0  0  0  0  0  0  0  0  0  0  0  0
   40.1940   28.5600   41.0820 N   0  0  0  0  0  0  0  0  0  0  0  0
   40.4670   29.3570   41.7040 H   0  0  0  0  0  0  0  0  0  0  0  0
   40.8340   28.1570   40.3680 H   0  0  0  0  0  0  0  0  0  0  0  0
   40.0680   26.7990   43.1880 C   0  0  0  0  0  2  0  0  0  0  0  0
   40.4650   25.5700   42.5550 N   0  0  0  0  0  4  0  0  0  0  0  0
   40.2800   25.6410   41.5390 H   0  0  0  0  0  0  0  0  0  0  0  0
   39.8400   24.4030   43.1270 C   0  0  0  0  0  2  0  0  0  0  0  0
   40.0620   23.5490   42.4530 H   0  0  0  0  0  0  0  0  0  0  0  0
   41.9010   25.3550   42.7080 C   0  0  0  0  0  2  0  0  0  0  0  0
   42.0770   24.9570   43.7450 H   0  0  0  0  0  0  0  0  0  0  0  0
   42.7150   30.5170   37.2050 N   0  0  0  0  0  0  0  0  0  0  0  0
   43.5640   30.1000   37.6450 H   0  0  0  0  0  0  0  0  0  0  0  0
   42.8270   30.9620   36.2440 H   0  0  0  0  0  0  0  0  0  0  0  0
  1  2  2  0  0  0  0
  1  6  1  0  0  0  0
  2  3  1  0  0  0  0
  3  7  1  0  0  0  0
  3  4  2  0  0  0  0
  5  4  1  0  0  0  0
  5 21  1  0  0  0  0
  6  5  2  0  0  0  0
  7  8  1  0  0  0  0
  8  9  1  0  0  0  0
  8 13  1  0  0  0  0
  9 15  1  0  0  0  0
  9 16  1  0  0  0  0
 10 18  1  0  0  0  0
 10  9  1  0  0  0  0
 11 20  1  0  0  0  0
 11  7  1  0  0  0  0
 11 10  1  0  0  0  0
 12  1  1  0  0  0  0
 14  8  1  0  0  0  0
 17 10  1  0  0  0  0
 19 11  1  0  0  0  0
 21 30  1  0  0  0  0
 22 21  2  0  0  0  0
 22 23  1  0  0  0  0
 23 24  2  0  0  0  0
 24 25  1  0  0  0  0
 25 26  1  0  0  0  0
 26 32  1  0  0  0  0
 26 27  2  0  0  0  0
 27 33  1  0  0  0  0
 28 27  1  0  0  0  0
 28 37  1  0  0  0  0
 29 28  2  0  0  0  0
 30 29  1  0  0  0  0
 30 25  2  0  0  0  0
 31 23  1  0  0  0  0
 34 29  1  0  0  0  0
 34 35  1  0  0  0  0
 36 34  1  0  0  0  0
 38 42  1  0  0  0  0
 38 40  1  0  0  0  0
 38 37  1  0  0  0  0
 39 38  1  0  0  0  0
 41 40  1  0  0  0  0
 42 43  1  0  0  0  0
 44 45  1  0  0  0  0
 44  2  1  0  0  0  0
 46 44  1  0  0  0  0
M  END
>  <minimizedAffinity>
-5.50342464

$$$$
