
 OpenBabel03242518123D

 29 30  0  0  0  0  0  0  0  0999 V2000
   49.0640   34.5510   42.4500 C   0  0  0  0  0  0  0  0  0  0  0  0
   49.9110   35.2200   42.7140 H   0  0  0  0  0  0  0  0  0  0  0  0
   48.6190   34.2260   43.4180 H   0  0  0  0  0  0  0  0  0  0  0  0
   49.5640   33.4540   41.6850 C   0  0  0  0  0  0  0  0  0  0  0  0
   49.1580   32.7030   40.5300 C   0  0  0  0  0  0  0  0  0  0  0  0
   49.9550   31.6870   40.0900 C   0  0  0  0  0  0  0  0  0  0  0  0
   51.1810   31.4170   40.8230 C   0  0  0  0  0  0  0  0  0  0  0  0
   51.1940   32.6350   42.1600 S   0  0  0  0  0  0  0  0  0  0  0  0
   48.2300   33.0210   40.1010 H   0  0  0  0  0  0  0  0  0  0  0  0
   49.6880   31.1010   39.2280 H   0  0  0  0  0  0  0  0  0  0  0  0
   52.1250   30.4200   40.5270 C   0  0  0  0  0  2  0  0  0  0  0  0
   52.0030   29.2850   41.3770 N   0  0  0  0  0  4  0  0  0  0  0  0
   52.3210   28.4250   40.8730 H   0  0  0  0  0  0  0  0  0  0  0  0
   50.6820   29.0840   41.9280 C   0  0  0  0  0  2  0  0  0  0  0  0
   50.0630   28.5130   41.2090 H   0  0  0  0  0  0  0  0  0  0  0  0
   52.9290   29.4090   42.5060 C   0  0  0  0  0  2  0  0  0  0  0  0
   53.9620   29.5500   42.0870 H   0  0  0  0  0  0  0  0  0  0  0  0
   48.0360   35.4140   41.7560 C   0  0  0  0  0  0  0  0  0  0  0  0
   48.0970   36.4610   42.1490 H   0  0  0  0  0  0  0  0  0  0  0  0
   48.2660   35.4440   40.6960 H   0  0  0  0  0  0  0  0  0  0  0  0
   46.7120   34.8720   42.0250 C   0  0  0  0  0  0  0  0  0  0  0  0
   46.1910   34.7850   43.3030 C   0  0  0  0  0  0  0  0  0  0  0  0
   44.9140   34.2520   43.4740 C   0  0  0  0  0  0  0  0  0  0  0  0
   44.2490   33.8450   42.3700 N   0  0  0  0  0  0  0  0  0  0  0  0
   44.7600   33.9330   41.1420 C   0  0  0  0  0  0  0  0  0  0  0  0
   45.9650   34.4390   41.0000 N   0  0  0  0  0  0  0  0  0  0  0  0
   46.7680   35.1280   44.1590 H   0  0  0  0  0  0  0  0  0  0  0  0
   44.4810   34.1730   44.4790 H   0  0  0  0  0  0  0  0  0  0  0  0
   44.1970   33.5970   40.2810 H   0  0  0  0  0  0  0  0  0  0  0  0
  1  2  1  0  0  0  0
  1  3  1  0  0  0  0
  4  8  1  0  0  0  0
  4  1  1  0  0  0  0
  5  4  2  0  0  0  0
  6  5  1  0  0  0  0
  6  7  2  0  0  0  0
  7  8  1  0  0  0  0
  9  5  1  0  0  0  0
 10  6  1  0  0  0  0
 11  7  1  0  0  0  0
 11 12  1  0  0  0  0
 12 14  1  0  0  0  0
 12 16  1  0  0  0  0
 13 12  1  0  0  0  0
 15 14  1  0  0  0  0
 17 16  1  0  0  0  0
 18 21  1  0  0  0  0
 18 19  1  0  0  0  0
 18  1  1  0  0  0  0
 20 18  1  0  0  0  0
 21 22  1  0  0  0  0
 22 23  2  0  0  0  0
 22 27  1  0  0  0  0
 23 28  1  0  0  0  0
 24 23  1  0  0  0  0
 25 24  2  0  0  0  0
 26 25  1  0  0  0  0
 26 21  2  0  0  0  0
 29 25  1  0  0  0  0
M  END
>  <minimizedAffinity>
-3.25253725

>  <minimizedRMSD>
1.13828337

$$$$
