
 OpenBabel03252501063D

 38 40  0  0  1  0  0  0  0  0999 V2000
   48.5920   32.3510   38.0710 O   0  0  0  0  0  0  0  0  0  0  0  0
   48.1030   33.7880   38.2470 P   0  0  2  0  0  0  0  0  0  0  0  0
   49.3150   34.7590   37.5670 O   0  0  0  0  0  0  0  0  0  0  0  0
   48.9680   35.6910   37.5680 H   0  0  0  0  0  0  0  0  0  0  0  0
   47.7390   34.1330   39.8040 O   0  0  0  0  0  0  0  0  0  0  0  0
   48.0810   35.4600   41.7990 C   0  0  1  0  0  0  0  0  0  0  0  0
   49.3110   34.6680   41.6760 C   0  0  0  0  0  0  0  0  0  0  0  0
   48.4700   35.0640   40.4480 C   0  0  1  0  0  0  0  0  0  0  0  0
   48.1580   36.5110   42.1160 H   0  0  0  0  0  0  0  0  0  0  0  0
   49.3380   33.5590   41.8540 H   0  0  0  0  0  0  0  0  0  0  0  0
   50.3150   35.1170   41.7790 H   0  0  0  0  0  0  0  0  0  0  0  0
   49.0200   35.7730   39.8020 H   0  0  0  0  0  0  0  0  0  0  0  0
   46.0460   32.9590   43.7900 C   0  0  0  0  0  0  0  0  0  0  0  0
   47.1390   33.6360   43.2580 C   0  0  0  0  0  0  0  0  0  0  0  0
   46.9130   34.7250   42.3960 C   0  0  0  0  0  0  0  0  0  0  0  0
   45.6360   35.0820   42.1090 N   0  0  0  0  0  0  0  0  0  0  0  0
   44.5860   34.4080   42.6390 C   0  0  0  0  0  0  0  0  0  0  0  0
   44.7880   33.3520   43.4750 N   0  0  0  0  0  0  0  0  0  0  0  0
   46.2290   32.1230   44.4520 H   0  0  0  0  0  0  0  0  0  0  0  0
   48.1250   33.3130   43.5160 H   0  0  0  0  0  0  0  0  0  0  0  0
   43.5980   34.7680   42.3510 H   0  0  0  0  0  0  0  0  0  0  0  0
   46.7480   33.9110   37.2640 O   0  0  0  0  0  0  0  0  0  0  0  0
   45.6680   33.0440   37.3240 C   0  0  0  0  0  0  0  0  0  0  0  0
   45.3460   32.0170   36.4550 C   0  0  0  0  0  0  0  0  0  0  0  0
   44.2390   31.2540   36.6590 C   0  0  0  0  0  0  0  0  0  0  0  0
   43.4030   31.4740   37.7310 C   0  0  0  0  0  0  0  0  0  0  0  0
   43.7610   32.5220   38.5880 C   0  0  0  0  0  0  0  0  0  0  0  0
   44.8730   33.2800   38.3730 N   0  0  0  0  0  0  0  0  0  0  0  0
   46.0450   31.8990   35.6350 H   0  0  0  0  0  0  0  0  0  0  0  0
   44.0470   30.4670   35.9400 H   0  0  0  0  0  0  0  0  0  0  0  0
   42.5360   30.8810   37.8970 H   0  0  0  0  0  0  0  0  0  0  0  0
   42.8620   32.7640   39.7470 C   0  0  0  0  0  2  0  0  0  0  0  0
   41.7820   33.6640   39.4930 N   0  0  0  0  0  4  0  0  0  0  0  0
   41.3800   33.5820   38.5320 H   0  0  0  0  0  0  0  0  0  0  0  0
   40.6890   33.3050   40.3870 C   0  0  0  0  0  2  0  0  0  0  0  0
   41.0740   32.6810   41.2360 H   0  0  0  0  0  0  0  0  0  0  0  0
   42.1340   35.0350   39.8200 C   0  0  0  0  0  2  0  0  0  0  0  0
   42.0620   35.1390   40.9380 H   0  0  0  0  0  0  0  0  0  0  0  0
  2  1  2  6  0  0  0
  2  5  1  0  0  0  0
  3  4  1  0  0  0  0
  3  2  1  0  0  0  0
  5  8  1  0  0  0  0
  6  9  1  1  0  0  0
  6 15  1  0  0  0  0
  7 11  1  0  0  0  0
  7  6  1  0  0  0  0
  7 10  1  0  0  0  0
  8 12  1  6  0  0  0
  8  7  1  0  0  0  0
  8  6  1  0  0  0  0
 13 19  1  0  0  0  0
 14 20  1  0  0  0  0
 14 13  2  0  0  0  0
 15 14  1  0  0  0  0
 16 15  2  0  0  0  0
 16 17  1  0  0  0  0
 17 18  2  0  0  0  0
 18 13  1  0  0  0  0
 21 17  1  0  0  0  0
 22 23  1  0  0  0  0
 22  2  1  0  0  0  0
 23 28  1  0  0  0  0
 24 25  1  0  0  0  0
 24 23  2  0  0  0  0
 25 26  2  0  0  0  0
 26 31  1  0  0  0  0
 26 27  1  0  0  0  0
 27 32  1  0  0  0  0
 28 27  2  0  0  0  0
 29 24  1  0  0  0  0
 30 25  1  0  0  0  0
 33 32  1  0  0  0  0
 33 37  1  0  0  0  0
 33 35  1  0  0  0  0
 34 33  1  0  0  0  0
 35 36  1  0  0  0  0
 37 38  1  0  0  0  0
M  END
>  <minimizedAffinity>
-4.56868982

>  <minimizedRMSD>
0.973269224

$$$$
