REMARK  Name = 
REMARK  8 active torsions:
REMARK  status: ('A' for Active; 'I' for Inactive)
REMARK    1  A    between atoms: C_3  and  O_7
REMARK    2  A    between atoms: C_5  and  C_16
REMARK    3  A    between atoms: O_7  and  P_9
REMARK    4  A    between atoms: P_9  and  O_10
REMARK    5  A    between atoms: P_9  and  O_11
REMARK    6  A    between atoms: C_16  and  N_17
REMARK    7  A    between atoms: N_17  and  C_18
REMARK    8  A    between atoms: N_17  and  C_20
REMARK                            x       y       z     vdW  Elec       q    Type
REMARK                         _______ _______ _______ _____ _____    ______ ____
ROOT
ATOM      1  C   UNL     1      44.597  35.990  44.512  0.00  0.00    +0.000 A 
ATOM      2  C   UNL     1      45.225  36.006  43.255  0.00  0.00    +0.000 A 
ATOM      3  C   UNL     1      46.092  34.950  42.976  0.00  0.00    +0.000 A 
ATOM      4  N   UNL     1      46.291  33.979  43.897  0.00  0.00    +0.000 NA
ATOM      5  C   UNL     1      45.667  33.996  45.101  0.00  0.00    +0.000 A 
ATOM      6  N   UNL     1      44.817  35.010  45.402  0.00  0.00    +0.000 NA
ATOM      7  H   UNL     1      43.928  36.823  44.701  0.00  0.00    +0.000 HD
ATOM      8  H   UNL     1      45.042  36.796  42.547  0.00  0.00    +0.000 HD
ENDROOT
BRANCH   3   9
ATOM      9  O   UNL     1      46.717  34.967  41.725  0.00  0.00    +0.000 OA
BRANCH   9  11
ATOM     10  O   UNL     1      48.652  33.330  40.977  0.00  0.00    +0.000 OA
ATOM     11  P   UNL     1      48.401  34.688  41.632  0.00  0.00    +0.000 P 
BRANCH  11  12
ATOM     12  O   UNL     1      49.121  35.928  40.786  0.00  0.00    +0.000 OA
ATOM     13  H   UNL     1      49.910  36.243  41.297  0.00  0.00    +0.000 HD
ENDBRANCH  11  12
BRANCH  11  14
ATOM     14  O   UNL     1      48.994  34.597  43.219  0.00  0.00    +0.000 OA
ATOM     15  H   UNL     1      49.021  33.667  43.552  0.00  0.00    +0.000 HD
ENDBRANCH  11  14
ENDBRANCH   9  11
ENDBRANCH   3   9
BRANCH   5  16
ATOM     16  C   UNL     1      45.936  32.908  46.042  0.00  0.00    +0.000 C 
BRANCH  16  17
ATOM     17  N   UNL     1      46.245  31.688  45.338  0.00  0.00    +0.000 N 
ATOM     18  H   UNL     1      45.357  31.412  44.843  0.00  0.00    +0.000 HD
BRANCH  17  19
ATOM     19  C   UNL     1      46.514  30.607  46.274  0.00  0.00    +0.000 C 
ATOM     20  H   UNL     1      47.600  30.461  46.433  0.00  0.00    +0.000 HD
ENDBRANCH  17  19
BRANCH  17  21
ATOM     21  C   UNL     1      47.256  31.807  44.336  0.00  0.00    +0.000 C 
ATOM     22  H   UNL     1      48.042  31.007  44.436  0.00  0.00    +0.000 HD
ENDBRANCH  17  21
ENDBRANCH  16  17
ENDBRANCH   5  16
TORSDOF 8
