
 OpenBabel03242518383D

 37 39  0  0  1  0  0  0  0  0999 V2000
   47.4620   33.4810   40.2010 C   0  0  0  0  0  0  0  0  0  0  0  0
   48.3990   34.1650   39.4110 C   0  0  0  0  0  0  0  0  0  0  0  0
   47.9660   34.1500   38.1010 C   0  0  0  0  0  0  0  0  0  0  0  0
   46.7960   33.4650   38.1450 C   0  0  0  0  0  0  0  0  0  0  0  0
   46.4960   33.0700   39.3770 O   0  0  0  0  0  0  0  0  0  0  0  0
   49.2760   34.5910   39.8650 H   0  0  0  0  0  0  0  0  0  0  0  0
   48.4840   34.5970   37.2860 H   0  0  0  0  0  0  0  0  0  0  0  0
   45.9530   33.1940   36.9600 C   0  0  2  0  0  0  0  0  0  0  0  0
   45.2980   31.8980   36.7960 C   0  0  0  0  0  0  0  0  0  0  0  0
   46.5470   32.1080   36.0180 C   0  0  1  0  0  0  0  0  0  0  0  0
   45.6240   34.1210   36.4540 H   0  0  0  0  0  0  0  0  0  0  0  0
   45.2860   31.1630   37.6110 H   0  0  0  0  0  0  0  0  0  0  0  0
   44.3110   31.9340   36.2520 H   0  0  0  0  0  0  0  0  0  0  0  0
   47.4870   31.6520   36.3380 H   0  0  0  0  0  0  0  0  0  0  0  0
   47.4170   32.1510   33.6930 C   0  0  0  0  0  0  0  0  0  0  0  0
   48.5300   31.6590   34.0370 O   0  0  0  0  0  0  0  0  0  0  0  0
   46.3710   32.4400   34.6050 N   0  0  0  0  0  0  0  0  0  0  0  0
   47.1840   32.3910   32.6500 H   0  0  0  0  0  0  0  0  0  0  0  0
   45.4770   32.8830   34.3030 H   0  0  0  0  0  0  0  0  0  0  0  0
   47.4090   33.2010   41.5930 O   0  0  0  0  0  0  0  0  0  0  0  0
   47.1650   34.2770   42.4840 C   0  0  0  0  0  0  0  0  0  0  0  0
   47.5610   35.4130   42.1040 O   0  0  0  0  0  0  0  0  0  0  0  0
   46.5050   33.9550   43.6980 C   0  0  0  0  0  0  0  0  0  0  0  0
   45.7350   34.9280   44.2450 C   0  0  0  0  0  0  0  0  0  0  0  0
   45.0610   34.6730   45.4370 C   0  0  0  0  0  0  0  0  0  0  0  0
   45.2040   33.4600   45.9990 N   0  0  0  0  0  0  0  0  0  0  0  0
   45.9690   32.5180   45.4410 C   0  0  0  0  0  0  0  0  0  0  0  0
   46.5960   32.8000   44.3060 N   0  0  0  0  0  0  0  0  0  0  0  0
   45.6120   35.9070   43.8000 H   0  0  0  0  0  0  0  0  0  0  0  0
   44.4340   35.4270   45.9040 H   0  0  0  0  0  0  0  0  0  0  0  0
   46.0260   31.2370   46.1800 C   0  0  0  0  0  2  0  0  0  0  0  0
   46.3950   31.5270   47.5490 N   0  0  0  0  0  4  0  0  0  0  0  0
   46.7600   30.6280   47.9470 H   0  0  0  0  0  0  0  0  0  0  0  0
   47.3520   32.5910   47.6460 C   0  0  0  0  0  2  0  0  0  0  0  0
   48.2470   32.2050   48.1770 H   0  0  0  0  0  0  0  0  0  0  0  0
   45.1650   31.8160   48.2710 C   0  0  0  0  0  2  0  0  0  0  0  0
   45.3370   31.5710   49.3300 H   0  0  0  0  0  0  0  0  0  0  0  0
  1 20  1  0  0  0  0
  2  6  1  0  0  0  0
  2  1  2  0  0  0  0
  3  4  2  0  0  0  0
  3  2  1  0  0  0  0
  4  5  1  0  0  0  0
  5  1  1  0  0  0  0
  7  3  1  0  0  0  0
  8 11  1  6  0  0  0
  8  4  1  0  0  0  0
  9  8  1  0  0  0  0
  9 12  1  0  0  0  0
 10 14  1  1  0  0  0
 10  9  1  0  0  0  0
 10  8  1  0  0  0  0
 13  9  1  0  0  0  0
 15 16  2  0  0  0  0
 15 17  1  0  0  0  0
 17 10  1  0  0  0  0
 18 15  1  0  0  0  0
 19 17  1  0  0  0  0
 20 21  1  0  0  0  0
 21 23  1  0  0  0  0
 22 21  2  0  0  0  0
 23 24  2  0  0  0  0
 23 28  1  0  0  0  0
 24 25  1  0  0  0  0
 25 30  1  0  0  0  0
 25 26  2  0  0  0  0
 27 26  1  0  0  0  0
 27 31  1  0  0  0  0
 28 27  2  0  0  0  0
 29 24  1  0  0  0  0
 31 32  1  0  0  0  0
 32 34  1  0  0  0  0
 32 33  1  0  0  0  0
 32 36  1  0  0  0  0
 34 35  1  0  0  0  0
 36 37  1  0  0  0  0
M  END
>  <minimizedAffinity>
-4.29756641

>  <minimizedRMSD>
1.50247896

$$$$
