
 OpenBabel03242517383D

 31 32  0  0  0  0  0  0  0  0999 V2000
   43.2420   35.5210   41.1950 C   0  0  0  0  0  3  0  0  0  0  0  0
   42.1600   35.0170   40.6510 C   0  0  0  0  0  3  0  0  0  0  0  0
   44.4300   35.7920   43.3550 C   0  0  0  0  0  0  0  0  0  0  0  0
   43.9600   34.9720   42.3240 C   0  0  0  0  0  0  0  0  0  0  0  0
   44.2070   33.6160   42.4230 C   0  0  0  0  0  0  0  0  0  0  0  0
   44.8910   33.1450   43.5090 N   0  0  0  0  0  0  0  0  0  0  0  0
   45.3320   33.9610   44.4890 C   0  0  0  0  0  0  0  0  0  0  0  0
   45.0980   35.2710   44.4010 N   0  0  0  0  0  0  0  0  0  0  0  0
   44.2180   36.8600   43.2450 H   0  0  0  0  0  0  0  0  0  0  0  0
   43.8640   32.9320   41.6500 H   0  0  0  0  0  0  0  0  0  0  0  0
   46.0750   33.4500   45.6700 C   0  0  0  0  0  2  0  0  0  0  0  0
   47.2710   32.7150   45.3210 N   0  0  0  0  0  4  0  0  0  0  0  0
   48.0370   33.0730   45.9530 H   0  0  0  0  0  0  0  0  0  0  0  0
   47.1700   31.2970   45.5000 C   0  0  0  0  0  2  0  0  0  0  0  0
   46.8490   30.8110   44.5590 H   0  0  0  0  0  0  0  0  0  0  0  0
   47.6640   33.0880   43.9770 C   0  0  0  0  0  2  0  0  0  0  0  0
   48.0750   32.1940   43.4530 H   0  0  0  0  0  0  0  0  0  0  0  0
   41.4560   35.6170   39.4900 C   0  0  0  0  0  0  0  0  0  0  0  0
   42.1350   35.6310   38.6210 H   0  0  0  0  0  0  0  0  0  0  0  0
   41.0990   36.6410   39.7860 H   0  0  0  0  0  0  0  0  0  0  0  0
   40.2240   34.8440   39.1410 C   0  0  0  0  0  0  0  0  0  0  0  0
   39.9340   34.6290   37.8010 C   0  0  0  0  0  0  0  0  0  0  0  0
   38.7950   33.9140   37.4560 C   0  0  0  0  0  0  0  0  0  0  0  0
   37.9450   33.4120   38.4410 C   0  0  0  0  0  0  0  0  0  0  0  0
   38.2360   33.6250   39.7710 C   0  0  0  0  0  0  0  0  0  0  0  0
   39.3730   34.3400   40.1080 C   0  0  0  0  0  0  0  0  0  0  0  0
   40.6140   35.0320   37.0350 H   0  0  0  0  0  0  0  0  0  0  0  0
   38.6340   33.7870   36.3940 H   0  0  0  0  0  0  0  0  0  0  0  0
   37.0950   32.8730   38.0450 H   0  0  0  0  0  0  0  0  0  0  0  0
   37.5480   33.2170   40.5010 H   0  0  0  0  0  0  0  0  0  0  0  0
   39.5850   34.4990   41.1540 H   0  0  0  0  0  0  0  0  0  0  0  0
  1  4  1  0  0  0  0
  2  1  2  0  0  0  0
  3  8  1  0  0  0  0
  4  5  1  0  0  0  0
  4  3  2  0  0  0  0
  5  6  2  0  0  0  0
  6  7  1  0  0  0  0
  7 11  1  0  0  0  0
  8  7  2  0  0  0  0
  9  3  1  0  0  0  0
 10  5  1  0  0  0  0
 12 14  1  0  0  0  0
 12 11  1  0  0  0  0
 12 13  1  0  0  0  0
 15 14  1  0  0  0  0
 16 12  1  0  0  0  0
 17 16  1  0  0  0  0
 18 20  1  0  0  0  0
 18  2  1  0  0  0  0
 19 18  1  0  0  0  0
 21 18  1  0  0  0  0
 21 26  1  0  0  0  0
 22 21  2  0  0  0  0
 23 22  1  0  0  0  0
 23 24  2  0  0  0  0
 24 25  1  0  0  0  0
 25 26  2  0  0  0  0
 25 30  1  0  0  0  0
 26 31  1  0  0  0  0
 27 22  1  0  0  0  0
 28 23  1  0  0  0  0
 29 24  1  0  0  0  0
M  END
>  <minimizedAffinity>
-5.59535551

>  <minimizedRMSD>
0.826486468

$$$$
