
 OpenBabel03252502083D

 46 49  0  0  0  0  0  0  0  0999 V2000
   47.4710   32.0420   47.8530 C   0  0  0  0  0  0  0  0  0  0  0  0
   46.9290   30.7510   47.8830 C   0  0  0  0  0  0  0  0  0  0  0  0
   45.9430   30.4800   46.9980 C   0  0  0  0  0  0  0  0  0  0  0  0
   45.5280   31.4260   46.1400 N   0  0  0  0  0  0  0  0  0  0  0  0
   46.0220   32.6440   46.0900 C   0  0  0  0  0  0  0  0  0  0  0  0
   47.0080   32.9390   46.9690 N   0  0  0  0  0  0  0  0  0  0  0  0
   45.3440   29.2410   46.9810 N   0  0  0  0  0  0  0  0  0  0  0  0
   44.1360   28.8940   46.1780 C   0  0  0  0  0  0  0  0  0  0  0  0
   44.0210   27.3990   46.2360 C   0  0  0  0  0  0  0  0  0  0  0  0
   44.6700   27.0630   47.5330 C   0  0  0  0  0  0  0  0  0  0  0  0
   45.7460   28.0790   47.7180 C   0  0  0  0  0  0  0  0  0  0  0  0
   48.2720   32.3130   48.5540 H   0  0  0  0  0  0  0  0  0  0  0  0
   44.2260   29.2140   45.1420 H   0  0  0  0  0  0  0  0  0  0  0  0
   43.2900   29.4060   46.7140 H   0  0  0  0  0  0  0  0  0  0  0  0
   42.9450   27.0690   46.2890 H   0  0  0  0  0  0  0  0  0  0  0  0
   44.5630   26.9250   45.4150 H   0  0  0  0  0  0  0  0  0  0  0  0
   43.9070   27.0500   48.3580 H   0  0  0  0  0  0  0  0  0  0  0  0
   45.1020   26.0360   47.5260 H   0  0  0  0  0  0  0  0  0  0  0  0
   45.7170   28.2990   48.8060 H   0  0  0  0  0  0  0  0  0  0  0  0
   46.6820   27.6410   47.3540 H   0  0  0  0  0  0  0  0  0  0  0  0
   45.7310   33.8020   45.2110 C   0  0  0  0  0  0  0  0  0  0  0  0
   44.8670   34.7780   45.5240 N   0  0  0  0  0  0  0  0  0  0  0  0
   44.5970   35.8280   44.7540 C   0  0  0  0  0  0  0  0  0  0  0  0
   45.2120   35.9700   43.5560 N   0  0  0  0  0  0  0  0  0  0  0  0
   46.0880   35.0700   43.1350 C   0  0  0  0  0  0  0  0  0  0  0  0
   46.7300   35.2070   41.9120 C   0  0  0  0  0  0  0  0  0  0  0  0
   47.6360   34.2940   41.4730 C   0  0  0  0  0  0  0  0  0  0  0  0
   47.9010   33.2170   42.2820 C   0  0  0  0  0  0  0  0  0  0  0  0
   47.2450   33.1020   43.4980 C   0  0  0  0  0  0  0  0  0  0  0  0
   46.3330   33.9960   43.9720 C   0  0  0  0  0  0  0  0  0  0  0  0
   43.8720   36.5660   45.1130 H   0  0  0  0  0  0  0  0  0  0  0  0
   46.5030   36.0640   41.2940 H   0  0  0  0  0  0  0  0  0  0  0  0
   48.1220   34.4260   40.5160 H   0  0  0  0  0  0  0  0  0  0  0  0
   47.6340   31.9250   44.2000 N   0  0  0  0  0  0  0  0  0  0  0  0
   46.9760   31.2070   43.8160 H   0  0  0  0  0  0  0  0  0  0  0  0
   48.3590   31.7020   44.9110 H   0  0  0  0  0  0  0  0  0  0  0  0
   48.8990   32.2370   41.7800 C   0  0  0  0  0  2  0  0  0  0  0  0
   50.2220   32.4770   42.2930 N   0  0  0  0  0  4  0  0  0  0  0  0
   50.3280   31.9730   43.1920 H   0  0  0  0  0  0  0  0  0  0  0  0
   50.5390   33.8760   42.4290 C   0  0  0  0  0  2  0  0  0  0  0  0
   51.4880   33.9440   43.0020 H   0  0  0  0  0  0  0  0  0  0  0  0
   51.2290   31.9370   41.3840 C   0  0  0  0  0  2  0  0  0  0  0  0
   51.3510   32.6680   40.5380 H   0  0  0  0  0  0  0  0  0  0  0  0
   47.4660   29.8600   48.7720 N   0  0  0  0  0  0  0  0  0  0  0  0
   48.1600   29.1730   48.4040 H   0  0  0  0  0  0  0  0  0  0  0  0
   47.2350   29.8160   49.8110 H   0  0  0  0  0  0  0  0  0  0  0  0
  1  2  1  0  0  0  0
  1 12  1  0  0  0  0
  2 44  1  0  0  0  0
  3  2  2  0  0  0  0
  4  3  1  0  0  0  0
  5  4  2  0  0  0  0
  5  6  1  0  0  0  0
  6  1  2  0  0  0  0
  7  3  1  0  0  0  0
  7 11  1  0  0  0  0
  8  9  1  0  0  0  0
  8 14  1  0  0  0  0
  8  7  1  0  0  0  0
  9 15  1  0  0  0  0
  9 10  1  0  0  0  0
 10 11  1  0  0  0  0
 10 17  1  0  0  0  0
 11 19  1  0  0  0  0
 13  8  1  0  0  0  0
 16  9  1  0  0  0  0
 18 10  1  0  0  0  0
 20 11  1  0  0  0  0
 21 22  1  0  0  0  0
 21  5  1  0  0  0  0
 23 31  1  0  0  0  0
 23 22  2  0  0  0  0
 24 23  1  0  0  0  0
 25 24  2  0  0  0  0
 25 30  1  0  0  0  0
 26 25  1  0  0  0  0
 27 26  2  0  0  0  0
 27 28  1  0  0  0  0
 28 29  2  0  0  0  0
 29 30  1  0  0  0  0
 29 34  1  0  0  0  0
 30 21  2  0  0  0  0
 32 26  1  0  0  0  0
 33 27  1  0  0  0  0
 34 36  1  0  0  0  0
 35 34  1  0  0  0  0
 37 28  1  0  0  0  0
 37 38  1  0  0  0  0
 38 40  1  0  0  0  0
 38 39  1  0  0  0  0
 40 41  1  0  0  0  0
 42 38  1  0  0  0  0
 43 42  1  0  0  0  0
 44 46  1  0  0  0  0
 45 44  1  0  0  0  0
M  END
>  <minimizedAffinity>
-6.67313099

>  <minimizedRMSD>
0.122863337

$$$$
