
 OpenBabel03252501453D

 21 21  0  0  0  0  0  0  0  0999 V2000
   47.2310   32.5380   44.8000 C   0  0  0  0  0  0  0  0  0  0  0  0
   46.2710   32.8880   45.7760 C   0  0  0  0  0  0  0  0  0  0  0  0
   45.4650   33.9930   45.5530 C   0  0  0  0  0  0  0  0  0  0  0  0
   45.6230   34.7070   44.4010 N   0  0  0  0  0  0  0  0  0  0  0  0
   46.5620   34.3300   43.4900 C   0  0  0  0  0  0  0  0  0  0  0  0
   47.3440   33.2730   43.6870 N   0  0  0  0  0  0  0  0  0  0  0  0
   47.8590   31.6820   44.9670 H   0  0  0  0  0  0  0  0  0  0  0  0
   44.7130   34.3180   46.2530 H   0  0  0  0  0  0  0  0  0  0  0  0
   46.1180   32.1070   47.0070 C   0  0  0  0  0  0  0  0  0  0  0  0
   45.4080   32.4910   48.0620 C   0  0  0  0  0  0  0  0  0  0  0  0
   45.3340   31.5830   49.2710 C   0  0  0  0  0  0  0  0  0  0  0  0
   44.5940   31.9770   49.9740 H   0  0  0  0  0  0  0  0  0  0  0  0
   46.3560   31.4760   49.7140 H   0  0  0  0  0  0  0  0  0  0  0  0
   44.9620   30.6190   48.8630 H   0  0  0  0  0  0  0  0  0  0  0  0
   46.7110   35.1400   42.2290 C   0  0  0  0  0  0  0  0  0  0  0  0
   47.9710   34.7170   41.6260 N   0  0  0  0  0  0  0  0  0  0  0  0
   48.3380   33.8950   42.1660 H   0  0  0  0  0  0  0  0  0  0  0  0
   48.9460   35.7810   41.6070 C   0  0  0  0  0  0  0  0  0  0  0  0
   48.4600   36.7230   41.2800 H   0  0  0  0  0  0  0  0  0  0  0  0
   47.6890   34.3290   40.2490 C   0  0  0  0  0  0  0  0  0  0  0  0
   46.6870   34.7320   39.9360 H   0  0  0  0  0  0  0  0  0  0  0  0
  1  7  1  0  0  0  0
  1  2  1  0  0  0  0
  2  9  1  0  0  0  0
  3  2  2  0  0  0  0
  3  8  1  0  0  0  0
  4  3  1  0  0  0  0
  5  6  1  0  0  0  0
  5  4  2  0  0  0  0
  6  1  2  0  0  0  0
  9 10  2  0  0  0  0
 10 11  1  0  0  0  0
 11 13  1  0  0  0  0
 11 12  1  0  0  0  0
 14 11  1  0  0  0  0
 15  5  1  0  0  0  0
 16 17  1  0  0  0  0
 16 15  1  0  0  0  0
 18 16  1  0  0  0  0
 19 18  1  0  0  0  0
 20 16  1  0  0  0  0
 21 20  1  0  0  0  0
M  END
>  <minimizedAffinity>
-4.09529257

>  <minimizedRMSD>
6.19616413

$$$$
