
     RDKit          3D

 38 40  0  0  0  0  0  0  0  0999 V2000
   45.2160   36.1780   43.4896 C   0  0  0  0  0  0  0  0  0  0  0  0
   45.8569   34.9716   43.1651 C   0  0  0  0  0  0  0  0  0  0  0  0
   45.8067   33.9878   44.1423 C   0  0  0  0  0  0  0  0  0  0  0  0
   45.1866   34.1830   45.3139 N   0  0  0  0  0  0  0  0  0  0  0  0
   44.5780   35.3701   45.5854 C   0  0  0  0  0  0  0  0  0  0  0  0
   44.5964   36.3546   44.6767 N   0  0  0  0  0  0  0  0  0  0  0  0
   46.4284   32.7552   43.8904 C   0  0  0  0  0  0  0  0  0  0  0  0
   47.7073   32.2868   44.0083 C   0  0  0  0  0  0  0  0  0  0  0  0
   48.0403   31.0403   43.6928 C   0  0  0  0  0  0  0  0  0  0  0  0
   47.0440   30.2285   43.2390 C   0  0  0  0  0  0  0  0  0  0  0  0
   45.5575   31.3307   43.2736 S   0  0  0  0  0  0  0  0  0  0  0  0
   46.4966   34.8290   41.9014 C   0  0  0  0  0  0  0  0  0  0  0  0
   47.6908   35.2405   41.8329 O   0  0  0  0  0  0  0  0  0  0  0  0
   45.7561   34.2188   40.7436 C   0  0  0  0  0  0  0  0  0  0  0  0
   44.4030   34.3382   40.4843 C   0  0  0  0  0  0  0  0  0  0  0  0
   44.1944   33.6331   39.3567 N   0  0  0  0  0  0  0  0  0  0  0  0
   45.3851   33.1029   38.9457 C   0  0  0  0  0  0  0  0  0  0  0  0
   46.3512   33.4669   39.8062 N   0  0  0  0  0  0  0  0  0  0  0  0
   45.2180   36.9959   42.7636 H   0  0  0  0  0  0  0  0  0  0  0  0
   44.0823   35.5393   46.5104 H   0  0  0  0  0  0  0  0  0  0  0  0
   48.4393   33.0302   44.3872 H   0  0  0  0  0  0  0  0  0  0  0  0
   49.0288   30.6051   43.7613 H   0  0  0  0  0  0  0  0  0  0  0  0
   47.0338   29.1906   42.9175 H   0  0  0  0  0  0  0  0  0  0  0  0
   43.6678   34.8905   41.0763 H   0  0  0  0  0  0  0  0  0  0  0  0
   43.2587   33.5362   38.9076 H   0  0  0  0  0  0  0  0  0  0  0  0
   45.4485   32.2627   37.7031 C   0  0  0  0  0  0  0  0  0  0  0  0
   44.7122   32.8481   36.6175 N   0  0  0  0  0  4  0  0  0  0  0  0
   45.6173   33.5729   35.7401 C   0  0  0  0  0  0  0  0  0  0  0  0
   45.8681   34.5268   36.2702 H   0  0  0  0  0  0  0  0  0  0  0  0
   43.8802   31.9188   35.8912 C   0  0  0  0  0  0  0  0  0  0  0  0
   43.1718   31.4907   36.6356 H   0  0  0  0  0  0  0  0  0  0  0  0
   46.5118   32.0494   37.4674 H   0  0  0  0  0  0  0  0  0  0  0  0
   45.0038   31.2611   37.9207 H   0  0  0  0  0  0  0  0  0  0  0  0
   44.0574   33.5705   37.0122 H   0  0  0  0  0  0  0  0  0  0  0  0
   45.0738   33.8778   34.8382 H   0  0  0  0  0  0  0  0  0  0  0  0
   46.4957   32.9498   35.5679 H   0  0  0  0  0  0  0  0  0  0  0  0
   44.4692   31.1738   35.3443 H   0  0  0  0  0  0  0  0  0  0  0  0
   43.3126   32.5460   35.1542 H   0  0  0  0  0  0  0  0  0  0  0  0
  1  6  2  0
  2  1  1  0
  2  3  2  0
  3  4  1  0
  4  5  2  0
  6  5  1  0
  7  8  2  0
  7  3  1  0
  9  8  1  0
 10 11  1  0
 10  9  2  0
 11  7  1  0
 12  2  1  0
 13 12  2  0
 14 12  1  0
 15 14  2  0
 16 15  1  0
 17 16  1  0
 17 18  2  0
 18 14  1  0
  1 19  1  0
  5 20  1  0
  8 21  1  0
  9 22  1  0
 10 23  1  0
 15 24  1  0
 16 25  1  0
 26 27  1  0
 27 28  1  0
 28 29  1  0
 27 30  1  0
 30 31  1  0
 26 32  1  0
 26 33  1  0
 27 34  1  0
 28 35  1  0
 28 36  1  0
 30 37  1  0
 30 38  1  0
 17 26  1  0
M  ISO  8  19  14  20  14  21  14  22  14  23  14  24  14  25   9  29   8
M  CHG  1  27   1
M  ISO  1  31   8
M  END
>  <DihAtoms>  (1) 
15,16,25,26

>  <DihDeg>  (1) 
-89.99575840831089

$$$$
