
     RDKit          3D

 28 28  0  0  0  0  0  0  0  0999 V2000
   44.5967   35.9901   44.5116 C   0  0  0  0  0  0  0  0  0  0  0  0
   45.2255   36.0056   43.2546 C   0  0  0  0  0  0  0  0  0  0  0  0
   46.0923   34.9504   42.9760 C   0  0  0  0  0  0  0  0  0  0  0  0
   46.2912   33.9789   43.8973 N   0  0  0  0  0  0  0  0  0  0  0  0
   45.6671   33.9961   45.1007 C   0  0  0  0  0  0  0  0  0  0  0  0
   44.8172   35.0101   45.4019 N   0  0  0  0  0  0  0  0  0  0  0  0
   46.7169   34.9673   41.7253 O   0  0  0  0  0  0  0  0  0  0  0  0
   48.6524   33.3296   40.9769 O   0  0  0  0  0  0  0  0  0  0  0  0
   48.4005   34.6879   41.6320 P   0  0  0  0  0  0  0  0  0  0  0  0
   49.1213   35.9284   40.7858 O   0  0  0  0  0  0  0  0  0  0  0  0
   48.9936   34.5967   43.2189 O   0  0  0  0  0  0  0  0  0  0  0  0
   43.9282   36.8229   44.7009 H   0  0  0  0  0  0  0  0  0  0  0  0
   45.0420   36.7963   42.5474 H   0  0  0  0  0  0  0  0  0  0  0  0
   49.9095   36.2433   41.2973 H   0  0  0  0  0  0  0  0  0  0  0  0
   49.0207   33.6671   43.5522 H   0  0  0  0  0  0  0  0  0  0  0  0
   45.9360   32.9078   46.0421 C   0  0  0  0  0  0  0  0  0  0  0  0
   45.2577   31.7020   45.6364 N   0  0  0  0  0  4  0  0  0  0  0  0
   45.5259   30.6206   46.5716 C   0  0  0  0  0  0  0  0  0  0  0  0
   46.3335   29.9545   46.2089 H   0  0  0  0  0  0  0  0  0  0  0  0
   45.4696   31.3160   44.2776 C   0  0  0  0  0  0  0  0  0  0  0  0
   45.7578   30.2300   44.1908 H   0  0  0  0  0  0  0  0  0  0  0  0
   47.0125   32.6645   46.0972 H   0  0  0  0  0  0  0  0  0  0  0  0
   45.5179   33.1767   47.0424 H   0  0  0  0  0  0  0  0  0  0  0  0
   44.2288   31.9065   45.7374 H   0  0  0  0  0  0  0  0  0  0  0  0
   45.7433   31.0713   47.5508 H   0  0  0  0  0  0  0  0  0  0  0  0
   44.6224   29.9883   46.6796 H   0  0  0  0  0  0  0  0  0  0  0  0
   44.5367   31.3818   43.6532 H   0  0  0  0  0  0  0  0  0  0  0  0
   46.2438   31.8659   43.7346 H   0  0  0  0  0  0  0  0  0  0  0  0
  1  6  2  0
  2  1  1  0
  3  2  2  0
  3  4  1  0
  4  5  2  0
  5  6  1  0
  7  3  1  0
  8  9  2  0
  9  7  1  0
  9 11  1  0
 10  9  1  0
  1 12  1  0
  2 13  1  0
 10 14  1  0
 11 15  1  0
 16 17  1  0
 17 18  1  0
 18 19  1  0
 17 20  1  0
 20 21  1  0
 16 22  1  0
 16 23  1  0
 17 24  1  0
 18 25  1  0
 18 26  1  0
 20 27  1  0
 20 28  1  0
  5 16  1  0
M  CHG  1  17   1
M  ISO  6  12  14  13  14  14   3  15   3  19   8  21   8
M  END
>  <DihAtoms>  (1) 
3,4,15,16

>  <DihDeg>  (1) 
90.00335176697106

$$$$
