
     RDKit          3D

 43 45  0  0  0  0  0  0  0  0999 V2000
   45.9452   33.5122   45.8434 C   0  0  0  0  0  0  0  0  0  0  0  0
   46.6933   33.6187   44.6514 C   0  0  0  0  0  0  0  0  0  0  0  0
   47.2942   32.4333   44.1316 C   0  0  0  0  0  0  0  0  0  0  0  0
   47.1185   31.2567   44.8081 N   0  0  0  0  0  0  0  0  0  0  0  0
   46.3907   31.2170   45.9458 C   0  0  0  0  0  0  0  0  0  0  0  0
   45.8144   32.3339   46.4513 N   0  0  0  0  0  0  0  0  0  0  0  0
   46.2698   29.9667   46.5656 N   0  0  0  0  0  0  0  0  0  0  0  0
   47.4228   29.2534   47.0051 C   0  0  2  0  0  0  0  0  0  0  0  0
   47.1668   27.8431   47.4039 C   0  0  0  0  0  0  0  0  0  0  0  0
   45.8891   27.5363   47.9271 N   0  0  0  0  0  0  0  0  0  0  0  0
   45.0264   28.6596   48.0766 C   0  0  0  0  0  0  0  0  0  0  0  0
   44.9511   29.3910   46.7638 C   0  0  0  0  0  0  0  0  0  0  0  0
   48.1877   30.0137   48.0239 C   0  0  0  0  0  0  0  0  0  0  0  0
   47.7979   30.8284   49.0711 C   0  0  0  0  0  0  0  0  0  0  0  0
   48.8610   31.2995   49.7437 N   0  0  0  0  0  0  0  0  0  0  0  0
   49.9321   30.7844   49.1251 C   0  0  0  0  0  0  0  0  0  0  0  0
   49.5300   30.0229   48.1064 N   0  0  0  0  0  0  0  0  0  0  0  0
   45.5281   34.4421   46.1674 H   0  0  0  0  0  0  0  0  0  0  0  0
   46.8933   34.4719   44.0487 H   0  0  0  0  0  0  0  0  0  0  0  0
   47.8804   32.4330   43.2264 H   0  0  0  0  0  0  0  0  0  0  0  0
   48.0868   29.1673   46.0909 H   0  0  0  0  0  0  0  0  0  0  0  0
   47.9173   27.5926   48.2104 H   0  0  0  0  0  0  0  0  0  0  0  0
   47.3855   27.1170   46.5948 H   0  0  0  0  0  0  0  0  0  0  0  0
   45.3829   26.8000   47.3702 H   0  0  0  0  0  0  0  0  0  0  0  0
   43.9906   28.2307   48.2232 H   0  0  0  0  0  0  0  0  0  0  0  0
   45.1917   29.2868   48.9545 H   0  0  0  0  0  0  0  0  0  0  0  0
   44.1665   30.1992   46.7911 H   0  0  0  0  0  0  0  0  0  0  0  0
   44.6966   28.6575   45.9861 H   0  0  0  0  0  0  0  0  0  0  0  0
   46.7665   31.0441   49.2977 H   0  0  0  0  0  0  0  0  0  0  0  0
   48.8096   31.9372   50.5764 H   0  0  0  0  0  0  0  0  0  0  0  0
   51.3037   31.1053   49.6173 C   0  0  0  0  0  0  0  0  0  0  0  0
   51.3862   31.0035   51.0583 N   0  0  0  0  0  4  0  0  0  0  0  0
   52.1128   29.8084   51.4673 C   0  0  0  0  0  0  0  0  0  0  0  0
   52.0944   29.0106   50.6904 H   0  0  0  0  0  0  0  0  0  0  0  0
   52.0770   32.1456   51.6098 C   0  0  0  0  0  0  0  0  0  0  0  0
   51.3591   32.9007   52.0276 H   0  0  0  0  0  0  0  0  0  0  0  0
   52.0675   30.4498   49.1595 H   0  0  0  0  0  0  0  0  0  0  0  0
   51.5794   32.1459   49.3287 H   0  0  0  0  0  0  0  0  0  0  0  0
   50.4299   30.9619   51.4908 H   0  0  0  0  0  0  0  0  0  0  0  0
   51.6806   29.4257   52.4147 H   0  0  0  0  0  0  0  0  0  0  0  0
   53.1843   30.0154   51.6640 H   0  0  0  0  0  0  0  0  0  0  0  0
   52.6292   32.6396   50.7834 H   0  0  0  0  0  0  0  0  0  0  0  0
   52.7404   31.8628   52.4536 H   0  0  0  0  0  0  0  0  0  0  0  0
  1  6  2  0
  2  1  1  0
  3  2  2  0
  3  4  1  0
  4  5  2  0
  5  6  1  0
  5  7  1  0
  7 12  1  0
  7  8  1  0
  8  9  1  0
  8 13  1  0
  9 10  1  0
 10 11  1  0
 12 11  1  0
 13 17  1  0
 13 14  2  0
 14 15  1  0
 16 15  1  0
 17 16  2  0
  1 18  1  0
  2 19  1  0
  3 20  1  0
  8 21  1  6
  9 22  1  0
  9 23  1  0
 10 24  1  0
 11 25  1  0
 11 26  1  0
 12 27  1  0
 12 28  1  0
 14 29  1  0
 15 30  1  0
 31 32  1  0
 32 33  1  0
 33 34  1  0
 32 35  1  0
 35 36  1  0
 31 37  1  0
 31 38  1  0
 32 39  1  0
 33 40  1  0
 33 41  1  0
 35 42  1  0
 35 43  1  0
 16 31  1  0
M  ISO  8  18  14  19  14  20  14  21  13  22  13  23  13  24   5  25  13
M  CHG  1  32   1
M  ISO  7  26  13  27  13  28  13  29  14  30   9  34   8  36   8
M  END
>  <DihAtoms>  (1) 
14,15,30,31

>  <DihDeg>  (1) 
-90.00016930430796

$$$$
