
     RDKit          3D

 29 29  0  0  0  0  0  0  0  0999 V2000
   44.6807   35.5228   43.5979 C   0  0  0  0  0  0  0  0  0  0  0  0
   43.9315   35.4270   42.4079 C   0  0  0  0  0  0  0  0  0  0  0  0
   43.7848   34.1603   41.8379 C   0  0  0  0  0  0  0  0  0  0  0  0
   44.3624   33.0988   42.4487 N   0  0  0  0  0  0  0  0  0  0  0  0
   45.0746   33.2243   43.5892 C   0  0  0  0  0  0  0  0  0  0  0  0
   45.2207   34.4278   44.1412 N   0  0  0  0  0  0  0  0  0  0  0  0
   44.8464   36.8407   44.2113 C   0  0  0  0  0  0  0  0  0  0  0  0
   45.2435   37.8489   43.4556 C   0  0  0  0  0  0  0  0  0  0  0  0
   45.4364   39.2154   43.9961 C   0  0  0  0  0  0  0  0  0  0  0  0
   43.5229   36.3251   42.0157 H   0  0  0  0  0  0  0  0  0  0  0  0
   43.2112   34.0786   40.9246 H   0  0  0  0  0  0  0  0  0  0  0  0
   44.6758   37.0995   45.2518 H   0  0  0  0  0  0  0  0  0  0  0  0
   45.4314   37.6583   42.4072 H   0  0  0  0  0  0  0  0  0  0  0  0
   46.4338   39.3322   44.4499 H   0  0  0  0  0  0  0  0  0  0  0  0
   44.6455   39.4580   44.7385 H   0  0  0  0  0  0  0  0  0  0  0  0
   45.3511   39.9582   43.1740 H   0  0  0  0  0  0  0  0  0  0  0  0
   45.6240   31.9644   44.1025 C   0  0  0  0  0  0  0  0  0  0  0  0
   46.5290   31.2971   43.1855 N   0  0  0  0  0  4  0  0  0  0  0  0
   47.2516   30.3212   43.9812 C   0  0  0  0  0  0  0  0  0  0  0  0
   46.4865   29.8252   44.6375 H   0  0  0  0  0  0  0  0  0  0  0  0
   45.8480   30.6085   42.1316 C   0  0  0  0  0  0  0  0  0  0  0  0
   44.8064   30.3509   42.3815 H   0  0  0  0  0  0  0  0  0  0  0  0
   44.8368   31.2323   44.3921 H   0  0  0  0  0  0  0  0  0  0  0  0
   46.2253   32.1797   45.0140 H   0  0  0  0  0  0  0  0  0  0  0  0
   47.1956   31.9854   42.7491 H   0  0  0  0  0  0  0  0  0  0  0  0
   47.9177   30.8874   44.6821 H   0  0  0  0  0  0  0  0  0  0  0  0
   47.8324   29.5987   43.3870 H   0  0  0  0  0  0  0  0  0  0  0  0
   45.9154   31.1653   41.1511 H   0  0  0  0  0  0  0  0  0  0  0  0
   46.3851   29.6595   41.9242 H   0  0  0  0  0  0  0  0  0  0  0  0
  1  6  2  0
  1  7  1  0
  2  1  1  0
  3  2  2  0
  3  4  1  0
  4  5  2  0
  5  6  1  0
  8  9  1  0
  8  7  2  0
  2 10  1  0
  3 11  1  0
  7 12  1  0
  8 13  1  0
  9 14  1  0
  9 15  1  0
  9 16  1  0
 17 18  1  0
 18 19  1  0
 19 20  1  0
 18 21  1  0
 21 22  1  0
 17 23  1  0
 17 24  1  0
 18 25  1  0
 19 26  1  0
 19 27  1  0
 21 28  1  0
 21 29  1  0
  5 17  1  0
M  CHG  1  18   1
M  ISO  7  10  14  11  14  14   8  15   8  16   8  20   8  22   8
M  END
>  <DihAtoms>  (1) 
3,4,16,17

>  <DihDeg>  (1) 
90.00014509307204

$$$$
