
 OpenBabel03242523193D

 35 37  0  0  0  0  0  0  0  0999 V2000
   46.3110   33.5460   44.7240 C   0  0  0  0  0  0  0  0  0  0  0  0
   45.7280   33.9410   45.7040 O   0  0  0  0  0  0  0  0  0  0  0  0
   44.5870   31.7380   42.9190 Cl  0  0  0  0  0  0  0  0  0  0  0  0
   44.5860   33.4990   42.7930 C   0  0  0  0  0  0  0  0  0  0  0  0
   45.4360   34.1710   43.6980 C   0  0  0  0  0  0  0  0  0  0  0  0
   45.3630   35.5390   43.4970 C   0  0  0  0  0  0  0  0  0  0  0  0
   44.6440   36.2480   42.6170 C   0  0  0  0  0  0  0  0  0  0  0  0
   43.8490   35.5230   41.7810 C   0  0  0  0  0  0  0  0  0  0  0  0
   43.8030   34.1720   41.8500 C   0  0  0  0  0  0  0  0  0  0  0  0
   45.9470   36.2210   44.1540 H   0  0  0  0  0  0  0  0  0  0  0  0
   44.6310   37.3220   42.5060 H   0  0  0  0  0  0  0  0  0  0  0  0
   43.2090   35.9560   41.0160 H   0  0  0  0  0  0  0  0  0  0  0  0
   42.9170   33.3600   40.9590 C   0  0  0  0  0  2  0  0  0  0  0  0
   41.6110   33.9210   40.8140 N   0  0  0  0  0  4  0  0  0  0  0  0
   41.6660   34.8920   41.2560 H   0  0  0  0  0  0  0  0  0  0  0  0
   40.5370   33.2130   41.4300 C   0  0  0  0  0  2  0  0  0  0  0  0
   39.8810   32.7200   40.6540 H   0  0  0  0  0  0  0  0  0  0  0  0
   41.2950   34.1550   39.4210 C   0  0  0  0  0  2  0  0  0  0  0  0
   41.4700   35.2230   39.1270 H   0  0  0  0  0  0  0  0  0  0  0  0
   47.3800   32.8060   44.0430 C   0  0  0  0  0  0  0  0  0  0  0  0
   48.2310   33.2990   43.1310 C   0  0  0  0  0  0  0  0  0  0  0  0
   49.0810   32.3650   42.5740 C   0  0  0  0  0  0  0  0  0  0  0  0
   48.9860   31.0260   43.0000 N   0  0  0  0  0  0  0  0  0  0  0  0
   48.1260   30.6220   43.9050 C   0  0  0  0  0  0  0  0  0  0  0  0
   47.2590   31.5270   44.4810 N   0  0  0  0  0  0  0  0  0  0  0  0
   49.8240   32.5950   41.8210 H   0  0  0  0  0  0  0  0  0  0  0  0
   48.1730   29.5610   44.1330 H   0  0  0  0  0  0  0  0  0  0  0  0
   48.4040   34.6660   42.7860 C   0  0  0  0  0  0  0  0  0  0  0  0
   49.4180   35.2490   42.0950 C   0  0  0  0  0  0  0  0  0  0  0  0
   48.1820   35.0500   41.2620 C   0  0  0  0  0  0  0  0  0  0  0  0
   47.9420   35.3640   43.5070 H   0  0  0  0  0  0  0  0  0  0  0  0
   50.2800   34.6360   41.7310 H   0  0  0  0  0  0  0  0  0  0  0  0
   49.7500   36.3210   42.1020 H   0  0  0  0  0  0  0  0  0  0  0  0
   48.1170   34.1820   40.5920 H   0  0  0  0  0  0  0  0  0  0  0  0
   47.4990   35.9010   41.1290 H   0  0  0  0  0  0  0  0  0  0  0  0
  1  2  2  0  0  0  0
  4  3  1  0  0  0  0
  4  5  1  0  0  0  0
  5  1  1  0  0  0  0
  6  5  2  0  0  0  0
  6 10  1  0  0  0  0
  7  6  1  0  0  0  0
  8  9  1  0  0  0  0
  8  7  2  0  0  0  0
  9  4  2  0  0  0  0
 11  7  1  0  0  0  0
 12  8  1  0  0  0  0
 13  9  1  0  0  0  0
 14 13  1  0  0  0  0
 14 15  1  0  0  0  0
 14 16  1  0  0  0  0
 17 16  1  0  0  0  0
 18 14  1  0  0  0  0
 19 18  1  0  0  0  0
 20 25  1  0  0  0  0
 20  1  1  0  0  0  0
 21 20  2  0  0  0  0
 22 23  2  0  0  0  0
 22 21  1  0  0  0  0
 23 24  1  0  0  0  0
 24 27  1  0  0  0  0
 24 25  2  0  0  0  0
 26 22  1  0  0  0  0
 28 21  1  0  0  0  0
 28 31  1  0  0  0  0
 29 33  1  0  0  0  0
 29 28  1  0  0  0  0
 30 29  1  0  0  0  0
 30 28  1  0  0  0  0
 32 29  1  0  0  0  0
 34 30  1  0  0  0  0
 35 30  1  0  0  0  0
M  END
>  <minimizedAffinity>
-5.18384981

>  <minimizedRMSD>
0.653742015

$$$$
