REMARK  Name = 
REMARK  12 active torsions:
REMARK  status: ('A' for Active; 'I' for Inactive)
REMARK    1  A    between atoms: C_1  and  N_2
REMARK    2  A    between atoms: C_1  and  S_8
REMARK    3  A    between atoms: N_2  and  S_3
REMARK    4  A    between atoms: S_3  and  O_4
REMARK    5  A    between atoms: S_3  and  O_5
REMARK    6  A    between atoms: S_3  and  O_6
REMARK    7  A    between atoms: O_6  and  C_7
REMARK    8  A    between atoms: S_8  and  C_10
REMARK    9  A    between atoms: C_13  and  C_25
REMARK   10  A    between atoms: C_25  and  N_26
REMARK   11  A    between atoms: N_26  and  C_27
REMARK   12  A    between atoms: N_26  and  C_29
REMARK                            x       y       z     vdW  Elec       q    Type
REMARK                         _______ _______ _______ _____ _____    ______ ____
ROOT
ATOM      1  S   UNL     1      42.814  33.797  41.230  0.00  0.00    +0.000 S 
ENDROOT
BRANCH   1   3
ATOM      2  C   UNL     1      40.118  33.119  41.336  0.00  0.00    +0.000 A 
ATOM      3  C   UNL     1      41.088  33.862  40.699  0.00  0.00    +0.000 A 
ATOM      4  C   UNL     1      40.771  34.692  39.618  0.00  0.00    +0.000 A 
ATOM      5  N   UNL     1      39.456  34.717  39.243  0.00  0.00    +0.000 NA
ATOM      6  C   UNL     1      38.536  33.983  39.883  0.00  0.00    +0.000 A 
ATOM      7  N   UNL     1      38.841  33.191  40.914  0.00  0.00    +0.000 NA
ATOM      8  H   UNL     1      40.379  32.479  42.173  0.00  0.00    +0.000 HD
ATOM      9  H   UNL     1      41.570  35.254  39.153  0.00  0.00    +0.000 HD
BRANCH   6  10
ATOM     10  C   UNL     1      37.155  34.141  39.331  0.00  0.00    +0.000 C 
BRANCH  10  11
ATOM     11  N   UNL     1      36.976  33.450  38.087  0.00  0.00    +0.000 N 
ATOM     12  H   UNL     1      37.840  33.377  37.510  0.00  0.00    +0.000 HD
BRANCH  11  13
ATOM     13  C   UNL     1      36.454  32.103  38.362  0.00  0.00    +0.000 C 
ATOM     14  H   UNL     1      36.414  31.934  39.448  0.00  0.00    +0.000 HD
ENDBRANCH  11  13
BRANCH  11  15
ATOM     15  C   UNL     1      35.956  34.145  37.323  0.00  0.00    +0.000 C 
ATOM     16  H   UNL     1      35.953  33.865  36.246  0.00  0.00    +0.000 HD
ENDBRANCH  11  15
ENDBRANCH  10  11
ENDBRANCH   6  10
ENDBRANCH   1   3
BRANCH   1  17
ATOM     17  C   UNL     1      43.364  35.439  41.702  0.00  0.00    +0.000 C 
ATOM     18  H   UNL     1      42.723  36.197  41.179  0.00  0.00    +0.000 HD
ATOM     19  H   UNL     1      44.427  35.529  41.431  0.00  0.00    +0.000 HD
BRANCH  17  20
ATOM     20  N   UNL     1      43.228  35.528  43.146  0.00  0.00    +0.000 NA
ATOM     21  H   UNL     1      42.556  36.294  43.378  0.00  0.00    +0.000 HD
BRANCH  20  22
ATOM     22  S   UNL     1      44.715  35.830  43.940  0.00  0.00    +0.000 S 
BRANCH  22  23
ATOM     23  O   UNL     1      45.868  35.265  43.185  0.00  0.00    +0.000 OA
ATOM     24  H   UNL     1      45.951  34.431  42.681  0.00  0.00    +0.000 HD
ENDBRANCH  22  23
BRANCH  22  25
ATOM     25  O   UNL     1      44.846  37.344  44.035  0.00  0.00    +0.000 OA
ATOM     26  H   UNL     1      44.163  37.932  44.445  0.00  0.00    +0.000 HD
ENDBRANCH  22  25
BRANCH  22  27
ATOM     27  O   UNL     1      44.665  35.246  45.502  0.00  0.00    +0.000 OA
BRANCH  27  28
ATOM     28  C   UNL     1      45.403  34.083  45.650  0.00  0.00    +0.000 C 
ATOM     29  H   UNL     1      44.741  33.236  45.350  0.00  0.00    +0.000 HD
ATOM     30  H   UNL     1      45.626  33.940  46.728  0.00  0.00    +0.000 HD
ATOM     31  H   UNL     1      46.305  34.031  45.015  0.00  0.00    +0.000 HD
ENDBRANCH  27  28
ENDBRANCH  22  27
ENDBRANCH  20  22
ENDBRANCH  17  20
ENDBRANCH   1  17
TORSDOF 12
