
     RDKit          3D

 40 42  0  0  0  0  0  0  0  0999 V2000
   45.0032   33.0890   41.0800 Cl  0  0  0  0  0  0  0  0  0  0  0  0
   46.4890   33.9838   40.9307 C   0  0  0  0  0  0  0  0  0  0  0  0
   46.9438   34.8003   41.9298 C   0  0  0  0  0  0  0  0  0  0  0  0
   48.1187   35.4534   41.6922 C   0  0  0  0  0  0  0  0  0  0  0  0
   48.8149   35.3213   40.5464 C   0  0  0  0  0  0  0  0  0  0  0  0
   48.3644   34.5057   39.5440 C   0  0  0  0  0  0  0  0  0  0  0  0
   47.1650   33.8205   39.7513 C   0  0  0  0  0  0  0  0  0  0  0  0
   44.4718   35.9787   44.5499 C   0  0  0  0  0  0  0  0  0  0  0  0
   45.2193   35.9036   43.3670 C   0  0  0  0  0  0  0  0  0  0  0  0
   46.1599   34.9046   43.1351 C   0  0  0  0  0  0  0  0  0  0  0  0
   46.2840   34.0153   44.1572 N   0  0  0  0  0  0  0  0  0  0  0  0
   45.5771   34.0775   45.2882 C   0  0  0  0  0  0  0  0  0  0  0  0
   44.6765   35.0545   45.4819 N   0  0  0  0  0  0  0  0  0  0  0  0
   46.6600   32.9366   38.6783 C   0  0  0  0  0  0  0  0  0  0  0  0
   46.7165   31.5442   38.7581 C   0  0  0  0  0  0  0  0  0  0  0  0
   45.9708   31.0023   37.1886 S   0  0  0  0  0  0  0  0  0  0  0  0
   45.6907   32.8211   36.6517 C   0  0  0  0  0  0  0  0  0  0  0  0
   46.1133   33.3319   37.5476 N   0  0  0  0  0  0  0  0  0  0  0  0
   45.1010   33.2496   35.4221 N   0  0  0  0  0  0  0  0  0  0  0  0
   48.5134   36.1088   42.4560 H   0  0  0  0  0  0  0  0  0  0  0  0
   49.7463   35.8485   40.3758 H   0  0  0  0  0  0  0  0  0  0  0  0
   48.9425   34.4133   38.6255 H   0  0  0  0  0  0  0  0  0  0  0  0
   43.7790   36.8020   44.5991 H   0  0  0  0  0  0  0  0  0  0  0  0
   45.1028   36.6250   42.5649 H   0  0  0  0  0  0  0  0  0  0  0  0
   45.7119   33.3420   46.0784 H   0  0  0  0  0  0  0  0  0  0  0  0
   44.1451   33.0029   35.0827 H   0  0  0  0  0  0  0  0  0  0  0  0
   45.7485   33.8716   34.8529 H   0  0  0  0  0  0  0  0  0  0  0  0
   47.2229   30.6000   39.7505 C   0  0  0  0  0  0  0  0  0  0  0  0
   48.6308   30.8110   40.0028 N   0  0  0  0  0  4  0  0  0  0  0  0
   48.9733   32.1509   40.3632 C   0  0  0  0  0  0  0  0  0  0  0  0
   48.0926   32.7893   40.5029 H   0  0  0  0  0  0  0  0  0  0  0  0
   49.4750   30.2863   38.9550 C   0  0  0  0  0  0  0  0  0  0  0  0
   49.0634   30.4709   37.9412 H   0  0  0  0  0  0  0  0  0  0  0  0
   46.6990   30.6447   40.7222 H   0  0  0  0  0  0  0  0  0  0  0  0
   47.1264   29.5724   39.3759 H   0  0  0  0  0  0  0  0  0  0  0  0
   48.8432   30.2141   40.8584 H   0  0  0  0  0  0  0  0  0  0  0  0
   49.5287   32.2153   41.3447 H   0  0  0  0  0  0  0  0  0  0  0  0
   49.7072   32.5221   39.6159 H   0  0  0  0  0  0  0  0  0  0  0  0
   49.6320   29.1798   39.0703 H   0  0  0  0  0  0  0  0  0  0  0  0
   50.4694   30.7865   38.9913 H   0  0  0  0  0  0  0  0  0  0  0  0
  2  1  1  0
  2  3  2  0
  3 10  1  0
  4  3  1  0
  5  4  2  0
  6  7  2  0
  6  5  1  0
  7  2  1  0
  8 13  2  0
  9  8  1  0
 10  9  2  0
 10 11  1  0
 11 12  2  0
 12 13  1  0
 14 15  2  0
 14  7  1  0
 16 15  1  0
 17 16  1  0
 17 18  2  0
 18 14  1  0
 19 17  1  0
  4 20  1  0
  5 21  1  0
  6 22  1  0
  8 23  1  0
  9 24  1  0
 12 25  1  0
 19 26  1  0
 19 27  1  0
 28 29  1  0
 29 30  1  0
 30 31  1  0
 29 32  1  0
 32 33  1  0
 28 34  1  0
 28 35  1  0
 29 36  1  0
 30 37  1  0
 30 38  1  0
 32 39  1  0
 32 40  1  0
 15 28  1  0
M  ISO  8  20  14  21  14  22  14  23  14  24  14  25  14  31   8  33   8
M  CHG  1  29   1
M  END
>  <DihAtoms>  (1) 
13,14,27,28

>  <DihDeg>  (1) 
-178.51586077214998

$$$$
