
 OpenBabel03252508543D

 41 43  0  0  1  0  0  0  0  0999 V2000
   43.2110   34.3990   40.5570 C   0  0  0  0  0  0  0  0  0  0  0  0
   42.6530   35.5050   40.8820 O   0  0  0  0  0  0  0  0  0  0  0  0
   42.3990   34.0730   39.3960 N   0  0  0  0  0  0  0  0  0  0  0  0
   42.4330   35.0530   38.3290 C   0  0  0  0  0  0  0  0  0  0  0  0
   41.1400   35.8450   38.4780 C   0  0  0  0  0  0  0  0  0  0  0  0
   40.0680   34.8720   38.9620 C   0  0  0  0  0  0  0  0  0  0  0  0
   40.3460   33.4580   38.4450 C   0  0  0  0  0  0  0  0  0  0  0  0
   41.5600   32.8930   39.1690 C   0  0  2  0  0  0  0  0  0  0  0  0
   43.2800   35.7590   38.4080 H   0  0  0  0  0  0  0  0  0  0  0  0
   42.3920   34.5650   37.3240 H   0  0  0  0  0  0  0  0  0  0  0  0
   41.2920   36.5690   39.3050 H   0  0  0  0  0  0  0  0  0  0  0  0
   40.8380   36.3460   37.5400 H   0  0  0  0  0  0  0  0  0  0  0  0
   39.0650   35.1750   38.6480 H   0  0  0  0  0  0  0  0  0  0  0  0
   40.1110   34.8030   40.0740 H   0  0  0  0  0  0  0  0  0  0  0  0
   40.5780   33.5600   37.3520 H   0  0  0  0  0  0  0  0  0  0  0  0
   39.4370   32.8720   38.6210 H   0  0  0  0  0  0  0  0  0  0  0  0
   42.0860   32.2370   38.4660 H   0  0  0  0  0  0  0  0  0  0  0  0
   44.2610   33.7590   41.1620 O   0  0  0  0  0  0  0  0  0  0  0  0
   45.5980   34.0470   40.9690 C   0  0  0  0  0  0  0  0  0  0  0  0
   46.2990   34.6580   42.0060 C   0  0  0  0  0  0  0  0  0  0  0  0
   47.6490   34.9370   41.7820 C   0  0  0  0  0  0  0  0  0  0  0  0
   48.1990   34.6000   40.5750 N   0  0  0  0  0  0  0  0  0  0  0  0
   47.4920   34.0210   39.6240 C   0  0  0  0  0  0  0  0  0  0  0  0
   46.1830   33.7400   39.8120 N   0  0  0  0  0  0  0  0  0  0  0  0
   48.2120   35.4080   42.5660 H   0  0  0  0  0  0  0  0  0  0  0  0
   47.9080   33.7450   38.6610 H   0  0  0  0  0  0  0  0  0  0  0  0
   45.6200   34.9750   43.2500 C   0  0  0  0  0  0  0  0  0  0  0  0
   45.0180   36.1960   43.4970 C   0  0  0  0  0  0  0  0  0  0  0  0
   44.5090   36.0700   44.7600 C   0  0  0  0  0  0  0  0  0  0  0  0
   44.7820   34.8430   45.2640 N   0  0  0  0  0  0  0  0  0  0  0  0
   45.4500   34.2140   44.3300 N   0  0  0  0  0  0  0  0  0  0  0  0
   44.9690   37.0450   42.8300 H   0  0  0  0  0  0  0  0  0  0  0  0
   43.9530   36.8210   45.3320 H   0  0  0  0  0  0  0  0  0  0  0  0
   44.5300   34.4300   46.2110 H   0  0  0  0  0  0  0  0  0  0  0  0
   41.1810   32.2220   40.4570 C   0  0  0  0  0  2  0  0  0  0  0  0
   39.9720   31.4390   40.3000 N   0  0  0  0  0  4  0  0  0  0  0  0
   39.4830   31.6480   39.4100 H   0  0  0  0  0  0  0  0  0  0  0  0
   39.0300   31.7650   41.3810 C   0  0  0  0  0  2  0  0  0  0  0  0
   38.2160   31.0310   41.4230 H   0  0  0  0  0  0  0  0  0  0  0  0
   40.2330   30.0160   40.3250 C   0  0  0  0  0  2  0  0  0  0  0  0
   41.0580   29.7460   41.0290 H   0  0  0  0  0  0  0  0  0  0  0  0
  1  2  2  0  0  0  0
  1 18  1  0  0  0  0
  3  1  1  0  0  0  0
  4  9  1  0  0  0  0
  4  5  1  0  0  0  0
  4  3  1  0  0  0  0
  5  6  1  0  0  0  0
  5 11  1  0  0  0  0
  6 14  1  0  0  0  0
  7 16  1  0  0  0  0
  7  6  1  0  0  0  0
  7  8  1  0  0  0  0
  8 17  1  6  0  0  0
  8  3  1  0  0  0  0
  8 35  1  0  0  0  0
 10  4  1  0  0  0  0
 12  5  1  0  0  0  0
 13  6  1  0  0  0  0
 15  7  1  0  0  0  0
 19 18  1  0  0  0  0
 19 20  1  0  0  0  0
 20 27  1  0  0  0  0
 21 20  2  0  0  0  0
 21 25  1  0  0  0  0
 22 21  1  0  0  0  0
 23 24  1  0  0  0  0
 23 22  2  0  0  0  0
 24 19  2  0  0  0  0
 26 23  1  0  0  0  0
 27 28  1  0  0  0  0
 27 31  2  0  0  0  0
 28 29  2  0  0  0  0
 29 30  1  0  0  0  0
 29 33  1  0  0  0  0
 30 34  1  0  0  0  0
 31 30  1  0  0  0  0
 32 28  1  0  0  0  0
 36 40  1  0  0  0  0
 36 35  1  0  0  0  0
 36 38  1  0  0  0  0
 37 36  1  0  0  0  0
 38 39  1  0  0  0  0
 40 41  1  0  0  0  0
M  END
>  <minimizedAffinity>
-5.90842772

>  <minimizedRMSD>
1.99812233

$$$$
