
 OpenBabel03242518123D

 29 30  0  0  0  0  0  0  0  0999 V2000
   49.1790   34.3050   42.2190 C   0  0  0  0  0  0  0  0  0  0  0  0
   50.1160   34.8730   42.3980 H   0  0  0  0  0  0  0  0  0  0  0  0
   48.8790   33.8900   43.2090 H   0  0  0  0  0  0  0  0  0  0  0  0
   49.4350   33.2820   41.2560 C   0  0  0  0  0  0  0  0  0  0  0  0
   48.8610   32.8310   40.0190 C   0  0  0  0  0  0  0  0  0  0  0  0
   49.4340   31.7750   39.3710 C   0  0  0  0  0  0  0  0  0  0  0  0
   50.6030   31.1590   39.9760 C   0  0  0  0  0  0  0  0  0  0  0  0
   50.8880   32.1040   41.4920 S   0  0  0  0  0  0  0  0  0  0  0  0
   48.0010   33.3860   39.7040 H   0  0  0  0  0  0  0  0  0  0  0  0
   49.0350   31.4080   38.4430 H   0  0  0  0  0  0  0  0  0  0  0  0
   51.3280   30.0700   39.4650 C   0  0  0  0  0  2  0  0  0  0  0  0
   52.5650   30.4680   38.8820 N   0  0  0  0  0  4  0  0  0  0  0  0
   52.8970   29.7350   38.2130 H   0  0  0  0  0  0  0  0  0  0  0  0
   53.6060   30.7840   39.8330 C   0  0  0  0  0  2  0  0  0  0  0  0
   54.1340   29.8560   40.1280 H   0  0  0  0  0  0  0  0  0  0  0  0
   52.3620   31.6560   38.0500 C   0  0  0  0  0  2  0  0  0  0  0  0
   51.5640   31.4140   37.2970 H   0  0  0  0  0  0  0  0  0  0  0  0
   48.1300   35.3200   41.8270 C   0  0  0  0  0  0  0  0  0  0  0  0
   48.3110   36.2780   42.3790 H   0  0  0  0  0  0  0  0  0  0  0  0
   48.2250   35.5260   40.7660 H   0  0  0  0  0  0  0  0  0  0  0  0
   46.8180   34.7980   42.1800 C   0  0  0  0  0  0  0  0  0  0  0  0
   46.4710   34.4770   43.4790 C   0  0  0  0  0  0  0  0  0  0  0  0
   45.1930   33.9820   43.7320 C   0  0  0  0  0  0  0  0  0  0  0  0
   44.3550   33.8400   42.6810 N   0  0  0  0  0  0  0  0  0  0  0  0
   44.6980   34.1510   41.4310 C   0  0  0  0  0  0  0  0  0  0  0  0
   45.9080   34.6170   41.2130 N   0  0  0  0  0  0  0  0  0  0  0  0
   47.1830   34.6120   44.2900 H   0  0  0  0  0  0  0  0  0  0  0  0
   44.8960   33.7210   44.7550 H   0  0  0  0  0  0  0  0  0  0  0  0
   43.9990   34.0230   40.6150 H   0  0  0  0  0  0  0  0  0  0  0  0
  1  2  1  0  0  0  0
  1  3  1  0  0  0  0
  4  8  1  0  0  0  0
  4  1  1  0  0  0  0
  5  4  2  0  0  0  0
  6  7  2  0  0  0  0
  6  5  1  0  0  0  0
  7  8  1  0  0  0  0
  9  5  1  0  0  0  0
 10  6  1  0  0  0  0
 11  7  1  0  0  0  0
 12 11  1  0  0  0  0
 12 14  1  0  0  0  0
 13 12  1  0  0  0  0
 14 15  1  0  0  0  0
 16 12  1  0  0  0  0
 17 16  1  0  0  0  0
 18 21  1  0  0  0  0
 18  1  1  0  0  0  0
 18 19  1  0  0  0  0
 20 18  1  0  0  0  0
 21 22  1  0  0  0  0
 22 23  2  0  0  0  0
 22 27  1  0  0  0  0
 23 28  1  0  0  0  0
 24 23  1  0  0  0  0
 25 24  2  0  0  0  0
 26 25  1  0  0  0  0
 26 21  2  0  0  0  0
 29 25  1  0  0  0  0
M  END
>  <minimizedAffinity>
-3.47722578

>  <minimizedRMSD>
0.939025998

$$$$
