
     RDKit          3D

 35 36  0  0  0  0  0  0  0  0999 V2000
   44.5128   35.8901   44.7210 C   0  0  0  0  0  0  0  0  0  0  0  0
   45.1064   36.0401   43.4733 C   0  0  0  0  0  0  0  0  0  0  0  0
   46.0535   35.1002   43.0840 C   0  0  0  0  0  0  0  0  0  0  0  0
   46.3454   34.0841   43.9510 N   0  0  0  0  0  0  0  0  0  0  0  0
   45.7583   33.9568   45.1561 C   0  0  0  0  0  0  0  0  0  0  0  0
   44.8419   34.8567   45.5454 N   0  0  0  0  0  0  0  0  0  0  0  0
   46.7586   35.1262   41.7868 C   0  0  2  0  0  0  0  0  0  0  0  0
   46.8485   33.8207   41.0706 C   0  0  0  0  0  0  0  0  0  0  0  0
   47.8016   34.1985   39.9440 C   0  0  0  0  0  0  0  0  0  0  0  0
   48.7237   35.2535   40.5394 C   0  0  1  0  0  0  0  0  0  0  0  0
   48.2503   35.4520   41.9624 C   0  0  0  0  0  0  0  0  0  0  0  0
   43.7648   36.6094   45.0599 H   0  0  0  0  0  0  0  0  0  0  0  0
   44.8705   36.8359   42.8071 H   0  0  0  0  0  0  0  0  0  0  0  0
   46.0216   33.1375   45.8057 H   0  0  0  0  0  0  0  0  0  0  0  0
   46.3259   35.8994   41.1257 H   0  0  0  0  0  0  0  0  0  0  0  0
   47.2436   33.0172   41.6904 H   0  0  0  0  0  0  0  0  0  0  0  0
   45.8658   33.6093   40.6083 H   0  0  0  0  0  0  0  0  0  0  0  0
   48.3460   33.2638   39.6950 H   0  0  0  0  0  0  0  0  0  0  0  0
   47.2648   34.5563   39.0453 H   0  0  0  0  0  0  0  0  0  0  0  0
   48.5542   36.1777   39.9949 H   0  0  0  0  0  0  0  0  0  0  0  0
   48.2946   36.5245   42.2305 H   0  0  0  0  0  0  0  0  0  0  0  0
   48.6876   34.7636   42.6902 H   0  0  0  0  0  0  0  0  0  0  0  0
   50.1081   34.7068   40.5138 C   0  0  0  0  0  0  0  0  0  0  0  0
   50.2595   33.3973   39.9717 N   0  0  0  0  0  4  0  0  0  0  0  0
   49.3582   32.4191   40.5100 C   0  0  0  0  0  0  0  0  0  0  0  0
   48.7490   31.9945   39.6648 H   0  0  0  0  0  0  0  0  0  0  0  0
   50.3036   33.3763   38.5103 C   0  0  0  0  0  0  0  0  0  0  0  0
   50.9180   32.4847   38.1912 H   0  0  0  0  0  0  0  0  0  0  0  0
   50.6998   35.4001   39.8472 H   0  0  0  0  0  0  0  0  0  0  0  0
   50.5942   34.7655   41.5037 H   0  0  0  0  0  0  0  0  0  0  0  0
   51.2355   33.0790   40.2550 H   0  0  0  0  0  0  0  0  0  0  0  0
   49.8821   31.5373   40.9650 H   0  0  0  0  0  0  0  0  0  0  0  0
   48.7105   32.7932   41.3345 H   0  0  0  0  0  0  0  0  0  0  0  0
   49.3081   33.3113   38.0519 H   0  0  0  0  0  0  0  0  0  0  0  0
   50.8992   34.2570   38.1992 H   0  0  0  0  0  0  0  0  0  0  0  0
  1  6  2  0
  2  1  1  0
  3  2  2  0
  3  4  1  0
  4  5  2  0
  5  6  1  0
  7 11  1  0
  7  3  1  0
  8  7  1  0
  9 10  1  0
  9  8  1  0
 10 11  1  0
  1 12  1  0
  2 13  1  0
  5 14  1  0
  7 15  1  6
  8 16  1  0
  8 17  1  0
  9 18  1  0
  9 19  1  0
 10 20  1  6
 11 21  1  0
 11 22  1  0
 23 24  1  0
 24 25  1  0
 25 26  1  0
 24 27  1  0
 27 28  1  0
 23 29  1  0
 23 30  1  0
 24 31  1  0
 25 32  1  0
 25 33  1  0
 27 34  1  0
 27 35  1  0
 10 23  1  0
M  ISO  8  12  14  13  14  14  14  15  13  16  13  17  13  18  13  19  13
M  CHG  1  24   1
M  ISO  5  20  13  21  13  22  13  26   8  28   8
M  END
>  <DihAtoms>  (1) 
8,9,22,23

>  <DihDeg>  (1) 
179.99946318746765

$$$$
