
 OpenBabel03242523193D

 35 37  0  0  0  0  0  0  0  0999 V2000
   46.4230   33.5000   44.6410 C   0  0  0  0  0  0  0  0  0  0  0  0
   45.8620   33.8560   45.6480 O   0  0  0  0  0  0  0  0  0  0  0  0
   44.5620   31.7220   42.9440 Cl  0  0  0  0  0  0  0  0  0  0  0  0
   44.5970   33.4830   42.8050 C   0  0  0  0  0  0  0  0  0  0  0  0
   45.5110   34.1390   43.6580 C   0  0  0  0  0  0  0  0  0  0  0  0
   45.4600   35.5070   43.4510 C   0  0  0  0  0  0  0  0  0  0  0  0
   44.7130   36.2280   42.6040 C   0  0  0  0  0  0  0  0  0  0  0  0
   43.8570   35.5170   41.8170 C   0  0  0  0  0  0  0  0  0  0  0  0
   43.7810   34.1690   41.8990 C   0  0  0  0  0  0  0  0  0  0  0  0
   46.0940   36.1790   44.0710 H   0  0  0  0  0  0  0  0  0  0  0  0
   44.7200   37.3010   42.4870 H   0  0  0  0  0  0  0  0  0  0  0  0
   43.1880   35.9620   41.0840 H   0  0  0  0  0  0  0  0  0  0  0  0
   42.8300   33.3720   41.0630 C   0  0  0  0  0  2  0  0  0  0  0  0
   43.3710   33.0250   39.7860 N   0  0  0  0  0  4  0  0  0  0  0  0
   44.4250   33.1770   39.8700 H   0  0  0  0  0  0  0  0  0  0  0  0
   42.9030   33.7750   38.6660 C   0  0  0  0  0  2  0  0  0  0  0  0
   42.2320   33.1440   38.0120 H   0  0  0  0  0  0  0  0  0  0  0  0
   43.2100   31.6120   39.5180 C   0  0  0  0  0  2  0  0  0  0  0  0
   44.1450   31.0350   39.7460 H   0  0  0  0  0  0  0  0  0  0  0  0
   47.4840   32.7960   43.9100 C   0  0  0  0  0  0  0  0  0  0  0  0
   48.3420   33.3430   43.0350 C   0  0  0  0  0  0  0  0  0  0  0  0
   49.1810   32.4410   42.4140 C   0  0  0  0  0  0  0  0  0  0  0  0
   49.0710   31.0760   42.7440 N   0  0  0  0  0  0  0  0  0  0  0  0
   48.2040   30.6190   43.6180 C   0  0  0  0  0  0  0  0  0  0  0  0
   47.3470   31.4910   44.2560 N   0  0  0  0  0  0  0  0  0  0  0  0
   49.9270   32.7150   41.6790 H   0  0  0  0  0  0  0  0  0  0  0  0
   48.2390   29.5440   43.7710 H   0  0  0  0  0  0  0  0  0  0  0  0
   48.5310   34.7290   42.7870 C   0  0  0  0  0  0  0  0  0  0  0  0
   49.5730   35.3510   42.1760 C   0  0  0  0  0  0  0  0  0  0  0  0
   48.3690   35.2130   41.2840 C   0  0  0  0  0  0  0  0  0  0  0  0
   48.0420   35.3810   43.5340 H   0  0  0  0  0  0  0  0  0  0  0  0
   50.4470   34.7590   41.8070 H   0  0  0  0  0  0  0  0  0  0  0  0
   49.9060   36.4190   42.2670 H   0  0  0  0  0  0  0  0  0  0  0  0
   48.3300   34.3910   40.5570 H   0  0  0  0  0  0  0  0  0  0  0  0
   47.6940   36.0730   41.1800 H   0  0  0  0  0  0  0  0  0  0  0  0
  1  2  2  0  0  0  0
  4  3  1  0  0  0  0
  4  5  1  0  0  0  0
  5  1  1  0  0  0  0
  6  5  2  0  0  0  0
  6 10  1  0  0  0  0
  7  6  1  0  0  0  0
  8  9  1  0  0  0  0
  8  7  2  0  0  0  0
  9  4  2  0  0  0  0
 11  7  1  0  0  0  0
 12  8  1  0  0  0  0
 13  9  1  0  0  0  0
 14 15  1  0  0  0  0
 14 13  1  0  0  0  0
 16 14  1  0  0  0  0
 17 16  1  0  0  0  0
 18 19  1  0  0  0  0
 18 14  1  0  0  0  0
 20 25  1  0  0  0  0
 20  1  1  0  0  0  0
 21 20  2  0  0  0  0
 22 23  2  0  0  0  0
 22 21  1  0  0  0  0
 23 24  1  0  0  0  0
 24 27  1  0  0  0  0
 24 25  2  0  0  0  0
 26 22  1  0  0  0  0
 28 21  1  0  0  0  0
 28 31  1  0  0  0  0
 29 33  1  0  0  0  0
 29 28  1  0  0  0  0
 30 29  1  0  0  0  0
 30 28  1  0  0  0  0
 32 29  1  0  0  0  0
 34 30  1  0  0  0  0
 35 30  1  0  0  0  0
M  END
>  <minimizedAffinity>
-4.92346811

>  <minimizedRMSD>
0.710048258

$$$$
