REMARK  Name = 
REMARK  11 active torsions:
REMARK  status: ('A' for Active; 'I' for Inactive)
REMARK    1  A    between atoms: P_2  and  O_3
REMARK    2  A    between atoms: P_2  and  O_4
REMARK    3  A    between atoms: P_2  and  O_12
REMARK    4  A    between atoms: O_4  and  C_9
REMARK    5  A    between atoms: C_5  and  O_11
REMARK    6  A    between atoms: O_12  and  C_14
REMARK    7  A    between atoms: C_13  and  O_18
REMARK    8  A    between atoms: O_18  and  C_29
REMARK    9  A    between atoms: C_29  and  N_30
REMARK   10  A    between atoms: N_30  and  C_31
REMARK   11  A    between atoms: N_30  and  C_33
REMARK                            x       y       z     vdW  Elec       q    Type
REMARK                         _______ _______ _______ _____ _____    ______ ____
ROOT
ATOM      1  C   UNL     1      46.782  30.004  48.075  0.00  0.00    +0.000 C 
ATOM      2  C   UNL     1      45.330  30.287  48.150  0.00  0.00    +0.000 C 
ATOM      3  C   UNL     1      44.748  29.456  47.066  0.00  0.00    +0.000 C 
ATOM      4  O   UNL     1      45.554  28.346  46.909  0.00  0.00    +0.000 OA
ATOM      5  C   UNL     1      46.680  28.515  47.646  0.00  0.00    +0.000 C 
ATOM      6  H   UNL     1      47.453  30.377  47.358  0.00  0.00    +0.000 HD
ATOM      7  H   UNL     1      45.016  29.875  49.148  0.00  0.00    +0.000 HD
ATOM      8  H   UNL     1      43.784  29.014  47.468  0.00  0.00    +0.000 HD
ATOM      9  H   UNL     1      44.406  29.951  46.158  0.00  0.00    +0.000 HD
ATOM     10  H   UNL     1      46.593  27.987  48.637  0.00  0.00    +0.000 HD
ATOM     11  H   UNL     1      47.586  28.155  47.167  0.00  0.00    +0.000 HD
ENDROOT
BRANCH   2  12
ATOM     12  O   UNL     1      45.027  31.623  48.020  0.00  0.00    +0.000 OA
BRANCH  12  14
ATOM     13  O   UNL     1      47.307  32.696  47.511  0.00  0.00    +0.000 OA
ATOM     14  P   UNL     1      45.998  32.326  46.870  0.00  0.00    +0.000 P 
BRANCH  14  15
ATOM     15  O   UNL     1      46.301  31.211  45.630  0.00  0.00    +0.000 OA
ATOM     16  H   UNL     1      45.880  31.483  44.796  0.00  0.00    +0.000 HD
ENDBRANCH  14  15
BRANCH  14  17
ATOM     17  O   UNL     1      45.334  33.776  46.252  0.00  0.00    +0.000 OA
BRANCH  17  22
ATOM     18  C   UNL     1      45.220  35.831  43.328  0.00  0.00    +0.000 A 
ATOM     19  C   UNL     1      46.267  35.326  42.507  0.00  0.00    +0.000 A 
ATOM     20  C   UNL     1      47.007  34.247  43.017  0.00  0.00    +0.000 A 
ATOM     21  N   UNL     1      46.687  33.762  44.233  0.00  0.00    +0.000 NA
ATOM     22  C   UNL     1      45.685  34.267  44.983  0.00  0.00    +0.000 A 
ATOM     23  N   UNL     1      44.956  35.302  44.523  0.00  0.00    +0.000 NA
ATOM     24  H   UNL     1      46.497  35.738  41.539  0.00  0.00    +0.000 HD
ATOM     25  H   UNL     1      47.823  33.803  42.455  0.00  0.00    +0.000 HD
BRANCH  18  26
ATOM     26  O   UNL     1      44.499  36.885  42.829  0.00  0.00    +0.000 OA
ATOM     27  H   UNL     1      44.937  37.775  42.687  0.00  0.00    +0.000 HD
ENDBRANCH  18  26
ENDBRANCH  17  22
ENDBRANCH  14  17
ENDBRANCH  12  14
ENDBRANCH   2  12
BRANCH   1  28
ATOM     28  O   UNL     1      47.464  30.129  49.248  0.00  0.00    +0.000 OA
BRANCH  28  29
ATOM     29  C   UNL     1      48.703  30.546  49.377  0.00  0.00    +0.000 C 
BRANCH  29  30
ATOM     30  N   UNL     1      49.585  29.529  49.987  0.00  0.00    +0.000 N 
ATOM     31  H   UNL     1      49.558  28.640  49.482  0.00  0.00    +0.000 HD
BRANCH  30  32
ATOM     32  C   UNL     1      50.976  30.010  49.927  0.00  0.00    +0.000 C 
ATOM     33  H   UNL     1      51.002  30.685  49.024  0.00  0.00    +0.000 HD
ENDBRANCH  30  32
BRANCH  30  34
ATOM     34  C   UNL     1      49.306  29.336  51.386  0.00  0.00    +0.000 C 
ATOM     35  H   UNL     1      48.529  28.605  51.611  0.00  0.00    +0.000 HD
ENDBRANCH  30  34
ENDBRANCH  29  30
ENDBRANCH  28  29
ENDBRANCH   1  28
TORSDOF 11
