
 OpenBabel03242516073D

 34 36  0  0  0  0  0  0  0  0999 V2000
   39.1650   27.9670   40.0240 Cl  0  0  0  0  0  0  0  0  0  0  0  0
   38.1820   27.7120   41.4380 C   0  0  0  0  0  0  0  0  0  0  0  0
   37.5460   26.5240   41.6710 C   0  0  0  0  0  0  0  0  0  0  0  0
   36.7990   26.4490   42.8110 C   0  0  0  0  0  0  0  0  0  0  0  0
   36.6770   27.4720   43.6790 C   0  0  0  0  0  0  0  0  0  0  0  0
   37.3110   28.6620   43.4510 C   0  0  0  0  0  0  0  0  0  0  0  0
   38.0850   28.7770   42.2940 C   0  0  0  0  0  0  0  0  0  0  0  0
   36.2790   25.5270   43.0320 H   0  0  0  0  0  0  0  0  0  0  0  0
   36.0780   27.3920   44.5790 H   0  0  0  0  0  0  0  0  0  0  0  0
   37.2000   29.4760   44.1670 H   0  0  0  0  0  0  0  0  0  0  0  0
   37.0290   24.1930   38.7270 C   0  0  0  0  0  0  0  0  0  0  0  0
   36.8420   25.2340   39.6460 C   0  0  0  0  0  0  0  0  0  0  0  0
   37.7100   25.4630   40.7090 C   0  0  0  0  0  0  0  0  0  0  0  0
   38.7500   24.5870   40.7720 N   0  0  0  0  0  0  0  0  0  0  0  0
   38.9370   23.5920   39.9010 C   0  0  0  0  0  0  0  0  0  0  0  0
   38.0820   23.3970   38.8850 N   0  0  0  0  0  0  0  0  0  0  0  0
   36.2830   24.1300   37.9530 H   0  0  0  0  0  0  0  0  0  0  0  0
   36.0050   25.9210   39.5760 H   0  0  0  0  0  0  0  0  0  0  0  0
   39.7850   22.9160   39.9930 H   0  0  0  0  0  0  0  0  0  0  0  0
   38.7760   30.0570   42.0290 C   0  0  0  0  0  0  0  0  0  0  0  0
   38.2440   31.0450   41.1980 C   0  0  0  0  0  0  0  0  0  0  0  0
   39.5030   32.3580   41.2460 S   0  0  0  0  0  0  0  0  0  0  0  0
   40.5950   31.3180   42.4300 C   0  0  0  0  0  0  0  0  0  0  0  0
   39.9420   30.4200   42.5210 N   0  0  0  0  0  0  0  0  0  0  0  0
   41.8630   31.7100   42.9610 N   0  0  0  0  0  0  0  0  0  0  0  0
   42.0490   32.5610   43.5370 H   0  0  0  0  0  0  0  0  0  0  0  0
   42.6400   31.0310   42.7080 H   0  0  0  0  0  0  0  0  0  0  0  0
   37.0240   31.1600   40.4030 C   0  0  0  0  0  2  0  0  0  0  0  0
   37.2510   30.7520   39.0360 N   0  0  0  0  0  4  0  0  0  0  0  0
   38.1710   30.2170   39.0630 H   0  0  0  0  0  0  0  0  0  0  0  0
   37.4520   31.8320   38.1210 C   0  0  0  0  0  2  0  0  0  0  0  0
   37.5140   32.8050   38.6240 H   0  0  0  0  0  0  0  0  0  0  0  0
   36.2740   29.7990   38.5620 C   0  0  0  0  0  2  0  0  0  0  0  0
   35.2450   30.0380   38.9020 H   0  0  0  0  0  0  0  0  0  0  0  0
  1  2  1  0  0  0  0
  2  3  2  0  0  0  0
  2  7  1  0  0  0  0
  3  4  1  0  0  0  0
  4  8  1  0  0  0  0
  4  5  2  0  0  0  0
  5  9  1  0  0  0  0
  6  5  1  0  0  0  0
  6 10  1  0  0  0  0
  7  6  2  0  0  0  0
 11 16  2  0  0  0  0
 11 12  1  0  0  0  0
 12 13  2  0  0  0  0
 13 14  1  0  0  0  0
 13  3  1  0  0  0  0
 15 19  1  0  0  0  0
 15 14  2  0  0  0  0
 16 15  1  0  0  0  0
 17 11  1  0  0  0  0
 18 12  1  0  0  0  0
 20  7  1  0  0  0  0
 20 24  1  0  0  0  0
 21 22  1  0  0  0  0
 21 20  2  0  0  0  0
 22 23  1  0  0  0  0
 23 24  2  0  0  0  0
 23 25  1  0  0  0  0
 25 26  1  0  0  0  0
 27 25  1  0  0  0  0
 28 21  1  0  0  0  0
 29 30  1  0  0  0  0
 29 28  1  0  0  0  0
 31 32  1  0  0  0  0
 31 29  1  0  0  0  0
 33 34  1  0  0  0  0
 33 29  1  0  0  0  0
M  END
>  <minimizedAffinity>
-5.24119711

$$$$

 OpenBabel03242516073D

 34 36  0  0  0  0  0  0  0  0999 V2000
   38.1540   30.2720   37.7000 Cl  0  0  0  0  0  0  0  0  0  0  0  0
   36.6900   29.8040   38.5180 C   0  0  0  0  0  0  0  0  0  0  0  0
   35.6650   29.1800   37.8630 C   0  0  0  0  0  0  0  0  0  0  0  0
   34.5670   28.8680   38.6120 C   0  0  0  0  0  0  0  0  0  0  0  0
   34.4700   29.1470   39.9270 C   0  0  0  0  0  0  0  0  0  0  0  0
   35.4930   29.7710   40.5860 C   0  0  0  0  0  0  0  0  0  0  0  0
   36.6330   30.1050   39.8530 C   0  0  0  0  0  0  0  0  0  0  0  0
   33.7330   28.3750   38.1320 H   0  0  0  0  0  0  0  0  0  0  0  0
   33.5890   28.8920   40.5040 H   0  0  0  0  0  0  0  0  0  0  0  0
   35.3950   29.9860   41.6500 H   0  0  0  0  0  0  0  0  0  0  0  0
   36.1870   29.5870   34.1310 C   0  0  0  0  0  0  0  0  0  0  0  0
   36.0390   29.8850   35.4920 C   0  0  0  0  0  0  0  0  0  0  0  0
   35.8210   28.9060   36.4560 C   0  0  0  0  0  0  0  0  0  0  0  0
   35.7650   27.6410   35.9570 N   0  0  0  0  0  0  0  0  0  0  0  0
   35.9050   27.3470   34.6620 C   0  0  0  0  0  0  0  0  0  0  0  0
   36.1150   28.3140   33.7550 N   0  0  0  0  0  0  0  0  0  0  0  0
   36.3510   30.4390   33.4930 H   0  0  0  0  0  0  0  0  0  0  0  0
   36.0870   30.9020   35.8680 H   0  0  0  0  0  0  0  0  0  0  0  0
   35.8520   26.3180   34.3100 H   0  0  0  0  0  0  0  0  0  0  0  0
   37.7490   30.7820   40.5490 C   0  0  0  0  0  0  0  0  0  0  0  0
   38.7450   30.0850   41.2360 C   0  0  0  0  0  0  0  0  0  0  0  0
   39.8200   31.4070   41.8740 S   0  0  0  0  0  0  0  0  0  0  0  0
   38.7050   32.7480   41.0780 C   0  0  0  0  0  0  0  0  0  0  0  0
   37.9430   32.0830   40.6100 N   0  0  0  0  0  0  0  0  0  0  0  0
   38.9130   34.1610   41.1490 N   0  0  0  0  0  0  0  0  0  0  0  0
   39.7620   34.6720   40.8210 H   0  0  0  0  0  0  0  0  0  0  0  0
   38.0910   34.6740   41.5860 H   0  0  0  0  0  0  0  0  0  0  0  0
   39.0050   28.6710   41.4960 C   0  0  0  0  0  2  0  0  0  0  0  0
   38.9780   28.3870   42.9130 N   0  0  0  0  0  4  0  0  0  0  0  0
   39.5120   29.1920   43.3590 H   0  0  0  0  0  0  0  0  0  0  0  0
   39.6730   27.1970   43.2910 C   0  0  0  0  0  2  0  0  0  0  0  0
   40.2180   26.7420   42.4550 H   0  0  0  0  0  0  0  0  0  0  0  0
   37.6500   28.4550   43.4760 C   0  0  0  0  0  2  0  0  0  0  0  0
   36.8800   28.0110   42.8100 H   0  0  0  0  0  0  0  0  0  0  0  0
  1  2  1  0  0  0  0
  2  7  1  0  0  0  0
  3  2  2  0  0  0  0
  3  4  1  0  0  0  0
  4  5  2  0  0  0  0
  5  9  1  0  0  0  0
  5  6  1  0  0  0  0
  6 10  1  0  0  0  0
  7 20  1  0  0  0  0
  7  6  2  0  0  0  0
  8  4  1  0  0  0  0
 11 12  1  0  0  0  0
 12 18  1  0  0  0  0
 12 13  2  0  0  0  0
 13  3  1  0  0  0  0
 14 13  1  0  0  0  0
 15 14  2  0  0  0  0
 16 11  2  0  0  0  0
 16 15  1  0  0  0  0
 17 11  1  0  0  0  0
 19 15  1  0  0  0  0
 20 24  1  0  0  0  0
 20 21  2  0  0  0  0
 21 28  1  0  0  0  0
 21 22  1  0  0  0  0
 23 25  1  0  0  0  0
 23 22  1  0  0  0  0
 24 23  2  0  0  0  0
 25 27  1  0  0  0  0
 26 25  1  0  0  0  0
 28 29  1  0  0  0  0
 29 31  1  0  0  0  0
 29 30  1  0  0  0  0
 29 33  1  0  0  0  0
 32 31  1  0  0  0  0
 34 33  1  0  0  0  0
M  END
>  <minimizedAffinity>
-5.18046474

$$$$

 OpenBabel03242516073D

 34 36  0  0  0  0  0  0  0  0999 V2000
   38.5580   28.2220   39.5690 Cl  0  0  0  0  0  0  0  0  0  0  0  0
   37.9180   27.9560   41.1660 C   0  0  0  0  0  0  0  0  0  0  0  0
   37.4910   26.7230   41.5770 C   0  0  0  0  0  0  0  0  0  0  0  0
   37.0050   26.6430   42.8500 C   0  0  0  0  0  0  0  0  0  0  0  0
   36.9360   27.7030   43.6790 C   0  0  0  0  0  0  0  0  0  0  0  0
   37.3620   28.9380   43.2730 C   0  0  0  0  0  0  0  0  0  0  0  0
   37.8670   29.0590   41.9770 C   0  0  0  0  0  0  0  0  0  0  0  0
   36.6550   25.6870   43.2130 H   0  0  0  0  0  0  0  0  0  0  0  0
   36.5460   27.6190   44.6870 H   0  0  0  0  0  0  0  0  0  0  0  0
   37.2990   29.7800   43.9600 H   0  0  0  0  0  0  0  0  0  0  0  0
   36.6940   24.1830   38.8790 C   0  0  0  0  0  0  0  0  0  0  0  0
   36.5710   25.2570   39.7700 C   0  0  0  0  0  0  0  0  0  0  0  0
   37.5860   25.6250   40.6490 C   0  0  0  0  0  0  0  0  0  0  0  0
   38.7010   24.8480   40.5610 N   0  0  0  0  0  0  0  0  0  0  0  0
   38.8270   23.8220   39.7150 C   0  0  0  0  0  0  0  0  0  0  0  0
   37.8300   23.4930   38.8800 N   0  0  0  0  0  0  0  0  0  0  0  0
   35.8340   24.0080   38.2560 H   0  0  0  0  0  0  0  0  0  0  0  0
   35.6730   25.8630   39.8230 H   0  0  0  0  0  0  0  0  0  0  0  0
   39.7400   23.2300   39.6820 H   0  0  0  0  0  0  0  0  0  0  0  0
   38.3300   30.3870   41.5180 C   0  0  0  0  0  0  0  0  0  0  0  0
   39.6450   30.8270   41.6850 C   0  0  0  0  0  0  0  0  0  0  0  0
   39.6280   32.4910   40.9490 S   0  0  0  0  0  0  0  0  0  0  0  0
   37.7680   32.3200   40.5170 C   0  0  0  0  0  0  0  0  0  0  0  0
   37.5910   31.2950   40.9180 N   0  0  0  0  0  0  0  0  0  0  0  0
   36.9640   33.3100   39.8690 N   0  0  0  0  0  0  0  0  0  0  0  0
   37.1440   33.7240   38.9280 H   0  0  0  0  0  0  0  0  0  0  0  0
   36.1260   33.6030   40.4530 H   0  0  0  0  0  0  0  0  0  0  0  0
   40.8450   30.2490   42.2840 C   0  0  0  0  0  2  0  0  0  0  0  0
   41.4370   29.2570   41.4150 N   0  0  0  0  0  4  0  0  0  0  0  0
   40.7420   29.1500   40.6160 H   0  0  0  0  0  0  0  0  0  0  0  0
   41.5680   27.9590   41.9990 C   0  0  0  0  0  2  0  0  0  0  0  0
   41.0910   27.8900   42.9850 H   0  0  0  0  0  0  0  0  0  0  0  0
   42.6600   29.7100   40.7940 C   0  0  0  0  0  2  0  0  0  0  0  0
   43.3040   30.2880   41.4900 H   0  0  0  0  0  0  0  0  0  0  0  0
  1  2  1  0  0  0  0
  2  3  2  0  0  0  0
  2  7  1  0  0  0  0
  3  4  1  0  0  0  0
  4  8  1  0  0  0  0
  4  5  2  0  0  0  0
  5  9  1  0  0  0  0
  6  5  1  0  0  0  0
  6 10  1  0  0  0  0
  7  6  2  0  0  0  0
 11 16  2  0  0  0  0
 11 12  1  0  0  0  0
 12 18  1  0  0  0  0
 12 13  2  0  0  0  0
 13  3  1  0  0  0  0
 14 13  1  0  0  0  0
 15 14  2  0  0  0  0
 16 15  1  0  0  0  0
 17 11  1  0  0  0  0
 19 15  1  0  0  0  0
 20 21  2  0  0  0  0
 20  7  1  0  0  0  0
 21 28  1  0  0  0  0
 22 21  1  0  0  0  0
 23 24  2  0  0  0  0
 23 22  1  0  0  0  0
 24 20  1  0  0  0  0
 25 27  1  0  0  0  0
 25 23  1  0  0  0  0
 26 25  1  0  0  0  0
 29 31  1  0  0  0  0
 29 28  1  0  0  0  0
 30 29  1  0  0  0  0
 31 32  1  0  0  0  0
 33 29  1  0  0  0  0
 33 34  1  0  0  0  0
M  END
>  <minimizedAffinity>
-5.16350698

$$$$

 OpenBabel03242516073D

 34 36  0  0  0  0  0  0  0  0999 V2000
   39.5320   27.0220   40.3330 Cl  0  0  0  0  0  0  0  0  0  0  0  0
   38.4030   27.2830   41.6330 C   0  0  0  0  0  0  0  0  0  0  0  0
   37.4130   26.3830   41.9210 C   0  0  0  0  0  0  0  0  0  0  0  0
   36.5870   26.7030   42.9600 C   0  0  0  0  0  0  0  0  0  0  0  0
   36.7140   27.8350   43.6800 C   0  0  0  0  0  0  0  0  0  0  0  0
   37.7020   28.7370   43.3950 C   0  0  0  0  0  0  0  0  0  0  0  0
   38.5680   28.4440   42.3390 C   0  0  0  0  0  0  0  0  0  0  0  0
   35.7910   26.0190   43.2200 H   0  0  0  0  0  0  0  0  0  0  0  0
   36.0470   28.0710   44.5000 H   0  0  0  0  0  0  0  0  0  0  0  0
   37.7880   29.6450   43.9900 H   0  0  0  0  0  0  0  0  0  0  0  0
   37.8320   22.8400   40.6420 C   0  0  0  0  0  0  0  0  0  0  0  0
   37.9400   23.9850   41.4430 C   0  0  0  0  0  0  0  0  0  0  0  0
   37.3220   25.1890   41.1190 C   0  0  0  0  0  0  0  0  0  0  0  0
   36.6090   25.1500   39.9610 N   0  0  0  0  0  0  0  0  0  0  0  0
   36.5000   24.0650   39.1910 C   0  0  0  0  0  0  0  0  0  0  0  0
   37.1080   22.9170   39.5300 N   0  0  0  0  0  0  0  0  0  0  0  0
   38.3600   21.9760   41.0090 H   0  0  0  0  0  0  0  0  0  0  0  0
   38.5140   23.9920   42.3630 H   0  0  0  0  0  0  0  0  0  0  0  0
   35.9180   24.0820   38.2720 H   0  0  0  0  0  0  0  0  0  0  0  0
   39.6410   29.4090   42.0140 C   0  0  0  0  0  0  0  0  0  0  0  0
   39.5300   30.3420   40.9810 C   0  0  0  0  0  0  0  0  0  0  0  0
   41.1150   31.2340   41.0490 S   0  0  0  0  0  0  0  0  0  0  0  0
   41.6990   30.1590   42.5240 C   0  0  0  0  0  0  0  0  0  0  0  0
   40.7980   29.5110   42.6320 N   0  0  0  0  0  0  0  0  0  0  0  0
   42.9580   30.2660   43.1920 N   0  0  0  0  0  0  0  0  0  0  0  0
   43.3280   31.1190   43.6680 H   0  0  0  0  0  0  0  0  0  0  0  0
   43.5150   29.3610   43.1630 H   0  0  0  0  0  0  0  0  0  0  0  0
   38.5000   30.6510   39.9930 C   0  0  0  0  0  2  0  0  0  0  0  0
   37.4510   31.4620   40.5680 N   0  0  0  0  0  4  0  0  0  0  0  0
   37.7860   31.6750   41.5550 H   0  0  0  0  0  0  0  0  0  0  0  0
   36.1970   30.7910   40.7160 C   0  0  0  0  0  2  0  0  0  0  0  0
   36.2590   29.7230   40.4710 H   0  0  0  0  0  0  0  0  0  0  0  0
   37.3170   32.7490   39.9270 C   0  0  0  0  0  2  0  0  0  0  0  0
   37.4260   32.6900   38.8230 H   0  0  0  0  0  0  0  0  0  0  0  0
  1  2  1  0  0  0  0
  2  3  2  0  0  0  0
  2  7  1  0  0  0  0
  3  4  1  0  0  0  0
  4  8  1  0  0  0  0
  4  5  2  0  0  0  0
  5  9  1  0  0  0  0
  6  5  1  0  0  0  0
  6 10  1  0  0  0  0
  7  6  2  0  0  0  0
 11 17  1  0  0  0  0
 11 12  1  0  0  0  0
 12 18  1  0  0  0  0
 13 12  2  0  0  0  0
 13  3  1  0  0  0  0
 14 13  1  0  0  0  0
 15 16  1  0  0  0  0
 15 14  2  0  0  0  0
 16 11  2  0  0  0  0
 19 15  1  0  0  0  0
 20  7  1  0  0  0  0
 20 24  1  0  0  0  0
 21 22  1  0  0  0  0
 21 20  2  0  0  0  0
 22 23  1  0  0  0  0
 23 24  2  0  0  0  0
 23 25  1  0  0  0  0
 25 26  1  0  0  0  0
 27 25  1  0  0  0  0
 28 29  1  0  0  0  0
 28 21  1  0  0  0  0
 29 31  1  0  0  0  0
 29 30  1  0  0  0  0
 32 31  1  0  0  0  0
 33 29  1  0  0  0  0
 34 33  1  0  0  0  0
M  END
>  <minimizedAffinity>
-5.13535357

$$$$

 OpenBabel03242516073D

 34 36  0  0  0  0  0  0  0  0999 V2000
   39.6340   26.5550   39.9820 Cl  0  0  0  0  0  0  0  0  0  0  0  0
   38.6680   26.9840   41.3660 C   0  0  0  0  0  0  0  0  0  0  0  0
   37.3050   27.0750   41.2960 C   0  0  0  0  0  0  0  0  0  0  0  0
   36.6600   27.4250   42.4470 C   0  0  0  0  0  0  0  0  0  0  0  0
   37.3040   27.6730   43.6040 C   0  0  0  0  0  0  0  0  0  0  0  0
   38.6670   27.5840   43.6800 C   0  0  0  0  0  0  0  0  0  0  0  0
   39.3620   27.2280   42.5220 C   0  0  0  0  0  0  0  0  0  0  0  0
   35.5820   27.5090   42.4330 H   0  0  0  0  0  0  0  0  0  0  0  0
   36.7730   27.9510   44.5070 H   0  0  0  0  0  0  0  0  0  0  0  0
   39.1670   27.7880   44.6260 H   0  0  0  0  0  0  0  0  0  0  0  0
   35.6190   27.4820   37.9260 C   0  0  0  0  0  0  0  0  0  0  0  0
   36.2360   27.7820   39.1470 C   0  0  0  0  0  0  0  0  0  0  0  0
   36.6680   26.7990   40.0330 C   0  0  0  0  0  0  0  0  0  0  0  0
   36.4380   25.5290   39.6020 N   0  0  0  0  0  0  0  0  0  0  0  0
   35.8510   25.2320   38.4400 C   0  0  0  0  0  0  0  0  0  0  0  0
   35.4450   26.2030   37.6070 N   0  0  0  0  0  0  0  0  0  0  0  0
   35.3350   28.3380   37.3370 H   0  0  0  0  0  0  0  0  0  0  0  0
   36.4100   28.8030   39.4700 H   0  0  0  0  0  0  0  0  0  0  0  0
   35.6870   24.1990   38.1400 H   0  0  0  0  0  0  0  0  0  0  0  0
   40.8360   27.1290   42.5840 C   0  0  0  0  0  0  0  0  0  0  0  0
   41.6800   28.1730   42.2000 C   0  0  0  0  0  0  0  0  0  0  0  0
   43.3450   27.4940   42.4830 S   0  0  0  0  0  0  0  0  0  0  0  0
   42.6030   25.8360   43.0980 C   0  0  0  0  0  0  0  0  0  0  0  0
   41.5210   26.0810   42.9900 N   0  0  0  0  0  0  0  0  0  0  0  0
   43.3480   24.6960   43.5350 N   0  0  0  0  0  0  0  0  0  0  0  0
   44.0360   24.6790   44.3200 H   0  0  0  0  0  0  0  0  0  0  0  0
   43.1320   23.8240   42.9670 H   0  0  0  0  0  0  0  0  0  0  0  0
   41.4630   29.5170   41.6720 C   0  0  0  0  0  2  0  0  0  0  0  0
   41.0750   30.4340   42.7190 N   0  0  0  0  0  4  0  0  0  0  0  0
   40.8840   29.8140   43.5630 H   0  0  0  0  0  0  0  0  0  0  0  0
   39.8580   31.1410   42.4670 C   0  0  0  0  0  2  0  0  0  0  0  0
   39.3460   30.7910   41.5620 H   0  0  0  0  0  0  0  0  0  0  0  0
   42.1480   31.3100   43.1280 C   0  0  0  0  0  2  0  0  0  0  0  0
   42.7520   31.6750   42.2710 H   0  0  0  0  0  0  0  0  0  0  0  0
  1  2  1  0  0  0  0
  2  7  1  0  0  0  0
  3  2  2  0  0  0  0
  3  4  1  0  0  0  0
  4  5  2  0  0  0  0
  5  6  1  0  0  0  0
  5  9  1  0  0  0  0
  6 10  1  0  0  0  0
  7 20  1  0  0  0  0
  7  6  2  0  0  0  0
  8  4  1  0  0  0  0
 11 12  1  0  0  0  0
 12 18  1  0  0  0  0
 12 13  2  0  0  0  0
 13  3  1  0  0  0  0
 14 13  1  0  0  0  0
 15 14  2  0  0  0  0
 16 11  2  0  0  0  0
 16 15  1  0  0  0  0
 17 11  1  0  0  0  0
 19 15  1  0  0  0  0
 20 24  1  0  0  0  0
 21 22  1  0  0  0  0
 21 20  2  0  0  0  0
 22 23  1  0  0  0  0
 23 25  1  0  0  0  0
 24 23  2  0  0  0  0
 25 26  1  0  0  0  0
 27 25  1  0  0  0  0
 28 21  1  0  0  0  0
 28 29  1  0  0  0  0
 29 33  1  0  0  0  0
 29 30  1  0  0  0  0
 31 29  1  0  0  0  0
 32 31  1  0  0  0  0
 34 33  1  0  0  0  0
M  END
>  <minimizedAffinity>
-5.07145309

$$$$

 OpenBabel03242516073D

 34 36  0  0  0  0  0  0  0  0999 V2000
   39.6180   28.0790   40.8270 Cl  0  0  0  0  0  0  0  0  0  0  0  0
   38.0930   28.9190   40.8200 C   0  0  0  0  0  0  0  0  0  0  0  0
   36.9010   28.2520   40.8870 C   0  0  0  0  0  0  0  0  0  0  0  0
   35.7730   29.0220   40.8680 C   0  0  0  0  0  0  0  0  0  0  0  0
   35.8020   30.3670   40.7880 C   0  0  0  0  0  0  0  0  0  0  0  0
   36.9920   31.0380   40.7210 C   0  0  0  0  0  0  0  0  0  0  0  0
   38.1670   30.2840   40.7380 C   0  0  0  0  0  0  0  0  0  0  0  0
   34.8100   28.5340   40.9170 H   0  0  0  0  0  0  0  0  0  0  0  0
   34.8950   30.9600   40.7730 H   0  0  0  0  0  0  0  0  0  0  0  0
   36.9920   32.1250   40.6580 H   0  0  0  0  0  0  0  0  0  0  0  0
   37.0520   24.7050   42.2120 C   0  0  0  0  0  0  0  0  0  0  0  0
   37.0280   26.1050   42.1640 C   0  0  0  0  0  0  0  0  0  0  0  0
   36.9280   26.8140   40.9700 C   0  0  0  0  0  0  0  0  0  0  0  0
   36.8540   26.0250   39.8640 N   0  0  0  0  0  0  0  0  0  0  0  0
   36.8760   24.6900   39.8990 C   0  0  0  0  0  0  0  0  0  0  0  0
   36.9740   24.0350   41.0670 N   0  0  0  0  0  0  0  0  0  0  0  0
   37.1330   24.2850   43.2010 H   0  0  0  0  0  0  0  0  0  0  0  0
   37.0880   26.7140   43.0600 H   0  0  0  0  0  0  0  0  0  0  0  0
   36.8150   24.1010   38.9860 H   0  0  0  0  0  0  0  0  0  0  0  0
   39.4640   30.9920   40.6640 C   0  0  0  0  0  0  0  0  0  0  0  0
   39.9760   31.5060   39.4710 C   0  0  0  0  0  0  0  0  0  0  0  0
   41.5590   32.2480   39.9780 S   0  0  0  0  0  0  0  0  0  0  0  0
   41.2630   31.7220   41.7980 C   0  0  0  0  0  0  0  0  0  0  0  0
   40.2750   31.2210   41.6740 N   0  0  0  0  0  0  0  0  0  0  0  0
   42.1480   31.9660   42.8950 N   0  0  0  0  0  0  0  0  0  0  0  0
   42.4760   32.9030   43.2190 H   0  0  0  0  0  0  0  0  0  0  0  0
   42.4590   31.0720   43.3770 H   0  0  0  0  0  0  0  0  0  0  0  0
   39.5140   31.5210   38.0860 C   0  0  0  0  0  2  0  0  0  0  0  0
   39.8250   30.2780   37.4180 N   0  0  0  0  0  4  0  0  0  0  0  0
   40.0260   30.5560   36.4100 H   0  0  0  0  0  0  0  0  0  0  0  0
   38.7400   29.3480   37.3590 C   0  0  0  0  0  2  0  0  0  0  0  0
   37.8010   29.7720   37.7350 H   0  0  0  0  0  0  0  0  0  0  0  0
   41.0470   29.6720   37.8930 C   0  0  0  0  0  2  0  0  0  0  0  0
   41.1610   29.7490   38.9950 H   0  0  0  0  0  0  0  0  0  0  0  0
  2  1  1  0  0  0  0
  2  3  1  0  0  0  0
  3 13  1  0  0  0  0
  4  3  2  0  0  0  0
  4  8  1  0  0  0  0
  5  4  1  0  0  0  0
  6  7  1  0  0  0  0
  6  5  2  0  0  0  0
  7  2  2  0  0  0  0
  9  5  1  0  0  0  0
 10  6  1  0  0  0  0
 11 17  1  0  0  0  0
 12 11  1  0  0  0  0
 12 18  1  0  0  0  0
 13 12  2  0  0  0  0
 14 15  2  0  0  0  0
 14 13  1  0  0  0  0
 15 16  1  0  0  0  0
 16 11  2  0  0  0  0
 19 15  1  0  0  0  0
 20  7  1  0  0  0  0
 20 24  1  0  0  0  0
 21 22  1  0  0  0  0
 21 20  2  0  0  0  0
 22 23  1  0  0  0  0
 23 25  1  0  0  0  0
 24 23  2  0  0  0  0
 25 26  1  0  0  0  0
 25 27  1  0  0  0  0
 28 21  1  0  0  0  0
 29 33  1  0  0  0  0
 29 28  1  0  0  0  0
 30 29  1  0  0  0  0
 31 29  1  0  0  0  0
 31 32  1  0  0  0  0
 33 34  1  0  0  0  0
M  END
>  <minimizedAffinity>
-5.06383276

$$$$

 OpenBabel03242516073D

 34 36  0  0  0  0  0  0  0  0999 V2000
   40.5620   30.5540   38.7740 Cl  0  0  0  0  0  0  0  0  0  0  0  0
   39.3910   31.7860   39.1520 C   0  0  0  0  0  0  0  0  0  0  0  0
   39.7560   32.9900   39.6890 C   0  0  0  0  0  0  0  0  0  0  0  0
   38.7450   33.8700   39.9470 C   0  0  0  0  0  0  0  0  0  0  0  0
   37.4500   33.5980   39.6970 C   0  0  0  0  0  0  0  0  0  0  0  0
   37.0800   32.3950   39.1590 C   0  0  0  0  0  0  0  0  0  0  0  0
   38.0860   31.4680   38.8820 C   0  0  0  0  0  0  0  0  0  0  0  0
   38.9910   34.8330   40.3730 H   0  0  0  0  0  0  0  0  0  0  0  0
   36.6620   34.3100   39.9090 H   0  0  0  0  0  0  0  0  0  0  0  0
   36.0270   32.1950   38.9640 H   0  0  0  0  0  0  0  0  0  0  0  0
   43.3810   34.0190   39.2830 C   0  0  0  0  0  0  0  0  0  0  0  0
   42.0240   33.7990   39.0110 C   0  0  0  0  0  0  0  0  0  0  0  0
   41.1550   33.2290   39.9380 C   0  0  0  0  0  0  0  0  0  0  0  0
   41.7440   32.9100   41.1220 N   0  0  0  0  0  0  0  0  0  0  0  0
   43.0350   33.1160   41.3910 C   0  0  0  0  0  0  0  0  0  0  0  0
   43.8480   33.6680   40.4760 N   0  0  0  0  0  0  0  0  0  0  0  0
   43.9390   34.4670   38.4780 H   0  0  0  0  0  0  0  0  0  0  0  0
   41.5760   34.0620   38.0590 H   0  0  0  0  0  0  0  0  0  0  0  0
   43.4610   32.8430   42.3540 H   0  0  0  0  0  0  0  0  0  0  0  0
   37.7050   30.1610   38.3030 C   0  0  0  0  0  0  0  0  0  0  0  0
   37.2660   29.0890   39.0830 C   0  0  0  0  0  0  0  0  0  0  0  0
   36.9520   27.7790   37.8590 S   0  0  0  0  0  0  0  0  0  0  0  0
   37.4890   28.9380   36.4290 C   0  0  0  0  0  0  0  0  0  0  0  0
   37.7310   29.8470   37.0260 N   0  0  0  0  0  0  0  0  0  0  0  0
   37.5210   28.5950   35.0410 N   0  0  0  0  0  0  0  0  0  0  0  0
   36.7090   28.2690   34.4720 H   0  0  0  0  0  0  0  0  0  0  0  0
   38.4890   28.7050   34.6150 H   0  0  0  0  0  0  0  0  0  0  0  0
   37.0670   28.8850   40.5160 C   0  0  0  0  0  2  0  0  0  0  0  0
   38.3300   28.7270   41.2010 N   0  0  0  0  0  4  0  0  0  0  0  0
   39.0660   28.8930   40.4510 H   0  0  0  0  0  0  0  0  0  0  0  0
   38.5710   27.4110   41.7040 C   0  0  0  0  0  2  0  0  0  0  0  0
   37.8030   26.6920   41.3910 H   0  0  0  0  0  0  0  0  0  0  0  0
   38.5640   29.7500   42.1940 C   0  0  0  0  0  2  0  0  0  0  0  0
   37.6510   30.0010   42.7720 H   0  0  0  0  0  0  0  0  0  0  0  0
  1  2  1  0  0  0  0
  2  3  1  0  0  0  0
  3 13  1  0  0  0  0
  3  4  2  0  0  0  0
  4  8  1  0  0  0  0
  5  9  1  0  0  0  0
  5  4  1  0  0  0  0
  6  5  2  0  0  0  0
  7  2  2  0  0  0  0
  7  6  1  0  0  0  0
 10  6  1  0  0  0  0
 11 16  1  0  0  0  0
 12 11  2  0  0  0  0
 12 13  1  0  0  0  0
 13 14  2  0  0  0  0
 14 15  1  0  0  0  0
 15 19  1  0  0  0  0
 16 15  2  0  0  0  0
 17 11  1  0  0  0  0
 18 12  1  0  0  0  0
 20  7  1  0  0  0  0
 20 21  2  0  0  0  0
 21 28  1  0  0  0  0
 22 21  1  0  0  0  0
 23 24  2  0  0  0  0
 23 22  1  0  0  0  0
 24 20  1  0  0  0  0
 25 23  1  0  0  0  0
 26 25  1  0  0  0  0
 27 25  1  0  0  0  0
 28 29  1  0  0  0  0
 29 31  1  0  0  0  0
 29 33  1  0  0  0  0
 30 29  1  0  0  0  0
 32 31  1  0  0  0  0
 33 34  1  0  0  0  0
M  END
>  <minimizedAffinity>
-4.9514513

$$$$

 OpenBabel03242516073D

 34 36  0  0  0  0  0  0  0  0999 V2000
   39.8020   25.4500   40.4660 Cl  0  0  0  0  0  0  0  0  0  0  0  0
   38.8690   26.2660   41.6880 C   0  0  0  0  0  0  0  0  0  0  0  0
   37.5010   26.2690   41.6720 C   0  0  0  0  0  0  0  0  0  0  0  0
   36.8830   26.9490   42.6810 C   0  0  0  0  0  0  0  0  0  0  0  0
   37.5570   27.5920   43.6550 C   0  0  0  0  0  0  0  0  0  0  0  0
   38.9250   27.5930   43.6760 C   0  0  0  0  0  0  0  0  0  0  0  0
   39.5920   26.9070   42.6590 C   0  0  0  0  0  0  0  0  0  0  0  0
   35.8020   26.9760   42.7050 H   0  0  0  0  0  0  0  0  0  0  0  0
   37.0480   28.1280   44.4480 H   0  0  0  0  0  0  0  0  0  0  0  0
   39.4490   28.1190   44.4720 H   0  0  0  0  0  0  0  0  0  0  0  0
   35.7800   23.5770   39.6320 C   0  0  0  0  0  0  0  0  0  0  0  0
   36.4300   24.2340   40.6850 C   0  0  0  0  0  0  0  0  0  0  0  0
   36.8310   25.5650   40.6070 C   0  0  0  0  0  0  0  0  0  0  0  0
   36.5330   26.1630   39.4220 N   0  0  0  0  0  0  0  0  0  0  0  0
   35.9140   25.5460   38.4120 C   0  0  0  0  0  0  0  0  0  0  0  0
   35.5390   24.2610   38.5180 N   0  0  0  0  0  0  0  0  0  0  0  0
   35.5250   22.5490   39.8260 H   0  0  0  0  0  0  0  0  0  0  0  0
   36.6570   23.7370   41.6220 H   0  0  0  0  0  0  0  0  0  0  0  0
   35.6980   26.0670   37.4820 H   0  0  0  0  0  0  0  0  0  0  0  0
   41.0710   26.8990   42.6630 C   0  0  0  0  0  0  0  0  0  0  0  0
   41.8340   27.9610   42.1730 C   0  0  0  0  0  0  0  0  0  0  0  0
   43.5470   27.4020   42.4290 S   0  0  0  0  0  0  0  0  0  0  0  0
   42.9330   25.7520   43.1870 C   0  0  0  0  0  0  0  0  0  0  0  0
   41.8350   25.9250   43.1100 N   0  0  0  0  0  0  0  0  0  0  0  0
   43.7630   24.6910   43.6680 N   0  0  0  0  0  0  0  0  0  0  0  0
   44.4810   24.7700   44.4220 H   0  0  0  0  0  0  0  0  0  0  0  0
   43.5790   23.7700   43.1710 H   0  0  0  0  0  0  0  0  0  0  0  0
   41.5140   29.2500   41.5640 C   0  0  0  0  0  2  0  0  0  0  0  0
   40.8890   29.0760   40.2720 N   0  0  0  0  0  4  0  0  0  0  0  0
   40.2630   28.2230   40.3890 H   0  0  0  0  0  0  0  0  0  0  0  0
   41.7950   28.7570   39.2140 C   0  0  0  0  0  2  0  0  0  0  0  0
   42.8170   28.5810   39.5720 H   0  0  0  0  0  0  0  0  0  0  0  0
   39.9950   30.1580   39.9290 C   0  0  0  0  0  2  0  0  0  0  0  0
   40.3970   31.1510   40.2180 H   0  0  0  0  0  0  0  0  0  0  0  0
  1  2  1  0  0  0  0
  2  7  1  0  0  0  0
  3  2  2  0  0  0  0
  3  4  1  0  0  0  0
  4  8  1  0  0  0  0
  4  5  2  0  0  0  0
  5  6  1  0  0  0  0
  5  9  1  0  0  0  0
  6 10  1  0  0  0  0
  7 20  1  0  0  0  0
  7  6  2  0  0  0  0
 11 17  1  0  0  0  0
 11 12  1  0  0  0  0
 12 18  1  0  0  0  0
 13 12  2  0  0  0  0
 13  3  1  0  0  0  0
 14 13  1  0  0  0  0
 15 16  1  0  0  0  0
 15 14  2  0  0  0  0
 16 11  2  0  0  0  0
 19 15  1  0  0  0  0
 20 24  1  0  0  0  0
 21 22  1  0  0  0  0
 21 20  2  0  0  0  0
 22 23  1  0  0  0  0
 23 25  1  0  0  0  0
 24 23  2  0  0  0  0
 25 26  1  0  0  0  0
 27 25  1  0  0  0  0
 28 21  1  0  0  0  0
 29 30  1  0  0  0  0
 29 28  1  0  0  0  0
 31 32  1  0  0  0  0
 31 29  1  0  0  0  0
 33 34  1  0  0  0  0
 33 29  1  0  0  0  0
M  END
>  <minimizedAffinity>
-4.94795847

$$$$

 OpenBabel03242516073D

 34 36  0  0  0  0  0  0  0  0999 V2000
   36.6550   27.0010   38.4550 Cl  0  0  0  0  0  0  0  0  0  0  0  0
   36.7390   25.9440   39.8360 C   0  0  0  0  0  0  0  0  0  0  0  0
   36.4390   24.6130   39.7460 C   0  0  0  0  0  0  0  0  0  0  0  0
   36.5370   23.8900   40.9000 C   0  0  0  0  0  0  0  0  0  0  0  0
   36.9050   24.4300   42.0780 C   0  0  0  0  0  0  0  0  0  0  0  0
   37.2060   25.7610   42.1730 C   0  0  0  0  0  0  0  0  0  0  0  0
   37.1180   26.5340   41.0130 C   0  0  0  0  0  0  0  0  0  0  0  0
   36.3070   22.8330   40.8720 H   0  0  0  0  0  0  0  0  0  0  0  0
   36.9760   23.8390   42.9830 H   0  0  0  0  0  0  0  0  0  0  0  0
   37.5030   26.1770   43.1350 H   0  0  0  0  0  0  0  0  0  0  0  0
   34.3860   23.4820   36.7680 C   0  0  0  0  0  0  0  0  0  0  0  0
   34.7320   23.9990   38.0230 C   0  0  0  0  0  0  0  0  0  0  0  0
   36.0500   24.0870   38.4620 C   0  0  0  0  0  0  0  0  0  0  0  0
   36.9630   23.6280   37.5630 N   0  0  0  0  0  0  0  0  0  0  0  0
   36.6430   23.1340   36.3640 C   0  0  0  0  0  0  0  0  0  0  0  0
   35.3620   23.0620   35.9700 N   0  0  0  0  0  0  0  0  0  0  0  0
   33.3300   23.4720   36.5560 H   0  0  0  0  0  0  0  0  0  0  0  0
   33.9870   24.3590   38.7240 H   0  0  0  0  0  0  0  0  0  0  0  0
   37.4100   22.7780   35.6790 H   0  0  0  0  0  0  0  0  0  0  0  0
   37.4370   27.9760   41.0960 C   0  0  0  0  0  0  0  0  0  0  0  0
   38.7470   28.4590   41.1130 C   0  0  0  0  0  0  0  0  0  0  0  0
   38.5280   30.2620   41.2250 S   0  0  0  0  0  0  0  0  0  0  0  0
   36.6210   30.0660   41.2350 C   0  0  0  0  0  0  0  0  0  0  0  0
   36.5620   28.9560   41.1660 N   0  0  0  0  0  0  0  0  0  0  0  0
   35.6700   31.1310   41.3150 N   0  0  0  0  0  0  0  0  0  0  0  0
   35.5840   31.9270   40.6450 H   0  0  0  0  0  0  0  0  0  0  0  0
   35.0240   31.0410   42.1550 H   0  0  0  0  0  0  0  0  0  0  0  0
   40.0660   27.8320   41.0760 C   0  0  0  0  0  2  0  0  0  0  0  0
   40.9580   28.4340   42.0400 N   0  0  0  0  0  4  0  0  0  0  0  0
   40.5110   29.3730   42.2710 H   0  0  0  0  0  0  0  0  0  0  0  0
   42.2610   28.7340   41.5360 C   0  0  0  0  0  2  0  0  0  0  0  0
   42.3460   28.5610   40.4560 H   0  0  0  0  0  0  0  0  0  0  0  0
   41.0000   27.7180   43.2930 C   0  0  0  0  0  2  0  0  0  0  0  0
   41.0000   26.6160   43.1560 H   0  0  0  0  0  0  0  0  0  0  0  0
  1  2  1  0  0  0  0
  2  7  1  0  0  0  0
  3  2  2  0  0  0  0
  3  4  1  0  0  0  0
  4  5  2  0  0  0  0
  5  6  1  0  0  0  0
  5  9  1  0  0  0  0
  6 10  1  0  0  0  0
  7 20  1  0  0  0  0
  7  6  2  0  0  0  0
  8  4  1  0  0  0  0
 11 12  1  0  0  0  0
 12 13  2  0  0  0  0
 12 18  1  0  0  0  0
 13  3  1  0  0  0  0
 14 13  1  0  0  0  0
 15 14  2  0  0  0  0
 16 15  1  0  0  0  0
 16 11  2  0  0  0  0
 17 11  1  0  0  0  0
 19 15  1  0  0  0  0
 20 21  2  0  0  0  0
 20 24  1  0  0  0  0
 21 22  1  0  0  0  0
 22 23  1  0  0  0  0
 23 25  1  0  0  0  0
 24 23  2  0  0  0  0
 25 27  1  0  0  0  0
 26 25  1  0  0  0  0
 28 21  1  0  0  0  0
 28 29  1  0  0  0  0
 29 30  1  0  0  0  0
 29 33  1  0  0  0  0
 31 29  1  0  0  0  0
 32 31  1  0  0  0  0
 34 33  1  0  0  0  0
M  END
>  <minimizedAffinity>
-4.94054365

$$$$
