
 OpenBabel03242520563D

 39 40  0  0  0  0  0  0  0  0999 V2000
   48.5510   31.2570   48.6720 C   0  0  0  0  0  3  0  0  0  0  0  0
   47.5230   32.0780   48.7650 C   0  0  0  0  0  3  0  0  0  0  0  0
   51.1660   32.0390   51.1020 C   0  0  0  0  0  0  0  0  0  0  0  0
   51.2860   30.8100   51.8110 C   0  0  0  0  0  0  0  0  0  0  0  0
   50.4930   29.7490   51.4400 C   0  0  0  0  0  0  0  0  0  0  0  0
   49.6500   29.9520   50.4280 N   0  0  0  0  0  0  0  0  0  0  0  0
   49.5270   31.1060   49.7550 C   0  0  0  0  0  0  0  0  0  0  0  0
   50.2870   32.1600   50.0880 N   0  0  0  0  0  0  0  0  0  0  0  0
   51.7370   32.9390   51.3000 H   0  0  0  0  0  0  0  0  0  0  0  0
   50.5620   28.5580   52.0650 O   0  0  0  0  0  0  0  0  0  0  0  0
   51.4490   27.5690   51.5200 C   0  0  0  0  0  0  0  0  0  0  0  0
   52.1080   28.1040   50.4000 F   0  0  0  0  0  0  0  0  0  0  0  0
   52.4160   27.3350   52.4940 F   0  0  0  0  0  0  0  0  0  0  0  0
   50.8300   26.3640   51.2190 F   0  0  0  0  0  0  0  0  0  0  0  0
   52.2420   30.9400   52.9280 C   0  0  0  0  0  2  0  0  0  0  0  0
   53.5860   31.2830   52.4030 N   0  0  0  0  0  4  0  0  0  0  0  0
   53.4890   31.9040   51.5430 H   0  0  0  0  0  0  0  0  0  0  0  0
   54.3460   32.0610   53.3610 C   0  0  0  0  0  2  0  0  0  0  0  0
   55.4190   31.7240   53.3700 H   0  0  0  0  0  0  0  0  0  0  0  0
   54.3240   30.0880   52.0650 C   0  0  0  0  0  2  0  0  0  0  0  0
   55.3390   30.1110   52.5580 H   0  0  0  0  0  0  0  0  0  0  0  0
   46.5600   32.1970   47.6390 C   0  0  0  0  0  0  0  0  0  0  0  0
   46.3920   31.1650   47.3070 H   0  0  0  0  0  0  0  0  0  0  0  0
   45.5680   32.5600   48.0500 H   0  0  0  0  0  0  0  0  0  0  0  0
   46.5650   32.7870   45.3730 C   0  0  0  0  0  0  0  0  0  0  0  0
   45.8780   31.8590   44.8990 O   0  0  0  0  0  0  0  0  0  0  0  0
   46.9760   33.1170   46.6600 N   0  0  0  0  0  0  0  0  0  0  0  0
   47.5320   33.9700   46.7980 H   0  0  0  0  0  0  0  0  0  0  0  0
   44.8530   35.1450   44.4630 Cl  0  0  0  0  0  0  0  0  0  0  0  0
   46.2460   34.6050   43.5670 C   0  0  0  0  0  0  0  0  0  0  0  0
   46.8740   33.5340   44.1470 C   0  0  0  0  0  0  0  0  0  0  0  0
   48.0140   32.9740   43.5580 C   0  0  0  0  0  0  0  0  0  0  0  0
   48.5160   33.5090   42.3730 C   0  0  0  0  0  0  0  0  0  0  0  0
   47.8590   34.5960   41.8060 C   0  0  0  0  0  0  0  0  0  0  0  0
   48.4500   35.3070   40.3220 Cl  0  0  0  0  0  0  0  0  0  0  0  0
   46.7450   35.1270   42.4010 C   0  0  0  0  0  0  0  0  0  0  0  0
   48.5870   32.1560   43.8970 H   0  0  0  0  0  0  0  0  0  0  0  0
   49.3890   33.1360   41.8560 H   0  0  0  0  0  0  0  0  0  0  0  0
   46.1910   35.9710   42.0070 H   0  0  0  0  0  0  0  0  0  0  0  0
  1  2  2  0  0  0  0
  1  7  1  0  0  0  0
  3  9  1  0  0  0  0
  3  4  1  0  0  0  0
  4 15  1  0  0  0  0
  5  4  2  0  0  0  0
  5 10  1  0  0  0  0
  6  5  1  0  0  0  0
  7  8  1  0  0  0  0
  7  6  2  0  0  0  0
  8  3  2  0  0  0  0
 11 10  1  0  0  0  0
 11 13  1  0  0  0  0
 12 11  1  0  0  0  0
 14 11  1  0  0  0  0
 16 15  1  0  0  0  0
 16 18  1  0  0  0  0
 17 16  1  0  0  0  0
 18 19  1  0  0  0  0
 20 16  1  0  0  0  0
 20 21  1  0  0  0  0
 22 24  1  0  0  0  0
 22  2  1  0  0  0  0
 23 22  1  0  0  0  0
 25 27  1  0  0  0  0
 26 25  2  0  0  0  0
 27 28  1  0  0  0  0
 27 22  1  0  0  0  0
 30 31  1  0  0  0  0
 30 29  1  0  0  0  0
 31 25  1  0  0  0  0
 32 37  1  0  0  0  0
 32 31  2  0  0  0  0
 33 32  1  0  0  0  0
 34 33  2  0  0  0  0
 34 36  1  0  0  0  0
 35 34  1  0  0  0  0
 36 30  2  0  0  0  0
 38 33  1  0  0  0  0
 39 36  1  0  0  0  0
M  END
>  <minimizedAffinity>
-6.29288721

>  <minimizedRMSD>
0.427940547

$$$$
