REMARK  Name = 
REMARK  6 active torsions:
REMARK  status: ('A' for Active; 'I' for Inactive)
REMARK    1  A    between atoms: C_2  and  C_13
REMARK    2  A    between atoms: C_3  and  C_7
REMARK    3  A    between atoms: C_20  and  C_36
REMARK    4  A    between atoms: C_36  and  N_37
REMARK    5  A    between atoms: N_37  and  C_38
REMARK    6  A    between atoms: N_37  and  C_40
REMARK                            x       y       z     vdW  Elec       q    Type
REMARK                         _______ _______ _______ _____ _____    ______ ____
ROOT
ATOM      1  C   UNL     1      47.397  33.717  42.726  0.00  0.00    +0.000 C 
ATOM      2  O   UNL     1      48.509  33.526  43.322  0.00  0.00    +0.000 OA
ATOM      3  N   UNL     1      47.105  33.186  41.410  0.00  0.00    +0.000 N 
ATOM      4  C   UNL     1      45.916  32.527  40.893  0.00  0.00    +0.000 C 
ATOM      5  C   UNL     1      45.484  33.243  39.613  0.00  0.00    +0.000 C 
ATOM      6  C   UNL     1      46.547  33.091  38.554  0.00  0.00    +0.000 C 
ATOM      7  C   UNL     1      47.826  32.614  39.185  0.00  0.00    +0.000 C 
ATOM      8  C   UNL     1      48.191  33.339  40.435  0.00  0.00    +0.000 C 
ATOM      9  H   UNL     1      45.095  32.768  41.628  0.00  0.00    +0.000 HD
ATOM     10  H   UNL     1      46.048  31.458  40.728  0.00  0.00    +0.000 HD
ATOM     11  H   UNL     1      45.416  34.330  39.907  0.00  0.00    +0.000 HD
ATOM     12  H   UNL     1      44.492  32.902  39.283  0.00  0.00    +0.000 HD
ATOM     13  H   UNL     1      46.197  32.253  37.897  0.00  0.00    +0.000 HD
ATOM     14  H   UNL     1      46.664  33.961  37.911  0.00  0.00    +0.000 HD
ATOM     15  H   UNL     1      48.632  32.699  38.447  0.00  0.00    +0.000 HD
ATOM     16  H   UNL     1      47.739  31.530  39.455  0.00  0.00    +0.000 HD
ATOM     17  H   UNL     1      49.026  32.783  40.911  0.00  0.00    +0.000 HD
ENDROOT
BRANCH   1  19
ATOM     18  C   UNL     1      46.020  35.720  42.836  0.00  0.00    +0.000 A 
ATOM     19  C   UNL     1      46.390  34.490  43.385  0.00  0.00    +0.000 A 
ATOM     20  C   UNL     1      45.778  34.049  44.544  0.00  0.00    +0.000 A 
ATOM     21  N   UNL     1      44.835  34.837  45.105  0.00  0.00    +0.000 NA
ATOM     22  C   UNL     1      44.471  36.035  44.575  0.00  0.00    +0.000 A 
ATOM     23  N   UNL     1      45.072  36.457  43.446  0.00  0.00    +0.000 NA
ATOM     24  H   UNL     1      46.438  36.133  41.950  0.00  0.00    +0.000 HD
ATOM     25  H   UNL     1      43.708  36.627  45.067  0.00  0.00    +0.000 HD
BRANCH  20  26
ATOM     26  C   UNL     1      46.173  32.775  45.108  0.00  0.00    +0.000 A 
ATOM     27  C   UNL     1      45.799  31.613  44.502  0.00  0.00    +0.000 A 
ATOM     28  C   UNL     1      46.183  30.410  45.051  0.00  0.00    +0.000 A 
ATOM     29  C   UNL     1      46.948  30.327  46.213  0.00  0.00    +0.000 A 
ATOM     30  C   UNL     1      47.298  31.539  46.782  0.00  0.00    +0.000 A 
ATOM     31  N   UNL     1      46.906  32.692  46.221  0.00  0.00    +0.000 NA
ATOM     32  H   UNL     1      45.209  31.511  43.609  0.00  0.00    +0.000 HD
ATOM     33  H   UNL     1      45.917  29.451  44.617  0.00  0.00    +0.000 HD
ATOM     34  H   UNL     1      47.236  29.371  46.623  0.00  0.00    +0.000 HD
ATOM     35  H   UNL     1      47.885  31.518  47.676  0.00  0.00    +0.000 HD
ENDBRANCH  20  26
ENDBRANCH   1  19
BRANCH   8  36
ATOM     36  C   UNL     1      48.608  34.758  40.280  0.00  0.00    +0.000 C 
BRANCH  36  37
ATOM     37  N   UNL     1      47.844  35.389  39.237  0.00  0.00    +0.000 N 
ATOM     38  H   UNL     1      46.842  35.428  39.514  0.00  0.00    +0.000 HD
BRANCH  37  39
ATOM     39  C   UNL     1      47.943  34.712  37.976  0.00  0.00    +0.000 C 
ATOM     40  H   UNL     1      47.288  35.295  37.270  0.00  0.00    +0.000 HD
ENDBRANCH  37  39
BRANCH  37  41
ATOM     41  C   UNL     1      48.277  36.764  39.008  0.00  0.00    +0.000 C 
ATOM     42  H   UNL     1      47.913  37.040  37.996  0.00  0.00    +0.000 HD
ENDBRANCH  37  41
ENDBRANCH  36  37
ENDBRANCH   8  36
TORSDOF 6
