REMARK  Name = 
REMARK  7 active torsions:
REMARK  status: ('A' for Active; 'I' for Inactive)
REMARK    1  A    between atoms: C_2  and  N_23
REMARK    2  A    between atoms: C_5  and  C_12
REMARK    3  A    between atoms: C_19  and  C_40
REMARK    4  A    between atoms: C_20  and  N_22
REMARK    5  A    between atoms: C_40  and  N_41
REMARK    6  A    between atoms: N_41  and  C_42
REMARK    7  A    between atoms: N_41  and  C_44
REMARK                            x       y       z     vdW  Elec       q    Type
REMARK                         _______ _______ _______ _____ _____    ______ ____
ROOT
ATOM      1  C   UNL     1      47.474  32.059  47.850  0.00  0.00    +0.000 A 
ATOM      2  C   UNL     1      46.932  30.768  47.889  0.00  0.00    +0.000 A 
ATOM      3  C   UNL     1      45.948  30.491  47.002  0.00  0.00    +0.000 A 
ATOM      4  N   UNL     1      45.537  31.430  46.135  0.00  0.00    +0.000 NA
ATOM      5  C   UNL     1      46.032  32.647  46.077  0.00  0.00    +0.000 A 
ATOM      6  N   UNL     1      47.015  32.949  46.957  0.00  0.00    +0.000 NA
ATOM      7  N   UNL     1      45.349  29.252  46.993  0.00  0.00    +0.000 N 
ATOM      8  C   UNL     1      44.143  28.899  46.189  0.00  0.00    +0.000 C 
ATOM      9  C   UNL     1      44.027  27.405  46.259  0.00  0.00    +0.000 C 
ATOM     10  C   UNL     1      44.672  27.079  47.561  0.00  0.00    +0.000 C 
ATOM     11  C   UNL     1      45.748  28.096  47.741  0.00  0.00    +0.000 C 
ATOM     12  H   UNL     1      48.273  32.335  48.551  0.00  0.00    +0.000 HD
ATOM     13  H   UNL     1      44.237  29.210  45.151  0.00  0.00    +0.000 HD
ATOM     14  H   UNL     1      43.296  29.416  46.718  0.00  0.00    +0.000 HD
ATOM     15  H   UNL     1      42.951  27.075  46.311  0.00  0.00    +0.000 HD
ATOM     16  H   UNL     1      44.572  26.924  45.444  0.00  0.00    +0.000 HD
ATOM     17  H   UNL     1      43.906  27.073  48.383  0.00  0.00    +0.000 HD
ATOM     18  H   UNL     1      45.103  26.052  47.564  0.00  0.00    +0.000 HD
ATOM     19  H   UNL     1      45.715  28.325  48.827  0.00  0.00    +0.000 HD
ATOM     20  H   UNL     1      46.685  27.654  47.384  0.00  0.00    +0.000 HD
ENDROOT
BRANCH   5  21
ATOM     21  C   UNL     1      45.744  33.798  45.188  0.00  0.00    +0.000 A 
ATOM     22  N   UNL     1      44.873  34.772  45.486  0.00  0.00    +0.000 NA
ATOM     23  C   UNL     1      44.606  35.816  44.706  0.00  0.00    +0.000 A 
ATOM     24  N   UNL     1      45.232  35.953  43.514  0.00  0.00    +0.000 NA
ATOM     25  C   UNL     1      46.116  35.054  43.107  0.00  0.00    +0.000 A 
ATOM     26  C   UNL     1      46.770  35.186  41.890  0.00  0.00    +0.000 A 
ATOM     27  C   UNL     1      47.684  34.275  41.466  0.00  0.00    +0.000 A 
ATOM     28  C   UNL     1      47.946  33.204  42.285  0.00  0.00    +0.000 A 
ATOM     29  C   UNL     1      47.279  33.094  43.495  0.00  0.00    +0.000 A 
ATOM     30  C   UNL     1      46.358  33.987  43.954  0.00  0.00    +0.000 A 
ATOM     31  H   UNL     1      43.874  36.553  45.053  0.00  0.00    +0.000 HD
ATOM     32  H   UNL     1      46.545  36.038  41.264  0.00  0.00    +0.000 HD
ATOM     33  H   UNL     1      48.179  34.403  40.513  0.00  0.00    +0.000 HD
BRANCH  29  34
ATOM     34  N   UNL     1      47.666  31.923  44.208  0.00  0.00    +0.000 N 
ATOM     35  H   UNL     1      47.015  31.200  43.822  0.00  0.00    +0.000 HD
ATOM     36  H   UNL     1      48.385  31.708  44.928  0.00  0.00    +0.000 HD
ENDBRANCH  29  34
BRANCH  28  37
ATOM     37  C   UNL     1      48.954  32.226  41.799  0.00  0.00    +0.000 C 
BRANCH  37  38
ATOM     38  N   UNL     1      48.367  31.145  41.052  0.00  0.00    +0.000 N 
ATOM     39  H   UNL     1      48.585  31.274  40.049  0.00  0.00    +0.000 HD
BRANCH  38  40
ATOM     40  C   UNL     1      46.950  31.000  41.273  0.00  0.00    +0.000 C 
ATOM     41  H   UNL     1      46.572  30.277  40.519  0.00  0.00    +0.000 HD
ENDBRANCH  38  40
BRANCH  38  42
ATOM     42  C   UNL     1      48.954  29.870  41.452  0.00  0.00    +0.000 C 
ATOM     43  H   UNL     1      48.469  29.558  42.417  0.00  0.00    +0.000 HD
ENDBRANCH  38  42
ENDBRANCH  37  38
ENDBRANCH  28  37
ENDBRANCH   5  21
BRANCH   2  44
ATOM     44  N   UNL     1      47.465  29.884  48.787  0.00  0.00    +0.000 N 
ATOM     45  H   UNL     1      48.160  29.194  48.427  0.00  0.00    +0.000 HD
ATOM     46  H   UNL     1      47.230  29.849  49.825  0.00  0.00    +0.000 HD
ENDBRANCH   2  44
TORSDOF 7
