
 OpenBabel03252507523D

 29 30  0  0  1  0  0  0  0  0999 V2000
   36.9350   28.3930   42.0620 C   0  0  2  0  0  0  0  0  0  0  0  0
   36.1860   28.1870   40.7890 C   0  0  0  0  0  0  0  0  0  0  0  0
   35.5880   29.5760   40.6010 C   0  0  0  0  0  0  0  0  0  0  0  0
   36.6120   30.5330   41.1950 C   0  0  1  0  0  0  0  0  0  0  0  0
   37.7320   29.6590   41.7150 C   0  0  0  0  0  0  0  0  0  0  0  0
   36.2380   28.6540   42.8800 H   0  0  0  0  0  0  0  0  0  0  0  0
   36.8250   27.8990   39.9550 H   0  0  0  0  0  0  0  0  0  0  0  0
   35.3450   27.4950   40.9870 H   0  0  0  0  0  0  0  0  0  0  0  0
   35.4860   29.7040   39.5030 H   0  0  0  0  0  0  0  0  0  0  0  0
   34.5910   29.6680   41.0710 H   0  0  0  0  0  0  0  0  0  0  0  0
   36.1440   31.0230   42.0440 H   0  0  0  0  0  0  0  0  0  0  0  0
   38.1050   30.0550   42.6790 H   0  0  0  0  0  0  0  0  0  0  0  0
   38.5000   29.4130   40.9760 H   0  0  0  0  0  0  0  0  0  0  0  0
   39.6220   26.2950   43.6780 C   0  0  0  0  0  0  0  0  0  0  0  0
   38.8680   27.4230   43.3770 C   0  0  0  0  0  0  0  0  0  0  0  0
   37.8230   27.2870   42.4710 C   0  0  0  0  0  0  0  0  0  0  0  0
   37.5980   26.0520   41.9300 N   0  0  0  0  0  0  0  0  0  0  0  0
   38.3400   24.9710   42.2360 C   0  0  0  0  0  0  0  0  0  0  0  0
   39.3520   25.0880   43.1090 N   0  0  0  0  0  0  0  0  0  0  0  0
   40.4500   26.3640   44.3860 H   0  0  0  0  0  0  0  0  0  0  0  0
   39.0540   28.3800   43.8060 H   0  0  0  0  0  0  0  0  0  0  0  0
   38.1250   24.0170   41.7820 H   0  0  0  0  0  0  0  0  0  0  0  0
   37.0940   31.4140   40.0960 C   0  0  0  0  0  2  0  0  0  0  0  0
   37.4130   32.7550   40.4550 N   0  0  0  0  0  4  0  0  0  0  0  0
   36.7750   32.9940   41.2750 H   0  0  0  0  0  0  0  0  0  0  0  0
   38.7520   32.9440   40.9340 C   0  0  0  0  0  2  0  0  0  0  0  0
   39.2670   33.6870   40.2650 H   0  0  0  0  0  0  0  0  0  0  0  0
   37.0390   33.7340   39.4350 C   0  0  0  0  0  2  0  0  0  0  0  0
   36.8250   34.7140   39.9510 H   0  0  0  0  0  0  0  0  0  0  0  0
  1 16  1  0  0  0  0
  1  6  1  1  0  0  0
  2  8  1  0  0  0  0
  2  1  1  0  0  0  0
  3  2  1  0  0  0  0
  3 10  1  0  0  0  0
  3  4  1  0  0  0  0
  4  5  1  0  0  0  0
  4 11  1  1  0  0  0
  5  1  1  0  0  0  0
  5 12  1  0  0  0  0
  7  2  1  0  0  0  0
  9  3  1  0  0  0  0
 13  5  1  0  0  0  0
 14 20  1  0  0  0  0
 15 14  1  0  0  0  0
 15 21  1  0  0  0  0
 16 15  2  0  0  0  0
 17 18  2  0  0  0  0
 17 16  1  0  0  0  0
 18 19  1  0  0  0  0
 19 14  2  0  0  0  0
 22 18  1  0  0  0  0
 23 24  1  0  0  0  0
 23  4  1  0  0  0  0
 24 26  1  0  0  0  0
 24 25  1  0  0  0  0
 27 26  1  0  0  0  0
 28 29  1  0  0  0  0
 28 24  1  0  0  0  0
M  END
>  <minimizedAffinity>
-4.59891891

$$$$

 OpenBabel03252507523D

 29 30  0  0  1  0  0  0  0  0999 V2000
   36.6510   28.5160   41.8170 C   0  0  2  0  0  0  0  0  0  0  0  0
   35.9530   28.3790   40.5070 C   0  0  0  0  0  0  0  0  0  0  0  0
   35.4150   29.7950   40.3400 C   0  0  0  0  0  0  0  0  0  0  0  0
   36.4460   30.6930   41.0090 C   0  0  1  0  0  0  0  0  0  0  0  0
   37.5090   29.7610   41.5470 C   0  0  0  0  0  0  0  0  0  0  0  0
   35.9300   28.7770   42.6130 H   0  0  0  0  0  0  0  0  0  0  0  0
   36.6170   28.0930   39.6930 H   0  0  0  0  0  0  0  0  0  0  0  0
   35.0790   27.7140   40.6460 H   0  0  0  0  0  0  0  0  0  0  0  0
   35.3670   29.9620   39.2440 H   0  0  0  0  0  0  0  0  0  0  0  0
   34.4020   29.9100   40.7690 H   0  0  0  0  0  0  0  0  0  0  0  0
   35.9600   31.1730   41.8530 H   0  0  0  0  0  0  0  0  0  0  0  0
   37.8530   30.1120   42.5390 H   0  0  0  0  0  0  0  0  0  0  0  0
   38.2990   29.5090   40.8350 H   0  0  0  0  0  0  0  0  0  0  0  0
   38.1230   25.0710   42.2650 C   0  0  0  0  0  0  0  0  0  0  0  0
   37.2600   26.0580   41.8050 C   0  0  0  0  0  0  0  0  0  0  0  0
   37.4800   27.3640   42.2280 C   0  0  0  0  0  0  0  0  0  0  0  0
   38.5310   27.6000   43.0690 N   0  0  0  0  0  0  0  0  0  0  0  0
   39.3560   26.6280   43.5020 C   0  0  0  0  0  0  0  0  0  0  0  0
   39.1560   25.3630   43.1020 N   0  0  0  0  0  0  0  0  0  0  0  0
   37.9810   24.0340   41.9540 H   0  0  0  0  0  0  0  0  0  0  0  0
   36.4440   25.8620   41.1510 H   0  0  0  0  0  0  0  0  0  0  0  0
   40.1730   26.8630   44.1660 H   0  0  0  0  0  0  0  0  0  0  0  0
   37.0090   31.5890   39.9620 C   0  0  0  0  0  2  0  0  0  0  0  0
   37.3620   32.9050   40.3790 N   0  0  0  0  0  4  0  0  0  0  0  0
   36.7030   33.1390   41.1830 H   0  0  0  0  0  0  0  0  0  0  0  0
   38.6880   33.0280   40.9130 C   0  0  0  0  0  2  0  0  0  0  0  0
   39.2540   33.7730   40.2890 H   0  0  0  0  0  0  0  0  0  0  0  0
   37.0610   33.9300   39.3810 C   0  0  0  0  0  2  0  0  0  0  0  0
   36.8630   34.9000   39.9230 H   0  0  0  0  0  0  0  0  0  0  0  0
  1 16  1  0  0  0  0
  1  6  1  1  0  0  0
  2  8  1  0  0  0  0
  2  1  1  0  0  0  0
  3  2  1  0  0  0  0
  3 10  1  0  0  0  0
  3  4  1  0  0  0  0
  4  5  1  0  0  0  0
  4 11  1  1  0  0  0
  5  1  1  0  0  0  0
  5 12  1  0  0  0  0
  7  2  1  0  0  0  0
  9  3  1  0  0  0  0
 13  5  1  0  0  0  0
 14 19  1  0  0  0  0
 15 16  1  0  0  0  0
 15 14  2  0  0  0  0
 16 17  2  0  0  0  0
 17 18  1  0  0  0  0
 18 22  1  0  0  0  0
 19 18  2  0  0  0  0
 20 14  1  0  0  0  0
 21 15  1  0  0  0  0
 23 24  1  0  0  0  0
 23  4  1  0  0  0  0
 24 26  1  0  0  0  0
 24 25  1  0  0  0  0
 27 26  1  0  0  0  0
 28 29  1  0  0  0  0
 28 24  1  0  0  0  0
M  END
>  <minimizedAffinity>
-4.59444666

$$$$

 OpenBabel03252507523D

 29 30  0  0  1  0  0  0  0  0999 V2000
   36.9250   29.7650   41.7410 C   0  0  2  0  0  0  0  0  0  0  0  0
   38.1930   29.5070   42.4810 C   0  0  0  0  0  0  0  0  0  0  0  0
   37.7100   28.4700   43.4870 C   0  0  0  0  0  0  0  0  0  0  0  0
   36.6170   27.6940   42.7660 C   0  0  1  0  0  0  0  0  0  0  0  0
   36.5050   28.3280   41.3970 C   0  0  0  0  0  0  0  0  0  0  0  0
   36.1590   30.1800   42.4210 H   0  0  0  0  0  0  0  0  0  0  0  0
   38.9910   29.1230   41.8470 H   0  0  0  0  0  0  0  0  0  0  0  0
   38.4550   30.4180   43.0540 H   0  0  0  0  0  0  0  0  0  0  0  0
   38.5960   27.8370   43.7040 H   0  0  0  0  0  0  0  0  0  0  0  0
   37.3570   28.9340   44.4280 H   0  0  0  0  0  0  0  0  0  0  0  0
   35.6880   27.8710   43.2970 H   0  0  0  0  0  0  0  0  0  0  0  0
   35.4420   28.3890   41.0940 H   0  0  0  0  0  0  0  0  0  0  0  0
   37.1880   27.9210   40.6460 H   0  0  0  0  0  0  0  0  0  0  0  0
   37.1060   31.0050   38.1820 C   0  0  0  0  0  0  0  0  0  0  0  0
   36.9840   30.1030   39.2320 C   0  0  0  0  0  0  0  0  0  0  0  0
   37.0470   30.6000   40.5290 C   0  0  0  0  0  0  0  0  0  0  0  0
   37.2260   31.9450   40.6940 N   0  0  0  0  0  0  0  0  0  0  0  0
   37.3430   32.8020   39.6620 C   0  0  0  0  0  0  0  0  0  0  0  0
   37.2830   32.3370   38.4050 N   0  0  0  0  0  0  0  0  0  0  0  0
   37.0610   30.6510   37.1500 H   0  0  0  0  0  0  0  0  0  0  0  0
   36.8450   29.0580   39.0900 H   0  0  0  0  0  0  0  0  0  0  0  0
   37.4840   33.8560   39.8430 H   0  0  0  0  0  0  0  0  0  0  0  0
   37.0680   26.2790   42.6580 C   0  0  0  0  0  2  0  0  0  0  0  0
   37.5900   25.8780   41.3940 N   0  0  0  0  0  4  0  0  0  0  0  0
   37.3740   26.6780   40.7250 H   0  0  0  0  0  0  0  0  0  0  0  0
   39.0150   25.7140   41.3600 C   0  0  0  0  0  2  0  0  0  0  0  0
   39.2440   24.6540   41.0630 H   0  0  0  0  0  0  0  0  0  0  0  0
   36.8810   24.7410   40.8080 C   0  0  0  0  0  2  0  0  0  0  0  0
   36.9660   24.8160   39.6850 H   0  0  0  0  0  0  0  0  0  0  0  0
  1  6  1  1  0  0  0
  1  2  1  0  0  0  0
  2  8  1  0  0  0  0
  2  3  1  0  0  0  0
  3  9  1  0  0  0  0
  3 10  1  0  0  0  0
  4 11  1  1  0  0  0
  4  3  1  0  0  0  0
  5  1  1  0  0  0  0
  5  4  1  0  0  0  0
  7  2  1  0  0  0  0
 12  5  1  0  0  0  0
 13  5  1  0  0  0  0
 14 19  2  0  0  0  0
 14 15  1  0  0  0  0
 15 16  2  0  0  0  0
 16 17  1  0  0  0  0
 16  1  1  0  0  0  0
 18 22  1  0  0  0  0
 18 17  2  0  0  0  0
 19 18  1  0  0  0  0
 20 14  1  0  0  0  0
 21 15  1  0  0  0  0
 23  4  1  0  0  0  0
 24 23  1  0  0  0  0
 25 24  1  0  0  0  0
 26 24  1  0  0  0  0
 27 26  1  0  0  0  0
 28 24  1  0  0  0  0
 29 28  1  0  0  0  0
M  END
>  <minimizedAffinity>
-4.29929352

$$$$

 OpenBabel03252507523D

 29 30  0  0  1  0  0  0  0  0999 V2000
   38.1340   26.4430   42.6050 C   0  0  2  0  0  0  0  0  0  0  0  0
   36.8340   27.0970   42.9340 C   0  0  0  0  0  0  0  0  0  0  0  0
   37.3350   28.3280   43.6790 C   0  0  0  0  0  0  0  0  0  0  0  0
   38.6670   28.6720   43.0290 C   0  0  1  0  0  0  0  0  0  0  0  0
   38.8840   27.6200   41.9640 C   0  0  0  0  0  0  0  0  0  0  0  0
   38.6730   26.1700   43.5310 H   0  0  0  0  0  0  0  0  0  0  0  0
   36.2500   27.3590   42.0530 H   0  0  0  0  0  0  0  0  0  0  0  0
   36.3030   26.4640   43.6710 H   0  0  0  0  0  0  0  0  0  0  0  0
   36.5690   29.1110   43.4980 H   0  0  0  0  0  0  0  0  0  0  0  0
   37.4210   28.1500   44.7670 H   0  0  0  0  0  0  0  0  0  0  0  0
   39.4380   28.5520   43.7840 H   0  0  0  0  0  0  0  0  0  0  0  0
   39.9500   27.3210   41.9390 H   0  0  0  0  0  0  0  0  0  0  0  0
   38.4350   27.8510   40.9940 H   0  0  0  0  0  0  0  0  0  0  0  0
   37.0020   23.4180   40.6540 C   0  0  0  0  0  0  0  0  0  0  0  0
   36.9380   24.4710   41.5590 C   0  0  0  0  0  0  0  0  0  0  0  0
   38.0570   25.2850   41.6910 C   0  0  0  0  0  0  0  0  0  0  0  0
   39.1530   25.0020   40.9240 N   0  0  0  0  0  0  0  0  0  0  0  0
   39.1930   23.9770   40.0530 C   0  0  0  0  0  0  0  0  0  0  0  0
   38.1200   23.1830   39.9140 N   0  0  0  0  0  0  0  0  0  0  0  0
   36.1420   22.7580   40.5230 H   0  0  0  0  0  0  0  0  0  0  0  0
   36.0790   24.6810   42.1500 H   0  0  0  0  0  0  0  0  0  0  0  0
   40.0810   23.7930   39.4690 H   0  0  0  0  0  0  0  0  0  0  0  0
   38.5330   30.0230   42.4180 C   0  0  0  0  0  2  0  0  0  0  0  0
   37.9430   30.0740   41.1220 N   0  0  0  0  0  4  0  0  0  0  0  0
   37.8540   29.0610   40.8050 H   0  0  0  0  0  0  0  0  0  0  0  0
   36.6120   30.6110   41.0920 C   0  0  0  0  0  2  0  0  0  0  0  0
   36.6080   31.5120   40.4190 H   0  0  0  0  0  0  0  0  0  0  0  0
   38.8130   30.6740   40.1110 C   0  0  0  0  0  2  0  0  0  0  0  0
   38.5460   30.2280   39.1090 H   0  0  0  0  0  0  0  0  0  0  0  0
  1  2  1  0  0  0  0
  1  6  1  1  0  0  0
  2  8  1  0  0  0  0
  2  3  1  0  0  0  0
  3 10  1  0  0  0  0
  4  3  1  0  0  0  0
  4 11  1  1  0  0  0
  5  1  1  0  0  0  0
  5  4  1  0  0  0  0
  7  2  1  0  0  0  0
  9  3  1  0  0  0  0
 12  5  1  0  0  0  0
 13  5  1  0  0  0  0
 14 15  1  0  0  0  0
 15 16  2  0  0  0  0
 15 21  1  0  0  0  0
 16  1  1  0  0  0  0
 17 16  1  0  0  0  0
 18 17  2  0  0  0  0
 19 18  1  0  0  0  0
 19 14  2  0  0  0  0
 20 14  1  0  0  0  0
 22 18  1  0  0  0  0
 23  4  1  0  0  0  0
 24 23  1  0  0  0  0
 25 24  1  0  0  0  0
 26 24  1  0  0  0  0
 27 26  1  0  0  0  0
 28 24  1  0  0  0  0
 29 28  1  0  0  0  0
M  END
>  <minimizedAffinity>
-4.14734745

$$$$

 OpenBabel03252507523D

 29 30  0  0  1  0  0  0  0  0999 V2000
   37.6040   29.6550   41.9540 C   0  0  2  0  0  0  0  0  0  0  0  0
   36.4330   29.6880   41.0310 C   0  0  0  0  0  0  0  0  0  0  0  0
   36.4030   31.1730   40.6900 C   0  0  0  0  0  0  0  0  0  0  0  0
   37.8580   31.6190   40.7240 C   0  0  1  0  0  0  0  0  0  0  0  0
   38.6520   30.3880   41.1020 C   0  0  0  0  0  0  0  0  0  0  0  0
   37.4080   30.2760   42.8470 H   0  0  0  0  0  0  0  0  0  0  0  0
   36.5650   29.0670   40.1460 H   0  0  0  0  0  0  0  0  0  0  0  0
   35.5200   29.4700   41.6180 H   0  0  0  0  0  0  0  0  0  0  0  0
   35.9740   31.2290   39.6680 H   0  0  0  0  0  0  0  0  0  0  0  0
   35.7610   31.7470   41.3840 H   0  0  0  0  0  0  0  0  0  0  0  0
   37.9560   32.3440   41.5260 H   0  0  0  0  0  0  0  0  0  0  0  0
   39.4670   30.6630   41.7980 H   0  0  0  0  0  0  0  0  0  0  0  0
   38.9420   29.7540   40.2600 H   0  0  0  0  0  0  0  0  0  0  0  0
   37.9390   25.9370   42.5080 C   0  0  0  0  0  0  0  0  0  0  0  0
   37.3790   27.1360   42.0820 C   0  0  0  0  0  0  0  0  0  0  0  0
   38.0710   28.3110   42.3510 C   0  0  0  0  0  0  0  0  0  0  0  0
   39.2610   28.2190   43.0180 N   0  0  0  0  0  0  0  0  0  0  0  0
   39.7860   27.0460   43.4210 C   0  0  0  0  0  0  0  0  0  0  0  0
   39.1300   25.9040   43.1680 N   0  0  0  0  0  0  0  0  0  0  0  0
   37.4240   24.9950   42.3140 H   0  0  0  0  0  0  0  0  0  0  0  0
   36.4510   27.1940   41.5630 H   0  0  0  0  0  0  0  0  0  0  0  0
   40.7290   27.0240   43.9450 H   0  0  0  0  0  0  0  0  0  0  0  0
   38.2180   32.0800   39.3560 C   0  0  0  0  0  2  0  0  0  0  0  0
   39.0060   33.2650   39.2760 N   0  0  0  0  0  4  0  0  0  0  0  0
   38.6440   33.7960   38.4260 H   0  0  0  0  0  0  0  0  0  0  0  0
   38.8560   34.1600   40.3880 C   0  0  0  0  0  2  0  0  0  0  0  0
   39.8630   34.3000   40.8690 H   0  0  0  0  0  0  0  0  0  0  0  0
   40.4070   33.0090   38.9460 C   0  0  0  0  0  2  0  0  0  0  0  0
   40.8120   33.9140   38.4050 H   0  0  0  0  0  0  0  0  0  0  0  0
  1 16  1  0  0  0  0
  1  6  1  1  0  0  0
  2  8  1  0  0  0  0
  2  1  1  0  0  0  0
  3  4  1  0  0  0  0
  3  2  1  0  0  0  0
  3 10  1  0  0  0  0
  4  5  1  0  0  0  0
  4 11  1  1  0  0  0
  5 12  1  0  0  0  0
  5  1  1  0  0  0  0
  7  2  1  0  0  0  0
  9  3  1  0  0  0  0
 13  5  1  0  0  0  0
 14 19  1  0  0  0  0
 15 16  1  0  0  0  0
 15 14  2  0  0  0  0
 16 17  2  0  0  0  0
 17 18  1  0  0  0  0
 18 22  1  0  0  0  0
 19 18  2  0  0  0  0
 20 14  1  0  0  0  0
 21 15  1  0  0  0  0
 23  4  1  0  0  0  0
 24 23  1  0  0  0  0
 24 26  1  0  0  0  0
 25 24  1  0  0  0  0
 26 27  1  0  0  0  0
 28 24  1  0  0  0  0
 29 28  1  0  0  0  0
M  END
>  <minimizedAffinity>
-4.09174538

$$$$

 OpenBabel03252507523D

 29 30  0  0  1  0  0  0  0  0999 V2000
   37.2550   30.5140   40.1410 C   0  0  2  0  0  0  0  0  0  0  0  0
   35.9280   30.5200   40.8210 C   0  0  0  0  0  0  0  0  0  0  0  0
   35.5850   29.0370   40.7500 C   0  0  0  0  0  0  0  0  0  0  0  0
   36.9220   28.3140   40.8360 C   0  0  1  0  0  0  0  0  0  0  0  0
   37.9680   29.4030   40.9270 C   0  0  0  0  0  0  0  0  0  0  0  0
   37.1520   30.1670   39.0970 H   0  0  0  0  0  0  0  0  0  0  0  0
   35.9720   30.8820   41.8470 H   0  0  0  0  0  0  0  0  0  0  0  0
   35.2060   31.0520   40.1720 H   0  0  0  0  0  0  0  0  0  0  0  0
   34.9490   28.8410   41.6390 H   0  0  0  0  0  0  0  0  0  0  0  0
   35.0170   28.7830   39.8350 H   0  0  0  0  0  0  0  0  0  0  0  0
   37.0660   27.7860   39.8990 H   0  0  0  0  0  0  0  0  0  0  0  0
   38.8540   29.1280   40.3250 H   0  0  0  0  0  0  0  0  0  0  0  0
   38.1760   29.7540   41.9420 H   0  0  0  0  0  0  0  0  0  0  0  0
   38.2820   34.1420   39.9940 C   0  0  0  0  0  0  0  0  0  0  0  0
   37.4590   33.0260   39.8990 C   0  0  0  0  0  0  0  0  0  0  0  0
   38.0080   31.7840   40.1920 C   0  0  0  0  0  0  0  0  0  0  0  0
   39.3250   31.7320   40.5560 N   0  0  0  0  0  0  0  0  0  0  0  0
   40.1050   32.8260   40.6430 C   0  0  0  0  0  0  0  0  0  0  0  0
   39.5880   34.0320   40.3630 N   0  0  0  0  0  0  0  0  0  0  0  0
   37.8850   35.1340   39.7710 H   0  0  0  0  0  0  0  0  0  0  0  0
   36.4350   33.0800   39.6130 H   0  0  0  0  0  0  0  0  0  0  0  0
   41.1390   32.7350   40.9340 H   0  0  0  0  0  0  0  0  0  0  0  0
   36.9080   27.4890   42.0750 C   0  0  0  0  0  2  0  0  0  0  0  0
   38.0370   26.6450   42.2840 N   0  0  0  0  0  4  0  0  0  0  0  0
   38.7050   26.8520   41.4800 H   0  0  0  0  0  0  0  0  0  0  0  0
   38.7740   26.9160   43.4850 C   0  0  0  0  0  2  0  0  0  0  0  0
   38.7770   25.9860   44.1170 H   0  0  0  0  0  0  0  0  0  0  0  0
   37.7360   25.2230   42.1190 C   0  0  0  0  0  2  0  0  0  0  0  0
   38.6780   24.7020   41.7810 H   0  0  0  0  0  0  0  0  0  0  0  0
  1  6  1  6  0  0  0
  1 16  1  0  0  0  0
  1  2  1  0  0  0  0
  1  5  1  0  0  0  0
  2  7  1  0  0  0  0
  3  2  1  0  0  0  0
  3  4  1  0  0  0  0
  3  9  1  0  0  0  0
  4 11  1  6  0  0  0
  4  5  1  0  0  0  0
  4 23  1  0  0  0  0
  5 13  1  0  0  0  0
  8  2  1  0  0  0  0
 10  3  1  0  0  0  0
 12  5  1  0  0  0  0
 14 19  1  0  0  0  0
 15 14  2  0  0  0  0
 15 16  1  0  0  0  0
 16 17  2  0  0  0  0
 17 18  1  0  0  0  0
 18 22  1  0  0  0  0
 19 18  2  0  0  0  0
 20 14  1  0  0  0  0
 21 15  1  0  0  0  0
 23 24  1  0  0  0  0
 24 26  1  0  0  0  0
 25 24  1  0  0  0  0
 26 27  1  0  0  0  0
 28 24  1  0  0  0  0
 29 28  1  0  0  0  0
M  END
>  <minimizedAffinity>
-4.07896709

$$$$

 OpenBabel03252507523D

 29 30  0  0  1  0  0  0  0  0999 V2000
   37.0560   31.4940   40.6740 C   0  0  2  0  0  0  0  0  0  0  0  0
   36.9300   31.8660   39.2350 C   0  0  0  0  0  0  0  0  0  0  0  0
   37.3280   33.3350   39.3030 C   0  0  0  0  0  0  0  0  0  0  0  0
   38.3460   33.4210   40.4310 C   0  0  1  0  0  0  0  0  0  0  0  0
   38.4700   32.0140   40.9740 C   0  0  0  0  0  0  0  0  0  0  0  0
   36.3490   32.0820   41.2870 H   0  0  0  0  0  0  0  0  0  0  0  0
   37.5880   31.2930   38.5830 H   0  0  0  0  0  0  0  0  0  0  0  0
   35.8590   31.8320   38.9590 H   0  0  0  0  0  0  0  0  0  0  0  0
   37.7820   33.5610   38.3150 H   0  0  0  0  0  0  0  0  0  0  0  0
   36.4550   33.9970   39.4600 H   0  0  0  0  0  0  0  0  0  0  0  0
   37.9170   34.0460   41.2080 H   0  0  0  0  0  0  0  0  0  0  0  0
   38.5540   32.0410   42.0770 H   0  0  0  0  0  0  0  0  0  0  0  0
   39.2030   31.3880   40.4590 H   0  0  0  0  0  0  0  0  0  0  0  0
   36.4230   27.7790   40.4880 C   0  0  0  0  0  0  0  0  0  0  0  0
   36.4840   29.1030   40.0690 C   0  0  0  0  0  0  0  0  0  0  0  0
   36.9310   30.0540   40.9780 C   0  0  0  0  0  0  0  0  0  0  0  0
   37.2850   29.6320   42.2300 N   0  0  0  0  0  0  0  0  0  0  0  0
   37.2190   28.3440   42.6150 C   0  0  0  0  0  0  0  0  0  0  0  0
   36.7890   27.4140   41.7480 N   0  0  0  0  0  0  0  0  0  0  0  0
   36.0770   27.0050   39.8010 H   0  0  0  0  0  0  0  0  0  0  0  0
   36.2060   29.4190   39.0920 H   0  0  0  0  0  0  0  0  0  0  0  0
   37.5080   28.0590   43.6140 H   0  0  0  0  0  0  0  0  0  0  0  0
   39.6340   33.8760   39.8410 C   0  0  0  0  0  2  0  0  0  0  0  0
   40.5790   32.8570   39.5260 N   0  0  0  0  0  4  0  0  0  0  0  0
   40.1810   31.9570   39.9350 H   0  0  0  0  0  0  0  0  0  0  0  0
   40.7480   32.6080   38.1230 C   0  0  0  0  0  2  0  0  0  0  0  0
   41.8250   32.7870   37.8580 H   0  0  0  0  0  0  0  0  0  0  0  0
   41.8540   33.0130   40.2250 C   0  0  0  0  0  2  0  0  0  0  0  0
   42.3100   31.9890   40.3570 H   0  0  0  0  0  0  0  0  0  0  0  0
  1  5  1  0  0  0  0
  1 16  1  0  0  0  0
  1  6  1  1  0  0  0
  2  3  1  0  0  0  0
  2  1  1  0  0  0  0
  3 10  1  0  0  0  0
  3  4  1  0  0  0  0
  4  5  1  0  0  0  0
  4 11  1  1  0  0  0
  5 12  1  0  0  0  0
  7  2  1  0  0  0  0
  8  2  1  0  0  0  0
  9  3  1  0  0  0  0
 13  5  1  0  0  0  0
 14 19  1  0  0  0  0
 15 14  2  0  0  0  0
 15 16  1  0  0  0  0
 16 17  2  0  0  0  0
 17 18  1  0  0  0  0
 18 22  1  0  0  0  0
 19 18  2  0  0  0  0
 20 14  1  0  0  0  0
 21 15  1  0  0  0  0
 23  4  1  0  0  0  0
 24 23  1  0  0  0  0
 24 25  1  0  0  0  0
 24 28  1  0  0  0  0
 26 24  1  0  0  0  0
 27 26  1  0  0  0  0
 28 29  1  0  0  0  0
M  END
>  <minimizedAffinity>
-4.03757334

$$$$

 OpenBabel03252507523D

 29 30  0  0  1  0  0  0  0  0999 V2000
   37.2760   29.9830   41.4800 C   0  0  2  0  0  0  0  0  0  0  0  0
   37.9120   29.4380   42.7140 C   0  0  0  0  0  0  0  0  0  0  0  0
   37.2550   28.0640   42.7690 C   0  0  0  0  0  0  0  0  0  0  0  0
   37.0330   27.6700   41.3150 C   0  0  1  0  0  0  0  0  0  0  0  0
   37.5460   28.8350   40.4960 C   0  0  0  0  0  0  0  0  0  0  0  0
   36.1810   30.0570   41.6120 H   0  0  0  0  0  0  0  0  0  0  0  0
   38.9970   29.3710   42.6460 H   0  0  0  0  0  0  0  0  0  0  0  0
   37.5370   30.0120   43.5830 H   0  0  0  0  0  0  0  0  0  0  0  0
   37.9960   27.4050   43.2690 H   0  0  0  0  0  0  0  0  0  0  0  0
   36.3200   28.0710   43.3590 H   0  0  0  0  0  0  0  0  0  0  0  0
   35.9620   27.5940   41.1600 H   0  0  0  0  0  0  0  0  0  0  0  0
   36.8760   29.0140   39.6330 H   0  0  0  0  0  0  0  0  0  0  0  0
   38.6140   28.7980   40.2670 H   0  0  0  0  0  0  0  0  0  0  0  0
   39.4920   32.9470   40.7440 C   0  0  0  0  0  0  0  0  0  0  0  0
   39.1010   31.7270   41.2840 C   0  0  0  0  0  0  0  0  0  0  0  0
   37.8260   31.2620   40.9860 C   0  0  0  0  0  0  0  0  0  0  0  0
   37.0320   32.0300   40.1800 N   0  0  0  0  0  0  0  0  0  0  0  0
   37.4320   33.2090   39.6670 C   0  0  0  0  0  0  0  0  0  0  0  0
   38.6600   33.6710   39.9460 N   0  0  0  0  0  0  0  0  0  0  0  0
   40.4870   33.3440   40.9570 H   0  0  0  0  0  0  0  0  0  0  0  0
   39.7280   31.1390   41.9110 H   0  0  0  0  0  0  0  0  0  0  0  0
   36.7690   33.7800   39.0360 H   0  0  0  0  0  0  0  0  0  0  0  0
   37.8370   26.4450   41.0530 C   0  0  0  0  0  2  0  0  0  0  0  0
   37.8010   25.4390   42.0620 N   0  0  0  0  0  4  0  0  0  0  0  0
   37.4820   25.9320   42.9500 H   0  0  0  0  0  0  0  0  0  0  0  0
   36.8470   24.3930   41.8300 C   0  0  0  0  0  2  0  0  0  0  0  0
   37.3980   23.4140   41.7850 H   0  0  0  0  0  0  0  0  0  0  0  0
   39.1240   24.9240   42.4140 C   0  0  0  0  0  2  0  0  0  0  0  0
   39.0910   24.5770   43.4880 H   0  0  0  0  0  0  0  0  0  0  0  0
  1  6  1  1  0  0  0
  1  2  1  0  0  0  0
  2  3  1  0  0  0  0
  2  8  1  0  0  0  0
  3  9  1  0  0  0  0
  3 10  1  0  0  0  0
  4 11  1  6  0  0  0
  4  3  1  0  0  0  0
  5  4  1  0  0  0  0
  5  1  1  0  0  0  0
  7  2  1  0  0  0  0
 12  5  1  0  0  0  0
 13  5  1  0  0  0  0
 14 20  1  0  0  0  0
 14 15  1  0  0  0  0
 15 21  1  0  0  0  0
 16 15  2  0  0  0  0
 16  1  1  0  0  0  0
 17 16  1  0  0  0  0
 18 19  1  0  0  0  0
 18 17  2  0  0  0  0
 19 14  2  0  0  0  0
 22 18  1  0  0  0  0
 23  4  1  0  0  0  0
 23 24  1  0  0  0  0
 24 28  1  0  0  0  0
 24 25  1  0  0  0  0
 26 24  1  0  0  0  0
 27 26  1  0  0  0  0
 28 29  1  0  0  0  0
M  END
>  <minimizedAffinity>
-4.01237774

$$$$

 OpenBabel03252507523D

 29 30  0  0  1  0  0  0  0  0999 V2000
   36.2830   28.9130   39.9050 C   0  0  2  0  0  0  0  0  0  0  0  0
   36.3850   28.6390   38.4420 C   0  0  0  0  0  0  0  0  0  0  0  0
   36.2420   30.0530   37.8940 C   0  0  0  0  0  0  0  0  0  0  0  0
   36.8750   30.9540   38.9450 C   0  0  1  0  0  0  0  0  0  0  0  0
   37.3290   30.0290   40.0530 C   0  0  0  0  0  0  0  0  0  0  0  0
   35.2970   29.3490   40.1470 H   0  0  0  0  0  0  0  0  0  0  0  0
   37.3310   28.1810   38.1550 H   0  0  0  0  0  0  0  0  0  0  0  0
   35.4840   28.0760   38.1300 H   0  0  0  0  0  0  0  0  0  0  0  0
   36.8150   30.0580   36.9430 H   0  0  0  0  0  0  0  0  0  0  0  0
   35.1880   30.3150   37.6830 H   0  0  0  0  0  0  0  0  0  0  0  0
   36.0910   31.5930   39.3400 H   0  0  0  0  0  0  0  0  0  0  0  0
   37.1350   30.4950   41.0380 H   0  0  0  0  0  0  0  0  0  0  0  0
   38.3290   29.6080   39.9170 H   0  0  0  0  0  0  0  0  0  0  0  0
   36.9430   26.7080   42.8950 C   0  0  0  0  0  0  0  0  0  0  0  0
   36.6670   27.8670   42.1780 C   0  0  0  0  0  0  0  0  0  0  0  0
   36.5780   27.7710   40.7940 C   0  0  0  0  0  0  0  0  0  0  0  0
   36.7660   26.5450   40.2200 N   0  0  0  0  0  0  0  0  0  0  0  0
   37.0320   25.4350   40.9340 C   0  0  0  0  0  0  0  0  0  0  0  0
   37.1210   25.5110   42.2710 N   0  0  0  0  0  0  0  0  0  0  0  0
   37.0200   26.7450   43.9830 H   0  0  0  0  0  0  0  0  0  0  0  0
   36.5220   28.8160   42.6370 H   0  0  0  0  0  0  0  0  0  0  0  0
   37.1740   24.4890   40.4360 H   0  0  0  0  0  0  0  0  0  0  0  0
   38.0390   31.6330   38.3140 C   0  0  0  0  0  2  0  0  0  0  0  0
   38.3480   32.9380   38.7970 N   0  0  0  0  0  4  0  0  0  0  0  0
   38.5170   33.5340   37.9310 H   0  0  0  0  0  0  0  0  0  0  0  0
   37.2820   33.5790   39.5120 C   0  0  0  0  0  2  0  0  0  0  0  0
   37.6420   33.8140   40.5500 H   0  0  0  0  0  0  0  0  0  0  0  0
   39.6220   33.0050   39.5110 C   0  0  0  0  0  2  0  0  0  0  0  0
   40.0350   34.0490   39.3950 H   0  0  0  0  0  0  0  0  0  0  0  0
  1  5  1  0  0  0  0
  1  6  1  1  0  0  0
  1 16  1  0  0  0  0
  2  1  1  0  0  0  0
  3  2  1  0  0  0  0
  3  4  1  0  0  0  0
  4 11  1  1  0  0  0
  4  5  1  0  0  0  0
  5 12  1  0  0  0  0
  7  2  1  0  0  0  0
  8  2  1  0  0  0  0
  9  3  1  0  0  0  0
 10  3  1  0  0  0  0
 13  5  1  0  0  0  0
 14 20  1  0  0  0  0
 15 21  1  0  0  0  0
 15 14  2  0  0  0  0
 16 15  1  0  0  0  0
 17 16  2  0  0  0  0
 17 18  1  0  0  0  0
 18 19  2  0  0  0  0
 19 14  1  0  0  0  0
 22 18  1  0  0  0  0
 23 24  1  0  0  0  0
 23  4  1  0  0  0  0
 24 28  1  0  0  0  0
 24 26  1  0  0  0  0
 25 24  1  0  0  0  0
 26 27  1  0  0  0  0
 29 28  1  0  0  0  0
M  END
>  <minimizedAffinity>
-3.99164367

$$$$
