
     RDKit          3D

 45 47  0  0  0  0  0  0  0  0999 V2000
   48.0830   34.5705   41.7309 C   0  0  0  0  0  0  0  0  0  0  0  0
   48.8892   35.8302   41.4121 C   0  0  0  0  0  0  0  0  0  0  0  0
   49.4957   34.6722   42.0777 C   0  0  0  0  0  0  0  0  0  0  0  0
   47.6862   33.7824   40.5162 C   0  0  0  0  0  0  0  0  0  0  0  0
   48.1648   34.3622   39.2034 C   0  0  0  0  0  0  0  0  0  0  0  0
   47.7655   33.3482   38.1365 C   0  0  0  0  0  0  0  0  0  0  0  0
   46.3855   33.4332   37.9781 O   0  0  0  0  0  0  0  0  0  0  0  0
   45.8844   32.8282   39.1562 C   0  0  0  0  0  0  0  0  0  0  0  0
   46.1634   33.7601   40.3332 C   0  0  0  0  0  0  0  0  0  0  0  0
   46.1277   35.7261   42.7758 C   0  0  0  0  0  0  0  0  0  0  0  0
   47.0542   34.6859   42.8121 C   0  0  0  0  0  0  0  0  0  0  0  0
   46.9792   33.7832   43.8947 C   0  0  0  0  0  0  0  0  0  0  0  0
   46.0262   33.9703   44.8329 N   0  0  0  0  0  0  0  0  0  0  0  0
   45.1639   34.9916   44.7412 C   0  0  0  0  0  0  0  0  0  0  0  0
   45.1923   35.8697   43.7381 N   0  0  0  0  0  0  0  0  0  0  0  0
   44.1387   35.2280   45.7041 N   0  0  0  0  0  0  0  0  0  0  0  0
   48.6272   36.7000   42.0464 H   0  0  0  0  0  0  0  0  0  0  0  0
   49.0537   36.0974   40.3623 H   0  0  0  0  0  0  0  0  0  0  0  0
   50.2855   34.1259   41.4843 H   0  0  0  0  0  0  0  0  0  0  0  0
   49.8363   34.8325   43.1114 H   0  0  0  0  0  0  0  0  0  0  0  0
   48.0673   32.7572   40.6426 H   0  0  0  0  0  0  0  0  0  0  0  0
   47.6780   35.3044   38.9557 H   0  0  0  0  0  0  0  0  0  0  0  0
   49.2799   34.4046   39.1716 H   0  0  0  0  0  0  0  0  0  0  0  0
   48.3178   33.4958   37.1936 H   0  0  0  0  0  0  0  0  0  0  0  0
   48.0512   32.3471   38.5455 H   0  0  0  0  0  0  0  0  0  0  0  0
   46.4396   31.8875   39.3711 H   0  0  0  0  0  0  0  0  0  0  0  0
   44.8024   32.6164   39.0590 H   0  0  0  0  0  0  0  0  0  0  0  0
   45.6277   33.4305   41.2233 H   0  0  0  0  0  0  0  0  0  0  0  0
   45.8995   34.7739   39.9778 H   0  0  0  0  0  0  0  0  0  0  0  0
   46.2090   36.4012   41.9328 H   0  0  0  0  0  0  0  0  0  0  0  0
   44.2903   35.6044   46.6608 H   0  0  0  0  0  0  0  0  0  0  0  0
   43.1098   35.0416   45.5409 H   0  0  0  0  0  0  0  0  0  0  0  0
   47.8761   32.6334   44.0259 C   0  0  0  0  0  0  0  0  0  0  0  0
   47.2902   31.3351   43.9467 N   0  0  0  0  0  4  0  0  0  0  0  0
   48.1838   30.4103   44.6730 C   0  0  0  0  0  0  0  0  0  0  0  0
   47.9991   29.3620   44.3987 H   0  0  0  0  0  0  0  0  0  0  0  0
   45.9912   31.1586   44.4952 C   0  0  0  0  0  0  0  0  0  0  0  0
   45.9035   30.0664   44.7862 H   0  0  0  0  0  0  0  0  0  0  0  0
   48.6823   32.6488   43.2324 H   0  0  0  0  0  0  0  0  0  0  0  0
   48.4294   32.7240   44.9776 H   0  0  0  0  0  0  0  0  0  0  0  0
   47.2816   30.9517   42.9748 H   0  0  0  0  0  0  0  0  0  0  0  0
   49.2142   30.6721   44.3510 H   0  0  0  0  0  0  0  0  0  0  0  0
   48.1623   30.6192   45.7608 H   0  0  0  0  0  0  0  0  0  0  0  0
   45.7968   31.6895   45.4411 H   0  0  0  0  0  0  0  0  0  0  0  0
   45.1512   31.2569   43.7463 H   0  0  0  0  0  0  0  0  0  0  0  0
  1  3  1  0
  1 11  1  0
  2  1  1  0
  2  3  1  0
  4  1  1  0
  5  4  1  0
  6  5  1  0
  7  6  1  0
  7  8  1  0
  8  9  1  0
  9  4  1  0
 10 11  2  0
 10 15  1  0
 11 12  1  0
 12 13  2  0
 14 13  1  0
 14 16  1  0
 15 14  2  0
  2 17  1  0
  2 18  1  0
  3 19  1  0
  3 20  1  0
  4 21  1  0
  5 22  1  0
  5 23  1  0
  6 24  1  0
  6 25  1  0
  8 26  1  0
  8 27  1  0
  9 28  1  0
  9 29  1  0
 10 30  1  0
 16 31  1  0
 16 32  1  0
 33 34  1  0
 34 35  1  0
 35 36  1  0
 34 37  1  0
 37 38  1  0
 33 39  1  0
 33 40  1  0
 34 41  1  0
 35 42  1  0
 35 43  1  0
 37 44  1  0
 37 45  1  0
 12 33  1  0
M  ISO  8  17  13  18  13  19  13  20  13  21  13  22  13  23  13  24  13
M  ISO  8  25  13  26  13  27  13  28  13  29  13  30  14  36   8  38   8
M  CHG  1  34   1
M  END
>  <DihAtoms>  (1) 
10,11,32,33

>  <DihDeg>  (1) 
-174.83209003021918

$$$$
