REMARK  Name = 
REMARK  6 active torsions:
REMARK  status: ('A' for Active; 'I' for Inactive)
REMARK    1  A    between atoms: C_3  and  S_9
REMARK    2  A    between atoms: S_9  and  C_10
REMARK    3  A    between atoms: C_14  and  C_21
REMARK    4  A    between atoms: C_21  and  N_22
REMARK    5  A    between atoms: N_22  and  C_23
REMARK    6  A    between atoms: N_22  and  C_25
REMARK                            x       y       z     vdW  Elec       q    Type
REMARK                         _______ _______ _______ _____ _____    ______ ____
ROOT
ATOM      1  C   UNL     1      44.355  34.631  42.730  0.00  0.00    +0.000 A 
ATOM      2  C   UNL     1      45.032  33.494  43.207  0.00  0.00    +0.000 A 
ATOM      3  C   UNL     1      45.476  33.493  44.533  0.00  0.00    +0.000 A 
ATOM      4  N   UNL     1      45.235  34.584  45.296  0.00  0.00    +0.000 NA
ATOM      5  C   UNL     1      44.575  35.669  44.799  0.00  0.00    +0.000 A 
ATOM      6  N   UNL     1      44.136  35.698  43.525  0.00  0.00    +0.000 NA
ATOM      7  H   UNL     1      45.234  32.615  42.616  0.00  0.00    +0.000 HD
ATOM      8  H   UNL     1      46.003  32.640  44.951  0.00  0.00    +0.000 HD
ENDROOT
BRANCH   1   9
ATOM      9  S   UNL     1      43.827  34.539  41.024  0.00  0.00    +0.000 S 
BRANCH   9  12
ATOM     10 CL   UNL     1      42.100  31.933  41.713  0.00  0.00    +0.000 Cl
ATOM     11  C   UNL     1      41.270  33.359  41.114  0.00  0.00    +0.000 A 
ATOM     12  C   UNL     1      42.074  34.418  40.846  0.00  0.00    +0.000 A 
ATOM     13  C   UNL     1      41.472  35.591  40.364  0.00  0.00    +0.000 A 
ATOM     14  C   UNL     1      40.087  35.624  40.179  0.00  0.00    +0.000 A 
ATOM     15  C   UNL     1      39.279  34.542  40.454  0.00  0.00    +0.000 A 
ATOM     16  C   UNL     1      39.905  33.386  40.934  0.00  0.00    +0.000 A 
ATOM     17 CL   UNL     1      38.979  31.947  41.318  0.00  0.00    +0.000 Cl
ATOM     18  H   UNL     1      41.992  36.480  40.120  0.00  0.00    +0.000 HD
ATOM     19  H   UNL     1      39.592  36.516  39.807  0.00  0.00    +0.000 HD
ATOM     20  H   UNL     1      38.202  34.568  40.310  0.00  0.00    +0.000 HD
ENDBRANCH   9  12
ENDBRANCH   1   9
BRANCH   5  21
ATOM     21  C   UNL     1      44.357  36.822  45.714  0.00  0.00    +0.000 C 
BRANCH  21  22
ATOM     22  N   UNL     1      44.665  38.078  45.054  0.00  0.00    +0.000 N 
ATOM     23  H   UNL     1      43.880  38.381  44.420  0.00  0.00    +0.000 HD
BRANCH  22  24
ATOM     24  C   UNL     1      45.910  38.003  44.313  0.00  0.00    +0.000 C 
ATOM     25  H   UNL     1      45.991  38.998  43.790  0.00  0.00    +0.000 HD
ENDBRANCH  22  24
BRANCH  22  26
ATOM     26  C   UNL     1      44.830  39.109  46.064  0.00  0.00    +0.000 C 
ATOM     27  H   UNL     1      44.353  40.066  45.709  0.00  0.00    +0.000 HD
ENDBRANCH  22  26
ENDBRANCH  21  22
ENDBRANCH   5  21
TORSDOF 6
