
 OpenBabel03242520563D

 39 40  0  0  0  0  0  0  0  0999 V2000
   48.4870   31.3470   48.5780 C   0  0  0  0  0  3  0  0  0  0  0  0
   47.4810   32.1940   48.6640 C   0  0  0  0  0  3  0  0  0  0  0  0
   51.2240   32.1800   50.8520 C   0  0  0  0  0  0  0  0  0  0  0  0
   51.3240   30.9980   51.6370 C   0  0  0  0  0  0  0  0  0  0  0  0
   50.4760   29.9480   51.3690 C   0  0  0  0  0  0  0  0  0  0  0  0
   49.6040   30.1170   50.3770 N   0  0  0  0  0  0  0  0  0  0  0  0
   49.4980   31.2270   49.6320 C   0  0  0  0  0  0  0  0  0  0  0  0
   50.3110   32.2700   49.8640 N   0  0  0  0  0  0  0  0  0  0  0  0
   51.8360   33.0670   50.9660 H   0  0  0  0  0  0  0  0  0  0  0  0
   50.5250   28.7990   52.0710 O   0  0  0  0  0  0  0  0  0  0  0  0
   51.4480   27.7900   51.6360 C   0  0  0  0  0  0  0  0  0  0  0  0
   51.9540   28.1380   50.3720 F   0  0  0  0  0  0  0  0  0  0  0  0
   52.5140   27.8250   52.5310 F   0  0  0  0  0  0  0  0  0  0  0  0
   50.9190   26.5060   51.6360 F   0  0  0  0  0  0  0  0  0  0  0  0
   52.3280   31.1620   52.7080 C   0  0  0  0  0  2  0  0  0  0  0  0
   51.7170   31.8500   53.8700 N   0  0  0  0  0  4  0  0  0  0  0  0
   50.6780   32.0030   53.6920 H   0  0  0  0  0  0  0  0  0  0  0  0
   51.7940   31.0370   55.0670 C   0  0  0  0  0  2  0  0  0  0  0  0
   52.0450   31.6790   55.9560 H   0  0  0  0  0  0  0  0  0  0  0  0
   52.3640   33.1200   54.1120 C   0  0  0  0  0  2  0  0  0  0  0  0
   52.6790   33.1900   55.1930 H   0  0  0  0  0  0  0  0  0  0  0  0
   46.4810   32.2770   47.5680 C   0  0  0  0  0  0  0  0  0  0  0  0
   46.3520   31.2420   47.2300 H   0  0  0  0  0  0  0  0  0  0  0  0
   45.4850   32.5890   48.0110 H   0  0  0  0  0  0  0  0  0  0  0  0
   46.6250   32.7800   45.2850 C   0  0  0  0  0  0  0  0  0  0  0  0
   46.1790   31.7220   44.7950 O   0  0  0  0  0  0  0  0  0  0  0  0
   46.8230   33.2260   46.5880 N   0  0  0  0  0  0  0  0  0  0  0  0
   47.1930   34.1740   46.7350 H   0  0  0  0  0  0  0  0  0  0  0  0
   44.8720   35.1030   44.3660 Cl  0  0  0  0  0  0  0  0  0  0  0  0
   46.2770   34.5870   43.4740 C   0  0  0  0  0  0  0  0  0  0  0  0
   46.9230   33.5300   44.0580 C   0  0  0  0  0  0  0  0  0  0  0  0
   48.0740   32.9890   43.4730 C   0  0  0  0  0  0  0  0  0  0  0  0
   48.5690   33.5300   42.2870 C   0  0  0  0  0  0  0  0  0  0  0  0
   47.8930   34.6030   41.7170 C   0  0  0  0  0  0  0  0  0  0  0  0
   48.4740   35.3220   40.2320 Cl  0  0  0  0  0  0  0  0  0  0  0  0
   46.7680   35.1150   42.3080 C   0  0  0  0  0  0  0  0  0  0  0  0
   48.6620   32.1820   43.8150 H   0  0  0  0  0  0  0  0  0  0  0  0
   49.4490   33.1720   41.7730 H   0  0  0  0  0  0  0  0  0  0  0  0
   46.2000   35.9490   41.9110 H   0  0  0  0  0  0  0  0  0  0  0  0
  1  2  2  0  0  0  0
  1  7  1  0  0  0  0
  3  9  1  0  0  0  0
  3  4  1  0  0  0  0
  4 15  1  0  0  0  0
  5  4  2  0  0  0  0
  5 10  1  0  0  0  0
  6  5  1  0  0  0  0
  7  8  1  0  0  0  0
  7  6  2  0  0  0  0
  8  3  2  0  0  0  0
 11 10  1  0  0  0  0
 11 13  1  0  0  0  0
 12 11  1  0  0  0  0
 14 11  1  0  0  0  0
 15 16  1  0  0  0  0
 16 20  1  0  0  0  0
 16 18  1  0  0  0  0
 17 16  1  0  0  0  0
 18 19  1  0  0  0  0
 20 21  1  0  0  0  0
 22 24  1  0  0  0  0
 22  2  1  0  0  0  0
 23 22  1  0  0  0  0
 25 27  1  0  0  0  0
 26 25  2  0  0  0  0
 27 28  1  0  0  0  0
 27 22  1  0  0  0  0
 30 31  1  0  0  0  0
 30 29  1  0  0  0  0
 31 25  1  0  0  0  0
 32 37  1  0  0  0  0
 32 31  2  0  0  0  0
 33 32  1  0  0  0  0
 34 33  2  0  0  0  0
 34 36  1  0  0  0  0
 35 34  1  0  0  0  0
 36 30  2  0  0  0  0
 38 33  1  0  0  0  0
 39 36  1  0  0  0  0
M  END
>  <minimizedAffinity>
-6.65643072

>  <minimizedRMSD>
0.281085163

$$$$
