
     RDKit          3D

 35 36  0  0  0  0  0  0  0  0999 V2000
   44.5128   35.8901   44.7210 C   0  0  0  0  0  0  0  0  0  0  0  0
   45.1064   36.0401   43.4733 C   0  0  0  0  0  0  0  0  0  0  0  0
   46.0535   35.1002   43.0840 C   0  0  0  0  0  0  0  0  0  0  0  0
   46.3454   34.0841   43.9510 N   0  0  0  0  0  0  0  0  0  0  0  0
   45.7583   33.9568   45.1561 C   0  0  0  0  0  0  0  0  0  0  0  0
   44.8419   34.8567   45.5454 N   0  0  0  0  0  0  0  0  0  0  0  0
   46.7586   35.1262   41.7868 C   0  0  2  0  0  0  0  0  0  0  0  0
   46.8485   33.8207   41.0706 C   0  0  0  0  0  0  0  0  0  0  0  0
   47.8016   34.1985   39.9440 C   0  0  0  0  0  0  0  0  0  0  0  0
   48.7237   35.2535   40.5394 C   0  0  1  0  0  0  0  0  0  0  0  0
   48.2503   35.4520   41.9624 C   0  0  0  0  0  0  0  0  0  0  0  0
   43.7648   36.6094   45.0599 H   0  0  0  0  0  0  0  0  0  0  0  0
   44.8705   36.8359   42.8071 H   0  0  0  0  0  0  0  0  0  0  0  0
   46.0216   33.1375   45.8057 H   0  0  0  0  0  0  0  0  0  0  0  0
   46.3259   35.8994   41.1257 H   0  0  0  0  0  0  0  0  0  0  0  0
   47.2436   33.0172   41.6904 H   0  0  0  0  0  0  0  0  0  0  0  0
   45.8658   33.6093   40.6083 H   0  0  0  0  0  0  0  0  0  0  0  0
   48.3460   33.2638   39.6950 H   0  0  0  0  0  0  0  0  0  0  0  0
   47.2648   34.5563   39.0453 H   0  0  0  0  0  0  0  0  0  0  0  0
   48.5542   36.1777   39.9949 H   0  0  0  0  0  0  0  0  0  0  0  0
   48.2946   36.5245   42.2305 H   0  0  0  0  0  0  0  0  0  0  0  0
   48.6876   34.7636   42.6902 H   0  0  0  0  0  0  0  0  0  0  0  0
   50.1081   34.7068   40.5138 C   0  0  0  0  0  0  0  0  0  0  0  0
   50.2296   33.2909   40.6239 N   0  0  0  0  0  4  0  0  0  0  0  0
   49.4955   32.7103   41.7116 C   0  0  0  0  0  0  0  0  0  0  0  0
   48.7670   31.9639   41.2898 H   0  0  0  0  0  0  0  0  0  0  0  0
   50.0088   32.5900   39.3599 C   0  0  0  0  0  0  0  0  0  0  0  0
   50.6027   31.6302   39.3832 H   0  0  0  0  0  0  0  0  0  0  0  0
   50.5304   34.9873   39.5048 H   0  0  0  0  0  0  0  0  0  0  0  0
   50.7619   35.2017   41.2536 H   0  0  0  0  0  0  0  0  0  0  0  0
   51.2566   33.1052   40.8358 H   0  0  0  0  0  0  0  0  0  0  0  0
   50.1404   32.1233   42.4176 H   0  0  0  0  0  0  0  0  0  0  0  0
   48.9887   33.4493   42.3724 H   0  0  0  0  0  0  0  0  0  0  0  0
   48.9517   32.3560   39.1779 H   0  0  0  0  0  0  0  0  0  0  0  0
   50.4893   33.2016   38.5711 H   0  0  0  0  0  0  0  0  0  0  0  0
  1  6  2  0
  2  1  1  0
  3  2  2  0
  3  4  1  0
  4  5  2  0
  5  6  1  0
  7 11  1  0
  7  3  1  0
  8  7  1  0
  9 10  1  0
  9  8  1  0
 10 11  1  0
  1 12  1  0
  2 13  1  0
  5 14  1  0
  7 15  1  6
  8 16  1  0
  8 17  1  0
  9 18  1  0
  9 19  1  0
 10 20  1  6
 11 21  1  0
 11 22  1  0
 23 24  1  0
 24 25  1  0
 25 26  1  0
 24 27  1  0
 27 28  1  0
 23 29  1  0
 23 30  1  0
 24 31  1  0
 25 32  1  0
 25 33  1  0
 27 34  1  0
 27 35  1  0
 10 23  1  0
M  ISO  8  12  14  13  14  14  14  15  13  16  13  17  13  18  13  19  13
M  CHG  1  24   1
M  ISO  5  20  13  21  13  22  13  26   8  28   8
M  END
>  <DihAtoms>  (1) 
8,9,22,23

>  <DihDeg>  (1) 
179.99946318746765

$$$$
