
     RDKit          3D

 28 28  0  0  0  0  0  0  0  0999 V2000
   44.5967   35.9901   44.5116 C   0  0  0  0  0  0  0  0  0  0  0  0
   45.2255   36.0056   43.2546 C   0  0  0  0  0  0  0  0  0  0  0  0
   46.0923   34.9504   42.9760 C   0  0  0  0  0  0  0  0  0  0  0  0
   46.2912   33.9789   43.8973 N   0  0  0  0  0  0  0  0  0  0  0  0
   45.6671   33.9961   45.1007 C   0  0  0  0  0  0  0  0  0  0  0  0
   44.8172   35.0101   45.4019 N   0  0  0  0  0  0  0  0  0  0  0  0
   46.7169   34.9673   41.7253 O   0  0  0  0  0  0  0  0  0  0  0  0
   48.6524   33.3296   40.9769 O   0  0  0  0  0  0  0  0  0  0  0  0
   48.4005   34.6879   41.6320 P   0  0  0  0  0  0  0  0  0  0  0  0
   49.1213   35.9284   40.7858 O   0  0  0  0  0  0  0  0  0  0  0  0
   48.9936   34.5967   43.2189 O   0  0  0  0  0  0  0  0  0  0  0  0
   43.9282   36.8229   44.7009 H   0  0  0  0  0  0  0  0  0  0  0  0
   45.0420   36.7963   42.5474 H   0  0  0  0  0  0  0  0  0  0  0  0
   49.9095   36.2433   41.2973 H   0  0  0  0  0  0  0  0  0  0  0  0
   49.0207   33.6671   43.5522 H   0  0  0  0  0  0  0  0  0  0  0  0
   45.9360   32.9078   46.0421 C   0  0  0  0  0  0  0  0  0  0  0  0
   45.8997   31.6318   45.3719 N   0  0  0  0  0  4  0  0  0  0  0  0
   46.1679   30.5508   46.3075 C   0  0  0  0  0  0  0  0  0  0  0  0
   47.2263   30.2260   46.2677 H   0  0  0  0  0  0  0  0  0  0  0  0
   46.6989   31.5450   44.1912 C   0  0  0  0  0  0  0  0  0  0  0  0
   47.3498   30.6251   44.1928 H   0  0  0  0  0  0  0  0  0  0  0  0
   46.9362   32.9970   46.5033 H   0  0  0  0  0  0  0  0  0  0  0  0
   45.1247   32.8778   46.8092 H   0  0  0  0  0  0  0  0  0  0  0  0
   44.8985   31.4964   45.0719 H   0  0  0  0  0  0  0  0  0  0  0  0
   45.8555   30.8878   47.3065 H   0  0  0  0  0  0  0  0  0  0  0  0
   45.5577   29.6656   46.0393 H   0  0  0  0  0  0  0  0  0  0  0  0
   46.0867   31.4213   43.2561 H   0  0  0  0  0  0  0  0  0  0  0  0
   47.3793   32.3814   44.0062 H   0  0  0  0  0  0  0  0  0  0  0  0
  1  6  2  0
  2  1  1  0
  3  2  2  0
  3  4  1  0
  4  5  2  0
  5  6  1  0
  7  3  1  0
  8  9  2  0
  9  7  1  0
  9 11  1  0
 10  9  1  0
  1 12  1  0
  2 13  1  0
 10 14  1  0
 11 15  1  0
 16 17  1  0
 17 18  1  0
 18 19  1  0
 17 20  1  0
 20 21  1  0
 16 22  1  0
 16 23  1  0
 17 24  1  0
 18 25  1  0
 18 26  1  0
 20 27  1  0
 20 28  1  0
  5 16  1  0
M  CHG  1  17   1
M  ISO  6  12  14  13  14  14   3  15   3  19   8  21   8
M  END
>  <DihAtoms>  (1) 
3,4,15,16

>  <DihDeg>  (1) 
90.00335176697106

$$$$
