REMARK  Name = 
REMARK  11 active torsions:
REMARK  status: ('A' for Active; 'I' for Inactive)
REMARK    1  A    between atoms: C_1  and  C_5
REMARK    2  A    between atoms: C_1  and  C_14
REMARK    3  A    between atoms: C_2  and  C_9
REMARK    4  A    between atoms: C_8  and  N_13
REMARK    5  A    between atoms: C_14  and  C_15
REMARK    6  A    between atoms: C_18  and  S_25
REMARK    7  A    between atoms: C_19  and  C_21
REMARK    8  A    between atoms: S_25  and  C_37
REMARK    9  A    between atoms: C_37  and  N_38
REMARK   10  A    between atoms: N_38  and  C_39
REMARK   11  A    between atoms: N_38  and  C_41
REMARK                            x       y       z     vdW  Elec       q    Type
REMARK                         _______ _______ _______ _____ _____    ______ ____
ROOT
ATOM      1  C   UNL     1      43.486  35.448  40.617  0.00  0.00    +0.000 C 
ATOM      2  H   UNL     1      43.716  36.526  40.408  0.00  0.00    +0.000 HD
ATOM      3  H   UNL     1      44.370  34.913  40.170  0.00  0.00    +0.000 HD
ENDROOT
BRANCH   1   4
ATOM      4  C   UNL     1      42.322  35.069  39.853  0.00  0.00    +0.000 A 
ATOM      5  C   UNL     1      41.987  35.323  38.553  0.00  0.00    +0.000 A 
ATOM      6  C   UNL     1      40.841  34.915  37.903  0.00  0.00    +0.000 A 
ATOM      7  C   UNL     1      39.961  34.186  38.637  0.00  0.00    +0.000 A 
ATOM      8  C   UNL     1      40.288  33.924  39.949  0.00  0.00    +0.000 A 
ATOM      9  N   UNL     1      41.413  34.332  40.563  0.00  0.00    +0.000 NA
ATOM     10  H   UNL     1      42.744  35.917  38.020  0.00  0.00    +0.000 HD
ATOM     11  H   UNL     1      40.714  35.191  36.868  0.00  0.00    +0.000 HD
BRANCH   8  12
ATOM     12  C   UNL     1      39.273  33.117  40.704  0.00  0.00    +0.000 C 
ATOM     13  F   UNL     1      37.993  33.655  40.450  0.00  0.00    +0.000 F 
ATOM     14  F   UNL     1      39.544  32.986  42.032  0.00  0.00    +0.000 F 
ATOM     15  F   UNL     1      39.235  31.825  40.162  0.00  0.00    +0.000 F 
ENDBRANCH   8  12
BRANCH   7  16
ATOM     16  S   UNL     1      38.450  33.599  37.898  0.00  0.00    +0.000 S 
BRANCH  16  17
ATOM     17  C   UNL     1      38.328  34.118  36.173  0.00  0.00    +0.000 C 
BRANCH  17  18
ATOM     18  N   UNL     1      38.856  35.468  35.999  0.00  0.00    +0.000 N 
ATOM     19  H   UNL     1      39.503  35.741  36.750  0.00  0.00    +0.000 HD
BRANCH  18  20
ATOM     20  C   UNL     1      37.666  36.342  36.019  0.00  0.00    +0.000 C 
ATOM     21  H   UNL     1      37.940  37.401  35.854  0.00  0.00    +0.000 HD
ENDBRANCH  18  20
BRANCH  18  22
ATOM     22  C   UNL     1      39.514  35.642  34.726  0.00  0.00    +0.000 C 
ATOM     23  H   UNL     1      39.138  36.558  34.253  0.00  0.00    +0.000 HD
ENDBRANCH  18  22
ENDBRANCH  17  18
ENDBRANCH  16  17
ENDBRANCH   7  16
ENDBRANCH   1   4
BRANCH   1  24
ATOM     24  C   UNL     1      43.417  35.267  42.088  0.00  0.00    +0.000 C 
ATOM     25  H   UNL     1      43.162  36.167  42.661  0.00  0.00    +0.000 HD
ATOM     26  H   UNL     1      42.613  34.514  42.292  0.00  0.00    +0.000 HD
BRANCH  24  30
ATOM     27  C   UNL     1      46.634  33.533  42.722  0.00  0.00    +0.000 A 
ATOM     28  C   UNL     1      46.753  33.786  44.045  0.00  0.00    +0.000 A 
ATOM     29  S   UNL     1      45.229  34.763  44.378  0.00  0.00    +0.000 S 
ATOM     30  C   UNL     1      44.680  34.653  42.611  0.00  0.00    +0.000 A 
ATOM     31  N   UNL     1      45.562  34.035  42.198  0.00  0.00    +0.000 NA
ATOM     32  H   UNL     1      47.525  33.506  44.755  0.00  0.00    +0.000 HD
BRANCH  27  35
ATOM     33  C   UNL     1      49.370  32.547  40.323  0.00  0.00    +0.000 A 
ATOM     34  C   UNL     1      48.462  33.361  41.026  0.00  0.00    +0.000 A 
ATOM     35  C   UNL     1      47.620  32.763  41.937  0.00  0.00    +0.000 A 
ATOM     36  N   UNL     1      47.736  31.387  42.089  0.00  0.00    +0.000 NA
ATOM     37  C   UNL     1      48.617  30.654  41.396  0.00  0.00    +0.000 A 
ATOM     38  N   UNL     1      49.443  31.237  40.504  0.00  0.00    +0.000 NA
ATOM     39  H   UNL     1      50.053  32.972  39.596  0.00  0.00    +0.000 HD
ATOM     40  H   UNL     1      48.489  29.616  41.714  0.00  0.00    +0.000 HD
BRANCH  34  41
ATOM     41  N   UNL     1      48.476  34.749  40.750  0.00  0.00    +0.000 N 
ATOM     42  H   UNL     1      49.264  35.419  40.996  0.00  0.00    +0.000 HD
ATOM     43  H   UNL     1      47.627  35.111  40.263  0.00  0.00    +0.000 HD
ENDBRANCH  34  41
ENDBRANCH  27  35
ENDBRANCH  24  30
ENDBRANCH   1  24
TORSDOF 11
