
 OpenBabel03252507453D

 35 36  0  0  0  0  0  0  0  0999 V2000
   47.6280   34.4720   40.7830 C   0  0  0  0  0  0  0  0  0  0  0  0
   47.9440   35.2930   40.0840 H   0  0  0  0  0  0  0  0  0  0  0  0
   46.9520   33.8200   40.2080 H   0  0  0  0  0  0  0  0  0  0  0  0
   48.8780   33.7690   41.1500 C   0  0  0  0  0  0  0  0  0  0  0  0
   49.2280   32.6660   40.3810 C   0  0  0  0  0  0  0  0  0  0  0  0
   50.3850   31.9510   40.6580 C   0  0  0  0  0  0  0  0  0  0  0  0
   51.1470   32.3800   41.7070 N   0  0  0  0  0  0  0  0  0  0  0  0
   50.7720   33.4630   42.4360 C   0  0  0  0  0  0  0  0  0  0  0  0
   49.6640   34.1320   42.1560 N   0  0  0  0  0  0  0  0  0  0  0  0
   50.6800   31.0900   40.0750 H   0  0  0  0  0  0  0  0  0  0  0  0
   51.3550   33.8210   43.2680 H   0  0  0  0  0  0  0  0  0  0  0  0
   48.1830   32.1480   39.0090 S   0  0  0  0  0  0  0  0  0  0  0  0
   49.2130   32.2730   37.5220 C   0  0  0  0  0  2  0  0  0  0  0  0
   48.6330   33.2500   36.6390 N   0  0  0  0  0  4  0  0  0  0  0  0
   49.2710   34.0920   36.6810 H   0  0  0  0  0  0  0  0  0  0  0  0
   47.3570   33.6550   37.1600 C   0  0  0  0  0  2  0  0  0  0  0  0
   47.3270   33.6180   38.2490 H   0  0  0  0  0  0  0  0  0  0  0  0
   48.5300   32.7680   35.2750 C   0  0  0  0  0  2  0  0  0  0  0  0
   49.3970   33.0470   34.6510 H   0  0  0  0  0  0  0  0  0  0  0  0
   46.8630   34.9700   41.9620 C   0  0  0  0  0  0  0  0  0  0  0  0
   47.2030   34.4370   42.8700 H   0  0  0  0  0  0  0  0  0  0  0  0
   47.1390   36.0380   42.0970 H   0  0  0  0  0  0  0  0  0  0  0  0
   45.3920   34.9370   41.7900 C   0  0  0  0  0  0  0  0  0  0  0  0
   44.5500   35.6080   42.7370 C   0  0  0  0  0  0  0  0  0  0  0  0
   42.8610   35.2770   42.0980 S   0  0  0  0  0  0  0  0  0  0  0  0
   43.5760   34.2770   40.6420 C   0  0  0  0  0  0  0  0  0  0  0  0
   44.6950   34.3500   40.8420 N   0  0  0  0  0  0  0  0  0  0  0  0
   44.8580   36.1620   43.6030 H   0  0  0  0  0  0  0  0  0  0  0  0
   42.7820   33.6760   39.6640 O   0  0  0  0  0  0  0  0  0  0  0  0
   40.8710   33.9040   37.8430 O   0  0  0  0  0  0  0  0  0  0  0  0
   41.8820   34.7050   38.6520 P   0  0  0  0  0  0  0  0  0  0  0  0
   41.0490   35.8020   39.6410 O   0  0  0  0  0  0  0  0  0  0  0  0
   40.1970   35.4530   39.9590 H   0  0  0  0  0  0  0  0  0  0  0  0
   42.9360   35.5680   37.6370 O   0  0  0  0  0  0  0  0  0  0  0  0
   42.9290   36.5280   37.7810 H   0  0  0  0  0  0  0  0  0  0  0  0
  1  4  1  0  0  0  0
  1 20  1  0  0  0  0
  2  1  1  0  0  0  0
  3  1  1  0  0  0  0
  4  9  1  0  0  0  0
  5  6  1  0  0  0  0
  5  4  2  0  0  0  0
  6  7  2  0  0  0  0
  7  8  1  0  0  0  0
  8 11  1  0  0  0  0
  9  8  2  0  0  0  0
 10  6  1  0  0  0  0
 12  5  1  0  0  0  0
 13 12  1  0  0  0  0
 14 15  1  0  0  0  0
 14 16  1  0  0  0  0
 14 13  1  0  0  0  0
 16 17  1  0  0  0  0
 18 14  1  0  0  0  0
 19 18  1  0  0  0  0
 20 22  1  0  0  0  0
 20 21  1  0  0  0  0
 23 20  1  0  0  0  0
 23 24  2  0  0  0  0
 24 28  1  0  0  0  0
 25 24  1  0  0  0  0
 26 27  2  0  0  0  0
 26 25  1  0  0  0  0
 27 23  1  0  0  0  0
 29 26  1  0  0  0  0
 30 31  2  0  0  0  0
 31 32  1  0  0  0  0
 31 29  1  0  0  0  0
 32 33  1  0  0  0  0
 34 35  1  0  0  0  0
 34 31  1  0  0  0  0
M  END
>  <minimizedAffinity>
-4.63488865

>  <minimizedRMSD>
0.826169431

$$$$
