
     RDKit          3D

 40 42  0  0  0  0  0  0  0  0999 V2000
   45.2190   36.1767   43.4896 C   0  0  0  0  0  0  0  0  0  0  0  0
   45.8667   34.9713   43.1663 C   0  0  0  0  0  0  0  0  0  0  0  0
   45.8118   33.9968   44.1427 C   0  0  0  0  0  0  0  0  0  0  0  0
   45.1883   34.1745   45.3198 N   0  0  0  0  0  0  0  0  0  0  0  0
   44.5766   35.3633   45.5808 C   0  0  0  0  0  0  0  0  0  0  0  0
   44.5960   36.3561   44.6644 N   0  0  0  0  0  0  0  0  0  0  0  0
   46.4434   32.7537   43.8928 C   0  0  0  0  0  0  0  0  0  0  0  0
   47.7082   32.2683   44.0097 C   0  0  0  0  0  0  0  0  0  0  0  0
   48.0294   31.0308   43.6964 C   0  0  0  0  0  0  0  0  0  0  0  0
   47.0298   30.2435   43.2436 C   0  0  0  0  0  0  0  0  0  0  0  0
   45.5695   31.3326   43.2712 S   0  0  0  0  0  0  0  0  0  0  0  0
   46.5147   34.8325   41.9037 C   0  0  0  0  0  0  0  0  0  0  0  0
   47.7147   35.2553   41.8669 O   0  0  0  0  0  0  0  0  0  0  0  0
   45.7813   34.2261   40.7485 C   0  0  0  0  0  0  0  0  0  0  0  0
   44.4353   34.3207   40.4970 C   0  0  0  0  0  0  0  0  0  0  0  0
   44.2271   33.6250   39.3596 N   0  0  0  0  0  0  0  0  0  0  0  0
   45.4101   33.1255   38.9367 C   0  0  0  0  0  0  0  0  0  0  0  0
   46.3918   33.4947   39.7977 N   0  0  0  0  0  0  0  0  0  0  0  0
   45.7462   32.3267   37.8015 N   0  0  0  0  0  0  0  0  0  0  0  0
   45.2321   36.9772   42.7562 H   0  0  0  0  0  0  0  0  0  0  0  0
   44.0714   35.5187   46.5247 H   0  0  0  0  0  0  0  0  0  0  0  0
   48.4338   33.0159   44.3927 H   0  0  0  0  0  0  0  0  0  0  0  0
   49.0155   30.5904   43.7686 H   0  0  0  0  0  0  0  0  0  0  0  0
   47.0539   29.1485   42.9116 H   0  0  0  0  0  0  0  0  0  0  0  0
   43.6849   34.8392   41.0772 H   0  0  0  0  0  0  0  0  0  0  0  0
   45.3694   31.3804   38.0404 H   0  0  0  0  0  0  0  0  0  0  0  0
   46.2563   32.6430   36.9368 H   0  0  0  0  0  0  0  0  0  0  0  0
   43.0014   33.3972   38.6453 C   0  0  0  0  0  0  0  0  0  0  0  0
   42.9756   33.8802   37.3020 N   0  0  0  0  0  4  0  0  0  0  0  0
   44.2301   33.9152   36.6210 C   0  0  0  0  0  0  0  0  0  0  0  0
   45.0389   33.3271   37.0464 H   0  0  0  0  0  0  0  0  0  0  0  0
   42.0542   33.0325   36.5330 C   0  0  0  0  0  0  0  0  0  0  0  0
   42.5967   32.1385   36.2026 H   0  0  0  0  0  0  0  0  0  0  0  0
   42.1328   33.8788   39.1833 H   0  0  0  0  0  0  0  0  0  0  0  0
   42.7210   32.3091   38.6454 H   0  0  0  0  0  0  0  0  0  0  0  0
   42.5154   34.8385   37.2655 H   0  0  0  0  0  0  0  0  0  0  0  0
   44.0991   33.6283   35.5380 H   0  0  0  0  0  0  0  0  0  0  0  0
   44.5879   34.9854   36.5897 H   0  0  0  0  0  0  0  0  0  0  0  0
   41.6493   33.5917   35.6534 H   0  0  0  0  0  0  0  0  0  0  0  0
   41.2649   32.7110   37.2286 H   0  0  0  0  0  0  0  0  0  0  0  0
  1  6  2  0
  2  1  1  0
  2  3  2  0
  3  4  1  0
  4  5  2  0
  6  5  1  0
  7  8  2  0
  7  3  1  0
  9  8  1  0
 10 11  1  0
 10  9  2  0
 11  7  1  0
 12  2  1  0
 13 12  2  0
 14 12  1  0
 15 14  2  0
 16 15  1  0
 17 16  1  0
 17 18  2  0
 18 14  1  0
 19 17  1  0
  1 20  1  0
  5 21  1  0
  8 22  1  0
  9 23  1  0
 10 24  1  0
 15 25  1  0
 19 26  1  0
 19 27  1  0
 28 29  1  0
 29 30  1  0
 30 31  1  0
 29 32  1  0
 32 33  1  0
 28 34  1  0
 28 35  1  0
 29 36  1  0
 30 37  1  0
 30 38  1  0
 32 39  1  0
 32 40  1  0
 16 28  1  0
M  ISO  8  20  14  21  14  22  14  23  14  24  14  25  14  31   8  33   8
M  CHG  1  29   1
M  END
>  <DihAtoms>  (1) 
14,15,27,28

>  <DihDeg>  (1) 
-90.00105971621733

$$$$
