
 OpenBabel03252507453D

 35 36  0  0  0  0  0  0  0  0999 V2000
   47.7320   34.5540   40.8020 C   0  0  0  0  0  0  0  0  0  0  0  0
   48.0970   35.4130   40.1760 H   0  0  0  0  0  0  0  0  0  0  0  0
   47.0400   33.9810   40.1650 H   0  0  0  0  0  0  0  0  0  0  0  0
   48.9430   33.7690   41.1320 C   0  0  0  0  0  0  0  0  0  0  0  0
   49.2620   32.7170   40.2810 C   0  0  0  0  0  0  0  0  0  0  0  0
   50.3800   31.9320   40.5180 C   0  0  0  0  0  0  0  0  0  0  0  0
   51.1390   32.2410   41.6110 N   0  0  0  0  0  0  0  0  0  0  0  0
   50.7950   33.2760   42.4200 C   0  0  0  0  0  0  0  0  0  0  0  0
   49.7230   34.0140   42.1770 N   0  0  0  0  0  0  0  0  0  0  0  0
   50.6510   31.1090   39.8720 H   0  0  0  0  0  0  0  0  0  0  0  0
   51.3760   33.5400   43.2880 H   0  0  0  0  0  0  0  0  0  0  0  0
   48.2230   32.3590   38.8530 S   0  0  0  0  0  0  0  0  0  0  0  0
   49.3550   32.1580   37.4510 C   0  0  0  0  0  2  0  0  0  0  0  0
   49.1260   33.2280   36.5170 N   0  0  0  0  0  4  0  0  0  0  0  0
   50.0710   33.6700   36.3440 H   0  0  0  0  0  0  0  0  0  0  0  0
   48.2980   34.2260   37.1370 C   0  0  0  0  0  2  0  0  0  0  0  0
   48.4620   34.2830   38.2130 H   0  0  0  0  0  0  0  0  0  0  0  0
   48.5580   32.7580   35.2680 C   0  0  0  0  0  2  0  0  0  0  0  0
   49.3220   32.5500   34.4980 H   0  0  0  0  0  0  0  0  0  0  0  0
   46.9670   34.9900   42.0050 C   0  0  0  0  0  0  0  0  0  0  0  0
   47.3030   34.4080   42.8830 H   0  0  0  0  0  0  0  0  0  0  0  0
   47.2450   36.0480   42.1980 H   0  0  0  0  0  0  0  0  0  0  0  0
   45.4950   34.9710   41.8280 C   0  0  0  0  0  0  0  0  0  0  0  0
   44.6630   35.7350   42.7120 C   0  0  0  0  0  0  0  0  0  0  0  0
   42.9700   35.3830   42.0940 S   0  0  0  0  0  0  0  0  0  0  0  0
   43.6710   34.2520   40.7310 C   0  0  0  0  0  0  0  0  0  0  0  0
   44.7910   34.3190   40.9300 N   0  0  0  0  0  0  0  0  0  0  0  0
   44.9790   36.3540   43.5300 H   0  0  0  0  0  0  0  0  0  0  0  0
   42.8690   33.5850   39.8030 O   0  0  0  0  0  0  0  0  0  0  0  0
   40.9970   33.6810   37.9310 O   0  0  0  0  0  0  0  0  0  0  0  0
   41.9700   34.5440   38.7220 P   0  0  0  0  0  0  0  0  0  0  0  0
   41.0910   35.6670   39.6370 O   0  0  0  0  0  0  0  0  0  0  0  0
   40.2390   35.3150   39.9530 H   0  0  0  0  0  0  0  0  0  0  0  0
   43.0300   35.3800   37.6900 O   0  0  0  0  0  0  0  0  0  0  0  0
   42.9980   36.3460   37.7870 H   0  0  0  0  0  0  0  0  0  0  0  0
  1  4  1  0  0  0  0
  1 20  1  0  0  0  0
  2  1  1  0  0  0  0
  3  1  1  0  0  0  0
  4  9  1  0  0  0  0
  5  6  1  0  0  0  0
  5  4  2  0  0  0  0
  6  7  2  0  0  0  0
  7  8  1  0  0  0  0
  8 11  1  0  0  0  0
  9  8  2  0  0  0  0
 10  6  1  0  0  0  0
 12  5  1  0  0  0  0
 13 12  1  0  0  0  0
 14 16  1  0  0  0  0
 14 13  1  0  0  0  0
 15 14  1  0  0  0  0
 16 17  1  0  0  0  0
 18 14  1  0  0  0  0
 19 18  1  0  0  0  0
 20 22  1  0  0  0  0
 20 21  1  0  0  0  0
 23 20  1  0  0  0  0
 23 24  2  0  0  0  0
 24 28  1  0  0  0  0
 25 24  1  0  0  0  0
 26 27  2  0  0  0  0
 26 25  1  0  0  0  0
 27 23  1  0  0  0  0
 29 26  1  0  0  0  0
 30 31  2  0  0  0  0
 31 32  1  0  0  0  0
 31 29  1  0  0  0  0
 32 33  1  0  0  0  0
 34 35  1  0  0  0  0
 34 31  1  0  0  0  0
M  END
>  <minimizedAffinity>
-4.82136917

>  <minimizedRMSD>
1.22284126

$$$$
