
 OpenBabel03252507443D

 35 36  0  0  0  0  0  0  0  0999 V2000
   47.5190   34.4870   40.7830 C   0  0  0  0  0  0  0  0  0  0  0  0
   47.8290   35.3510   40.1330 H   0  0  0  0  0  0  0  0  0  0  0  0
   46.8560   33.8610   40.1650 H   0  0  0  0  0  0  0  0  0  0  0  0
   48.7750   33.7820   41.1210 C   0  0  0  0  0  0  0  0  0  0  0  0
   49.0990   32.6720   40.3490 C   0  0  0  0  0  0  0  0  0  0  0  0
   50.2600   31.9540   40.6000 C   0  0  0  0  0  0  0  0  0  0  0  0
   51.0520   32.3860   41.6250 N   0  0  0  0  0  0  0  0  0  0  0  0
   50.7010   33.4750   42.3570 C   0  0  0  0  0  0  0  0  0  0  0  0
   49.5890   34.1470   42.1020 N   0  0  0  0  0  0  0  0  0  0  0  0
   50.5360   31.0880   40.0150 H   0  0  0  0  0  0  0  0  0  0  0  0
   51.3070   33.8360   43.1710 H   0  0  0  0  0  0  0  0  0  0  0  0
   48.0150   32.1500   39.0090 S   0  0  0  0  0  0  0  0  0  0  0  0
   49.0560   32.0750   37.5260 C   0  0  0  0  0  2  0  0  0  0  0  0
   48.6940   33.1610   36.6530 N   0  0  0  0  0  4  0  0  0  0  0  0
   49.4720   33.8730   36.7410 H   0  0  0  0  0  0  0  0  0  0  0  0
   47.4940   33.7800   37.1450 C   0  0  0  0  0  2  0  0  0  0  0  0
   47.4180   33.7230   38.2300 H   0  0  0  0  0  0  0  0  0  0  0  0
   48.5570   32.7360   35.2740 C   0  0  0  0  0  2  0  0  0  0  0  0
   49.4820   32.8690   34.6870 H   0  0  0  0  0  0  0  0  0  0  0  0
   46.7370   34.9080   41.9810 C   0  0  0  0  0  0  0  0  0  0  0  0
   47.0450   34.2980   42.8510 H   0  0  0  0  0  0  0  0  0  0  0  0
   47.0320   35.9560   42.2060 H   0  0  0  0  0  0  0  0  0  0  0  0
   45.2700   34.9210   41.7760 C   0  0  0  0  0  0  0  0  0  0  0  0
   44.4290   35.6290   42.6970 C   0  0  0  0  0  0  0  0  0  0  0  0
   42.7450   35.3470   42.0230 S   0  0  0  0  0  0  0  0  0  0  0  0
   43.4590   34.3100   40.5930 C   0  0  0  0  0  0  0  0  0  0  0  0
   44.5760   34.3470   40.8180 N   0  0  0  0  0  0  0  0  0  0  0  0
   44.7360   36.1820   43.5650 H   0  0  0  0  0  0  0  0  0  0  0  0
   42.6680   33.7240   39.6030 O   0  0  0  0  0  0  0  0  0  0  0  0
   40.7420   33.9730   37.8010 O   0  0  0  0  0  0  0  0  0  0  0  0
   41.7390   34.7680   38.6330 P   0  0  0  0  0  0  0  0  0  0  0  0
   40.8870   35.8090   39.6640 O   0  0  0  0  0  0  0  0  0  0  0  0
   40.0440   35.4300   39.9740 H   0  0  0  0  0  0  0  0  0  0  0  0
   42.7680   35.6900   37.6450 O   0  0  0  0  0  0  0  0  0  0  0  0
   42.7400   36.6450   37.8230 H   0  0  0  0  0  0  0  0  0  0  0  0
  1  4  1  0  0  0  0
  1 20  1  0  0  0  0
  2  1  1  0  0  0  0
  3  1  1  0  0  0  0
  4  9  1  0  0  0  0
  5  6  1  0  0  0  0
  5  4  2  0  0  0  0
  6  7  2  0  0  0  0
  7  8  1  0  0  0  0
  8 11  1  0  0  0  0
  9  8  2  0  0  0  0
 10  6  1  0  0  0  0
 12  5  1  0  0  0  0
 13 12  1  0  0  0  0
 14 15  1  0  0  0  0
 14 16  1  0  0  0  0
 14 13  1  0  0  0  0
 16 17  1  0  0  0  0
 18 14  1  0  0  0  0
 19 18  1  0  0  0  0
 20 22  1  0  0  0  0
 20 21  1  0  0  0  0
 23 20  1  0  0  0  0
 23 24  2  0  0  0  0
 24 28  1  0  0  0  0
 25 24  1  0  0  0  0
 26 27  2  0  0  0  0
 26 25  1  0  0  0  0
 27 23  1  0  0  0  0
 29 26  1  0  0  0  0
 30 31  2  0  0  0  0
 31 29  1  0  0  0  0
 31 32  1  0  0  0  0
 32 33  1  0  0  0  0
 34 35  1  0  0  0  0
 34 31  1  0  0  0  0
M  END
>  <minimizedAffinity>
-4.69533873

>  <minimizedRMSD>
0.881227732

$$$$
