
 OpenBabel03252507453D

 35 36  0  0  0  0  0  0  0  0999 V2000
   47.4930   34.4960   40.7710 C   0  0  0  0  0  0  0  0  0  0  0  0
   47.8090   35.3710   40.1400 H   0  0  0  0  0  0  0  0  0  0  0  0
   46.8250   33.8870   40.1410 H   0  0  0  0  0  0  0  0  0  0  0  0
   48.7450   33.7750   41.0910 C   0  0  0  0  0  0  0  0  0  0  0  0
   49.0570   32.6750   40.3000 C   0  0  0  0  0  0  0  0  0  0  0  0
   50.2130   31.9440   40.5340 C   0  0  0  0  0  0  0  0  0  0  0  0
   51.0140   32.3530   41.5620 N   0  0  0  0  0  0  0  0  0  0  0  0
   50.6750   33.4330   42.3130 C   0  0  0  0  0  0  0  0  0  0  0  0
   49.5670   34.1180   42.0740 N   0  0  0  0  0  0  0  0  0  0  0  0
   50.4790   31.0850   39.9340 H   0  0  0  0  0  0  0  0  0  0  0  0
   51.2880   33.7760   43.1290 H   0  0  0  0  0  0  0  0  0  0  0  0
   47.9620   32.1830   38.9570 S   0  0  0  0  0  0  0  0  0  0  0  0
   48.5710   33.0390   37.4790 C   0  0  0  0  0  2  0  0  0  0  0  0
   48.7620   32.0710   36.4320 N   0  0  0  0  0  4  0  0  0  0  0  0
   48.0230   31.3310   36.5830 H   0  0  0  0  0  0  0  0  0  0  0  0
   50.0400   31.4380   36.6030 C   0  0  0  0  0  2  0  0  0  0  0  0
   50.3280   31.3720   37.6520 H   0  0  0  0  0  0  0  0  0  0  0  0
   48.6220   32.6550   35.1110 C   0  0  0  0  0  2  0  0  0  0  0  0
   47.6000   32.5610   34.7040 H   0  0  0  0  0  0  0  0  0  0  0  0
   46.7170   34.8960   41.9790 C   0  0  0  0  0  0  0  0  0  0  0  0
   47.0250   34.2690   42.8360 H   0  0  0  0  0  0  0  0  0  0  0  0
   47.0150   35.9380   42.2230 H   0  0  0  0  0  0  0  0  0  0  0  0
   45.2480   34.9170   41.7780 C   0  0  0  0  0  0  0  0  0  0  0  0
   44.4160   35.6380   42.6970 C   0  0  0  0  0  0  0  0  0  0  0  0
   42.7280   35.3610   42.0300 S   0  0  0  0  0  0  0  0  0  0  0  0
   43.4300   34.3080   40.6060 C   0  0  0  0  0  0  0  0  0  0  0  0
   44.5480   34.3400   40.8270 N   0  0  0  0  0  0  0  0  0  0  0  0
   44.7290   36.1950   43.5590 H   0  0  0  0  0  0  0  0  0  0  0  0
   42.6320   33.7190   39.6240 O   0  0  0  0  0  0  0  0  0  0  0  0
   40.7310   33.9670   37.7950 O   0  0  0  0  0  0  0  0  0  0  0  0
   41.7190   34.7620   38.6370 P   0  0  0  0  0  0  0  0  0  0  0  0
   40.8590   35.8110   39.6520 O   0  0  0  0  0  0  0  0  0  0  0  0
   40.0110   35.4370   39.9530 H   0  0  0  0  0  0  0  0  0  0  0  0
   42.7650   35.6750   37.6580 O   0  0  0  0  0  0  0  0  0  0  0  0
   42.7380   36.6310   37.8310 H   0  0  0  0  0  0  0  0  0  0  0  0
  1  4  1  0  0  0  0
  1 20  1  0  0  0  0
  2  1  1  0  0  0  0
  3  1  1  0  0  0  0
  4  9  1  0  0  0  0
  5  6  1  0  0  0  0
  5  4  2  0  0  0  0
  6  7  2  0  0  0  0
  7  8  1  0  0  0  0
  8 11  1  0  0  0  0
  9  8  2  0  0  0  0
 10  6  1  0  0  0  0
 12  5  1  0  0  0  0
 13 12  1  0  0  0  0
 14 15  1  0  0  0  0
 14 16  1  0  0  0  0
 14 13  1  0  0  0  0
 16 17  1  0  0  0  0
 18 14  1  0  0  0  0
 19 18  1  0  0  0  0
 20 22  1  0  0  0  0
 20 21  1  0  0  0  0
 23 20  1  0  0  0  0
 23 24  2  0  0  0  0
 24 28  1  0  0  0  0
 25 24  1  0  0  0  0
 26 27  2  0  0  0  0
 26 25  1  0  0  0  0
 27 23  1  0  0  0  0
 29 26  1  0  0  0  0
 30 31  2  0  0  0  0
 31 29  1  0  0  0  0
 31 32  1  0  0  0  0
 32 33  1  0  0  0  0
 34 35  1  0  0  0  0
 34 31  1  0  0  0  0
M  END
>  <minimizedAffinity>
-4.54654217

>  <minimizedRMSD>
0.828816593

$$$$
