
 OpenBabel03252503173D

 34 36  0  0  0  0  0  0  0  0999 V2000
   37.5550   30.8590   40.6310 C   0  0  0  0  0  0  0  0  0  0  0  0
   36.6680   31.7510   40.8240 O   0  0  0  0  0  0  0  0  0  0  0  0
   38.6500   30.9420   39.6130 C   0  0  0  0  0  0  0  0  0  0  0  0
   39.7500   30.1250   39.5310 C   0  0  0  0  0  0  0  0  0  0  0  0
   40.4550   30.5690   38.4690 N   0  0  0  0  0  0  0  0  0  0  0  0
   39.8010   31.6200   37.9260 C   0  0  0  0  0  0  0  0  0  0  0  0
   38.6690   31.8640   38.6330 N   0  0  0  0  0  0  0  0  0  0  0  0
   40.1090   32.4460   36.8010 N   0  0  0  0  0  0  0  0  0  0  0  0
   40.0130   29.2980   40.1730 H   0  0  0  0  0  0  0  0  0  0  0  0
   40.9020   33.0420   37.1380 H   0  0  0  0  0  0  0  0  0  0  0  0
   39.6330   32.4360   35.8630 H   0  0  0  0  0  0  0  0  0  0  0  0
   41.6940   30.0780   37.9300 C   0  0  0  0  0  2  0  0  0  0  0  0
   41.6050   29.4820   36.6360 N   0  0  0  0  0  4  0  0  0  0  0  0
   40.7650   29.8680   36.1110 H   0  0  0  0  0  0  0  0  0  0  0  0
   42.7740   29.5700   35.8200 C   0  0  0  0  0  2  0  0  0  0  0  0
   43.7070   29.8160   36.3200 H   0  0  0  0  0  0  0  0  0  0  0  0
   41.2690   28.0620   36.8130 C   0  0  0  0  0  2  0  0  0  0  0  0
   42.1950   27.5070   37.0070 H   0  0  0  0  0  0  0  0  0  0  0  0
   38.2010   29.6570   42.6650 C   0  0  0  0  0  0  0  0  0  0  0  0
   37.4520   29.7160   41.4750 C   0  0  0  0  0  0  0  0  0  0  0  0
   36.6590   28.6130   41.2290 C   0  0  0  0  0  0  0  0  0  0  0  0
   36.5960   27.5570   42.0580 N   0  0  0  0  0  0  0  0  0  0  0  0
   37.3430   27.5530   43.1960 C   0  0  0  0  0  0  0  0  0  0  0  0
   38.1400   28.6040   43.4920 N   0  0  0  0  0  0  0  0  0  0  0  0
   38.8430   30.4990   42.9070 H   0  0  0  0  0  0  0  0  0  0  0  0
   37.3010   26.7080   43.8710 H   0  0  0  0  0  0  0  0  0  0  0  0
   35.8750   28.5950   40.0500 C   0  0  0  0  0  0  0  0  0  0  0  0
   34.6420   29.0490   39.6980 C   0  0  0  0  0  0  0  0  0  0  0  0
   34.1420   28.8920   38.4910 C   0  0  0  0  0  0  0  0  0  0  0  0
   34.9190   28.2490   37.5940 C   0  0  0  0  0  0  0  0  0  0  0  0
   36.4320   27.8540   38.5300 S   0  0  0  0  0  0  0  0  0  0  0  0
   34.1070   29.5590   40.5260 H   0  0  0  0  0  0  0  0  0  0  0  0
   33.1690   29.2310   38.1540 H   0  0  0  0  0  0  0  0  0  0  0  0
   34.7130   27.9930   36.4960 H   0  0  0  0  0  0  0  0  0  0  0  0
  1  2  2  0  0  0  0
  1 20  1  0  0  0  0
  3  1  1  0  0  0  0
  4  3  2  0  0  0  0
  4  9  1  0  0  0  0
  5  4  1  0  0  0  0
  6  5  1  0  0  0  0
  6  7  2  0  0  0  0
  7  3  1  0  0  0  0
  8 10  1  0  0  0  0
  8  6  1  0  0  0  0
 11  8  1  0  0  0  0
 12  5  1  0  0  0  0
 13 17  1  0  0  0  0
 13 12  1  0  0  0  0
 14 13  1  0  0  0  0
 15 16  1  0  0  0  0
 15 13  1  0  0  0  0
 17 18  1  0  0  0  0
 19 25  1  0  0  0  0
 19 24  1  0  0  0  0
 20 19  2  0  0  0  0
 21 20  1  0  0  0  0
 21 22  2  0  0  0  0
 22 23  1  0  0  0  0
 23 24  2  0  0  0  0
 23 26  1  0  0  0  0
 27 21  1  0  0  0  0
 28 27  2  0  0  0  0
 28 32  1  0  0  0  0
 29 28  1  0  0  0  0
 30 29  2  0  0  0  0
 30 31  1  0  0  0  0
 31 27  1  0  0  0  0
 33 29  1  0  0  0  0
 34 30  1  0  0  0  0
M  END
>  <minimizedAffinity>
-5.36021185

$$$$

 OpenBabel03252503173D

 34 36  0  0  0  0  0  0  0  0999 V2000
   37.0990   27.5940   42.6020 C   0  0  0  0  0  0  0  0  0  0  0  0
   36.2270   27.1500   43.4150 O   0  0  0  0  0  0  0  0  0  0  0  0
   36.8550   28.6540   41.5730 C   0  0  0  0  0  0  0  0  0  0  0  0
   36.5630   28.4510   40.2470 C   0  0  0  0  0  0  0  0  0  0  0  0
   36.4260   29.6820   39.7120 N   0  0  0  0  0  0  0  0  0  0  0  0
   36.6280   30.6000   40.6840 C   0  0  0  0  0  0  0  0  0  0  0  0
   36.8980   29.9690   41.8550 N   0  0  0  0  0  0  0  0  0  0  0  0
   36.6000   32.0280   40.6540 N   0  0  0  0  0  0  0  0  0  0  0  0
   36.4620   27.5110   39.7250 H   0  0  0  0  0  0  0  0  0  0  0  0
   37.4820   32.2860   40.1510 H   0  0  0  0  0  0  0  0  0  0  0  0
   35.8540   32.6520   41.0540 H   0  0  0  0  0  0  0  0  0  0  0  0
   36.1200   30.0560   38.3580 C   0  0  0  0  0  2  0  0  0  0  0  0
   37.2110   29.9790   37.4400 N   0  0  0  0  0  4  0  0  0  0  0  0
   38.0440   29.5050   37.8990 H   0  0  0  0  0  0  0  0  0  0  0  0
   36.9320   29.3660   36.1800 C   0  0  0  0  0  2  0  0  0  0  0  0
   35.8870   29.2640   35.9020 H   0  0  0  0  0  0  0  0  0  0  0  0
   37.6930   31.3450   37.1940 C   0  0  0  0  0  2  0  0  0  0  0  0
   37.0670   31.8010   36.4160 H   0  0  0  0  0  0  0  0  0  0  0  0
   39.3680   27.6240   43.5260 C   0  0  0  0  0  0  0  0  0  0  0  0
   38.3910   27.0050   42.7250 C   0  0  0  0  0  0  0  0  0  0  0  0
   38.7960   25.8380   42.1070 C   0  0  0  0  0  0  0  0  0  0  0  0
   40.0280   25.3210   42.2530 N   0  0  0  0  0  0  0  0  0  0  0  0
   40.9340   25.9620   43.0410 C   0  0  0  0  0  0  0  0  0  0  0  0
   40.5980   27.1090   43.6730 N   0  0  0  0  0  0  0  0  0  0  0  0
   39.1020   28.5450   44.0360 H   0  0  0  0  0  0  0  0  0  0  0  0
   41.9290   25.5560   43.1670 H   0  0  0  0  0  0  0  0  0  0  0  0
   37.8700   25.1560   41.2810 C   0  0  0  0  0  0  0  0  0  0  0  0
   36.7880   24.3580   41.4900 C   0  0  0  0  0  0  0  0  0  0  0  0
   36.0830   23.8390   40.5070 C   0  0  0  0  0  0  0  0  0  0  0  0
   36.4840   24.1380   39.2530 C   0  0  0  0  0  0  0  0  0  0  0  0
   37.9370   25.2090   39.5020 S   0  0  0  0  0  0  0  0  0  0  0  0
   36.5650   24.1910   42.5650 H   0  0  0  0  0  0  0  0  0  0  0  0
   35.2150   23.2000   40.6130 H   0  0  0  0  0  0  0  0  0  0  0  0
   36.0430   23.8150   38.2470 H   0  0  0  0  0  0  0  0  0  0  0  0
  1 20  1  0  0  0  0
  1  2  2  0  0  0  0
  3  7  1  0  0  0  0
  3  1  1  0  0  0  0
  4  3  2  0  0  0  0
  5  4  1  0  0  0  0
  5  6  1  0  0  0  0
  6  7  2  0  0  0  0
  8  6  1  0  0  0  0
  8 11  1  0  0  0  0
  9  4  1  0  0  0  0
 10  8  1  0  0  0  0
 12  5  1  0  0  0  0
 13 14  1  0  0  0  0
 13 12  1  0  0  0  0
 15 13  1  0  0  0  0
 16 15  1  0  0  0  0
 17 13  1  0  0  0  0
 18 17  1  0  0  0  0
 19 24  1  0  0  0  0
 19 25  1  0  0  0  0
 20 19  2  0  0  0  0
 21 22  2  0  0  0  0
 21 20  1  0  0  0  0
 22 23  1  0  0  0  0
 23 26  1  0  0  0  0
 23 24  2  0  0  0  0
 27 28  2  0  0  0  0
 27 21  1  0  0  0  0
 28 32  1  0  0  0  0
 29 33  1  0  0  0  0
 29 28  1  0  0  0  0
 30 31  1  0  0  0  0
 30 29  2  0  0  0  0
 31 27  1  0  0  0  0
 34 30  1  0  0  0  0
M  END
>  <minimizedAffinity>
-5.30857134

$$$$

 OpenBabel03252503173D

 34 36  0  0  0  0  0  0  0  0999 V2000
   35.4620   29.1330   39.5100 C   0  0  0  0  0  0  0  0  0  0  0  0
   34.3270   29.2610   40.0720 O   0  0  0  0  0  0  0  0  0  0  0  0
   36.3750   30.2630   39.1490 C   0  0  0  0  0  0  0  0  0  0  0  0
   36.8860   31.2050   40.0080 C   0  0  0  0  0  0  0  0  0  0  0  0
   37.6490   32.0160   39.2460 N   0  0  0  0  0  0  0  0  0  0  0  0
   37.6020   31.5780   37.9680 C   0  0  0  0  0  0  0  0  0  0  0  0
   36.8070   30.4810   37.8930 N   0  0  0  0  0  0  0  0  0  0  0  0
   38.2210   32.0690   36.7780 N   0  0  0  0  0  0  0  0  0  0  0  0
   36.7210   31.2930   41.0720 H   0  0  0  0  0  0  0  0  0  0  0  0
   37.6850   32.9410   36.5570 H   0  0  0  0  0  0  0  0  0  0  0  0
   39.0280   31.6350   36.2620 H   0  0  0  0  0  0  0  0  0  0  0  0
   38.4170   33.1680   39.6320 C   0  0  0  0  0  2  0  0  0  0  0  0
   39.8320   32.9810   39.6540 N   0  0  0  0  0  4  0  0  0  0  0  0
   40.1130   32.2240   38.9630 H   0  0  0  0  0  0  0  0  0  0  0  0
   40.6250   34.1510   39.4480 C   0  0  0  0  0  2  0  0  0  0  0  0
   40.1310   35.1100   39.5720 H   0  0  0  0  0  0  0  0  0  0  0  0
   40.1910   32.4000   40.9560 C   0  0  0  0  0  2  0  0  0  0  0  0
   40.2860   33.2140   41.6860 H   0  0  0  0  0  0  0  0  0  0  0  0
   35.4190   27.1800   38.0320 C   0  0  0  0  0  0  0  0  0  0  0  0
   35.8440   27.7890   39.2260 C   0  0  0  0  0  0  0  0  0  0  0  0
   36.6220   26.9940   40.0440 C   0  0  0  0  0  0  0  0  0  0  0  0
   36.9560   25.7300   39.7320 N   0  0  0  0  0  0  0  0  0  0  0  0
   36.5170   25.1900   38.5620 C   0  0  0  0  0  0  0  0  0  0  0  0
   35.7520   25.9190   37.7200 N   0  0  0  0  0  0  0  0  0  0  0  0
   34.8050   27.7620   37.3520 H   0  0  0  0  0  0  0  0  0  0  0  0
   36.7800   24.1730   38.3000 H   0  0  0  0  0  0  0  0  0  0  0  0
   37.0880   27.5350   41.2670 C   0  0  0  0  0  0  0  0  0  0  0  0
   36.5760   27.6840   42.5180 C   0  0  0  0  0  0  0  0  0  0  0  0
   37.2490   28.2420   43.5020 C   0  0  0  0  0  0  0  0  0  0  0  0
   38.4970   28.6690   43.2150 C   0  0  0  0  0  0  0  0  0  0  0  0
   38.7080   28.2500   41.4540 S   0  0  0  0  0  0  0  0  0  0  0  0
   35.5430   27.2920   42.6220 H   0  0  0  0  0  0  0  0  0  0  0  0
   36.8940   28.3870   44.5160 H   0  0  0  0  0  0  0  0  0  0  0  0
   39.2700   29.1770   43.8900 H   0  0  0  0  0  0  0  0  0  0  0  0
  1  2  2  0  0  0  0
  3  1  1  0  0  0  0
  3  4  2  0  0  0  0
  4  9  1  0  0  0  0
  5 12  1  0  0  0  0
  5  4  1  0  0  0  0
  6  5  1  0  0  0  0
  7  6  2  0  0  0  0
  7  3  1  0  0  0  0
  8  6  1  0  0  0  0
 10  8  1  0  0  0  0
 11  8  1  0  0  0  0
 12 13  1  0  0  0  0
 13 17  1  0  0  0  0
 14 13  1  0  0  0  0
 15 16  1  0  0  0  0
 15 13  1  0  0  0  0
 17 18  1  0  0  0  0
 19 20  1  0  0  0  0
 20  1  1  0  0  0  0
 20 21  2  0  0  0  0
 21 27  1  0  0  0  0
 22 21  1  0  0  0  0
 23 22  2  0  0  0  0
 24 19  2  0  0  0  0
 24 23  1  0  0  0  0
 25 19  1  0  0  0  0
 26 23  1  0  0  0  0
 27 31  1  0  0  0  0
 27 28  2  0  0  0  0
 28 32  1  0  0  0  0
 28 29  1  0  0  0  0
 29 33  1  0  0  0  0
 30 29  2  0  0  0  0
 30 34  1  0  0  0  0
 31 30  1  0  0  0  0
M  END
>  <minimizedAffinity>
-5.24515295

$$$$

 OpenBabel03252503173D

 34 36  0  0  0  0  0  0  0  0999 V2000
   38.3420   33.0670   39.9090 C   0  0  0  0  0  0  0  0  0  0  0  0
   37.6920   34.1600   39.8590 O   0  0  0  0  0  0  0  0  0  0  0  0
   37.8900   31.8300   40.6240 C   0  0  0  0  0  0  0  0  0  0  0  0
   38.6210   31.0970   41.5250 C   0  0  0  0  0  0  0  0  0  0  0  0
   37.8180   30.0820   41.9040 N   0  0  0  0  0  0  0  0  0  0  0  0
   36.6390   30.1980   41.2540 C   0  0  0  0  0  0  0  0  0  0  0  0
   36.6710   31.2900   40.4480 N   0  0  0  0  0  0  0  0  0  0  0  0
   35.4560   29.3970   41.2920 N   0  0  0  0  0  0  0  0  0  0  0  0
   39.6290   31.2790   41.8680 H   0  0  0  0  0  0  0  0  0  0  0  0
   35.7230   28.5310   40.7680 H   0  0  0  0  0  0  0  0  0  0  0  0
   34.5410   29.6450   41.7480 H   0  0  0  0  0  0  0  0  0  0  0  0
   38.0780   29.0140   42.8310 C   0  0  0  0  0  2  0  0  0  0  0  0
   38.5300   27.7930   42.2470 N   0  0  0  0  0  4  0  0  0  0  0  0
   38.3870   27.8140   41.1940 H   0  0  0  0  0  0  0  0  0  0  0  0
   39.8720   27.4070   42.5510 C   0  0  0  0  0  2  0  0  0  0  0  0
   40.3450   27.8940   43.4000 H   0  0  0  0  0  0  0  0  0  0  0  0
   37.6280   26.7190   42.6890 C   0  0  0  0  0  2  0  0  0  0  0  0
   37.9580   26.3710   43.6760 H   0  0  0  0  0  0  0  0  0  0  0  0
   40.6030   33.9610   39.6120 C   0  0  0  0  0  0  0  0  0  0  0  0
   39.5860   33.0740   39.2140 C   0  0  0  0  0  0  0  0  0  0  0  0
   39.9040   32.2620   38.1440 C   0  0  0  0  0  0  0  0  0  0  0  0
   41.0940   32.3060   37.5200 N   0  0  0  0  0  0  0  0  0  0  0  0
   42.0420   33.1840   37.9460 C   0  0  0  0  0  0  0  0  0  0  0  0
   41.7900   34.0060   38.9900 N   0  0  0  0  0  0  0  0  0  0  0  0
   40.4050   34.6220   40.4500 H   0  0  0  0  0  0  0  0  0  0  0  0
   43.0040   33.2300   37.4520 H   0  0  0  0  0  0  0  0  0  0  0  0
   38.9320   31.3420   37.6820 C   0  0  0  0  0  0  0  0  0  0  0  0
   37.7550   31.4320   37.0060 C   0  0  0  0  0  0  0  0  0  0  0  0
   37.0270   30.3810   36.6960 C   0  0  0  0  0  0  0  0  0  0  0  0
   37.5060   29.1800   37.0840 C   0  0  0  0  0  0  0  0  0  0  0  0
   39.0680   29.5840   37.9310 S   0  0  0  0  0  0  0  0  0  0  0  0
   37.4750   32.4750   36.7460 H   0  0  0  0  0  0  0  0  0  0  0  0
   36.0860   30.3920   36.1600 H   0  0  0  0  0  0  0  0  0  0  0  0
   37.0650   28.1330   36.9360 H   0  0  0  0  0  0  0  0  0  0  0  0
  1  3  1  0  0  0  0
  2  1  2  0  0  0  0
  3  4  2  0  0  0  0
  4  9  1  0  0  0  0
  4  5  1  0  0  0  0
  5 12  1  0  0  0  0
  6  8  1  0  0  0  0
  6  5  1  0  0  0  0
  7  3  1  0  0  0  0
  7  6  2  0  0  0  0
  8 11  1  0  0  0  0
 10  8  1  0  0  0  0
 13 15  1  0  0  0  0
 13 17  1  0  0  0  0
 13 12  1  0  0  0  0
 14 13  1  0  0  0  0
 15 16  1  0  0  0  0
 17 18  1  0  0  0  0
 19 25  1  0  0  0  0
 20 19  1  0  0  0  0
 20  1  1  0  0  0  0
 21 20  2  0  0  0  0
 22 23  2  0  0  0  0
 22 21  1  0  0  0  0
 23 24  1  0  0  0  0
 24 19  2  0  0  0  0
 26 23  1  0  0  0  0
 27 31  1  0  0  0  0
 27 21  1  0  0  0  0
 28 27  2  0  0  0  0
 29 28  1  0  0  0  0
 29 30  2  0  0  0  0
 30 31  1  0  0  0  0
 32 28  1  0  0  0  0
 33 29  1  0  0  0  0
 34 30  1  0  0  0  0
M  END
>  <minimizedAffinity>
-5.1787281

$$$$

 OpenBabel03252503173D

 34 36  0  0  0  0  0  0  0  0999 V2000
   36.9730   30.6550   40.1700 C   0  0  0  0  0  0  0  0  0  0  0  0
   36.2060   31.1320   41.0660 O   0  0  0  0  0  0  0  0  0  0  0  0
   38.2810   31.2530   39.7500 C   0  0  0  0  0  0  0  0  0  0  0  0
   39.3780   31.4560   40.5490 C   0  0  0  0  0  0  0  0  0  0  0  0
   40.3120   32.0130   39.7500 N   0  0  0  0  0  0  0  0  0  0  0  0
   39.7950   32.1420   38.5070 C   0  0  0  0  0  0  0  0  0  0  0  0
   38.5230   31.6690   38.4930 N   0  0  0  0  0  0  0  0  0  0  0  0
   40.3560   32.6640   37.3010 N   0  0  0  0  0  0  0  0  0  0  0  0
   39.4880   31.2260   41.5990 H   0  0  0  0  0  0  0  0  0  0  0  0
   40.3740   33.6990   37.4600 H   0  0  0  0  0  0  0  0  0  0  0  0
   40.6690   32.1130   36.4610 H   0  0  0  0  0  0  0  0  0  0  0  0
   41.6500   32.4310   40.0690 C   0  0  0  0  0  2  0  0  0  0  0  0
   41.8460   32.8830   41.4090 N   0  0  0  0  0  4  0  0  0  0  0  0
   40.9150   33.1490   41.8470 H   0  0  0  0  0  0  0  0  0  0  0  0
   42.5600   31.9980   42.2740 C   0  0  0  0  0  2  0  0  0  0  0  0
   43.1330   31.2040   41.8040 H   0  0  0  0  0  0  0  0  0  0  0  0
   42.5700   34.1610   41.3540 C   0  0  0  0  0  2  0  0  0  0  0  0
   43.6430   33.9500   41.2660 H   0  0  0  0  0  0  0  0  0  0  0  0
   35.8430   29.5260   38.3130 C   0  0  0  0  0  0  0  0  0  0  0  0
   36.5060   29.4590   39.5520 C   0  0  0  0  0  0  0  0  0  0  0  0
   36.6450   28.1870   40.0720 C   0  0  0  0  0  0  0  0  0  0  0  0
   36.1860   27.0880   39.4510 N   0  0  0  0  0  0  0  0  0  0  0  0
   35.5510   27.2110   38.2530 C   0  0  0  0  0  0  0  0  0  0  0  0
   35.3840   28.4290   37.6920 N   0  0  0  0  0  0  0  0  0  0  0  0
   35.7070   30.5030   37.8590 H   0  0  0  0  0  0  0  0  0  0  0  0
   35.1760   26.3330   37.7430 H   0  0  0  0  0  0  0  0  0  0  0  0
   37.3000   28.0360   41.3190 C   0  0  0  0  0  0  0  0  0  0  0  0
   36.9230   28.0810   42.6250 C   0  0  0  0  0  0  0  0  0  0  0  0
   37.7660   27.9000   43.6180 C   0  0  0  0  0  0  0  0  0  0  0  0
   39.0520   27.6610   43.2830 C   0  0  0  0  0  0  0  0  0  0  0  0
   39.0430   27.7020   41.4610 S   0  0  0  0  0  0  0  0  0  0  0  0
   35.8400   28.2840   42.7640 H   0  0  0  0  0  0  0  0  0  0  0  0
   37.5230   27.9230   44.6740 H   0  0  0  0  0  0  0  0  0  0  0  0
   39.9610   27.4740   43.9530 H   0  0  0  0  0  0  0  0  0  0  0  0
  1  2  2  0  0  0  0
  3  1  1  0  0  0  0
  3  4  2  0  0  0  0
  4  9  1  0  0  0  0
  5 12  1  0  0  0  0
  5  4  1  0  0  0  0
  6  5  1  0  0  0  0
  7  6  2  0  0  0  0
  7  3  1  0  0  0  0
  8 10  1  0  0  0  0
  8  6  1  0  0  0  0
 11  8  1  0  0  0  0
 12 13  1  0  0  0  0
 13 14  1  0  0  0  0
 13 15  1  0  0  0  0
 16 15  1  0  0  0  0
 17 13  1  0  0  0  0
 18 17  1  0  0  0  0
 19 20  1  0  0  0  0
 20 21  2  0  0  0  0
 20  1  1  0  0  0  0
 21 27  1  0  0  0  0
 22 21  1  0  0  0  0
 23 22  2  0  0  0  0
 24 23  1  0  0  0  0
 24 19  2  0  0  0  0
 25 19  1  0  0  0  0
 26 23  1  0  0  0  0
 27 31  1  0  0  0  0
 27 28  2  0  0  0  0
 28 32  1  0  0  0  0
 28 29  1  0  0  0  0
 29 33  1  0  0  0  0
 30 29  2  0  0  0  0
 30 34  1  0  0  0  0
 31 30  1  0  0  0  0
M  END
>  <minimizedAffinity>
-5.11460447

$$$$

 OpenBabel03252503173D

 34 36  0  0  0  0  0  0  0  0999 V2000
   37.3620   31.0430   40.7660 C   0  0  0  0  0  0  0  0  0  0  0  0
   36.2060   31.4910   41.0520 O   0  0  0  0  0  0  0  0  0  0  0  0
   38.3890   31.7710   39.9540 C   0  0  0  0  0  0  0  0  0  0  0  0
   39.2020   32.7870   40.3910 C   0  0  0  0  0  0  0  0  0  0  0  0
   39.9560   33.1320   39.3260 N   0  0  0  0  0  0  0  0  0  0  0  0
   39.6110   32.3490   38.2800 C   0  0  0  0  0  0  0  0  0  0  0  0
   38.6290   31.4920   38.6600 N   0  0  0  0  0  0  0  0  0  0  0  0
   40.0940   32.3000   36.9360 N   0  0  0  0  0  0  0  0  0  0  0  0
   39.2430   33.2310   41.3750 H   0  0  0  0  0  0  0  0  0  0  0  0
   39.6940   33.1620   36.4950 H   0  0  0  0  0  0  0  0  0  0  0  0
   40.7080   31.5580   36.5140 H   0  0  0  0  0  0  0  0  0  0  0  0
   40.9750   34.1410   39.2230 C   0  0  0  0  0  2  0  0  0  0  0  0
   42.3180   33.6690   39.3360 N   0  0  0  0  0  4  0  0  0  0  0  0
   42.3260   32.6130   39.4580 H   0  0  0  0  0  0  0  0  0  0  0  0
   43.2090   34.0460   38.2850 C   0  0  0  0  0  2  0  0  0  0  0  0
   42.9000   34.8700   37.6480 H   0  0  0  0  0  0  0  0  0  0  0  0
   42.8660   34.1610   40.6080 C   0  0  0  0  0  2  0  0  0  0  0  0
   43.2360   35.1830   40.4550 H   0  0  0  0  0  0  0  0  0  0  0  0
   38.4840   29.6140   42.4090 C   0  0  0  0  0  0  0  0  0  0  0  0
   37.6510   29.7470   41.2830 C   0  0  0  0  0  0  0  0  0  0  0  0
   37.1750   28.5590   40.7640 C   0  0  0  0  0  0  0  0  0  0  0  0
   37.4770   27.3580   41.2880 N   0  0  0  0  0  0  0  0  0  0  0  0
   38.2880   27.2880   42.3790 C   0  0  0  0  0  0  0  0  0  0  0  0
   38.7850   28.4170   42.9330 N   0  0  0  0  0  0  0  0  0  0  0  0
   38.8850   30.5180   42.8570 H   0  0  0  0  0  0  0  0  0  0  0  0
   38.5390   26.3280   42.8100 H   0  0  0  0  0  0  0  0  0  0  0  0
   36.3320   28.6090   39.6280 C   0  0  0  0  0  0  0  0  0  0  0  0
   35.0050   28.8190   39.4140 C   0  0  0  0  0  0  0  0  0  0  0  0
   34.4660   28.8110   38.2130 C   0  0  0  0  0  0  0  0  0  0  0  0
   35.3010   28.5820   37.1780 C   0  0  0  0  0  0  0  0  0  0  0  0
   36.9290   28.3670   37.9680 S   0  0  0  0  0  0  0  0  0  0  0  0
   34.4300   28.9950   40.3470 H   0  0  0  0  0  0  0  0  0  0  0  0
   33.4200   28.9720   37.9830 H   0  0  0  0  0  0  0  0  0  0  0  0
   35.0780   28.5270   36.0550 H   0  0  0  0  0  0  0  0  0  0  0  0
  1  2  2  0  0  0  0
  1 20  1  0  0  0  0
  3  4  2  0  0  0  0
  3  1  1  0  0  0  0
  4  9  1  0  0  0  0
  5  4  1  0  0  0  0
  6  7  2  0  0  0  0
  6  5  1  0  0  0  0
  7  3  1  0  0  0  0
  8  6  1  0  0  0  0
 10  8  1  0  0  0  0
 11  8  1  0  0  0  0
 12  5  1  0  0  0  0
 12 13  1  0  0  0  0
 13 14  1  0  0  0  0
 13 17  1  0  0  0  0
 15 13  1  0  0  0  0
 16 15  1  0  0  0  0
 18 17  1  0  0  0  0
 19 25  1  0  0  0  0
 19 24  1  0  0  0  0
 20 19  2  0  0  0  0
 21 20  1  0  0  0  0
 21 22  2  0  0  0  0
 22 23  1  0  0  0  0
 23 26  1  0  0  0  0
 23 24  2  0  0  0  0
 27 21  1  0  0  0  0
 28 27  2  0  0  0  0
 28 32  1  0  0  0  0
 29 28  1  0  0  0  0
 30 31  1  0  0  0  0
 30 29  2  0  0  0  0
 31 27  1  0  0  0  0
 33 29  1  0  0  0  0
 34 30  1  0  0  0  0
M  END
>  <minimizedAffinity>
-5.05237865

$$$$

 OpenBabel03252503173D

 34 36  0  0  0  0  0  0  0  0999 V2000
   37.3740   28.1330   42.2340 C   0  0  0  0  0  0  0  0  0  0  0  0
   36.2270   27.8360   42.6990 O   0  0  0  0  0  0  0  0  0  0  0  0
   37.7280   29.4380   41.5890 C   0  0  0  0  0  0  0  0  0  0  0  0
   38.9730   29.8220   41.1580 C   0  0  0  0  0  0  0  0  0  0  0  0
   38.8150   31.0620   40.6500 N   0  0  0  0  0  0  0  0  0  0  0  0
   37.5160   31.4150   40.7690 C   0  0  0  0  0  0  0  0  0  0  0  0
   36.8230   30.4060   41.3560 N   0  0  0  0  0  0  0  0  0  0  0  0
   36.8220   32.6070   40.3940 N   0  0  0  0  0  0  0  0  0  0  0  0
   39.8960   29.2640   41.2080 H   0  0  0  0  0  0  0  0  0  0  0  0
   37.1360   33.3130   41.1010 H   0  0  0  0  0  0  0  0  0  0  0  0
   36.1560   32.7210   39.5880 H   0  0  0  0  0  0  0  0  0  0  0  0
   39.7940   31.9350   40.0620 C   0  0  0  0  0  2  0  0  0  0  0  0
   40.4610   32.8090   40.9720 N   0  0  0  0  0  4  0  0  0  0  0  0
   39.8870   32.9220   41.8600 H   0  0  0  0  0  0  0  0  0  0  0  0
   41.8080   32.4680   41.3010 C   0  0  0  0  0  2  0  0  0  0  0  0
   42.3130   31.7630   40.6460 H   0  0  0  0  0  0  0  0  0  0  0  0
   40.4530   34.1590   40.3920 C   0  0  0  0  0  2  0  0  0  0  0  0
   41.2950   34.2430   39.6930 H   0  0  0  0  0  0  0  0  0  0  0  0
   39.1750   27.0710   43.5100 C   0  0  0  0  0  0  0  0  0  0  0  0
   38.3600   27.1120   42.3640 C   0  0  0  0  0  0  0  0  0  0  0  0
   38.6040   26.1190   41.4370 C   0  0  0  0  0  0  0  0  0  0  0  0
   39.5480   25.1760   41.6050 N   0  0  0  0  0  0  0  0  0  0  0  0
   40.3090   25.1840   42.7330 C   0  0  0  0  0  0  0  0  0  0  0  0
   40.1170   26.1310   43.6790 N   0  0  0  0  0  0  0  0  0  0  0  0
   39.0250   27.8300   44.2720 H   0  0  0  0  0  0  0  0  0  0  0  0
   41.0710   24.4310   42.8800 H   0  0  0  0  0  0  0  0  0  0  0  0
   37.8250   26.0930   40.2540 C   0  0  0  0  0  0  0  0  0  0  0  0
   36.6230   25.5680   39.8970 C   0  0  0  0  0  0  0  0  0  0  0  0
   36.1180   25.6980   38.6880 C   0  0  0  0  0  0  0  0  0  0  0  0
   36.8580   26.3900   37.7960 C   0  0  0  0  0  0  0  0  0  0  0  0
   38.3420   26.8720   38.7380 S   0  0  0  0  0  0  0  0  0  0  0  0
   36.1160   25.0240   40.7220 H   0  0  0  0  0  0  0  0  0  0  0  0
   35.1690   25.3030   38.3470 H   0  0  0  0  0  0  0  0  0  0  0  0
   36.6400   26.6370   36.6990 H   0  0  0  0  0  0  0  0  0  0  0  0
  1 20  1  0  0  0  0
  1  2  2  0  0  0  0
  3  1  1  0  0  0  0
  4  9  1  0  0  0  0
  4  3  2  0  0  0  0
  5  6  1  0  0  0  0
  5  4  1  0  0  0  0
  6  7  2  0  0  0  0
  7  3  1  0  0  0  0
  8  6  1  0  0  0  0
  8 10  1  0  0  0  0
 11  8  1  0  0  0  0
 12  5  1  0  0  0  0
 12 13  1  0  0  0  0
 13 15  1  0  0  0  0
 13 14  1  0  0  0  0
 16 15  1  0  0  0  0
 17 13  1  0  0  0  0
 18 17  1  0  0  0  0
 19 24  1  0  0  0  0
 19 25  1  0  0  0  0
 20 19  2  0  0  0  0
 21 22  2  0  0  0  0
 21 20  1  0  0  0  0
 22 23  1  0  0  0  0
 23 26  1  0  0  0  0
 23 24  2  0  0  0  0
 27 21  1  0  0  0  0
 28 27  2  0  0  0  0
 28 32  1  0  0  0  0
 29 28  1  0  0  0  0
 30 29  2  0  0  0  0
 30 31  1  0  0  0  0
 31 27  1  0  0  0  0
 33 29  1  0  0  0  0
 34 30  1  0  0  0  0
M  END
>  <minimizedAffinity>
-5.05052233

$$$$

 OpenBabel03252503173D

 34 36  0  0  0  0  0  0  0  0999 V2000
   38.6210   27.1250   42.5890 C   0  0  0  0  0  0  0  0  0  0  0  0
   39.2780   27.0550   43.6770 O   0  0  0  0  0  0  0  0  0  0  0  0
   38.1700   28.3970   41.9380 C   0  0  0  0  0  0  0  0  0  0  0  0
   38.9110   29.1880   41.0970 C   0  0  0  0  0  0  0  0  0  0  0  0
   38.1040   30.2160   40.7600 N   0  0  0  0  0  0  0  0  0  0  0  0
   36.9130   30.0500   41.3780 C   0  0  0  0  0  0  0  0  0  0  0  0
   36.9410   28.9140   42.1200 N   0  0  0  0  0  0  0  0  0  0  0  0
   35.7230   30.8400   41.3620 N   0  0  0  0  0  0  0  0  0  0  0  0
   39.9270   29.0370   40.7640 H   0  0  0  0  0  0  0  0  0  0  0  0
   35.9690   31.6770   41.9420 H   0  0  0  0  0  0  0  0  0  0  0  0
   34.8200   30.6100   40.8740 H   0  0  0  0  0  0  0  0  0  0  0  0
   38.3710   31.3380   39.9020 C   0  0  0  0  0  2  0  0  0  0  0  0
   38.6450   32.5690   40.5710 N   0  0  0  0  0  4  0  0  0  0  0  0
   38.2460   32.5480   41.5560 H   0  0  0  0  0  0  0  0  0  0  0  0
   40.0140   32.9760   40.6060 C   0  0  0  0  0  2  0  0  0  0  0  0
   40.6890   32.4940   39.9040 H   0  0  0  0  0  0  0  0  0  0  0  0
   37.8640   33.6260   39.9120 C   0  0  0  0  0  2  0  0  0  0  0  0
   38.4220   33.9760   39.0350 H   0  0  0  0  0  0  0  0  0  0  0  0
   37.0170   25.3450   42.0810 C   0  0  0  0  0  0  0  0  0  0  0  0
   38.3190   25.8700   41.9860 C   0  0  0  0  0  0  0  0  0  0  0  0
   39.2170   25.0850   41.2900 C   0  0  0  0  0  0  0  0  0  0  0  0
   38.8840   23.9060   40.7380 N   0  0  0  0  0  0  0  0  0  0  0  0
   37.6090   23.4450   40.8610 C   0  0  0  0  0  0  0  0  0  0  0  0
   36.6840   24.1680   41.5310 N   0  0  0  0  0  0  0  0  0  0  0  0
   36.2710   25.9220   42.6180 H   0  0  0  0  0  0  0  0  0  0  0  0
   37.3280   22.4970   40.4210 H   0  0  0  0  0  0  0  0  0  0  0  0
   40.5490   25.5440   41.1520 C   0  0  0  0  0  0  0  0  0  0  0  0
   41.6900   25.4440   41.8860 C   0  0  0  0  0  0  0  0  0  0  0  0
   42.8290   25.9860   41.5110 C   0  0  0  0  0  0  0  0  0  0  0  0
   42.8220   26.6600   40.3420 C   0  0  0  0  0  0  0  0  0  0  0  0
   41.1020   26.5070   39.7600 S   0  0  0  0  0  0  0  0  0  0  0  0
   41.5610   24.8650   42.8250 H   0  0  0  0  0  0  0  0  0  0  0  0
   43.7670   25.9390   42.0530 H   0  0  0  0  0  0  0  0  0  0  0  0
   43.6730   27.2100   39.8080 H   0  0  0  0  0  0  0  0  0  0  0  0
  1  2  2  0  0  0  0
  3  7  1  0  0  0  0
  3  1  1  0  0  0  0
  4  3  2  0  0  0  0
  5  4  1  0  0  0  0
  5  6  1  0  0  0  0
  6  7  2  0  0  0  0
  8  6  1  0  0  0  0
  8 10  1  0  0  0  0
  9  4  1  0  0  0  0
 11  8  1  0  0  0  0
 12 13  1  0  0  0  0
 12  5  1  0  0  0  0
 13 15  1  0  0  0  0
 13 14  1  0  0  0  0
 16 15  1  0  0  0  0
 17 13  1  0  0  0  0
 18 17  1  0  0  0  0
 19 25  1  0  0  0  0
 20 19  1  0  0  0  0
 20  1  1  0  0  0  0
 21 20  2  0  0  0  0
 22 23  2  0  0  0  0
 22 21  1  0  0  0  0
 23 24  1  0  0  0  0
 24 19  2  0  0  0  0
 26 23  1  0  0  0  0
 27 21  1  0  0  0  0
 27 28  2  0  0  0  0
 28 32  1  0  0  0  0
 29 28  1  0  0  0  0
 29 33  1  0  0  0  0
 30 29  2  0  0  0  0
 31 30  1  0  0  0  0
 31 27  1  0  0  0  0
 34 30  1  0  0  0  0
M  END
>  <minimizedAffinity>
-5.05012369

$$$$

 OpenBabel03252503173D

 34 36  0  0  0  0  0  0  0  0999 V2000
   37.0060   27.5080   42.4620 C   0  0  0  0  0  0  0  0  0  0  0  0
   36.6400   27.5630   43.6790 O   0  0  0  0  0  0  0  0  0  0  0  0
   36.7880   28.5900   41.4490 C   0  0  0  0  0  0  0  0  0  0  0  0
   36.5290   28.4150   40.1130 C   0  0  0  0  0  0  0  0  0  0  0  0
   36.4070   29.6570   39.6000 N   0  0  0  0  0  0  0  0  0  0  0  0
   36.5860   30.5540   40.5960 C   0  0  0  0  0  0  0  0  0  0  0  0
   36.8260   29.8990   41.7590 N   0  0  0  0  0  0  0  0  0  0  0  0
   36.5610   31.9830   40.5950 N   0  0  0  0  0  0  0  0  0  0  0  0
   36.4390   27.4860   39.5690 H   0  0  0  0  0  0  0  0  0  0  0  0
   37.4550   32.2500   40.1190 H   0  0  0  0  0  0  0  0  0  0  0  0
   35.8060   32.6000   40.9900 H   0  0  0  0  0  0  0  0  0  0  0  0
   36.1340   30.0600   38.2480 C   0  0  0  0  0  2  0  0  0  0  0  0
   36.0320   28.9960   37.3010 N   0  0  0  0  0  4  0  0  0  0  0  0
   36.1710   28.0590   37.7850 H   0  0  0  0  0  0  0  0  0  0  0  0
   34.8420   28.9670   36.5120 C   0  0  0  0  0  2  0  0  0  0  0  0
   34.2500   29.8770   36.4790 H   0  0  0  0  0  0  0  0  0  0  0  0
   37.1870   29.0830   36.3960 C   0  0  0  0  0  2  0  0  0  0  0  0
   36.9560   29.8100   35.6060 H   0  0  0  0  0  0  0  0  0  0  0  0
   36.9340   25.1170   41.9380 C   0  0  0  0  0  0  0  0  0  0  0  0
   37.6720   26.3050   42.0870 C   0  0  0  0  0  0  0  0  0  0  0  0
   39.0260   26.1860   41.8470 C   0  0  0  0  0  0  0  0  0  0  0  0
   39.6090   25.0270   41.4960 N   0  0  0  0  0  0  0  0  0  0  0  0
   38.8460   23.9070   41.3660 C   0  0  0  0  0  0  0  0  0  0  0  0
   37.5140   23.9590   41.5870 N   0  0  0  0  0  0  0  0  0  0  0  0
   35.8630   25.1540   42.1150 H   0  0  0  0  0  0  0  0  0  0  0  0
   39.3030   22.9670   41.0830 H   0  0  0  0  0  0  0  0  0  0  0  0
   39.8390   27.3390   41.9780 C   0  0  0  0  0  0  0  0  0  0  0  0
   40.4150   28.0060   43.0140 C   0  0  0  0  0  0  0  0  0  0  0  0
   41.1450   29.0880   42.8480 C   0  0  0  0  0  0  0  0  0  0  0  0
   41.3050   29.5200   41.5800 C   0  0  0  0  0  0  0  0  0  0  0  0
   40.3620   28.3170   40.5860 S   0  0  0  0  0  0  0  0  0  0  0  0
   40.2060   27.5480   44.0040 H   0  0  0  0  0  0  0  0  0  0  0  0
   41.6270   29.6590   43.6330 H   0  0  0  0  0  0  0  0  0  0  0  0
   41.8860   30.4230   41.1810 H   0  0  0  0  0  0  0  0  0  0  0  0
  1  2  2  0  0  0  0
  3  7  1  0  0  0  0
  3  1  1  0  0  0  0
  4  3  2  0  0  0  0
  5  4  1  0  0  0  0
  5  6  1  0  0  0  0
  6  7  2  0  0  0  0
  8  6  1  0  0  0  0
  8 11  1  0  0  0  0
  9  4  1  0  0  0  0
 10  8  1  0  0  0  0
 12  5  1  0  0  0  0
 13 14  1  0  0  0  0
 13 12  1  0  0  0  0
 15 13  1  0  0  0  0
 16 15  1  0  0  0  0
 17 13  1  0  0  0  0
 18 17  1  0  0  0  0
 19 20  1  0  0  0  0
 19 25  1  0  0  0  0
 20  1  1  0  0  0  0
 21 27  1  0  0  0  0
 21 20  2  0  0  0  0
 22 21  1  0  0  0  0
 23 22  2  0  0  0  0
 23 24  1  0  0  0  0
 24 19  2  0  0  0  0
 26 23  1  0  0  0  0
 27 28  2  0  0  0  0
 28 32  1  0  0  0  0
 29 28  1  0  0  0  0
 29 33  1  0  0  0  0
 30 29  2  0  0  0  0
 31 30  1  0  0  0  0
 31 27  1  0  0  0  0
 34 30  1  0  0  0  0
M  END
>  <minimizedAffinity>
-4.95197392

$$$$
