REMARK  Name = 
REMARK  7 active torsions:
REMARK  status: ('A' for Active; 'I' for Inactive)
REMARK    1  A    between atoms: C_2  and  C_12
REMARK    2  A    between atoms: C_3  and  C_7
REMARK    3  A    between atoms: C_12  and  C_14
REMARK    4  A    between atoms: N_16  and  C_28
REMARK    5  A    between atoms: C_28  and  N_29
REMARK    6  A    between atoms: N_29  and  C_30
REMARK    7  A    between atoms: N_29  and  C_32
REMARK                            x       y       z     vdW  Elec       q    Type
REMARK                         _______ _______ _______ _____ _____    ______ ____
ROOT
ATOM      1  C   UNL     1      46.515  34.833  41.904  0.00  0.00    +0.000 C 
ATOM      2  O   UNL     1      47.715  35.255  41.867  0.00  0.00    +0.000 OA
ENDROOT
BRANCH   1   3
ATOM      3  C   UNL     1      45.781  34.226  40.748  0.00  0.00    +0.000 A 
ATOM      4  C   UNL     1      44.435  34.321  40.497  0.00  0.00    +0.000 A 
ATOM      5  N   UNL     1      44.227  33.625  39.360  0.00  0.00    +0.000 N 
ATOM      6  C   UNL     1      45.410  33.126  38.937  0.00  0.00    +0.000 A 
ATOM      7  N   UNL     1      46.392  33.495  39.798  0.00  0.00    +0.000 NA
ATOM      8  N   UNL     1      45.746  32.327  37.801  0.00  0.00    +0.000 N 
ATOM      9  H   UNL     1      43.685  34.839  41.077  0.00  0.00    +0.000 HD
ATOM     10  H   UNL     1      45.369  31.380  38.040  0.00  0.00    +0.000 HD
ATOM     11  H   UNL     1      46.256  32.643  36.937  0.00  0.00    +0.000 HD
BRANCH   5  12
ATOM     12  C   UNL     1      43.001  33.397  38.645  0.00  0.00    +0.000 C 
BRANCH  12  13
ATOM     13  N   UNL     1      42.976  33.880  37.302  0.00  0.00    +0.000 N 
ATOM     14  H   UNL     1      42.515  34.839  37.266  0.00  0.00    +0.000 HD
BRANCH  13  15
ATOM     15  C   UNL     1      44.230  33.915  36.621  0.00  0.00    +0.000 C 
ATOM     16  H   UNL     1      45.039  33.327  37.046  0.00  0.00    +0.000 HD
ENDBRANCH  13  15
BRANCH  13  17
ATOM     17  C   UNL     1      42.054  33.032  36.533  0.00  0.00    +0.000 C 
ATOM     18  H   UNL     1      42.597  32.139  36.203  0.00  0.00    +0.000 HD
ENDBRANCH  13  17
ENDBRANCH  12  13
ENDBRANCH   5  12
ENDBRANCH   1   3
BRANCH   1  20
ATOM     19  C   UNL     1      45.219  36.177  43.490  0.00  0.00    +0.000 A 
ATOM     20  C   UNL     1      45.867  34.971  43.166  0.00  0.00    +0.000 A 
ATOM     21  C   UNL     1      45.812  33.997  44.143  0.00  0.00    +0.000 A 
ATOM     22  N   UNL     1      45.188  34.175  45.320  0.00  0.00    +0.000 NA
ATOM     23  C   UNL     1      44.577  35.363  45.581  0.00  0.00    +0.000 A 
ATOM     24  N   UNL     1      44.596  36.356  44.664  0.00  0.00    +0.000 NA
ATOM     25  H   UNL     1      45.232  36.977  42.756  0.00  0.00    +0.000 HD
ATOM     26  H   UNL     1      44.071  35.519  46.525  0.00  0.00    +0.000 HD
BRANCH  21  27
ATOM     27  C   UNL     1      46.443  32.754  43.893  0.00  0.00    +0.000 A 
ATOM     28  C   UNL     1      47.708  32.268  44.010  0.00  0.00    +0.000 A 
ATOM     29  C   UNL     1      48.029  31.031  43.696  0.00  0.00    +0.000 A 
ATOM     30  C   UNL     1      47.030  30.244  43.244  0.00  0.00    +0.000 A 
ATOM     31  S   UNL     1      45.569  31.333  43.271  0.00  0.00    +0.000 S 
ATOM     32  H   UNL     1      48.434  33.016  44.393  0.00  0.00    +0.000 HD
ATOM     33  H   UNL     1      49.016  30.590  43.769  0.00  0.00    +0.000 HD
ATOM     34  H   UNL     1      47.054  29.148  42.912  0.00  0.00    +0.000 HD
ENDBRANCH  21  27
ENDBRANCH   1  20
TORSDOF 7
