
 OpenBabel03252508593D

 43 44  0  0  1  0  0  0  0  0999 V2000
   46.6000   34.5540   43.6100 N   0  0  0  0  0  0  0  0  0  0  0  0
   46.0930   35.5430   42.7270 C   0  0  0  0  0  0  0  0  0  0  0  0
   44.5940   35.7130   42.7420 C   0  0  0  0  0  0  0  0  0  0  0  0
   43.9450   35.4480   44.0750 C   0  0  0  0  0  0  0  0  0  0  0  0
   44.9740   35.1870   45.1480 C   0  0  0  0  0  0  0  0  0  0  0  0
   45.7920   33.9710   44.5730 C   0  0  2  0  0  0  0  0  0  0  0  0
   46.3960   35.4570   41.6790 H   0  0  0  0  0  0  0  0  0  0  0  0
   46.5280   36.5220   43.0780 H   0  0  0  0  0  0  0  0  0  0  0  0
   44.3440   36.7730   42.4730 H   0  0  0  0  0  0  0  0  0  0  0  0
   44.1680   35.1090   41.9150 H   0  0  0  0  0  0  0  0  0  0  0  0
   43.2940   34.5610   44.0180 H   0  0  0  0  0  0  0  0  0  0  0  0
   43.3050   36.2850   44.4330 H   0  0  0  0  0  0  0  0  0  0  0  0
   45.6680   36.0120   45.3080 H   0  0  0  0  0  0  0  0  0  0  0  0
   44.4970   34.7650   46.0410 H   0  0  0  0  0  0  0  0  0  0  0  0
   45.0560   33.2090   44.2360 H   0  0  0  0  0  0  0  0  0  0  0  0
   47.6950   33.7980   43.0780 C   0  0  0  0  0  0  0  0  0  0  0  0
   48.2810   33.2960   43.8860 H   0  0  0  0  0  0  0  0  0  0  0  0
   48.3690   34.4610   42.5290 H   0  0  0  0  0  0  0  0  0  0  0  0
   47.1470   32.7150   42.1960 C   0  0  0  0  0  0  0  0  0  0  0  0
   46.0370   32.8310   42.0740 H   0  0  0  0  0  0  0  0  0  0  0  0
   47.3040   31.6930   42.5540 H   0  0  0  0  0  0  0  0  0  0  0  0
   49.0500   31.9920   39.0370 C   0  0  0  0  0  0  0  0  0  0  0  0
   48.5040   31.8590   40.3280 C   0  0  0  0  0  0  0  0  0  0  0  0
   47.7180   32.8660   40.8300 C   0  0  0  0  0  0  0  0  0  0  0  0
   47.5080   33.9380   40.0540 N   0  0  0  0  0  0  0  0  0  0  0  0
   48.0350   34.0540   38.8210 C   0  0  0  0  0  0  0  0  0  0  0  0
   48.8090   33.0840   38.3010 N   0  0  0  0  0  0  0  0  0  0  0  0
   49.6490   31.1520   38.7320 H   0  0  0  0  0  0  0  0  0  0  0  0
   48.6830   31.0010   40.9280 H   0  0  0  0  0  0  0  0  0  0  0  0
   47.8050   34.9590   38.2760 H   0  0  0  0  0  0  0  0  0  0  0  0
   46.5200   33.5800   45.6860 O   0  0  0  0  0  0  0  0  0  0  0  0
   45.6270   31.1740   44.9900 O   0  0  0  0  0  0  0  0  0  0  0  0
   46.2030   31.9930   46.1480 P   0  0  2  0  0  0  0  0  0  0  0  0
   44.9240   32.0780   47.2860 O   0  0  0  0  0  0  0  0  0  0  0  0
   45.2850   32.2180   48.1970 H   0  0  0  0  0  0  0  0  0  0  0  0
   47.5080   31.2760   46.8780 O   0  0  0  0  0  0  0  0  0  0  0  0
   47.9270   30.1000   46.3240 C   0  0  0  0  0  2  0  0  0  0  0  0
   48.8280   29.4590   47.2660 N   0  0  0  0  0  4  0  0  0  0  0  0
   49.7670   29.4020   46.8150 H   0  0  0  0  0  0  0  0  0  0  0  0
   48.9550   30.2700   48.4630 C   0  0  0  0  0  2  0  0  0  0  0  0
   47.9880   30.7530   48.7200 H   0  0  0  0  0  0  0  0  0  0  0  0
   48.3780   28.1390   47.6530 C   0  0  0  0  0  2  0  0  0  0  0  0
   47.3050   28.0740   47.8150 H   0  0  0  0  0  0  0  0  0  0  0  0
  1  6  1  0  0  0  0
  2  3  1  0  0  0  0
  2  8  1  0  0  0  0
  2  1  1  0  0  0  0
  3  4  1  0  0  0  0
  4 12  1  0  0  0  0
  4  5  1  0  0  0  0
  5 13  1  0  0  0  0
  5 14  1  0  0  0  0
  6 15  1  6  0  0  0
  6  5  1  0  0  0  0
  6 31  1  0  0  0  0
  7  2  1  0  0  0  0
  9  3  1  0  0  0  0
 10  3  1  0  0  0  0
 11  4  1  0  0  0  0
 16  1  1  0  0  0  0
 16 17  1  0  0  0  0
 18 16  1  0  0  0  0
 19 21  1  0  0  0  0
 19 16  1  0  0  0  0
 20 19  1  0  0  0  0
 22 23  1  0  0  0  0
 23 24  2  0  0  0  0
 23 29  1  0  0  0  0
 24 19  1  0  0  0  0
 25 24  1  0  0  0  0
 26 25  2  0  0  0  0
 27 26  1  0  0  0  0
 27 22  2  0  0  0  0
 28 22  1  0  0  0  0
 30 26  1  0  0  0  0
 31 33  1  0  0  0  0
 33 32  2  6  0  0  0
 33 36  1  0  0  0  0
 33 34  1  0  0  0  0
 34 35  1  0  0  0  0
 37 36  1  0  0  0  0
 37 38  1  0  0  0  0
 38 42  1  0  0  0  0
 38 40  1  0  0  0  0
 39 38  1  0  0  0  0
 40 41  1  0  0  0  0
 42 43  1  0  0  0  0
M  END
>  <minimizedAffinity>
-4.02217865

>  <minimizedRMSD>
1.72069621

$$$$
