
 OpenBabel03242518283D

 19 19  0  0  0  0  0  0  0  0999 V2000
   47.1190   34.9420   41.8840 C   0  0  0  0  0  0  0  0  0  0  0  0
   48.2260   35.5410   41.7410 O   0  0  0  0  0  0  0  0  0  0  0  0
   46.3450   34.8820   43.0870 C   0  0  0  0  0  0  0  0  0  0  0  0
   45.3790   35.8900   43.1770 C   0  0  0  0  0  0  0  0  0  0  0  0
   44.5750   35.8970   44.3370 C   0  0  0  0  0  0  0  0  0  0  0  0
   44.7730   34.9530   45.2810 N   0  0  0  0  0  0  0  0  0  0  0  0
   45.7290   33.9970   45.1410 C   0  0  0  0  0  0  0  0  0  0  0  0
   46.5000   33.9740   44.0490 N   0  0  0  0  0  0  0  0  0  0  0  0
   45.1820   36.6650   42.4500 H   0  0  0  0  0  0  0  0  0  0  0  0
   43.8120   36.6490   44.4640 H   0  0  0  0  0  0  0  0  0  0  0  0
   45.9010   33.2290   45.8940 H   0  0  0  0  0  0  0  0  0  0  0  0
   46.5760   34.2720   40.8030 O   0  0  0  0  0  0  0  0  0  0  0  0
   47.4300   33.6610   39.8230 C   0  0  0  0  0  2  0  0  0  0  0  0
   47.0550   33.9730   38.4800 N   0  0  0  0  0  4  0  0  0  0  0  0
   46.4170   34.7750   38.4200 H   0  0  0  0  0  0  0  0  0  0  0  0
   48.2960   34.3800   37.8100 C   0  0  0  0  0  2  0  0  0  0  0  0
   49.0630   33.6520   38.1630 H   0  0  0  0  0  0  0  0  0  0  0  0
   46.5380   32.8380   37.7470 C   0  0  0  0  0  2  0  0  0  0  0  0
   45.4990   32.5770   37.9800 H   0  0  0  0  0  0  0  0  0  0  0  0
  1  3  1  0  0  0  0
  2  1  2  0  0  0  0
  3  4  2  0  0  0  0
  3  8  1  0  0  0  0
  4  5  1  0  0  0  0
  5 10  1  0  0  0  0
  5  6  2  0  0  0  0
  7  6  1  0  0  0  0
  7 11  1  0  0  0  0
  8  7  2  0  0  0  0
  9  4  1  0  0  0  0
 12  1  1  0  0  0  0
 13 12  1  0  0  0  0
 14 13  1  0  0  0  0
 15 14  1  0  0  0  0
 16 17  1  0  0  0  0
 16 14  1  0  0  0  0
 18 19  1  0  0  0  0
 18 14  1  0  0  0  0
M  END
>  <minimizedAffinity>
-3.89657736

>  <minimizedRMSD>
0.709528983

$$$$
