
 OpenBabel03252503363D

 40 42  0  0  1  0  0  0  0  0999 V2000
   48.6170   30.1560   40.1370 C   0  0  0  0  0  0  0  0  0  0  0  0
   49.1270   31.3620   39.8920 C   0  0  0  0  0  0  0  0  0  0  0  0
   48.2910   32.5060   39.8900 N   0  0  0  0  0  0  0  0  0  0  0  0
   48.0950   33.8780   40.1730 C   0  0  0  0  0  0  0  0  0  0  0  0
   48.8330   34.8350   40.5780 O   0  0  0  0  0  0  0  0  0  0  0  0
   46.6820   33.8880   39.8390 C   0  0  1  0  0  0  0  0  0  0  0  0
   46.9290   32.4660   39.3970 C   0  0  2  0  0  0  0  0  0  0  0  0
   46.0650   31.1930   40.3240 S   0  0  0  0  0  0  0  0  0  0  0  0
   47.1980   29.8080   40.4380 C   0  0  0  0  0  0  0  0  0  0  0  0
   46.3550   34.4640   38.9280 H   0  0  0  0  0  0  0  0  0  0  0  0
   46.9070   32.3310   38.2940 H   0  0  0  0  0  0  0  0  0  0  0  0
   46.9280   28.9730   39.7810 H   0  0  0  0  0  0  0  0  0  0  0  0
   47.1870   29.4590   41.4950 H   0  0  0  0  0  0  0  0  0  0  0  0
   45.8200   34.0880   40.9950 C   0  0  0  0  0  0  0  0  0  0  0  0
   44.5950   33.9760   41.1710 O   0  0  0  0  0  0  0  0  0  0  0  0
   46.5350   34.4940   42.1810 N   0  0  0  0  0  0  0  0  0  0  0  0
   47.5430   34.6680   42.3970 H   0  0  0  0  0  0  0  0  0  0  0  0
   44.4850   36.1140   44.8180 C   0  0  0  0  0  0  0  0  0  0  0  0
   45.1130   35.8950   43.5920 C   0  0  0  0  0  0  0  0  0  0  0  0
   45.8600   34.7500   43.4000 C   0  0  0  0  0  0  0  0  0  0  0  0
   45.9610   33.8700   44.4090 N   0  0  0  0  0  0  0  0  0  0  0  0
   45.3420   34.0950   45.6070 C   0  0  0  0  0  0  0  0  0  0  0  0
   44.6170   35.2130   45.7870 N   0  0  0  0  0  0  0  0  0  0  0  0
   43.9300   37.0470   44.8460 H   0  0  0  0  0  0  0  0  0  0  0  0
   45.0350   36.6100   42.7600 H   0  0  0  0  0  0  0  0  0  0  0  0
   45.4300   33.3810   46.4110 H   0  0  0  0  0  0  0  0  0  0  0  0
   49.5980   29.0440   40.1030 C   0  0  0  0  0  0  0  0  0  0  0  0
   50.0880   28.9110   39.1160 H   0  0  0  0  0  0  0  0  0  0  0  0
   49.1610   28.0860   40.4460 H   0  0  0  0  0  0  0  0  0  0  0  0
   50.4030   29.3480   40.8250 H   0  0  0  0  0  0  0  0  0  0  0  0
   50.5410   31.5480   39.6200 C   0  0  0  0  0  0  0  0  0  0  0  0
   50.9990   31.7560   38.4630 O   0  0  0  0  0  0  0  0  0  0  0  0
   51.6650   31.5580   40.4170 O   0  0  0  0  0  0  0  0  0  0  0  0
   52.9690   31.3740   39.9740 C   0  0  0  0  0  2  0  0  0  0  0  0
   53.4610   30.1450   40.5620 N   0  0  0  0  0  4  0  0  0  0  0  0
   54.4720   30.3450   40.8300 H   0  0  0  0  0  0  0  0  0  0  0  0
   53.3300   28.9920   39.7270 C   0  0  0  0  0  2  0  0  0  0  0  0
   52.9930   28.0730   40.2660 H   0  0  0  0  0  0  0  0  0  0  0  0
   52.8050   29.8670   41.8280 C   0  0  0  0  0  2  0  0  0  0  0  0
   52.8260   28.7890   42.0730 H   0  0  0  0  0  0  0  0  0  0  0  0
  1  9  1  0  0  0  0
  2  1  2  0  0  0  0
  3  2  1  0  0  0  0
  3  4  1  0  0  0  0
  4  5  2  0  0  0  0
  6 10  1  6  0  0  0
  6  4  1  0  0  0  0
  6 14  1  0  0  0  0
  7 11  1  6  0  0  0
  7  6  1  0  0  0  0
  7  3  1  0  0  0  0
  7  8  1  0  0  0  0
  8  9  1  0  0  0  0
  9 13  1  0  0  0  0
 12  9  1  0  0  0  0
 14 15  2  0  0  0  0
 14 16  1  0  0  0  0
 16 17  1  0  0  0  0
 16 20  1  0  0  0  0
 18 24  1  0  0  0  0
 18 23  1  0  0  0  0
 19 18  2  0  0  0  0
 20 19  1  0  0  0  0
 20 21  2  0  0  0  0
 21 22  1  0  0  0  0
 22 23  2  0  0  0  0
 22 26  1  0  0  0  0
 25 19  1  0  0  0  0
 27  1  1  0  0  0  0
 27 29  1  0  0  0  0
 27 30  1  0  0  0  0
 28 27  1  0  0  0  0
 31  2  1  0  0  0  0
 31 33  1  0  0  0  0
 32 31  2  0  0  0  0
 34 33  1  0  0  0  0
 34 35  1  0  0  0  0
 35 36  1  0  0  0  0
 35 39  1  0  0  0  0
 37 38  1  0  0  0  0
 37 35  1  0  0  0  0
 39 40  1  0  0  0  0
M  END
>  <minimizedAffinity>
-4.36997747

>  <minimizedRMSD>
0.799711466

$$$$
