
     RDKit          3D

 25 25  0  0  0  0  0  0  0  0999 V2000
   46.2554   34.8762   43.1572 C   0  0  0  0  0  0  0  0  0  0  0  0
   45.3283   35.9155   43.2736 C   0  0  0  0  0  0  0  0  0  0  0  0
   44.5649   35.9561   44.4608 C   0  0  0  0  0  0  0  0  0  0  0  0
   44.7635   35.0110   45.4031 N   0  0  0  0  0  0  0  0  0  0  0  0
   45.6810   34.0215   45.2357 C   0  0  0  0  0  0  0  0  0  0  0  0
   46.4129   33.9670   44.1183 N   0  0  0  0  0  0  0  0  0  0  0  0
   46.9890   34.9031   41.9280 C   0  0  0  0  0  0  0  0  0  0  0  0
   48.1405   35.4031   41.7601 O   0  0  0  0  0  0  0  0  0  0  0  0
   46.3486   34.3205   40.8492 O   0  0  0  0  0  0  0  0  0  0  0  0
   45.1324   36.6939   42.5500 H   0  0  0  0  0  0  0  0  0  0  0  0
   43.8326   36.7345   44.6096 H   0  0  0  0  0  0  0  0  0  0  0  0
   45.8526   33.2520   45.9869 H   0  0  0  0  0  0  0  0  0  0  0  0
   46.9816   34.2845   39.5607 C   0  0  0  0  0  0  0  0  0  0  0  0
   48.2737   34.8924   39.5522 N   0  0  0  0  0  4  0  0  0  0  0  0
   48.6481   34.9989   38.1368 C   0  0  0  0  0  0  0  0  0  0  0  0
   47.7199   35.3387   37.6205 H   0  0  0  0  0  0  0  0  0  0  0  0
   48.2824   36.2352   40.0884 C   0  0  0  0  0  0  0  0  0  0  0  0
   48.2589   36.2924   41.1829 H   0  0  0  0  0  0  0  0  0  0  0  0
   46.3144   34.6596   38.7784 H   0  0  0  0  0  0  0  0  0  0  0  0
   47.1480   33.2004   39.3201 H   0  0  0  0  0  0  0  0  0  0  0  0
   48.9916   34.3102   39.9989 H   0  0  0  0  0  0  0  0  0  0  0  0
   49.0483   34.0408   37.7586 H   0  0  0  0  0  0  0  0  0  0  0  0
   49.3822   35.8406   38.0368 H   0  0  0  0  0  0  0  0  0  0  0  0
   47.4894   36.8323   39.6122 H   0  0  0  0  0  0  0  0  0  0  0  0
   49.2429   36.7051   39.7304 H   0  0  0  0  0  0  0  0  0  0  0  0
  1  2  2  0
  1  6  1  0
  2  3  1  0
  3  4  2  0
  5  4  1  0
  6  5  2  0
  7  1  1  0
  8  7  2  0
  9  7  1  0
  2 10  1  0
  3 11  1  0
  5 12  1  0
 13 14  1  0
 14 15  1  0
 15 16  1  0
 14 17  1  0
 17 18  1  0
 13 19  1  0
 13 20  1  0
 14 21  1  0
 15 22  1  0
 15 23  1  0
 17 24  1  0
 17 25  1  0
  9 13  1  0
M  CHG  1  14   1
M  ISO  5  10  14  11  14  12  14  16   8  18   8
M  END
>  <DihAtoms>  (1) 
6,8,12,13

>  <DihDeg>  (1) 
-60.00645712243277

$$$$
