
 OpenBabel03242518273D

 19 19  0  0  0  0  0  0  0  0999 V2000
   47.3340   34.9960   41.8570 C   0  0  0  0  0  0  0  0  0  0  0  0
   48.4040   35.6670   41.7660 O   0  0  0  0  0  0  0  0  0  0  0  0
   46.5120   34.8760   43.0230 C   0  0  0  0  0  0  0  0  0  0  0  0
   45.5010   35.8400   43.0920 C   0  0  0  0  0  0  0  0  0  0  0  0
   44.6490   35.7860   44.2160 C   0  0  0  0  0  0  0  0  0  0  0  0
   44.8480   34.8310   45.1480 N   0  0  0  0  0  0  0  0  0  0  0  0
   45.8480   33.9190   45.0290 C   0  0  0  0  0  0  0  0  0  0  0  0
   46.6660   33.9530   43.9710 N   0  0  0  0  0  0  0  0  0  0  0  0
   45.3020   36.6220   42.3740 H   0  0  0  0  0  0  0  0  0  0  0  0
   43.8500   36.5020   44.3260 H   0  0  0  0  0  0  0  0  0  0  0  0
   46.0210   33.1410   45.7720 H   0  0  0  0  0  0  0  0  0  0  0  0
   46.8840   34.3010   40.7480 O   0  0  0  0  0  0  0  0  0  0  0  0
   47.7990   33.9190   39.7100 C   0  0  0  0  0  2  0  0  0  0  0  0
   47.2440   34.0420   38.3980 N   0  0  0  0  0  4  0  0  0  0  0  0
   46.5320   34.7800   38.3350 H   0  0  0  0  0  0  0  0  0  0  0  0
   48.3560   34.4650   37.5400 C   0  0  0  0  0  2  0  0  0  0  0  0
   49.2230   33.8450   37.8690 H   0  0  0  0  0  0  0  0  0  0  0  0
   46.7520   32.7930   37.8610 C   0  0  0  0  0  2  0  0  0  0  0  0
   45.7750   32.4800   38.2490 H   0  0  0  0  0  0  0  0  0  0  0  0
  1  3  1  0  0  0  0
  2  1  2  0  0  0  0
  3  4  2  0  0  0  0
  3  8  1  0  0  0  0
  4  5  1  0  0  0  0
  5 10  1  0  0  0  0
  5  6  2  0  0  0  0
  7  6  1  0  0  0  0
  7 11  1  0  0  0  0
  8  7  2  0  0  0  0
  9  4  1  0  0  0  0
 12  1  1  0  0  0  0
 13 12  1  0  0  0  0
 14 13  1  0  0  0  0
 15 14  1  0  0  0  0
 16 17  1  0  0  0  0
 16 14  1  0  0  0  0
 18 19  1  0  0  0  0
 18 14  1  0  0  0  0
M  END
>  <minimizedAffinity>
-3.94252324

>  <minimizedRMSD>
0.805199683

$$$$
