
     RDKit          3D

 28 28  0  0  0  0  0  0  0  0999 V2000
   44.4729   35.6993   44.5893 C   0  0  0  0  0  0  0  0  0  0  0  0
   44.9318   35.8203   43.2694 C   0  0  0  0  0  0  0  0  0  0  0  0
   46.0159   35.0019   42.8807 C   0  0  0  0  0  0  0  0  0  0  0  0
   46.5362   34.1587   43.8073 N   0  0  0  0  0  0  0  0  0  0  0  0
   46.0702   34.0696   45.0639 C   0  0  0  0  0  0  0  0  0  0  0  0
   45.0467   34.8321   45.4563 N   0  0  0  0  0  0  0  0  0  0  0  0
   46.5887   33.2177   46.0161 O   0  0  0  0  0  0  0  0  0  0  0  0
   46.7732   32.2160   48.3966 O   0  0  0  0  0  0  0  0  0  0  0  0
   45.7634   32.5236   47.3030 P   0  0  1  0  0  0  0  0  0  0  0  0
   44.5314   33.5238   47.8491 O   0  0  0  0  0  0  0  0  0  0  0  0
   45.0595   31.0381   46.8955 O   0  0  0  0  0  0  0  0  0  0  0  0
   43.6333   36.3293   44.8999 H   0  0  0  0  0  0  0  0  0  0  0  0
   44.4866   36.5095   42.5564 H   0  0  0  0  0  0  0  0  0  0  0  0
   46.4008   35.0658   41.8664 H   0  0  0  0  0  0  0  0  0  0  0  0
   43.6545   33.2398   47.4492 H   0  0  0  0  0  0  0  0  0  0  0  0
   44.5798   30.4997   48.0946 C   0  0  0  0  0  0  0  0  0  0  0  0
   45.3660   30.9137   49.2294 N   0  0  0  0  0  4  0  0  0  0  0  0
   44.8949   32.2045   49.6656 C   0  0  0  0  0  0  0  0  0  0  0  0
   44.9469   32.9799   48.8902 H   0  0  0  0  0  0  0  0  0  0  0  0
   46.7707   30.8769   48.9581 C   0  0  0  0  0  0  0  0  0  0  0  0
   46.8994   30.7087   47.8718 H   0  0  0  0  0  0  0  0  0  0  0  0
   43.5233   30.6970   48.2811 H   0  0  0  0  0  0  0  0  0  0  0  0
   44.6731   29.3886   48.0058 H   0  0  0  0  0  0  0  0  0  0  0  0
   45.1408   30.2350   50.0052 H   0  0  0  0  0  0  0  0  0  0  0  0
   45.3756   32.5225   50.6264 H   0  0  0  0  0  0  0  0  0  0  0  0
   43.8142   32.0784   49.9102 H   0  0  0  0  0  0  0  0  0  0  0  0
   47.2375   29.9862   49.4537 H   0  0  0  0  0  0  0  0  0  0  0  0
   47.2824   31.7986   49.3127 H   0  0  0  0  0  0  0  0  0  0  0  0
  1  6  2  0
  2  1  1  0
  3  2  2  0
  3  4  1  0
  4  5  2  0
  5  6  1  0
  5  7  1  0
  9  7  1  6
  9 10  1  0
  9  8  2  0
 11  9  1  0
  1 12  1  0
  2 13  1  0
  3 14  1  0
 10 15  1  0
 16 17  1  0
 17 18  1  0
 18 19  1  0
 17 20  1  0
 20 21  1  0
 16 22  1  0
 16 23  1  0
 17 24  1  0
 18 25  1  0
 18 26  1  0
 20 27  1  0
 20 28  1  0
 11 16  1  0
M  CHG  1  17   1
M  ISO  6  12  14  13  14  14  14  15   3  19   8  21   8
M  END
>  <DihAtoms>  (1) 
8,10,15,16

>  <DihDeg>  (1) 
179.99899761563066

$$$$
