
 OpenBabel03252506123D

 34 35  0  0  0  0  0  0  0  0999 V2000
   45.1530   33.5180   41.1480 F   0  0  0  0  0  0  0  0  0  0  0  0
   46.3340   34.0940   41.0350 C   0  0  0  0  0  0  0  0  0  0  0  0
   46.8390   34.8020   42.1030 C   0  0  0  0  0  0  0  0  0  0  0  0
   48.0820   35.4490   42.0820 C   0  0  0  0  0  0  0  0  0  0  0  0
   48.8550   35.3750   40.9240 C   0  0  0  0  0  0  0  0  0  0  0  0
   48.3150   34.6570   39.8790 C   0  0  0  0  0  0  0  0  0  0  0  0
   47.1130   34.0260   39.8830 C   0  0  0  0  0  0  0  0  0  0  0  0
   48.4040   35.9890   42.9750 H   0  0  0  0  0  0  0  0  0  0  0  0
   49.7920   35.8860   40.9650 H   0  0  0  0  0  0  0  0  0  0  0  0
   49.0290   34.6780   39.0510 H   0  0  0  0  0  0  0  0  0  0  0  0
   45.4690   33.9910   45.4100 C   0  0  0  0  0  0  0  0  0  0  0  0
   44.6160   35.1070   45.6520 C   0  0  0  0  0  0  0  0  0  0  0  0
   44.5230   36.1360   44.6620 C   0  0  0  0  0  0  0  0  0  0  0  0
   45.2750   35.9670   43.5340 N   0  0  0  0  0  0  0  0  0  0  0  0
   46.0600   34.9050   43.3500 C   0  0  0  0  0  0  0  0  0  0  0  0
   46.1560   33.9310   44.2740 N   0  0  0  0  0  0  0  0  0  0  0  0
   44.0270   35.2270   46.5520 H   0  0  0  0  0  0  0  0  0  0  0  0
   43.8950   36.9760   44.8220 H   0  0  0  0  0  0  0  0  0  0  0  0
   45.5490   33.0080   46.4110 N   0  0  0  0  0  0  0  0  0  0  0  0
   46.3230   33.3210   47.0670 H   0  0  0  0  0  0  0  0  0  0  0  0
   44.9820   32.1400   46.5170 H   0  0  0  0  0  0  0  0  0  0  0  0
   46.6810   33.3430   38.7800 O   0  0  0  0  0  0  0  0  0  0  0  0
   48.0580   34.7070   36.9760 O   0  0  0  0  0  0  0  0  0  0  0  0
   47.3490   33.3960   37.2400 P   0  0  2  0  0  0  0  0  0  0  0  0
   46.0870   33.1740   36.1030 O   0  0  0  0  0  0  0  0  0  0  0  0
   46.5290   33.3340   35.2130 H   0  0  0  0  0  0  0  0  0  0  0  0
   48.4440   32.1430   36.9390 O   0  0  0  0  0  0  0  0  0  0  0  0
   47.9200   31.2150   36.0700 C   0  0  0  0  0  2  0  0  0  0  0  0
   48.1040   29.8480   36.4850 N   0  0  0  0  0  4  0  0  0  0  0  0
   47.2500   29.5140   36.9830 H   0  0  0  0  0  0  0  0  0  0  0  0
   49.1940   29.8030   37.4500 C   0  0  0  0  0  2  0  0  0  0  0  0
   48.9160   30.4530   38.3040 H   0  0  0  0  0  0  0  0  0  0  0  0
   48.4270   28.9770   35.3650 C   0  0  0  0  0  2  0  0  0  0  0  0
   48.4440   29.5220   34.3980 H   0  0  0  0  0  0  0  0  0  0  0  0
  2  1  1  0  0  0  0
  2  3  1  0  0  0  0
  3 15  1  0  0  0  0
  4  3  2  0  0  0  0
  4  8  1  0  0  0  0
  5  9  1  0  0  0  0
  5  4  1  0  0  0  0
  6  7  1  0  0  0  0
  6  5  2  0  0  0  0
  7  2  2  0  0  0  0
 10  6  1  0  0  0  0
 11 12  1  0  0  0  0
 11 19  1  0  0  0  0
 12 17  1  0  0  0  0
 13 18  1  0  0  0  0
 13 12  2  0  0  0  0
 14 13  1  0  0  0  0
 15 14  2  0  0  0  0
 15 16  1  0  0  0  0
 16 11  2  0  0  0  0
 19 21  1  0  0  0  0
 19 20  1  0  0  0  0
 22  7  1  0  0  0  0
 24 23  2  6  0  0  0
 24 22  1  0  0  0  0
 25 24  1  0  0  0  0
 26 25  1  0  0  0  0
 27 24  1  0  0  0  0
 28 29  1  0  0  0  0
 28 27  1  0  0  0  0
 29 30  1  0  0  0  0
 29 31  1  0  0  0  0
 31 32  1  0  0  0  0
 33 29  1  0  0  0  0
 34 33  1  0  0  0  0
M  END
>  <minimizedAffinity>
-5.46585083

>  <minimizedRMSD>
0.126621872

$$$$
