
 OpenBabel03252507493D

 43 44  0  0  0  0  0  0  0  0999 V2000
   47.3610   35.1810   42.2360 C   0  0  0  0  0  0  0  0  0  0  0  0
   47.6410   34.4370   43.0380 H   0  0  0  0  0  0  0  0  0  0  0  0
   47.5800   36.1920   42.6110 H   0  0  0  0  0  0  0  0  0  0  0  0
   45.8920   35.0220   42.0600 C   0  0  0  0  0  0  0  0  0  0  0  0
   44.9860   35.8210   42.8180 C   0  0  0  0  0  0  0  0  0  0  0  0
   43.3510   35.2620   42.2540 S   0  0  0  0  0  0  0  0  0  0  0  0
   44.1660   34.0090   41.0590 C   0  0  0  0  0  0  0  0  0  0  0  0
   45.2710   34.2010   41.2600 N   0  0  0  0  0  0  0  0  0  0  0  0
   45.2480   36.5700   43.5440 H   0  0  0  0  0  0  0  0  0  0  0  0
   43.4350   33.1650   40.2340 O   0  0  0  0  0  0  0  0  0  0  0  0
   41.7240   33.1360   38.2120 O   0  0  0  0  0  0  0  0  0  0  0  0
   43.0660   33.7200   38.6810 P   0  0  1  0  0  0  0  0  0  0  0  0
   42.8750   35.4120   38.7670 O   0  0  0  0  0  0  0  0  0  0  0  0
   43.6150   35.8800   38.3020 H   0  0  0  0  0  0  0  0  0  0  0  0
   44.2980   33.3850   37.6080 O   0  0  0  0  0  0  0  0  0  0  0  0
   44.7830   32.1140   37.6460 C   0  0  0  0  0  2  0  0  0  0  0  0
   43.8730   31.0700   38.0120 N   0  0  0  0  0  4  0  0  0  0  0  0
   43.0570   31.3480   38.5600 H   0  0  0  0  0  0  0  0  0  0  0  0
   44.6520   30.1530   38.8620 C   0  0  0  0  0  2  0  0  0  0  0  0
   44.0210   29.2810   39.1310 H   0  0  0  0  0  0  0  0  0  0  0  0
   43.4270   30.2820   36.8860 C   0  0  0  0  0  2  0  0  0  0  0  0
   43.6420   30.7640   35.9100 H   0  0  0  0  0  0  0  0  0  0  0  0
   48.1700   34.8530   41.0280 C   0  0  0  0  0  0  0  0  0  0  0  0
   47.5300   34.5980   40.1820 H   0  0  0  0  0  0  0  0  0  0  0  0
   48.6980   35.8010   40.7180 H   0  0  0  0  0  0  0  0  0  0  0  0
   49.2260   33.8560   41.2790 C   0  0  0  0  0  0  0  0  0  0  0  0
   49.2670   32.7580   40.4290 C   0  0  0  0  0  0  0  0  0  0  0  0
   50.2200   31.7720   40.5840 C   0  0  0  0  0  0  0  0  0  0  0  0
   51.1220   31.9460   41.6320 N   0  0  0  0  0  0  0  0  0  0  0  0
   51.0390   33.0410   42.4410 C   0  0  0  0  0  0  0  0  0  0  0  0
   50.1050   33.9680   42.2530 N   0  0  0  0  0  0  0  0  0  0  0  0
   50.2630   30.9240   39.9360 H   0  0  0  0  0  0  0  0  0  0  0  0
   51.7830   33.0650   43.2080 H   0  0  0  0  0  0  0  0  0  0  0  0
   48.0720   32.6070   39.1020 S   0  0  0  0  0  0  0  0  0  0  0  0
   48.9220   32.4880   37.5020 C   0  0  0  0  0  0  0  0  0  0  0  0
   48.6260   31.5010   37.0570 H   0  0  0  0  0  0  0  0  0  0  0  0
   50.0200   32.5180   37.6200 H   0  0  0  0  0  0  0  0  0  0  0  0
   48.4450   33.5920   36.6120 C   0  0  0  0  0  0  0  0  0  0  0  0
   47.3450   33.7480   36.7690 H   0  0  0  0  0  0  0  0  0  0  0  0
   48.9240   34.5740   36.8600 H   0  0  0  0  0  0  0  0  0  0  0  0
   48.6470   33.2170   35.2470 N   0  0  0  0  0  0  0  0  0  0  0  0
   48.6790   34.0370   34.6030 H   0  0  0  0  0  0  0  0  0  0  0  0
   49.6050   32.7820   35.1810 H   0  0  0  0  0  0  0  0  0  0  0  0
  1  3  1  0  0  0  0
  1  2  1  0  0  0  0
  4  1  1  0  0  0  0
  4  5  2  0  0  0  0
  5  9  1  0  0  0  0
  6  5  1  0  0  0  0
  7  8  2  0  0  0  0
  7  6  1  0  0  0  0
  8  4  1  0  0  0  0
 10  7  1  0  0  0  0
 12 11  2  6  0  0  0
 12 13  1  0  0  0  0
 12 10  1  0  0  0  0
 14 13  1  0  0  0  0
 15 16  1  0  0  0  0
 15 12  1  0  0  0  0
 16 17  1  0  0  0  0
 17 18  1  0  0  0  0
 17 19  1  0  0  0  0
 19 20  1  0  0  0  0
 21 17  1  0  0  0  0
 22 21  1  0  0  0  0
 23 26  1  0  0  0  0
 23  1  1  0  0  0  0
 24 23  1  0  0  0  0
 25 23  1  0  0  0  0
 26 31  1  0  0  0  0
 27 28  1  0  0  0  0
 27 26  2  0  0  0  0
 28 29  2  0  0  0  0
 29 30  1  0  0  0  0
 30 33  1  0  0  0  0
 31 30  2  0  0  0  0
 32 28  1  0  0  0  0
 34 27  1  0  0  0  0
 35 37  1  0  0  0  0
 35 34  1  0  0  0  0
 36 35  1  0  0  0  0
 38 39  1  0  0  0  0
 38 40  1  0  0  0  0
 38 35  1  0  0  0  0
 41 38  1  0  0  0  0
 42 41  1  0  0  0  0
 43 41  1  0  0  0  0
M  END
>  <minimizedAffinity>
-4.04640436

>  <minimizedRMSD>
1.54762399

$$$$
