
 OpenBabel03242516363D

 42 44  0  0  1  0  0  0  0  0999 V2000
   37.9180   32.0780   40.5620 C   0  0  2  0  0  0  0  0  0  0  0  0
   38.6560   31.5650   39.2960 C   0  0  1  0  0  0  0  0  0  0  0  0
   37.6120   31.5720   38.4190 O   0  0  0  0  0  0  0  0  0  0  0  0
   36.5980   30.8650   39.0950 C   0  0  0  0  0  0  0  0  0  0  0  0
   36.8990   30.9620   40.6050 C   0  0  1  0  0  0  0  0  0  0  0  0
   38.6020   32.1000   41.4140 H   0  0  0  0  0  0  0  0  0  0  0  0
   38.9510   30.5310   39.5490 H   0  0  0  0  0  0  0  0  0  0  0  0
   36.7030   29.8060   38.7960 H   0  0  0  0  0  0  0  0  0  0  0  0
   35.5870   31.2490   38.8740 H   0  0  0  0  0  0  0  0  0  0  0  0
   36.0130   31.2510   41.1940 H   0  0  0  0  0  0  0  0  0  0  0  0
   41.5930   33.4270   37.7570 C   0  0  0  0  0  0  0  0  0  0  0  0
   40.6000   32.4510   37.8480 C   0  0  0  0  0  0  0  0  0  0  0  0
   39.7790   32.4470   38.9550 C   0  0  0  0  0  0  0  0  0  0  0  0
   39.9970   33.4190   39.9060 N   0  0  0  0  0  0  0  0  0  0  0  0
   40.9620   34.3480   39.7910 C   0  0  0  0  0  0  0  0  0  0  0  0
   41.7610   34.3490   38.7080 N   0  0  0  0  0  0  0  0  0  0  0  0
   42.2070   33.3630   36.8450 H   0  0  0  0  0  0  0  0  0  0  0  0
   40.3700   31.6690   37.1570 H   0  0  0  0  0  0  0  0  0  0  0  0
   41.1100   35.0980   40.5500 H   0  0  0  0  0  0  0  0  0  0  0  0
   37.2290   33.2270   40.2920 O   0  0  0  0  0  0  0  0  0  0  0  0
   36.2660   33.1580   40.5080 H   0  0  0  0  0  0  0  0  0  0  0  0
   37.4790   29.7900   40.9870 O   0  0  0  0  0  0  0  0  0  0  0  0
   36.4220   28.1020   42.2450 C   0  0  1  0  0  0  0  0  0  0  0  0
   37.3070   29.4390   42.3250 C   0  0  1  0  0  0  0  0  0  0  0  0
   38.4380   28.8840   42.7910 O   0  0  0  0  0  0  0  0  0  0  0  0
   38.7020   27.9510   41.7480 C   0  0  0  0  0  0  0  0  0  0  0  0
   37.4690   27.1020   41.7730 C   0  0  1  0  0  0  0  0  0  0  0  0
   35.5920   28.2580   41.5840 H   0  0  0  0  0  0  0  0  0  0  0  0
   36.6250   30.0740   42.8910 H   0  0  0  0  0  0  0  0  0  0  0  0
   38.8000   28.4500   40.7640 H   0  0  0  0  0  0  0  0  0  0  0  0
   39.6180   27.3850   41.9790 H   0  0  0  0  0  0  0  0  0  0  0  0
   37.0890   26.7980   40.7720 H   0  0  0  0  0  0  0  0  0  0  0  0
   36.1210   27.7860   43.5680 O   0  0  0  0  0  0  0  0  0  0  0  0
   36.9390   27.9110   44.1080 H   0  0  0  0  0  0  0  0  0  0  0  0
   37.6040   26.0770   42.6770 O   0  0  0  0  0  0  0  0  0  0  0  0
   37.2790   24.8600   42.1560 C   0  0  0  0  0  2  0  0  0  0  0  0
   38.2900   23.8600   42.0980 N   0  0  0  0  0  4  0  0  0  0  0  0
   37.8780   22.9580   42.5280 H   0  0  0  0  0  0  0  0  0  0  0  0
   38.6970   23.4690   40.7570 C   0  0  0  0  0  2  0  0  0  0  0  0
   39.7180   23.8260   40.5430 H   0  0  0  0  0  0  0  0  0  0  0  0
   39.4570   24.2290   42.8690 C   0  0  0  0  0  2  0  0  0  0  0  0
   39.1790   24.9080   43.6880 H   0  0  0  0  0  0  0  0  0  0  0  0
  1  5  1  0  0  0  0
  1  6  1  1  0  0  0
  2  7  1  1  0  0  0
  2  1  1  0  0  0  0
  3  4  1  0  0  0  0
  3  2  1  0  0  0  0
  4  5  1  0  0  0  0
  5 22  1  0  0  0  0
  5 10  1  1  0  0  0
  8  4  1  0  0  0  0
  9  4  1  0  0  0  0
 11 12  2  0  0  0  0
 11 16  1  0  0  0  0
 12 13  1  0  0  0  0
 13  2  1  0  0  0  0
 13 14  2  0  0  0  0
 15 14  1  0  0  0  0
 15 19  1  0  0  0  0
 16 15  2  0  0  0  0
 17 11  1  0  0  0  0
 18 12  1  0  0  0  0
 20 21  1  0  0  0  0
 20  1  1  0  0  0  0
 22 24  1  0  0  0  0
 23 28  1  6  0  0  0
 23 24  1  0  0  0  0
 23 33  1  0  0  0  0
 24 25  1  0  0  0  0
 24 29  1  1  0  0  0
 26 27  1  0  0  0  0
 26 31  1  0  0  0  0
 26 25  1  0  0  0  0
 27 32  1  6  0  0  0
 27 23  1  0  0  0  0
 27 35  1  0  0  0  0
 30 26  1  0  0  0  0
 33 34  1  0  0  0  0
 36 35  1  0  0  0  0
 37 36  1  0  0  0  0
 37 38  1  0  0  0  0
 37 41  1  0  0  0  0
 39 37  1  0  0  0  0
 40 39  1  0  0  0  0
 41 42  1  0  0  0  0
M  END
>  <minimizedAffinity>
-5.82656431

$$$$

 OpenBabel03242516363D

 42 44  0  0  1  0  0  0  0  0999 V2000
   36.7190   28.1970   41.9240 C   0  0  2  0  0  0  0  0  0  0  0  0
   38.1610   27.6310   41.8060 C   0  0  1  0  0  0  0  0  0  0  0  0
   38.6740   28.0980   42.9800 O   0  0  0  0  0  0  0  0  0  0  0  0
   38.3490   29.4700   42.9690 C   0  0  0  0  0  0  0  0  0  0  0  0
   37.1350   29.6460   42.0340 C   0  0  1  0  0  0  0  0  0  0  0  0
   36.1460   27.9570   41.0260 H   0  0  0  0  0  0  0  0  0  0  0  0
   38.5970   28.1670   40.9450 H   0  0  0  0  0  0  0  0  0  0  0  0
   39.2100   29.9900   42.5090 H   0  0  0  0  0  0  0  0  0  0  0  0
   38.1280   29.8660   43.9750 H   0  0  0  0  0  0  0  0  0  0  0  0
   36.3380   30.2580   42.4880 H   0  0  0  0  0  0  0  0  0  0  0  0
   38.8000   23.8830   41.7630 C   0  0  0  0  0  0  0  0  0  0  0  0
   39.0880   25.2300   41.9890 C   0  0  0  0  0  0  0  0  0  0  0  0
   38.1370   26.1710   41.6590 C   0  0  0  0  0  0  0  0  0  0  0  0
   36.9530   25.7120   41.1240 N   0  0  0  0  0  0  0  0  0  0  0  0
   36.7040   24.4070   40.9180 C   0  0  0  0  0  0  0  0  0  0  0  0
   37.6350   23.4910   41.2420 N   0  0  0  0  0  0  0  0  0  0  0  0
   39.6090   23.1940   42.0510 H   0  0  0  0  0  0  0  0  0  0  0  0
   39.9750   25.6610   42.3970 H   0  0  0  0  0  0  0  0  0  0  0  0
   35.7680   24.0760   40.4980 H   0  0  0  0  0  0  0  0  0  0  0  0
   36.1610   27.8580   43.1250 O   0  0  0  0  0  0  0  0  0  0  0  0
   35.8540   28.6430   43.6420 H   0  0  0  0  0  0  0  0  0  0  0  0
   37.5980   30.1100   40.8390 O   0  0  0  0  0  0  0  0  0  0  0  0
   38.2380   32.3770   40.8760 C   0  0  1  0  0  0  0  0  0  0  0  0
   37.0910   31.3450   40.4340 C   0  0  1  0  0  0  0  0  0  0  0  0
   37.2320   31.4710   39.1030 O   0  0  0  0  0  0  0  0  0  0  0  0
   38.5950   31.0810   38.9630 C   0  0  0  0  0  0  0  0  0  0  0  0
   39.2960   32.0900   39.8190 C   0  0  1  0  0  0  0  0  0  0  0  0
   38.5250   32.1830   41.8920 H   0  0  0  0  0  0  0  0  0  0  0  0
   36.2620   31.7270   41.0290 H   0  0  0  0  0  0  0  0  0  0  0  0
   38.7730   30.0610   39.3550 H   0  0  0  0  0  0  0  0  0  0  0  0
   38.8900   31.1380   37.9040 H   0  0  0  0  0  0  0  0  0  0  0  0
   40.1430   31.6880   40.4180 H   0  0  0  0  0  0  0  0  0  0  0  0
   37.7150   33.6390   40.6020 O   0  0  0  0  0  0  0  0  0  0  0  0
   37.2730   33.6030   39.7190 H   0  0  0  0  0  0  0  0  0  0  0  0
   39.5810   33.2230   39.0980 O   0  0  0  0  0  0  0  0  0  0  0  0
   40.9180   33.4140   38.9120 C   0  0  0  0  0  2  0  0  0  0  0  0
   41.4080   33.4850   37.5780 N   0  0  0  0  0  4  0  0  0  0  0  0
   40.6350   33.9360   36.9710 H   0  0  0  0  0  0  0  0  0  0  0  0
   42.5650   34.3480   37.3890 C   0  0  0  0  0  2  0  0  0  0  0  0
   43.4640   33.7460   37.1730 H   0  0  0  0  0  0  0  0  0  0  0  0
   41.6910   32.1730   37.0380 C   0  0  0  0  0  2  0  0  0  0  0  0
   41.0580   31.4140   37.5190 H   0  0  0  0  0  0  0  0  0  0  0  0
  1  6  1  6  0  0  0
  1  5  1  0  0  0  0
  1 20  1  0  0  0  0
  2  7  1  6  0  0  0
  2  1  1  0  0  0  0
  2  3  1  0  0  0  0
  4  3  1  0  0  0  0
  4  9  1  0  0  0  0
  5 10  1  1  0  0  0
  5  4  1  0  0  0  0
  8  4  1  0  0  0  0
 11 12  1  0  0  0  0
 11 17  1  0  0  0  0
 12 18  1  0  0  0  0
 13  2  1  0  0  0  0
 13 12  2  0  0  0  0
 14 13  1  0  0  0  0
 15 14  2  0  0  0  0
 15 16  1  0  0  0  0
 16 11  2  0  0  0  0
 19 15  1  0  0  0  0
 20 21  1  0  0  0  0
 22  5  1  0  0  0  0
 23 28  1  1  0  0  0
 24 22  1  0  0  0  0
 24 23  1  0  0  0  0
 24 29  1  1  0  0  0
 25 24  1  0  0  0  0
 26 25  1  0  0  0  0
 26 30  1  0  0  0  0
 26 27  1  0  0  0  0
 27 32  1  1  0  0  0
 27 23  1  0  0  0  0
 31 26  1  0  0  0  0
 33 23  1  0  0  0  0
 34 33  1  0  0  0  0
 35 27  1  0  0  0  0
 36 35  1  0  0  0  0
 37 36  1  0  0  0  0
 38 37  1  0  0  0  0
 39 37  1  0  0  0  0
 40 39  1  0  0  0  0
 41 42  1  0  0  0  0
 41 37  1  0  0  0  0
M  END
>  <minimizedAffinity>
-5.63058376

$$$$

 OpenBabel03242516363D

 42 44  0  0  1  0  0  0  0  0999 V2000
   38.1710   25.8730   41.4880 C   0  0  2  0  0  0  0  0  0  0  0  0
   39.1460   26.9460   42.0470 C   0  0  1  0  0  0  0  0  0  0  0  0
   38.6020   27.1090   43.2870 O   0  0  0  0  0  0  0  0  0  0  0  0
   37.2330   27.3270   43.0290 C   0  0  0  0  0  0  0  0  0  0  0  0
   36.9210   26.7060   41.6520 C   0  0  1  0  0  0  0  0  0  0  0  0
   38.4260   25.6360   40.4530 H   0  0  0  0  0  0  0  0  0  0  0  0
   38.9650   27.8360   41.4180 H   0  0  0  0  0  0  0  0  0  0  0  0
   37.1030   28.4210   42.9460 H   0  0  0  0  0  0  0  0  0  0  0  0
   36.5770   26.9000   43.8070 H   0  0  0  0  0  0  0  0  0  0  0  0
   36.0180   26.0740   41.6700 H   0  0  0  0  0  0  0  0  0  0  0  0
   42.7170   25.9250   41.2340 C   0  0  0  0  0  0  0  0  0  0  0  0
   41.4390   26.4280   40.9850 C   0  0  0  0  0  0  0  0  0  0  0  0
   40.5290   26.4580   42.0190 C   0  0  0  0  0  0  0  0  0  0  0  0
   40.9500   25.9850   43.2430 N   0  0  0  0  0  0  0  0  0  0  0  0
   42.1880   25.5060   43.4540 C   0  0  0  0  0  0  0  0  0  0  0  0
   43.0740   25.4790   42.4410 N   0  0  0  0  0  0  0  0  0  0  0  0
   43.3850   25.9340   40.3580 H   0  0  0  0  0  0  0  0  0  0  0  0
   41.0420   26.8100   40.0700 H   0  0  0  0  0  0  0  0  0  0  0  0
   42.4900   25.1430   44.4220 H   0  0  0  0  0  0  0  0  0  0  0  0
   38.0570   24.8220   42.3540 O   0  0  0  0  0  0  0  0  0  0  0  0
   37.1220   24.6460   42.6250 H   0  0  0  0  0  0  0  0  0  0  0  0
   36.8890   27.7180   40.7410 O   0  0  0  0  0  0  0  0  0  0  0  0
   36.6330   30.0190   41.1770 C   0  0  1  0  0  0  0  0  0  0  0  0
   35.8560   28.6420   40.9000 C   0  0  1  0  0  0  0  0  0  0  0  0
   35.3470   28.9560   39.6970 O   0  0  0  0  0  0  0  0  0  0  0  0
   36.5510   29.2170   38.9820 C   0  0  0  0  0  0  0  0  0  0  0  0
   37.1470   30.3360   39.7790 C   0  0  1  0  0  0  0  0  0  0  0  0
   37.3830   29.8650   41.9280 H   0  0  0  0  0  0  0  0  0  0  0  0
   35.2950   28.5590   41.8310 H   0  0  0  0  0  0  0  0  0  0  0  0
   37.2300   28.3430   38.9850 H   0  0  0  0  0  0  0  0  0  0  0  0
   36.3120   29.5090   37.9470 H   0  0  0  0  0  0  0  0  0  0  0  0
   38.2520   30.2850   39.9030 H   0  0  0  0  0  0  0  0  0  0  0  0
   35.6350   30.9470   41.4660 O   0  0  0  0  0  0  0  0  0  0  0  0
   34.8970   30.8140   40.8240 H   0  0  0  0  0  0  0  0  0  0  0  0
   36.6680   31.5480   39.3480 O   0  0  0  0  0  0  0  0  0  0  0  0
   37.4690   32.1390   38.4170 C   0  0  0  0  0  2  0  0  0  0  0  0
   38.3610   33.1610   38.8470 N   0  0  0  0  0  4  0  0  0  0  0  0
   38.4160   33.8970   38.0560 H   0  0  0  0  0  0  0  0  0  0  0  0
   37.9220   33.9150   40.0120 C   0  0  0  0  0  2  0  0  0  0  0  0
   38.5500   33.6720   40.8870 H   0  0  0  0  0  0  0  0  0  0  0  0
   39.6950   32.6510   39.0750 C   0  0  0  0  0  2  0  0  0  0  0  0
   39.8820   31.7670   38.4490 H   0  0  0  0  0  0  0  0  0  0  0  0
  1  6  1  6  0  0  0
  1  5  1  0  0  0  0
  1  2  1  0  0  0  0
  1 20  1  0  0  0  0
  2  7  1  6  0  0  0
  2  3  1  0  0  0  0
  4  3  1  0  0  0  0
  4  9  1  0  0  0  0
  5 10  1  1  0  0  0
  5  4  1  0  0  0  0
  8  4  1  0  0  0  0
 11 16  1  0  0  0  0
 12 11  2  0  0  0  0
 12 13  1  0  0  0  0
 13  2  1  0  0  0  0
 13 14  2  0  0  0  0
 14 15  1  0  0  0  0
 15 19  1  0  0  0  0
 16 15  2  0  0  0  0
 17 11  1  0  0  0  0
 18 12  1  0  0  0  0
 20 21  1  0  0  0  0
 22 24  1  0  0  0  0
 22  5  1  0  0  0  0
 23 33  1  0  0  0  0
 23 28  1  1  0  0  0
 24 23  1  0  0  0  0
 24 29  1  1  0  0  0
 25 24  1  0  0  0  0
 26 30  1  0  0  0  0
 26 25  1  0  0  0  0
 26 27  1  0  0  0  0
 27 32  1  6  0  0  0
 27 23  1  0  0  0  0
 31 26  1  0  0  0  0
 34 33  1  0  0  0  0
 35 27  1  0  0  0  0
 36 37  1  0  0  0  0
 36 35  1  0  0  0  0
 37 41  1  0  0  0  0
 37 39  1  0  0  0  0
 38 37  1  0  0  0  0
 39 40  1  0  0  0  0
 42 41  1  0  0  0  0
M  END
>  <minimizedAffinity>
-5.12171268

$$$$

 OpenBabel03242516363D

 42 44  0  0  1  0  0  0  0  0999 V2000
   36.6320   30.1530   41.3210 C   0  0  2  0  0  0  0  0  0  0  0  0
   37.4030   30.4710   40.0110 C   0  0  1  0  0  0  0  0  0  0  0  0
   36.3590   30.4480   39.1340 O   0  0  0  0  0  0  0  0  0  0  0  0
   35.7160   29.2250   39.4070 C   0  0  0  0  0  0  0  0  0  0  0  0
   36.0790   28.8270   40.8520 C   0  0  1  0  0  0  0  0  0  0  0  0
   37.3280   30.0830   42.1600 H   0  0  0  0  0  0  0  0  0  0  0  0
   38.0630   29.5980   39.8610 H   0  0  0  0  0  0  0  0  0  0  0  0
   36.1650   28.4780   38.7260 H   0  0  0  0  0  0  0  0  0  0  0  0
   34.6210   29.2790   39.2810 H   0  0  0  0  0  0  0  0  0  0  0  0
   35.1970   28.5290   41.4420 H   0  0  0  0  0  0  0  0  0  0  0  0
   39.8530   33.3420   40.4810 C   0  0  0  0  0  0  0  0  0  0  0  0
   39.4170   32.0150   40.4770 C   0  0  0  0  0  0  0  0  0  0  0  0
   38.1120   31.7520   40.1220 C   0  0  0  0  0  0  0  0  0  0  0  0
   37.3190   32.8280   39.7900 N   0  0  0  0  0  0  0  0  0  0  0  0
   37.7670   34.0950   39.8030 C   0  0  0  0  0  0  0  0  0  0  0  0
   39.0420   34.3480   40.1500 N   0  0  0  0  0  0  0  0  0  0  0  0
   40.9070   33.4700   40.7760 H   0  0  0  0  0  0  0  0  0  0  0  0
   39.9680   31.1330   40.7200 H   0  0  0  0  0  0  0  0  0  0  0  0
   37.1240   34.9190   39.5380 H   0  0  0  0  0  0  0  0  0  0  0  0
   35.5630   30.9910   41.4720 O   0  0  0  0  0  0  0  0  0  0  0  0
   34.7060   30.5080   41.5740 H   0  0  0  0  0  0  0  0  0  0  0  0
   37.0640   27.8870   40.7860 O   0  0  0  0  0  0  0  0  0  0  0  0
   37.7320   25.6760   41.2530 C   0  0  1  0  0  0  0  0  0  0  0  0
   37.1600   27.0360   41.8870 C   0  0  1  0  0  0  0  0  0  0  0  0
   38.2390   27.3680   42.6160 O   0  0  0  0  0  0  0  0  0  0  0  0
   39.2160   27.4530   41.5830 C   0  0  0  0  0  0  0  0  0  0  0  0
   39.1830   26.0700   41.0100 C   0  0  1  0  0  0  0  0  0  0  0  0
   37.1640   25.4190   40.3800 H   0  0  0  0  0  0  0  0  0  0  0  0
   36.2120   26.6690   42.2790 H   0  0  0  0  0  0  0  0  0  0  0  0
   38.9330   28.1920   40.8090 H   0  0  0  0  0  0  0  0  0  0  0  0
   40.1940   27.7140   42.0170 H   0  0  0  0  0  0  0  0  0  0  0  0
   39.2730   26.0200   39.9020 H   0  0  0  0  0  0  0  0  0  0  0  0
   37.7260   24.7570   42.3000 O   0  0  0  0  0  0  0  0  0  0  0  0
   38.0660   25.2100   43.1080 H   0  0  0  0  0  0  0  0  0  0  0  0
   40.0330   25.2400   41.6990 O   0  0  0  0  0  0  0  0  0  0  0  0
   41.2100   25.0220   41.0470 C   0  0  0  0  0  2  0  0  0  0  0  0
   42.4230   25.1980   41.7700 N   0  0  0  0  0  4  0  0  0  0  0  0
   43.0320   24.3220   41.6000 H   0  0  0  0  0  0  0  0  0  0  0  0
   43.2530   26.3080   41.3240 C   0  0  0  0  0  2  0  0  0  0  0  0
   43.2530   27.1150   42.0760 H   0  0  0  0  0  0  0  0  0  0  0  0
   42.1900   25.3100   43.1930 C   0  0  0  0  0  2  0  0  0  0  0  0
   41.2680   24.7810   43.4760 H   0  0  0  0  0  0  0  0  0  0  0  0
  1 20  1  0  0  0  0
  1  6  1  1  0  0  0
  2  7  1  6  0  0  0
  2 13  1  0  0  0  0
  2  1  1  0  0  0  0
  3  4  1  0  0  0  0
  3  2  1  0  0  0  0
  4  5  1  0  0  0  0
  5  1  1  0  0  0  0
  5 10  1  1  0  0  0
  8  4  1  0  0  0  0
  9  4  1  0  0  0  0
 11 17  1  0  0  0  0
 12 11  1  0  0  0  0
 12 18  1  0  0  0  0
 13 12  2  0  0  0  0
 14 15  2  0  0  0  0
 14 13  1  0  0  0  0
 15 16  1  0  0  0  0
 16 11  2  0  0  0  0
 19 15  1  0  0  0  0
 20 21  1  0  0  0  0
 22  5  1  0  0  0  0
 22 24  1  0  0  0  0
 23 28  1  6  0  0  0
 23 24  1  0  0  0  0
 23 33  1  0  0  0  0
 24 29  1  1  0  0  0
 24 25  1  0  0  0  0
 26 31  1  0  0  0  0
 26 25  1  0  0  0  0
 27 32  1  6  0  0  0
 27 23  1  0  0  0  0
 27 26  1  0  0  0  0
 27 35  1  0  0  0  0
 30 26  1  0  0  0  0
 33 34  1  0  0  0  0
 36 35  1  0  0  0  0
 36 37  1  0  0  0  0
 37 41  1  0  0  0  0
 38 37  1  0  0  0  0
 39 37  1  0  0  0  0
 39 40  1  0  0  0  0
 41 42  1  0  0  0  0
M  END
>  <minimizedAffinity>
-5.10887861

$$$$

 OpenBabel03242516363D

 42 44  0  0  1  0  0  0  0  0999 V2000
   38.2060   31.7990   39.5480 C   0  0  2  0  0  0  0  0  0  0  0  0
   38.8840   31.3590   40.8750 C   0  0  1  0  0  0  0  0  0  0  0  0
   38.7970   32.5340   41.5620 O   0  0  0  0  0  0  0  0  0  0  0  0
   39.3270   33.4870   40.6700 C   0  0  0  0  0  0  0  0  0  0  0  0
   39.1780   32.9160   39.2450 C   0  0  1  0  0  0  0  0  0  0  0  0
   38.2190   30.9780   38.8280 H   0  0  0  0  0  0  0  0  0  0  0  0
   39.9300   31.1450   40.5910 H   0  0  0  0  0  0  0  0  0  0  0  0
   40.4070   33.5580   40.8960 H   0  0  0  0  0  0  0  0  0  0  0  0
   38.8320   34.4700   40.7490 H   0  0  0  0  0  0  0  0  0  0  0  0
   38.7430   33.6450   38.5410 H   0  0  0  0  0  0  0  0  0  0  0  0
   37.5940   28.4580   42.9680 C   0  0  0  0  0  0  0  0  0  0  0  0
   38.4570   29.4950   42.6070 C   0  0  0  0  0  0  0  0  0  0  0  0
   38.1750   30.2200   41.4690 C   0  0  0  0  0  0  0  0  0  0  0  0
   37.0470   29.8690   40.7600 N   0  0  0  0  0  0  0  0  0  0  0  0
   36.2350   28.8650   41.1330 C   0  0  0  0  0  0  0  0  0  0  0  0
   36.5130   28.1600   42.2450 N   0  0  0  0  0  0  0  0  0  0  0  0
   37.8880   27.9270   43.8870 H   0  0  0  0  0  0  0  0  0  0  0  0
   39.3440   29.8250   43.1010 H   0  0  0  0  0  0  0  0  0  0  0  0
   35.3580   28.6120   40.5600 H   0  0  0  0  0  0  0  0  0  0  0  0
   36.9970   32.3880   39.7920 O   0  0  0  0  0  0  0  0  0  0  0  0
   36.9290   33.2990   39.4140 H   0  0  0  0  0  0  0  0  0  0  0  0
   40.3890   32.4170   38.8710 O   0  0  0  0  0  0  0  0  0  0  0  0
   42.1120   33.6480   37.8380 C   0  0  1  0  0  0  0  0  0  0  0  0
   40.8080   32.7480   37.5830 C   0  0  1  0  0  0  0  0  0  0  0  0
   41.4200   31.6900   37.0250 O   0  0  0  0  0  0  0  0  0  0  0  0
   42.3020   31.3300   38.0840 C   0  0  0  0  0  0  0  0  0  0  0  0
   43.1150   32.5770   38.2470 C   0  0  1  0  0  0  0  0  0  0  0  0
   41.8950   34.3940   38.5790 H   0  0  0  0  0  0  0  0  0  0  0  0
   40.1840   33.4740   37.0620 H   0  0  0  0  0  0  0  0  0  0  0  0
   41.7530   31.1100   39.0200 H   0  0  0  0  0  0  0  0  0  0  0  0
   42.9070   30.4600   37.7850 H   0  0  0  0  0  0  0  0  0  0  0  0
   43.3520   32.8480   39.3000 H   0  0  0  0  0  0  0  0  0  0  0  0
   42.4900   34.1050   36.5780 O   0  0  0  0  0  0  0  0  0  0  0  0
   42.4180   33.3510   35.9440 H   0  0  0  0  0  0  0  0  0  0  0  0
   44.1900   32.5700   37.3940 O   0  0  0  0  0  0  0  0  0  0  0  0
   45.3160   32.0500   37.9600 C   0  0  0  0  0  2  0  0  0  0  0  0
   45.9490   30.9500   37.3150 N   0  0  0  0  0  4  0  0  0  0  0  0
   46.9820   30.9390   37.6320 H   0  0  0  0  0  0  0  0  0  0  0  0
   45.4420   29.6380   37.6900 C   0  0  0  0  0  2  0  0  0  0  0  0
   44.8860   29.1860   36.8520 H   0  0  0  0  0  0  0  0  0  0  0  0
   45.9250   31.0840   35.8750 C   0  0  0  0  0  2  0  0  0  0  0  0
   45.8830   32.1450   35.5870 H   0  0  0  0  0  0  0  0  0  0  0  0
  1  6  1  6  0  0  0
  1 20  1  0  0  0  0
  1  2  1  0  0  0  0
  2  7  1  6  0  0  0
  2 13  1  0  0  0  0
  2  3  1  0  0  0  0
  4  9  1  0  0  0  0
  4  8  1  0  0  0  0
  4  3  1  0  0  0  0
  5 10  1  6  0  0  0
  5  1  1  0  0  0  0
  5  4  1  0  0  0  0
 11 17  1  0  0  0  0
 12 11  1  0  0  0  0
 12 18  1  0  0  0  0
 13 12  2  0  0  0  0
 14 15  2  0  0  0  0
 14 13  1  0  0  0  0
 15 16  1  0  0  0  0
 16 11  2  0  0  0  0
 19 15  1  0  0  0  0
 21 20  1  0  0  0  0
 22  5  1  0  0  0  0
 23 27  1  0  0  0  0
 23 28  1  1  0  0  0
 24 29  1  6  0  0  0
 24 23  1  0  0  0  0
 24 22  1  0  0  0  0
 25 24  1  0  0  0  0
 25 26  1  0  0  0  0
 26 27  1  0  0  0  0
 26 30  1  0  0  0  0
 27 32  1  1  0  0  0
 31 26  1  0  0  0  0
 33 23  1  0  0  0  0
 34 33  1  0  0  0  0
 35 36  1  0  0  0  0
 35 27  1  0  0  0  0
 37 38  1  0  0  0  0
 37 39  1  0  0  0  0
 37 36  1  0  0  0  0
 40 39  1  0  0  0  0
 41 37  1  0  0  0  0
 42 41  1  0  0  0  0
M  END
>  <minimizedAffinity>
-4.98375177

$$$$

 OpenBabel03242516363D

 42 44  0  0  1  0  0  0  0  0999 V2000
   37.0750   27.7930   39.4720 C   0  0  2  0  0  0  0  0  0  0  0  0
   37.2970   27.9430   41.0020 C   0  0  1  0  0  0  0  0  0  0  0  0
   36.0060   28.1460   41.3900 O   0  0  0  0  0  0  0  0  0  0  0  0
   35.5570   29.1780   40.5420 C   0  0  0  0  0  0  0  0  0  0  0  0
   36.4420   29.1520   39.2780 C   0  0  1  0  0  0  0  0  0  0  0  0
   38.0330   27.6630   38.9630 H   0  0  0  0  0  0  0  0  0  0  0  0
   37.8900   28.8700   41.1040 H   0  0  0  0  0  0  0  0  0  0  0  0
   35.7540   30.1260   41.0740 H   0  0  0  0  0  0  0  0  0  0  0  0
   34.4910   29.0790   40.2730 H   0  0  0  0  0  0  0  0  0  0  0  0
   35.8500   29.1890   38.3490 H   0  0  0  0  0  0  0  0  0  0  0  0
   39.5930   25.3190   42.5220 C   0  0  0  0  0  0  0  0  0  0  0  0
   39.2310   26.5720   42.0210 C   0  0  0  0  0  0  0  0  0  0  0  0
   37.9470   26.7480   41.5530 C   0  0  0  0  0  0  0  0  0  0  0  0
   37.0990   25.6640   41.6130 N   0  0  0  0  0  0  0  0  0  0  0  0
   37.4760   24.4690   42.1010 C   0  0  0  0  0  0  0  0  0  0  0  0
   38.7300   24.3010   42.5580 N   0  0  0  0  0  0  0  0  0  0  0  0
   40.6340   25.2590   42.8760 H   0  0  0  0  0  0  0  0  0  0  0  0
   39.8270   27.4540   41.9420 H   0  0  0  0  0  0  0  0  0  0  0  0
   36.7910   23.6380   42.1370 H   0  0  0  0  0  0  0  0  0  0  0  0
   36.1040   26.8680   39.2100 O   0  0  0  0  0  0  0  0  0  0  0  0
   35.3640   27.2300   38.6620 H   0  0  0  0  0  0  0  0  0  0  0  0
   37.3690   30.1420   39.4030 O   0  0  0  0  0  0  0  0  0  0  0  0
   37.6150   32.3020   40.3110 C   0  0  1  0  0  0  0  0  0  0  0  0
   36.9080   31.4350   39.1590 C   0  0  1  0  0  0  0  0  0  0  0  0
   37.5640   31.9540   38.1080 O   0  0  0  0  0  0  0  0  0  0  0  0
   38.9040   31.6390   38.4750 C   0  0  0  0  0  0  0  0  0  0  0  0
   39.0430   32.3550   39.7830 C   0  0  1  0  0  0  0  0  0  0  0  0
   37.4840   31.8170   41.2590 H   0  0  0  0  0  0  0  0  0  0  0  0
   35.8630   31.6140   39.4130 H   0  0  0  0  0  0  0  0  0  0  0  0
   39.0460   30.5500   38.6210 H   0  0  0  0  0  0  0  0  0  0  0  0
   39.5970   32.0120   37.7060 H   0  0  0  0  0  0  0  0  0  0  0  0
   39.6160   31.8030   40.5600 H   0  0  0  0  0  0  0  0  0  0  0  0
   37.0820   33.5820   40.1800 O   0  0  0  0  0  0  0  0  0  0  0  0
   37.0520   33.8060   39.2190 H   0  0  0  0  0  0  0  0  0  0  0  0
   39.4390   33.6540   39.5840 O   0  0  0  0  0  0  0  0  0  0  0  0
   40.7610   33.7670   39.2700 C   0  0  0  0  0  2  0  0  0  0  0  0
   41.7180   33.2490   40.1880 N   0  0  0  0  0  4  0  0  0  0  0  0
   41.1890   32.6080   40.8800 H   0  0  0  0  0  0  0  0  0  0  0  0
   42.7340   32.3880   39.6010 C   0  0  0  0  0  2  0  0  0  0  0  0
   43.7160   32.8900   39.6090 H   0  0  0  0  0  0  0  0  0  0  0  0
   42.3560   34.2990   40.9500 C   0  0  0  0  0  2  0  0  0  0  0  0
   41.6910   35.1700   41.0390 H   0  0  0  0  0  0  0  0  0  0  0  0
  1  6  1  6  0  0  0
  1  2  1  0  0  0  0
  2  7  1  1  0  0  0
  2  3  1  0  0  0  0
  2 13  1  0  0  0  0
  4  8  1  0  0  0  0
  4  3  1  0  0  0  0
  5 10  1  6  0  0  0
  5 22  1  0  0  0  0
  5  1  1  0  0  0  0
  5  4  1  0  0  0  0
  9  4  1  0  0  0  0
 11 16  1  0  0  0  0
 11 17  1  0  0  0  0
 12 11  2  0  0  0  0
 13 14  2  0  0  0  0
 13 12  1  0  0  0  0
 14 15  1  0  0  0  0
 15 19  1  0  0  0  0
 15 16  2  0  0  0  0
 18 12  1  0  0  0  0
 20  1  1  0  0  0  0
 21 20  1  0  0  0  0
 23 28  1  1  0  0  0
 24 22  1  0  0  0  0
 24 29  1  6  0  0  0
 24 23  1  0  0  0  0
 25 26  1  0  0  0  0
 25 24  1  0  0  0  0
 26 30  1  0  0  0  0
 26 27  1  0  0  0  0
 27 23  1  0  0  0  0
 27 32  1  1  0  0  0
 31 26  1  0  0  0  0
 33 23  1  0  0  0  0
 34 33  1  0  0  0  0
 35 27  1  0  0  0  0
 36 35  1  0  0  0  0
 36 37  1  0  0  0  0
 37 38  1  0  0  0  0
 37 41  1  0  0  0  0
 39 40  1  0  0  0  0
 39 37  1  0  0  0  0
 41 42  1  0  0  0  0
M  END
>  <minimizedAffinity>
-4.98010874

$$$$

 OpenBabel03242516363D

 42 44  0  0  1  0  0  0  0  0999 V2000
   36.4540   28.8290   39.9250 C   0  0  2  0  0  0  0  0  0  0  0  0
   37.4560   28.1960   40.9290 C   0  0  1  0  0  0  0  0  0  0  0  0
   37.1920   28.9730   42.0180 O   0  0  0  0  0  0  0  0  0  0  0  0
   37.2790   30.2890   41.5230 C   0  0  0  0  0  0  0  0  0  0  0  0
   37.0250   30.2260   40.0020 C   0  0  1  0  0  0  0  0  0  0  0  0
   36.5500   28.3540   38.9460 H   0  0  0  0  0  0  0  0  0  0  0  0
   38.4500   28.4310   40.5100 H   0  0  0  0  0  0  0  0  0  0  0  0
   38.3240   30.6120   41.6790 H   0  0  0  0  0  0  0  0  0  0  0  0
   36.5660   30.9780   42.0080 H   0  0  0  0  0  0  0  0  0  0  0  0
   36.2930   30.9780   39.6650 H   0  0  0  0  0  0  0  0  0  0  0  0
   36.9750   24.6080   42.0940 C   0  0  0  0  0  0  0  0  0  0  0  0
   37.3180   25.9570   42.2040 C   0  0  0  0  0  0  0  0  0  0  0  0
   37.1930   26.7610   41.0920 C   0  0  0  0  0  0  0  0  0  0  0  0
   36.7310   26.1720   39.9350 N   0  0  0  0  0  0  0  0  0  0  0  0
   36.4080   24.8700   39.8600 C   0  0  0  0  0  0  0  0  0  0  0  0
   36.5310   24.0880   40.9480 N   0  0  0  0  0  0  0  0  0  0  0  0
   37.1030   24.0330   43.0240 H   0  0  0  0  0  0  0  0  0  0  0  0
   37.6810   26.4830   43.0590 H   0  0  0  0  0  0  0  0  0  0  0  0
   36.0480   24.4350   38.9410 H   0  0  0  0  0  0  0  0  0  0  0  0
   35.1990   28.8890   40.4630 O   0  0  0  0  0  0  0  0  0  0  0  0
   34.8260   29.8050   40.4680 H   0  0  0  0  0  0  0  0  0  0  0  0
   38.2350   30.2910   39.3790 O   0  0  0  0  0  0  0  0  0  0  0  0
   39.0730   31.8760   37.8510 C   0  0  1  0  0  0  0  0  0  0  0  0
   38.1960   30.5410   38.0080 C   0  0  1  0  0  0  0  0  0  0  0  0
   39.0290   29.6980   37.3740 O   0  0  0  0  0  0  0  0  0  0  0  0
   40.1920   29.8500   38.1820 C   0  0  0  0  0  0  0  0  0  0  0  0
   40.4750   31.3140   38.0440 C   0  0  1  0  0  0  0  0  0  0  0  0
   38.7560   32.6030   38.5740 H   0  0  0  0  0  0  0  0  0  0  0  0
   37.2420   30.9050   37.6270 H   0  0  0  0  0  0  0  0  0  0  0  0
   39.9940   29.5990   39.2420 H   0  0  0  0  0  0  0  0  0  0  0  0
   41.0030   29.2170   37.7870 H   0  0  0  0  0  0  0  0  0  0  0  0
   40.8170   31.8140   38.9780 H   0  0  0  0  0  0  0  0  0  0  0  0
   38.9550   32.2330   36.5100 O   0  0  0  0  0  0  0  0  0  0  0  0
   39.0410   31.4130   35.9660 H   0  0  0  0  0  0  0  0  0  0  0  0
   41.2520   31.5560   36.9390 O   0  0  0  0  0  0  0  0  0  0  0  0
   42.5490   31.8380   37.2490 C   0  0  0  0  0  2  0  0  0  0  0  0
   43.5500   30.8970   36.8760 N   0  0  0  0  0  4  0  0  0  0  0  0
   43.5990   30.1490   37.6560 H   0  0  0  0  0  0  0  0  0  0  0  0
   43.2680   30.1400   35.6660 C   0  0  0  0  0  2  0  0  0  0  0  0
   43.9420   30.4510   34.8500 H   0  0  0  0  0  0  0  0  0  0  0  0
   44.8540   31.5140   36.7680 C   0  0  0  0  0  2  0  0  0  0  0  0
   44.9200   32.3950   37.4220 H   0  0  0  0  0  0  0  0  0  0  0  0
  1  6  1  6  0  0  0
  1  5  1  0  0  0  0
  1 20  1  0  0  0  0
  1  2  1  0  0  0  0
  2  7  1  6  0  0  0
  2 13  1  0  0  0  0
  2  3  1  0  0  0  0
  4  8  1  0  0  0  0
  4  9  1  0  0  0  0
  4  3  1  0  0  0  0
  5 10  1  6  0  0  0
  5  4  1  0  0  0  0
 11 12  1  0  0  0  0
 11 17  1  0  0  0  0
 12 18  1  0  0  0  0
 13 12  2  0  0  0  0
 14 13  1  0  0  0  0
 15 14  2  0  0  0  0
 15 16  1  0  0  0  0
 16 11  2  0  0  0  0
 19 15  1  0  0  0  0
 20 21  1  0  0  0  0
 22  5  1  0  0  0  0
 23 24  1  0  0  0  0
 23 27  1  0  0  0  0
 23 28  1  1  0  0  0
 24 29  1  6  0  0  0
 24 22  1  0  0  0  0
 25 24  1  0  0  0  0
 25 26  1  0  0  0  0
 26 30  1  0  0  0  0
 27 26  1  0  0  0  0
 27 32  1  1  0  0  0
 31 26  1  0  0  0  0
 33 23  1  0  0  0  0
 34 33  1  0  0  0  0
 35 36  1  0  0  0  0
 35 27  1  0  0  0  0
 37 36  1  0  0  0  0
 37 38  1  0  0  0  0
 39 37  1  0  0  0  0
 40 39  1  0  0  0  0
 41 37  1  0  0  0  0
 41 42  1  0  0  0  0
M  END
>  <minimizedAffinity>
-4.96224642

$$$$

 OpenBabel03242516363D

 42 44  0  0  1  0  0  0  0  0999 V2000
   36.2320   29.4770   40.3950 C   0  0  2  0  0  0  0  0  0  0  0  0
   37.2890   28.3540   40.5790 C   0  0  1  0  0  0  0  0  0  0  0  0
   37.2740   28.2610   41.9390 O   0  0  0  0  0  0  0  0  0  0  0  0
   37.4390   29.5930   42.3700 C   0  0  0  0  0  0  0  0  0  0  0  0
   36.9650   30.5090   41.2220 C   0  0  1  0  0  0  0  0  0  0  0  0
   36.1330   29.7320   39.3380 H   0  0  0  0  0  0  0  0  0  0  0  0
   38.2340   28.8030   40.2250 H   0  0  0  0  0  0  0  0  0  0  0  0
   38.5260   29.7450   42.4990 H   0  0  0  0  0  0  0  0  0  0  0  0
   36.8860   29.8140   43.2990 H   0  0  0  0  0  0  0  0  0  0  0  0
   36.2830   31.3020   41.5700 H   0  0  0  0  0  0  0  0  0  0  0  0
   36.6550   24.8430   39.2600 C   0  0  0  0  0  0  0  0  0  0  0  0
   37.1910   25.8200   40.1020 C   0  0  0  0  0  0  0  0  0  0  0  0
   36.8900   27.1410   39.8540 C   0  0  0  0  0  0  0  0  0  0  0  0
   36.0710   27.4110   38.7800 N   0  0  0  0  0  0  0  0  0  0  0  0
   35.5690   26.4490   37.9850 C   0  0  0  0  0  0  0  0  0  0  0  0
   35.8650   25.1600   38.2310 N   0  0  0  0  0  0  0  0  0  0  0  0
   36.9420   23.8130   39.5230 H   0  0  0  0  0  0  0  0  0  0  0  0
   37.8280   25.6900   40.9490 H   0  0  0  0  0  0  0  0  0  0  0  0
   34.9300   26.6890   37.1510 H   0  0  0  0  0  0  0  0  0  0  0  0
   35.0830   29.1790   41.0710 O   0  0  0  0  0  0  0  0  0  0  0  0
   34.8210   29.8820   41.7160 H   0  0  0  0  0  0  0  0  0  0  0  0
   38.0730   30.9580   40.5680 O   0  0  0  0  0  0  0  0  0  0  0  0
   38.4410   33.2750   40.3530 C   0  0  1  0  0  0  0  0  0  0  0  0
   37.8530   31.9670   39.6310 C   0  0  1  0  0  0  0  0  0  0  0  0
   38.7660   31.8720   38.6490 O   0  0  0  0  0  0  0  0  0  0  0  0
   39.9520   31.7480   39.4280 C   0  0  0  0  0  0  0  0  0  0  0  0
   39.9370   33.0190   40.2190 C   0  0  1  0  0  0  0  0  0  0  0  0
   38.0630   33.3340   41.3550 H   0  0  0  0  0  0  0  0  0  0  0  0
   36.8150   32.2760   39.5120 H   0  0  0  0  0  0  0  0  0  0  0  0
   39.9090   30.8760   40.1080 H   0  0  0  0  0  0  0  0  0  0  0  0
   40.8260   31.6680   38.7630 H   0  0  0  0  0  0  0  0  0  0  0  0
   40.2670   32.9160   41.2770 H   0  0  0  0  0  0  0  0  0  0  0  0
   38.1280   34.3310   39.5000 O   0  0  0  0  0  0  0  0  0  0  0  0
   38.3150   34.0440   38.5740 H   0  0  0  0  0  0  0  0  0  0  0  0
   40.5420   34.0330   39.5200 O   0  0  0  0  0  0  0  0  0  0  0  0
   41.7790   34.3470   39.9990 C   0  0  0  0  0  2  0  0  0  0  0  0
   42.8870   34.2630   39.1090 N   0  0  0  0  0  4  0  0  0  0  0  0
   43.5340   35.1030   39.3170 H   0  0  0  0  0  0  0  0  0  0  0  0
   43.7390   33.0970   39.2920 C   0  0  0  0  0  2  0  0  0  0  0  0
   43.6260   32.4000   38.4440 H   0  0  0  0  0  0  0  0  0  0  0  0
   42.4740   34.3480   37.7260 C   0  0  0  0  0  2  0  0  0  0  0  0
   41.5380   34.9170   37.6370 H   0  0  0  0  0  0  0  0  0  0  0  0
  1  6  1  6  0  0  0
  1  2  1  0  0  0  0
  1 20  1  0  0  0  0
  1  5  1  0  0  0  0
  2  7  1  6  0  0  0
  2  3  1  0  0  0  0
  3  4  1  0  0  0  0
  4  8  1  0  0  0  0
  4  9  1  0  0  0  0
  5 10  1  1  0  0  0
  5  4  1  0  0  0  0
 11 17  1  0  0  0  0
 11 12  1  0  0  0  0
 12 18  1  0  0  0  0
 13 12  2  0  0  0  0
 13  2  1  0  0  0  0
 14 13  1  0  0  0  0
 15 16  1  0  0  0  0
 15 14  2  0  0  0  0
 16 11  2  0  0  0  0
 19 15  1  0  0  0  0
 20 21  1  0  0  0  0
 22  5  1  0  0  0  0
 23 28  1  1  0  0  0
 24 29  1  6  0  0  0
 24 23  1  0  0  0  0
 24 22  1  0  0  0  0
 25 26  1  0  0  0  0
 25 24  1  0  0  0  0
 26 30  1  0  0  0  0
 26 27  1  0  0  0  0
 27 23  1  0  0  0  0
 27 32  1  1  0  0  0
 31 26  1  0  0  0  0
 33 23  1  0  0  0  0
 34 33  1  0  0  0  0
 35 36  1  0  0  0  0
 35 27  1  0  0  0  0
 37 39  1  0  0  0  0
 37 38  1  0  0  0  0
 37 36  1  0  0  0  0
 40 39  1  0  0  0  0
 41 37  1  0  0  0  0
 42 41  1  0  0  0  0
M  END
>  <minimizedAffinity>
-4.90610027

$$$$

 OpenBabel03242516363D

 42 44  0  0  1  0  0  0  0  0999 V2000
   37.3100   28.5420   39.8160 C   0  0  2  0  0  0  0  0  0  0  0  0
   37.9760   28.3610   41.2070 C   0  0  1  0  0  0  0  0  0  0  0  0
   37.0330   28.9700   41.9810 O   0  0  0  0  0  0  0  0  0  0  0  0
   36.8280   30.2120   41.3480 C   0  0  0  0  0  0  0  0  0  0  0  0
   37.2510   30.0510   39.8730 C   0  0  1  0  0  0  0  0  0  0  0  0
   37.9580   28.1430   39.0330 H   0  0  0  0  0  0  0  0  0  0  0  0
   38.8960   28.9700   41.1530 H   0  0  0  0  0  0  0  0  0  0  0  0
   37.5260   30.9240   41.8260 H   0  0  0  0  0  0  0  0  0  0  0  0
   35.7840   30.5610   41.4180 H   0  0  0  0  0  0  0  0  0  0  0  0
   36.4990   30.4500   39.1730 H   0  0  0  0  0  0  0  0  0  0  0  0
   39.3320   24.8610   41.8190 C   0  0  0  0  0  0  0  0  0  0  0  0
   39.3830   26.2150   41.4850 C   0  0  0  0  0  0  0  0  0  0  0  0
   38.2110   26.9400   41.4910 C   0  0  0  0  0  0  0  0  0  0  0  0
   37.0560   26.2700   41.8320 N   0  0  0  0  0  0  0  0  0  0  0  0
   37.0380   24.9640   42.1500 C   0  0  0  0  0  0  0  0  0  0  0  0
   38.1850   24.2600   42.1430 N   0  0  0  0  0  0  0  0  0  0  0  0
   40.3090   24.3520   41.7910 H   0  0  0  0  0  0  0  0  0  0  0  0
   40.2320   26.8010   41.2110 H   0  0  0  0  0  0  0  0  0  0  0  0
   36.1200   24.4650   42.4140 H   0  0  0  0  0  0  0  0  0  0  0  0
   36.0170   28.1000   39.8350 O   0  0  0  0  0  0  0  0  0  0  0  0
   35.3680   28.7920   39.5550 H   0  0  0  0  0  0  0  0  0  0  0  0
   38.4950   30.5910   39.7400 O   0  0  0  0  0  0  0  0  0  0  0  0
   38.9820   32.1720   38.0630 C   0  0  1  0  0  0  0  0  0  0  0  0
   39.0080   30.6130   38.4430 C   0  0  1  0  0  0  0  0  0  0  0  0
   40.3420   30.4560   38.4860 O   0  0  0  0  0  0  0  0  0  0  0  0
   40.6680   31.4100   39.4920 C   0  0  0  0  0  0  0  0  0  0  0  0
   40.1540   32.6820   38.8910 C   0  0  1  0  0  0  0  0  0  0  0  0
   38.0220   32.5860   38.3050 H   0  0  0  0  0  0  0  0  0  0  0  0
   38.3420   30.2260   37.6710 H   0  0  0  0  0  0  0  0  0  0  0  0
   40.1450   31.2010   40.4440 H   0  0  0  0  0  0  0  0  0  0  0  0
   41.7580   31.4220   39.6520 H   0  0  0  0  0  0  0  0  0  0  0  0
   39.6670   33.3760   39.6110 H   0  0  0  0  0  0  0  0  0  0  0  0
   39.3690   32.2260   36.7260 O   0  0  0  0  0  0  0  0  0  0  0  0
   40.1310   31.6100   36.6020 H   0  0  0  0  0  0  0  0  0  0  0  0
   41.1050   33.2560   38.0840 O   0  0  0  0  0  0  0  0  0  0  0  0
   41.6960   34.3460   38.6490 C   0  0  0  0  0  2  0  0  0  0  0  0
   43.1130   34.3480   38.7870 N   0  0  0  0  0  4  0  0  0  0  0  0
   43.4510   35.3640   38.6370 H   0  0  0  0  0  0  0  0  0  0  0  0
   43.6060   33.9940   40.1100 C   0  0  0  0  0  2  0  0  0  0  0  0
   44.0950   33.0050   40.0860 H   0  0  0  0  0  0  0  0  0  0  0  0
   43.7510   33.5140   37.7930 C   0  0  0  0  0  2  0  0  0  0  0  0
   43.1280   33.4450   36.8890 H   0  0  0  0  0  0  0  0  0  0  0  0
  1  6  1  6  0  0  0
  1 20  1  0  0  0  0
  1  5  1  0  0  0  0
  1  2  1  0  0  0  0
  2  7  1  1  0  0  0
  2 13  1  0  0  0  0
  2  3  1  0  0  0  0
  4  9  1  0  0  0  0
  4  8  1  0  0  0  0
  4  3  1  0  0  0  0
  5 10  1  6  0  0  0
  5  4  1  0  0  0  0
 11 16  1  0  0  0  0
 12 13  1  0  0  0  0
 12 11  2  0  0  0  0
 13 14  2  0  0  0  0
 14 15  1  0  0  0  0
 15 19  1  0  0  0  0
 16 15  2  0  0  0  0
 17 11  1  0  0  0  0
 18 12  1  0  0  0  0
 21 20  1  0  0  0  0
 22  5  1  0  0  0  0
 23 28  1  1  0  0  0
 23 24  1  0  0  0  0
 23 27  1  0  0  0  0
 24 29  1  6  0  0  0
 24 25  1  0  0  0  0
 24 22  1  0  0  0  0
 25 26  1  0  0  0  0
 26 31  1  0  0  0  0
 26 30  1  0  0  0  0
 27 26  1  0  0  0  0
 27 32  1  1  0  0  0
 33 23  1  0  0  0  0
 34 33  1  0  0  0  0
 35 36  1  0  0  0  0
 35 27  1  0  0  0  0
 36 37  1  0  0  0  0
 37 39  1  0  0  0  0
 38 37  1  0  0  0  0
 40 39  1  0  0  0  0
 41 37  1  0  0  0  0
 42 41  1  0  0  0  0
M  END
>  <minimizedAffinity>
-4.83697653

$$$$
