
 OpenBabel03252504303D

 31 31  0  0  0  0  0  0  0  0999 V2000
   45.1760   35.6020   43.5190 C   0  0  0  0  0  0  0  0  0  0  0  0
   45.9950   35.1260   42.9360 H   0  0  0  0  0  0  0  0  0  0  0  0
   45.3010   36.6920   43.6020 H   0  0  0  0  0  0  0  0  0  0  0  0
   43.7470   35.6560   41.4150 C   0  0  0  0  0  3  0  0  0  0  0  0
   43.9300   35.3150   42.7010 C   0  0  0  0  0  3  0  0  0  0  0  0
   42.5380   35.2960   40.8450 O   0  0  0  0  0  0  0  0  0  0  0  0
   41.2810   35.7330   41.1700 C   0  0  0  0  0  0  0  0  0  0  0  0
   41.2260   35.8210   42.2990 H   0  0  0  0  0  0  0  0  0  0  0  0
   41.0420   36.7080   40.7490 H   0  0  0  0  0  0  0  0  0  0  0  0
   40.2610   33.5930   41.6250 C   0  0  0  0  0  0  0  0  0  0  0  0
   40.2060   34.7630   40.8380 C   0  0  0  0  0  0  0  0  0  0  0  0
   39.2140   34.8440   39.9130 C   0  0  0  0  0  0  0  0  0  0  0  0
   38.3690   33.8190   39.8180 N   0  0  0  0  0  0  0  0  0  0  0  0
   38.4210   32.7160   40.5590 C   0  0  0  0  0  0  0  0  0  0  0  0
   39.4110   32.5570   41.5310 N   0  0  0  0  0  0  0  0  0  0  0  0
   41.0090   33.4060   42.4030 H   0  0  0  0  0  0  0  0  0  0  0  0
   39.2260   35.7620   39.3440 H   0  0  0  0  0  0  0  0  0  0  0  0
   37.6880   31.9410   40.4030 H   0  0  0  0  0  0  0  0  0  0  0  0
   45.0410   34.9480   44.7150 O   0  0  0  0  0  0  0  0  0  0  0  0
   45.4150   32.3740   44.1610 O   0  0  0  0  0  0  0  0  0  0  0  0
   46.0460   33.5600   44.7970 P   0  0  1  0  0  0  0  0  0  0  0  0
   47.5100   33.9190   44.0000 O   0  0  0  0  0  0  0  0  0  0  0  0
   47.7710   34.8240   44.2790 H   0  0  0  0  0  0  0  0  0  0  0  0
   46.4350   33.3130   46.4200 O   0  0  0  0  0  0  0  0  0  0  0  0
   46.9010   32.0690   46.7430 C   0  0  0  0  0  2  0  0  0  0  0  0
   46.2970   31.3830   47.8350 N   0  0  0  0  0  4  0  0  0  0  0  0
   47.0910   30.7790   48.2640 H   0  0  0  0  0  0  0  0  0  0  0  0
   45.2900   30.4120   47.4830 C   0  0  0  0  0  2  0  0  0  0  0  0
   45.3490   29.5380   48.2080 H   0  0  0  0  0  0  0  0  0  0  0  0
   45.8450   32.2260   48.9160 C   0  0  0  0  0  2  0  0  0  0  0  0
   46.0110   33.2990   48.7140 H   0  0  0  0  0  0  0  0  0  0  0  0
  1  3  1  0  0  0  0
  1 19  1  0  0  0  0
  2  1  1  0  0  0  0
  4  5  2  0  0  0  0
  5  1  1  0  0  0  0
  6  7  1  0  0  0  0
  6  4  1  0  0  0  0
  7  8  1  0  0  0  0
  9  7  1  0  0  0  0
 10 16  1  0  0  0  0
 11  7  1  0  0  0  0
 11 10  2  0  0  0  0
 12 11  1  0  0  0  0
 13 12  2  0  0  0  0
 13 14  1  0  0  0  0
 14 15  2  0  0  0  0
 15 10  1  0  0  0  0
 17 12  1  0  0  0  0
 18 14  1  0  0  0  0
 19 21  1  0  0  0  0
 21 20  2  6  0  0  0
 21 24  1  0  0  0  0
 22 23  1  0  0  0  0
 22 21  1  0  0  0  0
 24 25  1  0  0  0  0
 25 26  1  0  0  0  0
 26 27  1  0  0  0  0
 26 30  1  0  0  0  0
 28 26  1  0  0  0  0
 28 29  1  0  0  0  0
 31 30  1  0  0  0  0
M  END
>  <minimizedAffinity>
-4.69506884

>  <minimizedRMSD>
1.38256192

$$$$
