
 OpenBabel03252504303D

 31 31  0  0  0  0  0  0  0  0999 V2000
   45.2230   35.5680   43.4780 C   0  0  0  0  0  0  0  0  0  0  0  0
   45.9940   35.0390   42.8760 H   0  0  0  0  0  0  0  0  0  0  0  0
   45.4150   36.6490   43.5470 H   0  0  0  0  0  0  0  0  0  0  0  0
   43.7730   35.5840   41.3880 C   0  0  0  0  0  0  0  0  0  0  0  0
   43.9390   35.3480   42.7000 C   0  0  0  0  0  0  0  0  0  0  0  0
   42.5210   35.3120   40.8640 O   0  0  0  0  0  0  0  0  0  0  0  0
   41.2930   35.6180   41.3890 C   0  0  0  0  0  0  0  0  0  0  0  0
   41.3480   35.4630   42.5110 H   0  0  0  0  0  0  0  0  0  0  0  0
   40.9930   36.6480   41.2110 H   0  0  0  0  0  0  0  0  0  0  0  0
   40.1960   33.4880   41.6880 C   0  0  0  0  0  0  0  0  0  0  0  0
   40.2110   34.6950   40.9570 C   0  0  0  0  0  0  0  0  0  0  0  0
   39.2690   34.8480   39.9900 C   0  0  0  0  0  0  0  0  0  0  0  0
   38.4040   33.8540   39.8040 N   0  0  0  0  0  0  0  0  0  0  0  0
   38.3890   32.7160   40.4920 C   0  0  0  0  0  0  0  0  0  0  0  0
   39.3250   32.4820   41.5020 N   0  0  0  0  0  0  0  0  0  0  0  0
   40.8990   33.2420   42.4920 H   0  0  0  0  0  0  0  0  0  0  0  0
   39.3340   35.7920   39.4690 H   0  0  0  0  0  0  0  0  0  0  0  0
   37.6450   31.9700   40.2620 H   0  0  0  0  0  0  0  0  0  0  0  0
   45.0850   34.9340   44.6840 O   0  0  0  0  0  0  0  0  0  0  0  0
   45.4530   32.3430   44.2090 O   0  0  0  0  0  0  0  0  0  0  0  0
   46.0940   33.5500   44.7920 P   0  0  1  0  0  0  0  0  0  0  0  0
   47.5410   33.8830   43.9550 O   0  0  0  0  0  0  0  0  0  0  0  0
   47.8070   34.7980   44.1990 H   0  0  0  0  0  0  0  0  0  0  0  0
   46.5160   33.3570   46.4150 O   0  0  0  0  0  0  0  0  0  0  0  0
   45.6740   32.5870   47.1670 C   0  0  0  0  0  0  0  0  0  0  0  0
   46.2440   31.6830   48.1090 N   0  0  0  0  0  0  0  0  0  0  0  0
   46.2220   30.7140   47.6190 H   0  0  0  0  0  0  0  0  0  0  0  0
   45.4780   31.4680   49.3110 C   0  0  0  0  0  0  0  0  0  0  0  0
   45.6000   30.3850   49.6380 H   0  0  0  0  0  0  0  0  0  0  0  0
   47.6340   31.9140   48.4180 C   0  0  0  0  0  0  0  0  0  0  0  0
   48.0460   32.7930   47.8920 H   0  0  0  0  0  0  0  0  0  0  0  0
  1  3  1  0  0  0  0
  1 19  1  0  0  0  0
  2  1  1  0  0  0  0
  4  5  2  0  0  0  0
  5  1  1  0  0  0  0
  6  4  1  0  0  0  0
  6  7  1  0  0  0  0
  7  8  1  0  0  0  0
  9  7  1  0  0  0  0
 10 16  1  0  0  0  0
 11  7  1  0  0  0  0
 11 10  2  0  0  0  0
 12 11  1  0  0  0  0
 13 12  2  0  0  0  0
 13 14  1  0  0  0  0
 14 15  2  0  0  0  0
 15 10  1  0  0  0  0
 17 12  1  0  0  0  0
 18 14  1  0  0  0  0
 19 21  1  0  0  0  0
 21 20  2  6  0  0  0
 21 24  1  0  0  0  0
 22 23  1  0  0  0  0
 22 21  1  0  0  0  0
 24 25  1  0  0  0  0
 25 26  1  0  0  0  0
 26 30  1  0  0  0  0
 26 28  1  0  0  0  0
 27 26  1  0  0  0  0
 28 29  1  0  0  0  0
 31 30  1  0  0  0  0
M  END
>  <minimizedAffinity>
-4.77754736

>  <minimizedRMSD>
1.36988533

$$$$
