
 OpenBabel03252501343D

 23 23  0  0  0  0  0  0  0  0999 V2000
   44.9670   34.5230   42.6890 C   0  0  0  0  0  0  0  0  0  0  0  0
   44.4260   33.4300   43.0450 O   0  0  0  0  0  0  0  0  0  0  0  0
   46.0020   34.9310   43.5880 N   0  0  0  0  0  0  0  0  0  0  0  0
   46.5510   35.7870   43.4260 H   0  0  0  0  0  0  0  0  0  0  0  0
   46.0940   33.9600   44.6750 C   0  0  0  0  0  0  0  0  0  0  0  0
   45.3670   34.0220   45.8370 C   0  0  0  0  0  0  0  0  0  0  0  0
   45.5980   32.9950   46.7490 C   0  0  0  0  0  0  0  0  0  0  0  0
   46.4970   32.0470   46.4210 N   0  0  0  0  0  0  0  0  0  0  0  0
   47.1840   32.0260   45.2750 C   0  0  0  0  0  0  0  0  0  0  0  0
   46.9970   33.0050   44.3490 N   0  0  0  0  0  0  0  0  0  0  0  0
   45.0290   33.0380   47.6650 H   0  0  0  0  0  0  0  0  0  0  0  0
   47.8870   31.2210   45.1010 H   0  0  0  0  0  0  0  0  0  0  0  0
   44.4720   35.0970   45.9930 N   0  0  0  0  0  0  0  0  0  0  0  0
   43.4270   35.1150   46.0950 H   0  0  0  0  0  0  0  0  0  0  0  0
   44.9870   36.0110   46.0050 H   0  0  0  0  0  0  0  0  0  0  0  0
   44.6430   35.2880   41.5680 O   0  0  0  0  0  0  0  0  0  0  0  0
   43.2870   35.2320   41.0910 C   0  0  0  0  0  2  0  0  0  0  0  0
   43.2150   34.9700   39.6960 N   0  0  0  0  0  4  0  0  0  0  0  0
   43.8510   35.6510   39.2220 H   0  0  0  0  0  0  0  0  0  0  0  0
   41.8950   35.2430   39.1590 C   0  0  0  0  0  2  0  0  0  0  0  0
   41.6960   36.3270   39.3690 H   0  0  0  0  0  0  0  0  0  0  0  0
   43.6860   33.6590   39.3060 C   0  0  0  0  0  2  0  0  0  0  0  0
   43.0000   32.8440   39.5340 H   0  0  0  0  0  0  0  0  0  0  0  0
  1  2  2  0  0  0  0
  1  3  1  0  0  0  0
  3  5  1  0  0  0  0
  4  3  1  0  0  0  0
  5  6  1  0  0  0  0
  6 13  1  0  0  0  0
  6  7  2  0  0  0  0
  7 11  1  0  0  0  0
  8  7  1  0  0  0  0
  9  8  2  0  0  0  0
 10  5  2  0  0  0  0
 10  9  1  0  0  0  0
 12  9  1  0  0  0  0
 13 15  1  0  0  0  0
 13 14  1  0  0  0  0
 16  1  1  0  0  0  0
 17 16  1  0  0  0  0
 18 17  1  0  0  0  0
 19 18  1  0  0  0  0
 20 21  1  0  0  0  0
 20 18  1  0  0  0  0
 22 23  1  0  0  0  0
 22 18  1  0  0  0  0
M  END
>  <minimizedAffinity>
-4.01326275

>  <minimizedRMSD>
1.3682915

$$$$
