REMARK  Name = 
REMARK  8 active torsions:
REMARK  status: ('A' for Active; 'I' for Inactive)
REMARK    1  A    between atoms: C_5  and  O_7
REMARK    2  A    between atoms: O_7  and  P_9
REMARK    3  A    between atoms: P_9  and  O_10
REMARK    4  A    between atoms: P_9  and  O_11
REMARK    5  A    between atoms: O_11  and  C_16
REMARK    6  A    between atoms: C_16  and  N_17
REMARK    7  A    between atoms: N_17  and  C_18
REMARK    8  A    between atoms: N_17  and  C_20
REMARK                            x       y       z     vdW  Elec       q    Type
REMARK                         _______ _______ _______ _____ _____    ______ ____
ROOT
ATOM      1  O   UNL     1      46.773  32.216  48.397  0.00  0.00    +0.000 OA
ATOM      2  P   UNL     1      45.763  32.524  47.303  0.00  0.00    +0.000 P 
ENDROOT
BRANCH   2   3
ATOM      3  O   UNL     1      44.531  33.524  47.849  0.00  0.00    +0.000 OA
ATOM      4  H   UNL     1      43.654  33.240  47.449  0.00  0.00    +0.000 HD
ENDBRANCH   2   3
BRANCH   2   5
ATOM      5  O   UNL     1      46.589  33.218  46.016  0.00  0.00    +0.000 OA
BRANCH   5  10
ATOM      6  C   UNL     1      44.473  35.699  44.589  0.00  0.00    +0.000 A 
ATOM      7  C   UNL     1      44.932  35.820  43.269  0.00  0.00    +0.000 A 
ATOM      8  C   UNL     1      46.016  35.002  42.881  0.00  0.00    +0.000 A 
ATOM      9  N   UNL     1      46.536  34.159  43.807  0.00  0.00    +0.000 NA
ATOM     10  C   UNL     1      46.070  34.070  45.064  0.00  0.00    +0.000 A 
ATOM     11  N   UNL     1      45.047  34.832  45.456  0.00  0.00    +0.000 NA
ATOM     12  H   UNL     1      43.633  36.329  44.900  0.00  0.00    +0.000 HD
ATOM     13  H   UNL     1      44.487  36.510  42.556  0.00  0.00    +0.000 HD
ATOM     14  H   UNL     1      46.401  35.066  41.866  0.00  0.00    +0.000 HD
ENDBRANCH   5  10
ENDBRANCH   2   5
BRANCH   2  15
ATOM     15  O   UNL     1      45.059  31.038  46.895  0.00  0.00    +0.000 OA
BRANCH  15  16
ATOM     16  C   UNL     1      44.580  30.500  48.095  0.00  0.00    +0.000 C 
BRANCH  16  17
ATOM     17  N   UNL     1      45.366  30.914  49.229  0.00  0.00    +0.000 N 
ATOM     18  H   UNL     1      45.141  30.235  50.005  0.00  0.00    +0.000 HD
BRANCH  17  19
ATOM     19  C   UNL     1      44.895  32.205  49.666  0.00  0.00    +0.000 C 
ATOM     20  H   UNL     1      44.947  32.980  48.890  0.00  0.00    +0.000 HD
ENDBRANCH  17  19
BRANCH  17  21
ATOM     21  C   UNL     1      46.771  30.877  48.958  0.00  0.00    +0.000 C 
ATOM     22  H   UNL     1      46.899  30.709  47.872  0.00  0.00    +0.000 HD
ENDBRANCH  17  21
ENDBRANCH  16  17
ENDBRANCH  15  16
ENDBRANCH   2  15
TORSDOF 8
