
 OpenBabel03252509123D

 30 32  0  0  0  0  0  0  0  0999 V2000
   47.5950   32.2820   44.0590 C   0  0  0  0  0  0  0  0  0  0  0  0
   46.9920   33.4200   43.5160 C   0  0  0  0  0  0  0  0  0  0  0  0
   46.0690   34.1590   44.1990 C   0  0  0  0  0  0  0  0  0  0  0  0
   45.6910   33.7850   45.4980 C   0  0  0  0  0  0  0  0  0  0  0  0
   44.8370   34.2570   46.4470 N   0  0  0  0  0  0  0  0  0  0  0  0
   44.9070   33.4470   47.5300 C   0  0  0  0  0  0  0  0  0  0  0  0
   45.8010   32.4870   47.2390 N   0  0  0  0  0  0  0  0  0  0  0  0
   46.2950   32.6670   46.0060 C   0  0  0  0  0  0  0  0  0  0  0  0
   47.2380   31.8890   45.3470 C   0  0  0  0  0  0  0  0  0  0  0  0
   48.3300   31.6960   43.5100 H   0  0  0  0  0  0  0  0  0  0  0  0
   44.2950   35.1170   46.2050 H   0  0  0  0  0  0  0  0  0  0  0  0
   44.2930   33.6540   48.4110 H   0  0  0  0  0  0  0  0  0  0  0  0
   47.6700   31.0150   45.8200 H   0  0  0  0  0  0  0  0  0  0  0  0
   47.1290   33.5950   39.8570 C   0  0  0  0  0  0  0  0  0  0  0  0
   48.0620   34.6070   39.6350 C   0  0  0  0  0  0  0  0  0  0  0  0
   48.6420   35.2260   40.7400 C   0  0  0  0  0  0  0  0  0  0  0  0
   48.2680   34.8120   41.9950 N   0  0  0  0  0  0  0  0  0  0  0  0
   47.3630   33.8320   42.1660 C   0  0  0  0  0  0  0  0  0  0  0  0
   46.7860   33.2150   41.1120 N   0  0  0  0  0  0  0  0  0  0  0  0
   46.6510   33.0840   39.0150 H   0  0  0  0  0  0  0  0  0  0  0  0
   48.3240   34.8970   38.6170 H   0  0  0  0  0  0  0  0  0  0  0  0
   49.3600   36.0040   40.6150 H   0  0  0  0  0  0  0  0  0  0  0  0
   45.3050   35.6120   43.5060 S   0  0  0  0  0  0  0  0  0  0  0  0
   43.6940   35.2860   42.7720 C   0  0  0  0  0  2  0  0  0  0  0  0
   43.9140   34.4030   41.6180 N   0  0  0  0  0  4  0  0  0  0  0  0
   44.9280   34.2800   41.4040 H   0  0  0  0  0  0  0  0  0  0  0  0
   43.3440   35.0980   40.4600 C   0  0  0  0  0  2  0  0  0  0  0  0
   43.5500   36.1880   40.6310 H   0  0  0  0  0  0  0  0  0  0  0  0
   43.3620   33.0960   41.8080 C   0  0  0  0  0  2  0  0  0  0  0  0
   43.3340   32.8020   42.8830 H   0  0  0  0  0  0  0  0  0  0  0  0
  1  9  1  0  0  0  0
  2  1  2  0  0  0  0
  2  3  1  0  0  0  0
  3  4  2  0  0  0  0
  4  8  1  0  0  0  0
  4  5  1  0  0  0  0
  5  6  1  0  0  0  0
  6 12  1  0  0  0  0
  7  6  2  0  0  0  0
  8  7  1  0  0  0  0
  9 13  1  0  0  0  0
  9  8  2  0  0  0  0
 10  1  1  0  0  0  0
 11  5  1  0  0  0  0
 14 19  1  0  0  0  0
 15 14  2  0  0  0  0
 15 16  1  0  0  0  0
 16 17  2  0  0  0  0
 17 18  1  0  0  0  0
 18  2  1  0  0  0  0
 19 18  2  0  0  0  0
 20 14  1  0  0  0  0
 21 15  1  0  0  0  0
 22 16  1  0  0  0  0
 23  3  1  0  0  0  0
 24 23  1  0  0  0  0
 25 29  1  0  0  0  0
 25 24  1  0  0  0  0
 26 25  1  0  0  0  0
 27 28  1  0  0  0  0
 27 25  1  0  0  0  0
 29 30  1  0  0  0  0
M  END
>  <minimizedAffinity>
-4.71831036

>  <minimizedRMSD>
1.39662123

$$$$
