REMARK  Name = 
REMARK  6 active torsions:
REMARK  status: ('A' for Active; 'I' for Inactive)
REMARK    1  A    between atoms: C_2  and  C_14
REMARK    2  A    between atoms: C_3  and  S_16
REMARK    3  A    between atoms: S_16  and  C_24
REMARK    4  A    between atoms: C_24  and  N_25
REMARK    5  A    between atoms: N_25  and  C_26
REMARK    6  A    between atoms: N_25  and  C_28
REMARK                            x       y       z     vdW  Elec       q    Type
REMARK                         _______ _______ _______ _____ _____    ______ ____
ROOT
ATOM      1  C   UNL     1      47.462  31.684  44.827  0.00  0.00    +0.000 A 
ATOM      2  C   UNL     1      46.781  32.870  44.540  0.00  0.00    +0.000 A 
ATOM      3  C   UNL     1      45.916  33.452  45.422  0.00  0.00    +0.000 A 
ATOM      4  C   UNL     1      45.681  32.859  46.672  0.00  0.00    +0.000 A 
ATOM      5  N   UNL     1      44.917  33.137  47.764  0.00  0.00    +0.000 N 
ATOM      6  C   UNL     1      45.116  32.166  48.687  0.00  0.00    +0.000 A 
ATOM      7  N   UNL     1      45.997  31.302  48.156  0.00  0.00    +0.000 NA
ATOM      8  C   UNL     1      46.359  31.698  46.928  0.00  0.00    +0.000 A 
ATOM      9  C   UNL     1      47.247  31.074  46.061  0.00  0.00    +0.000 A 
ATOM     10  H   UNL     1      48.150  31.224  44.121  0.00  0.00    +0.000 HD
ATOM     11  H   UNL     1      44.334  34.003  47.721  0.00  0.00    +0.000 HD
ATOM     12  H   UNL     1      44.590  32.204  49.645  0.00  0.00    +0.000 HD
ATOM     13  H   UNL     1      47.745  30.153  46.340  0.00  0.00    +0.000 HD
ENDROOT
BRANCH   2  18
ATOM     14  C   UNL     1      46.376  33.810  41.020  0.00  0.00    +0.000 A 
ATOM     15  C   UNL     1      47.423  34.710  40.823  0.00  0.00    +0.000 A 
ATOM     16  C   UNL     1      48.264  34.991  41.896  0.00  0.00    +0.000 A 
ATOM     17  N   UNL     1      48.025  34.371  43.098  0.00  0.00    +0.000 NA
ATOM     18  C   UNL     1      47.003  33.509  43.247  0.00  0.00    +0.000 A 
ATOM     19  N   UNL     1      46.172  33.218  42.223  0.00  0.00    +0.000 NA
ATOM     20  H   UNL     1      45.692  33.562  40.202  0.00  0.00    +0.000 HD
ATOM     21  H   UNL     1      47.569  35.174  39.847  0.00  0.00    +0.000 HD
ATOM     22  H   UNL     1      49.077  35.673  41.788  0.00  0.00    +0.000 HD
ENDBRANCH   2  18
BRANCH   3  23
ATOM     23  S   UNL     1      45.052  34.967  45.055  0.00  0.00    +0.000 S 
BRANCH  23  24
ATOM     24  C   UNL     1      43.464  34.702  44.249  0.00  0.00    +0.000 C 
BRANCH  24  25
ATOM     25  N   UNL     1      43.635  35.049  42.831  0.00  0.00    +0.000 N 
ATOM     26  H   UNL     1      44.580  35.445  42.634  0.00  0.00    +0.000 HD
BRANCH  25  27
ATOM     27  C   UNL     1      42.684  36.131  42.561  0.00  0.00    +0.000 C 
ATOM     28  H   UNL     1      42.659  36.753  43.496  0.00  0.00    +0.000 HD
ENDBRANCH  25  27
BRANCH  25  29
ATOM     29  C   UNL     1      43.459  33.926  41.962  0.00  0.00    +0.000 C 
ATOM     30  H   UNL     1      43.731  32.964  42.456  0.00  0.00    +0.000 HD
ENDBRANCH  25  29
ENDBRANCH  24  25
ENDBRANCH  23  24
ENDBRANCH   3  23
TORSDOF 6
