REMARK  Name = 
REMARK  12 active torsions:
REMARK  status: ('A' for Active; 'I' for Inactive)
REMARK    1  A    between atoms: O_1  and  C_2
REMARK    2  A    between atoms: O_1  and  C_9
REMARK    3  A    between atoms: C_2  and  C_4
REMARK    4  A    between atoms: C_10  and  C_11
REMARK    5  A    between atoms: C_11  and  O_12
REMARK    6  A    between atoms: O_12  and  P_14
REMARK    7  A    between atoms: P_14  and  O_15
REMARK    8  A    between atoms: P_14  and  O_16
REMARK    9  A    between atoms: O_16  and  C_27
REMARK   10  A    between atoms: C_27  and  N_28
REMARK   11  A    between atoms: N_28  and  C_29
REMARK   12  A    between atoms: N_28  and  C_31
REMARK                            x       y       z     vdW  Elec       q    Type
REMARK                         _______ _______ _______ _____ _____    ______ ____
ROOT
ATOM      1  C   UNL     1      45.181  35.584  43.557  0.00  0.00    +0.000 C 
ATOM      2  H   UNL     1      46.007  35.117  42.976  0.00  0.00    +0.000 HD
ATOM      3  H   UNL     1      45.293  36.675  43.640  0.00  0.00    +0.000 HD
ENDROOT
BRANCH   1   5
ATOM      4  C   UNL     1      43.736  35.663  41.465  0.00  0.00    +0.000 C 
ATOM      5  C   UNL     1      43.941  35.281  42.736  0.00  0.00    +0.000 C 
BRANCH   4   6
ATOM      6  O   UNL     1      42.537  35.280  40.889  0.00  0.00    +0.000 OA
BRANCH   6   7
ATOM      7  C   UNL     1      41.275  35.734  41.169  0.00  0.00    +0.000 C 
ATOM      8  H   UNL     1      41.191  35.851  42.293  0.00  0.00    +0.000 HD
ATOM      9  H   UNL     1      41.055  36.699  40.717  0.00  0.00    +0.000 HD
BRANCH   7  11
ATOM     10  C   UNL     1      40.252  33.595  41.624  0.00  0.00    +0.000 A 
ATOM     11  C   UNL     1      40.202  34.763  40.833  0.00  0.00    +0.000 A 
ATOM     12  C   UNL     1      39.215  34.841  39.902  0.00  0.00    +0.000 A 
ATOM     13  N   UNL     1      38.371  33.816  39.805  0.00  0.00    +0.000 NA
ATOM     14  C   UNL     1      38.418  32.715  40.550  0.00  0.00    +0.000 A 
ATOM     15  N   UNL     1      39.403  32.559  41.528  0.00  0.00    +0.000 NA
ATOM     16  H   UNL     1      40.996  33.410  42.407  0.00  0.00    +0.000 HD
ATOM     17  H   UNL     1      39.231  35.758  39.331  0.00  0.00    +0.000 HD
ATOM     18  H   UNL     1      37.686  31.940  40.392  0.00  0.00    +0.000 HD
ENDBRANCH   7  11
ENDBRANCH   6   7
ENDBRANCH   4   6
ENDBRANCH   1   5
BRANCH   1  19
ATOM     19  O   UNL     1      45.051  34.929  44.753  0.00  0.00    +0.000 OA
BRANCH  19  21
ATOM     20  O   UNL     1      45.545  32.338  44.413  0.00  0.00    +0.000 OA
ATOM     21  P   UNL     1      46.146  33.614  44.879  0.00  0.00    +0.000 P 
BRANCH  21  22
ATOM     22  O   UNL     1      47.517  33.974  43.932  0.00  0.00    +0.000 OA
ATOM     23  H   UNL     1      47.741  34.916  44.102  0.00  0.00    +0.000 HD
ENDBRANCH  21  22
BRANCH  21  24
ATOM     24  O   UNL     1      46.677  33.550  46.480  0.00  0.00    +0.000 OA
BRANCH  24  25
ATOM     25  C   UNL     1      47.922  33.023  46.679  0.00  0.00    +0.000 C 
BRANCH  25  26
ATOM     26  N   UNL     1      48.576  33.282  47.918  0.00  0.00    +0.000 N 
ATOM     27  H   UNL     1      49.635  33.303  47.679  0.00  0.00    +0.000 HD
BRANCH  26  28
ATOM     28  C   UNL     1      48.476  32.238  48.908  0.00  0.00    +0.000 C 
ATOM     29  H   UNL     1      49.446  32.194  49.499  0.00  0.00    +0.000 HD
ENDBRANCH  26  28
BRANCH  26  30
ATOM     30  C   UNL     1      48.300  34.573  48.500  0.00  0.00    +0.000 C 
ATOM     31  H   UNL     1      47.584  35.164  47.901  0.00  0.00    +0.000 HD
ENDBRANCH  26  30
ENDBRANCH  25  26
ENDBRANCH  24  25
ENDBRANCH  21  24
ENDBRANCH  19  21
ENDBRANCH   1  19
TORSDOF 12
