
 OpenBabel03242516323D

 42 44  0  0  1  0  0  0  0  0999 V2000
   48.0250   34.6870   41.9620 C   0  0  2  0  0  0  0  0  0  0  0  0
   46.7210   33.8920   42.2480 C   0  0  1  0  0  0  0  0  0  0  0  0
   47.2680   32.6820   42.5570 O   0  0  0  0  0  0  0  0  0  0  0  0
   48.1450   32.4230   41.4840 C   0  0  0  0  0  0  0  0  0  0  0  0
   48.5130   33.7820   40.8540 C   0  0  1  0  0  0  0  0  0  0  0  0
   47.7840   35.7040   41.6440 H   0  0  0  0  0  0  0  0  0  0  0  0
   46.2040   33.8520   41.2730 H   0  0  0  0  0  0  0  0  0  0  0  0
   47.5630   31.8500   40.7390 H   0  0  0  0  0  0  0  0  0  0  0  0
   49.0530   31.8780   41.7940 H   0  0  0  0  0  0  0  0  0  0  0  0
   49.5980   33.8930   40.6950 H   0  0  0  0  0  0  0  0  0  0  0  0
   44.5160   36.0590   44.4620 C   0  0  0  0  0  0  0  0  0  0  0  0
   45.1800   35.6770   43.2950 C   0  0  0  0  0  0  0  0  0  0  0  0
   45.9450   34.5310   43.3170 C   0  0  0  0  0  0  0  0  0  0  0  0
   46.0010   33.8320   44.5030 N   0  0  0  0  0  0  0  0  0  0  0  0
   45.3500   34.2240   45.6120 C   0  0  0  0  0  0  0  0  0  0  0  0
   44.6030   35.3440   45.5860 N   0  0  0  0  0  0  0  0  0  0  0  0
   43.9270   36.9840   44.3640 H   0  0  0  0  0  0  0  0  0  0  0  0
   45.1860   36.1630   42.3440 H   0  0  0  0  0  0  0  0  0  0  0  0
   45.4100   33.6580   46.5260 H   0  0  0  0  0  0  0  0  0  0  0  0
   48.9110   34.5540   42.9940 O   0  0  0  0  0  0  0  0  0  0  0  0
   49.7890   34.2030   42.7050 H   0  0  0  0  0  0  0  0  0  0  0  0
   47.7550   33.9360   39.7320 O   0  0  0  0  0  0  0  0  0  0  0  0
   49.1610   32.9530   38.1180 C   0  0  1  0  0  0  0  0  0  0  0  0
   48.4470   34.3140   38.5820 C   0  0  1  0  0  0  0  0  0  0  0  0
   47.5850   34.4280   37.5580 O   0  0  0  0  0  0  0  0  0  0  0  0
   46.8740   33.2020   37.6970 C   0  0  0  0  0  0  0  0  0  0  0  0
   47.9700   32.1910   37.5520 C   0  0  1  0  0  0  0  0  0  0  0  0
   49.6510   32.4990   38.9580 H   0  0  0  0  0  0  0  0  0  0  0  0
   49.3280   34.9330   38.7500 H   0  0  0  0  0  0  0  0  0  0  0  0
   46.4020   33.1100   38.6940 H   0  0  0  0  0  0  0  0  0  0  0  0
   46.1110   33.1230   36.9070 H   0  0  0  0  0  0  0  0  0  0  0  0
   47.8900   31.3140   38.2310 H   0  0  0  0  0  0  0  0  0  0  0  0
   49.9660   33.3150   37.0410 O   0  0  0  0  0  0  0  0  0  0  0  0
   49.4490   33.9270   36.4630 H   0  0  0  0  0  0  0  0  0  0  0  0
   48.1740   31.8840   36.2300 O   0  0  0  0  0  0  0  0  0  0  0  0
   47.1650   31.1410   35.6920 C   0  0  0  0  0  0  0  0  0  0  0  0
   46.6900   31.4880   34.3970 N   0  0  0  0  0  0  0  0  0  0  0  0
   46.5040   30.5670   33.8620 H   0  0  0  0  0  0  0  0  0  0  0  0
   45.4120   32.1850   34.3720 C   0  0  0  0  0  0  0  0  0  0  0  0
   45.5520   33.2370   34.0720 H   0  0  0  0  0  0  0  0  0  0  0  0
   47.6690   32.2470   33.6500 C   0  0  0  0  0  0  0  0  0  0  0  0
   48.6860   32.0040   33.9880 H   0  0  0  0  0  0  0  0  0  0  0  0
  1  6  1  6  0  0  0
  1  2  1  0  0  0  0
  1 20  1  0  0  0  0
  2  7  1  6  0  0  0
  2  3  1  0  0  0  0
  2 13  1  0  0  0  0
  4  9  1  0  0  0  0
  4  3  1  0  0  0  0
  5 10  1  6  0  0  0
  5  4  1  0  0  0  0
  5  1  1  0  0  0  0
  8  4  1  0  0  0  0
 11 16  1  0  0  0  0
 12 13  1  0  0  0  0
 12 11  2  0  0  0  0
 13 14  2  0  0  0  0
 14 15  1  0  0  0  0
 15 19  1  0  0  0  0
 16 15  2  0  0  0  0
 17 11  1  0  0  0  0
 18 12  1  0  0  0  0
 21 20  1  0  0  0  0
 22  5  1  0  0  0  0
 23 24  1  0  0  0  0
 23 28  1  1  0  0  0
 24 29  1  1  0  0  0
 24 22  1  0  0  0  0
 25 26  1  0  0  0  0
 25 24  1  0  0  0  0
 26 30  1  0  0  0  0
 27 26  1  0  0  0  0
 27 23  1  0  0  0  0
 27 32  1  1  0  0  0
 31 26  1  0  0  0  0
 33 23  1  0  0  0  0
 34 33  1  0  0  0  0
 35 27  1  0  0  0  0
 36 35  1  0  0  0  0
 37 36  1  0  0  0  0
 38 37  1  0  0  0  0
 39 37  1  0  0  0  0
 40 39  1  0  0  0  0
 41 42  1  0  0  0  0
 41 37  1  0  0  0  0
M  END
>  <minimizedAffinity>
-5.17821932

>  <minimizedRMSD>
1.1767652

$$$$
