
 OpenBabel03252508053D

 38 40  0  0  0  0  0  0  0  0999 V2000
   45.6500   35.6500   42.9810 C   0  0  0  0  0  0  0  0  0  0  0  0
   46.0020   34.3060   43.1030 C   0  0  0  0  0  0  0  0  0  0  0  0
   45.6610   33.6190   44.2550 C   0  0  0  0  0  0  0  0  0  0  0  0
   44.9770   34.2980   45.2320 N   0  0  0  0  0  0  0  0  0  0  0  0
   44.6460   35.5890   45.0930 C   0  0  0  0  0  0  0  0  0  0  0  0
   44.9880   36.2510   43.9700 N   0  0  0  0  0  0  0  0  0  0  0  0
   45.9060   36.2260   42.0850 H   0  0  0  0  0  0  0  0  0  0  0  0
   44.1070   36.0620   45.9030 H   0  0  0  0  0  0  0  0  0  0  0  0
   45.9600   32.2460   44.4960 C   0  0  0  0  0  0  0  0  0  0  0  0
   45.6800   31.1960   43.6390 C   0  0  0  0  0  0  0  0  0  0  0  0
   45.8930   29.8770   43.9370 C   0  0  0  0  0  0  0  0  0  0  0  0
   46.4230   29.5290   45.1730 C   0  0  0  0  0  0  0  0  0  0  0  0
   46.7180   30.5940   46.0660 C   0  0  0  0  0  0  0  0  0  0  0  0
   47.2490   30.2570   47.2760 C   0  0  0  0  0  0  0  0  0  0  0  0
   47.5820   31.2410   48.1940 C   0  0  0  0  0  0  0  0  0  0  0  0
   47.3700   32.5810   47.8610 C   0  0  0  0  0  0  0  0  0  0  0  0
   46.8200   32.8930   46.6050 C   0  0  0  0  0  0  0  0  0  0  0  0
   46.4910   31.8890   45.7170 C   0  0  0  0  0  0  0  0  0  0  0  0
   45.2730   31.3660   42.6920 H   0  0  0  0  0  0  0  0  0  0  0  0
   45.6720   29.0660   43.2540 H   0  0  0  0  0  0  0  0  0  0  0  0
   46.6000   28.4980   45.4390 H   0  0  0  0  0  0  0  0  0  0  0  0
   47.4070   29.1920   47.5080 H   0  0  0  0  0  0  0  0  0  0  0  0
   47.9960   30.8550   49.1270 H   0  0  0  0  0  0  0  0  0  0  0  0
   47.6860   33.1930   48.6780 H   0  0  0  0  0  0  0  0  0  0  0  0
   46.8120   33.9330   46.6130 H   0  0  0  0  0  0  0  0  0  0  0  0
   46.6620   33.7450   42.0510 O   0  0  0  0  0  0  0  0  0  0  0  0
   48.6280   33.6190   40.3040 O   0  0  0  0  0  0  0  0  0  0  0  0
   48.2980   34.0560   41.6920 P   0  0  1  0  0  0  0  0  0  0  0  0
   48.6360   35.7140   41.7900 O   0  0  0  0  0  0  0  0  0  0  0  0
   48.1650   36.1570   41.0400 H   0  0  0  0  0  0  0  0  0  0  0  0
   49.2580   33.2630   42.8120 O   0  0  0  0  0  0  0  0  0  0  0  0
   49.5950   32.0130   42.3080 C   0  0  0  0  0  2  0  0  0  0  0  0
   51.0460   31.9260   42.3350 N   0  0  0  0  0  4  0  0  0  0  0  0
   51.3970   32.7560   42.8480 H   0  0  0  0  0  0  0  0  0  0  0  0
   51.6090   31.9060   41.0130 C   0  0  0  0  0  2  0  0  0  0  0  0
   52.6540   32.2710   41.0430 H   0  0  0  0  0  0  0  0  0  0  0  0
   51.3620   30.7300   43.0930 C   0  0  0  0  0  2  0  0  0  0  0  0
   50.7110   29.9280   42.6890 H   0  0  0  0  0  0  0  0  0  0  0  0
  1  2  2  0  0  0  0
  1  6  1  0  0  0  0
  2  3  1  0  0  0  0
  3  9  1  0  0  0  0
  3  4  2  0  0  0  0
  5  4  1  0  0  0  0
  5  8  1  0  0  0  0
  6  5  2  0  0  0  0
  7  1  1  0  0  0  0
  9 18  1  0  0  0  0
 10 11  1  0  0  0  0
 10  9  2  0  0  0  0
 11 12  2  0  0  0  0
 12 21  1  0  0  0  0
 12 13  1  0  0  0  0
 13 14  1  0  0  0  0
 14 22  1  0  0  0  0
 14 15  2  0  0  0  0
 15 23  1  0  0  0  0
 16 15  1  0  0  0  0
 16 24  1  0  0  0  0
 17 25  1  0  0  0  0
 17 16  2  0  0  0  0
 18 13  2  0  0  0  0
 18 17  1  0  0  0  0
 19 10  1  0  0  0  0
 20 11  1  0  0  0  0
 26  2  1  0  0  0  0
 28 27  2  6  0  0  0
 28 29  1  0  0  0  0
 28 26  1  0  0  0  0
 28 31  1  0  0  0  0
 30 29  1  0  0  0  0
 32 33  1  0  0  0  0
 32 31  1  0  0  0  0
 33 34  1  0  0  0  0
 33 37  1  0  0  0  0
 35 36  1  0  0  0  0
 35 33  1  0  0  0  0
 38 37  1  0  0  0  0
M  END
>  <minimizedAffinity>
-4.9829092

>  <minimizedRMSD>
1.77546513

$$$$
