
 OpenBabel03252501363D

 23 23  0  0  0  0  0  0  0  0999 V2000
   37.1370   30.8030   40.9120 C   0  0  0  0  0  0  0  0  0  0  0  0
   38.2040   30.1130   40.9170 O   0  0  0  0  0  0  0  0  0  0  0  0
   35.9810   30.0100   41.2000 N   0  0  0  0  0  0  0  0  0  0  0  0
   35.0410   30.4280   41.2540 H   0  0  0  0  0  0  0  0  0  0  0  0
   36.3930   28.6210   41.3800 C   0  0  0  0  0  0  0  0  0  0  0  0
   36.8430   28.0910   42.5630 C   0  0  0  0  0  0  0  0  0  0  0  0
   37.1830   26.7400   42.5290 C   0  0  0  0  0  0  0  0  0  0  0  0
   37.0440   26.0820   41.3630 N   0  0  0  0  0  0  0  0  0  0  0  0
   36.6000   26.6400   40.2320 C   0  0  0  0  0  0  0  0  0  0  0  0
   36.2550   27.9560   40.2090 N   0  0  0  0  0  0  0  0  0  0  0  0
   37.5370   26.3180   43.4570 H   0  0  0  0  0  0  0  0  0  0  0  0
   36.5230   26.0280   39.3420 H   0  0  0  0  0  0  0  0  0  0  0  0
   36.9160   28.9470   43.6790 N   0  0  0  0  0  0  0  0  0  0  0  0
   36.4140   28.9210   44.6020 H   0  0  0  0  0  0  0  0  0  0  0  0
   37.6010   29.7220   43.5090 H   0  0  0  0  0  0  0  0  0  0  0  0
   37.0300   32.1720   40.6660 O   0  0  0  0  0  0  0  0  0  0  0  0
   37.3380   32.6380   39.3410 C   0  0  0  0  0  2  0  0  0  0  0  0
   38.5330   33.4060   39.3020 N   0  0  0  0  0  4  0  0  0  0  0  0
   38.4180   34.1160   38.5440 H   0  0  0  0  0  0  0  0  0  0  0  0
   39.6790   32.6080   38.9050 C   0  0  0  0  0  2  0  0  0  0  0  0
   39.4340   32.2030   37.8880 H   0  0  0  0  0  0  0  0  0  0  0  0
   38.8030   34.1610   40.5060 C   0  0  0  0  0  2  0  0  0  0  0  0
   39.1690   33.5650   41.3430 H   0  0  0  0  0  0  0  0  0  0  0  0
  1  2  2  0  0  0  0
  1  3  1  0  0  0  0
  3  4  1  0  0  0  0
  3  5  1  0  0  0  0
  5  6  1  0  0  0  0
  6 13  1  0  0  0  0
  7  6  2  0  0  0  0
  7 11  1  0  0  0  0
  8  7  1  0  0  0  0
  9  8  2  0  0  0  0
 10  9  1  0  0  0  0
 10  5  2  0  0  0  0
 12  9  1  0  0  0  0
 13 14  1  0  0  0  0
 15 13  1  0  0  0  0
 16  1  1  0  0  0  0
 17 16  1  0  0  0  0
 18 17  1  0  0  0  0
 18 22  1  0  0  0  0
 19 18  1  0  0  0  0
 20 18  1  0  0  0  0
 21 20  1  0  0  0  0
 22 23  1  0  0  0  0
M  END
>  <minimizedAffinity>
-4.42646694

$$$$

 OpenBabel03252501363D

 23 23  0  0  0  0  0  0  0  0999 V2000
   39.5300   31.7330   38.1710 C   0  0  0  0  0  0  0  0  0  0  0  0
   40.4310   31.4770   39.0300 O   0  0  0  0  0  0  0  0  0  0  0  0
   40.0740   32.2790   36.9660 N   0  0  0  0  0  0  0  0  0  0  0  0
   39.4730   32.5190   36.1630 H   0  0  0  0  0  0  0  0  0  0  0  0
   41.5200   32.4050   37.1130 C   0  0  0  0  0  0  0  0  0  0  0  0
   42.4190   31.3970   36.8690 C   0  0  0  0  0  0  0  0  0  0  0  0
   43.7590   31.7210   37.0650 C   0  0  0  0  0  0  0  0  0  0  0  0
   44.0560   32.9700   37.4690 N   0  0  0  0  0  0  0  0  0  0  0  0
   43.1460   33.9240   37.6960 C   0  0  0  0  0  0  0  0  0  0  0  0
   41.8230   33.6610   37.5200 N   0  0  0  0  0  0  0  0  0  0  0  0
   44.4700   30.9310   36.8740 H   0  0  0  0  0  0  0  0  0  0  0  0
   43.4820   34.9010   38.0200 H   0  0  0  0  0  0  0  0  0  0  0  0
   41.9080   30.1530   36.4500 N   0  0  0  0  0  0  0  0  0  0  0  0
   42.0440   29.6180   35.5560 H   0  0  0  0  0  0  0  0  0  0  0  0
   41.2980   29.7320   37.1920 H   0  0  0  0  0  0  0  0  0  0  0  0
   38.1580   31.5310   38.3160 O   0  0  0  0  0  0  0  0  0  0  0  0
   37.3470   32.6690   38.6580 C   0  0  0  0  0  2  0  0  0  0  0  0
   37.1420   32.7860   40.0580 N   0  0  0  0  0  4  0  0  0  0  0  0
   36.2550   33.3220   40.1950 H   0  0  0  0  0  0  0  0  0  0  0  0
   38.1720   33.5880   40.6930 C   0  0  0  0  0  2  0  0  0  0  0  0
   38.1280   34.5940   40.1990 H   0  0  0  0  0  0  0  0  0  0  0  0
   36.9480   31.5290   40.7460 C   0  0  0  0  0  2  0  0  0  0  0  0
   37.8580   30.9450   40.8910 H   0  0  0  0  0  0  0  0  0  0  0  0
  1 16  1  0  0  0  0
  1  2  2  0  0  0  0
  3  5  1  0  0  0  0
  3  1  1  0  0  0  0
  4  3  1  0  0  0  0
  5 10  1  0  0  0  0
  6  7  1  0  0  0  0
  6  5  2  0  0  0  0
  7  8  2  0  0  0  0
  8  9  1  0  0  0  0
  9 12  1  0  0  0  0
 10  9  2  0  0  0  0
 11  7  1  0  0  0  0
 13  6  1  0  0  0  0
 13 15  1  0  0  0  0
 14 13  1  0  0  0  0
 16 17  1  0  0  0  0
 17 18  1  0  0  0  0
 18 19  1  0  0  0  0
 18 20  1  0  0  0  0
 18 22  1  0  0  0  0
 21 20  1  0  0  0  0
 22 23  1  0  0  0  0
M  END
>  <minimizedAffinity>
-4.21712255

$$$$

 OpenBabel03252501363D

 23 23  0  0  0  0  0  0  0  0999 V2000
   37.3110   27.9880   42.2450 C   0  0  0  0  0  0  0  0  0  0  0  0
   37.7260   28.0990   41.0490 O   0  0  0  0  0  0  0  0  0  0  0  0
   37.2170   29.2550   42.9020 N   0  0  0  0  0  0  0  0  0  0  0  0
   36.8760   29.3360   43.8720 H   0  0  0  0  0  0  0  0  0  0  0  0
   37.6660   30.2990   41.9860 C   0  0  0  0  0  0  0  0  0  0  0  0
   36.8510   30.9630   41.1040 C   0  0  0  0  0  0  0  0  0  0  0  0
   37.4720   31.9300   40.3180 C   0  0  0  0  0  0  0  0  0  0  0  0
   38.7940   32.1290   40.4850 N   0  0  0  0  0  0  0  0  0  0  0  0
   39.5510   31.4570   41.3590 C   0  0  0  0  0  0  0  0  0  0  0  0
   38.9950   30.5020   42.1510 N   0  0  0  0  0  0  0  0  0  0  0  0
   36.8360   32.4560   39.6220 H   0  0  0  0  0  0  0  0  0  0  0  0
   40.6070   31.6870   41.4210 H   0  0  0  0  0  0  0  0  0  0  0  0
   35.4880   30.6100   41.0790 N   0  0  0  0  0  0  0  0  0  0  0  0
   34.6270   31.1700   41.3000 H   0  0  0  0  0  0  0  0  0  0  0  0
   35.3670   29.6110   40.7840 H   0  0  0  0  0  0  0  0  0  0  0  0
   36.9710   26.8070   42.9030 O   0  0  0  0  0  0  0  0  0  0  0  0
   37.1420   25.5700   42.1890 C   0  0  0  0  0  2  0  0  0  0  0  0
   38.4950   25.3390   41.8230 N   0  0  0  0  0  4  0  0  0  0  0  0
   38.9400   26.2750   41.6850 H   0  0  0  0  0  0  0  0  0  0  0  0
   38.6050   24.6720   40.5390 C   0  0  0  0  0  2  0  0  0  0  0  0
   38.1030   25.3470   39.7970 H   0  0  0  0  0  0  0  0  0  0  0  0
   39.2870   24.6760   42.8360 C   0  0  0  0  0  2  0  0  0  0  0  0
   39.0930   23.6080   42.9370 H   0  0  0  0  0  0  0  0  0  0  0  0
  1  3  1  0  0  0  0
  1 16  1  0  0  0  0
  2  1  2  0  0  0  0
  3  4  1  0  0  0  0
  5 10  1  0  0  0  0
  5  3  1  0  0  0  0
  6  5  2  0  0  0  0
  7  8  2  0  0  0  0
  7  6  1  0  0  0  0
  8  9  1  0  0  0  0
  9 12  1  0  0  0  0
  9 10  2  0  0  0  0
 11  7  1  0  0  0  0
 13  6  1  0  0  0  0
 13 14  1  0  0  0  0
 15 13  1  0  0  0  0
 17 16  1  0  0  0  0
 18 17  1  0  0  0  0
 18 22  1  0  0  0  0
 19 18  1  0  0  0  0
 20 18  1  0  0  0  0
 21 20  1  0  0  0  0
 22 23  1  0  0  0  0
M  END
>  <minimizedAffinity>
-4.21560574

$$$$

 OpenBabel03252501363D

 23 23  0  0  0  0  0  0  0  0999 V2000
   38.1100   31.5830   39.4450 C   0  0  0  0  0  0  0  0  0  0  0  0
   39.0790   30.7660   39.5330 O   0  0  0  0  0  0  0  0  0  0  0  0
   38.5510   32.9140   39.1630 N   0  0  0  0  0  0  0  0  0  0  0  0
   37.8820   33.6890   39.0400 H   0  0  0  0  0  0  0  0  0  0  0  0
   40.0090   32.9260   39.0940 C   0  0  0  0  0  0  0  0  0  0  0  0
   40.7370   32.6420   37.9660 C   0  0  0  0  0  0  0  0  0  0  0  0
   42.1210   32.7120   38.1060 C   0  0  0  0  0  0  0  0  0  0  0  0
   42.6190   33.0470   39.3120 N   0  0  0  0  0  0  0  0  0  0  0  0
   41.8700   33.3170   40.3870 C   0  0  0  0  0  0  0  0  0  0  0  0
   40.5130   33.2620   40.3050 N   0  0  0  0  0  0  0  0  0  0  0  0
   42.6980   32.4900   37.2220 H   0  0  0  0  0  0  0  0  0  0  0  0
   42.3630   33.5770   41.3150 H   0  0  0  0  0  0  0  0  0  0  0  0
   40.0280   32.3130   36.7950 N   0  0  0  0  0  0  0  0  0  0  0  0
   39.9770   32.7930   35.8620 H   0  0  0  0  0  0  0  0  0  0  0  0
   39.4740   31.4320   36.9300 H   0  0  0  0  0  0  0  0  0  0  0  0
   36.7550   31.2880   39.5940 O   0  0  0  0  0  0  0  0  0  0  0  0
   36.2580   31.0850   40.9280 C   0  0  0  0  0  2  0  0  0  0  0  0
   35.6800   29.7990   41.1000 N   0  0  0  0  0  4  0  0  0  0  0  0
   34.9720   29.8800   41.8640 H   0  0  0  0  0  0  0  0  0  0  0  0
   36.6480   28.8290   41.5810 C   0  0  0  0  0  2  0  0  0  0  0  0
   37.0260   29.2290   42.5580 H   0  0  0  0  0  0  0  0  0  0  0  0
   34.9580   29.3030   39.9490 C   0  0  0  0  0  2  0  0  0  0  0  0
   35.5910   28.9520   39.1330 H   0  0  0  0  0  0  0  0  0  0  0  0
  1  2  2  0  0  0  0
  1 16  1  0  0  0  0
  3  1  1  0  0  0  0
  4  3  1  0  0  0  0
  5  3  1  0  0  0  0
  5 10  1  0  0  0  0
  6  7  1  0  0  0  0
  6  5  2  0  0  0  0
  7  8  2  0  0  0  0
  8  9  1  0  0  0  0
  9 12  1  0  0  0  0
 10  9  2  0  0  0  0
 11  7  1  0  0  0  0
 13 15  1  0  0  0  0
 13  6  1  0  0  0  0
 14 13  1  0  0  0  0
 16 17  1  0  0  0  0
 17 18  1  0  0  0  0
 18 20  1  0  0  0  0
 18 19  1  0  0  0  0
 20 21  1  0  0  0  0
 22 18  1  0  0  0  0
 23 22  1  0  0  0  0
M  END
>  <minimizedAffinity>
-4.16510153

$$$$

 OpenBabel03252501363D

 23 23  0  0  0  0  0  0  0  0999 V2000
   37.3090   30.8200   40.9200 C   0  0  0  0  0  0  0  0  0  0  0  0
   38.3270   30.0990   40.6760 O   0  0  0  0  0  0  0  0  0  0  0  0
   36.3540   30.1440   41.7430 N   0  0  0  0  0  0  0  0  0  0  0  0
   35.4840   30.6030   42.0480 H   0  0  0  0  0  0  0  0  0  0  0  0
   36.8420   28.7970   42.0250 C   0  0  0  0  0  0  0  0  0  0  0  0
   36.6740   27.7190   41.1930 C   0  0  0  0  0  0  0  0  0  0  0  0
   37.2180   26.5180   41.6420 C   0  0  0  0  0  0  0  0  0  0  0  0
   37.8510   26.5150   42.8310 N   0  0  0  0  0  0  0  0  0  0  0  0
   37.9910   27.5920   43.6110 C   0  0  0  0  0  0  0  0  0  0  0  0
   37.4790   28.7900   43.2190 N   0  0  0  0  0  0  0  0  0  0  0  0
   37.0890   25.6670   40.9920 H   0  0  0  0  0  0  0  0  0  0  0  0
   38.5170   27.4920   44.5520 H   0  0  0  0  0  0  0  0  0  0  0  0
   35.9800   27.9260   39.9850 N   0  0  0  0  0  0  0  0  0  0  0  0
   36.2920   27.8320   38.9860 H   0  0  0  0  0  0  0  0  0  0  0  0
   34.9900   28.2200   40.1700 H   0  0  0  0  0  0  0  0  0  0  0  0
   37.0830   32.1220   40.4740 O   0  0  0  0  0  0  0  0  0  0  0  0
   37.5610   32.4720   39.1630 C   0  0  0  0  0  2  0  0  0  0  0  0
   38.6750   33.3520   39.2100 N   0  0  0  0  0  4  0  0  0  0  0  0
   38.5650   34.0300   38.4220 H   0  0  0  0  0  0  0  0  0  0  0  0
   39.9250   32.6630   38.9480 C   0  0  0  0  0  2  0  0  0  0  0  0
   39.8190   32.2110   37.9270 H   0  0  0  0  0  0  0  0  0  0  0  0
   38.7550   34.1590   40.4090 C   0  0  0  0  0  2  0  0  0  0  0  0
   39.0940   33.6220   41.2950 H   0  0  0  0  0  0  0  0  0  0  0  0
  1  3  1  0  0  0  0
  2  1  2  0  0  0  0
  3  5  1  0  0  0  0
  3  4  1  0  0  0  0
  5 10  1  0  0  0  0
  6  7  1  0  0  0  0
  6  5  2  0  0  0  0
  7  8  2  0  0  0  0
  8  9  1  0  0  0  0
  9 12  1  0  0  0  0
 10  9  2  0  0  0  0
 11  7  1  0  0  0  0
 13 15  1  0  0  0  0
 13  6  1  0  0  0  0
 14 13  1  0  0  0  0
 16  1  1  0  0  0  0
 17 18  1  0  0  0  0
 17 16  1  0  0  0  0
 18 22  1  0  0  0  0
 19 18  1  0  0  0  0
 20 18  1  0  0  0  0
 21 20  1  0  0  0  0
 22 23  1  0  0  0  0
M  END
>  <minimizedAffinity>
-4.11815596

$$$$

 OpenBabel03252501363D

 23 23  0  0  0  0  0  0  0  0999 V2000
   35.3440   29.2830   39.9380 C   0  0  0  0  0  0  0  0  0  0  0  0
   36.4520   28.7220   39.6700 O   0  0  0  0  0  0  0  0  0  0  0  0
   35.4620   30.2270   41.0060 N   0  0  0  0  0  0  0  0  0  0  0  0
   34.6550   30.7820   41.3280 H   0  0  0  0  0  0  0  0  0  0  0  0
   36.8400   30.2290   41.4870 C   0  0  0  0  0  0  0  0  0  0  0  0
   37.3470   29.3400   42.4010 C   0  0  0  0  0  0  0  0  0  0  0  0
   38.6910   29.5070   42.7260 C   0  0  0  0  0  0  0  0  0  0  0  0
   39.3670   30.5070   42.1290 N   0  0  0  0  0  0  0  0  0  0  0  0
   38.8320   31.3530   41.2420 C   0  0  0  0  0  0  0  0  0  0  0  0
   37.5240   31.2340   40.8890 N   0  0  0  0  0  0  0  0  0  0  0  0
   39.0950   28.8100   43.4440 H   0  0  0  0  0  0  0  0  0  0  0  0
   39.4570   32.1270   40.8150 H   0  0  0  0  0  0  0  0  0  0  0  0
   36.4750   28.3600   42.9130 N   0  0  0  0  0  0  0  0  0  0  0  0
   36.4990   27.3120   42.8420 H   0  0  0  0  0  0  0  0  0  0  0  0
   35.6890   28.8030   43.4470 H   0  0  0  0  0  0  0  0  0  0  0  0
   34.1200   29.0560   39.3090 O   0  0  0  0  0  0  0  0  0  0  0  0
   34.1170   28.9490   37.8740 C   0  0  0  0  0  2  0  0  0  0  0  0
   33.4300   27.7920   37.4190 N   0  0  0  0  0  4  0  0  0  0  0  0
   32.7990   27.4840   38.1940 H   0  0  0  0  0  0  0  0  0  0  0  0
   34.3310   26.6760   37.1980 C   0  0  0  0  0  2  0  0  0  0  0  0
   34.8280   26.4810   38.1850 H   0  0  0  0  0  0  0  0  0  0  0  0
   32.5680   28.0130   36.2790 C   0  0  0  0  0  2  0  0  0  0  0  0
   33.0920   28.1210   35.3280 H   0  0  0  0  0  0  0  0  0  0  0  0
  1  3  1  0  0  0  0
  2  1  2  0  0  0  0
  3  4  1  0  0  0  0
  3  5  1  0  0  0  0
  5  6  1  0  0  0  0
  6  7  2  0  0  0  0
  6 13  1  0  0  0  0
  7 11  1  0  0  0  0
  8  7  1  0  0  0  0
  9  8  2  0  0  0  0
 10  9  1  0  0  0  0
 10  5  2  0  0  0  0
 12  9  1  0  0  0  0
 13 15  1  0  0  0  0
 14 13  1  0  0  0  0
 16  1  1  0  0  0  0
 17 16  1  0  0  0  0
 18 17  1  0  0  0  0
 18 19  1  0  0  0  0
 20 18  1  0  0  0  0
 20 21  1  0  0  0  0
 22 18  1  0  0  0  0
 23 22  1  0  0  0  0
M  END
>  <minimizedAffinity>
-4.03045511

$$$$

 OpenBabel03252501363D

 23 23  0  0  0  0  0  0  0  0999 V2000
   37.2140   29.2910   41.9560 C   0  0  0  0  0  0  0  0  0  0  0  0
   38.0790   29.0370   41.0600 O   0  0  0  0  0  0  0  0  0  0  0  0
   36.1690   30.1390   41.4710 N   0  0  0  0  0  0  0  0  0  0  0  0
   35.3790   30.4190   42.0710 H   0  0  0  0  0  0  0  0  0  0  0  0
   36.4440   30.4820   40.0790 C   0  0  0  0  0  0  0  0  0  0  0  0
   37.0080   31.6630   39.6650 C   0  0  0  0  0  0  0  0  0  0  0  0
   37.1920   31.7960   38.2910 C   0  0  0  0  0  0  0  0  0  0  0  0
   36.8110   30.7760   37.5000 N   0  0  0  0  0  0  0  0  0  0  0  0
   36.2640   29.6400   37.9470 C   0  0  0  0  0  0  0  0  0  0  0  0
   36.0610   29.4590   39.2800 N   0  0  0  0  0  0  0  0  0  0  0  0
   37.6350   32.7230   37.9600 H   0  0  0  0  0  0  0  0  0  0  0  0
   35.9890   28.8750   37.2320 H   0  0  0  0  0  0  0  0  0  0  0  0
   37.3410   32.6110   40.6520 N   0  0  0  0  0  0  0  0  0  0  0  0
   38.2690   33.0120   40.9370 H   0  0  0  0  0  0  0  0  0  0  0  0
   36.4820   32.9390   41.1570 H   0  0  0  0  0  0  0  0  0  0  0  0
   37.2190   28.8330   43.2730 O   0  0  0  0  0  0  0  0  0  0  0  0
   37.3290   27.4140   43.4860 C   0  0  0  0  0  2  0  0  0  0  0  0
   38.4640   26.8570   42.8400 N   0  0  0  0  0  4  0  0  0  0  0  0
   38.7300   27.5090   42.0680 H   0  0  0  0  0  0  0  0  0  0  0  0
   38.1540   25.5990   42.1850 C   0  0  0  0  0  2  0  0  0  0  0  0
   37.3470   25.8300   41.4410 H   0  0  0  0  0  0  0  0  0  0  0  0
   39.6390   26.7440   43.6770 C   0  0  0  0  0  2  0  0  0  0  0  0
   39.6040   25.9290   44.4010 H   0  0  0  0  0  0  0  0  0  0  0  0
  1 16  1  0  0  0  0
  2  1  2  0  0  0  0
  3  1  1  0  0  0  0
  3  4  1  0  0  0  0
  5  3  1  0  0  0  0
  6  5  1  0  0  0  0
  6 13  1  0  0  0  0
  7  6  2  0  0  0  0
  8  9  2  0  0  0  0
  8  7  1  0  0  0  0
  9 10  1  0  0  0  0
 10  5  2  0  0  0  0
 11  7  1  0  0  0  0
 12  9  1  0  0  0  0
 13 14  1  0  0  0  0
 13 15  1  0  0  0  0
 16 17  1  0  0  0  0
 18 17  1  0  0  0  0
 18 22  1  0  0  0  0
 19 18  1  0  0  0  0
 20 18  1  0  0  0  0
 21 20  1  0  0  0  0
 22 23  1  0  0  0  0
M  END
>  <minimizedAffinity>
-3.99267268

$$$$

 OpenBabel03252501363D

 23 23  0  0  0  0  0  0  0  0999 V2000
   37.0040   27.9180   40.1730 C   0  0  0  0  0  0  0  0  0  0  0  0
   38.0870   28.5740   40.2790 O   0  0  0  0  0  0  0  0  0  0  0  0
   35.9750   28.6770   39.5310 N   0  0  0  0  0  0  0  0  0  0  0  0
   35.0430   28.2760   39.3500 H   0  0  0  0  0  0  0  0  0  0  0  0
   36.4900   30.0070   39.2210 C   0  0  0  0  0  0  0  0  0  0  0  0
   36.4450   31.0780   40.0770 C   0  0  0  0  0  0  0  0  0  0  0  0
   36.9950   32.2620   39.5930 C   0  0  0  0  0  0  0  0  0  0  0  0
   37.5160   32.2580   38.3510 N   0  0  0  0  0  0  0  0  0  0  0  0
   37.5390   31.1880   37.5490 C   0  0  0  0  0  0  0  0  0  0  0  0
   37.0150   30.0060   37.9720 N   0  0  0  0  0  0  0  0  0  0  0  0
   36.9620   33.1080   40.2630 H   0  0  0  0  0  0  0  0  0  0  0  0
   37.9800   31.2820   36.5650 H   0  0  0  0  0  0  0  0  0  0  0  0
   35.8570   30.8810   41.3410 N   0  0  0  0  0  0  0  0  0  0  0  0
   36.2630   30.9460   42.3080 H   0  0  0  0  0  0  0  0  0  0  0  0
   34.8430   30.6300   41.2460 H   0  0  0  0  0  0  0  0  0  0  0  0
   36.7740   26.6120   40.6060 O   0  0  0  0  0  0  0  0  0  0  0  0
   37.3640   26.2090   41.8540 C   0  0  0  0  0  2  0  0  0  0  0  0
   37.4600   27.2820   42.7790 N   0  0  0  0  0  4  0  0  0  0  0  0
   37.4740   28.1670   42.2230 H   0  0  0  0  0  0  0  0  0  0  0  0
   38.7200   27.2670   43.5000 C   0  0  0  0  0  2  0  0  0  0  0  0
   39.5230   27.3420   42.7200 H   0  0  0  0  0  0  0  0  0  0  0  0
   36.3340   27.4040   43.6790 C   0  0  0  0  0  2  0  0  0  0  0  0
   36.3130   26.6660   44.4810 H   0  0  0  0  0  0  0  0  0  0  0  0
  1  2  2  0  0  0  0
  1 16  1  0  0  0  0
  3  1  1  0  0  0  0
  4  3  1  0  0  0  0
  5  3  1  0  0  0  0
  5  6  1  0  0  0  0
  6 13  1  0  0  0  0
  7  6  2  0  0  0  0
  7 11  1  0  0  0  0
  8  7  1  0  0  0  0
  9 10  1  0  0  0  0
  9  8  2  0  0  0  0
 10  5  2  0  0  0  0
 12  9  1  0  0  0  0
 13 14  1  0  0  0  0
 15 13  1  0  0  0  0
 16 17  1  0  0  0  0
 17 18  1  0  0  0  0
 18 20  1  0  0  0  0
 18 22  1  0  0  0  0
 19 18  1  0  0  0  0
 21 20  1  0  0  0  0
 22 23  1  0  0  0  0
M  END
>  <minimizedAffinity>
-3.95747328

$$$$

 OpenBabel03252501363D

 23 23  0  0  0  0  0  0  0  0999 V2000
   37.7920   28.9540   41.9490 C   0  0  0  0  0  0  0  0  0  0  0  0
   38.3600   28.2770   41.0360 O   0  0  0  0  0  0  0  0  0  0  0  0
   37.5240   28.1690   43.1150 N   0  0  0  0  0  0  0  0  0  0  0  0
   37.0860   28.5790   43.9520 H   0  0  0  0  0  0  0  0  0  0  0  0
   37.9680   26.7990   42.8750 C   0  0  0  0  0  0  0  0  0  0  0  0
   39.2360   26.3370   43.1200 C   0  0  0  0  0  0  0  0  0  0  0  0
   39.4580   24.9940   42.8280 C   0  0  0  0  0  0  0  0  0  0  0  0
   38.4300   24.2740   42.3390 N   0  0  0  0  0  0  0  0  0  0  0  0
   37.2070   24.7660   42.1150 C   0  0  0  0  0  0  0  0  0  0  0  0
   36.9370   26.0720   42.3830 N   0  0  0  0  0  0  0  0  0  0  0  0
   40.4540   24.6260   43.0190 H   0  0  0  0  0  0  0  0  0  0  0  0
   36.4430   24.1090   41.7190 H   0  0  0  0  0  0  0  0  0  0  0  0
   40.1770   27.2500   43.6360 N   0  0  0  0  0  0  0  0  0  0  0  0
   40.6970   27.2620   44.5490 H   0  0  0  0  0  0  0  0  0  0  0  0
   40.3510   28.0290   42.9560 H   0  0  0  0  0  0  0  0  0  0  0  0
   37.4410   30.3030   41.8920 O   0  0  0  0  0  0  0  0  0  0  0  0
   36.2910   30.6620   41.1070 C   0  0  0  0  0  2  0  0  0  0  0  0
   36.6000   31.6110   40.0960 N   0  0  0  0  0  4  0  0  0  0  0  0
   35.7610   32.2230   39.9820 H   0  0  0  0  0  0  0  0  0  0  0  0
   36.7930   30.9840   38.8010 C   0  0  0  0  0  2  0  0  0  0  0  0
   35.8310   30.4560   38.5690 H   0  0  0  0  0  0  0  0  0  0  0  0
   37.6920   32.5030   40.4220 C   0  0  0  0  0  2  0  0  0  0  0  0
   38.6820   32.0520   40.3540 H   0  0  0  0  0  0  0  0  0  0  0  0
  1  3  1  0  0  0  0
  2  1  2  0  0  0  0
  3  4  1  0  0  0  0
  5  3  1  0  0  0  0
  5  6  1  0  0  0  0
  6 13  1  0  0  0  0
  7 11  1  0  0  0  0
  7  6  2  0  0  0  0
  8  7  1  0  0  0  0
  9  8  2  0  0  0  0
  9 10  1  0  0  0  0
 10  5  2  0  0  0  0
 12  9  1  0  0  0  0
 13 14  1  0  0  0  0
 15 13  1  0  0  0  0
 16  1  1  0  0  0  0
 17 16  1  0  0  0  0
 18 22  1  0  0  0  0
 18 17  1  0  0  0  0
 19 18  1  0  0  0  0
 20 18  1  0  0  0  0
 21 20  1  0  0  0  0
 23 22  1  0  0  0  0
M  END
>  <minimizedAffinity>
-3.9126718

$$$$
