REMARK  Name = 
REMARK  10 active torsions:
REMARK  status: ('A' for Active; 'I' for Inactive)
REMARK    1  A    between atoms: C_3  and  C_8
REMARK    2  A    between atoms: C_7  and  O_15
REMARK    3  A    between atoms: C_8  and  C_13
REMARK    4  A    between atoms: O_15  and  P_17
REMARK    5  A    between atoms: P_17  and  O_18
REMARK    6  A    between atoms: P_17  and  O_19
REMARK    7  A    between atoms: O_19  and  C_29
REMARK    8  A    between atoms: C_29  and  N_30
REMARK    9  A    between atoms: N_30  and  C_31
REMARK   10  A    between atoms: N_30  and  C_33
REMARK                            x       y       z     vdW  Elec       q    Type
REMARK                         _______ _______ _______ _____ _____    ______ ____
ROOT
ATOM      1 BR   UNL     1      45.746  29.885  44.870  0.00  0.00    +0.000 Br
ATOM      2  C   UNL     1      45.701  30.599  46.665  0.00  0.00    +0.000 A 
ATOM      3  C   UNL     1      46.330  31.805  46.842  0.00  0.00    +0.000 A 
ATOM      4  C   UNL     1      46.275  32.286  48.151  0.00  0.00    +0.000 A 
ATOM      5  C   UNL     1      45.650  31.622  49.184  0.00  0.00    +0.000 A 
ATOM      6  C   UNL     1      45.047  30.424  48.924  0.00  0.00    +0.000 A 
ATOM      7  C   UNL     1      45.061  29.891  47.660  0.00  0.00    +0.000 A 
ATOM      8  H   UNL     1      46.748  33.240  48.384  0.00  0.00    +0.000 HD
ATOM      9  H   UNL     1      45.643  32.054  50.189  0.00  0.00    +0.000 HD
ATOM     10  H   UNL     1      44.564  29.933  49.771  0.00  0.00    +0.000 HD
ENDROOT
BRANCH   3  11
ATOM     11  C   UNL     1      47.020  32.603  45.844  0.00  0.00    +0.000 C 
ATOM     12  H   UNL     1      47.318  31.923  45.003  0.00  0.00    +0.000 HD
ATOM     13  H   UNL     1      47.973  33.066  46.198  0.00  0.00    +0.000 HD
BRANCH  11  18
ATOM     14  C   UNL     1      44.514  35.323  45.390  0.00  0.00    +0.000 A 
ATOM     15  C   UNL     1      44.741  35.708  44.054  0.00  0.00    +0.000 A 
ATOM     16  C   UNL     1      45.734  35.038  43.345  0.00  0.00    +0.000 A 
ATOM     17  N   UNL     1      46.429  34.061  43.956  0.00  0.00    +0.000 NA
ATOM     18  C   UNL     1      46.192  33.700  45.260  0.00  0.00    +0.000 A 
ATOM     19  N   UNL     1      45.226  34.359  45.934  0.00  0.00    +0.000 NA
ATOM     20  H   UNL     1      43.780  35.751  46.062  0.00  0.00    +0.000 HD
ATOM     21  H   UNL     1      44.119  36.502  43.682  0.00  0.00    +0.000 HD
ATOM     22  H   UNL     1      45.898  35.339  42.331  0.00  0.00    +0.000 HD
ENDBRANCH  11  18
ENDBRANCH   3  11
BRANCH   7  23
ATOM     23  O   UNL     1      44.447  28.674  47.400  0.00  0.00    +0.000 OA
BRANCH  23  25
ATOM     24  O   UNL     1      44.520  26.104  47.023  0.00  0.00    +0.000 OA
ATOM     25  P   UNL     1      45.039  27.178  47.966  0.00  0.00    +0.000 P 
BRANCH  25  26
ATOM     26  O   UNL     1      44.429  26.945  49.511  0.00  0.00    +0.000 OA
ATOM     27  H   UNL     1      45.007  27.242  50.241  0.00  0.00    +0.000 HD
ENDBRANCH  25  26
BRANCH  25  28
ATOM     28  O   UNL     1      46.717  27.132  47.957  0.00  0.00    +0.000 OA
BRANCH  28  29
ATOM     29  C   UNL     1      47.203  25.954  47.394  0.00  0.00    +0.000 C 
BRANCH  29  30
ATOM     30  N   UNL     1      46.783  25.771  46.021  0.00  0.00    +0.000 N 
ATOM     31  H   UNL     1      46.562  26.677  45.562  0.00  0.00    +0.000 HD
BRANCH  30  32
ATOM     32  C   UNL     1      47.860  25.080  45.316  0.00  0.00    +0.000 C 
ATOM     33  H   UNL     1      48.813  25.397  45.804  0.00  0.00    +0.000 HD
ENDBRANCH  30  32
BRANCH  30  34
ATOM     34  C   UNL     1      45.613  24.909  45.928  0.00  0.00    +0.000 C 
ATOM     35  H   UNL     1      44.697  25.402  46.313  0.00  0.00    +0.000 HD
ENDBRANCH  30  34
ENDBRANCH  29  30
ENDBRANCH  28  29
ENDBRANCH  25  28
ENDBRANCH  23  25
ENDBRANCH   7  23
TORSDOF 10
