
 OpenBabel03252502553D

 35 36  0  0  0  0  0  0  0  0999 V2000
   45.6170   29.9340   44.8360 Br  0  0  0  0  0  0  0  0  0  0  0  0
   45.6580   30.6140   46.6440 C   0  0  0  0  0  0  0  0  0  0  0  0
   46.3380   31.7920   46.8220 C   0  0  0  0  0  0  0  0  0  0  0  0
   46.3450   32.2480   48.1410 C   0  0  0  0  0  0  0  0  0  0  0  0
   45.7300   31.5880   49.1820 C   0  0  0  0  0  0  0  0  0  0  0  0
   45.0730   30.4190   48.9210 C   0  0  0  0  0  0  0  0  0  0  0  0
   45.0250   29.9110   47.6470 C   0  0  0  0  0  0  0  0  0  0  0  0
   46.8610   33.1790   48.3760 H   0  0  0  0  0  0  0  0  0  0  0  0
   45.7720   32.0000   50.1950 H   0  0  0  0  0  0  0  0  0  0  0  0
   44.6000   29.9300   49.7740 H   0  0  0  0  0  0  0  0  0  0  0  0
   47.0250   32.5830   45.8170 C   0  0  0  0  0  0  0  0  0  0  0  0
   47.3060   31.9000   44.9720 H   0  0  0  0  0  0  0  0  0  0  0  0
   47.9860   33.0360   46.1600 H   0  0  0  0  0  0  0  0  0  0  0  0
   44.5330   35.3200   45.3870 C   0  0  0  0  0  0  0  0  0  0  0  0
   44.7580   35.7120   44.0530 C   0  0  0  0  0  0  0  0  0  0  0  0
   45.7440   35.0400   43.3360 C   0  0  0  0  0  0  0  0  0  0  0  0
   46.4360   34.0550   43.9390 N   0  0  0  0  0  0  0  0  0  0  0  0
   46.2010   33.6880   45.2420 C   0  0  0  0  0  0  0  0  0  0  0  0
   45.2410   34.3490   45.9230 N   0  0  0  0  0  0  0  0  0  0  0  0
   43.8040   35.7480   46.0650 H   0  0  0  0  0  0  0  0  0  0  0  0
   44.1390   36.5110   43.6880 H   0  0  0  0  0  0  0  0  0  0  0  0
   45.9070   35.3460   42.3240 H   0  0  0  0  0  0  0  0  0  0  0  0
   44.3570   28.7230   47.3850 O   0  0  0  0  0  0  0  0  0  0  0  0
   44.2280   26.1570   46.9950 O   0  0  0  0  0  0  0  0  0  0  0  0
   44.9360   27.1900   47.8570 P   0  0  2  0  0  0  0  0  0  0  0  0
   44.5390   26.9750   49.4730 O   0  0  0  0  0  0  0  0  0  0  0  0
   45.2310   27.2310   50.1140 H   0  0  0  0  0  0  0  0  0  0  0  0
   46.5910   27.0500   47.6100 O   0  0  0  0  0  0  0  0  0  0  0  0
   46.9050   25.9710   46.7870 C   0  0  0  0  0  2  0  0  0  0  0  0
   46.7700   26.2780   45.3790 N   0  0  0  0  0  4  0  0  0  0  0  0
   45.9660   26.9120   45.1990 H   0  0  0  0  0  0  0  0  0  0  0  0
   48.0220   26.8860   44.9350 C   0  0  0  0  0  2  0  0  0  0  0  0
   48.4390   27.4320   45.8160 H   0  0  0  0  0  0  0  0  0  0  0  0
   46.5940   25.0730   44.5810 C   0  0  0  0  0  2  0  0  0  0  0  0
   45.6010   24.6040   44.7400 H   0  0  0  0  0  0  0  0  0  0  0  0
  1  2  1  0  0  0  0
  2  3  2  0  0  0  0
  2  7  1  0  0  0  0
  3  4  1  0  0  0  0
  4  8  1  0  0  0  0
  4  5  2  0  0  0  0
  5  9  1  0  0  0  0
  6  5  1  0  0  0  0
  6 10  1  0  0  0  0
  7  6  2  0  0  0  0
 11 13  1  0  0  0  0
 11  3  1  0  0  0  0
 12 11  1  0  0  0  0
 14 19  1  0  0  0  0
 14 20  1  0  0  0  0
 15 14  2  0  0  0  0
 16 17  2  0  0  0  0
 16 15  1  0  0  0  0
 17 18  1  0  0  0  0
 18 11  1  0  0  0  0
 18 19  2  0  0  0  0
 21 15  1  0  0  0  0
 22 16  1  0  0  0  0
 23  7  1  0  0  0  0
 23 25  1  0  0  0  0
 25 24  2  6  0  0  0
 25 26  1  0  0  0  0
 26 27  1  0  0  0  0
 28 25  1  0  0  0  0
 29 28  1  0  0  0  0
 30 29  1  0  0  0  0
 31 30  1  0  0  0  0
 32 30  1  0  0  0  0
 32 33  1  0  0  0  0
 34 35  1  0  0  0  0
 34 30  1  0  0  0  0
M  END
>  <minimizedAffinity>
-4.54876089

>  <minimizedRMSD>
0.68985033

$$$$
