REMARK  Name = 
REMARK  10 active torsions:
REMARK  status: ('A' for Active; 'I' for Inactive)
REMARK    1  A    between atoms: C_3  and  O_13
REMARK    2  A    between atoms: C_5  and  C_8
REMARK    3  A    between atoms: C_7  and  O_12
REMARK    4  A    between atoms: O_13  and  P_15
REMARK    5  A    between atoms: P_15  and  O_16
REMARK    6  A    between atoms: P_15  and  O_17
REMARK    7  A    between atoms: O_17  and  C_28
REMARK    8  A    between atoms: C_28  and  N_29
REMARK    9  A    between atoms: N_29  and  C_30
REMARK   10  A    between atoms: N_29  and  C_32
REMARK                            x       y       z     vdW  Elec       q    Type
REMARK                         _______ _______ _______ _____ _____    ______ ____
ROOT
ATOM      1  C   UNL     1      44.571  35.590  44.752  0.00  0.00    +0.000 A 
ATOM      2  C   UNL     1      45.147  35.735  43.478  0.00  0.00    +0.000 A 
ATOM      3  C   UNL     1      46.197  34.873  43.157  0.00  0.00    +0.000 A 
ATOM      4  N   UNL     1      46.599  33.965  44.065  0.00  0.00    +0.000 NA
ATOM      5  C   UNL     1      46.039  33.842  45.272  0.00  0.00    +0.000 A 
ATOM      6  N   UNL     1      45.013  34.665  45.616  0.00  0.00    +0.000 NA
ATOM      7  H   UNL     1      43.744  36.252  45.033  0.00  0.00    +0.000 HD
ATOM      8  H   UNL     1      44.761  36.487  42.822  0.00  0.00    +0.000 HD
ENDROOT
BRANCH   5  10
ATOM      9  C   UNL     1      45.411  32.553  47.323  0.00  0.00    +0.000 C 
ATOM     10  C   UNL     1      46.454  32.874  46.298  0.00  0.00    +0.000 C 
ATOM     11  C   UNL     1      46.593  31.474  45.656  0.00  0.00    +0.000 C 
ATOM     12  O   UNL     1      46.345  30.565  46.636  0.00  0.00    +0.000 OA
ATOM     13  C   UNL     1      45.967  31.217  47.808  0.00  0.00    +0.000 C 
ATOM     14  H   UNL     1      44.458  32.414  46.774  0.00  0.00    +0.000 HD
ATOM     15  H   UNL     1      47.425  33.119  46.775  0.00  0.00    +0.000 HD
ATOM     16  H   UNL     1      47.638  31.411  45.257  0.00  0.00    +0.000 HD
ATOM     17  H   UNL     1      45.876  31.418  44.833  0.00  0.00    +0.000 HD
ATOM     18  H   UNL     1      46.838  31.437  48.443  0.00  0.00    +0.000 HD
ATOM     19  H   UNL     1      45.172  30.655  48.352  0.00  0.00    +0.000 HD
BRANCH   9  20
ATOM     20  O   UNL     1      45.264  33.492  48.300  0.00  0.00    +0.000 OA
ATOM     21  H   UNL     1      44.574  34.121  48.040  0.00  0.00    +0.000 HD
ENDBRANCH   9  20
ENDBRANCH   5  10
BRANCH   3  22
ATOM     22  O   UNL     1      46.756  35.026  41.898  0.00  0.00    +0.000 OA
BRANCH  22  24
ATOM     23  O   UNL     1      48.598  33.255  41.150  0.00  0.00    +0.000 OA
ATOM     24  P   UNL     1      48.425  34.695  41.664  0.00  0.00    +0.000 P 
BRANCH  24  25
ATOM     25  O   UNL     1      49.034  35.786  40.582  0.00  0.00    +0.000 OA
ATOM     26  H   UNL     1      48.409  36.010  39.869  0.00  0.00    +0.000 HD
ENDBRANCH  24  25
BRANCH  24  27
ATOM     27  O   UNL     1      49.155  34.768  43.179  0.00  0.00    +0.000 OA
BRANCH  27  28
ATOM     28  C   UNL     1      49.162  36.029  43.715  0.00  0.00    +0.000 C 
BRANCH  28  29
ATOM     29  N   UNL     1      48.879  37.101  42.811  0.00  0.00    +0.000 N 
ATOM     30  H   UNL     1      47.855  37.214  42.733  0.00  0.00    +0.000 HD
BRANCH  29  31
ATOM     31  C   UNL     1      49.480  36.951  41.517  0.00  0.00    +0.000 C 
ATOM     32  H   UNL     1      48.878  37.426  40.741  0.00  0.00    +0.000 HD
ENDBRANCH  29  31
BRANCH  29  33
ATOM     33  C   UNL     1      49.348  38.357  43.421  0.00  0.00    +0.000 C 
ATOM     34  H   UNL     1      48.588  39.142  43.418  0.00  0.00    +0.000 HD
ENDBRANCH  29  33
ENDBRANCH  28  29
ENDBRANCH  27  28
ENDBRANCH  24  27
ENDBRANCH  22  24
ENDBRANCH   3  22
TORSDOF 10
