
 OpenBabel03252501033D

 29 30  0  0  1  0  0  0  0  0999 V2000
   47.9720   35.6020   41.9290 C   0  0  1  0  0  0  0  0  0  0  0  0
   49.3910   35.1820   42.0310 C   0  0  0  0  0  0  0  0  0  0  0  0
   48.6290   35.0810   40.7170 C   0  0  1  0  0  0  0  0  0  0  0  0
   47.7340   36.6840   42.0020 H   0  0  0  0  0  0  0  0  0  0  0  0
   49.7290   34.2130   42.3990 H   0  0  0  0  0  0  0  0  0  0  0  0
   50.1650   35.9780   42.1510 H   0  0  0  0  0  0  0  0  0  0  0  0
   49.0310   35.8010   39.9780 H   0  0  0  0  0  0  0  0  0  0  0  0
   46.4610   32.9780   44.1810 C   0  0  0  0  0  0  0  0  0  0  0  0
   47.4280   33.8040   43.5880 C   0  0  0  0  0  0  0  0  0  0  0  0
   46.9940   34.7010   42.6050 C   0  0  0  0  0  0  0  0  0  0  0  0
   45.6760   34.7400   42.2640 N   0  0  0  0  0  0  0  0  0  0  0  0
   44.7670   33.9290   42.8570 C   0  0  0  0  0  0  0  0  0  0  0  0
   45.1640   33.0470   43.8170 N   0  0  0  0  0  0  0  0  0  0  0  0
   46.7860   32.2830   44.9410 H   0  0  0  0  0  0  0  0  0  0  0  0
   48.4510   33.7160   43.9130 H   0  0  0  0  0  0  0  0  0  0  0  0
   43.7140   33.9690   42.5770 H   0  0  0  0  0  0  0  0  0  0  0  0
   48.1890   33.9200   40.2140 O   0  0  0  0  0  0  0  0  0  0  0  0
   49.0340   32.4460   38.1740 O   0  0  0  0  0  0  0  0  0  0  0  0
   48.2490   33.6680   38.5940 P   0  0  2  0  0  0  0  0  0  0  0  0
   48.9000   34.9690   37.7200 O   0  0  0  0  0  0  0  0  0  0  0  0
   48.9660   34.6770   36.7650 H   0  0  0  0  0  0  0  0  0  0  0  0
   46.6900   33.4210   38.0020 O   0  0  0  0  0  0  0  0  0  0  0  0
   45.7860   33.0920   38.9980 C   0  0  0  0  0  0  0  0  0  0  0  0
   44.5430   32.5790   38.4440 N   0  0  0  0  0  0  0  0  0  0  0  0
   44.2430   31.7620   39.0240 H   0  0  0  0  0  0  0  0  0  0  0  0
   43.4860   33.5800   38.5120 C   0  0  0  0  0  0  0  0  0  0  0  0
   43.6120   34.3650   37.7590 H   0  0  0  0  0  0  0  0  0  0  0  0
   44.6930   32.1610   37.0810 C   0  0  0  0  0  0  0  0  0  0  0  0
   45.2840   32.9240   36.5390 H   0  0  0  0  0  0  0  0  0  0  0  0
  1  4  1  1  0  0  0
  1  2  1  0  0  0  0
  1 10  1  0  0  0  0
  2  6  1  0  0  0  0
  2  5  1  0  0  0  0
  3  7  1  6  0  0  0
  3  1  1  0  0  0  0
  3  2  1  0  0  0  0
  8 14  1  0  0  0  0
  9 15  1  0  0  0  0
  9  8  2  0  0  0  0
 10  9  1  0  0  0  0
 11 10  2  0  0  0  0
 11 12  1  0  0  0  0
 12 13  2  0  0  0  0
 13  8  1  0  0  0  0
 16 12  1  0  0  0  0
 17  3  1  0  0  0  0
 19 18  2  6  0  0  0
 19 17  1  0  0  0  0
 20 19  1  0  0  0  0
 21 20  1  0  0  0  0
 22 19  1  0  0  0  0
 22 23  1  0  0  0  0
 24 26  1  0  0  0  0
 24 23  1  0  0  0  0
 24 25  1  0  0  0  0
 27 26  1  0  0  0  0
 28 24  1  0  0  0  0
 29 28  1  0  0  0  0
M  END
>  <minimizedAffinity>
-3.95680308

>  <minimizedRMSD>
1.13542414

$$$$
