
 OpenBabel03252502553D

 35 36  0  0  0  0  0  0  0  0999 V2000
   45.6300   29.9350   44.8420 Br  0  0  0  0  0  0  0  0  0  0  0  0
   45.6610   30.6170   46.6500 C   0  0  0  0  0  0  0  0  0  0  0  0
   46.3360   31.7970   46.8300 C   0  0  0  0  0  0  0  0  0  0  0  0
   46.3350   32.2550   48.1480 C   0  0  0  0  0  0  0  0  0  0  0  0
   45.7160   31.5940   49.1870 C   0  0  0  0  0  0  0  0  0  0  0  0
   45.0650   30.4230   48.9240 C   0  0  0  0  0  0  0  0  0  0  0  0
   45.0250   29.9130   47.6510 C   0  0  0  0  0  0  0  0  0  0  0  0
   46.8470   33.1880   48.3840 H   0  0  0  0  0  0  0  0  0  0  0  0
   45.7530   32.0070   50.1990 H   0  0  0  0  0  0  0  0  0  0  0  0
   44.5890   29.9330   49.7760 H   0  0  0  0  0  0  0  0  0  0  0  0
   47.0250   32.5890   45.8270 C   0  0  0  0  0  0  0  0  0  0  0  0
   47.3120   31.9060   44.9840 H   0  0  0  0  0  0  0  0  0  0  0  0
   47.9840   33.0450   46.1740 H   0  0  0  0  0  0  0  0  0  0  0  0
   44.5310   35.3220   45.3860 C   0  0  0  0  0  0  0  0  0  0  0  0
   44.7580   35.7100   44.0500 C   0  0  0  0  0  0  0  0  0  0  0  0
   45.7470   35.0380   43.3380 C   0  0  0  0  0  0  0  0  0  0  0  0
   46.4380   34.0560   43.9450 N   0  0  0  0  0  0  0  0  0  0  0  0
   46.2010   33.6920   45.2480 C   0  0  0  0  0  0  0  0  0  0  0  0
   45.2390   34.3530   45.9250 N   0  0  0  0  0  0  0  0  0  0  0  0
   43.8000   35.7510   46.0600 H   0  0  0  0  0  0  0  0  0  0  0  0
   44.1390   36.5090   43.6820 H   0  0  0  0  0  0  0  0  0  0  0  0
   45.9110   35.3420   42.3250 H   0  0  0  0  0  0  0  0  0  0  0  0
   44.3610   28.7230   47.3870 O   0  0  0  0  0  0  0  0  0  0  0  0
   44.2530   26.1580   46.9860 O   0  0  0  0  0  0  0  0  0  0  0  0
   44.9470   27.1920   47.8580 P   0  0  2  0  0  0  0  0  0  0  0  0
   44.5370   26.9680   49.4690 O   0  0  0  0  0  0  0  0  0  0  0  0
   45.2210   27.2260   50.1180 H   0  0  0  0  0  0  0  0  0  0  0  0
   46.6040   27.0630   47.6250 O   0  0  0  0  0  0  0  0  0  0  0  0
   46.9490   25.8740   46.9860 C   0  0  0  0  0  2  0  0  0  0  0  0
   47.7780   26.0830   45.8190 N   0  0  0  0  0  4  0  0  0  0  0  0
   48.3700   26.9320   45.9130 H   0  0  0  0  0  0  0  0  0  0  0  0
   48.6030   24.8900   45.6420 C   0  0  0  0  0  2  0  0  0  0  0  0
   48.7850   24.4760   46.6630 H   0  0  0  0  0  0  0  0  0  0  0  0
   46.9800   26.2110   44.6080 C   0  0  0  0  0  2  0  0  0  0  0  0
   46.4140   27.1650   44.5770 H   0  0  0  0  0  0  0  0  0  0  0  0
  1  2  1  0  0  0  0
  2  3  2  0  0  0  0
  2  7  1  0  0  0  0
  3  4  1  0  0  0  0
  4  8  1  0  0  0  0
  4  5  2  0  0  0  0
  5  9  1  0  0  0  0
  6  5  1  0  0  0  0
  6 10  1  0  0  0  0
  7  6  2  0  0  0  0
 11 13  1  0  0  0  0
 11  3  1  0  0  0  0
 12 11  1  0  0  0  0
 14 19  1  0  0  0  0
 14 20  1  0  0  0  0
 15 14  2  0  0  0  0
 16 17  2  0  0  0  0
 16 15  1  0  0  0  0
 17 18  1  0  0  0  0
 18 11  1  0  0  0  0
 18 19  2  0  0  0  0
 21 15  1  0  0  0  0
 22 16  1  0  0  0  0
 23  7  1  0  0  0  0
 23 25  1  0  0  0  0
 25 24  2  6  0  0  0
 25 26  1  0  0  0  0
 26 27  1  0  0  0  0
 28 25  1  0  0  0  0
 29 28  1  0  0  0  0
 30 31  1  0  0  0  0
 30 29  1  0  0  0  0
 32 30  1  0  0  0  0
 32 33  1  0  0  0  0
 34 30  1  0  0  0  0
 35 34  1  0  0  0  0
M  END
>  <minimizedAffinity>
-4.54131603

>  <minimizedRMSD>
0.521786332

$$$$
