
     RDKit          3D

 41 42  0  0  0  0  0  0  0  0999 V2000
   45.7463   29.8854   44.8695 Br  0  0  0  0  0  0  0  0  0  0  0  0
   45.7013   30.5995   46.6654 C   0  0  0  0  0  0  0  0  0  0  0  0
   46.3297   31.8055   46.8417 C   0  0  0  0  0  0  0  0  0  0  0  0
   46.2747   32.2863   48.1512 C   0  0  0  0  0  0  0  0  0  0  0  0
   45.6501   31.6224   49.1841 C   0  0  0  0  0  0  0  0  0  0  0  0
   45.0465   30.4237   48.9238 C   0  0  0  0  0  0  0  0  0  0  0  0
   45.0612   29.8909   47.6602 C   0  0  0  0  0  0  0  0  0  0  0  0
   47.0197   32.6027   45.8445 C   0  0  0  0  0  0  0  0  0  0  0  0
   44.5135   35.3231   45.3900 C   0  0  0  0  0  0  0  0  0  0  0  0
   44.7412   35.7079   44.0539 C   0  0  0  0  0  0  0  0  0  0  0  0
   45.7340   35.0380   43.3454 C   0  0  0  0  0  0  0  0  0  0  0  0
   46.4292   34.0611   43.9558 N   0  0  0  0  0  0  0  0  0  0  0  0
   46.1923   33.7000   45.2602 C   0  0  0  0  0  0  0  0  0  0  0  0
   45.2259   34.3594   45.9341 N   0  0  0  0  0  0  0  0  0  0  0  0
   44.4471   28.6735   47.3999 O   0  0  0  0  0  0  0  0  0  0  0  0
   44.5197   26.1037   47.0235 O   0  0  0  0  0  0  0  0  0  0  0  0
   45.0389   27.1781   47.9663 P   0  0  2  0  0  0  0  0  0  0  0  0
   44.4291   26.9446   49.5105 O   0  0  0  0  0  0  0  0  0  0  0  0
   46.7166   27.1321   47.9569 O   0  0  0  0  0  0  0  0  0  0  0  0
   46.7484   33.2396   48.3839 H   0  0  0  0  0  0  0  0  0  0  0  0
   45.6428   32.0539   50.1888 H   0  0  0  0  0  0  0  0  0  0  0  0
   44.5644   29.9334   49.7712 H   0  0  0  0  0  0  0  0  0  0  0  0
   47.3178   31.9227   45.0031 H   0  0  0  0  0  0  0  0  0  0  0  0
   47.9727   33.0661   46.1979 H   0  0  0  0  0  0  0  0  0  0  0  0
   43.7796   35.7505   46.0617 H   0  0  0  0  0  0  0  0  0  0  0  0
   44.1189   36.5021   43.6823 H   0  0  0  0  0  0  0  0  0  0  0  0
   45.8983   35.3386   42.3311 H   0  0  0  0  0  0  0  0  0  0  0  0
   45.0072   27.2416   50.2409 H   0  0  0  0  0  0  0  0  0  0  0  0
   47.2026   25.9543   47.3937 C   0  0  0  0  0  0  0  0  0  0  0  0
   48.0157   25.1848   48.3103 N   0  0  0  0  0  4  0  0  0  0  0  0
   47.8070   23.7707   48.0085 C   0  0  0  0  0  0  0  0  0  0  0  0
   46.7613   23.6776   47.6285 H   0  0  0  0  0  0  0  0  0  0  0  0
   49.4351   25.4409   48.1143 C   0  0  0  0  0  0  0  0  0  0  0  0
   49.7294   26.4565   48.4505 H   0  0  0  0  0  0  0  0  0  0  0  0
   46.2961   25.3546   47.1274 H   0  0  0  0  0  0  0  0  0  0  0  0
   47.7774   26.2167   46.4868 H   0  0  0  0  0  0  0  0  0  0  0  0
   47.7775   25.3908   49.3016 H   0  0  0  0  0  0  0  0  0  0  0  0
   47.9543   23.1231   48.8958 H   0  0  0  0  0  0  0  0  0  0  0  0
   48.4997   23.5216   47.1818 H   0  0  0  0  0  0  0  0  0  0  0  0
   49.7116   25.3882   47.0426 H   0  0  0  0  0  0  0  0  0  0  0  0
   50.0094   24.6479   48.6342 H   0  0  0  0  0  0  0  0  0  0  0  0
  1  2  1  0
  2  3  2  0
  2  7  1  0
  3  4  1  0
  4  5  2  0
  6  5  1  0
  7  6  2  0
  8  3  1  0
  9 14  2  0
 10  9  1  0
 11 12  1  0
 11 10  2  0
 12 13  2  0
 13  8  1  0
 13 14  1  0
 15  7  1  0
 17 15  1  6
 16 17  2  0
 17 18  1  0
 19 17  1  0
  4 20  1  0
  5 21  1  0
  6 22  1  0
  8 23  1  0
  8 24  1  0
  9 25  1  0
 10 26  1  0
 11 27  1  0
 18 28  1  0
 29 30  1  0
 30 31  1  0
 31 32  1  0
 30 33  1  0
 33 34  1  0
 29 35  1  0
 29 36  1  0
 30 37  1  0
 31 38  1  0
 31 39  1  0
 33 40  1  0
 33 41  1  0
 19 29  1  0
M  ISO  8  20  14  21  14  22  14  23   8  24   8  25  14  26  14  27  14
M  CHG  1  30   1
M  ISO  3  28   3  32   8  34   8
M  END
>  <DihAtoms>  (1) 
16,18,28,29

>  <DihDeg>  (1) 
-59.99675782433165

$$$$
