
     RDKit          3D

 38 39  0  0  0  0  0  0  0  0999 V2000
   46.8765   34.6179   42.2310 N   0  0  0  0  0  0  0  0  0  0  0  0
   48.3262   34.7907   42.2607 C   0  0  0  0  0  0  0  0  0  0  0  0
   48.6589   35.5195   40.9571 C   0  0  0  0  0  0  0  0  0  0  0  0
   48.3356   34.6421   39.7728 C   0  0  0  0  0  0  0  0  0  0  0  0
   47.1010   33.8190   39.9209 C   0  0  0  0  0  0  0  0  0  0  0  0
   46.1896   34.2673   41.0340 C   0  0  1  0  0  0  0  0  0  0  0  0
   44.5159   35.9765   44.7741 C   0  0  0  0  0  0  0  0  0  0  0  0
   45.2337   35.8906   43.5680 C   0  0  0  0  0  0  0  0  0  0  0  0
   46.1036   34.7981   43.4136 C   0  0  0  0  0  0  0  0  0  0  0  0
   46.1866   33.9083   44.4382 N   0  0  0  0  0  0  0  0  0  0  0  0
   45.4775   34.0308   45.5798 C   0  0  0  0  0  0  0  0  0  0  0  0
   44.6365   35.0798   45.7383 N   0  0  0  0  0  0  0  0  0  0  0  0
   45.3294   33.1753   41.2896 O   0  0  0  0  0  0  0  0  0  0  0  0
   48.7565   33.7722   42.2792 H   0  0  0  0  0  0  0  0  0  0  0  0
   48.6623   35.4098   43.1083 H   0  0  0  0  0  0  0  0  0  0  0  0
   48.1009   36.4611   40.9713 H   0  0  0  0  0  0  0  0  0  0  0  0
   49.7463   35.7215   40.9443 H   0  0  0  0  0  0  0  0  0  0  0  0
   48.1841   35.3236   38.8968 H   0  0  0  0  0  0  0  0  0  0  0  0
   49.1923   33.9926   39.4989 H   0  0  0  0  0  0  0  0  0  0  0  0
   47.4052   32.7744   40.1935 H   0  0  0  0  0  0  0  0  0  0  0  0
   46.4908   33.7339   39.0032 H   0  0  0  0  0  0  0  0  0  0  0  0
   45.5569   35.0854   40.6566 H   0  0  0  0  0  0  0  0  0  0  0  0
   43.8821   36.8671   44.7613 H   0  0  0  0  0  0  0  0  0  0  0  0
   45.1871   36.5760   42.7468 H   0  0  0  0  0  0  0  0  0  0  0  0
   45.5468   33.3214   46.3909 H   0  0  0  0  0  0  0  0  0  0  0  0
   44.0060   33.4666   40.9952 C   0  0  0  0  0  0  0  0  0  0  0  0
   43.2423   33.3105   42.2240 N   0  0  0  0  0  4  0  0  0  0  0  0
   44.1121   33.0985   43.3584 C   0  0  0  0  0  0  0  0  0  0  0  0
   43.5083   32.7609   44.2195 H   0  0  0  0  0  0  0  0  0  0  0  0
   42.4378   32.0989   42.0906 C   0  0  0  0  0  0  0  0  0  0  0  0
   43.0083   31.1817   42.3160 H   0  0  0  0  0  0  0  0  0  0  0  0
   43.9672   34.5091   40.6066 H   0  0  0  0  0  0  0  0  0  0  0  0
   43.6053   32.8027   40.2025 H   0  0  0  0  0  0  0  0  0  0  0  0
   42.6265   34.1119   42.4428 H   0  0  0  0  0  0  0  0  0  0  0  0
   44.8619   32.2922   43.1199 H   0  0  0  0  0  0  0  0  0  0  0  0
   44.6562   34.0260   43.6395 H   0  0  0  0  0  0  0  0  0  0  0  0
   42.1730   32.0163   41.0013 H   0  0  0  0  0  0  0  0  0  0  0  0
   41.5096   32.2186   42.6867 H   0  0  0  0  0  0  0  0  0  0  0  0
  1  2  1  0
  1  9  1  0
  3  2  1  0
  4  5  1  0
  4  3  1  0
  5  6  1  0
  6 13  1  0
  6  1  1  0
  7 12  2  0
  8  7  1  0
  9  8  2  0
  9 10  1  0
 10 11  2  0
 11 12  1  0
  2 14  1  0
  2 15  1  0
  3 16  1  0
  3 17  1  0
  4 18  1  0
  4 19  1  0
  5 20  1  0
  5 21  1  0
  6 22  1  6
  7 23  1  0
  8 24  1  0
 11 25  1  0
 26 27  1  0
 27 28  1  0
 28 29  1  0
 27 30  1  0
 30 31  1  0
 26 32  1  0
 26 33  1  0
 27 34  1  0
 28 35  1  0
 28 36  1  0
 30 37  1  0
 30 38  1  0
 13 26  1  0
M  ISO  8  14  13  15  13  16  13  17  13  18  13  19  13  20  13  21  13
M  CHG  1  27   1
M  ISO  6  22  13  23  14  24  14  25  14  29   8  31   8
M  END
>  <DihAtoms>  (1) 
5,12,25,26

>  <DihDeg>  (1) 
179.9996649639764

$$$$
