
 OpenBabel03252502573D

 35 36  0  0  0  0  0  0  0  0999 V2000
   41.7660   29.0660   42.6110 Br  0  0  0  0  0  0  0  0  0  0  0  0
   39.9010   28.6680   42.9270 C   0  0  0  0  0  0  0  0  0  0  0  0
   39.0160   29.6590   42.5880 C   0  0  0  0  0  0  0  0  0  0  0  0
   37.6810   29.3330   42.8320 C   0  0  0  0  0  0  0  0  0  0  0  0
   37.2720   28.1300   43.3650 C   0  0  0  0  0  0  0  0  0  0  0  0
   38.2190   27.1960   43.6770 C   0  0  0  0  0  0  0  0  0  0  0  0
   39.5500   27.4480   43.4630 C   0  0  0  0  0  0  0  0  0  0  0  0
   36.9060   30.0620   42.5910 H   0  0  0  0  0  0  0  0  0  0  0  0
   36.2080   27.9370   43.5320 H   0  0  0  0  0  0  0  0  0  0  0  0
   37.8510   26.2580   44.0960 H   0  0  0  0  0  0  0  0  0  0  0  0
   39.3130   30.9630   42.0220 C   0  0  0  0  0  0  0  0  0  0  0  0
   40.4230   31.0290   41.8710 H   0  0  0  0  0  0  0  0  0  0  0  0
   39.0560   31.8260   42.6820 H   0  0  0  0  0  0  0  0  0  0  0  0
   38.2340   30.6740   38.4670 C   0  0  0  0  0  0  0  0  0  0  0  0
   37.4100   31.8060   38.3200 C   0  0  0  0  0  0  0  0  0  0  0  0
   37.2420   32.6350   39.4260 C   0  0  0  0  0  0  0  0  0  0  0  0
   37.8660   32.3250   40.5770 N   0  0  0  0  0  0  0  0  0  0  0  0
   38.6670   31.2160   40.7000 C   0  0  0  0  0  0  0  0  0  0  0  0
   38.8200   30.4230   39.6180 N   0  0  0  0  0  0  0  0  0  0  0  0
   38.4570   29.9420   37.6990 H   0  0  0  0  0  0  0  0  0  0  0  0
   36.9680   31.9430   37.3490 H   0  0  0  0  0  0  0  0  0  0  0  0
   36.6130   33.4920   39.3030 H   0  0  0  0  0  0  0  0  0  0  0  0
   40.5090   26.4960   43.7810 O   0  0  0  0  0  0  0  0  0  0  0  0
   39.8780   24.0960   43.0070 O   0  0  0  0  0  0  0  0  0  0  0  0
   40.9110   25.1860   42.7650 P   0  0  2  0  0  0  0  0  0  0  0  0
   42.4380   24.6530   43.2090 O   0  0  0  0  0  0  0  0  0  0  0  0
   43.1810   25.0360   42.7030 H   0  0  0  0  0  0  0  0  0  0  0  0
   40.8610   25.6200   41.1450 O   0  0  0  0  0  0  0  0  0  0  0  0
   39.8860   24.9130   40.4450 C   0  0  0  0  0  2  0  0  0  0  0  0
   38.5560   25.4490   40.6350 N   0  0  0  0  0  4  0  0  0  0  0  0
   38.3310   25.5710   41.6430 H   0  0  0  0  0  0  0  0  0  0  0  0
   38.4900   26.7270   39.9300 C   0  0  0  0  0  2  0  0  0  0  0  0
   39.5170   27.1630   39.9620 H   0  0  0  0  0  0  0  0  0  0  0  0
   37.5420   24.5970   40.0340 C   0  0  0  0  0  2  0  0  0  0  0  0
   37.4120   23.6450   40.5880 H   0  0  0  0  0  0  0  0  0  0  0  0
  1  2  1  0  0  0  0
  2  7  1  0  0  0  0
  3  4  1  0  0  0  0
  3  2  2  0  0  0  0
  4  5  2  0  0  0  0
  5  9  1  0  0  0  0
  5  6  1  0  0  0  0
  6 10  1  0  0  0  0
  7  6  2  0  0  0  0
  7 23  1  0  0  0  0
  8  4  1  0  0  0  0
 11  3  1  0  0  0  0
 11 13  1  0  0  0  0
 12 11  1  0  0  0  0
 14 19  1  0  0  0  0
 15 14  2  0  0  0  0
 15 16  1  0  0  0  0
 16 17  2  0  0  0  0
 17 18  1  0  0  0  0
 18 11  1  0  0  0  0
 19 18  2  0  0  0  0
 20 14  1  0  0  0  0
 21 15  1  0  0  0  0
 22 16  1  0  0  0  0
 25 24  2  1  0  0  0
 25 26  1  0  0  0  0
 25 23  1  0  0  0  0
 27 26  1  0  0  0  0
 28 25  1  0  0  0  0
 29 30  1  0  0  0  0
 29 28  1  0  0  0  0
 30 31  1  0  0  0  0
 32 33  1  0  0  0  0
 32 30  1  0  0  0  0
 34 35  1  0  0  0  0
 34 30  1  0  0  0  0
M  END
>  <minimizedAffinity>
-5.12563753

$$$$

 OpenBabel03252502573D

 35 36  0  0  0  0  0  0  0  0999 V2000
   39.3950   29.5280   42.7340 Br  0  0  0  0  0  0  0  0  0  0  0  0
   37.7080   29.5150   41.7940 C   0  0  0  0  0  0  0  0  0  0  0  0
   36.9780   28.3580   41.8960 C   0  0  0  0  0  0  0  0  0  0  0  0
   35.7670   28.3890   41.2030 C   0  0  0  0  0  0  0  0  0  0  0  0
   35.3290   29.4750   40.4770 C   0  0  0  0  0  0  0  0  0  0  0  0
   36.1160   30.5900   40.4250 C   0  0  0  0  0  0  0  0  0  0  0  0
   37.3190   30.6310   41.0830 C   0  0  0  0  0  0  0  0  0  0  0  0
   35.1210   27.5120   41.2290 H   0  0  0  0  0  0  0  0  0  0  0  0
   34.3680   29.4340   39.9560 H   0  0  0  0  0  0  0  0  0  0  0  0
   35.7300   31.4270   39.8400 H   0  0  0  0  0  0  0  0  0  0  0  0
   37.3240   27.1500   42.6240 C   0  0  0  0  0  0  0  0  0  0  0  0
   36.4140   26.8130   43.1870 H   0  0  0  0  0  0  0  0  0  0  0  0
   38.1150   27.2870   43.4010 H   0  0  0  0  0  0  0  0  0  0  0  0
   39.0650   25.0950   40.0490 C   0  0  0  0  0  0  0  0  0  0  0  0
   38.4600   23.8350   40.2250 C   0  0  0  0  0  0  0  0  0  0  0  0
   37.4820   23.7150   41.2080 C   0  0  0  0  0  0  0  0  0  0  0  0
   37.1570   24.7950   41.9420 N   0  0  0  0  0  0  0  0  0  0  0  0
   37.7580   26.0160   41.7550 C   0  0  0  0  0  0  0  0  0  0  0  0
   38.7040   26.1160   40.7980 N   0  0  0  0  0  0  0  0  0  0  0  0
   39.8360   25.3390   39.3280 H   0  0  0  0  0  0  0  0  0  0  0  0
   38.8080   23.0530   39.5750 H   0  0  0  0  0  0  0  0  0  0  0  0
   37.0300   22.7530   41.3330 H   0  0  0  0  0  0  0  0  0  0  0  0
   38.1160   31.7660   41.0280 O   0  0  0  0  0  0  0  0  0  0  0  0
   39.4360   33.6550   39.8280 O   0  0  0  0  0  0  0  0  0  0  0  0
   38.1810   32.8090   39.6800 P   0  0  2  0  0  0  0  0  0  0  0  0
   36.8130   33.7780   39.7240 O   0  0  0  0  0  0  0  0  0  0  0  0
   36.0510   33.4540   39.2060 H   0  0  0  0  0  0  0  0  0  0  0  0
   38.2800   31.9540   38.2390 O   0  0  0  0  0  0  0  0  0  0  0  0
   39.5870   31.5690   37.9500 C   0  0  0  0  0  2  0  0  0  0  0  0
   40.1950   30.7970   39.0110 N   0  0  0  0  0  4  0  0  0  0  0  0
   39.8200   31.0630   39.9440 H   0  0  0  0  0  0  0  0  0  0  0  0
   39.9410   29.3850   38.7340 C   0  0  0  0  0  2  0  0  0  0  0  0
   38.9630   29.3370   38.1970 H   0  0  0  0  0  0  0  0  0  0  0  0
   41.6410   30.9560   39.0320 C   0  0  0  0  0  2  0  0  0  0  0  0
   41.9470   31.9670   39.3720 H   0  0  0  0  0  0  0  0  0  0  0  0
  2  3  1  0  0  0  0
  2  1  1  0  0  0  0
  3 11  1  0  0  0  0
  4  8  1  0  0  0  0
  4  3  2  0  0  0  0
  5  4  1  0  0  0  0
  6  5  2  0  0  0  0
  6  7  1  0  0  0  0
  7  2  2  0  0  0  0
  9  5  1  0  0  0  0
 10  6  1  0  0  0  0
 11 12  1  0  0  0  0
 11 13  1  0  0  0  0
 14 15  2  0  0  0  0
 14 19  1  0  0  0  0
 15 16  1  0  0  0  0
 16 22  1  0  0  0  0
 16 17  2  0  0  0  0
 18 17  1  0  0  0  0
 18 11  1  0  0  0  0
 19 18  2  0  0  0  0
 20 14  1  0  0  0  0
 21 15  1  0  0  0  0
 23  7  1  0  0  0  0
 25 26  1  0  0  0  0
 25 24  2  1  0  0  0
 25 23  1  0  0  0  0
 27 26  1  0  0  0  0
 28 25  1  0  0  0  0
 29 28  1  0  0  0  0
 29 30  1  0  0  0  0
 30 34  1  0  0  0  0
 30 31  1  0  0  0  0
 32 30  1  0  0  0  0
 33 32  1  0  0  0  0
 34 35  1  0  0  0  0
M  END
>  <minimizedAffinity>
-5.04747581

$$$$

 OpenBabel03252502573D

 35 36  0  0  0  0  0  0  0  0999 V2000
   40.2170   31.1060   42.3750 Br  0  0  0  0  0  0  0  0  0  0  0  0
   38.8140   31.2460   41.0540 C   0  0  0  0  0  0  0  0  0  0  0  0
   38.6050   32.4990   40.5380 C   0  0  0  0  0  0  0  0  0  0  0  0
   37.5840   32.5580   39.5880 C   0  0  0  0  0  0  0  0  0  0  0  0
   36.8440   31.4650   39.1930 C   0  0  0  0  0  0  0  0  0  0  0  0
   37.1160   30.2500   39.7560 C   0  0  0  0  0  0  0  0  0  0  0  0
   38.1060   30.1180   40.6960 C   0  0  0  0  0  0  0  0  0  0  0  0
   37.3480   33.5150   39.1230 H   0  0  0  0  0  0  0  0  0  0  0  0
   36.0560   31.5780   38.4420 H   0  0  0  0  0  0  0  0  0  0  0  0
   36.5060   29.4120   39.4130 H   0  0  0  0  0  0  0  0  0  0  0  0
   39.3100   33.7250   40.8670 C   0  0  0  0  0  0  0  0  0  0  0  0
   39.4780   33.7420   41.9760 H   0  0  0  0  0  0  0  0  0  0  0  0
   38.7430   34.6610   40.6420 H   0  0  0  0  0  0  0  0  0  0  0  0
   42.9620   34.1670   40.2720 C   0  0  0  0  0  0  0  0  0  0  0  0
   43.0410   34.0770   38.8680 C   0  0  0  0  0  0  0  0  0  0  0  0
   41.8590   33.8700   38.1630 C   0  0  0  0  0  0  0  0  0  0  0  0
   40.7020   33.7650   38.8420 N   0  0  0  0  0  0  0  0  0  0  0  0
   40.6450   33.8560   40.2110 C   0  0  0  0  0  0  0  0  0  0  0  0
   41.8000   34.0570   40.8800 N   0  0  0  0  0  0  0  0  0  0  0  0
   43.7920   34.3260   40.9500 H   0  0  0  0  0  0  0  0  0  0  0  0
   44.0250   34.1770   38.4460 H   0  0  0  0  0  0  0  0  0  0  0  0
   41.9320   33.8020   37.0970 H   0  0  0  0  0  0  0  0  0  0  0  0
   38.3790   28.8830   41.2650 O   0  0  0  0  0  0  0  0  0  0  0  0
   36.0500   27.9330   41.9170 O   0  0  0  0  0  0  0  0  0  0  0  0
   37.4320   28.1820   42.4990 P   0  0  2  0  0  0  0  0  0  0  0  0
   37.3470   29.2860   43.7590 O   0  0  0  0  0  0  0  0  0  0  0  0
   38.0170   29.1750   44.4620 H   0  0  0  0  0  0  0  0  0  0  0  0
   38.0690   26.7160   43.0120 O   0  0  0  0  0  0  0  0  0  0  0  0
   37.8230   25.6930   42.0980 C   0  0  0  0  0  2  0  0  0  0  0  0
   38.9740   24.8460   41.8780 N   0  0  0  0  0  4  0  0  0  0  0  0
   38.7290   24.0010   41.3220 H   0  0  0  0  0  0  0  0  0  0  0  0
   39.9860   25.6440   41.1900 C   0  0  0  0  0  2  0  0  0  0  0  0
   39.4350   26.3870   40.5650 H   0  0  0  0  0  0  0  0  0  0  0  0
   39.5740   24.4170   43.1320 C   0  0  0  0  0  2  0  0  0  0  0  0
   38.9380   23.6860   43.6730 H   0  0  0  0  0  0  0  0  0  0  0  0
  2  1  1  0  0  0  0
  3 11  1  0  0  0  0
  3  2  2  0  0  0  0
  4  3  1  0  0  0  0
  5  4  2  0  0  0  0
  5  6  1  0  0  0  0
  6  7  2  0  0  0  0
  7  2  1  0  0  0  0
  7 23  1  0  0  0  0
  8  4  1  0  0  0  0
  9  5  1  0  0  0  0
 10  6  1  0  0  0  0
 11 12  1  0  0  0  0
 13 11  1  0  0  0  0
 14 19  1  0  0  0  0
 14 20  1  0  0  0  0
 15 14  2  0  0  0  0
 16 17  2  0  0  0  0
 16 15  1  0  0  0  0
 17 18  1  0  0  0  0
 18 11  1  0  0  0  0
 18 19  2  0  0  0  0
 21 15  1  0  0  0  0
 22 16  1  0  0  0  0
 23 25  1  0  0  0  0
 25 24  2  6  0  0  0
 25 28  1  0  0  0  0
 25 26  1  0  0  0  0
 26 27  1  0  0  0  0
 29 28  1  0  0  0  0
 30 29  1  0  0  0  0
 30 34  1  0  0  0  0
 31 30  1  0  0  0  0
 32 30  1  0  0  0  0
 33 32  1  0  0  0  0
 34 35  1  0  0  0  0
M  END
>  <minimizedAffinity>
-4.96966457

$$$$

 OpenBabel03252502573D

 35 36  0  0  0  0  0  0  0  0999 V2000
   40.0110   29.3660   39.2780 Br  0  0  0  0  0  0  0  0  0  0  0  0
   38.9850   30.9720   39.5950 C   0  0  0  0  0  0  0  0  0  0  0  0
   37.6620   30.7820   39.9040 C   0  0  0  0  0  0  0  0  0  0  0  0
   36.9560   31.9660   40.1260 C   0  0  0  0  0  0  0  0  0  0  0  0
   37.5210   33.2200   40.0450 C   0  0  0  0  0  0  0  0  0  0  0  0
   38.8470   33.3230   39.7310 C   0  0  0  0  0  0  0  0  0  0  0  0
   39.6030   32.2010   39.5010 C   0  0  0  0  0  0  0  0  0  0  0  0
   35.8970   31.9100   40.3790 H   0  0  0  0  0  0  0  0  0  0  0  0
   36.9120   34.1090   40.2310 H   0  0  0  0  0  0  0  0  0  0  0  0
   39.2530   34.3350   39.6780 H   0  0  0  0  0  0  0  0  0  0  0  0
   36.9480   29.5230   40.0210 C   0  0  0  0  0  0  0  0  0  0  0  0
   37.3460   28.8260   39.2370 H   0  0  0  0  0  0  0  0  0  0  0  0
   35.8510   29.5910   39.8220 H   0  0  0  0  0  0  0  0  0  0  0  0
   37.6590   28.8520   43.6170 C   0  0  0  0  0  0  0  0  0  0  0  0
   37.3650   27.4780   43.7200 C   0  0  0  0  0  0  0  0  0  0  0  0
   36.9350   26.8180   42.5720 C   0  0  0  0  0  0  0  0  0  0  0  0
   36.8190   27.5090   41.4240 N   0  0  0  0  0  0  0  0  0  0  0  0
   37.1110   28.8490   41.3440 C   0  0  0  0  0  0  0  0  0  0  0  0
   37.5260   29.4750   42.4650 N   0  0  0  0  0  0  0  0  0  0  0  0
   38.0000   29.4940   44.4190 H   0  0  0  0  0  0  0  0  0  0  0  0
   37.4980   27.0410   44.6930 H   0  0  0  0  0  0  0  0  0  0  0  0
   36.7150   25.7740   42.6620 H   0  0  0  0  0  0  0  0  0  0  0  0
   40.9490   32.3100   39.1820 O   0  0  0  0  0  0  0  0  0  0  0  0
   41.9750   34.1060   37.6090 O   0  0  0  0  0  0  0  0  0  0  0  0
   41.5230   32.6540   37.6130 P   0  0  2  0  0  0  0  0  0  0  0  0
   40.2450   32.4360   36.5490 O   0  0  0  0  0  0  0  0  0  0  0  0
   40.1880   31.5520   36.1360 H   0  0  0  0  0  0  0  0  0  0  0  0
   42.8310   31.6850   37.2060 O   0  0  0  0  0  0  0  0  0  0  0  0
   44.0320   32.2000   37.6900 C   0  0  0  0  0  2  0  0  0  0  0  0
   44.0100   32.4310   39.1180 N   0  0  0  0  0  4  0  0  0  0  0  0
   43.0570   32.6780   39.4530 H   0  0  0  0  0  0  0  0  0  0  0  0
   44.4910   31.2160   39.7710 C   0  0  0  0  0  2  0  0  0  0  0  0
   44.1930   30.3630   39.1160 H   0  0  0  0  0  0  0  0  0  0  0  0
   44.9250   33.4940   39.5040 C   0  0  0  0  0  2  0  0  0  0  0  0
   44.5720   34.4930   39.1740 H   0  0  0  0  0  0  0  0  0  0  0  0
  1  2  1  0  0  0  0
  2  3  1  0  0  0  0
  3 11  1  0  0  0  0
  3  4  2  0  0  0  0
  4  8  1  0  0  0  0
  5  4  1  0  0  0  0
  5  9  1  0  0  0  0
  6  5  2  0  0  0  0
  7  2  2  0  0  0  0
  7  6  1  0  0  0  0
 10  6  1  0  0  0  0
 11 18  1  0  0  0  0
 12 11  1  0  0  0  0
 13 11  1  0  0  0  0
 14 15  1  0  0  0  0
 14 20  1  0  0  0  0
 15 21  1  0  0  0  0
 16 22  1  0  0  0  0
 16 15  2  0  0  0  0
 17 16  1  0  0  0  0
 18 17  2  0  0  0  0
 18 19  1  0  0  0  0
 19 14  2  0  0  0  0
 23  7  1  0  0  0  0
 25 24  2  6  0  0  0
 25 23  1  0  0  0  0
 26 25  1  0  0  0  0
 27 26  1  0  0  0  0
 28 25  1  0  0  0  0
 28 29  1  0  0  0  0
 29 30  1  0  0  0  0
 30 31  1  0  0  0  0
 30 34  1  0  0  0  0
 30 32  1  0  0  0  0
 33 32  1  0  0  0  0
 35 34  1  0  0  0  0
M  END
>  <minimizedAffinity>
-4.94776773

$$$$

 OpenBabel03252502573D

 35 36  0  0  0  0  0  0  0  0999 V2000
   36.5110   26.7350   39.5540 Br  0  0  0  0  0  0  0  0  0  0  0  0
   37.0240   27.4610   41.2690 C   0  0  0  0  0  0  0  0  0  0  0  0
   36.8940   28.8200   41.4030 C   0  0  0  0  0  0  0  0  0  0  0  0
   37.2750   29.3050   42.6550 C   0  0  0  0  0  0  0  0  0  0  0  0
   37.7420   28.5050   43.6750 C   0  0  0  0  0  0  0  0  0  0  0  0
   37.8430   27.1600   43.4600 C   0  0  0  0  0  0  0  0  0  0  0  0
   37.4850   26.6130   42.2540 C   0  0  0  0  0  0  0  0  0  0  0  0
   37.2040   30.3750   42.8520 H   0  0  0  0  0  0  0  0  0  0  0  0
   38.0250   28.9490   44.6340 H   0  0  0  0  0  0  0  0  0  0  0  0
   38.2170   26.5640   44.2950 H   0  0  0  0  0  0  0  0  0  0  0  0
   36.4180   29.7700   40.4130 C   0  0  0  0  0  0  0  0  0  0  0  0
   35.5050   30.2730   40.8280 H   0  0  0  0  0  0  0  0  0  0  0  0
   36.0860   29.3100   39.4510 H   0  0  0  0  0  0  0  0  0  0  0  0
   39.4740   31.5690   39.2690 C   0  0  0  0  0  0  0  0  0  0  0  0
   39.1150   32.9150   39.4800 C   0  0  0  0  0  0  0  0  0  0  0  0
   37.8510   33.1760   40.0020 C   0  0  0  0  0  0  0  0  0  0  0  0
   37.0330   32.1450   40.2820 N   0  0  0  0  0  0  0  0  0  0  0  0
   37.4010   30.8390   40.0690 C   0  0  0  0  0  0  0  0  0  0  0  0
   38.6300   30.6030   39.5630 N   0  0  0  0  0  0  0  0  0  0  0  0
   40.4160   31.2140   38.8710 H   0  0  0  0  0  0  0  0  0  0  0  0
   39.8580   33.6460   39.2160 H   0  0  0  0  0  0  0  0  0  0  0  0
   37.5900   34.2020   40.1580 H   0  0  0  0  0  0  0  0  0  0  0  0
   37.5890   25.2460   42.0390 O   0  0  0  0  0  0  0  0  0  0  0  0
   38.7760   23.3140   40.7710 O   0  0  0  0  0  0  0  0  0  0  0  0
   39.0650   24.4460   41.7450 P   0  0  2  0  0  0  0  0  0  0  0  0
   39.6100   23.8340   43.2080 O   0  0  0  0  0  0  0  0  0  0  0  0
   40.2300   24.4080   43.7000 H   0  0  0  0  0  0  0  0  0  0  0  0
   40.1980   25.4710   41.0500 O   0  0  0  0  0  0  0  0  0  0  0  0
   41.1140   25.9470   41.9870 C   0  0  0  0  0  2  0  0  0  0  0  0
   42.2800   25.1010   42.1150 N   0  0  0  0  0  4  0  0  0  0  0  0
   42.0260   24.0930   42.1110 H   0  0  0  0  0  0  0  0  0  0  0  0
   43.1790   25.4150   41.0070 C   0  0  0  0  0  2  0  0  0  0  0  0
   42.5330   25.7270   40.1520 H   0  0  0  0  0  0  0  0  0  0  0  0
   43.0190   25.3860   43.3360 C   0  0  0  0  0  2  0  0  0  0  0  0
   42.4750   25.0510   44.2430 H   0  0  0  0  0  0  0  0  0  0  0  0
  1  2  1  0  0  0  0
  2  3  2  0  0  0  0
  2  7  1  0  0  0  0
  3  4  1  0  0  0  0
  4  8  1  0  0  0  0
  4  5  2  0  0  0  0
  5  9  1  0  0  0  0
  6  5  1  0  0  0  0
  6 10  1  0  0  0  0
  7  6  2  0  0  0  0
 11 12  1  0  0  0  0
 11  3  1  0  0  0  0
 13 11  1  0  0  0  0
 14 15  2  0  0  0  0
 14 19  1  0  0  0  0
 15 16  1  0  0  0  0
 16 22  1  0  0  0  0
 16 17  2  0  0  0  0
 18 17  1  0  0  0  0
 18 11  1  0  0  0  0
 19 18  2  0  0  0  0
 20 14  1  0  0  0  0
 21 15  1  0  0  0  0
 23  7  1  0  0  0  0
 25 24  2  6  0  0  0
 25 23  1  0  0  0  0
 25 26  1  0  0  0  0
 26 27  1  0  0  0  0
 28 25  1  0  0  0  0
 28 29  1  0  0  0  0
 29 30  1  0  0  0  0
 30 34  1  0  0  0  0
 31 30  1  0  0  0  0
 32 30  1  0  0  0  0
 33 32  1  0  0  0  0
 34 35  1  0  0  0  0
M  END
>  <minimizedAffinity>
-4.88867235

$$$$

 OpenBabel03252502573D

 35 36  0  0  0  0  0  0  0  0999 V2000
   40.7570   29.8860   40.5740 Br  0  0  0  0  0  0  0  0  0  0  0  0
   39.9390   31.6280   40.3910 C   0  0  0  0  0  0  0  0  0  0  0  0
   40.7780   32.7000   40.5580 C   0  0  0  0  0  0  0  0  0  0  0  0
   40.1500   33.9380   40.4180 C   0  0  0  0  0  0  0  0  0  0  0  0
   38.8090   34.0880   40.1380 C   0  0  0  0  0  0  0  0  0  0  0  0
   38.0420   32.9680   39.9870 C   0  0  0  0  0  0  0  0  0  0  0  0
   38.5930   31.7180   40.1100 C   0  0  0  0  0  0  0  0  0  0  0  0
   40.7410   34.8470   40.5330 H   0  0  0  0  0  0  0  0  0  0  0  0
   38.3780   35.0890   40.0410 H   0  0  0  0  0  0  0  0  0  0  0  0
   36.9850   33.1330   39.7660 H   0  0  0  0  0  0  0  0  0  0  0  0
   42.2000   32.6790   40.8530 C   0  0  0  0  0  0  0  0  0  0  0  0
   42.4460   31.6790   41.2980 H   0  0  0  0  0  0  0  0  0  0  0  0
   42.5270   33.4270   41.6150 H   0  0  0  0  0  0  0  0  0  0  0  0
   43.8120   32.2730   37.5180 C   0  0  0  0  0  0  0  0  0  0  0  0
   44.7520   33.3220   37.5190 C   0  0  0  0  0  0  0  0  0  0  0  0
   44.8140   34.1370   38.6460 C   0  0  0  0  0  0  0  0  0  0  0  0
   43.9850   33.8920   39.6780 N   0  0  0  0  0  0  0  0  0  0  0  0
   43.0750   32.8640   39.6570 C   0  0  0  0  0  0  0  0  0  0  0  0
   43.0270   32.0830   38.5570 N   0  0  0  0  0  0  0  0  0  0  0  0
   43.6490   31.5620   36.7170 H   0  0  0  0  0  0  0  0  0  0  0  0
   45.3560   33.4120   36.6350 H   0  0  0  0  0  0  0  0  0  0  0  0
   45.5320   34.9310   38.6360 H   0  0  0  0  0  0  0  0  0  0  0  0
   37.8090   30.5830   39.9560 O   0  0  0  0  0  0  0  0  0  0  0  0
   36.2820   28.6130   40.6890 O   0  0  0  0  0  0  0  0  0  0  0  0
   36.8180   29.9450   41.1880 P   0  0  2  0  0  0  0  0  0  0  0  0
   35.5590   31.0270   41.4340 O   0  0  0  0  0  0  0  0  0  0  0  0
   35.7030   31.6850   42.1420 H   0  0  0  0  0  0  0  0  0  0  0  0
   37.6810   29.6780   42.6030 O   0  0  0  0  0  0  0  0  0  0  0  0
   37.5250   28.3750   43.0710 C   0  0  0  0  0  2  0  0  0  0  0  0
   38.4750   27.4510   42.4920 N   0  0  0  0  0  4  0  0  0  0  0  0
   38.7360   27.7240   41.5230 H   0  0  0  0  0  0  0  0  0  0  0  0
   39.6520   27.4260   43.3580 C   0  0  0  0  0  2  0  0  0  0  0  0
   39.7320   28.4410   43.8160 H   0  0  0  0  0  0  0  0  0  0  0  0
   37.9560   26.0920   42.4660 C   0  0  0  0  0  2  0  0  0  0  0  0
   37.1390   25.9690   41.7250 H   0  0  0  0  0  0  0  0  0  0  0  0
  2  3  1  0  0  0  0
  2  1  1  0  0  0  0
  3 11  1  0  0  0  0
  4  8  1  0  0  0  0
  4  3  2  0  0  0  0
  5  4  1  0  0  0  0
  6  7  1  0  0  0  0
  6  5  2  0  0  0  0
  7  2  2  0  0  0  0
  9  5  1  0  0  0  0
 10  6  1  0  0  0  0
 11 12  1  0  0  0  0
 11 13  1  0  0  0  0
 14 15  2  0  0  0  0
 14 19  1  0  0  0  0
 15 16  1  0  0  0  0
 16 17  2  0  0  0  0
 18 17  1  0  0  0  0
 18 11  1  0  0  0  0
 19 18  2  0  0  0  0
 20 14  1  0  0  0  0
 21 15  1  0  0  0  0
 22 16  1  0  0  0  0
 23  7  1  0  0  0  0
 23 25  1  0  0  0  0
 25 24  2  6  0  0  0
 25 26  1  0  0  0  0
 25 28  1  0  0  0  0
 26 27  1  0  0  0  0
 28 29  1  0  0  0  0
 30 29  1  0  0  0  0
 30 32  1  0  0  0  0
 31 30  1  0  0  0  0
 32 33  1  0  0  0  0
 34 30  1  0  0  0  0
 35 34  1  0  0  0  0
M  END
>  <minimizedAffinity>
-4.8858223

$$$$

 OpenBabel03252502573D

 35 36  0  0  0  0  0  0  0  0999 V2000
   36.6670   30.9950   39.5950 Br  0  0  0  0  0  0  0  0  0  0  0  0
   38.0910   30.9190   40.8990 C   0  0  0  0  0  0  0  0  0  0  0  0
   38.9840   31.9600   40.8680 C   0  0  0  0  0  0  0  0  0  0  0  0
   39.9950   31.8680   41.8240 C   0  0  0  0  0  0  0  0  0  0  0  0
   40.1030   30.8320   42.7270 C   0  0  0  0  0  0  0  0  0  0  0  0
   39.1720   29.8330   42.6920 C   0  0  0  0  0  0  0  0  0  0  0  0
   38.1490   29.8580   41.7780 C   0  0  0  0  0  0  0  0  0  0  0  0
   40.7500   32.6530   41.8730 H   0  0  0  0  0  0  0  0  0  0  0  0
   40.9210   30.8200   43.4520 H   0  0  0  0  0  0  0  0  0  0  0  0
   39.2950   29.0330   43.4240 H   0  0  0  0  0  0  0  0  0  0  0  0
   38.9830   33.1050   39.9750 C   0  0  0  0  0  0  0  0  0  0  0  0
   39.0320   34.0340   40.6030 H   0  0  0  0  0  0  0  0  0  0  0  0
   38.0550   33.2150   39.3620 H   0  0  0  0  0  0  0  0  0  0  0  0
   42.0760   34.1250   38.1650 C   0  0  0  0  0  0  0  0  0  0  0  0
   42.2210   33.0840   37.2270 C   0  0  0  0  0  0  0  0  0  0  0  0
   41.2700   32.0680   37.2330 C   0  0  0  0  0  0  0  0  0  0  0  0
   40.2620   32.1190   38.1230 N   0  0  0  0  0  0  0  0  0  0  0  0
   40.1380   33.1430   39.0290 C   0  0  0  0  0  0  0  0  0  0  0  0
   41.0680   34.1210   39.0110 N   0  0  0  0  0  0  0  0  0  0  0  0
   42.7340   34.9780   38.2790 H   0  0  0  0  0  0  0  0  0  0  0  0
   43.0690   33.1580   36.5700 H   0  0  0  0  0  0  0  0  0  0  0  0
   41.3900   31.2820   36.5160 H   0  0  0  0  0  0  0  0  0  0  0  0
   37.2050   28.8410   41.7460 O   0  0  0  0  0  0  0  0  0  0  0  0
   38.8930   27.3110   40.4960 O   0  0  0  0  0  0  0  0  0  0  0  0
   37.5310   27.2690   41.1720 P   0  0  2  0  0  0  0  0  0  0  0  0
   36.3370   26.8780   40.0610 O   0  0  0  0  0  0  0  0  0  0  0  0
   35.5710   26.3910   40.4200 H   0  0  0  0  0  0  0  0  0  0  0  0
   37.5900   26.1520   42.4250 O   0  0  0  0  0  0  0  0  0  0  0  0
   37.1510   24.8930   42.0210 C   0  0  0  0  0  2  0  0  0  0  0  0
   38.1480   23.8620   42.2060 N   0  0  0  0  0  4  0  0  0  0  0  0
   37.7830   23.0710   42.7730 H   0  0  0  0  0  0  0  0  0  0  0  0
   38.5620   23.4040   40.8820 C   0  0  0  0  0  2  0  0  0  0  0  0
   37.6750   23.5190   40.2130 H   0  0  0  0  0  0  0  0  0  0  0  0
   39.3440   24.3810   42.8520 C   0  0  0  0  0  2  0  0  0  0  0  0
   39.1700   24.6300   43.9190 H   0  0  0  0  0  0  0  0  0  0  0  0
  1  2  1  0  0  0  0
  2  7  1  0  0  0  0
  3  2  2  0  0  0  0
  3  4  1  0  0  0  0
  4  8  1  0  0  0  0
  4  5  2  0  0  0  0
  5  9  1  0  0  0  0
  6  5  1  0  0  0  0
  6 10  1  0  0  0  0
  7  6  2  0  0  0  0
 11 12  1  0  0  0  0
 11  3  1  0  0  0  0
 13 11  1  0  0  0  0
 14 20  1  0  0  0  0
 14 19  1  0  0  0  0
 15 16  1  0  0  0  0
 15 14  2  0  0  0  0
 16 17  2  0  0  0  0
 17 18  1  0  0  0  0
 18 11  1  0  0  0  0
 19 18  2  0  0  0  0
 21 15  1  0  0  0  0
 22 16  1  0  0  0  0
 23  7  1  0  0  0  0
 25 24  2  6  0  0  0
 25 23  1  0  0  0  0
 25 28  1  0  0  0  0
 26 27  1  0  0  0  0
 26 25  1  0  0  0  0
 29 30  1  0  0  0  0
 29 28  1  0  0  0  0
 30 31  1  0  0  0  0
 30 34  1  0  0  0  0
 32 30  1  0  0  0  0
 33 32  1  0  0  0  0
 34 35  1  0  0  0  0
M  END
>  <minimizedAffinity>
-4.83987522

$$$$

 OpenBabel03252502573D

 35 36  0  0  0  0  0  0  0  0999 V2000
   36.4590   29.9130   38.8900 Br  0  0  0  0  0  0  0  0  0  0  0  0
   37.6290   30.1430   40.4100 C   0  0  0  0  0  0  0  0  0  0  0  0
   37.4100   29.2920   41.4640 C   0  0  0  0  0  0  0  0  0  0  0  0
   38.2750   29.4900   42.5410 C   0  0  0  0  0  0  0  0  0  0  0  0
   39.2640   30.4500   42.5620 C   0  0  0  0  0  0  0  0  0  0  0  0
   39.4160   31.2590   41.4710 C   0  0  0  0  0  0  0  0  0  0  0  0
   38.6010   31.1200   40.3760 C   0  0  0  0  0  0  0  0  0  0  0  0
   38.1750   28.8570   43.4230 H   0  0  0  0  0  0  0  0  0  0  0  0
   39.9090   30.5540   43.4390 H   0  0  0  0  0  0  0  0  0  0  0  0
   40.2110   32.0040   41.5300 H   0  0  0  0  0  0  0  0  0  0  0  0
   36.4100   28.2450   41.5680 C   0  0  0  0  0  0  0  0  0  0  0  0
   35.6450   28.4160   40.7660 H   0  0  0  0  0  0  0  0  0  0  0  0
   35.8350   28.2460   42.5260 H   0  0  0  0  0  0  0  0  0  0  0  0
   37.7300   24.8190   42.2030 C   0  0  0  0  0  0  0  0  0  0  0  0
   37.9360   24.3390   40.8950 C   0  0  0  0  0  0  0  0  0  0  0  0
   37.6240   25.1870   39.8360 C   0  0  0  0  0  0  0  0  0  0  0  0
   37.1430   26.4150   40.1000 N   0  0  0  0  0  0  0  0  0  0  0  0
   36.9490   26.8650   41.3840 C   0  0  0  0  0  0  0  0  0  0  0  0
   37.2570   26.0310   42.4000 N   0  0  0  0  0  0  0  0  0  0  0  0
   37.9260   24.2770   43.1200 H   0  0  0  0  0  0  0  0  0  0  0  0
   38.3260   23.3400   40.8170 H   0  0  0  0  0  0  0  0  0  0  0  0
   37.7840   24.8120   38.8460 H   0  0  0  0  0  0  0  0  0  0  0  0
   38.7590   31.9430   39.2700 O   0  0  0  0  0  0  0  0  0  0  0  0
   41.0190   33.1590   38.8600 O   0  0  0  0  0  0  0  0  0  0  0  0
   40.1830   32.0030   38.3330 P   0  0  2  0  0  0  0  0  0  0  0  0
   39.7300   32.2860   36.7430 O   0  0  0  0  0  0  0  0  0  0  0  0
   39.6180   31.4890   36.1890 H   0  0  0  0  0  0  0  0  0  0  0  0
   41.0770   30.5890   38.4730 O   0  0  0  0  0  0  0  0  0  0  0  0
   42.4390   30.8130   38.2820 C   0  0  0  0  0  2  0  0  0  0  0  0
   42.7400   31.3840   36.9880 N   0  0  0  0  0  4  0  0  0  0  0  0
   41.9710   31.9970   36.6490 H   0  0  0  0  0  0  0  0  0  0  0  0
   43.9850   32.1380   37.1150 C   0  0  0  0  0  2  0  0  0  0  0  0
   44.0200   32.5210   38.1630 H   0  0  0  0  0  0  0  0  0  0  0  0
   42.9850   30.3550   35.9900 C   0  0  0  0  0  2  0  0  0  0  0  0
   42.0580   29.8090   35.7130 H   0  0  0  0  0  0  0  0  0  0  0  0
  1  2  1  0  0  0  0
  2  3  1  0  0  0  0
  3 11  1  0  0  0  0
  3  4  2  0  0  0  0
  4  5  1  0  0  0  0
  4  8  1  0  0  0  0
  5  9  1  0  0  0  0
  6 10  1  0  0  0  0
  6  5  2  0  0  0  0
  7  2  2  0  0  0  0
  7  6  1  0  0  0  0
 11 13  1  0  0  0  0
 12 11  1  0  0  0  0
 14 19  1  0  0  0  0
 14 20  1  0  0  0  0
 15 14  2  0  0  0  0
 16 17  2  0  0  0  0
 16 15  1  0  0  0  0
 17 18  1  0  0  0  0
 18 11  1  0  0  0  0
 18 19  2  0  0  0  0
 21 15  1  0  0  0  0
 22 16  1  0  0  0  0
 23  7  1  0  0  0  0
 25 28  1  0  0  0  0
 25 24  2  1  0  0  0
 25 23  1  0  0  0  0
 26 25  1  0  0  0  0
 27 26  1  0  0  0  0
 29 28  1  0  0  0  0
 30 32  1  0  0  0  0
 30 29  1  0  0  0  0
 31 30  1  0  0  0  0
 32 33  1  0  0  0  0
 34 30  1  0  0  0  0
 35 34  1  0  0  0  0
M  END
>  <minimizedAffinity>
-4.8161087

$$$$

 OpenBabel03252502573D

 35 36  0  0  0  0  0  0  0  0999 V2000
   39.1520   27.4770   38.7880 Br  0  0  0  0  0  0  0  0  0  0  0  0
   38.2360   27.1290   40.4530 C   0  0  0  0  0  0  0  0  0  0  0  0
   38.6730   26.0350   41.1560 C   0  0  0  0  0  0  0  0  0  0  0  0
   37.9860   25.8180   42.3510 C   0  0  0  0  0  0  0  0  0  0  0  0
   36.9600   26.6210   42.8000 C   0  0  0  0  0  0  0  0  0  0  0  0
   36.5840   27.6920   42.0400 C   0  0  0  0  0  0  0  0  0  0  0  0
   37.2160   27.9660   40.8530 C   0  0  0  0  0  0  0  0  0  0  0  0
   38.2670   24.9710   42.9760 H   0  0  0  0  0  0  0  0  0  0  0  0
   36.4620   26.3960   43.7480 H   0  0  0  0  0  0  0  0  0  0  0  0
   35.7680   28.3000   42.4330 H   0  0  0  0  0  0  0  0  0  0  0  0
   39.7370   25.1150   40.7970 C   0  0  0  0  0  0  0  0  0  0  0  0
   39.8930   25.1820   39.6880 H   0  0  0  0  0  0  0  0  0  0  0  0
   39.5070   24.0400   40.9950 H   0  0  0  0  0  0  0  0  0  0  0  0
   42.5230   25.3250   43.2630 C   0  0  0  0  0  0  0  0  0  0  0  0
   43.5060   26.0210   42.5320 C   0  0  0  0  0  0  0  0  0  0  0  0
   43.2000   26.3990   41.2280 C   0  0  0  0  0  0  0  0  0  0  0  0
   41.9920   26.0890   40.7230 N   0  0  0  0  0  0  0  0  0  0  0  0
   41.0460   25.4100   41.4520 C   0  0  0  0  0  0  0  0  0  0  0  0
   41.3580   25.0500   42.7150 N   0  0  0  0  0  0  0  0  0  0  0  0
   42.6170   24.9680   44.2810 H   0  0  0  0  0  0  0  0  0  0  0  0
   44.4300   26.2070   43.0490 H   0  0  0  0  0  0  0  0  0  0  0  0
   43.9550   26.9270   40.6830 H   0  0  0  0  0  0  0  0  0  0  0  0
   36.8320   29.0550   40.0840 O   0  0  0  0  0  0  0  0  0  0  0  0
   38.1750   30.7550   41.5190 O   0  0  0  0  0  0  0  0  0  0  0  0
   36.9600   30.6730   40.6070 P   0  0  2  0  0  0  0  0  0  0  0  0
   35.5630   31.0420   41.4590 O   0  0  0  0  0  0  0  0  0  0  0  0
   34.8500   31.4590   40.9370 H   0  0  0  0  0  0  0  0  0  0  0  0
   37.1870   31.7250   39.3190 O   0  0  0  0  0  0  0  0  0  0  0  0
   37.5340   33.0050   39.7470 C   0  0  0  0  0  2  0  0  0  0  0  0
   38.9440   33.1400   40.0370 N   0  0  0  0  0  4  0  0  0  0  0  0
   39.2150   32.6030   40.8860 H   0  0  0  0  0  0  0  0  0  0  0  0
   39.6840   32.6710   38.8680 C   0  0  0  0  0  2  0  0  0  0  0  0
   39.0590   31.8780   38.3930 H   0  0  0  0  0  0  0  0  0  0  0  0
   39.3230   34.5310   40.2310 C   0  0  0  0  0  2  0  0  0  0  0  0
   38.9220   34.9470   41.1790 H   0  0  0  0  0  0  0  0  0  0  0  0
  1  2  1  0  0  0  0
  2  7  2  0  0  0  0
  2  3  1  0  0  0  0
  3  4  2  0  0  0  0
  4  5  1  0  0  0  0
  4  8  1  0  0  0  0
  5  9  1  0  0  0  0
  6 10  1  0  0  0  0
  6  5  2  0  0  0  0
  7  6  1  0  0  0  0
 11 13  1  0  0  0  0
 11  3  1  0  0  0  0
 11 18  1  0  0  0  0
 12 11  1  0  0  0  0
 14 20  1  0  0  0  0
 15 21  1  0  0  0  0
 15 14  2  0  0  0  0
 16 15  1  0  0  0  0
 17 16  2  0  0  0  0
 17 18  1  0  0  0  0
 18 19  2  0  0  0  0
 19 14  1  0  0  0  0
 22 16  1  0  0  0  0
 23 25  1  0  0  0  0
 23  7  1  0  0  0  0
 25 26  1  0  0  0  0
 25 24  2  1  0  0  0
 27 26  1  0  0  0  0
 28 29  1  0  0  0  0
 28 25  1  0  0  0  0
 29 30  1  0  0  0  0
 30 34  1  0  0  0  0
 30 31  1  0  0  0  0
 32 30  1  0  0  0  0
 33 32  1  0  0  0  0
 34 35  1  0  0  0  0
M  END
>  <minimizedAffinity>
-4.8106184

$$$$
