
 OpenBabel03242519363D

 22 22  0  0  0  0  0  0  0  0999 V2000
   37.0810   29.9600   39.4820 O   0  0  0  0  0  0  0  0  0  0  0  0
   36.9710   31.0090   40.5680 P   0  0  1  0  0  0  0  0  0  0  0  0
   35.5570   30.8540   41.4670 O   0  0  0  0  0  0  0  0  0  0  0  0
   35.2450   29.9060   41.5120 H   0  0  0  0  0  0  0  0  0  0  0  0
   38.3020   30.8380   41.6460 O   0  0  0  0  0  0  0  0  0  0  0  0
   39.8880   27.8350   43.0070 C   0  0  0  0  0  0  0  0  0  0  0  0
   39.7260   29.0570   42.3040 C   0  0  0  0  0  0  0  0  0  0  0  0
   38.4560   29.6380   42.3390 C   0  0  0  0  0  0  0  0  0  0  0  0
   37.4510   29.0270   43.0260 N   0  0  0  0  0  0  0  0  0  0  0  0
   37.6490   27.8670   43.6790 C   0  0  0  0  0  0  0  0  0  0  0  0
   38.8650   27.2700   43.6720 N   0  0  0  0  0  0  0  0  0  0  0  0
   40.8520   27.3470   43.0090 H   0  0  0  0  0  0  0  0  0  0  0  0
   40.5680   29.4910   41.7760 H   0  0  0  0  0  0  0  0  0  0  0  0
   36.7360   27.5500   44.1570 H   0  0  0  0  0  0  0  0  0  0  0  0
   37.0870   32.5390   39.8700 O   0  0  0  0  0  0  0  0  0  0  0  0
   37.9480   32.5420   38.7730 C   0  0  0  0  0  2  0  0  0  0  0  0
   39.2740   32.0990   39.0990 N   0  0  0  0  0  4  0  0  0  0  0  0
   39.2720   31.3640   39.8410 H   0  0  0  0  0  0  0  0  0  0  0  0
   39.9320   31.4930   37.9360 C   0  0  0  0  0  2  0  0  0  0  0  0
   40.9890   31.3080   38.1600 H   0  0  0  0  0  0  0  0  0  0  0  0
   40.0730   33.2500   39.4790 C   0  0  0  0  0  2  0  0  0  0  0  0
   40.5500   33.0110   40.4440 H   0  0  0  0  0  0  0  0  0  0  0  0
  2  1  2  6  0  0  0
  2  3  1  0  0  0  0
  2  5  1  0  0  0  0
  3  4  1  0  0  0  0
  5  8  1  0  0  0  0
  6 12  1  0  0  0  0
  6 11  1  0  0  0  0
  7  8  1  0  0  0  0
  7  6  2  0  0  0  0
  8  9  2  0  0  0  0
  9 10  1  0  0  0  0
 10 14  1  0  0  0  0
 11 10  2  0  0  0  0
 13  7  1  0  0  0  0
 15  2  1  0  0  0  0
 16 17  1  0  0  0  0
 16 15  1  0  0  0  0
 17 21  1  0  0  0  0
 17 18  1  0  0  0  0
 19 20  1  0  0  0  0
 19 17  1  0  0  0  0
 21 22  1  0  0  0  0
M  END
>  <minimizedAffinity>
-4.04207659

$$$$

 OpenBabel03242519363D

 22 22  0  0  0  0  0  0  0  0999 V2000
   37.0910   29.1740   40.1590 O   0  0  0  0  0  0  0  0  0  0  0  0
   37.0380   30.1070   41.3510 P   0  0  1  0  0  0  0  0  0  0  0  0
   35.5940   30.9660   41.4280 O   0  0  0  0  0  0  0  0  0  0  0  0
   34.8320   30.4540   41.0300 H   0  0  0  0  0  0  0  0  0  0  0  0
   37.1760   29.1780   42.7940 O   0  0  0  0  0  0  0  0  0  0  0  0
   38.5800   25.8020   42.6620 C   0  0  0  0  0  0  0  0  0  0  0  0
   37.6310   26.8560   42.6120 C   0  0  0  0  0  0  0  0  0  0  0  0
   38.1130   28.1470   42.8430 C   0  0  0  0  0  0  0  0  0  0  0  0
   39.4370   28.3390   43.1000 N   0  0  0  0  0  0  0  0  0  0  0  0
   40.3030   27.3100   43.1380 C   0  0  0  0  0  0  0  0  0  0  0  0
   39.8780   26.0420   42.9190 N   0  0  0  0  0  0  0  0  0  0  0  0
   38.2560   24.7860   42.4900 H   0  0  0  0  0  0  0  0  0  0  0  0
   36.5910   26.6340   42.4030 H   0  0  0  0  0  0  0  0  0  0  0  0
   41.2960   27.6690   43.3550 H   0  0  0  0  0  0  0  0  0  0  0  0
   38.3650   31.1460   41.2970 O   0  0  0  0  0  0  0  0  0  0  0  0
   38.6220   31.5850   39.9980 C   0  0  0  0  0  2  0  0  0  0  0  0
   37.4580   32.1020   39.3380 N   0  0  0  0  0  4  0  0  0  0  0  0
   36.5760   31.6850   39.7120 H   0  0  0  0  0  0  0  0  0  0  0  0
   37.3320   33.5500   39.5370 C   0  0  0  0  0  2  0  0  0  0  0  0
   36.5340   33.9470   38.8990 H   0  0  0  0  0  0  0  0  0  0  0  0
   37.5950   31.8870   37.9090 C   0  0  0  0  0  2  0  0  0  0  0  0
   36.6690   31.3960   37.5630 H   0  0  0  0  0  0  0  0  0  0  0  0
  2  1  2  6  0  0  0
  2  3  1  0  0  0  0
  2  5  1  0  0  0  0
  4  3  1  0  0  0  0
  5  8  1  0  0  0  0
  6 11  1  0  0  0  0
  7  6  2  0  0  0  0
  7  8  1  0  0  0  0
  8  9  2  0  0  0  0
  9 10  1  0  0  0  0
 10 14  1  0  0  0  0
 11 10  2  0  0  0  0
 12  6  1  0  0  0  0
 13  7  1  0  0  0  0
 15  2  1  0  0  0  0
 16 15  1  0  0  0  0
 17 19  1  0  0  0  0
 17 18  1  0  0  0  0
 17 16  1  0  0  0  0
 20 19  1  0  0  0  0
 21 17  1  0  0  0  0
 22 21  1  0  0  0  0
M  END
>  <minimizedAffinity>
-4.04067612

$$$$

 OpenBabel03242519363D

 22 22  0  0  0  0  0  0  0  0999 V2000
   36.9370   31.6810   38.7910 O   0  0  0  0  0  0  0  0  0  0  0  0
   37.2000   31.3970   40.2550 P   0  0  1  0  0  0  0  0  0  0  0  0
   35.7790   31.1880   41.1310 O   0  0  0  0  0  0  0  0  0  0  0  0
   35.0440   30.8100   40.5670 H   0  0  0  0  0  0  0  0  0  0  0  0
   38.1190   29.9480   40.3870 O   0  0  0  0  0  0  0  0  0  0  0  0
   37.1430   26.8250   42.0230 C   0  0  0  0  0  0  0  0  0  0  0  0
   37.4640   27.7500   40.9960 C   0  0  0  0  0  0  0  0  0  0  0  0
   37.8060   29.0430   41.4000 C   0  0  0  0  0  0  0  0  0  0  0  0
   37.8170   29.3570   42.7260 N   0  0  0  0  0  0  0  0  0  0  0  0
   37.5050   28.4470   43.6670 C   0  0  0  0  0  0  0  0  0  0  0  0
   37.1690   27.1820   43.3190 N   0  0  0  0  0  0  0  0  0  0  0  0
   36.8720   25.8120   41.7600 H   0  0  0  0  0  0  0  0  0  0  0  0
   37.4350   27.4350   39.9590 H   0  0  0  0  0  0  0  0  0  0  0  0
   37.5730   28.8900   44.6470 H   0  0  0  0  0  0  0  0  0  0  0  0
   38.1360   32.6440   40.8970 O   0  0  0  0  0  0  0  0  0  0  0  0
   39.0520   33.1340   39.9670 C   0  0  0  0  0  2  0  0  0  0  0  0
   39.9550   32.1290   39.4840 N   0  0  0  0  0  4  0  0  0  0  0  0
   39.4930   31.1970   39.3890 H   0  0  0  0  0  0  0  0  0  0  0  0
   40.4610   32.4650   38.1490 C   0  0  0  0  0  2  0  0  0  0  0  0
   41.2640   31.7730   37.8690 H   0  0  0  0  0  0  0  0  0  0  0  0
   41.1070   32.0730   40.3660 C   0  0  0  0  0  2  0  0  0  0  0  0
   41.2490   31.0160   40.6500 H   0  0  0  0  0  0  0  0  0  0  0  0
  2  1  2  6  0  0  0
  2  5  1  0  0  0  0
  2 15  1  0  0  0  0
  2  3  1  0  0  0  0
  4  3  1  0  0  0  0
  5  8  1  0  0  0  0
  6 11  1  0  0  0  0
  7  8  1  0  0  0  0
  7  6  2  0  0  0  0
  8  9  2  0  0  0  0
  9 10  1  0  0  0  0
 10 14  1  0  0  0  0
 11 10  2  0  0  0  0
 12  6  1  0  0  0  0
 13  7  1  0  0  0  0
 16 15  1  0  0  0  0
 17 16  1  0  0  0  0
 17 21  1  0  0  0  0
 18 17  1  0  0  0  0
 19 17  1  0  0  0  0
 20 19  1  0  0  0  0
 21 22  1  0  0  0  0
M  END
>  <minimizedAffinity>
-3.91454816

$$$$

 OpenBabel03242519363D

 22 22  0  0  0  0  0  0  0  0999 V2000
   38.6320   28.2560   41.7770 O   0  0  0  0  0  0  0  0  0  0  0  0
   37.2150   28.1860   42.3080 P   0  0  1  0  0  0  0  0  0  0  0  0
   36.9980   29.1360   43.6800 O   0  0  0  0  0  0  0  0  0  0  0  0
   37.6030   29.9320   43.6830 H   0  0  0  0  0  0  0  0  0  0  0  0
   36.1360   28.7580   41.0950 O   0  0  0  0  0  0  0  0  0  0  0  0
   36.8890   30.9270   38.2460 C   0  0  0  0  0  0  0  0  0  0  0  0
   36.5390   29.7670   38.9850 C   0  0  0  0  0  0  0  0  0  0  0  0
   36.4780   29.9010   40.3740 C   0  0  0  0  0  0  0  0  0  0  0  0
   36.7500   31.1060   40.9500 N   0  0  0  0  0  0  0  0  0  0  0  0
   37.0790   32.1810   40.2110 C   0  0  0  0  0  0  0  0  0  0  0  0
   37.1480   32.0950   38.8610 N   0  0  0  0  0  0  0  0  0  0  0  0
   36.9490   30.8740   37.1690 H   0  0  0  0  0  0  0  0  0  0  0  0
   36.3350   28.8380   38.4650 H   0  0  0  0  0  0  0  0  0  0  0  0
   37.2540   33.0310   40.8510 H   0  0  0  0  0  0  0  0  0  0  0  0
   36.8190   26.5760   42.6110 O   0  0  0  0  0  0  0  0  0  0  0  0
   37.3120   25.7280   41.6190 C   0  0  0  0  0  2  0  0  0  0  0  0
   37.6630   24.4280   42.1130 N   0  0  0  0  0  4  0  0  0  0  0  0
   37.0250   24.1120   42.8780 H   0  0  0  0  0  0  0  0  0  0  0  0
   37.5590   23.4130   41.0600 C   0  0  0  0  0  2  0  0  0  0  0  0
   37.9800   22.4640   41.4120 H   0  0  0  0  0  0  0  0  0  0  0  0
   39.0500   24.4470   42.5390 C   0  0  0  0  0  2  0  0  0  0  0  0
   39.0830   24.0360   43.5620 H   0  0  0  0  0  0  0  0  0  0  0  0
  2  1  2  6  0  0  0
  2 15  1  0  0  0  0
  2  3  1  0  0  0  0
  3  4  1  0  0  0  0
  5  2  1  0  0  0  0
  6 11  2  0  0  0  0
  6  7  1  0  0  0  0
  7  8  2  0  0  0  0
  8  9  1  0  0  0  0
  8  5  1  0  0  0  0
 10 14  1  0  0  0  0
 10  9  2  0  0  0  0
 11 10  1  0  0  0  0
 12  6  1  0  0  0  0
 13  7  1  0  0  0  0
 16 17  1  0  0  0  0
 16 15  1  0  0  0  0
 17 21  1  0  0  0  0
 17 18  1  0  0  0  0
 19 20  1  0  0  0  0
 19 17  1  0  0  0  0
 21 22  1  0  0  0  0
M  END
>  <minimizedAffinity>
-3.91194987

$$$$

 OpenBabel03242519363D

 22 22  0  0  0  0  0  0  0  0999 V2000
   38.7010   32.0810   38.5590 O   0  0  0  0  0  0  0  0  0  0  0  0
   38.5560   32.7330   39.9180 P   0  0  1  0  0  0  0  0  0  0  0  0
   36.9470   33.0160   40.3230 O   0  0  0  0  0  0  0  0  0  0  0  0
   36.3340   32.3430   39.9100 H   0  0  0  0  0  0  0  0  0  0  0  0
   39.2250   31.6900   41.1130 O   0  0  0  0  0  0  0  0  0  0  0  0
   38.1700   28.8510   43.1650 C   0  0  0  0  0  0  0  0  0  0  0  0
   38.9370   29.9520   42.7020 C   0  0  0  0  0  0  0  0  0  0  0  0
   38.4660   30.6110   41.5640 C   0  0  0  0  0  0  0  0  0  0  0  0
   37.3220   30.1840   40.9590 N   0  0  0  0  0  0  0  0  0  0  0  0
   36.6260   29.1340   41.4320 C   0  0  0  0  0  0  0  0  0  0  0  0
   37.0450   28.4680   42.5340 N   0  0  0  0  0  0  0  0  0  0  0  0
   38.4930   28.3090   44.0420 H   0  0  0  0  0  0  0  0  0  0  0  0
   39.8390   30.2390   43.2300 H   0  0  0  0  0  0  0  0  0  0  0  0
   35.7580   28.9580   40.8170 H   0  0  0  0  0  0  0  0  0  0  0  0
   39.4520   34.1610   39.9420 O   0  0  0  0  0  0  0  0  0  0  0  0
   40.8080   33.9150   40.1530 C   0  0  0  0  0  2  0  0  0  0  0  0
   41.3800   33.0370   39.1730 N   0  0  0  0  0  4  0  0  0  0  0  0
   40.6790   32.3640   38.7910 H   0  0  0  0  0  0  0  0  0  0  0  0
   41.8880   33.7860   38.0190 C   0  0  0  0  0  2  0  0  0  0  0  0
   42.4580   33.1190   37.3630 H   0  0  0  0  0  0  0  0  0  0  0  0
   42.5180   32.3550   39.7630 C   0  0  0  0  0  2  0  0  0  0  0  0
   42.3840   31.2760   39.5780 H   0  0  0  0  0  0  0  0  0  0  0  0
  2  1  2  6  0  0  0
  2 15  1  0  0  0  0
  2  3  1  0  0  0  0
  2  5  1  0  0  0  0
  4  3  1  0  0  0  0
  5  8  1  0  0  0  0
  6 12  1  0  0  0  0
  7  6  1  0  0  0  0
  7 13  1  0  0  0  0
  8  7  2  0  0  0  0
  9 10  2  0  0  0  0
  9  8  1  0  0  0  0
 10 11  1  0  0  0  0
 11  6  2  0  0  0  0
 14 10  1  0  0  0  0
 15 16  1  0  0  0  0
 17 21  1  0  0  0  0
 17 16  1  0  0  0  0
 18 17  1  0  0  0  0
 19 17  1  0  0  0  0
 20 19  1  0  0  0  0
 22 21  1  0  0  0  0
M  END
>  <minimizedAffinity>
-3.71860814

$$$$

 OpenBabel03242519363D

 22 22  0  0  0  0  0  0  0  0999 V2000
   34.4380   29.2310   39.8380 O   0  0  0  0  0  0  0  0  0  0  0  0
   35.8250   29.7660   40.1260 P   0  0  1  0  0  0  0  0  0  0  0  0
   35.9290   30.4900   41.6420 O   0  0  0  0  0  0  0  0  0  0  0  0
   35.2950   30.0800   42.2960 H   0  0  0  0  0  0  0  0  0  0  0  0
   36.9470   28.4610   40.0870 O   0  0  0  0  0  0  0  0  0  0  0  0
   38.1300   26.5360   42.9640 C   0  0  0  0  0  0  0  0  0  0  0  0
   37.4220   26.8670   41.7790 C   0  0  0  0  0  0  0  0  0  0  0  0
   37.6460   28.1400   41.2490 C   0  0  0  0  0  0  0  0  0  0  0  0
   38.5110   28.9900   41.8710 N   0  0  0  0  0  0  0  0  0  0  0  0
   39.1620   28.6340   42.9930 C   0  0  0  0  0  0  0  0  0  0  0  0
   38.9750   27.4090   43.5410 N   0  0  0  0  0  0  0  0  0  0  0  0
   37.9900   25.5630   43.4120 H   0  0  0  0  0  0  0  0  0  0  0  0
   36.7470   26.1450   41.3350 H   0  0  0  0  0  0  0  0  0  0  0  0
   39.7950   29.4410   43.3260 H   0  0  0  0  0  0  0  0  0  0  0  0
   36.2650   30.8410   38.9040 O   0  0  0  0  0  0  0  0  0  0  0  0
   37.0500   31.8850   39.3940 C   0  0  0  0  0  2  0  0  0  0  0  0
   38.2700   31.4340   40.0000 N   0  0  0  0  0  4  0  0  0  0  0  0
   38.1410   30.5450   40.5310 H   0  0  0  0  0  0  0  0  0  0  0  0
   39.2940   31.1520   38.9880 C   0  0  0  0  0  2  0  0  0  0  0  0
   40.2580   30.9650   39.4740 H   0  0  0  0  0  0  0  0  0  0  0  0
   38.7950   32.4950   40.8410 C   0  0  0  0  0  2  0  0  0  0  0  0
   39.0040   32.0540   41.8300 H   0  0  0  0  0  0  0  0  0  0  0  0
  2  1  2  6  0  0  0
  2  3  1  0  0  0  0
  3  4  1  0  0  0  0
  5  2  1  0  0  0  0
  5  8  1  0  0  0  0
  6 12  1  0  0  0  0
  6 11  1  0  0  0  0
  7  6  2  0  0  0  0
  8  7  1  0  0  0  0
  8  9  2  0  0  0  0
  9 10  1  0  0  0  0
 10 14  1  0  0  0  0
 10 11  2  0  0  0  0
 13  7  1  0  0  0  0
 15 16  1  0  0  0  0
 15  2  1  0  0  0  0
 16 17  1  0  0  0  0
 17 18  1  0  0  0  0
 17 21  1  0  0  0  0
 19 20  1  0  0  0  0
 19 17  1  0  0  0  0
 21 22  1  0  0  0  0
M  END
>  <minimizedAffinity>
-3.65892696

$$$$

 OpenBabel03242519363D

 22 22  0  0  0  0  0  0  0  0999 V2000
   36.3370   30.1510   41.6030 O   0  0  0  0  0  0  0  0  0  0  0  0
   37.4590   29.2270   42.0290 P   0  0  1  0  0  0  0  0  0  0  0  0
   37.8750   29.4320   43.6460 O   0  0  0  0  0  0  0  0  0  0  0  0
   37.0970   29.7280   44.1990 H   0  0  0  0  0  0  0  0  0  0  0  0
   36.9490   27.5960   41.8180 O   0  0  0  0  0  0  0  0  0  0  0  0
   38.3490   24.2370   42.1920 C   0  0  0  0  0  0  0  0  0  0  0  0
   37.4950   25.2880   41.7680 C   0  0  0  0  0  0  0  0  0  0  0  0
   37.7930   26.5690   42.2370 C   0  0  0  0  0  0  0  0  0  0  0  0
   38.8630   26.7560   43.0600 N   0  0  0  0  0  0  0  0  0  0  0  0
   39.6480   25.7300   43.4380 C   0  0  0  0  0  0  0  0  0  0  0  0
   39.3950   24.4720   43.0050 N   0  0  0  0  0  0  0  0  0  0  0  0
   38.1590   23.2280   41.8560 H   0  0  0  0  0  0  0  0  0  0  0  0
   36.6590   25.0700   41.1120 H   0  0  0  0  0  0  0  0  0  0  0  0
   40.4340   26.0850   44.0840 H   0  0  0  0  0  0  0  0  0  0  0  0
   38.7870   29.4720   41.0200 O   0  0  0  0  0  0  0  0  0  0  0  0
   38.5320   30.4500   40.0600 C   0  0  0  0  0  2  0  0  0  0  0  0
   39.4770   31.5300   40.0930 N   0  0  0  0  0  4  0  0  0  0  0  0
   40.4060   31.2300   40.4650 H   0  0  0  0  0  0  0  0  0  0  0  0
   39.7340   32.0530   38.7470 C   0  0  0  0  0  2  0  0  0  0  0  0
   40.3290   32.9720   38.8110 H   0  0  0  0  0  0  0  0  0  0  0  0
   38.9130   32.6220   40.8660 C   0  0  0  0  0  2  0  0  0  0  0  0
   39.6680   32.9150   41.6160 H   0  0  0  0  0  0  0  0  0  0  0  0
  2  1  2  6  0  0  0
  2  3  1  0  0  0  0
  3  4  1  0  0  0  0
  5  2  1  0  0  0  0
  5  8  1  0  0  0  0
  6 11  1  0  0  0  0
  7  6  2  0  0  0  0
  7  8  1  0  0  0  0
  8  9  2  0  0  0  0
  9 10  1  0  0  0  0
 10 14  1  0  0  0  0
 11 10  2  0  0  0  0
 12  6  1  0  0  0  0
 13  7  1  0  0  0  0
 15  2  1  0  0  0  0
 16 17  1  0  0  0  0
 16 15  1  0  0  0  0
 17 18  1  0  0  0  0
 17 21  1  0  0  0  0
 19 20  1  0  0  0  0
 19 17  1  0  0  0  0
 21 22  1  0  0  0  0
M  END
>  <minimizedAffinity>
-3.63654113

$$$$

 OpenBabel03242519363D

 22 22  0  0  0  0  0  0  0  0999 V2000
   38.1400   29.6800   42.9010 O   0  0  0  0  0  0  0  0  0  0  0  0
   37.1600   28.8110   42.1410 P   0  0  1  0  0  0  0  0  0  0  0  0
   36.2440   27.8370   43.1630 O   0  0  0  0  0  0  0  0  0  0  0  0
   36.1060   28.2600   44.0590 H   0  0  0  0  0  0  0  0  0  0  0  0
   36.0750   29.8250   41.2690 O   0  0  0  0  0  0  0  0  0  0  0  0
   37.4850   32.5630   39.2940 C   0  0  0  0  0  0  0  0  0  0  0  0
   36.9970   31.8360   40.4110 C   0  0  0  0  0  0  0  0  0  0  0  0
   36.5550   30.5330   40.1690 C   0  0  0  0  0  0  0  0  0  0  0  0
   36.6090   30.0250   38.9050 N   0  0  0  0  0  0  0  0  0  0  0  0
   37.0800   30.7500   37.8740 C   0  0  0  0  0  0  0  0  0  0  0  0
   37.5190   32.0170   38.0650 N   0  0  0  0  0  0  0  0  0  0  0  0
   37.8380   33.5750   39.4310 H   0  0  0  0  0  0  0  0  0  0  0  0
   36.9810   32.3000   41.3900 H   0  0  0  0  0  0  0  0  0  0  0  0
   37.0390   30.1710   36.9660 H   0  0  0  0  0  0  0  0  0  0  0  0
   38.0020   27.8880   41.0100 O   0  0  0  0  0  0  0  0  0  0  0  0
   39.1560   27.3280   41.5580 C   0  0  0  0  0  2  0  0  0  0  0  0
   38.9030   26.5820   42.7590 N   0  0  0  0  0  4  0  0  0  0  0  0
   38.0200   26.8820   43.2300 H   0  0  0  0  0  0  0  0  0  0  0  0
   38.7390   25.1530   42.4720 C   0  0  0  0  0  2  0  0  0  0  0  0
   38.7070   24.5860   43.4090 H   0  0  0  0  0  0  0  0  0  0  0  0
   40.0520   26.7040   43.6370 C   0  0  0  0  0  2  0  0  0  0  0  0
   39.6760   27.0130   44.6260 H   0  0  0  0  0  0  0  0  0  0  0  0
  2  1  2  1  0  0  0
  2  3  1  0  0  0  0
  3  4  1  0  0  0  0
  5  2  1  0  0  0  0
  6 12  1  0  0  0  0
  6  7  1  0  0  0  0
  7 13  1  0  0  0  0
  8  7  2  0  0  0  0
  8  5  1  0  0  0  0
  9  8  1  0  0  0  0
 10 11  1  0  0  0  0
 10  9  2  0  0  0  0
 11  6  2  0  0  0  0
 14 10  1  0  0  0  0
 15 16  1  0  0  0  0
 15  2  1  0  0  0  0
 16 17  1  0  0  0  0
 17 18  1  0  0  0  0
 17 21  1  0  0  0  0
 19 17  1  0  0  0  0
 19 20  1  0  0  0  0
 21 22  1  0  0  0  0
M  END
>  <minimizedAffinity>
-3.63541174

$$$$

 OpenBabel03242519363D

 22 22  0  0  0  0  0  0  0  0999 V2000
   35.8750   28.4780   41.5080 O   0  0  0  0  0  0  0  0  0  0  0  0
   37.1260   29.1760   41.9970 P   0  0  1  0  0  0  0  0  0  0  0  0
   37.2240   29.2100   43.6770 O   0  0  0  0  0  0  0  0  0  0  0  0
   36.7730   28.4210   44.0940 H   0  0  0  0  0  0  0  0  0  0  0  0
   38.5050   28.3320   41.4060 O   0  0  0  0  0  0  0  0  0  0  0  0
   38.7490   24.7590   42.1560 C   0  0  0  0  0  0  0  0  0  0  0  0
   38.3610   25.9660   41.5170 C   0  0  0  0  0  0  0  0  0  0  0  0
   38.8910   27.1500   42.0360 C   0  0  0  0  0  0  0  0  0  0  0  0
   39.7350   27.1020   43.1040 N   0  0  0  0  0  0  0  0  0  0  0  0
   40.0770   25.9350   43.6800 C   0  0  0  0  0  0  0  0  0  0  0  0
   39.5870   24.7630   43.2080 N   0  0  0  0  0  0  0  0  0  0  0  0
   38.3650   23.8180   41.7910 H   0  0  0  0  0  0  0  0  0  0  0  0
   37.6840   25.9340   40.6710 H   0  0  0  0  0  0  0  0  0  0  0  0
   40.7500   26.1110   44.5030 H   0  0  0  0  0  0  0  0  0  0  0  0
   37.1770   30.7320   41.3510 O   0  0  0  0  0  0  0  0  0  0  0  0
   36.5750   30.7890   40.0950 C   0  0  0  0  0  2  0  0  0  0  0  0
   37.1650   29.8870   39.1470 N   0  0  0  0  0  4  0  0  0  0  0  0
   37.4830   28.9990   39.5940 H   0  0  0  0  0  0  0  0  0  0  0  0
   36.2010   29.4940   38.1150 C   0  0  0  0  0  2  0  0  0  0  0  0
   36.7110   28.9390   37.3190 H   0  0  0  0  0  0  0  0  0  0  0  0
   38.2520   30.5690   38.4660 C   0  0  0  0  0  2  0  0  0  0  0  0
   39.1380   29.9150   38.5300 H   0  0  0  0  0  0  0  0  0  0  0  0
  2  1  2  6  0  0  0
  2  3  1  0  0  0  0
  3  4  1  0  0  0  0
  5  2  1  0  0  0  0
  5  8  1  0  0  0  0
  6 11  1  0  0  0  0
  7  8  1  0  0  0  0
  7  6  2  0  0  0  0
  8  9  2  0  0  0  0
  9 10  1  0  0  0  0
 10 14  1  0  0  0  0
 11 10  2  0  0  0  0
 12  6  1  0  0  0  0
 13  7  1  0  0  0  0
 15  2  1  0  0  0  0
 16 15  1  0  0  0  0
 17 18  1  0  0  0  0
 17 16  1  0  0  0  0
 19 17  1  0  0  0  0
 20 19  1  0  0  0  0
 21 22  1  0  0  0  0
 21 17  1  0  0  0  0
M  END
>  <minimizedAffinity>
-3.57153249

$$$$
