
 OpenBabel03252507103D

 34 35  0  0  1  0  0  0  0  0999 V2000
   44.7130   34.9300   43.5990 C   0  0  0  0  0  0  0  0  0  0  0  0
   44.6680   34.7210   42.2090 C   0  0  0  0  0  0  0  0  0  0  0  0
   45.4780   33.7070   41.6960 C   0  0  0  0  0  0  0  0  0  0  0  0
   46.2470   32.9940   42.5390 N   0  0  0  0  0  0  0  0  0  0  0  0
   46.2770   33.2070   43.8580 C   0  0  0  0  0  0  0  0  0  0  0  0
   45.4990   34.1870   44.3900 N   0  0  0  0  0  0  0  0  0  0  0  0
   44.0880   35.7190   44.0320 H   0  0  0  0  0  0  0  0  0  0  0  0
   44.0250   35.3390   41.6170 H   0  0  0  0  0  0  0  0  0  0  0  0
   46.5580   32.3760   46.2010 C   0  0  1  0  0  0  0  0  0  0  0  0
   47.1100   32.4620   44.8120 C   0  0  1  0  0  0  0  0  0  0  0  0
   47.0820   30.9580   44.4530 C   0  0  0  0  0  0  0  0  0  0  0  0
   47.2830   30.2730   45.6100 O   0  0  0  0  0  0  0  0  0  0  0  0
   47.3390   31.1580   46.6850 C   0  0  0  0  0  0  0  0  0  0  0  0
   45.4780   32.1450   46.1000 H   0  0  0  0  0  0  0  0  0  0  0  0
   48.1730   32.7820   44.8210 H   0  0  0  0  0  0  0  0  0  0  0  0
   47.8990   30.7960   43.7030 H   0  0  0  0  0  0  0  0  0  0  0  0
   46.1110   30.7480   43.9980 H   0  0  0  0  0  0  0  0  0  0  0  0
   48.3700   31.4870   46.8800 H   0  0  0  0  0  0  0  0  0  0  0  0
   46.8470   30.7330   47.5920 H   0  0  0  0  0  0  0  0  0  0  0  0
   46.7350   33.4970   46.9560 O   0  0  0  0  0  0  0  0  0  0  0  0
   45.9600   34.0720   46.8640 H   0  0  0  0  0  0  0  0  0  0  0  0
   45.4240   33.5110   40.3250 O   0  0  0  0  0  0  0  0  0  0  0  0
   47.0150   31.4030   40.6590 O   0  0  0  0  0  0  0  0  0  0  0  0
   46.0680   32.0700   39.6470 P   0  0  1  0  0  0  0  0  0  0  0  0
   44.8160   31.0640   39.2570 O   0  0  0  0  0  0  0  0  0  0  0  0
   44.0840   31.0940   39.8990 H   0  0  0  0  0  0  0  0  0  0  0  0
   47.0030   32.5270   38.3240 O   0  0  0  0  0  0  0  0  0  0  0  0
   46.3560   32.3740   37.1260 C   0  0  0  0  0  2  0  0  0  0  0  0
   46.2030   31.0310   36.6580 N   0  0  0  0  0  4  0  0  0  0  0  0
   45.9100   30.4310   37.4460 H   0  0  0  0  0  0  0  0  0  0  0  0
   47.3690   30.4990   36.0130 C   0  0  0  0  0  2  0  0  0  0  0  0
   47.4370   29.4180   36.1420 H   0  0  0  0  0  0  0  0  0  0  0  0
   45.0690   30.9950   35.7190 C   0  0  0  0  0  2  0  0  0  0  0  0
   44.3490   30.2070   35.9510 H   0  0  0  0  0  0  0  0  0  0  0  0
  1  7  1  0  0  0  0
  1  6  1  0  0  0  0
  2  1  2  0  0  0  0
  3  2  1  0  0  0  0
  3  4  2  0  0  0  0
  4  5  1  0  0  0  0
  5  6  2  0  0  0  0
  5 10  1  0  0  0  0
  8  2  1  0  0  0  0
  9 14  1  6  0  0  0
  9 13  1  0  0  0  0
  9 20  1  0  0  0  0
 10 15  1  1  0  0  0
 10  9  1  0  0  0  0
 11 10  1  0  0  0  0
 11 12  1  0  0  0  0
 12 13  1  0  0  0  0
 13 18  1  0  0  0  0
 13 19  1  0  0  0  0
 16 11  1  0  0  0  0
 17 11  1  0  0  0  0
 21 20  1  0  0  0  0
 22  3  1  0  0  0  0
 24 22  1  0  0  0  0
 24 23  2  1  0  0  0
 25 24  1  0  0  0  0
 25 26  1  0  0  0  0
 27 24  1  0  0  0  0
 28 27  1  0  0  0  0
 29 28  1  0  0  0  0
 29 30  1  0  0  0  0
 31 32  1  0  0  0  0
 31 29  1  0  0  0  0
 33 34  1  0  0  0  0
 33 29  1  0  0  0  0
M  END
>  <minimizedAffinity>
-3.35650539

>  <minimizedRMSD>
4.84035683

$$$$
