
 OpenBabel03252502553D

 35 36  0  0  0  0  0  0  0  0999 V2000
   45.6190   29.9430   44.8260 Br  0  0  0  0  0  0  0  0  0  0  0  0
   45.6680   30.6170   46.6370 C   0  0  0  0  0  0  0  0  0  0  0  0
   46.3470   31.7950   46.8150 C   0  0  0  0  0  0  0  0  0  0  0  0
   46.3580   32.2480   48.1350 C   0  0  0  0  0  0  0  0  0  0  0  0
   45.7490   31.5830   49.1770 C   0  0  0  0  0  0  0  0  0  0  0  0
   45.0930   30.4140   48.9150 C   0  0  0  0  0  0  0  0  0  0  0  0
   45.0400   29.9100   47.6400 C   0  0  0  0  0  0  0  0  0  0  0  0
   46.8740   33.1790   48.3700 H   0  0  0  0  0  0  0  0  0  0  0  0
   45.7950   31.9920   50.1910 H   0  0  0  0  0  0  0  0  0  0  0  0
   44.6240   29.9220   49.7690 H   0  0  0  0  0  0  0  0  0  0  0  0
   47.0270   32.5910   45.8090 C   0  0  0  0  0  0  0  0  0  0  0  0
   47.3080   31.9110   44.9620 H   0  0  0  0  0  0  0  0  0  0  0  0
   47.9890   33.0460   46.1490 H   0  0  0  0  0  0  0  0  0  0  0  0
   44.5260   35.3210   45.3950 C   0  0  0  0  0  0  0  0  0  0  0  0
   44.7460   35.7190   44.0620 C   0  0  0  0  0  0  0  0  0  0  0  0
   45.7340   35.0530   43.3400 C   0  0  0  0  0  0  0  0  0  0  0  0
   46.4290   34.0680   43.9380 N   0  0  0  0  0  0  0  0  0  0  0  0
   46.1990   33.6950   45.2400 C   0  0  0  0  0  0  0  0  0  0  0  0
   45.2390   34.3500   45.9260 N   0  0  0  0  0  0  0  0  0  0  0  0
   43.7970   35.7450   46.0750 H   0  0  0  0  0  0  0  0  0  0  0  0
   44.1240   36.5180   43.7010 H   0  0  0  0  0  0  0  0  0  0  0  0
   45.8930   35.3630   42.3280 H   0  0  0  0  0  0  0  0  0  0  0  0
   44.3720   28.7220   47.3780 O   0  0  0  0  0  0  0  0  0  0  0  0
   44.2650   26.1570   46.9740 O   0  0  0  0  0  0  0  0  0  0  0  0
   44.9480   27.1900   47.8570 P   0  0  2  0  0  0  0  0  0  0  0  0
   44.5150   26.9660   49.4620 O   0  0  0  0  0  0  0  0  0  0  0  0
   45.1900   27.2230   50.1200 H   0  0  0  0  0  0  0  0  0  0  0  0
   46.6080   27.0580   47.6470 O   0  0  0  0  0  0  0  0  0  0  0  0
   46.9430   26.0340   46.7640 C   0  0  0  0  0  2  0  0  0  0  0  0
   46.8630   26.4390   45.3770 N   0  0  0  0  0  4  0  0  0  0  0  0
   46.0830   27.1070   45.2140 H   0  0  0  0  0  0  0  0  0  0  0  0
   48.1450   27.0390   45.0150 C   0  0  0  0  0  2  0  0  0  0  0  0
   48.5470   27.5120   45.9430 H   0  0  0  0  0  0  0  0  0  0  0  0
   46.6820   25.2950   44.4940 C   0  0  0  0  0  2  0  0  0  0  0  0
   45.6720   24.8470   44.5900 H   0  0  0  0  0  0  0  0  0  0  0  0
  1  2  1  0  0  0  0
  2  3  2  0  0  0  0
  2  7  1  0  0  0  0
  3  4  1  0  0  0  0
  4  8  1  0  0  0  0
  4  5  2  0  0  0  0
  5  9  1  0  0  0  0
  6  5  1  0  0  0  0
  6 10  1  0  0  0  0
  7  6  2  0  0  0  0
 11 13  1  0  0  0  0
 11  3  1  0  0  0  0
 12 11  1  0  0  0  0
 14 19  1  0  0  0  0
 14 20  1  0  0  0  0
 15 14  2  0  0  0  0
 16 17  2  0  0  0  0
 16 15  1  0  0  0  0
 17 18  1  0  0  0  0
 18 11  1  0  0  0  0
 18 19  2  0  0  0  0
 21 15  1  0  0  0  0
 22 16  1  0  0  0  0
 23  7  1  0  0  0  0
 23 25  1  0  0  0  0
 25 24  2  6  0  0  0
 25 26  1  0  0  0  0
 26 27  1  0  0  0  0
 28 25  1  0  0  0  0
 29 28  1  0  0  0  0
 30 29  1  0  0  0  0
 31 30  1  0  0  0  0
 32 30  1  0  0  0  0
 32 33  1  0  0  0  0
 34 35  1  0  0  0  0
 34 30  1  0  0  0  0
M  END
>  <minimizedAffinity>
-4.54452705

>  <minimizedRMSD>
0.624482334

$$$$
