
 OpenBabel03242522493D

 22 22  0  0  0  0  0  0  0  0999 V2000
   37.0930   32.6060   39.9300 O   0  0  0  0  0  0  0  0  0  0  0  0
   37.0340   31.1860   40.4880 P   0  0  2  0  0  0  0  0  0  0  0  0
   35.6190   31.0340   41.4060 O   0  0  0  0  0  0  0  0  0  0  0  0
   35.4860   31.8960   41.8740 H   0  0  0  0  0  0  0  0  0  0  0  0
   38.3590   30.9370   41.5340 O   0  0  0  0  0  0  0  0  0  0  0  0
   39.7940   27.9540   43.0910 C   0  0  0  0  0  0  0  0  0  0  0  0
   39.7080   29.1690   42.3610 C   0  0  0  0  0  0  0  0  0  0  0  0
   38.4460   29.7520   42.2460 C   0  0  0  0  0  0  0  0  0  0  0  0
   37.3770   29.1420   42.8290 N   0  0  0  0  0  0  0  0  0  0  0  0
   37.4970   27.9860   43.5170 C   0  0  0  0  0  0  0  0  0  0  0  0
   38.6940   27.3970   43.6470 N   0  0  0  0  0  0  0  0  0  0  0  0
   40.7560   27.4580   43.2090 H   0  0  0  0  0  0  0  0  0  0  0  0
   40.6290   29.5610   41.9400 H   0  0  0  0  0  0  0  0  0  0  0  0
   36.5370   27.6610   43.9020 H   0  0  0  0  0  0  0  0  0  0  0  0
   37.0910   30.0520   39.2510 O   0  0  0  0  0  0  0  0  0  0  0  0
   37.7980   30.6530   38.1960 C   0  0  0  0  0  2  0  0  0  0  0  0
   39.1880   30.7640   38.5990 N   0  0  0  0  0  4  0  0  0  0  0  0
   39.1850   31.0550   39.5960 H   0  0  0  0  0  0  0  0  0  0  0  0
   39.8150   31.7600   37.7470 C   0  0  0  0  0  2  0  0  0  0  0  0
   40.3630   31.2720   36.9120 H   0  0  0  0  0  0  0  0  0  0  0  0
   39.8630   29.4970   38.5010 C   0  0  0  0  0  2  0  0  0  0  0  0
   39.1070   28.6730   38.5370 H   0  0  0  0  0  0  0  0  0  0  0  0
  2  1  2  6  0  0  0
  2  3  1  0  0  0  0
  2  5  1  0  0  0  0
  3  4  1  0  0  0  0
  5  8  1  0  0  0  0
  6 12  1  0  0  0  0
  6 11  1  0  0  0  0
  7  6  2  0  0  0  0
  8  7  1  0  0  0  0
  8  9  2  0  0  0  0
  9 10  1  0  0  0  0
 10 11  2  0  0  0  0
 10 14  1  0  0  0  0
 13  7  1  0  0  0  0
 15  2  1  0  0  0  0
 16 17  1  0  0  0  0
 16 15  1  0  0  0  0
 17 18  1  0  0  0  0
 19 17  1  0  0  0  0
 20 19  1  0  0  0  0
 21 22  1  0  0  0  0
 21 17  1  0  0  0  0
M  END
>  <minimizedAffinity>
-4.00969553

$$$$

 OpenBabel03242522493D

 22 22  0  0  0  0  0  0  0  0999 V2000
   36.1010   28.4180   40.8490 O   0  0  0  0  0  0  0  0  0  0  0  0
   36.7490   29.6950   41.3790 P   0  0  2  0  0  0  0  0  0  0  0  0
   35.5660   30.9040   41.4440 O   0  0  0  0  0  0  0  0  0  0  0  0
   34.9840   30.7790   40.6530 H   0  0  0  0  0  0  0  0  0  0  0  0
   37.9550   30.2090   40.2870 O   0  0  0  0  0  0  0  0  0  0  0  0
   40.0650   33.1820   40.6010 C   0  0  0  0  0  0  0  0  0  0  0  0
   39.6700   31.8170   40.6060 C   0  0  0  0  0  0  0  0  0  0  0  0
   38.3420   31.5400   40.2830 C   0  0  0  0  0  0  0  0  0  0  0  0
   37.5020   32.5690   39.9840 N   0  0  0  0  0  0  0  0  0  0  0  0
   37.9120   33.8560   39.9900 C   0  0  0  0  0  0  0  0  0  0  0  0
   39.1810   34.1590   40.2960 N   0  0  0  0  0  0  0  0  0  0  0  0
   41.0900   33.4520   40.8470 H   0  0  0  0  0  0  0  0  0  0  0  0
   40.4290   31.0830   40.8610 H   0  0  0  0  0  0  0  0  0  0  0  0
   37.1010   34.5240   39.7280 H   0  0  0  0  0  0  0  0  0  0  0  0
   37.4470   29.4340   42.8830 O   0  0  0  0  0  0  0  0  0  0  0  0
   37.8740   28.0950   42.8950 C   0  0  0  0  0  2  0  0  0  0  0  0
   39.0390   27.9940   42.0330 N   0  0  0  0  0  4  0  0  0  0  0  0
   38.8460   28.5890   41.2040 H   0  0  0  0  0  0  0  0  0  0  0  0
   39.1970   26.5960   41.6700 C   0  0  0  0  0  2  0  0  0  0  0  0
   39.9540   26.1050   42.3200 H   0  0  0  0  0  0  0  0  0  0  0  0
   40.2180   28.4980   42.6860 C   0  0  0  0  0  2  0  0  0  0  0  0
   39.9140   29.2000   43.5030 H   0  0  0  0  0  0  0  0  0  0  0  0
  2  1  2  6  0  0  0
  2  3  1  0  0  0  0
  2 15  1  0  0  0  0
  4  3  1  0  0  0  0
  5  2  1  0  0  0  0
  6  7  1  0  0  0  0
  6 12  1  0  0  0  0
  7 13  1  0  0  0  0
  8  5  1  0  0  0  0
  8  7  2  0  0  0  0
  9 10  2  0  0  0  0
  9  8  1  0  0  0  0
 10 11  1  0  0  0  0
 11  6  2  0  0  0  0
 14 10  1  0  0  0  0
 15 16  1  0  0  0  0
 17 21  1  0  0  0  0
 17 16  1  0  0  0  0
 18 17  1  0  0  0  0
 19 17  1  0  0  0  0
 19 20  1  0  0  0  0
 21 22  1  0  0  0  0
M  END
>  <minimizedAffinity>
-3.8776834

$$$$

 OpenBabel03242522493D

 22 22  0  0  0  0  0  0  0  0999 V2000
   34.6700   29.2150   39.8510 O   0  0  0  0  0  0  0  0  0  0  0  0
   35.9660   29.8410   40.3610 P   0  0  2  0  0  0  0  0  0  0  0  0
   35.5670   31.0950   41.4260 O   0  0  0  0  0  0  0  0  0  0  0  0
   34.7600   31.5370   41.0600 H   0  0  0  0  0  0  0  0  0  0  0  0
   36.8130   30.5270   39.0480 O   0  0  0  0  0  0  0  0  0  0  0  0
   36.8780   28.8110   35.8170 C   0  0  0  0  0  0  0  0  0  0  0  0
   36.4380   29.6510   36.8750 C   0  0  0  0  0  0  0  0  0  0  0  0
   37.2400   29.7080   38.0150 C   0  0  0  0  0  0  0  0  0  0  0  0
   38.3840   28.9720   38.0600 N   0  0  0  0  0  0  0  0  0  0  0  0
   38.7720   28.1840   37.0340 C   0  0  0  0  0  0  0  0  0  0  0  0
   38.0250   28.1040   35.9230 N   0  0  0  0  0  0  0  0  0  0  0  0
   36.2870   28.7310   34.9060 H   0  0  0  0  0  0  0  0  0  0  0  0
   35.5070   30.1910   36.7260 H   0  0  0  0  0  0  0  0  0  0  0  0
   39.7040   27.6810   37.2600 H   0  0  0  0  0  0  0  0  0  0  0  0
   36.9380   28.6900   41.1000 O   0  0  0  0  0  0  0  0  0  0  0  0
   37.6000   29.3470   42.1510 C   0  0  0  0  0  2  0  0  0  0  0  0
   37.6800   28.4270   43.2710 N   0  0  0  0  0  4  0  0  0  0  0  0
   37.5680   28.9970   44.1320 H   0  0  0  0  0  0  0  0  0  0  0  0
   38.9810   27.7810   43.2170 C   0  0  0  0  0  2  0  0  0  0  0  0
   38.9020   26.7820   42.7340 H   0  0  0  0  0  0  0  0  0  0  0  0
   36.6160   27.4590   43.2290 C   0  0  0  0  0  2  0  0  0  0  0  0
   35.7740   27.8650   42.6150 H   0  0  0  0  0  0  0  0  0  0  0  0
  2  1  2  6  0  0  0
  2 15  1  0  0  0  0
  2  3  1  0  0  0  0
  4  3  1  0  0  0  0
  5  2  1  0  0  0  0
  6 11  2  0  0  0  0
  6  7  1  0  0  0  0
  7  8  2  0  0  0  0
  8  9  1  0  0  0  0
  8  5  1  0  0  0  0
 10 14  1  0  0  0  0
 10  9  2  0  0  0  0
 11 10  1  0  0  0  0
 12  6  1  0  0  0  0
 13  7  1  0  0  0  0
 15 16  1  0  0  0  0
 16 17  1  0  0  0  0
 17 18  1  0  0  0  0
 19 17  1  0  0  0  0
 20 19  1  0  0  0  0
 21 17  1  0  0  0  0
 22 21  1  0  0  0  0
M  END
>  <minimizedAffinity>
-3.87167645

$$$$

 OpenBabel03242522493D

 22 22  0  0  0  0  0  0  0  0999 V2000
   37.5030   31.7580   38.3000 O   0  0  0  0  0  0  0  0  0  0  0  0
   37.8190   32.4960   39.5990 P   0  0  2  0  0  0  0  0  0  0  0  0
   36.7870   33.8340   39.7150 O   0  0  0  0  0  0  0  0  0  0  0  0
   36.6820   34.1950   38.7990 H   0  0  0  0  0  0  0  0  0  0  0  0
   39.4200   33.0820   39.5370 O   0  0  0  0  0  0  0  0  0  0  0  0
   41.9760   30.5250   38.9720 C   0  0  0  0  0  0  0  0  0  0  0  0
   40.9790   31.2960   39.6290 C   0  0  0  0  0  0  0  0  0  0  0  0
   40.3930   32.3300   38.8990 C   0  0  0  0  0  0  0  0  0  0  0  0
   40.7940   32.5470   37.6160 N   0  0  0  0  0  0  0  0  0  0  0  0
   41.7450   31.7940   37.0230 C   0  0  0  0  0  0  0  0  0  0  0  0
   42.3300   30.7930   37.6950 N   0  0  0  0  0  0  0  0  0  0  0  0
   42.4650   29.7080   39.4980 H   0  0  0  0  0  0  0  0  0  0  0  0
   40.7420   31.0290   40.6550 H   0  0  0  0  0  0  0  0  0  0  0  0
   41.9240   32.1230   36.0070 H   0  0  0  0  0  0  0  0  0  0  0  0
   37.6580   31.4780   40.9230 O   0  0  0  0  0  0  0  0  0  0  0  0
   36.3430   30.9840   40.8850 C   0  0  0  0  0  2  0  0  0  0  0  0
   36.2840   29.8100   41.7370 N   0  0  0  0  0  4  0  0  0  0  0  0
   35.6040   30.0260   42.4920 H   0  0  0  0  0  0  0  0  0  0  0  0
   37.6190   29.5810   42.2620 C   0  0  0  0  0  2  0  0  0  0  0  0
   38.1470   28.8040   41.6650 H   0  0  0  0  0  0  0  0  0  0  0  0
   35.8050   28.6620   41.0130 C   0  0  0  0  0  2  0  0  0  0  0  0
   35.2220   29.0060   40.1220 H   0  0  0  0  0  0  0  0  0  0  0  0
  2  1  2  6  0  0  0
  2  3  1  0  0  0  0
  2 15  1  0  0  0  0
  4  3  1  0  0  0  0
  5  2  1  0  0  0  0
  6 12  1  0  0  0  0
  6  7  1  0  0  0  0
  7 13  1  0  0  0  0
  8  5  1  0  0  0  0
  8  7  2  0  0  0  0
  9  8  1  0  0  0  0
 10  9  2  0  0  0  0
 10 11  1  0  0  0  0
 11  6  2  0  0  0  0
 14 10  1  0  0  0  0
 16 15  1  0  0  0  0
 16 17  1  0  0  0  0
 17 19  1  0  0  0  0
 17 18  1  0  0  0  0
 20 19  1  0  0  0  0
 21 17  1  0  0  0  0
 22 21  1  0  0  0  0
M  END
>  <minimizedAffinity>
-3.84014535

$$$$

 OpenBabel03242522493D

 22 22  0  0  0  0  0  0  0  0999 V2000
   36.4370   29.1840   39.0990 O   0  0  0  0  0  0  0  0  0  0  0  0
   35.6990   29.3640   40.4230 P   0  0  2  0  0  0  0  0  0  0  0  0
   34.0340   29.3190   40.1150 O   0  0  0  0  0  0  0  0  0  0  0  0
   33.8900   29.7790   39.2490 H   0  0  0  0  0  0  0  0  0  0  0  0
   36.0640   30.9020   41.0660 O   0  0  0  0  0  0  0  0  0  0  0  0
   38.6240   33.1630   39.7540 C   0  0  0  0  0  0  0  0  0  0  0  0
   37.3480   32.5920   40.0050 C   0  0  0  0  0  0  0  0  0  0  0  0
   37.3070   31.4610   40.8200 C   0  0  0  0  0  0  0  0  0  0  0  0
   38.4700   30.9680   41.3300 N   0  0  0  0  0  0  0  0  0  0  0  0
   39.6670   31.5370   41.0710 C   0  0  0  0  0  0  0  0  0  0  0  0
   39.7430   32.6240   40.2900 N   0  0  0  0  0  0  0  0  0  0  0  0
   38.7100   34.0460   39.1240 H   0  0  0  0  0  0  0  0  0  0  0  0
   36.4900   33.0730   39.5430 H   0  0  0  0  0  0  0  0  0  0  0  0
   40.4680   31.0000   41.5630 H   0  0  0  0  0  0  0  0  0  0  0  0
   36.1520   28.1860   41.5290 O   0  0  0  0  0  0  0  0  0  0  0  0
   37.2810   27.5480   40.9880 C   0  0  0  0  0  2  0  0  0  0  0  0
   37.9170   26.7920   42.0510 N   0  0  0  0  0  4  0  0  0  0  0  0
   38.8880   26.5980   41.7380 H   0  0  0  0  0  0  0  0  0  0  0  0
   37.1560   25.5680   42.2360 C   0  0  0  0  0  2  0  0  0  0  0  0
   36.4450   25.6720   43.0850 H   0  0  0  0  0  0  0  0  0  0  0  0
   37.9800   27.5540   43.2700 C   0  0  0  0  0  2  0  0  0  0  0  0
   37.9100   28.6430   43.0260 H   0  0  0  0  0  0  0  0  0  0  0  0
  2  1  2  6  0  0  0
  2  5  1  0  0  0  0
  2 15  1  0  0  0  0
  3  2  1  0  0  0  0
  4  3  1  0  0  0  0
  6  7  2  0  0  0  0
  6 11  1  0  0  0  0
  7  8  1  0  0  0  0
  8  5  1  0  0  0  0
  8  9  2  0  0  0  0
 10  9  1  0  0  0  0
 10 14  1  0  0  0  0
 11 10  2  0  0  0  0
 12  6  1  0  0  0  0
 13  7  1  0  0  0  0
 16 15  1  0  0  0  0
 16 17  1  0  0  0  0
 17 19  1  0  0  0  0
 17 21  1  0  0  0  0
 18 17  1  0  0  0  0
 19 20  1  0  0  0  0
 22 21  1  0  0  0  0
M  END
>  <minimizedAffinity>
-3.81379223

$$$$

 OpenBabel03242522493D

 22 22  0  0  0  0  0  0  0  0999 V2000
   36.6450   26.6950   43.1420 O   0  0  0  0  0  0  0  0  0  0  0  0
   37.1750   27.9920   42.5360 P   0  0  2  0  0  0  0  0  0  0  0  0
   36.9910   29.2270   43.6800 O   0  0  0  0  0  0  0  0  0  0  0  0
   36.1350   29.0580   44.1490 H   0  0  0  0  0  0  0  0  0  0  0  0
   36.2330   28.4030   41.1740 O   0  0  0  0  0  0  0  0  0  0  0  0
   36.6800   30.7640   38.4150 C   0  0  0  0  0  0  0  0  0  0  0  0
   36.4060   29.5530   39.1060 C   0  0  0  0  0  0  0  0  0  0  0  0
   36.5000   29.5820   40.4970 C   0  0  0  0  0  0  0  0  0  0  0  0
   36.8420   30.7460   41.1160 N   0  0  0  0  0  0  0  0  0  0  0  0
   37.0950   31.8790   40.4260 C   0  0  0  0  0  0  0  0  0  0  0  0
   37.0160   31.8870   39.0880 N   0  0  0  0  0  0  0  0  0  0  0  0
   36.6220   30.7940   37.3280 H   0  0  0  0  0  0  0  0  0  0  0  0
   36.1440   28.6880   38.5050 H   0  0  0  0  0  0  0  0  0  0  0  0
   37.3500   32.6930   41.0940 H   0  0  0  0  0  0  0  0  0  0  0  0
   38.7770   27.8230   42.0640 O   0  0  0  0  0  0  0  0  0  0  0  0
   38.9880   26.4480   41.8650 C   0  0  0  0  0  2  0  0  0  0  0  0
   39.5890   25.9120   43.0730 N   0  0  0  0  0  4  0  0  0  0  0  0
   39.0020   26.2370   43.8660 H   0  0  0  0  0  0  0  0  0  0  0  0
   40.9440   26.4280   43.1570 C   0  0  0  0  0  2  0  0  0  0  0  0
   41.6730   25.6820   42.7700 H   0  0  0  0  0  0  0  0  0  0  0  0
   39.5810   24.4730   43.0660 C   0  0  0  0  0  2  0  0  0  0  0  0
   38.7830   24.1130   42.3690 H   0  0  0  0  0  0  0  0  0  0  0  0
  2  1  2  1  0  0  0
  2  3  1  0  0  0  0
  3  4  1  0  0  0  0
  5  2  1  0  0  0  0
  6 11  2  0  0  0  0
  6  7  1  0  0  0  0
  7  8  2  0  0  0  0
  8  9  1  0  0  0  0
  8  5  1  0  0  0  0
 10 14  1  0  0  0  0
 10  9  2  0  0  0  0
 11 10  1  0  0  0  0
 12  6  1  0  0  0  0
 13  7  1  0  0  0  0
 15  2  1  0  0  0  0
 16 15  1  0  0  0  0
 16 17  1  0  0  0  0
 17 19  1  0  0  0  0
 17 18  1  0  0  0  0
 20 19  1  0  0  0  0
 21 17  1  0  0  0  0
 22 21  1  0  0  0  0
M  END
>  <minimizedAffinity>
-3.80213118

$$$$

 OpenBabel03242522493D

 22 22  0  0  0  0  0  0  0  0999 V2000
   37.1040   29.9620   39.4940 O   0  0  0  0  0  0  0  0  0  0  0  0
   37.1760   31.0140   40.5980 P   0  0  2  0  0  0  0  0  0  0  0  0
   35.6610   31.1030   41.3480 O   0  0  0  0  0  0  0  0  0  0  0  0
   34.9810   30.9870   40.6370 H   0  0  0  0  0  0  0  0  0  0  0  0
   37.4990   32.5380   39.9020 O   0  0  0  0  0  0  0  0  0  0  0  0
   40.8540   32.9240   38.4920 C   0  0  0  0  0  0  0  0  0  0  0  0
   39.5060   32.4970   38.6370 C   0  0  0  0  0  0  0  0  0  0  0  0
   38.8130   32.9530   39.7580 C   0  0  0  0  0  0  0  0  0  0  0  0
   39.4470   33.7700   40.6440 N   0  0  0  0  0  0  0  0  0  0  0  0
   40.7300   34.1560   40.4740 C   0  0  0  0  0  0  0  0  0  0  0  0
   41.4270   33.7360   39.4090 N   0  0  0  0  0  0  0  0  0  0  0  0
   41.4380   32.5950   37.6350 H   0  0  0  0  0  0  0  0  0  0  0  0
   39.1080   31.8440   37.8660 H   0  0  0  0  0  0  0  0  0  0  0  0
   41.0520   34.8010   41.2830 H   0  0  0  0  0  0  0  0  0  0  0  0
   38.3880   30.6460   41.7000 O   0  0  0  0  0  0  0  0  0  0  0  0
   38.6020   29.2610   41.6050 C   0  0  0  0  0  2  0  0  0  0  0  0
   37.4470   28.5930   42.1780 N   0  0  0  0  0  4  0  0  0  0  0  0
   36.6110   29.1190   41.8560 H   0  0  0  0  0  0  0  0  0  0  0  0
   37.5860   28.6360   43.6240 C   0  0  0  0  0  2  0  0  0  0  0  0
   38.0070   27.6790   44.0050 H   0  0  0  0  0  0  0  0  0  0  0  0
   37.3380   27.2380   41.7060 C   0  0  0  0  0  2  0  0  0  0  0  0
   37.8920   27.1410   40.7380 H   0  0  0  0  0  0  0  0  0  0  0  0
  2  1  2  6  0  0  0
  2  3  1  0  0  0  0
  2 15  1  0  0  0  0
  4  3  1  0  0  0  0
  5  2  1  0  0  0  0
  6  7  2  0  0  0  0
  6 11  1  0  0  0  0
  7  8  1  0  0  0  0
  8  5  1  0  0  0  0
  8  9  2  0  0  0  0
 10  9  1  0  0  0  0
 10 14  1  0  0  0  0
 11 10  2  0  0  0  0
 12  6  1  0  0  0  0
 13  7  1  0  0  0  0
 16 15  1  0  0  0  0
 16 17  1  0  0  0  0
 17 19  1  0  0  0  0
 18 17  1  0  0  0  0
 19 20  1  0  0  0  0
 21 17  1  0  0  0  0
 22 21  1  0  0  0  0
M  END
>  <minimizedAffinity>
-3.78134346

$$$$

 OpenBabel03242522493D

 22 22  0  0  0  0  0  0  0  0999 V2000
   38.7560   33.6220   40.8760 O   0  0  0  0  0  0  0  0  0  0  0  0
   38.2400   32.2680   40.3950 P   0  0  2  0  0  0  0  0  0  0  0  0
   36.5680   32.2140   40.6540 O   0  0  0  0  0  0  0  0  0  0  0  0
   36.3950   32.6820   41.5100 H   0  0  0  0  0  0  0  0  0  0  0  0
   38.9490   31.0310   41.3310 O   0  0  0  0  0  0  0  0  0  0  0  0
   37.5980   28.4000   43.4860 C   0  0  0  0  0  0  0  0  0  0  0  0
   38.4050   29.4830   43.0460 C   0  0  0  0  0  0  0  0  0  0  0  0
   38.1640   29.9740   41.7630 C   0  0  0  0  0  0  0  0  0  0  0  0
   37.1850   29.4040   41.0070 N   0  0  0  0  0  0  0  0  0  0  0  0
   36.4360   28.3750   41.4590 C   0  0  0  0  0  0  0  0  0  0  0  0
   36.6410   27.8780   42.6860 N   0  0  0  0  0  0  0  0  0  0  0  0
   37.7470   27.9800   44.4790 H   0  0  0  0  0  0  0  0  0  0  0  0
   39.1560   29.8550   43.7370 H   0  0  0  0  0  0  0  0  0  0  0  0
   35.7150   28.0620   40.7130 H   0  0  0  0  0  0  0  0  0  0  0  0
   38.6210   32.0210   38.7790 O   0  0  0  0  0  0  0  0  0  0  0  0
   39.8520   31.3440   38.7610 C   0  0  0  0  0  2  0  0  0  0  0  0
   40.8840   32.2890   39.1500 N   0  0  0  0  0  4  0  0  0  0  0  0
   40.4820   32.8690   39.9120 H   0  0  0  0  0  0  0  0  0  0  0  0
   41.2120   33.0860   37.9810 C   0  0  0  0  0  2  0  0  0  0  0  0
   42.1240   32.6910   37.4800 H   0  0  0  0  0  0  0  0  0  0  0  0
   42.0460   31.6120   39.6620 C   0  0  0  0  0  2  0  0  0  0  0  0
   41.7520   30.5930   40.0170 H   0  0  0  0  0  0  0  0  0  0  0  0
  2  3  1  0  0  0  0
  2  1  2  1  0  0  0
  2  5  1  0  0  0  0
  3  4  1  0  0  0  0
  5  8  1  0  0  0  0
  6 12  1  0  0  0  0
  7  6  1  0  0  0  0
  7 13  1  0  0  0  0
  8  7  2  0  0  0  0
  9 10  2  0  0  0  0
  9  8  1  0  0  0  0
 10 11  1  0  0  0  0
 11  6  2  0  0  0  0
 14 10  1  0  0  0  0
 15  2  1  0  0  0  0
 16 15  1  0  0  0  0
 16 17  1  0  0  0  0
 17 21  1  0  0  0  0
 17 18  1  0  0  0  0
 19 17  1  0  0  0  0
 20 19  1  0  0  0  0
 21 22  1  0  0  0  0
M  END
>  <minimizedAffinity>
-3.75499129

$$$$

 OpenBabel03242522493D

 22 22  0  0  0  0  0  0  0  0999 V2000
   39.2120   28.8500   40.9350 O   0  0  0  0  0  0  0  0  0  0  0  0
   38.4110   29.5290   42.0430 P   0  0  2  0  0  0  0  0  0  0  0  0
   39.4640   30.5100   42.9360 O   0  0  0  0  0  0  0  0  0  0  0  0
   40.3270   30.0270   42.9920 H   0  0  0  0  0  0  0  0  0  0  0  0
   37.7920   28.3400   43.0990 O   0  0  0  0  0  0  0  0  0  0  0  0
   37.9420   24.7940   42.2110 C   0  0  0  0  0  0  0  0  0  0  0  0
   37.4610   26.1270   42.3090 C   0  0  0  0  0  0  0  0  0  0  0  0
   38.2580   27.0390   43.0010 C   0  0  0  0  0  0  0  0  0  0  0  0
   39.4360   26.6180   43.5380 N   0  0  0  0  0  0  0  0  0  0  0  0
   39.8620   25.3420   43.4250 C   0  0  0  0  0  0  0  0  0  0  0  0
   39.1220   24.4380   42.7670 N   0  0  0  0  0  0  0  0  0  0  0  0
   37.3570   24.0440   41.6820 H   0  0  0  0  0  0  0  0  0  0  0  0
   36.5060   26.3460   41.8410 H   0  0  0  0  0  0  0  0  0  0  0  0
   40.8170   25.2050   43.9170 H   0  0  0  0  0  0  0  0  0  0  0  0
   37.1360   30.4150   41.4050 O   0  0  0  0  0  0  0  0  0  0  0  0
   37.6920   31.6040   40.9020 C   0  0  0  0  0  2  0  0  0  0  0  0
   36.8150   32.0960   39.8550 N   0  0  0  0  0  4  0  0  0  0  0  0
   35.8650   32.1630   40.2710 H   0  0  0  0  0  0  0  0  0  0  0  0
   36.8580   31.1410   38.7610 C   0  0  0  0  0  2  0  0  0  0  0  0
   37.5650   31.4790   37.9720 H   0  0  0  0  0  0  0  0  0  0  0  0
   37.2100   33.4080   39.4160 C   0  0  0  0  0  2  0  0  0  0  0  0
   37.8110   33.9000   40.2210 H   0  0  0  0  0  0  0  0  0  0  0  0
  2  1  2  6  0  0  0
  2  3  1  0  0  0  0
  2  5  1  0  0  0  0
  3  4  1  0  0  0  0
  6  7  2  0  0  0  0
  6 11  1  0  0  0  0
  7  8  1  0  0  0  0
  8  5  1  0  0  0  0
  8  9  2  0  0  0  0
 10  9  1  0  0  0  0
 10 14  1  0  0  0  0
 11 10  2  0  0  0  0
 12  6  1  0  0  0  0
 13  7  1  0  0  0  0
 15  2  1  0  0  0  0
 16 15  1  0  0  0  0
 17 18  1  0  0  0  0
 17 16  1  0  0  0  0
 19 17  1  0  0  0  0
 20 19  1  0  0  0  0
 21 17  1  0  0  0  0
 21 22  1  0  0  0  0
M  END
>  <minimizedAffinity>
-3.74107218

$$$$
