
 OpenBabel03252502233D

 32 33  0  0  1  0  0  0  0  0999 V2000
   46.9150   34.6420   42.2620 N   0  0  0  0  0  0  0  0  0  0  0  0
   48.3700   34.7560   42.3180 C   0  0  0  0  0  0  0  0  0  0  0  0
   48.7480   35.5420   41.0600 C   0  0  0  0  0  0  0  0  0  0  0  0
   48.4070   34.7440   39.8260 C   0  0  0  0  0  0  0  0  0  0  0  0
   47.1390   33.9640   39.9140 C   0  0  0  0  0  0  0  0  0  0  0  0
   46.2310   34.3850   41.0400 C   0  0  1  0  0  0  0  0  0  0  0  0
   48.7600   33.7210   42.2840 H   0  0  0  0  0  0  0  0  0  0  0  0
   48.7180   35.3130   43.2020 H   0  0  0  0  0  0  0  0  0  0  0  0
   48.2270   36.5020   41.1210 H   0  0  0  0  0  0  0  0  0  0  0  0
   49.8420   35.7000   41.0710 H   0  0  0  0  0  0  0  0  0  0  0  0
   48.2930   35.4790   38.9880 H   0  0  0  0  0  0  0  0  0  0  0  0
   49.2410   34.0780   39.5260 H   0  0  0  0  0  0  0  0  0  0  0  0
   47.3980   32.8940   40.1320 H   0  0  0  0  0  0  0  0  0  0  0  0
   46.5380   33.9540   38.9860 H   0  0  0  0  0  0  0  0  0  0  0  0
   45.6360   35.2470   40.7020 H   0  0  0  0  0  0  0  0  0  0  0  0
   44.5060   35.9020   44.8100 C   0  0  0  0  0  0  0  0  0  0  0  0
   45.2290   35.8500   43.6050 C   0  0  0  0  0  0  0  0  0  0  0  0
   46.1340   34.7870   43.4450 C   0  0  0  0  0  0  0  0  0  0  0  0
   46.2440   33.8920   44.4620 N   0  0  0  0  0  0  0  0  0  0  0  0
   45.5280   33.9820   45.6030 C   0  0  0  0  0  0  0  0  0  0  0  0
   44.6530   35.0020   45.7670 N   0  0  0  0  0  0  0  0  0  0  0  0
   43.8430   36.7710   44.8030 H   0  0  0  0  0  0  0  0  0  0  0  0
   45.1610   36.5400   42.7900 H   0  0  0  0  0  0  0  0  0  0  0  0
   45.6190   33.2680   46.4080 H   0  0  0  0  0  0  0  0  0  0  0  0
   45.3250   33.3160   41.2250 O   0  0  0  0  0  0  0  0  0  0  0  0
   44.0240   33.6660   40.8990 C   0  0  0  0  0  2  0  0  0  0  0  0
   43.1550   33.1200   41.9310 N   0  0  0  0  0  4  0  0  0  0  0  0
   42.9630   33.7730   42.7090 H   0  0  0  0  0  0  0  0  0  0  0  0
   43.7090   31.9120   42.4970 C   0  0  0  0  0  2  0  0  0  0  0  0
   42.9350   31.4070   43.1010 H   0  0  0  0  0  0  0  0  0  0  0  0
   41.8990   32.7370   41.2930 C   0  0  0  0  0  2  0  0  0  0  0  0
   41.9530   31.7510   40.8030 H   0  0  0  0  0  0  0  0  0  0  0  0
  1  2  1  0  0  0  0
  1 18  1  0  0  0  0
  2  8  1  0  0  0  0
  3 10  1  0  0  0  0
  3  9  1  0  0  0  0
  3  2  1  0  0  0  0
  4  5  1  0  0  0  0
  4  3  1  0  0  0  0
  5 13  1  0  0  0  0
  5  6  1  0  0  0  0
  6 15  1  6  0  0  0
  6 25  1  0  0  0  0
  6  1  1  0  0  0  0
  7  2  1  0  0  0  0
 11  4  1  0  0  0  0
 12  4  1  0  0  0  0
 14  5  1  0  0  0  0
 16 21  1  0  0  0  0
 17 16  2  0  0  0  0
 18 17  1  0  0  0  0
 18 19  2  0  0  0  0
 19 20  1  0  0  0  0
 20 21  2  0  0  0  0
 20 24  1  0  0  0  0
 22 16  1  0  0  0  0
 23 17  1  0  0  0  0
 26 25  1  0  0  0  0
 26 27  1  0  0  0  0
 27 29  1  0  0  0  0
 27 28  1  0  0  0  0
 29 30  1  0  0  0  0
 31 27  1  0  0  0  0
 32 31  1  0  0  0  0
M  END
>  <minimizedAffinity>
-4.97294378

>  <minimizedRMSD>
0.482950866

$$$$
