
 OpenBabel03242512543D

 27 27  0  0  0  0  0  0  0  0999 V2000
   45.3290   40.3210   44.4030 C   0  0  0  0  0  0  0  0  0  0  0  0
   44.6750   40.8550   43.6620 H   0  0  0  0  0  0  0  0  0  0  0  0
   46.3210   40.8130   44.3430 H   0  0  0  0  0  0  0  0  0  0  0  0
   44.9140   37.9100   44.6980 C   0  0  0  0  0  0  0  0  0  0  0  0
   45.3500   38.9070   43.9470 C   0  0  0  0  0  0  0  0  0  0  0  0
   44.9800   36.5570   44.1470 C   0  0  0  0  0  0  0  0  0  0  0  0
   45.0670   36.4200   42.7540 C   0  0  0  0  0  0  0  0  0  0  0  0
   45.1290   35.1400   42.1910 C   0  0  0  0  0  0  0  0  0  0  0  0
   45.1020   34.0780   43.0410 N   0  0  0  0  0  0  0  0  0  0  0  0
   45.0170   34.2420   44.3900 C   0  0  0  0  0  0  0  0  0  0  0  0
   44.9580   35.4680   44.9160 N   0  0  0  0  0  0  0  0  0  0  0  0
   45.0900   37.2450   42.0560 H   0  0  0  0  0  0  0  0  0  0  0  0
   45.1970   35.0280   41.1310 H   0  0  0  0  0  0  0  0  0  0  0  0
   45.0010   33.3320   44.9880 H   0  0  0  0  0  0  0  0  0  0  0  0
   44.7100   40.4720   45.6220 O   0  0  0  0  0  0  0  0  0  0  0  0
   44.5190   42.3690   47.3370 O   0  0  0  0  0  0  0  0  0  0  0  0
   44.2440   42.0860   45.8970 P   0  0  1  0  0  0  0  0  0  0  0  0
   45.2160   43.1040   44.9360 O   0  0  0  0  0  0  0  0  0  0  0  0
   44.8270   43.1950   44.0310 H   0  0  0  0  0  0  0  0  0  0  0  0
   42.6710   42.3820   45.4940 O   0  0  0  0  0  0  0  0  0  0  0  0
   42.3440   43.5630   44.9360 C   0  0  0  0  0  0  0  0  0  0  0  0
   41.0210   43.8350   44.5060 N   0  0  0  0  0  0  0  0  0  0  0  0
   40.4070   42.9450   44.6410 H   0  0  0  0  0  0  0  0  0  0  0  0
   40.3970   44.7990   45.3880 C   0  0  0  0  0  0  0  0  0  0  0  0
   40.0420   45.6730   44.8210 H   0  0  0  0  0  0  0  0  0  0  0  0
   40.8340   44.1950   43.1360 C   0  0  0  0  0  0  0  0  0  0  0  0
   40.4590   45.2400   43.0100 H   0  0  0  0  0  0  0  0  0  0  0  0
  1 15  1  0  0  0  0
  2  1  1  0  0  0  0
  3  1  1  0  0  0  0
  5  1  1  0  0  0  0
  5  4  2  0  0  0  0
  6  4  1  0  0  0  0
  6 11  1  0  0  0  0
  7  6  2  0  0  0  0
  8  7  1  0  0  0  0
  8  9  2  0  0  0  0
  9 10  1  0  0  0  0
 10 11  2  0  0  0  0
 10 14  1  0  0  0  0
 12  7  1  0  0  0  0
 13  8  1  0  0  0  0
 15 17  1  0  0  0  0
 17 16  2  1  0  0  0
 18 17  1  0  0  0  0
 19 18  1  0  0  0  0
 20 17  1  0  0  0  0
 21 20  1  0  0  0  0
 22 23  1  0  0  0  0
 22 21  1  0  0  0  0
 22 24  1  0  0  0  0
 25 24  1  0  0  0  0
 26 22  1  0  0  0  0
 27 26  1  0  0  0  0
M  END
>  <minimizedAffinity>
-2.93150735

>  <minimizedRMSD>
1.78228772

$$$$
