
     RDKit          3D

 34 35  0  0  0  0  0  0  0  0999 V2000
   46.2708   34.1691   40.9775 C   0  0  0  0  0  0  0  0  0  0  0  0
   46.8288   34.8394   42.0450 C   0  0  0  0  0  0  0  0  0  0  0  0
   48.0704   35.3822   41.8459 C   0  0  0  0  0  0  0  0  0  0  0  0
   48.7438   35.2734   40.6440 C   0  0  0  0  0  0  0  0  0  0  0  0
   48.1792   34.6085   39.5999 C   0  0  0  0  0  0  0  0  0  0  0  0
   46.9247   34.0428   39.7542 C   0  0  0  0  0  0  0  0  0  0  0  0
   44.5174   36.0222   44.7756 C   0  0  0  0  0  0  0  0  0  0  0  0
   45.2326   35.9636   43.5691 C   0  0  0  0  0  0  0  0  0  0  0  0
   46.0863   34.9226   43.2714 C   0  0  0  0  0  0  0  0  0  0  0  0
   46.1751   33.9656   44.2393 N   0  0  0  0  0  0  0  0  0  0  0  0
   45.4945   34.0173   45.3924 C   0  0  0  0  0  0  0  0  0  0  0  0
   44.6651   35.0413   45.6667 N   0  0  0  0  0  0  0  0  0  0  0  0
   45.0066   33.5988   41.1321 O   0  0  0  0  0  0  0  0  0  0  0  0
   46.2547   33.3392   38.7469 O   0  0  0  0  0  0  0  0  0  0  0  0
   48.5110   35.9147   42.6980 H   0  0  0  0  0  0  0  0  0  0  0  0
   49.7257   35.7272   40.5532 H   0  0  0  0  0  0  0  0  0  0  0  0
   48.6568   34.4899   38.6349 H   0  0  0  0  0  0  0  0  0  0  0  0
   43.8864   36.8977   44.8709 H   0  0  0  0  0  0  0  0  0  0  0  0
   45.1633   36.7321   42.7882 H   0  0  0  0  0  0  0  0  0  0  0  0
   45.5803   33.2447   46.1487 H   0  0  0  0  0  0  0  0  0  0  0  0
   44.8666   32.6387   41.3638 H   0  0  0  0  0  0  0  0  0  0  0  0
   46.7910   33.1348   37.4698 C   0  0  0  0  0  0  0  0  0  0  0  0
   45.7055   33.0504   36.5177 N   0  0  0  0  0  4  0  0  0  0  0  0
   46.0945   32.2166   35.3968 C   0  0  0  0  0  0  0  0  0  0  0  0
   45.2531   31.5983   35.0257 H   0  0  0  0  0  0  0  0  0  0  0  0
   44.4863   32.5554   37.1222 C   0  0  0  0  0  0  0  0  0  0  0  0
   44.1222   31.6218   36.6249 H   0  0  0  0  0  0  0  0  0  0  0  0
   47.3790   32.2030   37.3576 H   0  0  0  0  0  0  0  0  0  0  0  0
   47.5201   33.9467   37.1843 H   0  0  0  0  0  0  0  0  0  0  0  0
   45.5015   34.0084   36.1167 H   0  0  0  0  0  0  0  0  0  0  0  0
   46.5068   32.8610   34.5658 H   0  0  0  0  0  0  0  0  0  0  0  0
   46.9409   31.5875   35.7368 H   0  0  0  0  0  0  0  0  0  0  0  0
   43.6807   33.3130   37.0727 H   0  0  0  0  0  0  0  0  0  0  0  0
   44.6750   32.3370   38.2138 H   0  0  0  0  0  0  0  0  0  0  0  0
  1 13  1  0
  1  2  2  0
  2  9  1  0
  3  2  1  0
  4  3  2  0
  5  6  2  0
  5  4  1  0
  6  1  1  0
  7 12  2  0
  8  7  1  0
  9  8  2  0
  9 10  1  0
 10 11  2  0
 11 12  1  0
 14  6  1  0
  3 15  1  0
  4 16  1  0
  5 17  1  0
  7 18  1  0
  8 19  1  0
 11 20  1  0
 13 21  1  0
 22 23  1  0
 23 24  1  0
 24 25  1  0
 23 26  1  0
 26 27  1  0
 22 28  1  0
 22 29  1  0
 23 30  1  0
 24 31  1  0
 24 32  1  0
 26 33  1  0
 26 34  1  0
 14 22  1  0
M  ISO  8  15  14  16  14  17  14  18  14  19  14  20  14  21   3  25   8
M  CHG  1  23   1
M  ISO  1  27   8
M  END
>  <DihAtoms>  (1) 
5,13,21,22

>  <DihDeg>  (1) 
179.99910990386832

$$$$
