
 OpenBabel03242521073D

 38 40  0  0  1  0  0  0  0  0999 V2000
   46.0430   32.5300   38.7860 C   0  0  2  0  0  0  0  0  0  0  0  0
   46.9160   31.5220   38.1550 C   0  0  0  0  0  0  0  0  0  0  0  0
   46.2890   32.6720   37.3630 C   0  0  1  0  0  0  0  0  0  0  0  0
   45.0220   32.1340   39.0720 H   0  0  0  0  0  0  0  0  0  0  0  0
   46.4960   30.5340   37.8820 H   0  0  0  0  0  0  0  0  0  0  0  0
   47.9970   31.4820   38.3250 H   0  0  0  0  0  0  0  0  0  0  0  0
   47.0990   33.2590   36.9120 H   0  0  0  0  0  0  0  0  0  0  0  0
   46.5540   34.5700   41.8100 C   0  0  0  0  0  0  0  0  0  0  0  0
   47.7560   35.1400   41.4490 C   0  0  0  0  0  0  0  0  0  0  0  0
   48.4250   34.8990   40.2680 C   0  0  0  0  0  0  0  0  0  0  0  0
   47.8470   34.0180   39.3740 C   0  0  0  0  0  0  0  0  0  0  0  0
   46.6550   33.4670   39.7570 C   0  0  0  0  0  0  0  0  0  0  0  0
   46.0580   33.7320   40.9010 N   0  0  0  0  0  0  0  0  0  0  0  0
   48.2440   35.8420   42.1310 H   0  0  0  0  0  0  0  0  0  0  0  0
   49.3650   35.3690   40.0270 H   0  0  0  0  0  0  0  0  0  0  0  0
   48.3210   33.7920   38.4390 H   0  0  0  0  0  0  0  0  0  0  0  0
   44.5510   36.1220   44.6060 C   0  0  0  0  0  0  0  0  0  0  0  0
   45.1300   35.9860   43.3400 C   0  0  0  0  0  0  0  0  0  0  0  0
   45.8850   34.8580   43.0830 C   0  0  0  0  0  0  0  0  0  0  0  0
   46.0270   33.9470   44.0580 N   0  0  0  0  0  0  0  0  0  0  0  0
   45.4500   34.1040   45.2860 C   0  0  0  0  0  0  0  0  0  0  0  0
   44.7220   35.1910   45.5340 N   0  0  0  0  0  0  0  0  0  0  0  0
   43.9860   37.0450   44.6850 H   0  0  0  0  0  0  0  0  0  0  0  0
   45.0390   36.6910   42.5390 H   0  0  0  0  0  0  0  0  0  0  0  0
   45.5810   33.3520   46.0550 H   0  0  0  0  0  0  0  0  0  0  0  0
   45.3140   32.3000   36.4230 O   0  0  0  0  0  0  0  0  0  0  0  0
   45.7070   30.6150   34.5430 O   0  0  0  0  0  0  0  0  0  0  0  0
   45.9550   32.0920   34.8630 P   0  0  1  0  0  0  0  0  0  0  0  0
   45.0480   33.0020   33.7670 O   0  0  0  0  0  0  0  0  0  0  0  0
   44.8480   33.8660   34.2200 H   0  0  0  0  0  0  0  0  0  0  0  0
   47.5910   32.3430   34.7560 O   0  0  0  0  0  0  0  0  0  0  0  0
   48.0540   32.4830   33.4970 C   0  0  0  0  0  2  0  0  0  0  0  0
   48.8050   31.4390   32.8960 N   0  0  0  0  0  4  0  0  0  0  0  0
   49.6550   31.9370   32.4370 H   0  0  0  0  0  0  0  0  0  0  0  0
   49.4120   30.4990   33.8090 C   0  0  0  0  0  2  0  0  0  0  0  0
   49.1570   29.4460   33.5690 H   0  0  0  0  0  0  0  0  0  0  0  0
   48.2000   30.7310   31.8130 C   0  0  0  0  0  2  0  0  0  0  0  0
   47.6860   29.8020   32.0670 H   0  0  0  0  0  0  0  0  0  0  0  0
  1  4  1  1  0  0  0
  1 12  1  0  0  0  0
  2  6  1  0  0  0  0
  2  1  1  0  0  0  0
  3  7  1  6  0  0  0
  3  2  1  0  0  0  0
  3  1  1  0  0  0  0
  5  2  1  0  0  0  0
  8 19  1  0  0  0  0
  9  8  1  0  0  0  0
  9 14  1  0  0  0  0
 10  9  2  0  0  0  0
 11 12  2  0  0  0  0
 11 10  1  0  0  0  0
 12 13  1  0  0  0  0
 13  8  2  0  0  0  0
 15 10  1  0  0  0  0
 16 11  1  0  0  0  0
 17 23  1  0  0  0  0
 17 22  1  0  0  0  0
 18 17  2  0  0  0  0
 19 18  1  0  0  0  0
 19 20  2  0  0  0  0
 20 21  1  0  0  0  0
 21 22  2  0  0  0  0
 21 25  1  0  0  0  0
 24 18  1  0  0  0  0
 26  3  1  0  0  0  0
 28 27  2  6  0  0  0
 28 26  1  0  0  0  0
 29 30  1  0  0  0  0
 29 28  1  0  0  0  0
 31 28  1  0  0  0  0
 32 31  1  0  0  0  0
 33 32  1  0  0  0  0
 33 35  1  0  0  0  0
 34 33  1  0  0  0  0
 36 35  1  0  0  0  0
 37 38  1  0  0  0  0
 37 33  1  0  0  0  0
M  END
>  <minimizedAffinity>
-5.94428444

>  <minimizedRMSD>
0.585966289

$$$$
