REMARK  Name = 
REMARK  7 active torsions:
REMARK  status: ('A' for Active; 'I' for Inactive)
REMARK    1  A    between atoms: C_1  and  O_13
REMARK    2  A    between atoms: C_2  and  C_9
REMARK    3  A    between atoms: C_6  and  O_14
REMARK    4  A    between atoms: O_14  and  C_22
REMARK    5  A    between atoms: C_22  and  N_23
REMARK    6  A    between atoms: N_23  and  C_24
REMARK    7  A    between atoms: N_23  and  C_26
REMARK                            x       y       z     vdW  Elec       q    Type
REMARK                         _______ _______ _______ _____ _____    ______ ____
ROOT
ATOM      1  C   UNL     1      46.271  34.169  40.977  0.00  0.00    +0.000 A 
ATOM      2  C   UNL     1      46.829  34.839  42.045  0.00  0.00    +0.000 A 
ATOM      3  C   UNL     1      48.070  35.382  41.846  0.00  0.00    +0.000 A 
ATOM      4  C   UNL     1      48.744  35.273  40.644  0.00  0.00    +0.000 A 
ATOM      5  C   UNL     1      48.179  34.608  39.600  0.00  0.00    +0.000 A 
ATOM      6  C   UNL     1      46.925  34.043  39.754  0.00  0.00    +0.000 A 
ATOM      7  H   UNL     1      48.511  35.915  42.698  0.00  0.00    +0.000 HD
ATOM      8  H   UNL     1      49.726  35.727  40.553  0.00  0.00    +0.000 HD
ATOM      9  H   UNL     1      48.657  34.490  38.635  0.00  0.00    +0.000 HD
ENDROOT
BRANCH   2  12
ATOM     10  C   UNL     1      44.517  36.022  44.776  0.00  0.00    +0.000 A 
ATOM     11  C   UNL     1      45.233  35.964  43.569  0.00  0.00    +0.000 A 
ATOM     12  C   UNL     1      46.086  34.923  43.271  0.00  0.00    +0.000 A 
ATOM     13  N   UNL     1      46.175  33.966  44.239  0.00  0.00    +0.000 NA
ATOM     14  C   UNL     1      45.495  34.017  45.392  0.00  0.00    +0.000 A 
ATOM     15  N   UNL     1      44.665  35.041  45.667  0.00  0.00    +0.000 NA
ATOM     16  H   UNL     1      43.886  36.898  44.871  0.00  0.00    +0.000 HD
ATOM     17  H   UNL     1      45.163  36.732  42.788  0.00  0.00    +0.000 HD
ATOM     18  H   UNL     1      45.580  33.245  46.149  0.00  0.00    +0.000 HD
ENDBRANCH   2  12
BRANCH   1  19
ATOM     19  O   UNL     1      45.007  33.599  41.132  0.00  0.00    +0.000 OA
ATOM     20  H   UNL     1      44.867  32.639  41.364  0.00  0.00    +0.000 HD
ENDBRANCH   1  19
BRANCH   6  21
ATOM     21  O   UNL     1      46.255  33.339  38.747  0.00  0.00    +0.000 OA
BRANCH  21  22
ATOM     22  C   UNL     1      46.791  33.135  37.470  0.00  0.00    +0.000 C 
BRANCH  22  23
ATOM     23  N   UNL     1      47.654  34.248  37.144  0.00  0.00    +0.000 N 
ATOM     24  H   UNL     1      48.649  34.031  37.435  0.00  0.00    +0.000 HD
BRANCH  23  25
ATOM     25  C   UNL     1      47.686  34.447  35.708  0.00  0.00    +0.000 C 
ATOM     26  H   UNL     1      47.727  35.520  35.437  0.00  0.00    +0.000 HD
ENDBRANCH  23  25
BRANCH  23  27
ATOM     27  C   UNL     1      47.253  35.466  37.818  0.00  0.00    +0.000 C 
ATOM     28  H   UNL     1      47.020  36.286  37.095  0.00  0.00    +0.000 HD
ENDBRANCH  23  27
ENDBRANCH  22  23
ENDBRANCH  21  22
ENDBRANCH   6  21
TORSDOF 7
