
 OpenBabel03242513263D

 28 29  0  0  0  0  0  0  0  0999 V2000
   47.7100   33.0270   41.7870 C   0  0  0  0  0  0  0  0  0  0  0  0
   48.9550   33.4180   41.3440 C   0  0  0  0  0  0  0  0  0  0  0  0
   49.2340   34.7570   41.4050 C   0  0  0  0  0  0  0  0  0  0  0  0
   48.3250   35.6830   41.8830 C   0  0  0  0  0  0  0  0  0  0  0  0
   47.1000   35.2800   42.3160 C   0  0  0  0  0  0  0  0  0  0  0  0
   46.7740   33.9360   42.2730 C   0  0  0  0  0  0  0  0  0  0  0  0
   50.2260   35.0650   41.0520 H   0  0  0  0  0  0  0  0  0  0  0  0
   48.6100   36.7310   41.9040 H   0  0  0  0  0  0  0  0  0  0  0  0
   46.3470   35.9580   42.7010 H   0  0  0  0  0  0  0  0  0  0  0  0
   51.9630   31.1860   40.9260 C   0  0  0  0  0  0  0  0  0  0  0  0
   51.0960   32.1740   41.4210 C   0  0  0  0  0  0  0  0  0  0  0  0
   49.8610   32.4150   40.8580 C   0  0  0  0  0  0  0  0  0  0  0  0
   49.5580   31.6220   39.7900 N   0  0  0  0  0  0  0  0  0  0  0  0
   50.3820   30.6790   39.3150 C   0  0  0  0  0  0  0  0  0  0  0  0
   51.5850   30.4560   39.8770 N   0  0  0  0  0  0  0  0  0  0  0  0
   52.8980   31.1110   41.4690 H   0  0  0  0  0  0  0  0  0  0  0  0
   51.3360   32.8140   42.2800 H   0  0  0  0  0  0  0  0  0  0  0  0
   50.1220   30.0580   38.4640 H   0  0  0  0  0  0  0  0  0  0  0  0
   47.3800   31.6720   41.7440 O   0  0  0  0  0  0  0  0  0  0  0  0
   46.8630   31.2600   40.9960 H   0  0  0  0  0  0  0  0  0  0  0  0
   45.5440   33.4160   42.6930 O   0  0  0  0  0  0  0  0  0  0  0  0
   45.3220   32.9240   43.9850 C   0  0  0  0  0  2  0  0  0  0  0  0
   45.8780   33.8570   44.9390 N   0  0  0  0  0  4  0  0  0  0  0  0
   46.6770   34.3950   44.4960 H   0  0  0  0  0  0  0  0  0  0  0  0
   44.8810   34.8440   45.3060 C   0  0  0  0  0  2  0  0  0  0  0  0
   44.9460   35.1240   46.3760 H   0  0  0  0  0  0  0  0  0  0  0  0
   46.3940   33.1910   46.1170 C   0  0  0  0  0  2  0  0  0  0  0  0
   45.8950   33.5490   47.0520 H   0  0  0  0  0  0  0  0  0  0  0  0
  1  6  1  0  0  0  0
  2  3  1  0  0  0  0
  2  1  2  0  0  0  0
  3  4  2  0  0  0  0
  4  8  1  0  0  0  0
  4  5  1  0  0  0  0
  5  9  1  0  0  0  0
  6  5  2  0  0  0  0
  6 21  1  0  0  0  0
  7  3  1  0  0  0  0
 10 11  1  0  0  0  0
 10 16  1  0  0  0  0
 11 17  1  0  0  0  0
 12  2  1  0  0  0  0
 12 11  2  0  0  0  0
 13 12  1  0  0  0  0
 14 13  2  0  0  0  0
 14 15  1  0  0  0  0
 15 10  2  0  0  0  0
 18 14  1  0  0  0  0
 19  1  1  0  0  0  0
 20 19  1  0  0  0  0
 21 22  1  0  0  0  0
 22 23  1  0  0  0  0
 23 25  1  0  0  0  0
 23 27  1  0  0  0  0
 24 23  1  0  0  0  0
 25 26  1  0  0  0  0
 27 28  1  0  0  0  0
M  END
>  <minimizedAffinity>
-3.81937265

>  <minimizedRMSD>
6.31585836

$$$$
