
 OpenBabel03252506383D

 47 51  0  0  1  0  0  0  0  0999 V2000
   46.4930   30.0740   46.4790 S   0  0  0  0  0  0  0  0  0  0  0  0
   46.0610   30.2590   43.1740 O   0  0  0  0  0  0  0  0  0  0  0  0
   45.2420   29.8740   44.0220 C   0  0  0  0  0  0  0  0  0  0  0  0
   45.0770   29.8140   45.4960 C   0  0  1  0  0  0  0  0  0  0  0  0
   44.4050   28.4760   45.6820 C   0  0  0  0  0  0  0  0  0  0  0  0
   43.2570   28.6880   44.6920 C   0  0  0  0  0  0  0  0  0  0  0  0
   44.0110   29.2710   43.5890 N   0  0  0  0  0  0  0  0  0  0  0  0
   44.2060   30.5190   45.6060 H   0  0  0  0  0  0  0  0  0  0  0  0
   43.9570   28.3440   46.6810 H   0  0  0  0  0  0  0  0  0  0  0  0
   45.0520   27.6490   45.3790 H   0  0  0  0  0  0  0  0  0  0  0  0
   42.5860   29.4650   45.1100 H   0  0  0  0  0  0  0  0  0  0  0  0
   42.7570   27.7490   44.4340 H   0  0  0  0  0  0  0  0  0  0  0  0
   43.4440   29.1680   42.2680 C   0  0  0  0  0  0  0  0  0  0  0  0
   43.4950   27.9700   41.6450 N   0  0  0  0  0  0  0  0  0  0  0  0
   42.9820   27.7850   40.3940 C   0  0  0  0  0  3  0  0  0  0  0  0
   42.4040   28.7910   39.7350 N   0  0  0  0  0  0  0  0  0  0  0  0
   42.3380   29.9990   40.3300 C   0  0  0  0  0  0  0  0  0  0  0  0
   41.7490   31.0640   39.6800 C   0  0  0  0  0  3  0  0  0  0  0  0
   41.6650   32.3200   40.2670 C   0  0  0  0  0  0  0  0  0  0  0  0
   41.1990   33.1430   39.7420 H   0  0  0  0  0  0  0  0  0  0  0  0
   42.1990   32.4700   41.5430 C   0  0  0  0  0  0  0  0  0  0  0  0
   42.1140   33.4620   41.9670 H   0  0  0  0  0  0  0  0  0  0  0  0
   42.8040   31.4310   42.2430 C   0  0  0  0  0  3  0  0  0  0  0  0
   42.8470   30.2170   41.5940 C   0  0  0  0  0  0  0  0  0  0  0  0
   44.4970   35.6160   45.1060 C   0  0  0  0  0  0  0  0  0  0  0  0
   45.1210   35.5820   43.8340 C   0  0  0  0  0  0  0  0  0  0  0  0
   46.0030   34.5900   43.5560 C   0  0  0  0  0  0  0  0  0  0  0  0
   46.2350   33.6780   44.5320 N   0  0  0  0  0  0  0  0  0  0  0  0
   45.6480   33.7150   45.7200 C   0  0  0  0  0  0  0  0  0  0  0  0
   44.7760   34.6770   46.0220 N   0  0  0  0  0  0  0  0  0  0  0  0
   45.9740   32.6960   46.6800 N   0  0  0  0  0  0  0  0  0  0  0  0
   45.2660   32.4720   47.8850 C   0  0  0  0  0  0  0  0  0  0  0  0
   46.3590   32.0990   48.8690 C   0  0  0  0  0  0  0  0  0  0  0  0
   47.6120   31.9460   48.0600 C   0  0  0  0  0  0  0  0  0  0  0  0
   47.0640   31.7500   46.6490 C   0  0  1  0  0  0  0  0  0  0  0  0
   43.7940   36.4090   45.3240 H   0  0  0  0  0  0  0  0  0  0  0  0
   46.4770   34.5550   42.6070 H   0  0  0  0  0  0  0  0  0  0  0  0
   44.9170   33.4900   48.2460 H   0  0  0  0  0  0  0  0  0  0  0  0
   44.4610   31.8250   48.0140 H   0  0  0  0  0  0  0  0  0  0  0  0
   46.1320   31.1040   49.3460 H   0  0  0  0  0  0  0  0  0  0  0  0
   46.4880   32.8050   49.6870 H   0  0  0  0  0  0  0  0  0  0  0  0
   48.1740   31.0590   48.3900 H   0  0  0  0  0  0  0  0  0  0  0  0
   48.2500   32.8500   48.0980 H   0  0  0  0  0  0  0  0  0  0  0  0
   47.8460   32.0070   45.9330 H   0  0  0  0  0  0  0  0  0  0  0  0
   44.7700   36.6230   42.9080 N   0  0  0  0  0  0  0  0  0  0  0  0
   45.4930   36.9580   42.2130 H   0  0  0  0  0  0  0  0  0  0  0  0
   43.8110   37.0090   42.9590 H   0  0  0  0  0  0  0  0  0  0  0  0
  1 35  1  0  0  0  0
  2  3  2  0  0  0  0
  3  4  1  0  0  0  0
  4  8  1  1  0  0  0
  4  5  1  0  0  0  0
  4  1  1  0  0  0  0
  5  9  1  0  0  0  0
  6 11  1  0  0  0  0
  6  5  1  0  0  0  0
  7  3  1  0  0  0  0
  7  6  1  0  0  0  0
 10  5  1  0  0  0  0
 12  6  1  0  0  0  0
 13  7  1  0  0  0  0
 14 13  1  0  0  0  0
 15 14  2  0  0  0  0
 16 17  2  0  0  0  0
 16 15  1  0  0  0  0
 17 24  1  0  0  0  0
 18 19  2  0  0  0  0
 18 17  1  0  0  0  0
 19 21  1  0  0  0  0
 20 19  1  0  0  0  0
 21 22  1  0  0  0  0
 21 23  2  0  0  0  0
 24 23  1  0  0  0  0
 24 13  2  0  0  0  0
 25 36  1  0  0  0  0
 25 30  1  0  0  0  0
 26 25  2  0  0  0  0
 27 26  1  0  0  0  0
 27 28  2  0  0  0  0
 28 29  1  0  0  0  0
 29 30  2  0  0  0  0
 29 31  1  0  0  0  0
 31 32  1  0  0  0  0
 32 39  1  0  0  0  0
 32 38  1  0  0  0  0
 32 33  1  0  0  0  0
 33 40  1  0  0  0  0
 33 41  1  0  0  0  0
 34 43  1  0  0  0  0
 34 42  1  0  0  0  0
 34 33  1  0  0  0  0
 35 44  1  6  0  0  0
 35 31  1  0  0  0  0
 35 34  1  0  0  0  0
 37 27  1  0  0  0  0
 45 47  1  0  0  0  0
 45 26  1  0  0  0  0
 46 45  1  0  0  0  0
M  END
>  <minimizedAffinity>
-5.89913607

>  <minimizedRMSD>
0.77439177

$$$$
