
 OpenBabel03252508003D

 32 35  0  0  1  0  0  0  0  0999 V2000
   46.3560   34.7000   43.2830 C   0  0  0  0  0  0  0  0  0  0  0  0
   45.3820   35.7290   43.5360 C   0  0  0  0  0  0  0  0  0  0  0  0
   44.6550   35.6170   44.7190 C   0  0  0  0  0  0  0  0  0  0  0  0
   44.9000   34.5690   45.5420 N   0  0  0  0  0  0  0  0  0  0  0  0
   45.8440   33.6190   45.2420 C   0  0  0  0  0  0  0  0  0  0  0  0
   46.5770   33.6580   44.1370 N   0  0  0  0  0  0  0  0  0  0  0  0
   45.2630   36.5100   42.8290 H   0  0  0  0  0  0  0  0  0  0  0  0
   43.9210   36.3690   44.9370 H   0  0  0  0  0  0  0  0  0  0  0  0
   46.0590   32.4980   46.2030 C   0  0  1  0  0  0  0  0  0  0  0  0
   46.8470   32.7660   47.4640 C   0  0  0  0  0  0  0  0  0  0  0  0
   45.3490   32.6470   47.4890 C   0  0  1  0  0  0  0  0  0  0  0  0
   46.1530   31.4870   45.7610 H   0  0  0  0  0  0  0  0  0  0  0  0
   47.4650   31.9170   47.8220 H   0  0  0  0  0  0  0  0  0  0  0  0
   47.3370   33.7710   47.4590 H   0  0  0  0  0  0  0  0  0  0  0  0
   44.9870   31.7430   48.0380 H   0  0  0  0  0  0  0  0  0  0  0  0
   44.6940   33.9210   47.8070 N   0  0  0  0  0  0  0  0  0  0  0  0
   45.3560   34.5930   48.2680 H   0  0  0  0  0  0  0  0  0  0  0  0
   43.9570   33.7230   48.5330 H   0  0  0  0  0  0  0  0  0  0  0  0
   47.0770   34.8110   42.0430 C   0  0  2  0  0  3  0  0  0  0  0  0
   48.0130   35.7010   41.8950 O   0  0  0  0  0  1  0  0  0  0  0  0
   47.0590   34.1340   40.7490 C   0  0  0  0  0  0  0  0  0  0  0  0
   48.2310   33.8120   40.1840 N   0  0  0  0  0  0  0  0  0  0  0  0
   48.3200   33.1760   38.9730 C   0  0  0  0  0  3  0  0  0  0  0  0
   47.2300   32.8430   38.2880 N   0  0  0  0  0  0  0  0  0  0  0  0
   45.9850   33.1210   38.7670 C   0  0  0  0  0  0  0  0  0  0  0  0
   44.8330   32.7900   38.0930 C   0  0  0  0  0  3  0  0  0  0  0  0
   43.5860   33.0790   38.6050 C   0  0  0  0  0  0  0  0  0  0  0  0
   42.7660   32.7730   37.9900 H   0  0  0  0  0  0  0  0  0  0  0  0
   43.5530   33.7260   39.8420 C   0  0  0  0  0  0  0  0  0  0  0  0
   42.5670   33.9390   40.2160 H   0  0  0  0  0  0  0  0  0  0  0  0
   44.7310   34.0310   40.4660 C   0  0  0  0  0  3  0  0  0  0  0  0
   45.9830   33.7570   39.9840 C   0  0  0  0  0  0  0  0  0  0  0  0
  1  2  2  0  0  0  0
  1  6  1  0  0  0  0
  2  3  1  0  0  0  0
  3  8  1  0  0  0  0
  3  4  2  0  0  0  0
  5  4  1  0  0  0  0
  5  9  1  0  0  0  0
  6  5  2  0  0  0  0
  7  2  1  0  0  0  0
  9 12  1  6  0  0  0
  9 10  1  0  0  0  0
  9 11  1  0  0  0  0
 10 11  1  0  0  0  0
 10 13  1  0  0  0  0
 11 16  1  0  0  0  0
 11 15  1  1  0  0  0
 14 10  1  0  0  0  0
 16 17  1  0  0  0  0
 16 18  1  0  0  0  0
 19 20  1  6  0  0  0
 19  1  1  0  0  0  0
 21 19  1  0  0  0  0
 22 21  1  0  0  0  0
 23 22  2  0  0  0  0
 24 25  2  0  0  0  0
 24 23  1  0  0  0  0
 25 32  1  0  0  0  0
 26 27  2  0  0  0  0
 26 25  1  0  0  0  0
 27 29  1  0  0  0  0
 28 27  1  0  0  0  0
 29 30  1  0  0  0  0
 29 31  2  0  0  0  0
 32 31  1  0  0  0  0
 32 21  2  0  0  0  0
M  END
>  <minimizedAffinity>
-6.15324783

>  <minimizedRMSD>
0.923953235

$$$$
