
     RDKit          3D

 53 57  0  0  0  0  0  0  0  0999 V2000
   47.3292   33.6294   42.8401 C   0  0  0  0  0  0  0  0  0  0  0  0
   48.4166   33.4079   43.4381 O   0  0  0  0  0  0  0  0  0  0  0  0
   47.0316   33.1319   41.5469 N   0  0  0  0  0  0  0  0  0  0  0  0
   45.8081   32.4993   41.0254 C   0  0  0  0  0  0  0  0  0  0  0  0
   45.3852   33.1929   39.7425 C   0  0  0  0  0  0  0  0  0  0  0  0
   46.4211   32.9845   38.6833 C   0  0  0  0  0  0  0  0  0  0  0  0
   47.7014   32.4658   39.3098 C   0  0  0  0  0  0  0  0  0  0  0  0
   48.0674   33.2367   40.5549 C   0  0  2  0  0  0  0  0  0  0  0  0
   45.9631   35.6622   42.9236 C   0  0  0  0  0  0  0  0  0  0  0  0
   46.3354   34.4332   43.5117 C   0  0  0  0  0  0  0  0  0  0  0  0
   45.7468   34.0378   44.6977 C   0  0  0  0  0  0  0  0  0  0  0  0
   44.8285   34.8480   45.2575 N   0  0  0  0  0  0  0  0  0  0  0  0
   44.4585   36.0360   44.7033 C   0  0  0  0  0  0  0  0  0  0  0  0
   45.0386   36.4188   43.5403 N   0  0  0  0  0  0  0  0  0  0  0  0
   46.1486   32.7668   45.2834 C   0  0  0  0  0  0  0  0  0  0  0  0
   45.7666   31.5972   44.7082 C   0  0  0  0  0  0  0  0  0  0  0  0
   46.1689   30.4094   45.2927 C   0  0  0  0  0  0  0  0  0  0  0  0
   46.9471   30.3640   46.4432 C   0  0  0  0  0  0  0  0  0  0  0  0
   47.3071   31.5828   46.9865 C   0  0  0  0  0  0  0  0  0  0  0  0
   46.9059   32.7209   46.4033 N   0  0  0  0  0  0  0  0  0  0  0  0
   49.4073   32.7734   41.0138 C   0  0  0  0  0  0  0  0  0  0  0  0
   45.0037   32.7581   41.7675 H   0  0  0  0  0  0  0  0  0  0  0  0
   45.9191   31.4163   40.9000 H   0  0  0  0  0  0  0  0  0  0  0  0
   44.3918   32.7871   39.4824 H   0  0  0  0  0  0  0  0  0  0  0  0
   45.3141   34.2741   39.9554 H   0  0  0  0  0  0  0  0  0  0  0  0
   46.0467   32.1500   38.0235 H   0  0  0  0  0  0  0  0  0  0  0  0
   46.5841   33.8391   38.0145 H   0  0  0  0  0  0  0  0  0  0  0  0
   48.5051   32.4846   38.5728 H   0  0  0  0  0  0  0  0  0  0  0  0
   47.5130   31.4100   39.5963 H   0  0  0  0  0  0  0  0  0  0  0  0
   48.0975   34.3124   40.2452 H   0  0  0  0  0  0  0  0  0  0  0  0
   46.4239   35.9719   41.9936 H   0  0  0  0  0  0  0  0  0  0  0  0
   43.7123   36.6377   45.2102 H   0  0  0  0  0  0  0  0  0  0  0  0
   45.1637   31.5228   43.8175 H   0  0  0  0  0  0  0  0  0  0  0  0
   45.8766   29.4633   44.8513 H   0  0  0  0  0  0  0  0  0  0  0  0
   47.2761   29.4540   46.9208 H   0  0  0  0  0  0  0  0  0  0  0  0
   47.9107   31.6982   47.8797 H   0  0  0  0  0  0  0  0  0  0  0  0
   49.3519   31.6881   41.2051 H   0  0  0  0  0  0  0  0  0  0  0  0
   49.8312   33.2523   41.8981 H   0  0  0  0  0  0  0  0  0  0  0  0
   50.4204   32.9013   39.8750 C   0  0  0  0  0  0  0  0  0  0  0  0
   50.1865   33.7579   38.8377 N   0  0  0  0  0  0  0  0  0  0  0  0
   51.0700   33.9198   37.8378 C   0  0  0  0  0  0  0  0  0  0  0  0
   52.2464   33.2287   37.8172 N   0  0  0  0  0  0  0  0  0  0  0  0
   52.5064   32.3704   38.8326 C   0  0  0  0  0  0  0  0  0  0  0  0
   53.7003   31.6803   38.7789 C   0  0  0  0  0  0  0  0  0  0  0  0
   53.9804   30.7940   39.7998 C   0  0  0  0  0  0  0  0  0  0  0  0
   54.9150   30.2388   39.7808 H   0  0  0  0  0  0  0  0  0  0  0  0
   53.0836   30.6171   40.8315 C   0  0  0  0  0  0  0  0  0  0  0  0
   53.3414   29.9075   41.6184 H   0  0  0  0  0  0  0  0  0  0  0  0
   51.8705   31.3119   40.8952 C   0  0  0  0  0  0  0  0  0  0  0  0
   51.6179   32.1899   39.8638 C   0  0  0  0  0  0  0  0  0  0  0  0
   50.8891   34.5934   37.0172 H   0  0  0  0  0  0  0  0  0  0  0  0
   54.4348   31.7835   37.9908 H   0  0  0  0  0  0  0  0  0  0  0  0
   51.2104   31.1272   41.7155 H   0  0  0  0  0  0  0  0  0  0  0  0
  1  2  2  0
  1 10  1  0
  3  1  1  0
  4  3  1  0
  5  4  1  0
  6  7  1  0
  6  5  1  0
  7  8  1  0
  8 21  1  0
  8  3  1  0
  9 10  2  0
  9 14  1  0
 10 11  1  0
 11 12  2  0
 11 15  1  0
 13 12  1  0
 14 13  2  0
 15 20  1  0
 16 15  2  0
 16 17  1  0
 17 18  2  0
 18 19  1  0
 20 19  2  0
  4 22  1  0
  4 23  1  0
  5 24  1  0
  5 25  1  0
  6 26  1  0
  6 27  1  0
  7 28  1  0
  7 29  1  0
  8 30  1  6
  9 31  1  0
 13 32  1  0
 16 33  1  0
 17 34  1  0
 18 35  1  0
 19 36  1  0
 21 37  1  0
 21 38  1  0
 39 40  2  0
 40 41  1  0
 41 42  2  0
 42 43  1  0
 43 44  2  0
 44 45  1  0
 45 46  1  0
 45 47  2  0
 47 48  1  0
 47 49  1  0
 49 50  2  0
 50 39  1  0
 50 43  1  0
 41 51  1  0
 44 52  1  0
 49 53  1  0
 21 39  1  0
M  ISO  8  22  13  23  13  24  13  25  13  26  13  27  13  28  13  29  13
M  ISO  8  30  13  31  14  32  14  33  14  34  14  35  14  36  14  37   8
M  ISO  3  38   8  46  16  48  16
M  END
>  <DihAtoms>  (1) 
7,20,38,39

>  <DihDeg>  (1) 
-98.37817048132942

$$$$
