
 OpenBabel03252508033D

 45 49  0  0  1  0  0  0  0  0999 V2000
   42.0990   33.2540   41.0820 C   0  0  0  0  0  0  0  0  0  0  0  0
   42.8190   34.3820   41.3450 C   0  0  0  0  0  0  0  0  0  0  0  0
   42.1390   35.6180   41.3710 C   0  0  0  0  0  0  0  0  0  0  0  0
   40.7840   35.7280   41.1430 C   0  0  0  0  0  0  0  0  0  0  0  0
   40.0700   34.5930   40.8800 C   0  0  0  0  0  0  0  0  0  0  0  0
   40.7240   33.3990   40.8540 C   0  0  0  0  0  0  0  0  0  0  0  0
   42.6210   36.5610   41.5610 H   0  0  0  0  0  0  0  0  0  0  0  0
   40.2680   36.6680   41.1640 H   0  0  0  0  0  0  0  0  0  0  0  0
   39.0250   34.6020   40.6950 H   0  0  0  0  0  0  0  0  0  0  0  0
   40.1470   32.4840   40.6410 H   0  0  0  0  0  0  0  0  0  0  0  0
   42.7960   31.7170   41.0660 S   0  0  0  0  0  0  0  0  0  0  0  0
   41.7190   30.8610   40.4070 O   0  0  0  0  0  0  0  0  0  0  0  0
   42.9510   31.2540   42.4980 O   0  0  0  0  0  0  0  0  0  0  0  0
   43.9460   31.0290   40.0980 C   0  0  0  0  0  0  0  0  0  0  0  0
   43.8160   30.5780   38.8290 N   0  0  0  0  0  0  0  0  0  0  0  0
   44.6200   29.8940   38.0620 C   0  0  0  0  0  3  0  0  0  0  0  0
   45.7770   29.5760   38.6200 N   0  0  0  0  0  0  0  0  0  0  0  0
   46.0840   29.9350   39.8690 C   0  0  0  0  0  0  0  0  0  0  0  0
   47.3460   29.4930   40.2710 C   0  0  0  0  0  3  0  0  0  0  0  0
   47.7370   29.8190   41.5520 C   0  0  0  0  0  0  0  0  0  0  0  0
   48.7020   29.5030   41.9190 H   0  0  0  0  0  0  0  0  0  0  0  0
   46.8890   30.5500   42.3580 C   0  0  0  0  0  0  0  0  0  0  0  0
   47.2240   30.7920   43.3550 H   0  0  0  0  0  0  0  0  0  0  0  0
   45.6670   30.9350   41.8630 C   0  0  0  0  0  3  0  0  0  0  0  0
   45.1830   30.6590   40.6070 C   0  0  0  0  0  0  0  0  0  0  0  0
   44.2500   34.3710   41.5810 C   0  0  0  0  0  0  0  0  0  0  0  0
   45.1270   34.2920   40.6530 O   0  0  0  0  0  0  0  0  0  0  0  0
   44.5950   34.4600   42.9690 C   0  0  0  0  0  0  0  0  0  0  0  0
   44.3120   35.7150   43.5850 C   0  0  0  0  0  0  0  0  0  0  0  0
   44.6330   35.8270   44.9370 C   0  0  0  0  0  0  0  0  0  0  0  0
   45.1820   34.7540   45.5680 N   0  0  0  0  0  0  0  0  0  0  0  0
   45.4250   33.5910   44.9220 C   0  0  0  0  0  0  0  0  0  0  0  0
   45.1380   33.4640   43.6700 N   0  0  0  0  0  0  0  0  0  0  0  0
   43.8920   36.6020   43.1820 H   0  0  0  0  0  0  0  0  0  0  0  0
   44.4740   36.7190   45.5320 H   0  0  0  0  0  0  0  0  0  0  0  0
   46.0180   32.4660   45.6910 C   0  0  1  0  0  0  0  0  0  0  0  0
   46.9640   32.7820   46.8320 C   0  0  0  0  0  0  0  0  0  0  0  0
   45.5600   32.3380   47.0810 C   0  0  1  0  0  0  0  0  0  0  0  0
   46.2160   31.5560   45.1220 H   0  0  0  0  0  0  0  0  0  0  0  0
   47.7450   32.0140   47.0290 H   0  0  0  0  0  0  0  0  0  0  0  0
   47.2630   33.8400   46.9150 H   0  0  0  0  0  0  0  0  0  0  0  0
   45.3870   31.3310   47.5010 H   0  0  0  0  0  0  0  0  0  0  0  0
   44.7580   33.4020   47.6770 N   0  0  0  0  0  0  0  0  0  0  0  0
   44.1820   33.0100   48.4800 H   0  0  0  0  0  0  0  0  0  0  0  0
   45.3030   34.1910   48.0430 H   0  0  0  0  0  0  0  0  0  0  0  0
  1  2  1  0  0  0  0
  2  3  2  0  0  0  0
  2 26  1  0  0  0  0
  3  7  1  0  0  0  0
  4  8  1  0  0  0  0
  4  3  1  0  0  0  0
  5  4  2  0  0  0  0
  6  5  1  0  0  0  0
  6  1  2  0  0  0  0
  9  5  1  0  0  0  0
 10  6  1  0  0  0  0
 11  1  1  0  0  0  0
 11 13  2  0  0  0  0
 12 11  2  0  0  0  0
 14 25  1  0  0  0  0
 14 11  1  0  0  0  0
 15 14  2  0  0  0  0
 16 17  2  0  0  0  0
 16 15  1  0  0  0  0
 17 18  1  0  0  0  0
 18 19  2  0  0  0  0
 18 25  1  0  0  0  0
 19 20  1  0  0  0  0
 20 21  1  0  0  0  0
 20 22  2  0  0  0  0
 22 23  1  0  0  0  0
 24 22  1  0  0  0  0
 25 24  2  0  0  0  0
 26 28  1  0  0  0  0
 27 26  2  0  0  0  0
 28 29  2  0  0  0  0
 28 33  1  0  0  0  0
 29 30  1  0  0  0  0
 30 35  1  0  0  0  0
 30 31  2  0  0  0  0
 32 31  1  0  0  0  0
 32 36  1  0  0  0  0
 33 32  2  0  0  0  0
 34 29  1  0  0  0  0
 36 39  1  6  0  0  0
 36 37  1  0  0  0  0
 36 38  1  0  0  0  0
 37 41  1  0  0  0  0
 37 40  1  0  0  0  0
 37 38  1  0  0  0  0
 38 42  1  1  0  0  0
 38 43  1  0  0  0  0
 43 45  1  0  0  0  0
 43 44  1  0  0  0  0
M  END
>  <minimizedAffinity>
-5.83772135

>  <minimizedRMSD>
1.90343714

$$$$
