
 OpenBabel03252502243D

 37 40  0  0  1  0  0  0  0  0999 V2000
   46.7990   34.5740   42.3030 N   0  0  0  0  0  0  0  0  0  0  0  0
   48.2540   34.5030   42.3580 C   0  0  0  0  0  0  0  0  0  0  0  0
   48.7180   35.3000   41.1420 C   0  0  0  0  0  0  0  0  0  0  0  0
   48.2840   34.6210   39.8770 C   0  0  0  0  0  0  0  0  0  0  0  0
   46.9240   34.0250   39.9230 C   0  0  0  0  0  0  0  0  0  0  0  0
   46.0730   34.4500   41.0700 C   0  0  1  0  0  0  0  0  0  0  0  0
   48.5230   33.4560   42.1580 H   0  0  0  0  0  0  0  0  0  0  0  0
   48.6610   34.9200   43.2740 H   0  0  0  0  0  0  0  0  0  0  0  0
   49.8440   35.2130   41.1770 H   0  0  0  0  0  0  0  0  0  0  0  0
   48.3970   36.3370   41.2380 H   0  0  0  0  0  0  0  0  0  0  0  0
   49.0370   33.8580   39.5410 H   0  0  0  0  0  0  0  0  0  0  0  0
   48.2920   35.3920   39.0690 H   0  0  0  0  0  0  0  0  0  0  0  0
   46.3510   34.1560   38.9790 H   0  0  0  0  0  0  0  0  0  0  0  0
   47.0440   32.9110   40.0150 H   0  0  0  0  0  0  0  0  0  0  0  0
   45.5780   35.4210   40.8120 H   0  0  0  0  0  0  0  0  0  0  0  0
   44.4580   35.9890   44.8560 C   0  0  0  0  0  0  0  0  0  0  0  0
   45.1630   35.8710   43.6530 C   0  0  0  0  0  0  0  0  0  0  0  0
   46.0420   34.7710   43.4950 C   0  0  0  0  0  0  0  0  0  0  0  0
   46.1460   33.8940   44.5280 N   0  0  0  0  0  0  0  0  0  0  0  0
   45.4380   34.0530   45.6790 C   0  0  0  0  0  0  0  0  0  0  0  0
   44.6010   35.0980   45.8320 N   0  0  0  0  0  0  0  0  0  0  0  0
   43.8300   36.8690   44.8340 H   0  0  0  0  0  0  0  0  0  0  0  0
   45.1020   36.5480   42.8160 H   0  0  0  0  0  0  0  0  0  0  0  0
   45.5360   33.3450   46.4890 H   0  0  0  0  0  0  0  0  0  0  0  0
   45.0720   33.4780   41.2470 O   0  0  0  0  0  0  0  0  0  0  0  0
   43.7330   33.6670   41.0230 C   0  0  0  0  0  0  0  0  0  0  0  0
   43.1130   34.6810   40.3980 N   0  0  0  0  0  0  0  0  0  0  0  0
   41.7890   34.7290   40.2530 C   0  0  0  0  0  3  0  0  0  0  0  0
   40.9990   33.7380   40.7410 N   0  0  0  0  0  0  0  0  0  0  0  0
   41.5530   32.6960   41.3750 C   0  0  0  0  0  0  0  0  0  0  0  0
   40.7530   31.6910   41.8700 C   0  0  0  0  0  3  0  0  0  0  0  0
   41.2820   30.6060   42.5260 C   0  0  0  0  0  0  0  0  0  0  0  0
   40.7330   29.7670   42.9500 H   0  0  0  0  0  0  0  0  0  0  0  0
   42.6330   30.5390   42.6840 C   0  0  0  0  0  0  0  0  0  0  0  0
   43.1300   29.7220   43.1860 H   0  0  0  0  0  0  0  0  0  0  0  0
   43.4240   31.5520   42.1840 C   0  0  0  0  0  3  0  0  0  0  0  0
   42.9280   32.6590   41.5180 C   0  0  0  0  0  0  0  0  0  0  0  0
  1  2  1  0  0  0  0
  1 18  1  0  0  0  0
  2  8  1  0  0  0  0
  3  9  1  0  0  0  0
  3 10  1  0  0  0  0
  3  2  1  0  0  0  0
  4  5  1  0  0  0  0
  4  3  1  0  0  0  0
  5 14  1  0  0  0  0
  5  6  1  0  0  0  0
  6 15  1  6  0  0  0
  6 25  1  0  0  0  0
  6  1  1  0  0  0  0
  7  2  1  0  0  0  0
 11  4  1  0  0  0  0
 12  4  1  0  0  0  0
 13  5  1  0  0  0  0
 16 21  1  0  0  0  0
 17 16  2  0  0  0  0
 18 17  1  0  0  0  0
 18 19  2  0  0  0  0
 19 20  1  0  0  0  0
 20 21  2  0  0  0  0
 20 24  1  0  0  0  0
 22 16  1  0  0  0  0
 23 17  1  0  0  0  0
 26 25  1  0  0  0  0
 26 37  1  0  0  0  0
 27 26  2  0  0  0  0
 28 27  1  0  0  0  0
 28 29  2  0  0  0  0
 29 30  1  0  0  0  0
 30 37  2  0  0  0  0
 30 31  1  0  0  0  0
 31 32  2  0  0  0  0
 32 34  1  0  0  0  0
 32 33  1  0  0  0  0
 34 35  1  0  0  0  0
 36 34  2  0  0  0  0
 37 36  1  0  0  0  0
M  END
>  <minimizedAffinity>
-6.19611406

>  <minimizedRMSD>
0.651104629

$$$$
