
 OpenBabel03252506123D

 39 42  0  0  0  0  0  0  0  0999 V2000
   45.1450   33.3470   41.2030 F   0  0  0  0  0  0  0  0  0  0  0  0
   46.3180   33.9700   41.0480 C   0  0  0  0  0  0  0  0  0  0  0  0
   46.8010   34.7500   42.0780 C   0  0  0  0  0  0  0  0  0  0  0  0
   48.0180   35.4330   42.0000 C   0  0  0  0  0  0  0  0  0  0  0  0
   48.7850   35.3320   40.8390 C   0  0  0  0  0  0  0  0  0  0  0  0
   48.2570   34.5360   39.8330 C   0  0  0  0  0  0  0  0  0  0  0  0
   47.0760   33.8650   39.8930 C   0  0  0  0  0  0  0  0  0  0  0  0
   48.3360   36.0350   42.8590 H   0  0  0  0  0  0  0  0  0  0  0  0
   49.6970   35.8740   40.8440 H   0  0  0  0  0  0  0  0  0  0  0  0
   48.9560   34.5430   39.0020 H   0  0  0  0  0  0  0  0  0  0  0  0
   45.4440   34.0260   45.4080 C   0  0  0  0  0  0  0  0  0  0  0  0
   44.6180   35.1500   45.6340 C   0  0  0  0  0  0  0  0  0  0  0  0
   44.5320   36.1570   44.6350 C   0  0  0  0  0  0  0  0  0  0  0  0
   45.2700   35.9610   43.5020 N   0  0  0  0  0  0  0  0  0  0  0  0
   46.0400   34.8870   43.3210 C   0  0  0  0  0  0  0  0  0  0  0  0
   46.1220   33.9340   44.2650 N   0  0  0  0  0  0  0  0  0  0  0  0
   44.0580   35.2520   46.5490 H   0  0  0  0  0  0  0  0  0  0  0  0
   43.9080   37.0280   44.7820 H   0  0  0  0  0  0  0  0  0  0  0  0
   45.5130   33.0420   46.4150 N   0  0  0  0  0  0  0  0  0  0  0  0
   44.9540   32.2220   46.0810 H   0  0  0  0  0  0  0  0  0  0  0  0
   45.9820   33.0060   47.3410 H   0  0  0  0  0  0  0  0  0  0  0  0
   46.6610   33.1130   38.8350 O   0  0  0  0  0  0  0  0  0  0  0  0
   47.8840   34.5620   36.9900 O   0  0  0  0  0  0  0  0  0  0  0  0
   46.9040   33.4440   37.2000 P   0  0  2  0  0  0  0  0  0  0  0  0
   45.3880   33.8420   36.5090 O   0  0  0  0  0  0  0  0  0  0  0  0
   45.5090   34.1620   35.5630 H   0  0  0  0  0  0  0  0  0  0  0  0
   47.4270   32.0900   36.3340 O   0  0  0  0  0  0  0  0  0  0  0  0
   47.8770   32.0610   35.0440 C   0  0  0  0  0  0  0  0  0  0  0  0
   48.7670   32.8550   34.4250 N   0  0  0  0  0  0  0  0  0  0  0  0
   49.1060   32.6970   33.1400 C   0  0  0  0  0  0  0  0  0  0  0  0
   48.5530   31.7050   32.3890 N   0  0  0  0  0  0  0  0  0  0  0  0
   47.6560   30.8750   32.9460 C   0  0  0  0  0  0  0  0  0  0  0  0
   47.1330   29.8900   32.1320 C   0  0  0  0  0  0  0  0  0  0  0  0
   46.2080   29.0170   32.6670 C   0  0  0  0  0  0  0  0  0  0  0  0
   45.7270   28.2070   32.1360 H   0  0  0  0  0  0  0  0  0  0  0  0
   45.8340   29.1510   33.9920 C   0  0  0  0  0  0  0  0  0  0  0  0
   45.1060   28.4870   34.4650 H   0  0  0  0  0  0  0  0  0  0  0  0
   46.3870   30.1520   34.7600 C   0  0  0  0  0  0  0  0  0  0  0  0
   47.3250   31.0550   34.2590 C   0  0  0  0  0  0  0  0  0  0  0  0
  2  1  1  0  0  0  0
  2  3  1  0  0  0  0
  3 15  1  0  0  0  0
  4  3  2  0  0  0  0
  4  8  1  0  0  0  0
  5  9  1  0  0  0  0
  5  4  1  0  0  0  0
  6  7  1  0  0  0  0
  6  5  2  0  0  0  0
  7  2  2  0  0  0  0
 10  6  1  0  0  0  0
 11 12  1  0  0  0  0
 11 19  1  0  0  0  0
 12 17  1  0  0  0  0
 13 18  1  0  0  0  0
 13 12  2  0  0  0  0
 14 13  1  0  0  0  0
 15 14  2  0  0  0  0
 15 16  1  0  0  0  0
 16 11  2  0  0  0  0
 19 21  1  0  0  0  0
 20 19  1  0  0  0  0
 22  7  1  0  0  0  0
 24 23  2  6  0  0  0
 24 22  1  0  0  0  0
 25 24  1  0  0  0  0
 26 25  1  0  0  0  0
 27 24  1  0  0  0  0
 28 27  1  0  0  0  0
 29 28  1  0  0  0  0
 30 29  2  0  0  0  0
 31 32  2  0  0  0  0
 31 30  1  0  0  0  0
 32 39  1  0  0  0  0
 33 34  2  0  0  0  0
 33 32  1  0  0  0  0
 34 36  1  0  0  0  0
 35 34  1  0  0  0  0
 36 37  1  0  0  0  0
 36 38  2  0  0  0  0
 39 38  1  0  0  0  0
 39 28  2  0  0  0  0
M  END
>  <minimizedAffinity>
-7.41285324

>  <minimizedRMSD>
1.16270792

$$$$
