
 OpenBabel03242519033D

 35 38  0  0  1  0  0  0  0  0999 V2000
   47.4450   34.2450   42.1370 N   0  0  0  0  0  0  0  0  0  0  0  0
   48.0400   34.9580   41.0340 C   0  0  0  0  0  0  0  0  0  0  0  0
   47.9230   33.8880   39.9900 C   0  0  2  0  0  0  0  0  0  0  0  0
   48.5120   32.7000   40.7000 C   0  0  0  0  0  0  0  0  0  0  0  0
   48.0340   32.9150   42.1250 C   0  0  0  0  0  0  0  0  0  0  0  0
   47.5230   35.9000   40.7920 H   0  0  0  0  0  0  0  0  0  0  0  0
   49.1110   35.0840   41.2700 H   0  0  0  0  0  0  0  0  0  0  0  0
   46.8750   33.6820   39.6920 H   0  0  0  0  0  0  0  0  0  0  0  0
   49.5980   32.5960   40.6030 H   0  0  0  0  0  0  0  0  0  0  0  0
   47.9560   31.8000   40.3360 H   0  0  0  0  0  0  0  0  0  0  0  0
   48.9550   32.9930   42.7540 H   0  0  0  0  0  0  0  0  0  0  0  0
   47.3480   32.1340   42.4820 H   0  0  0  0  0  0  0  0  0  0  0  0
   48.7660   34.1520   38.8380 N   0  0  0  0  0  0  0  0  0  0  0  0
   49.3030   35.0240   38.8640 H   0  0  0  0  0  0  0  0  0  0  0  0
   48.7400   33.1680   37.8200 C   0  0  0  0  0  0  0  0  0  0  0  0
   49.8600   32.5300   37.4710 N   0  0  0  0  0  0  0  0  0  0  0  0
   49.8460   31.5920   36.5030 C   0  0  0  0  0  3  0  0  0  0  0  0
   48.7390   31.2250   35.8230 N   0  0  0  0  0  0  0  0  0  0  0  0
   47.5900   31.8530   36.1530 C   0  0  0  0  0  0  0  0  0  0  0  0
   46.4560   31.4840   35.4640 C   0  0  0  0  0  3  0  0  0  0  0  0
   45.2830   32.1270   35.8050 C   0  0  0  0  0  0  0  0  0  0  0  0
   44.3620   31.8760   35.2930 H   0  0  0  0  0  0  0  0  0  0  0  0
   45.2160   33.1050   36.7900 C   0  0  0  0  0  0  0  0  0  0  0  0
   44.2990   33.5890   37.0370 H   0  0  0  0  0  0  0  0  0  0  0  0
   46.4050   33.4080   37.4280 C   0  0  0  0  0  3  0  0  0  0  0  0
   47.5940   32.8140   37.1410 C   0  0  0  0  0  0  0  0  0  0  0  0
   44.7560   36.0250   43.9880 C   0  0  0  0  0  0  0  0  0  0  0  0
   45.6550   35.7460   42.9650 C   0  0  0  0  0  0  0  0  0  0  0  0
   46.4910   34.6470   43.0880 C   0  0  0  0  0  0  0  0  0  0  0  0
   46.3770   33.8860   44.2370 N   0  0  0  0  0  0  0  0  0  0  0  0
   45.5000   34.1720   45.2190 C   0  0  0  0  0  0  0  0  0  0  0  0
   44.6820   35.2530   45.0910 N   0  0  0  0  0  0  0  0  0  0  0  0
   44.1250   36.8920   43.8490 H   0  0  0  0  0  0  0  0  0  0  0  0
   45.7480   36.3350   42.0680 H   0  0  0  0  0  0  0  0  0  0  0  0
   45.5010   33.5020   46.0750 H   0  0  0  0  0  0  0  0  0  0  0  0
  1 29  1  0  0  0  0
  2  7  1  0  0  0  0
  2  1  1  0  0  0  0
  3  8  1  6  0  0  0
  3  4  1  0  0  0  0
  3  2  1  0  0  0  0
  4  5  1  0  0  0  0
  5  1  1  0  0  0  0
  5 12  1  0  0  0  0
  5 11  1  0  0  0  0
  6  2  1  0  0  0  0
  9  4  1  0  0  0  0
 10  4  1  0  0  0  0
 13 14  1  0  0  0  0
 13  3  1  0  0  0  0
 15 13  1  0  0  0  0
 16 15  1  0  0  0  0
 17 16  2  0  0  0  0
 18 19  2  0  0  0  0
 18 17  1  0  0  0  0
 19 26  1  0  0  0  0
 20 21  2  0  0  0  0
 20 19  1  0  0  0  0
 21 23  1  0  0  0  0
 22 21  1  0  0  0  0
 23 24  1  0  0  0  0
 23 25  2  0  0  0  0
 26 25  1  0  0  0  0
 26 15  2  0  0  0  0
 27 32  1  0  0  0  0
 28 29  1  0  0  0  0
 28 27  2  0  0  0  0
 29 30  2  0  0  0  0
 30 31  1  0  0  0  0
 31 35  1  0  0  0  0
 32 31  2  0  0  0  0
 33 27  1  0  0  0  0
 34 28  1  0  0  0  0
M  END
>  <minimizedAffinity>
-5.43387127

>  <minimizedRMSD>
1.32848442

$$$$
