
 OpenBabel03252508013D

 32 35  0  0  1  0  0  0  0  0999 V2000
   38.7010   29.5220   42.1060 C   0  0  0  0  0  0  0  0  0  0  0  0
   39.6350   30.3630   42.8070 C   0  0  0  0  0  0  0  0  0  0  0  0
   40.0560   31.5110   42.1400 C   0  0  0  0  0  0  0  0  0  0  0  0
   39.5740   31.7620   40.8990 N   0  0  0  0  0  0  0  0  0  0  0  0
   38.6840   30.9170   40.2830 C   0  0  0  0  0  0  0  0  0  0  0  0
   38.2360   29.8060   40.8540 N   0  0  0  0  0  0  0  0  0  0  0  0
   39.9530   30.0800   43.7780 H   0  0  0  0  0  0  0  0  0  0  0  0
   40.7520   32.1600   42.6360 H   0  0  0  0  0  0  0  0  0  0  0  0
   38.1960   31.2660   38.9170 C   0  0  1  0  0  0  0  0  0  0  0  0
   36.7190   31.1480   38.6250 C   0  0  0  0  0  0  0  0  0  0  0  0
   37.3660   32.4860   38.8550 C   0  0  1  0  0  0  0  0  0  0  0  0
   38.8890   31.0500   38.0810 H   0  0  0  0  0  0  0  0  0  0  0  0
   36.4670   30.8390   37.5900 H   0  0  0  0  0  0  0  0  0  0  0  0
   36.1570   30.6410   39.4470 H   0  0  0  0  0  0  0  0  0  0  0  0
   37.3850   33.1300   37.9420 H   0  0  0  0  0  0  0  0  0  0  0  0
   36.9160   33.1160   40.1010 N   0  0  0  0  0  0  0  0  0  0  0  0
   36.0140   32.7020   40.4410 H   0  0  0  0  0  0  0  0  0  0  0  0
   36.6900   34.1200   39.8810 H   0  0  0  0  0  0  0  0  0  0  0  0
   38.2980   28.3230   42.7930 C   0  0  2  0  0  3  0  0  0  0  0  0
   37.3470   28.3510   43.6780 O   0  0  0  0  0  1  0  0  0  0  0  0
   38.6990   26.9190   42.7850 C   0  0  0  0  0  0  0  0  0  0  0  0
   39.6820   26.5330   43.6130 N   0  0  0  0  0  0  0  0  0  0  0  0
   40.1290   25.2410   43.6790 C   0  0  0  0  0  3  0  0  0  0  0  0
   39.6020   24.2890   42.9150 N   0  0  0  0  0  0  0  0  0  0  0  0
   38.5970   24.5650   42.0370 C   0  0  0  0  0  0  0  0  0  0  0  0
   38.0220   23.6110   41.2310 C   0  0  0  0  0  3  0  0  0  0  0  0
   37.0020   23.9190   40.3560 C   0  0  0  0  0  0  0  0  0  0  0  0
   36.6370   23.0930   39.7840 H   0  0  0  0  0  0  0  0  0  0  0  0
   36.5850   25.2500   40.3300 C   0  0  0  0  0  0  0  0  0  0  0  0
   35.7880   25.4620   39.6370 H   0  0  0  0  0  0  0  0  0  0  0  0
   37.1940   26.1580   41.1530 C   0  0  0  0  0  3  0  0  0  0  0  0
   38.2070   25.8820   42.0310 C   0  0  0  0  0  0  0  0  0  0  0  0
  1 19  1  0  0  0  0
  1  2  1  0  0  0  0
  2  7  1  0  0  0  0
  3  8  1  0  0  0  0
  3  2  2  0  0  0  0
  4  3  1  0  0  0  0
  5  6  1  0  0  0  0
  5  4  2  0  0  0  0
  6  1  2  0  0  0  0
  9 12  1  6  0  0  0
  9  5  1  0  0  0  0
 10 11  1  0  0  0  0
 10  9  1  0  0  0  0
 10 14  1  0  0  0  0
 11 15  1  6  0  0  0
 11  9  1  0  0  0  0
 11 16  1  0  0  0  0
 13 10  1  0  0  0  0
 16 17  1  0  0  0  0
 18 16  1  0  0  0  0
 19 20  1  1  0  0  0
 21 19  1  0  0  0  0
 21 22  1  0  0  0  0
 22 23  2  0  0  0  0
 24 23  1  0  0  0  0
 25 24  2  0  0  0  0
 26 25  1  0  0  0  0
 27 26  2  0  0  0  0
 28 27  1  0  0  0  0
 29 27  1  0  0  0  0
 29 31  2  0  0  0  0
 30 29  1  0  0  0  0
 31 32  1  0  0  0  0
 32 25  1  0  0  0  0
 32 21  2  0  0  0  0
M  END
>  <minimizedAffinity>
-6.01353025

$$$$

 OpenBabel03252508013D

 32 35  0  0  1  0  0  0  0  0999 V2000
   38.0580   31.3920   40.5300 C   0  0  0  0  0  0  0  0  0  0  0  0
   37.6510   32.7720   40.5300 C   0  0  0  0  0  0  0  0  0  0  0  0
   38.5310   33.6780   39.9420 C   0  0  0  0  0  0  0  0  0  0  0  0
   39.6920   33.2170   39.4170 N   0  0  0  0  0  0  0  0  0  0  0  0
   40.0220   31.8850   39.4490 C   0  0  0  0  0  0  0  0  0  0  0  0
   39.2370   30.9630   39.9900 N   0  0  0  0  0  0  0  0  0  0  0  0
   36.7210   33.0340   40.9670 H   0  0  0  0  0  0  0  0  0  0  0  0
   38.2560   34.7150   39.9260 H   0  0  0  0  0  0  0  0  0  0  0  0
   41.3180   31.4560   38.8450 C   0  0  1  0  0  0  0  0  0  0  0  0
   41.2950   30.4130   37.7530 C   0  0  0  0  0  0  0  0  0  0  0  0
   41.5060   31.8680   37.4400 C   0  0  1  0  0  0  0  0  0  0  0  0
   42.1950   31.4530   39.5210 H   0  0  0  0  0  0  0  0  0  0  0  0
   42.1660   29.7250   37.7410 H   0  0  0  0  0  0  0  0  0  0  0  0
   40.2890   29.9450   37.6250 H   0  0  0  0  0  0  0  0  0  0  0  0
   42.5300   32.0940   37.0540 H   0  0  0  0  0  0  0  0  0  0  0  0
   40.3780   32.4480   36.7020 N   0  0  0  0  0  0  0  0  0  0  0  0
   39.7900   31.7070   36.2460 H   0  0  0  0  0  0  0  0  0  0  0  0
   40.7790   33.0060   35.9030 H   0  0  0  0  0  0  0  0  0  0  0  0
   37.1550   30.4710   41.1680 C   0  0  2  0  0  3  0  0  0  0  0  0
   35.9060   30.7830   41.3490 O   0  0  0  0  0  1  0  0  0  0  0  0
   37.2470   29.1320   41.7420 C   0  0  0  0  0  0  0  0  0  0  0  0
   37.5310   29.0190   43.0490 N   0  0  0  0  0  0  0  0  0  0  0  0
   37.6400   27.8080   43.6800 C   0  0  0  0  0  3  0  0  0  0  0  0
   37.4650   26.6680   43.0180 N   0  0  0  0  0  0  0  0  0  0  0  0
   37.1720   26.6620   41.6870 C   0  0  0  0  0  0  0  0  0  0  0  0
   36.9800   25.5070   40.9670 C   0  0  0  0  0  3  0  0  0  0  0  0
   36.6790   25.5330   39.6220 C   0  0  0  0  0  0  0  0  0  0  0  0
   36.5520   24.5710   39.1720 H   0  0  0  0  0  0  0  0  0  0  0  0
   36.5790   26.7920   39.0300 C   0  0  0  0  0  0  0  0  0  0  0  0
   36.3430   26.7820   37.9790 H   0  0  0  0  0  0  0  0  0  0  0  0
   36.7810   27.9080   39.7950 C   0  0  0  0  0  3  0  0  0  0  0  0
   37.0800   27.9140   41.1300 C   0  0  0  0  0  0  0  0  0  0  0  0
  1 19  1  0  0  0  0
  2  1  1  0  0  0  0
  2  7  1  0  0  0  0
  3  2  2  0  0  0  0
  4  5  2  0  0  0  0
  4  3  1  0  0  0  0
  5  6  1  0  0  0  0
  6  1  2  0  0  0  0
  8  3  1  0  0  0  0
  9  5  1  0  0  0  0
  9 12  1  1  0  0  0
 10  9  1  0  0  0  0
 11 15  1  6  0  0  0
 11 10  1  0  0  0  0
 11  9  1  0  0  0  0
 13 10  1  0  0  0  0
 14 10  1  0  0  0  0
 16 11  1  0  0  0  0
 17 16  1  0  0  0  0
 18 16  1  0  0  0  0
 19 20  1  1  0  0  0
 19 21  1  0  0  0  0
 21 22  1  0  0  0  0
 22 23  2  0  0  0  0
 24 23  1  0  0  0  0
 25 24  2  0  0  0  0
 26 25  1  0  0  0  0
 27 26  2  0  0  0  0
 28 27  1  0  0  0  0
 29 27  1  0  0  0  0
 29 31  2  0  0  0  0
 30 29  1  0  0  0  0
 31 32  1  0  0  0  0
 32 25  1  0  0  0  0
 32 21  2  0  0  0  0
M  END
>  <minimizedAffinity>
-5.80747509

$$$$

 OpenBabel03252508013D

 32 35  0  0  1  0  0  0  0  0999 V2000
   37.6540   30.0820   40.4440 C   0  0  0  0  0  0  0  0  0  0  0  0
   36.9200   31.2980   40.6780 C   0  0  0  0  0  0  0  0  0  0  0  0
   37.5440   32.4820   40.2930 C   0  0  0  0  0  0  0  0  0  0  0  0
   38.7760   32.4220   39.7340 N   0  0  0  0  0  0  0  0  0  0  0  0
   39.4240   31.2280   39.5380 C   0  0  0  0  0  0  0  0  0  0  0  0
   38.8960   30.0590   39.8770 N   0  0  0  0  0  0  0  0  0  0  0  0
   35.9590   31.2410   41.1230 H   0  0  0  0  0  0  0  0  0  0  0  0
   37.0220   33.4060   40.4540 H   0  0  0  0  0  0  0  0  0  0  0  0
   40.7790   31.2440   38.9120 C   0  0  1  0  0  0  0  0  0  0  0  0
   41.0130   30.4120   37.6730 C   0  0  0  0  0  0  0  0  0  0  0  0
   40.8360   31.9020   37.5900 C   0  0  1  0  0  0  0  0  0  0  0  0
   41.6350   31.3640   39.6030 H   0  0  0  0  0  0  0  0  0  0  0  0
   42.0320   29.9810   37.5810 H   0  0  0  0  0  0  0  0  0  0  0  0
   40.1610   29.7250   37.4490 H   0  0  0  0  0  0  0  0  0  0  0  0
   41.7620   32.4410   37.2710 H   0  0  0  0  0  0  0  0  0  0  0  0
   39.5870   32.2780   36.9180 N   0  0  0  0  0  0  0  0  0  0  0  0
   39.2050   31.4900   36.3400 H   0  0  0  0  0  0  0  0  0  0  0  0
   39.8190   33.0360   36.2250 H   0  0  0  0  0  0  0  0  0  0  0  0
   37.0110   28.8690   40.8750 C   0  0  2  0  0  3  0  0  0  0  0  0
   35.8160   28.8940   41.3850 O   0  0  0  0  0  1  0  0  0  0  0  0
   37.3560   27.4500   40.9130 C   0  0  0  0  0  0  0  0  0  0  0  0
   36.8030   26.6380   40.0000 N   0  0  0  0  0  0  0  0  0  0  0  0
   37.0610   25.2940   39.9530 C   0  0  0  0  0  3  0  0  0  0  0  0
   37.8870   24.7200   40.8220 N   0  0  0  0  0  0  0  0  0  0  0  0
   38.5060   25.4480   41.7940 C   0  0  0  0  0  0  0  0  0  0  0  0
   39.3700   24.8950   42.7090 C   0  0  0  0  0  3  0  0  0  0  0  0
   39.9870   25.6590   43.6780 C   0  0  0  0  0  0  0  0  0  0  0  0
   40.6360   25.1150   44.3310 H   0  0  0  0  0  0  0  0  0  0  0  0
   39.6880   27.0220   43.6800 C   0  0  0  0  0  0  0  0  0  0  0  0
   40.1840   27.5930   44.4470 H   0  0  0  0  0  0  0  0  0  0  0  0
   38.8210   27.5170   42.7450 C   0  0  0  0  0  3  0  0  0  0  0  0
   38.1950   26.7850   41.7730 C   0  0  0  0  0  0  0  0  0  0  0  0
  1  2  1  0  0  0  0
  1 19  1  0  0  0  0
  2  7  1  0  0  0  0
  3  8  1  0  0  0  0
  3  2  2  0  0  0  0
  4  3  1  0  0  0  0
  5  4  2  0  0  0  0
  5  6  1  0  0  0  0
  6  1  2  0  0  0  0
  9  5  1  0  0  0  0
  9 12  1  1  0  0  0
 10  9  1  0  0  0  0
 11 15  1  6  0  0  0
 11 10  1  0  0  0  0
 11  9  1  0  0  0  0
 13 10  1  0  0  0  0
 14 10  1  0  0  0  0
 16 11  1  0  0  0  0
 17 16  1  0  0  0  0
 18 16  1  0  0  0  0
 19 21  1  0  0  0  0
 19 20  1  1  0  0  0
 21 32  1  0  0  0  0
 22 21  2  0  0  0  0
 23 22  1  0  0  0  0
 23 24  2  0  0  0  0
 24 25  1  0  0  0  0
 25 26  1  0  0  0  0
 26 27  2  0  0  0  0
 27 29  1  0  0  0  0
 27 28  1  0  0  0  0
 29 30  1  0  0  0  0
 31 29  2  0  0  0  0
 32 25  2  0  0  0  0
 32 31  1  0  0  0  0
M  END
>  <minimizedAffinity>
-5.76136255

$$$$

 OpenBabel03252508013D

 32 35  0  0  1  0  0  0  0  0999 V2000
   37.5770   30.5180   39.5610 C   0  0  0  0  0  0  0  0  0  0  0  0
   37.0800   30.5730   38.2120 C   0  0  0  0  0  0  0  0  0  0  0  0
   37.8340   31.3150   37.3050 C   0  0  0  0  0  0  0  0  0  0  0  0
   38.9620   31.9270   37.7360 N   0  0  0  0  0  0  0  0  0  0  0  0
   39.3820   31.8360   39.0400 C   0  0  0  0  0  0  0  0  0  0  0  0
   38.7200   31.1480   39.9610 N   0  0  0  0  0  0  0  0  0  0  0  0
   36.1850   30.0590   37.9710 H   0  0  0  0  0  0  0  0  0  0  0  0
   37.4900   31.3760   36.2890 H   0  0  0  0  0  0  0  0  0  0  0  0
   40.6390   32.5350   39.4360 C   0  0  1  0  0  0  0  0  0  0  0  0
   40.7460   34.0230   39.1950 C   0  0  0  0  0  0  0  0  0  0  0  0
   40.4900   33.4700   40.5700 C   0  0  1  0  0  0  0  0  0  0  0  0
   41.5730   31.9470   39.3510 H   0  0  0  0  0  0  0  0  0  0  0  0
   41.7620   34.3860   38.9380 H   0  0  0  0  0  0  0  0  0  0  0  0
   39.9040   34.4190   38.5780 H   0  0  0  0  0  0  0  0  0  0  0  0
   41.3400   33.6330   41.2780 H   0  0  0  0  0  0  0  0  0  0  0  0
   39.1470   33.7980   41.0610 N   0  0  0  0  0  0  0  0  0  0  0  0
   38.7290   34.6060   40.5370 H   0  0  0  0  0  0  0  0  0  0  0  0
   39.2500   34.1400   42.0520 H   0  0  0  0  0  0  0  0  0  0  0  0
   36.7720   29.7750   40.4950 C   0  0  2  0  0  3  0  0  0  0  0  0
   35.5060   30.0310   40.6330 O   0  0  0  0  0  1  0  0  0  0  0  0
   36.9950   28.6900   41.4470 C   0  0  0  0  0  0  0  0  0  0  0  0
   37.3040   29.0090   42.7130 N   0  0  0  0  0  0  0  0  0  0  0  0
   37.5320   28.0650   43.6790 C   0  0  0  0  0  3  0  0  0  0  0  0
   37.4540   26.7660   43.4060 N   0  0  0  0  0  0  0  0  0  0  0  0
   37.1470   26.3260   42.1530 C   0  0  0  0  0  0  0  0  0  0  0  0
   37.0530   24.9930   41.8290 C   0  0  0  0  0  3  0  0  0  0  0  0
   36.7340   24.5780   40.5540 C   0  0  0  0  0  0  0  0  0  0  0  0
   36.6920   23.5170   40.4250 H   0  0  0  0  0  0  0  0  0  0  0  0
   36.5120   25.5810   39.6090 C   0  0  0  0  0  0  0  0  0  0  0  0
   36.2650   25.2270   38.6230 H   0  0  0  0  0  0  0  0  0  0  0  0
   36.6190   26.8910   39.9880 C   0  0  0  0  0  3  0  0  0  0  0  0
   36.9330   27.3330   41.2440 C   0  0  0  0  0  0  0  0  0  0  0  0
  1  6  1  0  0  0  0
  1 19  1  0  0  0  0
  2  1  2  0  0  0  0
  3  4  2  0  0  0  0
  3  2  1  0  0  0  0
  4  5  1  0  0  0  0
  5  9  1  0  0  0  0
  5  6  2  0  0  0  0
  7  2  1  0  0  0  0
  8  3  1  0  0  0  0
  9 12  1  6  0  0  0
  9 11  1  0  0  0  0
 10  9  1  0  0  0  0
 10 11  1  0  0  0  0
 11 16  1  0  0  0  0
 11 15  1  1  0  0  0
 13 10  1  0  0  0  0
 14 10  1  0  0  0  0
 16 18  1  0  0  0  0
 17 16  1  0  0  0  0
 19 20  1  1  0  0  0
 19 21  1  0  0  0  0
 21 22  1  0  0  0  0
 22 23  2  0  0  0  0
 24 23  1  0  0  0  0
 25 24  2  0  0  0  0
 26 25  1  0  0  0  0
 27 26  2  0  0  0  0
 28 27  1  0  0  0  0
 29 31  2  0  0  0  0
 29 27  1  0  0  0  0
 30 29  1  0  0  0  0
 31 32  1  0  0  0  0
 32 21  2  0  0  0  0
 32 25  1  0  0  0  0
M  END
>  <minimizedAffinity>
-5.70867586

$$$$

 OpenBabel03252508013D

 32 35  0  0  1  0  0  0  0  0999 V2000
   37.1350   29.0550   41.8160 C   0  0  0  0  0  0  0  0  0  0  0  0
   35.9450   29.1370   41.0100 C   0  0  0  0  0  0  0  0  0  0  0  0
   35.8070   30.2810   40.2260 C   0  0  0  0  0  0  0  0  0  0  0  0
   36.7760   31.2260   40.2680 N   0  0  0  0  0  0  0  0  0  0  0  0
   37.8880   31.0870   41.0600 C   0  0  0  0  0  0  0  0  0  0  0  0
   38.0920   30.0280   41.8330 N   0  0  0  0  0  0  0  0  0  0  0  0
   35.2430   28.3440   41.0460 H   0  0  0  0  0  0  0  0  0  0  0  0
   34.9300   30.3720   39.6120 H   0  0  0  0  0  0  0  0  0  0  0  0
   38.9140   32.1710   41.0470 C   0  0  1  0  0  0  0  0  0  0  0  0
   40.3370   31.8150   40.6850 C   0  0  0  0  0  0  0  0  0  0  0  0
   39.4320   32.5090   39.7060 C   0  0  1  0  0  0  0  0  0  0  0  0
   38.7750   32.9840   41.7850 H   0  0  0  0  0  0  0  0  0  0  0  0
   41.1170   32.4020   41.2130 H   0  0  0  0  0  0  0  0  0  0  0  0
   40.5020   30.7120   40.6220 H   0  0  0  0  0  0  0  0  0  0  0  0
   39.7500   33.5560   39.4760 H   0  0  0  0  0  0  0  0  0  0  0  0
   39.0880   31.6560   38.5640 N   0  0  0  0  0  0  0  0  0  0  0  0
   39.7640   30.8600   38.4570 H   0  0  0  0  0  0  0  0  0  0  0  0
   39.2080   32.2340   37.6920 H   0  0  0  0  0  0  0  0  0  0  0  0
   37.2500   27.8840   42.6450 C   0  0  2  0  0  3  0  0  0  0  0  0
   36.4800   27.7240   43.6800 O   0  0  0  0  0  1  0  0  0  0  0  0
   38.0820   26.6840   42.6640 C   0  0  0  0  0  0  0  0  0  0  0  0
   39.1330   26.6530   43.4970 N   0  0  0  0  0  0  0  0  0  0  0  0
   39.9740   25.5750   43.5870 C   0  0  0  0  0  3  0  0  0  0  0  0
   39.7840   24.4900   42.8430 N   0  0  0  0  0  0  0  0  0  0  0  0
   38.7470   24.4100   41.9620 C   0  0  0  0  0  0  0  0  0  0  0  0
   38.5140   23.3050   41.1780 C   0  0  0  0  0  3  0  0  0  0  0  0
   37.4530   23.2510   40.3000 C   0  0  0  0  0  0  0  0  0  0  0  0
   37.3760   22.3400   39.7450 H   0  0  0  0  0  0  0  0  0  0  0  0
   36.6290   24.3760   40.2480 C   0  0  0  0  0  0  0  0  0  0  0  0
   35.8090   24.3050   39.5530 H   0  0  0  0  0  0  0  0  0  0  0  0
   36.9090   25.4470   41.0510 C   0  0  0  0  0  3  0  0  0  0  0  0
   37.9530   25.5300   41.9320 C   0  0  0  0  0  0  0  0  0  0  0  0
  1  6  1  0  0  0  0
  1 19  1  0  0  0  0
  2  7  1  0  0  0  0
  2  1  2  0  0  0  0
  3  4  2  0  0  0  0
  3  2  1  0  0  0  0
  4  5  1  0  0  0  0
  5  6  2  0  0  0  0
  8  3  1  0  0  0  0
  9  5  1  0  0  0  0
  9 12  1  1  0  0  0
 10  9  1  0  0  0  0
 10 13  1  0  0  0  0
 11 15  1  6  0  0  0
 11 10  1  0  0  0  0
 11  9  1  0  0  0  0
 14 10  1  0  0  0  0
 16 11  1  0  0  0  0
 17 16  1  0  0  0  0
 18 16  1  0  0  0  0
 19 21  1  0  0  0  0
 19 20  1  1  0  0  0
 21 22  1  0  0  0  0
 22 23  2  0  0  0  0
 24 23  1  0  0  0  0
 25 24  2  0  0  0  0
 26 25  1  0  0  0  0
 27 26  2  0  0  0  0
 28 27  1  0  0  0  0
 29 27  1  0  0  0  0
 29 31  2  0  0  0  0
 30 29  1  0  0  0  0
 31 32  1  0  0  0  0
 32 25  1  0  0  0  0
 32 21  2  0  0  0  0
M  END
>  <minimizedAffinity>
-5.68601179

$$$$

 OpenBabel03252508013D

 32 35  0  0  1  0  0  0  0  0999 V2000
   37.9800   31.4710   40.6790 C   0  0  0  0  0  0  0  0  0  0  0  0
   37.3480   32.7070   40.2990 C   0  0  0  0  0  0  0  0  0  0  0  0
   38.1940   33.7340   39.8870 C   0  0  0  0  0  0  0  0  0  0  0  0
   39.5310   33.5140   39.8690 N   0  0  0  0  0  0  0  0  0  0  0  0
   40.0720   32.3100   40.2450 C   0  0  0  0  0  0  0  0  0  0  0  0
   39.3320   31.2850   40.6480 N   0  0  0  0  0  0  0  0  0  0  0  0
   36.2910   32.7800   40.3470 H   0  0  0  0  0  0  0  0  0  0  0  0
   37.7530   34.6680   39.5960 H   0  0  0  0  0  0  0  0  0  0  0  0
   41.5540   32.1450   40.1940 C   0  0  1  0  0  0  0  0  0  0  0  0
   42.4160   33.1130   40.9710 C   0  0  0  0  0  0  0  0  0  0  0  0
   42.1680   31.7150   41.4670 C   0  0  1  0  0  0  0  0  0  0  0  0
   41.9700   31.7570   39.2450 H   0  0  0  0  0  0  0  0  0  0  0  0
   43.3910   33.3550   40.5010 H   0  0  0  0  0  0  0  0  0  0  0  0
   41.8340   33.9730   41.3820 H   0  0  0  0  0  0  0  0  0  0  0  0
   43.0830   31.0740   41.4600 H   0  0  0  0  0  0  0  0  0  0  0  0
   41.3550   31.6940   42.6880 N   0  0  0  0  0  0  0  0  0  0  0  0
   41.3620   32.6240   43.1750 H   0  0  0  0  0  0  0  0  0  0  0  0
   41.8180   31.0310   43.3630 H   0  0  0  0  0  0  0  0  0  0  0  0
   37.0970   30.4290   41.1320 C   0  0  2  0  0  3  0  0  0  0  0  0
   35.8070   30.5660   41.0480 O   0  0  0  0  0  1  0  0  0  0  0  0
   37.2480   29.1070   41.7330 C   0  0  0  0  0  0  0  0  0  0  0  0
   37.6010   29.0330   43.0260 N   0  0  0  0  0  0  0  0  0  0  0  0
   37.7700   27.8410   43.6800 C   0  0  0  0  0  3  0  0  0  0  0  0
   37.5870   26.6810   43.0560 N   0  0  0  0  0  0  0  0  0  0  0  0
   37.2260   26.6350   41.7430 C   0  0  0  0  0  0  0  0  0  0  0  0
   37.0230   25.4580   41.0620 C   0  0  0  0  0  3  0  0  0  0  0  0
   36.6530   25.4430   39.7340 C   0  0  0  0  0  0  0  0  0  0  0  0
   36.5250   24.4670   39.3160 H   0  0  0  0  0  0  0  0  0  0  0  0
   36.4950   26.6840   39.1180 C   0  0  0  0  0  0  0  0  0  0  0  0
   36.2050   26.6420   38.0810 H   0  0  0  0  0  0  0  0  0  0  0  0
   36.7100   27.8230   39.8430 C   0  0  0  0  0  3  0  0  0  0  0  0
   37.0780   27.8700   41.1610 C   0  0  0  0  0  0  0  0  0  0  0  0
  1 19  1  0  0  0  0
  2  7  1  0  0  0  0
  2  1  2  0  0  0  0
  3  2  1  0  0  0  0
  4  3  2  0  0  0  0
  4  5  1  0  0  0  0
  5  6  2  0  0  0  0
  6  1  1  0  0  0  0
  8  3  1  0  0  0  0
  9 12  1  6  0  0  0
  9  5  1  0  0  0  0
  9 10  1  0  0  0  0
  9 11  1  0  0  0  0
 10 14  1  0  0  0  0
 10 11  1  0  0  0  0
 11 15  1  6  0  0  0
 11 16  1  0  0  0  0
 13 10  1  0  0  0  0
 16 17  1  0  0  0  0
 16 18  1  0  0  0  0
 19 20  1  1  0  0  0
 19 21  1  0  0  0  0
 21 22  1  0  0  0  0
 22 23  2  0  0  0  0
 24 23  1  0  0  0  0
 25 24  2  0  0  0  0
 26 25  1  0  0  0  0
 27 26  2  0  0  0  0
 28 27  1  0  0  0  0
 29 27  1  0  0  0  0
 29 31  2  0  0  0  0
 30 29  1  0  0  0  0
 31 32  1  0  0  0  0
 32 21  2  0  0  0  0
 32 25  1  0  0  0  0
M  END
>  <minimizedAffinity>
-5.58337355

$$$$

 OpenBabel03252508013D

 32 35  0  0  1  0  0  0  0  0999 V2000
   36.5570   28.5470   41.4210 C   0  0  0  0  0  0  0  0  0  0  0  0
   36.8820   29.8860   41.8360 C   0  0  0  0  0  0  0  0  0  0  0  0
   36.6290   30.8990   40.9140 C   0  0  0  0  0  0  0  0  0  0  0  0
   36.1060   30.5720   39.7080 N   0  0  0  0  0  0  0  0  0  0  0  0
   35.8190   29.2720   39.3720 C   0  0  0  0  0  0  0  0  0  0  0  0
   36.0300   28.2540   40.1960 N   0  0  0  0  0  0  0  0  0  0  0  0
   37.2890   30.0410   42.8030 H   0  0  0  0  0  0  0  0  0  0  0  0
   36.8600   31.9100   41.1940 H   0  0  0  0  0  0  0  0  0  0  0  0
   35.2400   28.9940   38.0250 C   0  0  1  0  0  0  0  0  0  0  0  0
   34.3940   27.7550   37.8440 C   0  0  0  0  0  0  0  0  0  0  0  0
   33.7700   29.1180   37.9520 C   0  0  1  0  0  0  0  0  0  0  0  0
   35.8450   29.3170   37.1570 H   0  0  0  0  0  0  0  0  0  0  0  0
   34.4740   27.2720   36.8480 H   0  0  0  0  0  0  0  0  0  0  0  0
   34.4310   27.0760   38.7300 H   0  0  0  0  0  0  0  0  0  0  0  0
   33.2820   29.4570   37.0050 H   0  0  0  0  0  0  0  0  0  0  0  0
   32.9970   29.2800   39.1890 N   0  0  0  0  0  0  0  0  0  0  0  0
   32.7460   28.3540   39.6140 H   0  0  0  0  0  0  0  0  0  0  0  0
   32.0760   29.7200   38.9290 H   0  0  0  0  0  0  0  0  0  0  0  0
   36.8530   27.5070   42.3710 C   0  0  2  0  0  3  0  0  0  0  0  0
   36.2240   27.4460   43.5070 O   0  0  0  0  0  1  0  0  0  0  0  0
   37.7640   26.3680   42.4360 C   0  0  0  0  0  0  0  0  0  0  0  0
   37.2940   25.1580   42.0950 N   0  0  0  0  0  0  0  0  0  0  0  0
   38.0680   24.0290   42.1240 C   0  0  0  0  0  3  0  0  0  0  0  0
   39.3440   24.0770   42.4960 N   0  0  0  0  0  0  0  0  0  0  0  0
   39.9280   25.2530   42.8630 C   0  0  0  0  0  0  0  0  0  0  0  0
   41.2440   25.3470   43.2500 C   0  0  0  0  0  3  0  0  0  0  0  0
   41.8090   26.5520   43.6110 C   0  0  0  0  0  0  0  0  0  0  0  0
   42.8390   26.4980   43.8920 H   0  0  0  0  0  0  0  0  0  0  0  0
   40.9750   27.6700   43.5620 C   0  0  0  0  0  0  0  0  0  0  0  0
   41.4430   28.5970   43.8490 H   0  0  0  0  0  0  0  0  0  0  0  0
   39.6740   27.5170   43.1700 C   0  0  0  0  0  3  0  0  0  0  0  0
   39.0860   26.3360   42.8070 C   0  0  0  0  0  0  0  0  0  0  0  0
  1  2  1  0  0  0  0
  1 19  1  0  0  0  0
  2  7  1  0  0  0  0
  3  8  1  0  0  0  0
  3  2  2  0  0  0  0
  4  3  1  0  0  0  0
  5  4  2  0  0  0  0
  5  6  1  0  0  0  0
  6  1  2  0  0  0  0
  9 12  1  6  0  0  0
  9  5  1  0  0  0  0
 10 11  1  0  0  0  0
 10  9  1  0  0  0  0
 10 14  1  0  0  0  0
 11 15  1  6  0  0  0
 11  9  1  0  0  0  0
 11 16  1  0  0  0  0
 13 10  1  0  0  0  0
 16 17  1  0  0  0  0
 18 16  1  0  0  0  0
 19 21  1  0  0  0  0
 19 20  1  1  0  0  0
 21 32  1  0  0  0  0
 22 23  1  0  0  0  0
 22 21  2  0  0  0  0
 23 24  2  0  0  0  0
 24 25  1  0  0  0  0
 25 26  1  0  0  0  0
 26 27  2  0  0  0  0
 27 28  1  0  0  0  0
 29 27  1  0  0  0  0
 29 30  1  0  0  0  0
 31 29  2  0  0  0  0
 32 25  2  0  0  0  0
 32 31  1  0  0  0  0
M  END
>  <minimizedAffinity>
-5.56413364

$$$$

 OpenBabel03252508013D

 32 35  0  0  1  0  0  0  0  0999 V2000
   38.2730   31.6310   39.7950 C   0  0  0  0  0  0  0  0  0  0  0  0
   37.7030   32.9460   39.9260 C   0  0  0  0  0  0  0  0  0  0  0  0
   38.5800   33.9690   40.2780 C   0  0  0  0  0  0  0  0  0  0  0  0
   39.8880   33.6730   40.4730 N   0  0  0  0  0  0  0  0  0  0  0  0
   40.3700   32.3960   40.3310 C   0  0  0  0  0  0  0  0  0  0  0  0
   39.5980   31.3690   39.9980 N   0  0  0  0  0  0  0  0  0  0  0  0
   36.6650   33.0760   39.7530 H   0  0  0  0  0  0  0  0  0  0  0  0
   38.1860   34.9620   40.3840 H   0  0  0  0  0  0  0  0  0  0  0  0
   41.8240   32.1520   40.5580 C   0  0  1  0  0  0  0  0  0  0  0  0
   42.5490   32.9980   41.5780 C   0  0  0  0  0  0  0  0  0  0  0  0
   42.1520   31.5790   41.8800 C   0  0  1  0  0  0  0  0  0  0  0  0
   42.4080   31.8230   39.6760 H   0  0  0  0  0  0  0  0  0  0  0  0
   43.6080   33.2240   41.3350 H   0  0  0  0  0  0  0  0  0  0  0  0
   41.9300   33.8510   41.9470 H   0  0  0  0  0  0  0  0  0  0  0  0
   43.0240   30.8900   41.9920 H   0  0  0  0  0  0  0  0  0  0  0  0
   41.1090   31.5000   42.9090 N   0  0  0  0  0  0  0  0  0  0  0  0
   41.0540   32.3830   43.4740 H   0  0  0  0  0  0  0  0  0  0  0  0
   41.4010   30.7560   43.5950 H   0  0  0  0  0  0  0  0  0  0  0  0
   37.3500   30.5780   39.4620 C   0  0  2  0  0  3  0  0  0  0  0  0
   36.3360   30.8050   38.6820 O   0  0  0  0  0  1  0  0  0  0  0  0
   37.2060   29.1620   39.7870 C   0  0  0  0  0  0  0  0  0  0  0  0
   36.9920   28.2980   38.7830 N   0  0  0  0  0  0  0  0  0  0  0  0
   36.8420   26.9520   38.9850 C   0  0  0  0  0  3  0  0  0  0  0  0
   36.9050   26.4270   40.2050 N   0  0  0  0  0  0  0  0  0  0  0  0
   37.1190   27.2100   41.3000 C   0  0  0  0  0  0  0  0  0  0  0  0
   37.1940   26.7070   42.5780 C   0  0  0  0  0  3  0  0  0  0  0  0
   37.4170   27.5230   43.6660 C   0  0  0  0  0  0  0  0  0  0  0  0
   37.4550   27.0160   44.6070 H   0  0  0  0  0  0  0  0  0  0  0  0
   37.5630   28.8860   43.4030 C   0  0  0  0  0  0  0  0  0  0  0  0
   37.7360   29.4990   44.2720 H   0  0  0  0  0  0  0  0  0  0  0  0
   37.4780   29.3300   42.1120 C   0  0  0  0  0  3  0  0  0  0  0  0
   37.2580   28.5450   41.0130 C   0  0  0  0  0  0  0  0  0  0  0  0
  1  2  2  0  0  0  0
  1  6  1  0  0  0  0
  2  3  1  0  0  0  0
  3  8  1  0  0  0  0
  3  4  2  0  0  0  0
  5  4  1  0  0  0  0
  5  9  1  0  0  0  0
  6  5  2  0  0  0  0
  7  2  1  0  0  0  0
  9 12  1  6  0  0  0
  9 10  1  0  0  0  0
  9 11  1  0  0  0  0
 10 11  1  0  0  0  0
 10 14  1  0  0  0  0
 11 15  1  1  0  0  0
 11 16  1  0  0  0  0
 13 10  1  0  0  0  0
 16 17  1  0  0  0  0
 16 18  1  0  0  0  0
 19 20  1  1  0  0  0
 19 21  1  0  0  0  0
 19  1  1  0  0  0  0
 21 32  1  0  0  0  0
 22 23  1  0  0  0  0
 22 21  2  0  0  0  0
 23 24  2  0  0  0  0
 24 25  1  0  0  0  0
 25 26  1  0  0  0  0
 26 27  2  0  0  0  0
 27 28  1  0  0  0  0
 29 27  1  0  0  0  0
 29 30  1  0  0  0  0
 31 29  2  0  0  0  0
 32 25  2  0  0  0  0
 32 31  1  0  0  0  0
M  END
>  <minimizedAffinity>
-5.50385714

$$$$

 OpenBabel03252508013D

 32 35  0  0  1  0  0  0  0  0999 V2000
   37.5390   28.3850   41.6020 C   0  0  0  0  0  0  0  0  0  0  0  0
   38.5900   28.7190   42.5270 C   0  0  0  0  0  0  0  0  0  0  0  0
   39.0580   27.6820   43.3310 C   0  0  0  0  0  0  0  0  0  0  0  0
   38.5100   26.4510   43.1990 N   0  0  0  0  0  0  0  0  0  0  0  0
   37.5070   26.1980   42.2960 C   0  0  0  0  0  0  0  0  0  0  0  0
   37.0090   27.1310   41.4960 N   0  0  0  0  0  0  0  0  0  0  0  0
   38.9540   29.7140   42.5550 H   0  0  0  0  0  0  0  0  0  0  0  0
   39.8430   27.8980   44.0310 H   0  0  0  0  0  0  0  0  0  0  0  0
   36.9580   24.8130   42.2080 C   0  0  1  0  0  0  0  0  0  0  0  0
   36.5910   24.2660   40.8480 C   0  0  0  0  0  0  0  0  0  0  0  0
   37.8510   23.8400   41.5480 C   0  0  1  0  0  0  0  0  0  0  0  0
   36.3430   24.4760   43.0650 H   0  0  0  0  0  0  0  0  0  0  0  0
   35.7190   23.5800   40.8370 H   0  0  0  0  0  0  0  0  0  0  0  0
   36.6220   25.0460   40.0490 H   0  0  0  0  0  0  0  0  0  0  0  0
   37.8410   22.7670   41.8620 H   0  0  0  0  0  0  0  0  0  0  0  0
   39.0570   24.3170   40.8630 N   0  0  0  0  0  0  0  0  0  0  0  0
   38.8590   24.5810   39.8670 H   0  0  0  0  0  0  0  0  0  0  0  0
   39.7270   23.5060   40.8020 H   0  0  0  0  0  0  0  0  0  0  0  0
   37.0420   29.4720   40.8000 C   0  0  2  0  0  3  0  0  0  0  0  0
   36.3840   30.4530   41.3430 O   0  0  0  0  0  1  0  0  0  0  0  0
   37.0630   29.8320   39.3850 C   0  0  0  0  0  0  0  0  0  0  0  0
   38.0030   30.6900   38.9620 N   0  0  0  0  0  0  0  0  0  0  0  0
   38.1060   31.0910   37.6560 C   0  0  0  0  0  3  0  0  0  0  0  0
   37.2660   30.6400   36.7290 N   0  0  0  0  0  0  0  0  0  0  0  0
   36.2710   29.7640   37.0450 C   0  0  0  0  0  0  0  0  0  0  0  0
   35.3840   29.2710   36.1160 C   0  0  0  0  0  3  0  0  0  0  0  0
   34.3910   28.3810   36.4650 C   0  0  0  0  0  0  0  0  0  0  0  0
   33.7640   28.0700   35.6560 H   0  0  0  0  0  0  0  0  0  0  0  0
   34.3320   28.0060   37.8070 C   0  0  0  0  0  0  0  0  0  0  0  0
   33.5470   27.3110   38.0500 H   0  0  0  0  0  0  0  0  0  0  0  0
   35.2400   28.5290   38.6870 C   0  0  0  0  0  3  0  0  0  0  0  0
   36.2360   29.4130   38.3720 C   0  0  0  0  0  0  0  0  0  0  0  0
  1  2  1  0  0  0  0
  2  7  1  0  0  0  0
  2  3  2  0  0  0  0
  3  8  1  0  0  0  0
  4  3  1  0  0  0  0
  5  4  2  0  0  0  0
  6  1  2  0  0  0  0
  6  5  1  0  0  0  0
  9  5  1  0  0  0  0
  9 12  1  1  0  0  0
 10 11  1  0  0  0  0
 10  9  1  0  0  0  0
 11 15  1  1  0  0  0
 11  9  1  0  0  0  0
 13 10  1  0  0  0  0
 14 10  1  0  0  0  0
 16 11  1  0  0  0  0
 17 16  1  0  0  0  0
 18 16  1  0  0  0  0
 19 20  1  6  0  0  0
 19  1  1  0  0  0  0
 21 19  1  0  0  0  0
 22 21  1  0  0  0  0
 23 22  2  0  0  0  0
 24 25  2  0  0  0  0
 24 23  1  0  0  0  0
 25 32  1  0  0  0  0
 26 27  2  0  0  0  0
 26 25  1  0  0  0  0
 27 29  1  0  0  0  0
 28 27  1  0  0  0  0
 29 30  1  0  0  0  0
 29 31  2  0  0  0  0
 32 31  1  0  0  0  0
 32 21  2  0  0  0  0
M  END
>  <minimizedAffinity>
-5.45461559

$$$$
