
     RDKit          3D

 25 27  0  0  0  0  0  0  0  0999 V2000
   44.5443   36.0271   44.5247 C   0  0  0  0  0  0  0  0  0  0  0  0
   45.2606   35.8930   43.3191 C   0  0  0  0  0  0  0  0  0  0  0  0
   46.1288   34.7956   43.2096 C   0  0  0  0  0  0  0  0  0  0  0  0
   46.2282   33.9412   44.2505 N   0  0  0  0  0  0  0  0  0  0  0  0
   45.5283   34.0946   45.3960 C   0  0  0  0  0  0  0  0  0  0  0  0
   44.6941   35.1381   45.5172 N   0  0  0  0  0  0  0  0  0  0  0  0
   47.0667   34.5635   41.7118 S   0  0  0  0  0  0  0  0  0  0  0  0
   43.8934   36.8760   44.5689 H   0  0  0  0  0  0  0  0  0  0  0  0
   45.1356   36.6071   42.5310 H   0  0  0  0  0  0  0  0  0  0  0  0
   45.5943   33.4211   46.2405 H   0  0  0  0  0  0  0  0  0  0  0  0
   46.0789   33.5554   40.6157 C   0  0  0  0  0  0  0  0  0  0  0  0
   46.8035   32.7624   39.7753 N   0  0  0  0  0  0  0  0  0  0  0  0
   46.1985   31.9420   38.8867 C   0  0  0  0  0  0  0  0  0  0  0  0
   44.8616   31.9470   38.8731 N   0  0  0  0  0  0  0  0  0  0  0  0
   44.0842   32.6917   39.6608 C   0  0  0  0  0  0  0  0  0  0  0  0
   42.7050   32.6749   39.6228 C   0  0  0  0  0  0  0  0  0  0  0  0
   41.9920   33.4897   40.4867 C   0  0  0  0  0  0  0  0  0  0  0  0
   40.9093   33.4549   40.4335 H   0  0  0  0  0  0  0  0  0  0  0  0
   42.6534   34.3109   41.3771 C   0  0  0  0  0  0  0  0  0  0  0  0
   42.0603   34.9382   42.0416 H   0  0  0  0  0  0  0  0  0  0  0  0
   44.0446   34.3652   41.4554 C   0  0  0  0  0  0  0  0  0  0  0  0
   44.6944   33.5289   40.5675 C   0  0  0  0  0  0  0  0  0  0  0  0
   46.8130   31.3239   38.2325 H   0  0  0  0  0  0  0  0  0  0  0  0
   42.2701   32.0080   38.9012 H   0  0  0  0  0  0  0  0  0  0  0  0
   44.5764   35.0037   42.1479 H   0  0  0  0  0  0  0  0  0  0  0  0
  1  6  2  0
  2  1  1  0
  3  2  2  0
  3  4  1  0
  4  5  2  0
  5  6  1  0
  7  3  1  0
  1  8  1  0
  2  9  1  0
  5 10  1  0
 11 12  2  0
 12 13  1  0
 13 14  2  0
 14 15  1  0
 15 16  2  0
 16 17  1  0
 17 18  1  0
 17 19  2  0
 19 20  1  0
 19 21  1  0
 21 22  2  0
 22 11  1  0
 22 15  1  0
 13 23  1  0
 16 24  1  0
 21 25  1  0
  7 11  1  0
M  ISO  5   8  14   9  14  10  14  18  16  20  16
M  END
>  <DihAtoms>  (1) 
2,6,10,11

>  <DihDeg>  (1) 
-89.61400676986321

$$$$
