
 OpenBabel03242515143D

 37 40  0  0  0  0  0  0  0  0999 V2000
   45.4740   30.8520   47.1630 C   0  0  0  0  0  0  0  0  0  0  0  0
   45.6000   30.1170   46.0180 C   0  0  0  0  0  0  0  0  0  0  0  0
   45.4240   28.8020   46.3420 C   0  0  0  0  0  0  0  0  0  0  0  0
   45.1960   28.7390   47.6560 N   0  0  0  0  0  0  0  0  0  0  0  0
   45.2300   29.9890   48.1420 N   0  0  0  0  0  0  0  0  0  0  0  0
   45.8040   30.5560   45.0530 H   0  0  0  0  0  0  0  0  0  0  0  0
   45.4740   28.0100   45.6140 H   0  0  0  0  0  0  0  0  0  0  0  0
   44.9720   27.4870   48.2960 C   0  0  0  0  0  0  0  0  0  0  0  0
   44.3190   27.3990   49.4720 N   0  0  0  0  0  0  0  0  0  0  0  0
   44.0890   26.2320   50.1080 C   0  0  0  0  0  0  0  0  0  0  0  0
   44.4990   25.0540   49.6050 N   0  0  0  0  0  0  0  0  0  0  0  0
   45.1630   25.0710   48.4220 C   0  0  0  0  0  0  0  0  0  0  0  0
   45.6230   23.9050   47.8270 C   0  0  0  0  0  0  0  0  0  0  0  0
   46.3010   23.9030   46.6220 C   0  0  0  0  0  0  0  0  0  0  0  0
   46.6520   22.9720   46.1760 H   0  0  0  0  0  0  0  0  0  0  0  0
   46.5200   25.1140   45.9990 C   0  0  0  0  0  0  0  0  0  0  0  0
   47.0540   25.1290   45.0470 H   0  0  0  0  0  0  0  0  0  0  0  0
   46.0830   26.3120   46.5450 C   0  0  0  0  0  0  0  0  0  0  0  0
   45.4040   26.2790   47.7600 C   0  0  0  0  0  0  0  0  0  0  0  0
   45.5730   32.3090   47.3830 C   0  0  0  0  0  0  0  0  0  0  0  0
   44.5640   32.7840   47.2590 H   0  0  0  0  0  0  0  0  0  0  0  0
   45.9380   32.5450   48.4050 H   0  0  0  0  0  0  0  0  0  0  0  0
   46.5900   32.9110   46.4510 C   0  0  0  0  0  0  0  0  0  0  0  0
   47.0460   32.0740   45.8810 H   0  0  0  0  0  0  0  0  0  0  0  0
   47.4160   33.4270   46.9740 H   0  0  0  0  0  0  0  0  0  0  0  0
   44.5400   35.5780   44.7730 C   0  0  0  0  0  0  0  0  0  0  0  0
   45.1490   35.5710   43.4920 C   0  0  0  0  0  0  0  0  0  0  0  0
   46.1970   34.6800   43.2850 C   0  0  0  0  0  0  0  0  0  0  0  0
   46.5540   33.8860   44.3200 N   0  0  0  0  0  0  0  0  0  0  0  0
   45.9570   33.9140   45.5270 C   0  0  0  0  0  0  0  0  0  0  0  0
   44.9510   34.7630   45.7410 N   0  0  0  0  0  0  0  0  0  0  0  0
   43.7230   36.2490   44.9900 H   0  0  0  0  0  0  0  0  0  0  0  0
   44.7200   36.2820   42.7950 H   0  0  0  0  0  0  0  0  0  0  0  0
   46.7980   34.6990   41.9610 C   0  0  0  0  0  0  0  0  0  0  0  0
   47.5970   33.5600   41.8070 F   0  0  0  0  0  0  0  0  0  0  0  0
   47.6910   35.7580   41.9520 F   0  0  0  0  0  0  0  0  0  0  0  0
   45.8810   34.7450   40.9490 F   0  0  0  0  0  0  0  0  0  0  0  0
  1 20  1  0  0  0  0
  1  5  2  0  0  0  0
  2  3  2  0  0  0  0
  2  1  1  0  0  0  0
  3  4  1  0  0  0  0
  4  5  1  0  0  0  0
  4  8  1  0  0  0  0
  6  2  1  0  0  0  0
  7  3  1  0  0  0  0
  8  9  1  0  0  0  0
  9 10  2  0  0  0  0
 11 10  1  0  0  0  0
 12 11  2  0  0  0  0
 13 12  1  0  0  0  0
 14 13  2  0  0  0  0
 15 14  1  0  0  0  0
 16 18  2  0  0  0  0
 16 14  1  0  0  0  0
 17 16  1  0  0  0  0
 18 19  1  0  0  0  0
 19  8  2  0  0  0  0
 19 12  1  0  0  0  0
 20 22  1  0  0  0  0
 21 20  1  0  0  0  0
 23 25  1  0  0  0  0
 23 20  1  0  0  0  0
 24 23  1  0  0  0  0
 26 32  1  0  0  0  0
 26 31  1  0  0  0  0
 27 26  2  0  0  0  0
 28 27  1  0  0  0  0
 28 29  2  0  0  0  0
 29 30  1  0  0  0  0
 30 31  2  0  0  0  0
 30 23  1  0  0  0  0
 33 27  1  0  0  0  0
 34 28  1  0  0  0  0
 35 34  1  0  0  0  0
 36 34  1  0  0  0  0
 37 34  1  0  0  0  0
M  END
>  <minimizedAffinity>
-5.66358471

>  <minimizedRMSD>
1.94467568

$$$$
