REMARK  Name = 
REMARK  3 active torsions:
REMARK  status: ('A' for Active; 'I' for Inactive)
REMARK    1  A    between atoms: C_2  and  C_13
REMARK    2  A    between atoms: C_5  and  C_7
REMARK    3  A    between atoms: C_13  and  C_20
REMARK                            x       y       z     vdW  Elec       q    Type
REMARK                         _______ _______ _______ _____ _____    ______ ____
ROOT
ATOM      1  C   UNL     1      44.565  35.423  45.142  0.00  0.00    +0.000 A 
ATOM      2  C   UNL     1      45.250  35.267  43.916  0.00  0.00    +0.000 A 
ATOM      3  C   UNL     1      46.197  34.243  43.775  0.00  0.00    +0.000 A 
ATOM      4  N   UNL     1      46.410  33.434  44.861  0.00  0.00    +0.000 NA
ATOM      5  C   UNL     1      45.742  33.609  46.018  0.00  0.00    +0.000 A 
ATOM      6  N   UNL     1      44.835  34.587  46.154  0.00  0.00    +0.000 NA
ATOM      7  H   UNL     1      43.830  36.187  45.307  0.00  0.00    +0.000 HD
ATOM      8  H   UNL     1      46.718  34.124  42.838  0.00  0.00    +0.000 HD
ENDROOT
BRANCH   5   9
ATOM      9  C   UNL     1      46.015  32.723  47.144  0.00  0.00    +0.000 A 
ATOM     10  C   UNL     1      47.260  32.272  47.450  0.00  0.00    +0.000 A 
ATOM     11  C   UNL     1      47.565  31.442  48.493  0.00  0.00    +0.000 A 
ATOM     12  N   UNL     1      46.521  31.067  49.253  0.00  0.00    +0.000 NA
ATOM     13  C   UNL     1      45.289  31.508  48.958  0.00  0.00    +0.000 A 
ATOM     14  N   UNL     1      44.972  32.331  47.928  0.00  0.00    +0.000 NA
ATOM     15  H   UNL     1      48.083  32.611  46.792  0.00  0.00    +0.000 HD
ATOM     16  H   UNL     1      48.575  31.124  48.676  0.00  0.00    +0.000 HD
ATOM     17  H   UNL     1      44.436  31.195  49.589  0.00  0.00    +0.000 HD
ENDBRANCH   5   9
BRANCH   2  18
ATOM     18  C   UNL     1      44.949  36.213  42.867  0.00  0.00    +0.000 C 
ATOM     19  O   UNL     1      44.138  35.781  41.973  0.00  0.00    +0.000 OA
BRANCH  18  20
ATOM     20  C   UNL     1      45.311  37.575  42.512  0.00  0.00    +0.000 A 
ATOM     21  N   UNL     1      45.150  37.925  41.225  0.00  0.00    +0.000 NA
ATOM     22  C   UNL     1      45.461  39.188  40.785  0.00  0.00    +0.000 A 
ATOM     23  N   UNL     1      45.937  40.135  41.603  0.00  0.00    +0.000 NA
ATOM     24  C   UNL     1      46.122  39.851  42.900  0.00  0.00    +0.000 A 
ATOM     25  C   UNL     1      46.615  40.784  43.787  0.00  0.00    +0.000 A 
ATOM     26  C   UNL     1      46.814  40.486  45.137  0.00  0.00    +0.000 A 
ATOM     27  H   UNL     1      47.203  41.276  45.761  0.00  0.00    +0.000 HD
ATOM     28  C   UNL     1      46.488  39.200  45.536  0.00  0.00    +0.000 A 
ATOM     29  H   UNL     1      46.660  39.015  46.594  0.00  0.00    +0.000 HD
ATOM     30  C   UNL     1      46.001  38.305  44.620  0.00  0.00    +0.000 A 
ATOM     31  C   UNL     1      45.801  38.580  43.304  0.00  0.00    +0.000 A 
ENDBRANCH  18  20
ENDBRANCH   2  18
TORSDOF 3
