
 OpenBabel03252506123D

 39 42  0  0  0  0  0  0  0  0999 V2000
   45.1070   33.4360   41.2190 F   0  0  0  0  0  0  0  0  0  0  0  0
   46.2990   34.0270   41.0790 C   0  0  0  0  0  0  0  0  0  0  0  0
   46.7910   34.7900   42.1170 C   0  0  0  0  0  0  0  0  0  0  0  0
   48.0280   35.4390   42.0540 C   0  0  0  0  0  0  0  0  0  0  0  0
   48.8060   35.3180   40.9010 C   0  0  0  0  0  0  0  0  0  0  0  0
   48.2670   34.5400   39.8880 C   0  0  0  0  0  0  0  0  0  0  0  0
   47.0670   33.9020   39.9330 C   0  0  0  0  0  0  0  0  0  0  0  0
   48.3530   36.0300   42.9180 H   0  0  0  0  0  0  0  0  0  0  0  0
   49.7320   35.8350   40.9190 H   0  0  0  0  0  0  0  0  0  0  0  0
   48.9760   34.5290   39.0650 H   0  0  0  0  0  0  0  0  0  0  0  0
   45.4590   34.1520   45.4740 C   0  0  0  0  0  0  0  0  0  0  0  0
   44.5790   35.2440   45.6470 C   0  0  0  0  0  0  0  0  0  0  0  0
   44.4490   36.2000   44.6040 C   0  0  0  0  0  0  0  0  0  0  0  0
   45.1990   35.9890   43.4820 N   0  0  0  0  0  0  0  0  0  0  0  0
   46.0200   34.9460   43.3510 C   0  0  0  0  0  0  0  0  0  0  0  0
   46.1450   34.0410   44.3370 N   0  0  0  0  0  0  0  0  0  0  0  0
   44.0120   35.3600   46.5560 H   0  0  0  0  0  0  0  0  0  0  0  0
   43.7830   37.0460   44.7110 H   0  0  0  0  0  0  0  0  0  0  0  0
   45.5710   33.2180   46.5240 N   0  0  0  0  0  0  0  0  0  0  0  0
   45.0540   32.3590   46.2260 H   0  0  0  0  0  0  0  0  0  0  0  0
   46.0380   33.2460   47.4510 H   0  0  0  0  0  0  0  0  0  0  0  0
   46.6430   33.1650   38.8680 O   0  0  0  0  0  0  0  0  0  0  0  0
   47.8640   34.6460   37.0470 O   0  0  0  0  0  0  0  0  0  0  0  0
   46.9630   33.4610   37.2390 P   0  0  2  0  0  0  0  0  0  0  0  0
   45.4670   33.7140   36.4440 O   0  0  0  0  0  0  0  0  0  0  0  0
   45.6230   34.0120   35.4950 H   0  0  0  0  0  0  0  0  0  0  0  0
   47.6430   32.1260   36.4580 O   0  0  0  0  0  0  0  0  0  0  0  0
   47.1260   31.4430   35.3920 C   0  0  0  0  0  0  0  0  0  0  0  0
   46.0240   30.6790   35.3120 N   0  0  0  0  0  0  0  0  0  0  0  0
   45.6480   30.0690   34.1810 C   0  0  0  0  0  3  0  0  0  0  0  0
   46.3800   30.1990   33.0410 N   0  0  0  0  0  0  0  0  0  0  0  0
   47.4950   30.9500   33.0520 C   0  0  0  0  0  0  0  0  0  0  0  0
   48.1930   31.0410   31.8640 C   0  0  0  0  0  3  0  0  0  0  0  0
   49.3430   31.8020   31.8330 C   0  0  0  0  0  0  0  0  0  0  0  0
   49.9740   31.9510   30.9690 H   0  0  0  0  0  0  0  0  0  0  0  0
   49.7610   32.4460   32.9840 C   0  0  0  0  0  0  0  0  0  0  0  0
   50.6640   33.0600   33.0140 H   0  0  0  0  0  0  0  0  0  0  0  0
   49.0280   32.3220   34.1430 C   0  0  0  0  0  3  0  0  0  0  0  0
   47.8590   31.5610   34.2170 C   0  0  0  0  0  0  0  0  0  0  0  0
  2  1  1  0  0  0  0
  2  3  1  0  0  0  0
  3 15  1  0  0  0  0
  4  3  2  0  0  0  0
  4  8  1  0  0  0  0
  5  9  1  0  0  0  0
  5  4  1  0  0  0  0
  6  7  1  0  0  0  0
  6  5  2  0  0  0  0
  7  2  2  0  0  0  0
 10  6  1  0  0  0  0
 11 12  1  0  0  0  0
 11 19  1  0  0  0  0
 12 17  1  0  0  0  0
 13 18  1  0  0  0  0
 13 12  2  0  0  0  0
 14 13  1  0  0  0  0
 15 14  2  0  0  0  0
 15 16  1  0  0  0  0
 16 11  2  0  0  0  0
 19 21  1  0  0  0  0
 20 19  1  0  0  0  0
 22  7  1  0  0  0  0
 24 23  2  6  0  0  0
 24 22  1  0  0  0  0
 25 24  1  0  0  0  0
 26 25  1  0  0  0  0
 27 24  1  0  0  0  0
 28 27  1  0  0  0  0
 29 28  1  0  0  0  0
 30 29  2  0  0  0  0
 31 32  2  0  0  0  0
 31 30  1  0  0  0  0
 32 39  1  0  0  0  0
 33 32  1  0  0  0  0
 34 33  2  0  0  0  0
 34 36  1  0  0  0  0
 35 34  1  0  0  0  0
 36 37  1  0  0  0  0
 36 38  2  0  0  0  0
 38 39  1  0  0  0  0
 39 28  2  0  0  0  0
M  END
>  <minimizedAffinity>
-7.34406996

>  <minimizedRMSD>
1.20638871

$$$$
