REMARK  Name = 
REMARK  6 active torsions:
REMARK  status: ('A' for Active; 'I' for Inactive)
REMARK    1  A    between atoms: N_1  and  C_8
REMARK    2  A    between atoms: C_3  and  N_12
REMARK    3  A    between atoms: N_12  and  C_14
REMARK    4  A    between atoms: C_13  and  C_23
REMARK    5  A    between atoms: C_18  and  N_21
REMARK    6  A    between atoms: C_19  and  C_39
REMARK                            x       y       z     vdW  Elec       q    Type
REMARK                         _______ _______ _______ _____ _____    ______ ____
ROOT
ATOM      1  C   UNL     1      48.825  32.269  37.043  0.00  0.00    +0.000 A 
ATOM      2  C   UNL     1      48.087  33.014  37.991  0.00  0.00    +0.000 A 
ATOM      3  C   UNL     1      46.783  33.248  37.603  0.00  0.00    +0.000 A 
ATOM      4  C   UNL     1      46.189  32.838  36.444  0.00  0.00    +0.000 A 
ATOM      5  C   UNL     1      46.948  32.112  35.547  0.00  0.00    +0.000 A 
ATOM      6  C   UNL     1      48.245  31.850  35.875  0.00  0.00    +0.000 A 
ATOM      7  H   UNL     1      46.119  33.820  38.268  0.00  0.00    +0.000 HD
ATOM      8  H   UNL     1      45.163  33.055  36.203  0.00  0.00    +0.000 HD
ATOM      9  H   UNL     1      46.476  31.788  34.631  0.00  0.00    +0.000 HD
ENDROOT
BRANCH   6  12
ATOM     10  C   UNL     1      49.518  31.727  33.757  0.00  0.00    +0.000 C 
ATOM     11  O   UNL     1      49.262  32.946  33.579  0.00  0.00    +0.000 OA
ATOM     12  N   UNL     1      49.000  31.110  34.912  0.00  0.00    +0.000 N 
ATOM     13  H   UNL     1      49.089  30.118  35.194  0.00  0.00    +0.000 HD
BRANCH  10  14
ATOM     14  C   UNL     1      50.291  30.740  32.970  0.00  0.00    +0.000 A 
ATOM     15  N   UNL     1      50.446  30.743  31.625  0.00  0.00    +0.000 NA
ATOM     16  C   UNL     1      51.134  29.865  30.930  0.00  0.00    +0.000 A 
ATOM     17  N   UNL     1      51.761  28.859  31.517  0.00  0.00    +0.000 NA
ATOM     18  C   UNL     1      51.688  28.736  32.870  0.00  0.00    +0.000 A 
ATOM     19  C   UNL     1      52.341  27.688  33.477  0.00  0.00    +0.000 A 
ATOM     20  C   UNL     1      52.290  27.532  34.842  0.00  0.00    +0.000 A 
ATOM     21  H   UNL     1      52.840  26.675  35.203  0.00  0.00    +0.000 HD
ATOM     22  C   UNL     1      51.563  28.459  35.578  0.00  0.00    +0.000 A 
ATOM     23  H   UNL     1      51.548  28.304  36.630  0.00  0.00    +0.000 HD
ATOM     24  C   UNL     1      50.938  29.478  34.905  0.00  0.00    +0.000 A 
ATOM     25  C   UNL     1      50.954  29.684  33.545  0.00  0.00    +0.000 A 
ENDBRANCH  10  14
ENDBRANCH   6  12
BRANCH   2  26
ATOM     26  N   UNL     1      48.616  33.480  39.209  0.00  0.00    +0.000 N 
ATOM     27  H   UNL     1      49.546  33.911  39.001  0.00  0.00    +0.000 HD
BRANCH  26  30
ATOM     28  N   UNL     1      47.510  34.490  42.434  0.00  0.00    +0.000 N 
ATOM     29  C   UNL     1      47.503  34.749  40.992  0.00  0.00    +0.000 C 
ATOM     30  C   UNL     1      48.116  33.449  40.541  0.00  0.00    +0.000 C 
ATOM     31  C   UNL     1      49.320  33.339  41.468  0.00  0.00    +0.000 C 
ATOM     32  C   UNL     1      48.794  33.920  42.749  0.00  0.00    +0.000 C 
ATOM     33  H   UNL     1      46.498  34.939  40.612  0.00  0.00    +0.000 HD
ATOM     34  H   UNL     1      48.239  35.555  40.789  0.00  0.00    +0.000 HD
ATOM     35  H   UNL     1      47.386  32.642  40.735  0.00  0.00    +0.000 HD
ATOM     36  H   UNL     1      49.649  32.289  41.559  0.00  0.00    +0.000 HD
ATOM     37  H   UNL     1      50.123  33.980  41.008  0.00  0.00    +0.000 HD
ATOM     38  H   UNL     1      48.600  33.062  43.447  0.00  0.00    +0.000 HD
ATOM     39  H   UNL     1      49.504  34.630  43.214  0.00  0.00    +0.000 HD
BRANCH  28  42
ATOM     40  C   UNL     1      44.613  35.851  44.332  0.00  0.00    +0.000 A 
ATOM     41  C   UNL     1      45.546  35.729  43.311  0.00  0.00    +0.000 A 
ATOM     42  C   UNL     1      46.516  34.717  43.397  0.00  0.00    +0.000 A 
ATOM     43  N   UNL     1      46.482  33.903  44.497  0.00  0.00    +0.000 NA
ATOM     44  C   UNL     1      45.573  34.030  45.481  0.00  0.00    +0.000 A 
ATOM     45  N   UNL     1      44.645  35.004  45.392  0.00  0.00    +0.000 NA
ATOM     46  H   UNL     1      43.896  36.649  44.204  0.00  0.00    +0.000 HD
ATOM     47  H   UNL     1      45.624  36.326  42.438  0.00  0.00    +0.000 HD
ATOM     48  H   UNL     1      45.618  33.344  46.313  0.00  0.00    +0.000 HD
ENDBRANCH  28  42
ENDBRANCH  26  30
ENDBRANCH   2  26
BRANCH   1  50
ATOM     49  N   UNL     1      51.300  31.736  37.623  0.00  0.00    +0.000 NA
ATOM     50  C   UNL     1      50.205  31.979  37.375  0.00  0.00    +0.000 C 
ENDBRANCH   1  50
TORSDOF 6
