REMARK  Name = 
REMARK  2 active torsions:
REMARK  status: ('A' for Active; 'I' for Inactive)
REMARK    1  A    between atoms: C_3  and  S_7
REMARK    2  A    between atoms: S_7  and  C_11
REMARK                            x       y       z     vdW  Elec       q    Type
REMARK                         _______ _______ _______ _____ _____    ______ ____
ROOT
ATOM      1  C   UNL     1      46.079  33.555  40.616  0.00  0.00    +0.000 A 
ATOM      2  N   UNL     1      45.780  34.147  39.424  0.00  0.00    +0.000 NA
ATOM      3  C   UNL     1      45.040  33.510  38.488  0.00  0.00    +0.000 A 
ATOM      4  N   UNL     1      44.618  32.278  38.788  0.00  0.00    +0.000 NA
ATOM      5  C   UNL     1      44.867  31.633  39.929  0.00  0.00    +0.000 A 
ATOM      6  C   UNL     1      44.417  30.359  40.210  0.00  0.00    +0.000 A 
ATOM      7  C   UNL     1      44.733  29.780  41.428  0.00  0.00    +0.000 A 
ATOM      8  H   UNL     1      44.365  28.778  41.620  0.00  0.00    +0.000 HD
ATOM      9  C   UNL     1      45.492  30.469  42.352  0.00  0.00    +0.000 A 
ATOM     10  H   UNL     1      45.722  29.983  43.300  0.00  0.00    +0.000 HD
ATOM     11  C   UNL     1      45.971  31.757  42.117  0.00  0.00    +0.000 A 
ATOM     12  C   UNL     1      45.620  32.276  40.885  0.00  0.00    +0.000 A 
ENDROOT
BRANCH   1  13
ATOM     13  S   UNL     1      47.067  34.563  41.712  0.00  0.00    +0.000 S 
BRANCH  13  16
ATOM     14  C   UNL     1      44.544  36.027  44.525  0.00  0.00    +0.000 A 
ATOM     15  C   UNL     1      45.261  35.893  43.319  0.00  0.00    +0.000 A 
ATOM     16  C   UNL     1      46.129  34.796  43.210  0.00  0.00    +0.000 A 
ATOM     17  N   UNL     1      46.228  33.941  44.251  0.00  0.00    +0.000 NA
ATOM     18  C   UNL     1      45.528  34.095  45.396  0.00  0.00    +0.000 A 
ATOM     19  N   UNL     1      44.694  35.138  45.517  0.00  0.00    +0.000 NA
ATOM     20  H   UNL     1      43.893  36.876  44.569  0.00  0.00    +0.000 HD
ATOM     21  H   UNL     1      45.136  36.607  42.531  0.00  0.00    +0.000 HD
ATOM     22  H   UNL     1      45.594  33.421  46.240  0.00  0.00    +0.000 HD
ENDBRANCH  13  16
ENDBRANCH   1  13
TORSDOF 2
