
 OpenBabel03252506383D

 47 51  0  0  1  0  0  0  0  0999 V2000
   46.6520   30.0180   46.5450 S   0  0  0  0  0  0  0  0  0  0  0  0
   45.5140   30.5450   43.4510 O   0  0  0  0  0  0  0  0  0  0  0  0
   44.9220   29.9880   44.3880 C   0  0  0  0  0  0  0  0  0  0  0  0
   45.0800   29.7420   45.8440 C   0  0  1  0  0  0  0  0  0  0  0  0
   44.5550   28.3340   45.9820 C   0  0  0  0  0  0  0  0  0  0  0  0
   43.2110   28.5510   45.2830 C   0  0  0  0  0  0  0  0  0  0  0  0
   43.6710   29.3270   44.1380 N   0  0  0  0  0  0  0  0  0  0  0  0
   44.2070   30.3440   46.2210 H   0  0  0  0  0  0  0  0  0  0  0  0
   44.3410   28.0450   47.0240 H   0  0  0  0  0  0  0  0  0  0  0  0
   45.1770   27.6130   45.4470 H   0  0  0  0  0  0  0  0  0  0  0  0
   42.5930   29.2080   45.9280 H   0  0  0  0  0  0  0  0  0  0  0  0
   42.7320   27.6050   45.0090 H   0  0  0  0  0  0  0  0  0  0  0  0
   42.8440   29.3250   42.9570 C   0  0  0  0  0  0  0  0  0  0  0  0
   42.1130   30.4300   42.6900 N   0  0  0  0  0  0  0  0  0  0  0  0
   41.3030   30.5120   41.5950 C   0  0  0  0  0  3  0  0  0  0  0  0
   41.2030   29.4920   40.7390 N   0  0  0  0  0  0  0  0  0  0  0  0
   41.9190   28.3750   40.9780 C   0  0  0  0  0  0  0  0  0  0  0  0
   41.8400   27.3010   40.1160 C   0  0  0  0  0  3  0  0  0  0  0  0
   42.5660   26.1370   40.3380 C   0  0  0  0  0  0  0  0  0  0  0  0
   42.4930   25.3040   39.6510 H   0  0  0  0  0  0  0  0  0  0  0  0
   43.3810   26.0890   41.4650 C   0  0  0  0  0  0  0  0  0  0  0  0
   43.9300   25.1670   41.6020 H   0  0  0  0  0  0  0  0  0  0  0  0
   43.4970   27.1440   42.3650 C   0  0  0  0  0  3  0  0  0  0  0  0
   42.7470   28.2630   42.0770 C   0  0  0  0  0  0  0  0  0  0  0  0
   44.5200   35.5050   45.1500 C   0  0  0  0  0  0  0  0  0  0  0  0
   45.1760   35.4970   43.8940 C   0  0  0  0  0  0  0  0  0  0  0  0
   46.0940   34.5330   43.6320 C   0  0  0  0  0  0  0  0  0  0  0  0
   46.3300   33.6240   44.6090 N   0  0  0  0  0  0  0  0  0  0  0  0
   45.7140   33.6360   45.7820 C   0  0  0  0  0  0  0  0  0  0  0  0
   44.8060   34.5700   46.0680 N   0  0  0  0  0  0  0  0  0  0  0  0
   46.0480   32.6220   46.7450 N   0  0  0  0  0  0  0  0  0  0  0  0
   45.3180   32.3700   47.9320 C   0  0  0  0  0  0  0  0  0  0  0  0
   46.3980   32.0250   48.9400 C   0  0  0  0  0  0  0  0  0  0  0  0
   47.6750   31.9150   48.1610 C   0  0  0  0  0  0  0  0  0  0  0  0
   47.1670   31.7100   46.7370 C   0  0  1  0  0  0  0  0  0  0  0  0
   43.7880   36.2750   45.3550 H   0  0  0  0  0  0  0  0  0  0  0  0
   46.5920   34.5180   42.6950 H   0  0  0  0  0  0  0  0  0  0  0  0
   44.9300   33.3740   48.2890 H   0  0  0  0  0  0  0  0  0  0  0  0
   44.5300   31.6980   48.0380 H   0  0  0  0  0  0  0  0  0  0  0  0
   46.1910   31.0220   49.4070 H   0  0  0  0  0  0  0  0  0  0  0  0
   46.4850   32.7300   49.7650 H   0  0  0  0  0  0  0  0  0  0  0  0
   48.2560   31.0440   48.5000 H   0  0  0  0  0  0  0  0  0  0  0  0
   48.2840   32.8380   48.2190 H   0  0  0  0  0  0  0  0  0  0  0  0
   47.9580   31.9950   46.0400 H   0  0  0  0  0  0  0  0  0  0  0  0
   44.8150   36.5320   42.9640 N   0  0  0  0  0  0  0  0  0  0  0  0
   45.5440   36.8920   42.2880 H   0  0  0  0  0  0  0  0  0  0  0  0
   43.8440   36.8880   42.9940 H   0  0  0  0  0  0  0  0  0  0  0  0
  1 35  1  0  0  0  0
  2  3  2  0  0  0  0
  3  4  1  0  0  0  0
  4  5  1  0  0  0  0
  4  8  1  1  0  0  0
  4  1  1  0  0  0  0
  5  9  1  0  0  0  0
  6 11  1  0  0  0  0
  6  5  1  0  0  0  0
  7  3  1  0  0  0  0
  7  6  1  0  0  0  0
 10  5  1  0  0  0  0
 12  6  1  0  0  0  0
 13  7  1  0  0  0  0
 14 13  1  0  0  0  0
 15 14  2  0  0  0  0
 16 17  2  0  0  0  0
 16 15  1  0  0  0  0
 17 24  1  0  0  0  0
 18 19  2  0  0  0  0
 18 17  1  0  0  0  0
 19 21  1  0  0  0  0
 20 19  1  0  0  0  0
 21 22  1  0  0  0  0
 21 23  2  0  0  0  0
 24 23  1  0  0  0  0
 24 13  2  0  0  0  0
 25 36  1  0  0  0  0
 25 30  1  0  0  0  0
 26 25  2  0  0  0  0
 27 26  1  0  0  0  0
 27 28  2  0  0  0  0
 28 29  1  0  0  0  0
 29 30  2  0  0  0  0
 29 31  1  0  0  0  0
 31 32  1  0  0  0  0
 32 39  1  0  0  0  0
 32 38  1  0  0  0  0
 32 33  1  0  0  0  0
 33 40  1  0  0  0  0
 33 41  1  0  0  0  0
 34 43  1  0  0  0  0
 34 42  1  0  0  0  0
 34 33  1  0  0  0  0
 35 44  1  6  0  0  0
 35 31  1  0  0  0  0
 35 34  1  0  0  0  0
 37 27  1  0  0  0  0
 45 47  1  0  0  0  0
 45 26  1  0  0  0  0
 46 45  1  0  0  0  0
M  END
>  <minimizedAffinity>
-5.65903902

>  <minimizedRMSD>
0.132846743

$$$$
