
     RDKit          3D

 38 41  0  0  0  0  0  0  0  0999 V2000
   47.1650   34.2508   42.3858 N   0  0  0  0  0  0  0  0  0  0  0  0
   48.0049   35.0528   41.5306 C   0  0  0  0  0  0  0  0  0  0  0  0
   47.6922   34.3864   40.2251 C   0  0  2  0  0  0  0  0  0  0  0  0
   47.8970   32.9355   40.5629 C   0  0  0  0  0  0  0  0  0  0  0  0
   47.3869   32.8692   41.9906 C   0  0  0  0  0  0  0  0  0  0  0  0
   44.5915   35.9414   44.4717 C   0  0  0  0  0  0  0  0  0  0  0  0
   45.4136   35.6977   43.3775 C   0  0  0  0  0  0  0  0  0  0  0  0
   46.2800   34.6158   43.4154 C   0  0  0  0  0  0  0  0  0  0  0  0
   46.2721   33.8353   44.5562 N   0  0  0  0  0  0  0  0  0  0  0  0
   45.4691   34.0854   45.6075 C   0  0  0  0  0  0  0  0  0  0  0  0
   44.6208   35.1501   45.5627 N   0  0  0  0  0  0  0  0  0  0  0  0
   48.6578   34.7206   39.1939 N   0  0  0  0  0  0  0  0  0  0  0  0
   47.7696   36.1283   41.5711 H   0  0  0  0  0  0  0  0  0  0  0  0
   49.0508   34.8140   41.7902 H   0  0  0  0  0  0  0  0  0  0  0  0
   46.6517   34.5623   39.8840 H   0  0  0  0  0  0  0  0  0  0  0  0
   48.9235   32.5727   40.4363 H   0  0  0  0  0  0  0  0  0  0  0  0
   47.1550   32.3558   39.9578 H   0  0  0  0  0  0  0  0  0  0  0  0
   48.2466   32.5169   42.6129 H   0  0  0  0  0  0  0  0  0  0  0  0
   46.4970   32.2349   42.1116 H   0  0  0  0  0  0  0  0  0  0  0  0
   43.9338   36.7946   44.3970 H   0  0  0  0  0  0  0  0  0  0  0  0
   45.4241   36.3027   42.4857 H   0  0  0  0  0  0  0  0  0  0  0  0
   45.5512   33.4019   46.4500 H   0  0  0  0  0  0  0  0  0  0  0  0
   49.4145   35.3533   39.4745 H   0  0  0  0  0  0  0  0  0  0  0  0
   48.4329   34.1298   37.9273 C   0  0  0  0  0  0  0  0  0  0  0  0
   49.4457   33.5801   37.2514 N   0  0  0  0  0  0  0  0  0  0  0  0
   49.2428   33.0148   36.0444 C   0  0  0  0  0  0  0  0  0  0  0  0
   48.0410   32.9548   35.4306 N   0  0  0  0  0  0  0  0  0  0  0  0
   46.9973   33.5026   36.0898 C   0  0  0  0  0  0  0  0  0  0  0  0
   45.7675   33.4458   35.4708 C   0  0  0  0  0  0  0  0  0  0  0  0
   44.7035   34.0062   36.1469 C   0  0  0  0  0  0  0  0  0  0  0  0
   43.7148   33.9888   35.7055 H   0  0  0  0  0  0  0  0  0  0  0  0
   44.8321   34.6069   37.3936 C   0  0  0  0  0  0  0  0  0  0  0  0
   43.9950   35.0341   37.8985 H   0  0  0  0  0  0  0  0  0  0  0  0
   46.1042   34.6163   37.9358 C   0  0  0  0  0  0  0  0  0  0  0  0
   47.1945   34.0829   37.3245 C   0  0  0  0  0  0  0  0  0  0  0  0
   50.1065   32.5823   35.5401 H   0  0  0  0  0  0  0  0  0  0  0  0
   45.6425   32.9799   34.4934 H   0  0  0  0  0  0  0  0  0  0  0  0
   46.1850   35.0855   38.9018 H   0  0  0  0  0  0  0  0  0  0  0  0
  1  8  1  0
  2  1  1  0
  3  4  1  0
  3  2  1  0
  4  5  1  0
  5  1  1  0
  6 11  2  0
  7  8  2  0
  7  6  1  0
  8  9  1  0
  9 10  2  0
 11 10  1  0
 12  3  1  0
  2 13  1  0
  2 14  1  0
  3 15  1  6
  4 16  1  0
  4 17  1  0
  5 18  1  0
  5 19  1  0
  6 20  1  0
  7 21  1  0
 10 22  1  0
 12 23  1  0
 24 25  2  0
 25 26  1  0
 26 27  2  0
 27 28  1  0
 28 29  2  0
 29 30  1  0
 30 31  1  0
 30 32  2  0
 32 33  1  0
 32 34  1  0
 34 35  2  0
 35 24  1  0
 35 28  1  0
 26 36  1  0
 29 37  1  0
 34 38  1  0
 12 24  1  0
M  ISO  8  13  13  14  13  15  13  16  13  17  13  18  13  19  13  20  14
M  ISO  5  21  14  22  14  23   5  31  16  33  16
M  END
>  <DihAtoms>  (1) 
2,11,23,24

>  <DihDeg>  (1) 
0.0007446893597043805

$$$$
