
     RDKit          3D

 35 38  0  0  0  0  0  0  0  0999 V2000
   46.2796   34.7520   43.2386 C   0  0  0  0  0  0  0  0  0  0  0  0
   45.3061   35.7503   43.5950 C   0  0  0  0  0  0  0  0  0  0  0  0
   44.6597   35.5763   44.8167 C   0  0  0  0  0  0  0  0  0  0  0  0
   44.9778   34.5034   45.5798 N   0  0  0  0  0  0  0  0  0  0  0  0
   45.9182   33.5847   45.1824 C   0  0  0  0  0  0  0  0  0  0  0  0
   46.5759   33.6816   44.0342 N   0  0  0  0  0  0  0  0  0  0  0  0
   46.2156   32.4319   46.0808 C   0  0  1  0  0  0  0  0  0  0  0  0
   47.0342   32.6787   47.3274 C   0  0  0  0  0  0  0  0  0  0  0  0
   45.5443   32.4886   47.3947 C   0  0  1  0  0  0  0  0  0  0  0  0
   44.8437   33.7149   47.7935 N   0  0  0  0  0  0  0  0  0  0  0  0
   46.9168   34.9262   41.9601 C   0  0  0  0  0  0  0  0  0  0  0  0
   48.0632   35.5315   41.8648 O   0  0  0  0  0  0  0  0  0  0  0  0
   45.1273   36.5553   42.9288 H   0  0  0  0  0  0  0  0  0  0  0  0
   43.9275   36.3037   45.1118 H   0  0  0  0  0  0  0  0  0  0  0  0
   46.3404   31.4479   45.5894 H   0  0  0  0  0  0  0  0  0  0  0  0
   47.7009   31.8444   47.6254 H   0  0  0  0  0  0  0  0  0  0  0  0
   47.4765   33.7037   47.3544 H   0  0  0  0  0  0  0  0  0  0  0  0
   45.2423   31.5446   47.9121 H   0  0  0  0  0  0  0  0  0  0  0  0
   45.4905   34.3955   48.2652 H   0  0  0  0  0  0  0  0  0  0  0  0
   44.1418   33.4497   48.5334 H   0  0  0  0  0  0  0  0  0  0  0  0
   46.6109   34.5796   40.5753 C   0  0  0  0  0  0  0  0  0  0  0  0
   45.3879   34.1050   40.2946 N   0  0  0  0  0  0  0  0  0  0  0  0
   45.0045   33.7508   39.0282 C   0  0  0  0  0  0  0  0  0  0  0  0
   45.8390   33.8621   37.9986 N   0  0  0  0  0  0  0  0  0  0  0  0
   47.1068   34.3332   38.1669 C   0  0  0  0  0  0  0  0  0  0  0  0
   47.9990   34.4678   37.1289 C   0  0  0  0  0  0  0  0  0  0  0  0
   49.2742   34.9523   37.3285 C   0  0  0  0  0  0  0  0  0  0  0  0
   49.8754   35.0111   36.4461 H   0  0  0  0  0  0  0  0  0  0  0  0
   49.6121   35.2989   38.6378 C   0  0  0  0  0  0  0  0  0  0  0  0
   50.6132   35.6741   38.7634 H   0  0  0  0  0  0  0  0  0  0  0  0
   48.6834   35.1434   39.6304 C   0  0  0  0  0  0  0  0  0  0  0  0
   47.4116   34.6652   39.4633 C   0  0  0  0  0  0  0  0  0  0  0  0
   43.9764   33.3779   38.9427 H   0  0  0  0  0  0  0  0  0  0  0  0
   47.6459   34.1727   36.1466 H   0  0  0  0  0  0  0  0  0  0  0  0
   49.0404   35.4405   40.5819 H   0  0  0  0  0  0  0  0  0  0  0  0
  1  2  2  0
  1  6  1  0
  2  3  1  0
  3  4  2  0
  5  4  1  0
  5  7  1  0
  6  5  2  0
  7  8  1  0
  7  9  1  0
  8  9  1  0
  9 10  1  0
 11  1  1  0
 12 11  2  0
  2 13  1  0
  3 14  1  0
  7 15  1  6
  8 16  1  0
  8 17  1  0
  9 18  1  1
 10 19  1  0
 10 20  1  0
 21 22  2  0
 22 23  1  0
 23 24  2  0
 24 25  1  0
 25 26  2  0
 26 27  1  0
 27 28  1  0
 27 29  2  0
 29 30  1  0
 29 31  1  0
 31 32  2  0
 32 21  1  0
 32 25  1  0
 23 33  1  0
 26 34  1  0
 31 35  1  0
 11 21  1  0
M  ISO  8  13  14  14  14  15  13  16  13  17  13  18  13  19   5  20   5
M  ISO  2  28  16  30  16
M  END
>  <DihAtoms>  (1) 
0,10,20,21

>  <DihDeg>  (1) 
174.35682737724758

$$$$
