
     RDKit          3D

 48 51  0  0  0  0  0  0  0  0999 V2000
   43.8688   35.2371   41.1910 C   0  0  0  0  0  0  0  0  0  0  0  0
   43.9598   35.5757   42.4717 C   0  0  0  0  0  0  0  0  0  0  0  0
   45.2273   35.5421   43.3083 C   0  0  0  0  0  0  0  0  0  0  0  0
   45.0058   34.6493   44.3401 O   0  0  0  0  0  0  0  0  0  0  0  0
   45.6991   32.4940   42.9530 O   0  0  0  0  0  0  0  0  0  0  0  0
   46.0039   33.2967   44.1960 P   0  0  1  0  0  0  0  0  0  0  0  0
   47.6342   33.7612   44.0864 O   0  0  0  0  0  0  0  0  0  0  0  0
   45.8467   32.3272   45.5690 O   0  0  0  0  0  0  0  0  0  0  0  0
   46.2065   32.9938   46.7233 C   0  0  0  0  0  0  0  0  0  0  0  0
   47.0582   32.2977   47.7375 C   0  0  0  0  0  0  0  0  0  0  0  0
   45.5672   32.4630   47.9875 C   0  0  0  0  0  0  0  0  0  0  0  0
   42.6099   35.3407   40.6255 O   0  0  0  0  0  0  0  0  0  0  0  0
   41.4364   35.6780   41.2316 C   0  0  0  0  0  0  0  0  0  0  0  0
   40.2777   33.5546   41.5990 C   0  0  0  0  0  0  0  0  0  0  0  0
   40.3081   34.7600   40.8547 C   0  0  0  0  0  0  0  0  0  0  0  0
   39.3443   34.9218   39.9220 C   0  0  0  0  0  0  0  0  0  0  0  0
   38.4535   33.9586   39.7701 N   0  0  0  0  0  0  0  0  0  0  0  0
   38.4188   32.8418   40.4529 C   0  0  0  0  0  0  0  0  0  0  0  0
   39.3617   32.5948   41.4233 N   0  0  0  0  0  0  0  0  0  0  0  0
   44.7052   34.9064   40.6340 H   0  0  0  0  0  0  0  0  0  0  0  0
   43.2083   35.9304   43.1600 H   0  0  0  0  0  0  0  0  0  0  0  0
   45.9916   35.1475   42.6121 H   0  0  0  0  0  0  0  0  0  0  0  0
   45.4896   36.5290   43.6966 H   0  0  0  0  0  0  0  0  0  0  0  0
   47.6803   34.7522   44.2087 H   0  0  0  0  0  0  0  0  0  0  0  0
   46.4425   34.0497   46.5922 H   0  0  0  0  0  0  0  0  0  0  0  0
   47.7846   32.8394   48.3572 H   0  0  0  0  0  0  0  0  0  0  0  0
   47.3444   31.2405   47.5559 H   0  0  0  0  0  0  0  0  0  0  0  0
   45.3477   33.2597   48.7444 H   0  0  0  0  0  0  0  0  0  0  0  0
   44.9013   31.6010   47.9429 H   0  0  0  0  0  0  0  0  0  0  0  0
   41.4116   35.6750   42.3460 H   0  0  0  0  0  0  0  0  0  0  0  0
   41.1209   36.6959   40.9207 H   0  0  0  0  0  0  0  0  0  0  0  0
   41.0345   33.3705   42.3685 H   0  0  0  0  0  0  0  0  0  0  0  0
   39.3774   35.8209   39.3766 H   0  0  0  0  0  0  0  0  0  0  0  0
   37.4739   31.7023   40.3658 C   0  0  0  0  0  0  0  0  0  0  0  0
   36.6212   31.5090   39.3279 N   0  0  0  0  0  0  0  0  0  0  0  0
   35.7635   30.5147   39.2035 C   0  0  0  0  0  0  0  0  0  0  0  0
   35.6813   29.5670   40.1712 N   0  0  0  0  0  0  0  0  0  0  0  0
   36.4914   29.6537   41.2686 C   0  0  0  0  0  0  0  0  0  0  0  0
   36.3993   28.6862   42.2439 C   0  0  0  0  0  0  0  0  0  0  0  0
   37.2037   28.7467   43.3623 C   0  0  0  0  0  0  0  0  0  0  0  0
   37.0378   27.9360   44.0486 H   0  0  0  0  0  0  0  0  0  0  0  0
   38.0777   29.8096   43.4320 C   0  0  0  0  0  0  0  0  0  0  0  0
   38.6939   29.8153   44.3351 H   0  0  0  0  0  0  0  0  0  0  0  0
   38.1309   30.7514   42.4287 C   0  0  0  0  0  0  0  0  0  0  0  0
   37.3538   30.7210   41.3161 C   0  0  0  0  0  0  0  0  0  0  0  0
   35.1579   30.5091   38.3149 H   0  0  0  0  0  0  0  0  0  0  0  0
   35.6645   27.8844   42.0801 H   0  0  0  0  0  0  0  0  0  0  0  0
   38.8522   31.4989   42.6340 H   0  0  0  0  0  0  0  0  0  0  0  0
  1  2  2  0
  2  3  1  0
  3  4  1  0
  6  5  2  0
  6  4  1  1
  6  8  1  0
  7  6  1  0
  8  9  1  0
  9 10  1  0
  9 11  1  0
 10 11  1  0
 12  1  1  0
 12 13  1  0
 15 13  1  0
 15 14  2  0
 16 15  1  0
 17 16  2  0
 17 18  1  0
 18 19  2  0
 19 14  1  0
  1 20  1  0
  2 21  1  0
  3 22  1  0
  3 23  1  0
  7 24  1  0
  9 25  1  0
 10 26  1  0
 10 27  1  0
 11 28  1  0
 11 29  1  0
 13 30  1  0
 13 31  1  0
 14 32  1  0
 16 33  1  0
 34 35  2  0
 35 36  1  0
 36 37  2  0
 37 38  1  0
 38 39  2  0
 39 40  1  0
 40 41  1  0
 40 42  2  0
 42 43  1  0
 42 44  1  0
 44 45  2  0
 45 34  1  0
 45 38  1  0
 36 46  1  0
 39 47  1  0
 44 48  1  0
 18 34  1  0
M  ISO  8  22   8  23   8  24   3  25  13  26  13  27  13  28  13  29  13
M  ISO  6  30   8  31   8  32  14  33  14  41  16  43  16
M  END
>  <DihAtoms>  (1) 
16,17,33,34

>  <DihDeg>  (1) 
179.92666597617074

$$$$
