
 OpenBabel03242523303D

 25 27  0  0  0  0  0  0  0  0999 V2000
   47.0620   31.8810   42.8420 S   0  0  0  0  0  0  0  0  0  0  0  0
   45.3930   31.8020   42.2130 C   0  0  0  0  0  0  0  0  0  0  0  0
   44.3090   31.3760   42.9070 N   0  0  0  0  0  0  0  0  0  0  0  0
   43.0980   31.3620   42.3170 C   0  0  0  0  0  3  0  0  0  0  0  0
   42.9250   31.7640   41.0280 N   0  0  0  0  0  0  0  0  0  0  0  0
   43.9800   32.2020   40.2850 C   0  0  0  0  0  0  0  0  0  0  0  0
   43.7550   32.5990   38.9840 C   0  0  0  0  0  3  0  0  0  0  0  0
   44.8590   33.0410   38.2480 C   0  0  0  0  0  0  0  0  0  0  0  0
   44.8080   33.3750   37.2230 H   0  0  0  0  0  0  0  0  0  0  0  0
   46.1070   33.0660   38.8250 C   0  0  0  0  0  0  0  0  0  0  0  0
   47.0010   33.4060   38.2870 H   0  0  0  0  0  0  0  0  0  0  0  0
   46.2670   32.6560   40.1330 C   0  0  0  0  0  3  0  0  0  0  0  0
   45.2080   32.2090   40.9090 C   0  0  0  0  0  0  0  0  0  0  0  0
   47.0500   32.7620   44.4380 C   0  0  0  0  0  0  0  0  0  0  0  0
   48.0890   33.0030   44.7620 H   0  0  0  0  0  0  0  0  0  0  0  0
   46.6100   32.1390   45.2360 H   0  0  0  0  0  0  0  0  0  0  0  0
   44.5540   35.4860   44.9080 C   0  0  0  0  0  0  0  0  0  0  0  0
   44.8160   36.2770   43.7800 C   0  0  0  0  0  0  0  0  0  0  0  0
   45.8290   35.8710   42.8910 C   0  0  0  0  0  0  0  0  0  0  0  0
   46.5180   34.7220   43.1590 N   0  0  0  0  0  0  0  0  0  0  0  0
   46.2270   33.9790   44.2740 C   0  0  0  0  0  0  0  0  0  0  0  0
   45.2670   34.3690   45.1130 N   0  0  0  0  0  0  0  0  0  0  0  0
   43.7730   35.8270   45.5660 H   0  0  0  0  0  0  0  0  0  0  0  0
   44.3070   37.1890   43.5160 H   0  0  0  0  0  0  0  0  0  0  0  0
   46.0940   36.4110   42.0090 H   0  0  0  0  0  0  0  0  0  0  0  0
  1 14  1  0  0  0  0
  2  1  1  0  0  0  0
  2  3  1  0  0  0  0
  4  3  2  0  0  0  0
  5  4  1  0  0  0  0
  6 13  1  0  0  0  0
  6  5  2  0  0  0  0
  7  6  1  0  0  0  0
  8 10  1  0  0  0  0
  8  7  2  0  0  0  0
  9  8  1  0  0  0  0
 10 12  2  0  0  0  0
 11 10  1  0  0  0  0
 12 13  1  0  0  0  0
 13  2  2  0  0  0  0
 14 15  1  0  0  0  0
 14 16  1  0  0  0  0
 17 22  1  0  0  0  0
 17 23  1  0  0  0  0
 18 17  2  0  0  0  0
 19 20  2  0  0  0  0
 19 18  1  0  0  0  0
 20 21  1  0  0  0  0
 21 14  1  0  0  0  0
 21 22  2  0  0  0  0
 24 18  1  0  0  0  0
 25 19  1  0  0  0  0
M  END
>  <minimizedAffinity>
-3.5571599

>  <minimizedRMSD>
4.63959646

$$$$
