REMARK  Name = 
REMARK  2 active torsions:
REMARK  status: ('A' for Active; 'I' for Inactive)
REMARK    1  A    between atoms: C_3  and  C_10
REMARK    2  A    between atoms: C_7  and  C_17
REMARK                            x       y       z     vdW  Elec       q    Type
REMARK                         _______ _______ _______ _____ _____    ______ ____
ROOT
ATOM      1  C   UNL     1      45.435  35.192  43.097  0.00  0.00    +0.000 A 
ATOM      2  C   UNL     1      46.460  35.569  42.200  0.00  0.00    +0.000 A 
ATOM      3  C   UNL     1      47.681  34.887  42.382  0.00  0.00    +0.000 A 
ATOM      4  N   UNL     1      47.768  33.961  43.367  0.00  0.00    +0.000 NA
ATOM      5  C   UNL     1      46.739  33.650  44.194  0.00  0.00    +0.000 A 
ATOM      6  N   UNL     1      45.563  34.273  44.055  0.00  0.00    +0.000 NA
ATOM      7  C   UNL     1      43.394  35.350  41.883  0.00  0.00    +0.000 C 
ATOM      8  O   UNL     1      43.951  34.477  41.172  0.00  0.00    +0.000 OA
ATOM      9  N   UNL     1      44.151  35.812  42.984  0.00  0.00    +0.000 N 
ATOM     10  H   UNL     1      46.310  36.311  41.450  0.00  0.00    +0.000 HD
ATOM     11  H   UNL     1      46.958  32.890  44.932  0.00  0.00    +0.000 HD
ATOM     12  H   UNL     1      43.860  36.515  43.663  0.00  0.00    +0.000 HD
ENDROOT
BRANCH   7  13
ATOM     13  C   UNL     1      42.074  36.024  41.817  0.00  0.00    +0.000 A 
ATOM     14  N   UNL     1      41.653  36.956  42.695  0.00  0.00    +0.000 NA
ATOM     15  C   UNL     1      40.475  37.556  42.636  0.00  0.00    +0.000 A 
ATOM     16  N   UNL     1      39.591  37.282  41.684  0.00  0.00    +0.000 NA
ATOM     17  C   UNL     1      39.916  36.357  40.749  0.00  0.00    +0.000 A 
ATOM     18  C   UNL     1      38.999  36.077  39.767  0.00  0.00    +0.000 A 
ATOM     19  C   UNL     1      39.270  35.156  38.800  0.00  0.00    +0.000 A 
ATOM     20  H   UNL     1      38.493  34.999  38.069  0.00  0.00    +0.000 HD
ATOM     21  C   UNL     1      40.502  34.523  38.855  0.00  0.00    +0.000 A 
ATOM     22  H   UNL     1      40.691  33.793  38.071  0.00  0.00    +0.000 HD
ATOM     23  C   UNL     1      41.392  34.835  39.859  0.00  0.00    +0.000 A 
ATOM     24  C   UNL     1      41.149  35.752  40.840  0.00  0.00    +0.000 A 
ENDBRANCH   7  13
BRANCH   3  25
ATOM     25  C   UNL     1      48.742  35.277  41.452  0.00  0.00    +0.000 C 
ATOM     26  F   UNL     1      49.848  34.436  41.660  0.00  0.00    +0.000 F 
ATOM     27  F   UNL     1      49.150  36.540  41.815  0.00  0.00    +0.000 F 
ATOM     28  F   UNL     1      48.390  35.149  40.136  0.00  0.00    +0.000 F 
ENDBRANCH   3  25
TORSDOF 2
