
 OpenBabel03252508003D

 32 35  0  0  1  0  0  0  0  0999 V2000
   46.4340   34.6850   43.2130 C   0  0  0  0  0  0  0  0  0  0  0  0
   45.4230   35.6690   43.4980 C   0  0  0  0  0  0  0  0  0  0  0  0
   44.7110   35.5000   44.6840 C   0  0  0  0  0  0  0  0  0  0  0  0
   45.0040   34.4440   45.4790 N   0  0  0  0  0  0  0  0  0  0  0  0
   45.9810   33.5380   45.1490 C   0  0  0  0  0  0  0  0  0  0  0  0
   46.7020   33.6320   44.0400 N   0  0  0  0  0  0  0  0  0  0  0  0
   45.2680   36.4620   42.8110 H   0  0  0  0  0  0  0  0  0  0  0  0
   43.9500   36.2180   44.9260 H   0  0  0  0  0  0  0  0  0  0  0  0
   46.2480   32.4030   46.0810 C   0  0  1  0  0  0  0  0  0  0  0  0
   46.9870   32.6820   47.3680 C   0  0  0  0  0  0  0  0  0  0  0  0
   45.4990   32.4640   47.3520 C   0  0  1  0  0  0  0  0  0  0  0  0
   46.4180   31.4150   45.6110 H   0  0  0  0  0  0  0  0  0  0  0  0
   47.6510   31.8650   47.7170 H   0  0  0  0  0  0  0  0  0  0  0  0
   47.4080   33.7160   47.4060 H   0  0  0  0  0  0  0  0  0  0  0  0
   45.1850   31.5220   47.8650 H   0  0  0  0  0  0  0  0  0  0  0  0
   44.7540   33.6820   47.6920 N   0  0  0  0  0  0  0  0  0  0  0  0
   45.3590   34.3800   48.1900 H   0  0  0  0  0  0  0  0  0  0  0  0
   44.0150   33.4130   48.3930 H   0  0  0  0  0  0  0  0  0  0  0  0
   47.1400   34.8530   41.9700 C   0  0  2  0  0  3  0  0  0  0  0  0
   48.1340   35.6850   41.8780 O   0  0  0  0  0  1  0  0  0  0  0  0
   47.0500   34.2960   40.6240 C   0  0  0  0  0  0  0  0  0  0  0  0
   48.0870   34.4750   39.7920 N   0  0  0  0  0  0  0  0  0  0  0  0
   48.0980   33.9920   38.5100 C   0  0  0  0  0  3  0  0  0  0  0  0
   47.0670   33.3110   38.0210 N   0  0  0  0  0  0  0  0  0  0  0  0
   45.9590   33.0700   38.7780 C   0  0  0  0  0  0  0  0  0  0  0  0
   44.8730   32.3660   38.3110 C   0  0  0  0  0  3  0  0  0  0  0  0
   43.7680   32.1330   39.1010 C   0  0  0  0  0  0  0  0  0  0  0  0
   42.9870   31.5750   38.6280 H   0  0  0  0  0  0  0  0  0  0  0  0
   43.8080   32.6460   40.3990 C   0  0  0  0  0  0  0  0  0  0  0  0
   42.9320   32.4480   40.9920 H   0  0  0  0  0  0  0  0  0  0  0  0
   44.9160   33.3380   40.8080 C   0  0  0  0  0  3  0  0  0  0  0  0
   46.0260   33.5850   40.0470 C   0  0  0  0  0  0  0  0  0  0  0  0
  1  2  2  0  0  0  0
  1  6  1  0  0  0  0
  2  3  1  0  0  0  0
  3  8  1  0  0  0  0
  3  4  2  0  0  0  0
  5  4  1  0  0  0  0
  5  9  1  0  0  0  0
  6  5  2  0  0  0  0
  7  2  1  0  0  0  0
  9 12  1  6  0  0  0
  9 11  1  0  0  0  0
  9 10  1  0  0  0  0
 10 14  1  0  0  0  0
 10 13  1  0  0  0  0
 11 10  1  0  0  0  0
 11 16  1  0  0  0  0
 11 15  1  1  0  0  0
 16 17  1  0  0  0  0
 16 18  1  0  0  0  0
 19 20  1  6  0  0  0
 19  1  1  0  0  0  0
 21 19  1  0  0  0  0
 22 21  2  0  0  0  0
 23 22  1  0  0  0  0
 24 23  2  0  0  0  0
 24 25  1  0  0  0  0
 25 32  1  0  0  0  0
 26 25  2  0  0  0  0
 26 27  1  0  0  0  0
 27 29  2  0  0  0  0
 28 27  1  0  0  0  0
 29 31  1  0  0  0  0
 29 30  1  0  0  0  0
 32 21  1  0  0  0  0
 32 31  2  0  0  0  0
M  END
>  <minimizedAffinity>
-6.18356657

>  <minimizedRMSD>
0.586590528

$$$$
