
     RDKit          3D

 49 53  0  0  0  0  0  0  0  0999 V2000
   40.9577   33.9831   39.7070 C   0  0  0  0  0  0  0  0  0  0  0  0
   39.8590   33.9970   38.8590 C   0  0  0  0  0  0  0  0  0  0  0  0
   39.8462   34.8467   37.7626 C   0  0  0  0  0  0  0  0  0  0  0  0
   40.8946   35.6768   37.4931 C   0  0  0  0  0  0  0  0  0  0  0  0
   41.9839   35.6569   38.3417 C   0  0  0  0  0  0  0  0  0  0  0  0
   42.0279   34.8225   39.4421 C   0  0  0  0  0  0  0  0  0  0  0  0
   43.1834   34.8147   40.3253 C   0  0  0  0  0  0  0  0  0  0  0  0
   44.2834   34.0333   40.1537 C   0  0  0  0  0  0  0  0  0  0  0  0
   45.3819   34.0424   41.0150 C   0  0  0  0  0  0  0  0  0  0  0  0
   45.3519   34.8679   42.0716 N   0  0  0  0  0  0  0  0  0  0  0  0
   44.2631   35.6481   42.2503 C   0  0  0  0  0  0  0  0  0  0  0  0
   43.2072   35.6275   41.4070 N   0  0  0  0  0  0  0  0  0  0  0  0
   41.0736   32.9386   41.1307 S   0  0  0  0  0  0  0  0  0  0  0  0
   38.5724   31.7747   41.2439 C   0  0  0  0  0  0  0  0  0  0  0  0
   39.9369   31.5938   41.0058 C   0  0  0  0  0  0  0  0  0  0  0  0
   40.3626   30.3308   40.6708 C   0  0  0  0  0  0  0  0  0  0  0  0
   39.4495   29.3301   40.5878 N   0  0  0  0  0  0  0  0  0  0  0  0
   38.1293   29.5422   40.8262 C   0  0  0  0  0  0  0  0  0  0  0  0
   37.6683   30.7431   41.1529 N   0  0  0  0  0  0  0  0  0  0  0  0
   37.2166   28.3859   40.7109 C   0  0  0  0  0  0  0  0  0  0  0  0
   36.1315   28.6538   39.6597 C   0  0  0  0  0  0  0  0  0  0  0  0
   39.0406   33.3380   39.0833 H   0  0  0  0  0  0  0  0  0  0  0  0
   38.9364   34.7778   37.1631 H   0  0  0  0  0  0  0  0  0  0  0  0
   40.7821   36.2863   36.6285 H   0  0  0  0  0  0  0  0  0  0  0  0
   42.7954   36.3316   38.0920 H   0  0  0  0  0  0  0  0  0  0  0  0
   44.3185   33.3583   39.2978 H   0  0  0  0  0  0  0  0  0  0  0  0
   46.2292   33.4005   40.8303 H   0  0  0  0  0  0  0  0  0  0  0  0
   44.1028   36.3677   43.0676 H   0  0  0  0  0  0  0  0  0  0  0  0
   38.1737   32.7588   41.5147 H   0  0  0  0  0  0  0  0  0  0  0  0
   41.4179   30.1611   40.4802 H   0  0  0  0  0  0  0  0  0  0  0  0
   36.6898   28.2946   41.6925 H   0  0  0  0  0  0  0  0  0  0  0  0
   37.7272   27.4457   40.5107 H   0  0  0  0  0  0  0  0  0  0  0  0
   35.5090   27.7455   39.5315 H   0  0  0  0  0  0  0  0  0  0  0  0
   35.5023   29.5007   39.9445 H   0  0  0  0  0  0  0  0  0  0  0  0
   36.8533   28.8835   38.3785 C   0  0  0  0  0  0  0  0  0  0  0  0
   37.9445   29.6561   38.2328 N   0  0  0  0  0  0  0  0  0  0  0  0
   38.5613   29.8318   37.0519 C   0  0  0  0  0  0  0  0  0  0  0  0
   38.1164   29.2369   35.9329 N   0  0  0  0  0  0  0  0  0  0  0  0
   37.0223   28.4430   35.9974 C   0  0  0  0  0  0  0  0  0  0  0  0
   36.6038   27.8547   34.8241 C   0  0  0  0  0  0  0  0  0  0  0  0
   35.4964   27.0412   34.8479 C   0  0  0  0  0  0  0  0  0  0  0  0
   35.1065   26.5434   33.9665 H   0  0  0  0  0  0  0  0  0  0  0  0
   34.8558   26.8510   36.0424 C   0  0  0  0  0  0  0  0  0  0  0  0
   33.9845   26.2115   36.0633 H   0  0  0  0  0  0  0  0  0  0  0  0
   35.2662   27.4364   37.2287 C   0  0  0  0  0  0  0  0  0  0  0  0
   36.3875   28.2628   37.2159 C   0  0  0  0  0  0  0  0  0  0  0  0
   39.4242   30.4903   37.1368 H   0  0  0  0  0  0  0  0  0  0  0  0
   37.1028   27.9981   33.8741 H   0  0  0  0  0  0  0  0  0  0  0  0
   34.7520   27.2808   38.1750 H   0  0  0  0  0  0  0  0  0  0  0  0
  1 13  1  0
  2  1  2  0
  3  2  1  0
  4  3  2  0
  4  5  1  0
  5  6  2  0
  6  1  1  0
  6  7  1  0
  7 12  1  0
  8  7  2  0
  8  9  1  0
  9 10  2  0
 10 11  1  0
 12 11  2  0
 15 13  1  0
 15 14  2  0
 16 15  1  0
 17 16  2  0
 17 18  1  0
 18 19  2  0
 19 14  1  0
 20 18  1  0
 21 20  1  0
  2 22  1  0
  3 23  1  0
  4 24  1  0
  5 25  1  0
  8 26  1  0
  9 27  1  0
 11 28  1  0
 14 29  1  0
 16 30  1  0
 20 31  1  0
 20 32  1  0
 21 33  1  0
 21 34  1  0
 35 36  2  0
 36 37  1  0
 37 38  2  0
 38 39  1  0
 39 40  2  0
 40 41  1  0
 41 42  1  0
 41 43  2  0
 43 44  1  0
 43 45  1  0
 45 46  2  0
 46 35  1  0
 46 39  1  0
 37 47  1  0
 40 48  1  0
 45 49  1  0
 21 35  1  0
M  ISO  8  22  14  23  14  24  14  25  14  26  14  27  14  28  14  29  14
M  ISO  7  30  14  31   8  32   8  33   8  34   8  42  16  44  16
M  END
>  <DihAtoms>  (1) 
19,20,34,35

>  <DihDeg>  (1) 
0.054104625077841174

$$$$
