
 OpenBabel03252507233D

 50 54  0  0  1  0  0  0  0  0999 V2000
   39.1640   29.6120   40.2340 C   0  0  0  0  0  0  0  0  0  0  0  0
   39.7260   29.1470   39.2050 O   0  0  0  0  0  0  0  0  0  0  0  0
   38.7830   28.8190   41.3440 N   0  0  0  0  0  0  0  0  0  0  0  0
   38.9480   29.0560   42.7890 C   0  0  0  0  0  0  0  0  0  0  0  0
   37.6150   28.8630   43.4900 C   0  0  0  0  0  0  0  0  0  0  0  0
   37.1770   27.4370   43.3710 C   0  0  0  0  0  0  0  0  0  0  0  0
   38.0000   26.7330   42.3090 C   0  0  0  0  0  0  0  0  0  0  0  0
   38.1340   27.5680   41.0590 C   0  0  2  0  0  0  0  0  0  0  0  0
   39.1620   30.1560   42.8830 H   0  0  0  0  0  0  0  0  0  0  0  0
   39.7450   28.4430   43.2240 H   0  0  0  0  0  0  0  0  0  0  0  0
   37.7600   29.2000   44.5310 H   0  0  0  0  0  0  0  0  0  0  0  0
   36.8730   29.5020   42.9790 H   0  0  0  0  0  0  0  0  0  0  0  0
   37.4430   26.9340   44.3440 H   0  0  0  0  0  0  0  0  0  0  0  0
   36.0970   27.2890   43.2480 H   0  0  0  0  0  0  0  0  0  0  0  0
   37.5660   25.7550   42.0960 H   0  0  0  0  0  0  0  0  0  0  0  0
   39.0130   26.5810   42.7370 H   0  0  0  0  0  0  0  0  0  0  0  0
   37.0870   27.8210   40.7520 H   0  0  0  0  0  0  0  0  0  0  0  0
   39.9410   31.8960   40.6650 C   0  0  0  0  0  0  0  0  0  0  0  0
   38.8950   31.0300   40.2780 C   0  0  0  0  0  0  0  0  0  0  0  0
   37.6580   31.5560   39.9570 C   0  0  0  0  0  0  0  0  0  0  0  0
   37.4920   32.8910   40.0240 N   0  0  0  0  0  0  0  0  0  0  0  0
   38.4920   33.7380   40.3960 C   0  0  0  0  0  0  0  0  0  0  0  0
   39.7030   33.2180   40.7110 N   0  0  0  0  0  0  0  0  0  0  0  0
   40.9110   31.4840   40.9170 H   0  0  0  0  0  0  0  0  0  0  0  0
   38.2870   34.8030   40.4290 H   0  0  0  0  0  0  0  0  0  0  0  0
   36.5960   30.6410   39.5610 C   0  0  0  0  0  0  0  0  0  0  0  0
   35.7400   30.1440   40.4910 C   0  0  0  0  0  0  0  0  0  0  0  0
   34.7430   29.2770   40.0760 C   0  0  0  0  0  0  0  0  0  0  0  0
   34.5830   28.8970   38.7500 C   0  0  0  0  0  0  0  0  0  0  0  0
   35.4810   29.4330   37.8470 C   0  0  0  0  0  0  0  0  0  0  0  0
   36.4390   30.2690   38.2710 N   0  0  0  0  0  0  0  0  0  0  0  0
   35.7790   30.3740   41.5420 H   0  0  0  0  0  0  0  0  0  0  0  0
   34.0470   28.8680   40.8000 H   0  0  0  0  0  0  0  0  0  0  0  0
   33.8160   28.2250   38.3970 H   0  0  0  0  0  0  0  0  0  0  0  0
   35.4750   29.2240   36.7820 H   0  0  0  0  0  0  0  0  0  0  0  0
   38.8140   26.7460   40.0190 C   0  0  0  0  0  0  0  0  0  0  0  0
   39.8750   26.6350   40.3030 H   0  0  0  0  0  0  0  0  0  0  0  0
   38.7750   27.1020   38.9880 H   0  0  0  0  0  0  0  0  0  0  0  0
   38.2690   25.3170   40.0470 C   0  0  0  0  0  0  0  0  0  0  0  0
   38.8820   24.3600   40.8040 N   0  0  0  0  0  0  0  0  0  0  0  0
   38.4100   23.1030   40.8780 C   0  0  0  0  0  3  0  0  0  0  0  0
   37.2910   22.7280   40.1930 N   0  0  0  0  0  0  0  0  0  0  0  0
   36.6600   23.6570   39.4330 C   0  0  0  0  0  0  0  0  0  0  0  0
   35.5350   23.2450   38.7470 C   0  0  0  0  0  3  0  0  0  0  0  0
   34.8840   24.1730   37.9600 C   0  0  0  0  0  0  0  0  0  0  0  0
   33.9950   23.8740   37.4100 H   0  0  0  0  0  0  0  0  0  0  0  0
   35.3560   25.4650   37.8740 C   0  0  0  0  0  0  0  0  0  0  0  0
   34.8130   26.1680   37.2410 H   0  0  0  0  0  0  0  0  0  0  0  0
   36.4950   25.8930   38.5660 C   0  0  0  0  0  3  0  0  0  0  0  0
   37.1250   24.9450   39.3440 C   0  0  0  0  0  0  0  0  0  0  0  0
  1 19  1  0  0  0  0
  1  3  1  0  0  0  0
  2  1  2  0  0  0  0
  3  4  1  0  0  0  0
  4  9  1  0  0  0  0
  4 10  1  0  0  0  0
  4  5  1  0  0  0  0
  5 11  1  0  0  0  0
  6  5  1  0  0  0  0
  6 13  1  0  0  0  0
  7 16  1  0  0  0  0
  7  6  1  0  0  0  0
  8 17  1  6  0  0  0
  8  3  1  0  0  0  0
  8  7  1  0  0  0  0
 12  5  1  0  0  0  0
 14  6  1  0  0  0  0
 15  7  1  0  0  0  0
 18 23  1  0  0  0  0
 18 24  1  0  0  0  0
 19 18  2  0  0  0  0
 20 21  2  0  0  0  0
 20 19  1  0  0  0  0
 21 22  1  0  0  0  0
 22 25  1  0  0  0  0
 22 23  2  0  0  0  0
 26 20  1  0  0  0  0
 26 27  1  0  0  0  0
 27 32  1  0  0  0  0
 28 27  2  0  0  0  0
 28 33  1  0  0  0  0
 29 28  1  0  0  0  0
 30 31  1  0  0  0  0
 30 29  2  0  0  0  0
 31 26  2  0  0  0  0
 34 29  1  0  0  0  0
 35 30  1  0  0  0  0
 36 39  1  0  0  0  0
 36 37  1  0  0  0  0
 36  8  1  0  0  0  0
 38 36  1  0  0  0  0
 39 40  1  0  0  0  0
 40 41  2  0  0  0  0
 42 41  1  0  0  0  0
 43 42  2  0  0  0  0
 44 43  1  0  0  0  0
 45 44  2  0  0  0  0
 46 45  1  0  0  0  0
 47 45  1  0  0  0  0
 47 49  2  0  0  0  0
 48 47  1  0  0  0  0
 49 50  1  0  0  0  0
 50 43  1  0  0  0  0
 50 39  2  0  0  0  0
M  END
>  <minimizedAffinity>
-6.85469341

$$$$

 OpenBabel03252507233D

 50 54  0  0  1  0  0  0  0  0999 V2000
   39.1820   29.4020   40.4200 C   0  0  0  0  0  0  0  0  0  0  0  0
   39.7610   28.9150   39.4110 O   0  0  0  0  0  0  0  0  0  0  0  0
   38.6900   28.6180   41.4930 N   0  0  0  0  0  0  0  0  0  0  0  0
   38.7980   28.8170   42.9490 C   0  0  0  0  0  0  0  0  0  0  0  0
   37.4210   28.7090   43.5800 C   0  0  0  0  0  0  0  0  0  0  0  0
   36.8880   27.3210   43.4080 C   0  0  0  0  0  0  0  0  0  0  0  0
   37.7100   26.5780   42.3730 C   0  0  0  0  0  0  0  0  0  0  0  0
   37.9670   27.4240   41.1490 C   0  0  2  0  0  0  0  0  0  0  0  0
   39.0860   29.8960   43.0780 H   0  0  0  0  0  0  0  0  0  0  0  0
   39.5250   28.1390   43.4100 H   0  0  0  0  0  0  0  0  0  0  0  0
   37.5370   29.0160   44.6340 H   0  0  0  0  0  0  0  0  0  0  0  0
   36.7540   29.4090   43.0470 H   0  0  0  0  0  0  0  0  0  0  0  0
   37.0670   26.7820   44.3820 H   0  0  0  0  0  0  0  0  0  0  0  0
   35.8070   27.2550   43.2290 H   0  0  0  0  0  0  0  0  0  0  0  0
   37.2180   25.6390   42.1180 H   0  0  0  0  0  0  0  0  0  0  0  0
   38.6860   26.3450   42.8470 H   0  0  0  0  0  0  0  0  0  0  0  0
   36.9580   27.7580   40.7970 H   0  0  0  0  0  0  0  0  0  0  0  0
   40.1100   31.6170   40.9100 C   0  0  0  0  0  0  0  0  0  0  0  0
   39.0140   30.8350   40.4820 C   0  0  0  0  0  0  0  0  0  0  0  0
   37.8270   31.4530   40.1410 C   0  0  0  0  0  0  0  0  0  0  0  0
   37.7550   32.7950   40.2270 N   0  0  0  0  0  0  0  0  0  0  0  0
   38.8030   33.5620   40.6370 C   0  0  0  0  0  0  0  0  0  0  0  0
   39.9650   32.9520   40.9720 N   0  0  0  0  0  0  0  0  0  0  0  0
   41.0410   31.1330   41.1780 H   0  0  0  0  0  0  0  0  0  0  0  0
   38.6740   34.6390   40.6830 H   0  0  0  0  0  0  0  0  0  0  0  0
   36.7130   30.6230   39.7040 C   0  0  0  0  0  0  0  0  0  0  0  0
   35.7980   30.1770   40.6030 C   0  0  0  0  0  0  0  0  0  0  0  0
   34.7520   29.3910   40.1500 C   0  0  0  0  0  0  0  0  0  0  0  0
   34.6010   29.0400   38.8150 C   0  0  0  0  0  0  0  0  0  0  0  0
   35.5600   29.5220   37.9430 C   0  0  0  0  0  0  0  0  0  0  0  0
   36.5630   30.2810   38.4040 N   0  0  0  0  0  0  0  0  0  0  0  0
   35.8250   30.3900   41.6590 H   0  0  0  0  0  0  0  0  0  0  0  0
   34.0100   29.0240   40.8500 H   0  0  0  0  0  0  0  0  0  0  0  0
   33.7970   28.4300   38.4320 H   0  0  0  0  0  0  0  0  0  0  0  0
   35.5660   29.3280   36.8760 H   0  0  0  0  0  0  0  0  0  0  0  0
   38.6380   26.5730   40.1260 C   0  0  0  0  0  0  0  0  0  0  0  0
   39.2650   25.8310   40.6490 H   0  0  0  0  0  0  0  0  0  0  0  0
   39.2570   27.0740   39.3800 H   0  0  0  0  0  0  0  0  0  0  0  0
   37.5980   25.7290   39.3890 C   0  0  0  0  0  0  0  0  0  0  0  0
   36.6670   26.3270   38.5880 N   0  0  0  0  0  0  0  0  0  0  0  0
   35.7590   25.6140   37.8990 C   0  0  0  0  0  3  0  0  0  0  0  0
   35.7300   24.2510   37.9730 N   0  0  0  0  0  0  0  0  0  0  0  0
   36.6410   23.6290   38.7590 C   0  0  0  0  0  0  0  0  0  0  0  0
   36.5800   22.2510   38.8190 C   0  0  0  0  0  3  0  0  0  0  0  0
   37.4940   21.5990   39.6220 C   0  0  0  0  0  0  0  0  0  0  0  0
   37.4670   20.5130   39.6840 H   0  0  0  0  0  0  0  0  0  0  0  0
   38.4300   22.3170   40.3340 C   0  0  0  0  0  0  0  0  0  0  0  0
   39.1340   21.7640   40.9580 H   0  0  0  0  0  0  0  0  0  0  0  0
   38.5010   23.7140   40.2800 C   0  0  0  0  0  3  0  0  0  0  0  0
   37.5760   24.3380   39.4710 C   0  0  0  0  0  0  0  0  0  0  0  0
  1 19  1  0  0  0  0
  1  3  1  0  0  0  0
  2  1  2  0  0  0  0
  3  4  1  0  0  0  0
  4  9  1  0  0  0  0
  4 10  1  0  0  0  0
  4  5  1  0  0  0  0
  5 11  1  0  0  0  0
  6  5  1  0  0  0  0
  6 13  1  0  0  0  0
  7 16  1  0  0  0  0
  7  6  1  0  0  0  0
  8 17  1  6  0  0  0
  8  3  1  0  0  0  0
  8  7  1  0  0  0  0
 12  5  1  0  0  0  0
 14  6  1  0  0  0  0
 15  7  1  0  0  0  0
 18 23  1  0  0  0  0
 18 24  1  0  0  0  0
 19 18  2  0  0  0  0
 20 21  2  0  0  0  0
 20 19  1  0  0  0  0
 21 22  1  0  0  0  0
 22 25  1  0  0  0  0
 22 23  2  0  0  0  0
 26 20  1  0  0  0  0
 26 27  1  0  0  0  0
 27 32  1  0  0  0  0
 28 27  2  0  0  0  0
 28 33  1  0  0  0  0
 29 28  1  0  0  0  0
 30 31  1  0  0  0  0
 30 29  2  0  0  0  0
 31 26  2  0  0  0  0
 34 29  1  0  0  0  0
 35 30  1  0  0  0  0
 36 37  1  0  0  0  0
 36  8  1  0  0  0  0
 38 36  1  0  0  0  0
 39 50  1  0  0  0  0
 39 36  1  0  0  0  0
 40 39  2  0  0  0  0
 41 42  2  0  0  0  0
 41 40  1  0  0  0  0
 42 43  1  0  0  0  0
 43 44  2  0  0  0  0
 43 50  1  0  0  0  0
 44 45  1  0  0  0  0
 45 46  1  0  0  0  0
 45 47  2  0  0  0  0
 47 48  1  0  0  0  0
 49 47  1  0  0  0  0
 50 49  2  0  0  0  0
M  END
>  <minimizedAffinity>
-6.62547684

$$$$

 OpenBabel03252507233D

 50 54  0  0  1  0  0  0  0  0999 V2000
   37.8570   26.9180   39.7250 C   0  0  0  0  0  0  0  0  0  0  0  0
   38.4800   27.2950   38.6950 O   0  0  0  0  0  0  0  0  0  0  0  0
   37.6720   27.7320   40.8690 N   0  0  0  0  0  0  0  0  0  0  0  0
   36.4710   27.9680   41.6900 C   0  0  0  0  0  0  0  0  0  0  0  0
   36.8070   27.7530   43.1550 C   0  0  0  0  0  0  0  0  0  0  0  0
   37.8010   28.7750   43.6070 C   0  0  0  0  0  0  0  0  0  0  0  0
   38.4170   29.4610   42.4030 C   0  0  0  0  0  0  0  0  0  0  0  0
   38.8140   28.4700   41.3360 C   0  0  2  0  0  0  0  0  0  0  0  0
   35.7700   27.1280   41.4320 H   0  0  0  0  0  0  0  0  0  0  0  0
   36.0230   28.9500   41.5010 H   0  0  0  0  0  0  0  0  0  0  0  0
   35.8490   27.7890   43.7020 H   0  0  0  0  0  0  0  0  0  0  0  0
   37.2650   26.7520   43.2490 H   0  0  0  0  0  0  0  0  0  0  0  0
   37.2210   29.5760   44.1480 H   0  0  0  0  0  0  0  0  0  0  0  0
   38.5480   28.4150   44.3260 H   0  0  0  0  0  0  0  0  0  0  0  0
   39.2640   30.0720   42.7210 H   0  0  0  0  0  0  0  0  0  0  0  0
   37.6390   30.1320   41.9830 H   0  0  0  0  0  0  0  0  0  0  0  0
   39.4800   27.7290   41.8460 H   0  0  0  0  0  0  0  0  0  0  0  0
   36.1420   25.3380   38.9710 C   0  0  0  0  0  0  0  0  0  0  0  0
   37.3050   25.5830   39.7350 C   0  0  0  0  0  0  0  0  0  0  0  0
   37.8740   24.5560   40.4610 C   0  0  0  0  0  0  0  0  0  0  0  0
   37.2950   23.3410   40.4140 N   0  0  0  0  0  0  0  0  0  0  0  0
   36.1740   23.0880   39.6830 C   0  0  0  0  0  0  0  0  0  0  0  0
   35.6190   24.1000   38.9720 N   0  0  0  0  0  0  0  0  0  0  0  0
   35.6950   26.1430   38.4020 H   0  0  0  0  0  0  0  0  0  0  0  0
   35.7610   22.0850   39.6920 H   0  0  0  0  0  0  0  0  0  0  0  0
   39.0720   24.8360   41.2400 C   0  0  0  0  0  0  0  0  0  0  0  0
   39.0050   24.9120   42.5950 C   0  0  0  0  0  0  0  0  0  0  0  0
   40.1650   25.1810   43.3010 C   0  0  0  0  0  0  0  0  0  0  0  0
   41.3930   25.3750   42.6810 C   0  0  0  0  0  0  0  0  0  0  0  0
   41.4030   25.2860   41.3020 C   0  0  0  0  0  0  0  0  0  0  0  0
   40.2690   25.0260   40.6390 N   0  0  0  0  0  0  0  0  0  0  0  0
   38.1040   24.7790   43.1700 H   0  0  0  0  0  0  0  0  0  0  0  0
   40.1360   25.2450   44.3830 H   0  0  0  0  0  0  0  0  0  0  0  0
   42.3130   25.5840   43.2050 H   0  0  0  0  0  0  0  0  0  0  0  0
   42.2890   25.4150   40.6890 H   0  0  0  0  0  0  0  0  0  0  0  0
   39.5490   29.2050   40.2670 C   0  0  0  0  0  0  0  0  0  0  0  0
   39.4520   28.6370   39.3260 H   0  0  0  0  0  0  0  0  0  0  0  0
   40.6080   29.4090   40.4320 H   0  0  0  0  0  0  0  0  0  0  0  0
   38.8510   30.5340   39.9750 C   0  0  0  0  0  0  0  0  0  0  0  0
   37.5540   30.5520   39.5480 N   0  0  0  0  0  0  0  0  0  0  0  0
   36.8990   31.7020   39.3140 C   0  0  0  0  0  3  0  0  0  0  0  0
   37.5090   32.9100   39.4940 N   0  0  0  0  0  0  0  0  0  0  0  0
   38.7960   32.9250   39.9190 C   0  0  0  0  0  0  0  0  0  0  0  0
   39.3870   34.1610   40.0850 C   0  0  0  0  0  3  0  0  0  0  0  0
   40.7010   34.1970   40.5070 C   0  0  0  0  0  0  0  0  0  0  0  0
   41.1880   35.1590   40.6470 H   0  0  0  0  0  0  0  0  0  0  0  0
   41.3840   33.0250   40.7510 C   0  0  0  0  0  0  0  0  0  0  0  0
   42.4210   33.0960   41.0820 H   0  0  0  0  0  0  0  0  0  0  0  0
   40.7950   31.7670   40.5860 C   0  0  0  0  0  3  0  0  0  0  0  0
   39.4830   31.7610   40.1630 C   0  0  0  0  0  0  0  0  0  0  0  0
  1 19  1  0  0  0  0
  1  3  1  0  0  0  0
  2  1  2  0  0  0  0
  3  8  1  0  0  0  0
  3  4  1  0  0  0  0
  4  5  1  0  0  0  0
  5 12  1  0  0  0  0
  5  6  1  0  0  0  0
  5 11  1  0  0  0  0
  6 13  1  0  0  0  0
  6 14  1  0  0  0  0
  7 15  1  0  0  0  0
  7  6  1  0  0  0  0
  8 17  1  1  0  0  0
  8  7  1  0  0  0  0
  9  4  1  0  0  0  0
 10  4  1  0  0  0  0
 16  7  1  0  0  0  0
 18 23  2  0  0  0  0
 18 19  1  0  0  0  0
 19 20  2  0  0  0  0
 20 26  1  0  0  0  0
 21 20  1  0  0  0  0
 22 25  1  0  0  0  0
 22 21  2  0  0  0  0
 23 22  1  0  0  0  0
 24 18  1  0  0  0  0
 26 27  1  0  0  0  0
 27 32  1  0  0  0  0
 27 28  2  0  0  0  0
 28 33  1  0  0  0  0
 29 34  1  0  0  0  0
 29 28  1  0  0  0  0
 30 29  2  0  0  0  0
 31 26  2  0  0  0  0
 31 30  1  0  0  0  0
 35 30  1  0  0  0  0
 36 38  1  0  0  0  0
 36  8  1  0  0  0  0
 37 36  1  0  0  0  0
 39 50  1  0  0  0  0
 39 36  1  0  0  0  0
 40 39  2  0  0  0  0
 41 42  2  0  0  0  0
 41 40  1  0  0  0  0
 42 43  1  0  0  0  0
 43 44  2  0  0  0  0
 43 50  1  0  0  0  0
 44 45  1  0  0  0  0
 45 46  1  0  0  0  0
 45 47  2  0  0  0  0
 47 48  1  0  0  0  0
 49 47  1  0  0  0  0
 50 49  2  0  0  0  0
M  END
>  <minimizedAffinity>
-6.49872208

$$$$

 OpenBabel03252507233D

 50 54  0  0  1  0  0  0  0  0999 V2000
   38.7820   30.7270   41.7480 C   0  0  0  0  0  0  0  0  0  0  0  0
   39.3890   30.4120   42.8070 O   0  0  0  0  0  0  0  0  0  0  0  0
   37.5030   30.2250   41.4000 N   0  0  0  0  0  0  0  0  0  0  0  0
   36.3180   30.9190   40.8660 C   0  0  0  0  0  0  0  0  0  0  0  0
   35.8140   30.1870   39.6340 C   0  0  0  0  0  0  0  0  0  0  0  0
   35.3360   28.8210   40.0120 C   0  0  0  0  0  0  0  0  0  0  0  0
   35.8250   28.4700   41.4040 C   0  0  0  0  0  0  0  0  0  0  0  0
   37.2820   28.8170   41.5900 C   0  0  2  0  0  0  0  0  0  0  0  0
   36.7030   31.9000   40.4760 H   0  0  0  0  0  0  0  0  0  0  0  0
   35.5380   31.0540   41.6230 H   0  0  0  0  0  0  0  0  0  0  0  0
   35.0310   30.8280   39.1910 H   0  0  0  0  0  0  0  0  0  0  0  0
   36.6640   30.0820   38.9380 H   0  0  0  0  0  0  0  0  0  0  0  0
   34.2130   28.8800   40.0910 H   0  0  0  0  0  0  0  0  0  0  0  0
   35.5390   28.0340   39.2730 H   0  0  0  0  0  0  0  0  0  0  0  0
   35.6330   27.4160   41.6070 H   0  0  0  0  0  0  0  0  0  0  0  0
   35.2280   29.0780   42.1160 H   0  0  0  0  0  0  0  0  0  0  0  0
   37.8230   28.3000   40.7570 H   0  0  0  0  0  0  0  0  0  0  0  0
   39.2430   33.0320   41.0550 C   0  0  0  0  0  0  0  0  0  0  0  0
   39.4280   31.6480   40.8420 C   0  0  0  0  0  0  0  0  0  0  0  0
   40.2100   31.2180   39.7870 C   0  0  0  0  0  0  0  0  0  0  0  0
   40.7760   32.1440   38.9910 N   0  0  0  0  0  0  0  0  0  0  0  0
   40.6080   33.4820   39.1830 C   0  0  0  0  0  0  0  0  0  0  0  0
   39.8390   33.8990   40.2180 N   0  0  0  0  0  0  0  0  0  0  0  0
   38.6300   33.3690   41.8810 H   0  0  0  0  0  0  0  0  0  0  0  0
   41.0940   34.1720   38.5010 H   0  0  0  0  0  0  0  0  0  0  0  0
   40.3830   29.7860   39.5900 C   0  0  0  0  0  0  0  0  0  0  0  0
   41.4240   29.1350   40.1730 C   0  0  0  0  0  0  0  0  0  0  0  0
   41.5560   27.7740   39.9620 C   0  0  0  0  0  0  0  0  0  0  0  0
   40.6670   27.0460   39.1810 C   0  0  0  0  0  0  0  0  0  0  0  0
   39.6270   27.7570   38.6130 C   0  0  0  0  0  0  0  0  0  0  0  0
   39.5200   29.0750   38.8290 N   0  0  0  0  0  0  0  0  0  0  0  0
   42.1670   29.6070   40.7940 H   0  0  0  0  0  0  0  0  0  0  0  0
   42.3780   27.2340   40.4180 H   0  0  0  0  0  0  0  0  0  0  0  0
   40.7440   25.9850   38.9990 H   0  0  0  0  0  0  0  0  0  0  0  0
   38.8620   27.3190   37.9810 H   0  0  0  0  0  0  0  0  0  0  0  0
   37.7200   28.3000   42.9170 C   0  0  0  0  0  0  0  0  0  0  0  0
   36.8260   28.1680   43.5500 H   0  0  0  0  0  0  0  0  0  0  0  0
   38.4460   28.8930   43.4750 H   0  0  0  0  0  0  0  0  0  0  0  0
   38.2820   26.8860   42.7650 C   0  0  0  0  0  0  0  0  0  0  0  0
   37.4750   25.8640   42.3560 N   0  0  0  0  0  0  0  0  0  0  0  0
   37.9430   24.6160   42.1790 C   0  0  0  0  0  3  0  0  0  0  0  0
   39.2550   24.3160   42.4050 N   0  0  0  0  0  0  0  0  0  0  0  0
   40.0810   25.3100   42.8120 C   0  0  0  0  0  0  0  0  0  0  0  0
   41.4010   24.9740   43.0390 C   0  0  0  0  0  3  0  0  0  0  0  0
   42.2560   25.9710   43.4640 C   0  0  0  0  0  0  0  0  0  0  0  0
   43.3010   25.7310   43.6480 H   0  0  0  0  0  0  0  0  0  0  0  0
   41.7910   27.2540   43.6490 C   0  0  0  0  0  0  0  0  0  0  0  0
   42.4990   28.0130   43.9860 H   0  0  0  0  0  0  0  0  0  0  0  0
   40.4550   27.6060   43.4210 C   0  0  0  0  0  3  0  0  0  0  0  0
   39.6230   26.5910   42.9980 C   0  0  0  0  0  0  0  0  0  0  0  0
  1  2  2  0  0  0  0
  3  8  1  0  0  0  0
  3  1  1  0  0  0  0
  4  3  1  0  0  0  0
  4 10  1  0  0  0  0
  5  6  1  0  0  0  0
  5  4  1  0  0  0  0
  6 13  1  0  0  0  0
  6  7  1  0  0  0  0
  7  8  1  0  0  0  0
  7 15  1  0  0  0  0
  7 16  1  0  0  0  0
  8 17  1  6  0  0  0
  8 36  1  0  0  0  0
  9  4  1  0  0  0  0
 11  5  1  0  0  0  0
 12  5  1  0  0  0  0
 14  6  1  0  0  0  0
 18 24  1  0  0  0  0
 19 18  1  0  0  0  0
 19  1  1  0  0  0  0
 20 19  2  0  0  0  0
 21 22  2  0  0  0  0
 21 20  1  0  0  0  0
 22 23  1  0  0  0  0
 23 18  2  0  0  0  0
 25 22  1  0  0  0  0
 26 20  1  0  0  0  0
 26 27  1  0  0  0  0
 27 32  1  0  0  0  0
 28 27  2  0  0  0  0
 28 33  1  0  0  0  0
 29 28  1  0  0  0  0
 30 31  1  0  0  0  0
 30 29  2  0  0  0  0
 31 26  2  0  0  0  0
 34 29  1  0  0  0  0
 35 30  1  0  0  0  0
 36 38  1  0  0  0  0
 36 37  1  0  0  0  0
 39 36  1  0  0  0  0
 39 50  1  0  0  0  0
 40 39  2  0  0  0  0
 41 40  1  0  0  0  0
 41 42  2  0  0  0  0
 42 43  1  0  0  0  0
 43 50  2  0  0  0  0
 43 44  1  0  0  0  0
 44 45  2  0  0  0  0
 45 46  1  0  0  0  0
 45 47  1  0  0  0  0
 47 48  1  0  0  0  0
 49 47  2  0  0  0  0
 50 49  1  0  0  0  0
M  END
>  <minimizedAffinity>
-6.46127033

$$$$

 OpenBabel03252507233D

 50 54  0  0  1  0  0  0  0  0999 V2000
   39.5510   29.4290   40.0140 C   0  0  0  0  0  0  0  0  0  0  0  0
   39.4170   28.3630   39.3520 O   0  0  0  0  0  0  0  0  0  0  0  0
   38.6860   30.5440   39.8850 N   0  0  0  0  0  0  0  0  0  0  0  0
   38.0640   31.3940   40.9150 C   0  0  0  0  0  0  0  0  0  0  0  0
   38.3310   32.8550   40.5960 C   0  0  0  0  0  0  0  0  0  0  0  0
   37.6570   33.2290   39.3140 C   0  0  0  0  0  0  0  0  0  0  0  0
   37.2320   31.9770   38.5700 C   0  0  0  0  0  0  0  0  0  0  0  0
   38.3280   30.9390   38.5500 C   0  0  2  0  0  0  0  0  0  0  0  0
   38.6510   31.1960   41.8530 H   0  0  0  0  0  0  0  0  0  0  0  0
   36.9970   31.1800   41.0430 H   0  0  0  0  0  0  0  0  0  0  0  0
   37.9810   33.4320   41.4690 H   0  0  0  0  0  0  0  0  0  0  0  0
   39.4210   32.9750   40.4680 H   0  0  0  0  0  0  0  0  0  0  0  0
   36.7000   33.7560   39.5920 H   0  0  0  0  0  0  0  0  0  0  0  0
   38.2110   33.9370   38.6840 H   0  0  0  0  0  0  0  0  0  0  0  0
   36.9070   32.2400   37.5630 H   0  0  0  0  0  0  0  0  0  0  0  0
   36.3640   31.5570   39.1200 H   0  0  0  0  0  0  0  0  0  0  0  0
   39.2250   31.4570   38.1250 H   0  0  0  0  0  0  0  0  0  0  0  0
   41.8250   30.1740   40.5430 C   0  0  0  0  0  0  0  0  0  0  0  0
   40.6450   29.5130   40.9520 C   0  0  0  0  0  0  0  0  0  0  0  0
   40.5710   28.9720   42.2210 C   0  0  0  0  0  0  0  0  0  0  0  0
   41.6380   29.0960   43.0340 N   0  0  0  0  0  0  0  0  0  0  0  0
   42.7820   29.7300   42.6530 C   0  0  0  0  0  0  0  0  0  0  0  0
   42.8500   30.2590   41.4080 N   0  0  0  0  0  0  0  0  0  0  0  0
   41.8830   30.5980   39.5480 H   0  0  0  0  0  0  0  0  0  0  0  0
   43.6030   29.7920   43.3600 H   0  0  0  0  0  0  0  0  0  0  0  0
   39.3440   28.2960   42.6170 C   0  0  0  0  0  0  0  0  0  0  0  0
   38.3920   28.9610   43.3220 C   0  0  0  0  0  0  0  0  0  0  0  0
   37.2390   28.2850   43.6800 C   0  0  0  0  0  0  0  0  0  0  0  0
   37.0150   26.9540   43.3480 C   0  0  0  0  0  0  0  0  0  0  0  0
   38.0160   26.3260   42.6320 C   0  0  0  0  0  0  0  0  0  0  0  0
   39.1250   27.0000   42.2960 N   0  0  0  0  0  0  0  0  0  0  0  0
   38.4690   29.9910   43.6280 H   0  0  0  0  0  0  0  0  0  0  0  0
   36.4650   28.7960   44.2410 H   0  0  0  0  0  0  0  0  0  0  0  0
   36.1270   26.4020   43.6130 H   0  0  0  0  0  0  0  0  0  0  0  0
   37.9760   25.2920   42.3070 H   0  0  0  0  0  0  0  0  0  0  0  0
   37.8910   29.8160   37.6730 C   0  0  0  0  0  0  0  0  0  0  0  0
   38.4550   28.9120   37.9590 H   0  0  0  0  0  0  0  0  0  0  0  0
   37.9900   29.9500   36.5940 H   0  0  0  0  0  0  0  0  0  0  0  0
   36.4340   29.4590   37.9730 C   0  0  0  0  0  0  0  0  0  0  0  0
   36.0240   29.2610   39.2600 N   0  0  0  0  0  0  0  0  0  0  0  0
   34.7460   28.9790   39.5630 C   0  0  0  0  0  3  0  0  0  0  0  0
   33.7960   28.8760   38.5880 N   0  0  0  0  0  0  0  0  0  0  0  0
   34.1730   29.0680   37.3000 C   0  0  0  0  0  0  0  0  0  0  0  0
   33.1910   28.9490   36.3370 C   0  0  0  0  0  3  0  0  0  0  0  0
   33.5570   29.1310   35.0180 C   0  0  0  0  0  0  0  0  0  0  0  0
   32.8010   29.0450   34.2400 H   0  0  0  0  0  0  0  0  0  0  0  0
   34.8640   29.4210   34.6930 C   0  0  0  0  0  0  0  0  0  0  0  0
   35.1120   29.5570   33.6390 H   0  0  0  0  0  0  0  0  0  0  0  0
   35.8660   29.5430   35.6620 C   0  0  0  0  0  3  0  0  0  0  0  0
   35.4730   29.3570   36.9700 C   0  0  0  0  0  0  0  0  0  0  0  0
  1 19  1  0  0  0  0
  2  1  2  0  0  0  0
  3  1  1  0  0  0  0
  3  4  1  0  0  0  0
  4 10  1  0  0  0  0
  4  9  1  0  0  0  0
  5  4  1  0  0  0  0
  5 11  1  0  0  0  0
  6 13  1  0  0  0  0
  6  5  1  0  0  0  0
  7 16  1  0  0  0  0
  7  6  1  0  0  0  0
  8 17  1  6  0  0  0
  8  7  1  0  0  0  0
  8  3  1  0  0  0  0
 12  5  1  0  0  0  0
 14  6  1  0  0  0  0
 15  7  1  0  0  0  0
 18 19  2  0  0  0  0
 18 23  1  0  0  0  0
 19 20  1  0  0  0  0
 20 26  1  0  0  0  0
 20 21  2  0  0  0  0
 22 21  1  0  0  0  0
 22 25  1  0  0  0  0
 23 22  2  0  0  0  0
 24 18  1  0  0  0  0
 26 27  1  0  0  0  0
 27 32  1  0  0  0  0
 27 28  2  0  0  0  0
 28 33  1  0  0  0  0
 29 34  1  0  0  0  0
 29 28  1  0  0  0  0
 30 29  2  0  0  0  0
 31 26  2  0  0  0  0
 31 30  1  0  0  0  0
 35 30  1  0  0  0  0
 36 37  1  0  0  0  0
 36 39  1  0  0  0  0
 36  8  1  0  0  0  0
 38 36  1  0  0  0  0
 39 40  1  0  0  0  0
 40 41  2  0  0  0  0
 42 41  1  0  0  0  0
 43 42  2  0  0  0  0
 44 43  1  0  0  0  0
 45 44  2  0  0  0  0
 46 45  1  0  0  0  0
 47 45  1  0  0  0  0
 47 49  2  0  0  0  0
 48 47  1  0  0  0  0
 49 50  1  0  0  0  0
 50 43  1  0  0  0  0
 50 39  2  0  0  0  0
M  END
>  <minimizedAffinity>
-6.27162933

$$$$

 OpenBabel03252507233D

 50 54  0  0  1  0  0  0  0  0999 V2000
   39.6760   29.4450   39.8250 C   0  0  0  0  0  0  0  0  0  0  0  0
   39.3330   28.5360   39.0200 O   0  0  0  0  0  0  0  0  0  0  0  0
   40.7860   29.3380   40.6980 N   0  0  0  0  0  0  0  0  0  0  0  0
   41.8460   30.3100   41.0190 C   0  0  0  0  0  0  0  0  0  0  0  0
   41.9700   30.4470   42.5260 C   0  0  0  0  0  0  0  0  0  0  0  0
   42.4270   29.1530   43.1210 C   0  0  0  0  0  0  0  0  0  0  0  0
   42.2790   28.0380   42.1040 C   0  0  0  0  0  0  0  0  0  0  0  0
   40.9450   28.0940   41.4010 C   0  0  2  0  0  0  0  0  0  0  0  0
   41.4480   31.3030   40.6740 H   0  0  0  0  0  0  0  0  0  0  0  0
   42.8000   30.0600   40.5400 H   0  0  0  0  0  0  0  0  0  0  0  0
   42.6600   31.2900   42.7050 H   0  0  0  0  0  0  0  0  0  0  0  0
   40.9670   30.6810   42.9240 H   0  0  0  0  0  0  0  0  0  0  0  0
   43.5350   29.2530   43.3040 H   0  0  0  0  0  0  0  0  0  0  0  0
   41.9880   28.9070   44.0970 H   0  0  0  0  0  0  0  0  0  0  0  0
   42.4400   27.0740   42.5890 H   0  0  0  0  0  0  0  0  0  0  0  0
   43.0780   28.1860   41.3480 H   0  0  0  0  0  0  0  0  0  0  0  0
   40.1760   28.0930   42.2150 H   0  0  0  0  0  0  0  0  0  0  0  0
   39.2620   31.7130   38.9940 C   0  0  0  0  0  0  0  0  0  0  0  0
   38.8910   30.6570   39.8560 C   0  0  0  0  0  0  0  0  0  0  0  0
   37.8040   30.8100   40.6940 C   0  0  0  0  0  0  0  0  0  0  0  0
   37.1280   31.9740   40.6590 N   0  0  0  0  0  0  0  0  0  0  0  0
   37.4730   33.0010   39.8340 C   0  0  0  0  0  0  0  0  0  0  0  0
   38.5400   32.8460   39.0130 N   0  0  0  0  0  0  0  0  0  0  0  0
   40.1140   31.5930   38.3360 H   0  0  0  0  0  0  0  0  0  0  0  0
   36.8820   33.9110   39.8590 H   0  0  0  0  0  0  0  0  0  0  0  0
   37.4450   29.7070   41.5730 C   0  0  0  0  0  0  0  0  0  0  0  0
   36.5150   28.7960   41.1840 C   0  0  0  0  0  0  0  0  0  0  0  0
   36.2000   27.7610   42.0470 C   0  0  0  0  0  0  0  0  0  0  0  0
   36.7940   27.6150   43.2940 C   0  0  0  0  0  0  0  0  0  0  0  0
   37.7320   28.5700   43.6390 C   0  0  0  0  0  0  0  0  0  0  0  0
   38.0220   29.5640   42.7880 N   0  0  0  0  0  0  0  0  0  0  0  0
   35.9960   28.8200   40.2400 H   0  0  0  0  0  0  0  0  0  0  0  0
   35.4620   27.0210   41.7560 H   0  0  0  0  0  0  0  0  0  0  0  0
   36.5700   26.8190   43.9870 H   0  0  0  0  0  0  0  0  0  0  0  0
   38.2740   28.5800   44.5790 H   0  0  0  0  0  0  0  0  0  0  0  0
   40.8190   26.8820   40.5420 C   0  0  0  0  0  0  0  0  0  0  0  0
   41.8140   26.4160   40.4520 H   0  0  0  0  0  0  0  0  0  0  0  0
   40.4150   27.0170   39.5370 H   0  0  0  0  0  0  0  0  0  0  0  0
   39.9730   25.8250   41.2540 C   0  0  0  0  0  0  0  0  0  0  0  0
   40.4010   25.2770   42.4290 N   0  0  0  0  0  0  0  0  0  0  0  0
   39.6680   24.3700   43.0980 C   0  0  0  0  0  3  0  0  0  0  0  0
   38.4560   23.9560   42.6260 N   0  0  0  0  0  0  0  0  0  0  0  0
   38.0040   24.4830   41.4620 C   0  0  0  0  0  0  0  0  0  0  0  0
   36.7790   24.0380   41.0080 C   0  0  0  0  0  3  0  0  0  0  0  0
   36.3050   24.5560   39.8180 C   0  0  0  0  0  0  0  0  0  0  0  0
   35.3420   24.2230   39.4400 H   0  0  0  0  0  0  0  0  0  0  0  0
   37.0460   25.4860   39.1220 C   0  0  0  0  0  0  0  0  0  0  0  0
   36.6370   25.8700   38.1850 H   0  0  0  0  0  0  0  0  0  0  0  0
   38.2890   25.9430   39.5740 C   0  0  0  0  0  3  0  0  0  0  0  0
   38.7370   25.4100   40.7630 C   0  0  0  0  0  0  0  0  0  0  0  0
  1 19  1  0  0  0  0
  1  3  1  0  0  0  0
  2  1  2  0  0  0  0
  3  4  1  0  0  0  0
  3  8  1  0  0  0  0
  4  5  1  0  0  0  0
  5 11  1  0  0  0  0
  5 12  1  0  0  0  0
  5  6  1  0  0  0  0
  6 13  1  0  0  0  0
  6 14  1  0  0  0  0
  7 15  1  0  0  0  0
  7  6  1  0  0  0  0
  8  7  1  0  0  0  0
  8 17  1  1  0  0  0
  9  4  1  0  0  0  0
 10  4  1  0  0  0  0
 16  7  1  0  0  0  0
 18 23  2  0  0  0  0
 18 19  1  0  0  0  0
 19 20  2  0  0  0  0
 20 26  1  0  0  0  0
 21 20  1  0  0  0  0
 22 25  1  0  0  0  0
 22 21  2  0  0  0  0
 23 22  1  0  0  0  0
 24 18  1  0  0  0  0
 26 31  1  0  0  0  0
 27 26  2  0  0  0  0
 27 28  1  0  0  0  0
 28 29  2  0  0  0  0
 29 30  1  0  0  0  0
 29 34  1  0  0  0  0
 30 35  1  0  0  0  0
 31 30  2  0  0  0  0
 32 27  1  0  0  0  0
 33 28  1  0  0  0  0
 36 39  1  0  0  0  0
 36  8  1  0  0  0  0
 37 36  1  0  0  0  0
 38 36  1  0  0  0  0
 39 40  1  0  0  0  0
 40 41  2  0  0  0  0
 42 41  1  0  0  0  0
 43 42  2  0  0  0  0
 44 43  1  0  0  0  0
 45 44  2  0  0  0  0
 46 45  1  0  0  0  0
 47 49  2  0  0  0  0
 47 45  1  0  0  0  0
 48 47  1  0  0  0  0
 49 50  1  0  0  0  0
 50 39  2  0  0  0  0
 50 43  1  0  0  0  0
M  END
>  <minimizedAffinity>
-6.22953463

$$$$

 OpenBabel03252507233D

 50 54  0  0  1  0  0  0  0  0999 V2000
   37.0860   30.9900   40.2540 C   0  0  0  0  0  0  0  0  0  0  0  0
   36.5280   30.8210   41.3720 O   0  0  0  0  0  0  0  0  0  0  0  0
   36.7920   30.2130   39.1070 N   0  0  0  0  0  0  0  0  0  0  0  0
   36.5630   30.6210   37.7100 C   0  0  0  0  0  0  0  0  0  0  0  0
   37.4440   29.7940   36.7890 C   0  0  0  0  0  0  0  0  0  0  0  0
   37.0390   28.3550   36.8520 C   0  0  0  0  0  0  0  0  0  0  0  0
   36.1410   28.1250   38.0520 C   0  0  0  0  0  0  0  0  0  0  0  0
   36.6830   28.7920   39.2940 C   0  0  2  0  0  0  0  0  0  0  0  0
   36.9760   31.6640   37.6370 H   0  0  0  0  0  0  0  0  0  0  0  0
   35.5050   30.5770   37.4300 H   0  0  0  0  0  0  0  0  0  0  0  0
   37.3490   30.2420   35.7840 H   0  0  0  0  0  0  0  0  0  0  0  0
   38.4830   29.8830   37.1520 H   0  0  0  0  0  0  0  0  0  0  0  0
   36.3940   28.1590   35.9480 H   0  0  0  0  0  0  0  0  0  0  0  0
   37.8650   27.6350   36.7870 H   0  0  0  0  0  0  0  0  0  0  0  0
   35.9950   27.0540   38.2010 H   0  0  0  0  0  0  0  0  0  0  0  0
   35.1600   28.5830   37.8110 H   0  0  0  0  0  0  0  0  0  0  0  0
   37.7290   28.4090   39.4080 H   0  0  0  0  0  0  0  0  0  0  0  0
   37.6340   33.3690   40.0410 C   0  0  0  0  0  0  0  0  0  0  0  0
   38.0790   32.0330   40.1410 C   0  0  0  0  0  0  0  0  0  0  0  0
   39.4340   31.7620   40.1280 C   0  0  0  0  0  0  0  0  0  0  0  0
   40.2920   32.7950   40.0200 N   0  0  0  0  0  0  0  0  0  0  0  0
   39.8780   34.0890   39.9220 C   0  0  0  0  0  0  0  0  0  0  0  0
   38.5480   34.3490   39.9350 N   0  0  0  0  0  0  0  0  0  0  0  0
   36.5710   33.5820   40.0510 H   0  0  0  0  0  0  0  0  0  0  0  0
   40.6260   34.8700   39.8370 H   0  0  0  0  0  0  0  0  0  0  0  0
   39.8660   30.3760   40.2330 C   0  0  0  0  0  0  0  0  0  0  0  0
   40.0870   29.6410   39.1120 C   0  0  0  0  0  0  0  0  0  0  0  0
   40.4980   28.3270   39.2520 C   0  0  0  0  0  0  0  0  0  0  0  0
   40.6930   27.7290   40.4900 C   0  0  0  0  0  0  0  0  0  0  0  0
   40.4530   28.5220   41.5970 C   0  0  0  0  0  0  0  0  0  0  0  0
   40.0560   29.7920   41.4380 N   0  0  0  0  0  0  0  0  0  0  0  0
   39.9640   30.0100   38.1070 H   0  0  0  0  0  0  0  0  0  0  0  0
   40.6820   27.7220   38.3710 H   0  0  0  0  0  0  0  0  0  0  0  0
   41.0130   26.7080   40.6300 H   0  0  0  0  0  0  0  0  0  0  0  0
   40.5650   28.1870   42.6230 H   0  0  0  0  0  0  0  0  0  0  0  0
   35.8340   28.3870   40.4490 C   0  0  0  0  0  0  0  0  0  0  0  0
   35.1500   27.5890   40.1150 H   0  0  0  0  0  0  0  0  0  0  0  0
   35.2380   29.1620   40.9340 H   0  0  0  0  0  0  0  0  0  0  0  0
   36.6960   27.7160   41.5190 C   0  0  0  0  0  0  0  0  0  0  0  0
   37.0360   28.3930   42.6550 N   0  0  0  0  0  0  0  0  0  0  0  0
   37.7650   27.8230   43.6310 C   0  0  0  0  0  3  0  0  0  0  0  0
   38.2000   26.5330   43.5240 N   0  0  0  0  0  0  0  0  0  0  0  0
   37.8780   25.8350   42.4080 C   0  0  0  0  0  0  0  0  0  0  0  0
   38.3390   24.5370   42.3270 C   0  0  0  0  0  3  0  0  0  0  0  0
   38.0300   23.8120   41.1930 C   0  0  0  0  0  0  0  0  0  0  0  0
   38.3800   22.7860   41.1060 H   0  0  0  0  0  0  0  0  0  0  0  0
   37.2840   24.3840   40.1860 C   0  0  0  0  0  0  0  0  0  0  0  0
   37.0620   23.7780   39.3050 H   0  0  0  0  0  0  0  0  0  0  0  0
   36.8120   25.6990   40.2580 C   0  0  0  0  0  3  0  0  0  0  0  0
   37.1350   26.3990   41.4000 C   0  0  0  0  0  0  0  0  0  0  0  0
  1  2  2  0  0  0  0
  3  8  1  0  0  0  0
  3  1  1  0  0  0  0
  4  3  1  0  0  0  0
  5  6  1  0  0  0  0
  5 12  1  0  0  0  0
  5  4  1  0  0  0  0
  6  7  1  0  0  0  0
  7 15  1  0  0  0  0
  7  8  1  0  0  0  0
  8 17  1  1  0  0  0
  8 36  1  0  0  0  0
  9  4  1  0  0  0  0
 10  4  1  0  0  0  0
 11  5  1  0  0  0  0
 13  6  1  0  0  0  0
 14  6  1  0  0  0  0
 16  7  1  0  0  0  0
 18 24  1  0  0  0  0
 18 19  1  0  0  0  0
 19  1  1  0  0  0  0
 20 19  2  0  0  0  0
 20 26  1  0  0  0  0
 21 20  1  0  0  0  0
 22 23  1  0  0  0  0
 22 21  2  0  0  0  0
 23 18  2  0  0  0  0
 25 22  1  0  0  0  0
 26 31  1  0  0  0  0
 27 28  1  0  0  0  0
 27 26  2  0  0  0  0
 28 29  2  0  0  0  0
 29 34  1  0  0  0  0
 29 30  1  0  0  0  0
 30 35  1  0  0  0  0
 31 30  2  0  0  0  0
 32 27  1  0  0  0  0
 33 28  1  0  0  0  0
 36 38  1  0  0  0  0
 36 39  1  0  0  0  0
 37 36  1  0  0  0  0
 39 40  1  0  0  0  0
 40 41  2  0  0  0  0
 42 41  1  0  0  0  0
 43 42  2  0  0  0  0
 44 43  1  0  0  0  0
 45 44  2  0  0  0  0
 46 45  1  0  0  0  0
 47 49  2  0  0  0  0
 47 45  1  0  0  0  0
 48 47  1  0  0  0  0
 49 50  1  0  0  0  0
 50 39  2  0  0  0  0
 50 43  1  0  0  0  0
M  END
>  <minimizedAffinity>
-6.22652006

$$$$

 OpenBabel03252507233D

 50 54  0  0  1  0  0  0  0  0999 V2000
   37.7200   26.9170   39.0330 C   0  0  0  0  0  0  0  0  0  0  0  0
   38.8590   26.7850   38.5080 O   0  0  0  0  0  0  0  0  0  0  0  0
   37.1430   28.1730   39.3430 N   0  0  0  0  0  0  0  0  0  0  0  0
   35.7770   28.6790   39.1180 C   0  0  0  0  0  0  0  0  0  0  0  0
   35.2280   29.2530   40.4120 C   0  0  0  0  0  0  0  0  0  0  0  0
   36.0300   30.4480   40.8220 C   0  0  0  0  0  0  0  0  0  0  0  0
   37.3240   30.4940   40.0330 C   0  0  0  0  0  0  0  0  0  0  0  0
   37.9950   29.1430   39.9760 C   0  0  2  0  0  0  0  0  0  0  0  0
   35.1530   27.7640   38.9250 H   0  0  0  0  0  0  0  0  0  0  0  0
   35.7280   29.3930   38.2880 H   0  0  0  0  0  0  0  0  0  0  0  0
   34.1620   29.4720   40.2280 H   0  0  0  0  0  0  0  0  0  0  0  0
   35.3310   28.4770   41.1910 H   0  0  0  0  0  0  0  0  0  0  0  0
   35.4460   31.3560   40.5000 H   0  0  0  0  0  0  0  0  0  0  0  0
   36.1800   30.5610   41.9030 H   0  0  0  0  0  0  0  0  0  0  0  0
   37.9840   31.2540   40.4540 H   0  0  0  0  0  0  0  0  0  0  0  0
   37.0580   30.7960   38.9980 H   0  0  0  0  0  0  0  0  0  0  0  0
   38.1050   28.8170   41.0410 H   0  0  0  0  0  0  0  0  0  0  0  0
   36.2470   25.1070   38.2840 C   0  0  0  0  0  0  0  0  0  0  0  0
   36.9670   25.7220   39.3330 C   0  0  0  0  0  0  0  0  0  0  0  0
   36.9300   25.1720   40.6000 C   0  0  0  0  0  0  0  0  0  0  0  0
   36.2030   24.0550   40.7930 N   0  0  0  0  0  0  0  0  0  0  0  0
   35.5040   23.4510   39.7920 C   0  0  0  0  0  0  0  0  0  0  0  0
   35.5420   23.9940   38.5510 N   0  0  0  0  0  0  0  0  0  0  0  0
   36.2760   25.5370   37.2910 H   0  0  0  0  0  0  0  0  0  0  0  0
   34.9390   22.5530   40.0200 H   0  0  0  0  0  0  0  0  0  0  0  0
   37.6800   25.8270   41.6620 C   0  0  0  0  0  0  0  0  0  0  0  0
   37.0690   26.7240   42.4790 C   0  0  0  0  0  0  0  0  0  0  0  0
   37.8150   27.3250   43.4780 C   0  0  0  0  0  0  0  0  0  0  0  0
   39.1610   27.0490   43.6800 C   0  0  0  0  0  0  0  0  0  0  0  0
   39.7320   26.1290   42.8200 C   0  0  0  0  0  0  0  0  0  0  0  0
   38.9910   25.5600   41.8600 N   0  0  0  0  0  0  0  0  0  0  0  0
   36.0320   27.0080   42.4060 H   0  0  0  0  0  0  0  0  0  0  0  0
   37.3480   28.0430   44.1430 H   0  0  0  0  0  0  0  0  0  0  0  0
   39.7670   27.5010   44.4500 H   0  0  0  0  0  0  0  0  0  0  0  0
   40.7710   25.8190   42.8610 H   0  0  0  0  0  0  0  0  0  0  0  0
   39.3250   29.3090   39.3250 C   0  0  0  0  0  0  0  0  0  0  0  0
   39.1640   29.5270   38.2560 H   0  0  0  0  0  0  0  0  0  0  0  0
   40.0300   28.4800   39.4000 H   0  0  0  0  0  0  0  0  0  0  0  0
   40.0140   30.5650   39.8620 C   0  0  0  0  0  0  0  0  0  0  0  0
   39.8060   31.7740   39.2630 N   0  0  0  0  0  0  0  0  0  0  0  0
   40.3690   32.9030   39.7290 C   0  0  0  0  0  3  0  0  0  0  0  0
   41.1780   32.8870   40.8280 N   0  0  0  0  0  0  0  0  0  0  0  0
   41.4020   31.7010   41.4450 C   0  0  0  0  0  0  0  0  0  0  0  0
   42.2300   31.7170   42.5490 C   0  0  0  0  0  3  0  0  0  0  0  0
   42.4790   30.5170   43.1850 C   0  0  0  0  0  0  0  0  0  0  0  0
   43.1270   30.5030   44.0590 H   0  0  0  0  0  0  0  0  0  0  0  0
   41.9090   29.3520   42.7190 C   0  0  0  0  0  0  0  0  0  0  0  0
   42.1320   28.4250   43.2500 H   0  0  0  0  0  0  0  0  0  0  0  0
   41.0680   29.3260   41.6010 C   0  0  0  0  0  3  0  0  0  0  0  0
   40.8380   30.5370   40.9850 C   0  0  0  0  0  0  0  0  0  0  0  0
  1 19  1  0  0  0  0
  1  3  1  0  0  0  0
  2  1  2  0  0  0  0
  3  8  1  0  0  0  0
  4  3  1  0  0  0  0
  4  5  1  0  0  0  0
  5  6  1  0  0  0  0
  5 12  1  0  0  0  0
  6 14  1  0  0  0  0
  7 15  1  0  0  0  0
  7  6  1  0  0  0  0
  8  7  1  0  0  0  0
  8 17  1  1  0  0  0
  9  4  1  0  0  0  0
 10  4  1  0  0  0  0
 11  5  1  0  0  0  0
 13  6  1  0  0  0  0
 16  7  1  0  0  0  0
 18 23  2  0  0  0  0
 18 19  1  0  0  0  0
 19 20  2  0  0  0  0
 20 21  1  0  0  0  0
 20 26  1  0  0  0  0
 22 25  1  0  0  0  0
 22 21  2  0  0  0  0
 23 22  1  0  0  0  0
 24 18  1  0  0  0  0
 26 31  2  0  0  0  0
 26 27  1  0  0  0  0
 27 28  2  0  0  0  0
 28 29  1  0  0  0  0
 28 33  1  0  0  0  0
 29 34  1  0  0  0  0
 30 35  1  0  0  0  0
 30 29  2  0  0  0  0
 31 30  1  0  0  0  0
 32 27  1  0  0  0  0
 36 38  1  0  0  0  0
 36 39  1  0  0  0  0
 36  8  1  0  0  0  0
 37 36  1  0  0  0  0
 39 50  1  0  0  0  0
 40 41  1  0  0  0  0
 40 39  2  0  0  0  0
 41 42  2  0  0  0  0
 42 43  1  0  0  0  0
 43 44  1  0  0  0  0
 44 45  2  0  0  0  0
 45 46  1  0  0  0  0
 47 45  1  0  0  0  0
 47 48  1  0  0  0  0
 49 47  2  0  0  0  0
 50 43  2  0  0  0  0
 50 49  1  0  0  0  0
M  END
>  <minimizedAffinity>
-6.2159462

$$$$

 OpenBabel03252507233D

 50 54  0  0  1  0  0  0  0  0999 V2000
   36.6100   29.8680   40.7100 C   0  0  0  0  0  0  0  0  0  0  0  0
   36.7520   31.0840   41.0140 O   0  0  0  0  0  0  0  0  0  0  0  0
   37.1650   28.8040   41.4620 N   0  0  0  0  0  0  0  0  0  0  0  0
   36.5680   27.5280   41.8960 C   0  0  0  0  0  0  0  0  0  0  0  0
   37.4860   26.3810   41.5090 C   0  0  0  0  0  0  0  0  0  0  0  0
   38.7780   26.4870   42.2570 C   0  0  0  0  0  0  0  0  0  0  0  0
   38.9030   27.8660   42.8750 C   0  0  0  0  0  0  0  0  0  0  0  0
   38.5260   28.9540   41.8990 C   0  0  2  0  0  0  0  0  0  0  0  0
   35.6580   27.3940   41.2490 H   0  0  0  0  0  0  0  0  0  0  0  0
   36.3180   27.5250   42.9630 H   0  0  0  0  0  0  0  0  0  0  0  0
   36.9260   25.4520   41.7150 H   0  0  0  0  0  0  0  0  0  0  0  0
   37.6960   26.4710   40.4290 H   0  0  0  0  0  0  0  0  0  0  0  0
   38.7110   25.7700   43.1240 H   0  0  0  0  0  0  0  0  0  0  0  0
   39.6700   26.1860   41.6920 H   0  0  0  0  0  0  0  0  0  0  0  0
   39.9130   28.0050   43.2630 H   0  0  0  0  0  0  0  0  0  0  0  0
   38.1930   27.9010   43.7280 H   0  0  0  0  0  0  0  0  0  0  0  0
   39.1660   28.7840   40.9970 H   0  0  0  0  0  0  0  0  0  0  0  0
   34.4800   29.2040   39.6950 C   0  0  0  0  0  0  0  0  0  0  0  0
   35.8400   29.5480   39.5310 C   0  0  0  0  0  0  0  0  0  0  0  0
   36.3910   29.5680   38.2640 C   0  0  0  0  0  0  0  0  0  0  0  0
   35.6020   29.2560   37.2180 N   0  0  0  0  0  0  0  0  0  0  0  0
   34.2890   28.9230   37.3610 C   0  0  0  0  0  0  0  0  0  0  0  0
   33.7540   28.9040   38.6050 N   0  0  0  0  0  0  0  0  0  0  0  0
   34.0480   29.1890   40.6890 H   0  0  0  0  0  0  0  0  0  0  0  0
   33.7130   28.6830   36.4730 H   0  0  0  0  0  0  0  0  0  0  0  0
   37.7950   29.9250   38.1230 C   0  0  0  0  0  0  0  0  0  0  0  0
   38.1480   31.1870   37.7670 C   0  0  0  0  0  0  0  0  0  0  0  0
   39.4930   31.4890   37.6430 C   0  0  0  0  0  0  0  0  0  0  0  0
   40.4960   30.5540   37.8680 C   0  0  0  0  0  0  0  0  0  0  0  0
   40.0810   29.2860   38.2270 C   0  0  0  0  0  0  0  0  0  0  0  0
   38.7730   29.0160   38.3410 N   0  0  0  0  0  0  0  0  0  0  0  0
   37.4500   31.9840   37.5690 H   0  0  0  0  0  0  0  0  0  0  0  0
   39.7990   32.4900   37.3610 H   0  0  0  0  0  0  0  0  0  0  0  0
   41.5520   30.7600   37.7800 H   0  0  0  0  0  0  0  0  0  0  0  0
   40.7530   28.4600   38.4330 H   0  0  0  0  0  0  0  0  0  0  0  0
   38.8260   30.2710   42.5300 C   0  0  0  0  0  0  0  0  0  0  0  0
   38.9940   30.1090   43.6080 H   0  0  0  0  0  0  0  0  0  0  0  0
   38.0860   31.0650   42.4170 H   0  0  0  0  0  0  0  0  0  0  0  0
   40.1670   30.7990   42.0180 C   0  0  0  0  0  0  0  0  0  0  0  0
   41.3120   30.0820   42.2170 N   0  0  0  0  0  0  0  0  0  0  0  0
   42.5020   30.5000   41.7520 C   0  0  0  0  0  3  0  0  0  0  0  0
   42.6160   31.6690   41.0560 N   0  0  0  0  0  0  0  0  0  0  0  0
   41.4970   32.4020   40.8410 C   0  0  0  0  0  0  0  0  0  0  0  0
   41.6470   33.5820   40.1410 C   0  0  0  0  0  3  0  0  0  0  0  0
   40.5200   34.3490   39.9200 C   0  0  0  0  0  0  0  0  0  0  0  0
   40.6120   35.2820   39.3690 H   0  0  0  0  0  0  0  0  0  0  0  0
   39.2940   33.9330   40.3910 C   0  0  0  0  0  0  0  0  0  0  0  0
   38.4280   34.5680   40.1970 H   0  0  0  0  0  0  0  0  0  0  0  0
   39.1310   32.7380   41.1020 C   0  0  0  0  0  3  0  0  0  0  0  0
   40.2720   31.9940   41.3080 C   0  0  0  0  0  0  0  0  0  0  0  0
  1  2  2  0  0  0  0
  1  3  1  0  0  0  0
  3  4  1  0  0  0  0
  3  8  1  0  0  0  0
  4 10  1  0  0  0  0
  5 11  1  0  0  0  0
  5  4  1  0  0  0  0
  5  6  1  0  0  0  0
  6  7  1  0  0  0  0
  6 13  1  0  0  0  0
  7 15  1  0  0  0  0
  7 16  1  0  0  0  0
  8 17  1  6  0  0  0
  8 36  1  0  0  0  0
  8  7  1  0  0  0  0
  9  4  1  0  0  0  0
 12  5  1  0  0  0  0
 14  6  1  0  0  0  0
 18 24  1  0  0  0  0
 19 18  1  0  0  0  0
 19  1  1  0  0  0  0
 20 19  2  0  0  0  0
 21 22  2  0  0  0  0
 21 20  1  0  0  0  0
 22 23  1  0  0  0  0
 23 18  2  0  0  0  0
 25 22  1  0  0  0  0
 26 20  1  0  0  0  0
 26 31  1  0  0  0  0
 27 26  2  0  0  0  0
 28 27  1  0  0  0  0
 28 29  2  0  0  0  0
 29 30  1  0  0  0  0
 30 31  2  0  0  0  0
 30 35  1  0  0  0  0
 32 27  1  0  0  0  0
 33 28  1  0  0  0  0
 34 29  1  0  0  0  0
 36 37  1  0  0  0  0
 38 36  1  0  0  0  0
 39 40  1  0  0  0  0
 39 36  1  0  0  0  0
 41 40  2  0  0  0  0
 42 41  1  0  0  0  0
 43 42  2  0  0  0  0
 43 50  1  0  0  0  0
 44 43  1  0  0  0  0
 45 44  2  0  0  0  0
 45 47  1  0  0  0  0
 46 45  1  0  0  0  0
 47 49  2  0  0  0  0
 48 47  1  0  0  0  0
 49 50  1  0  0  0  0
 50 39  2  0  0  0  0
M  END
>  <minimizedAffinity>
-6.15312576

$$$$
