
 OpenBabel03242511103D

 46 51  0  0  1  0  0  0  0  0999 V2000
   37.6470   29.5280   41.8500 C   0  0  0  0  0  0  0  0  0  0  0  0
   36.5440   28.7640   42.1890 C   0  0  0  0  0  0  0  0  0  0  0  0
   36.6210   27.5870   42.9260 C   0  0  0  0  0  0  0  0  0  0  0  0
   37.8530   27.1380   43.3530 C   0  0  0  0  0  0  0  0  0  0  0  0
   38.9580   27.8650   43.0380 C   0  0  0  0  0  0  0  0  0  0  0  0
   40.2120   27.4350   43.4450 C   0  0  0  0  0  0  0  0  0  0  0  0
   41.3660   28.1070   43.1550 C   0  0  0  0  0  0  0  0  0  0  0  0
   41.2320   29.2670   42.4150 C   0  0  0  0  0  0  0  0  0  0  0  0
   39.9810   29.6980   42.0090 C   0  0  0  0  0  0  0  0  0  0  0  0
   38.8340   29.0260   42.3030 C   0  0  0  0  0  0  0  0  0  0  0  0
   35.5190   28.9950   41.9260 H   0  0  0  0  0  0  0  0  0  0  0  0
   35.7720   26.9830   43.1940 H   0  0  0  0  0  0  0  0  0  0  0  0
   37.9200   26.2130   43.9270 H   0  0  0  0  0  0  0  0  0  0  0  0
   40.2500   26.5240   44.0150 H   0  0  0  0  0  0  0  0  0  0  0  0
   42.3110   27.7150   43.5040 H   0  0  0  0  0  0  0  0  0  0  0  0
   42.1940   29.7530   42.2240 H   0  0  0  0  0  0  0  0  0  0  0  0
   40.1160   30.9420   41.2580 C   0  0  0  0  0  0  0  0  0  0  0  0
   39.9400   32.2360   41.4970 N   0  0  0  0  0  0  0  0  0  0  0  0
   40.1070   33.1900   40.5920 C   0  0  0  0  0  3  0  0  0  0  0  0
   40.4780   32.9330   39.3210 N   0  0  0  0  0  0  0  0  0  0  0  0
   40.6920   31.6390   38.9410 C   0  0  0  0  0  0  0  0  0  0  0  0
   41.0560   31.4080   37.6460 C   0  0  0  0  0  3  0  0  0  0  0  0
   41.2640   30.1140   37.2380 C   0  0  0  0  0  0  0  0  0  0  0  0
   41.5450   29.9580   36.2250 H   0  0  0  0  0  0  0  0  0  0  0  0
   41.1030   29.1020   38.1330 C   0  0  0  0  0  0  0  0  0  0  0  0
   41.2710   28.1080   37.7880 H   0  0  0  0  0  0  0  0  0  0  0  0
   40.7350   29.4040   39.4200 C   0  0  0  0  0  3  0  0  0  0  0  0
   40.5010   30.6870   39.9330 C   0  0  0  0  0  0  0  0  0  0  0  0
   37.4480   30.7040   41.1160 N   0  0  0  0  0  0  0  0  0  0  0  0
   38.0450   31.2740   41.7450 H   0  0  0  0  0  0  0  0  0  0  0  0
   36.9450   30.0760   38.7200 C   0  0  1  0  0  0  0  0  0  0  0  0
   37.0650   31.5850   38.7780 C   0  0  0  0  0  0  0  0  0  0  0  0
   36.5930   30.7510   39.9600 C   0  0  2  0  0  0  0  0  0  0  0  0
   37.9530   29.6330   38.4880 H   0  0  0  0  0  0  0  0  0  0  0  0
   38.0310   32.0800   38.8780 H   0  0  0  0  0  0  0  0  0  0  0  0
   36.2940   32.2100   38.2820 H   0  0  0  0  0  0  0  0  0  0  0  0
   35.5010   30.7670   40.2070 H   0  0  0  0  0  0  0  0  0  0  0  0
   35.1680   28.9630   35.6660 C   0  0  0  0  0  0  0  0  0  0  0  0
   33.9670   28.4190   36.2120 C   0  0  0  0  0  0  0  0  0  0  0  0
   33.8050   28.4440   37.6280 C   0  0  0  0  0  0  0  0  0  0  0  0
   34.7630   28.9690   38.4040 N   0  0  0  0  0  0  0  0  0  0  0  0
   35.8980   29.4790   37.8380 C   0  0  0  0  0  0  0  0  0  0  0  0
   36.0940   29.4730   36.4820 N   0  0  0  0  0  0  0  0  0  0  0  0
   35.3470   28.9720   34.6010 H   0  0  0  0  0  0  0  0  0  0  0  0
   33.2560   28.0210   35.5020 H   0  0  0  0  0  0  0  0  0  0  0  0
   32.8870   28.0240   37.9930 H   0  0  0  0  0  0  0  0  0  0  0  0
  1  2  2  0  0  0  0
  1 10  1  0  0  0  0
  2  3  1  0  0  0  0
  3 12  1  0  0  0  0
  3  4  2  0  0  0  0
  4 13  1  0  0  0  0
  5  4  1  0  0  0  0
  5  6  1  0  0  0  0
  6 14  1  0  0  0  0
  7  6  2  0  0  0  0
  7 15  1  0  0  0  0
  8  7  1  0  0  0  0
  9 10  1  0  0  0  0
  9  8  2  0  0  0  0
 10  5  2  0  0  0  0
 11  2  1  0  0  0  0
 16  8  1  0  0  0  0
 17 18  1  0  0  0  0
 17  9  1  0  0  0  0
 19 18  2  0  0  0  0
 20 19  1  0  0  0  0
 21 20  2  0  0  0  0
 21 28  1  0  0  0  0
 22 21  1  0  0  0  0
 23 22  2  0  0  0  0
 23 25  1  0  0  0  0
 24 23  1  0  0  0  0
 25 27  2  0  0  0  0
 26 25  1  0  0  0  0
 27 28  1  0  0  0  0
 28 17  2  0  0  0  0
 29 30  1  0  0  0  0
 29  1  1  0  0  0  0
 31 34  1  1  0  0  0
 31 32  1  0  0  0  0
 31 33  1  0  0  0  0
 32 35  1  0  0  0  0
 32 33  1  0  0  0  0
 33 37  1  1  0  0  0
 33 29  1  0  0  0  0
 36 32  1  0  0  0  0
 38 39  2  0  0  0  0
 38 43  1  0  0  0  0
 39 40  1  0  0  0  0
 40 46  1  0  0  0  0
 40 41  2  0  0  0  0
 42 41  1  0  0  0  0
 42 31  1  0  0  0  0
 43 42  2  0  0  0  0
 44 38  1  0  0  0  0
 45 39  1  0  0  0  0
M  END
>  <minimizedAffinity>
-6.36089516

$$$$

 OpenBabel03242511103D

 46 51  0  0  1  0  0  0  0  0999 V2000
   40.1830   29.6490   41.9070 C   0  0  0  0  0  0  0  0  0  0  0  0
   41.3170   29.1450   42.5190 C   0  0  0  0  0  0  0  0  0  0  0  0
   41.3140   28.0170   43.3320 C   0  0  0  0  0  0  0  0  0  0  0  0
   40.1300   27.3480   43.5550 C   0  0  0  0  0  0  0  0  0  0  0  0
   38.9960   27.8150   42.9690 C   0  0  0  0  0  0  0  0  0  0  0  0
   37.7870   27.1700   43.1800 C   0  0  0  0  0  0  0  0  0  0  0  0
   36.6060   27.5900   42.6340 C   0  0  0  0  0  0  0  0  0  0  0  0
   36.6650   28.7190   41.8380 C   0  0  0  0  0  0  0  0  0  0  0  0
   37.8710   29.3630   41.6260 C   0  0  0  0  0  0  0  0  0  0  0  0
   39.0450   28.9390   42.1710 C   0  0  0  0  0  0  0  0  0  0  0  0
   42.3120   29.5630   42.4320 H   0  0  0  0  0  0  0  0  0  0  0  0
   42.1890   27.6160   43.8160 H   0  0  0  0  0  0  0  0  0  0  0  0
   40.1210   26.4660   44.1970 H   0  0  0  0  0  0  0  0  0  0  0  0
   37.8070   26.2990   43.8110 H   0  0  0  0  0  0  0  0  0  0  0  0
   35.7000   27.0400   42.8410 H   0  0  0  0  0  0  0  0  0  0  0  0
   35.6870   28.9950   41.4340 H   0  0  0  0  0  0  0  0  0  0  0  0
   37.6610   30.5110   40.7490 C   0  0  0  0  0  0  0  0  0  0  0  0
   37.4840   31.8190   40.8980 N   0  0  0  0  0  0  0  0  0  0  0  0
   37.2730   32.6610   39.8970 C   0  0  0  0  0  3  0  0  0  0  0  0
   37.2170   32.2640   38.6090 N   0  0  0  0  0  0  0  0  0  0  0  0
   37.3830   30.9410   38.3150 C   0  0  0  0  0  0  0  0  0  0  0  0
   37.3110   30.5660   37.0040 C   0  0  0  0  0  3  0  0  0  0  0  0
   37.4620   29.2390   36.6860 C   0  0  0  0  0  0  0  0  0  0  0  0
   37.4000   28.9710   35.6590 H   0  0  0  0  0  0  0  0  0  0  0  0
   37.6790   28.3390   37.6830 C   0  0  0  0  0  0  0  0  0  0  0  0
   37.7920   27.3150   37.4050 H   0  0  0  0  0  0  0  0  0  0  0  0
   37.7400   28.7820   38.9790 C   0  0  0  0  0  3  0  0  0  0  0  0
   37.6000   30.1100   39.4050 C   0  0  0  0  0  0  0  0  0  0  0  0
   40.3060   30.7840   41.0960 N   0  0  0  0  0  0  0  0  0  0  0  0
   39.4090   31.1930   41.4210 H   0  0  0  0  0  0  0  0  0  0  0  0
   41.5410   32.1600   39.3730 C   0  0  1  0  0  0  0  0  0  0  0  0
   41.1230   30.8660   38.7060 C   0  0  0  0  0  0  0  0  0  0  0  0
   41.4130   30.9670   40.1960 C   0  0  2  0  0  0  0  0  0  0  0  0
   40.7350   32.9310   39.2220 H   0  0  0  0  0  0  0  0  0  0  0  0
   40.0890   30.6770   38.4160 H   0  0  0  0  0  0  0  0  0  0  0  0
   41.8640   30.3040   38.1010 H   0  0  0  0  0  0  0  0  0  0  0  0
   42.3760   30.5340   40.5710 H   0  0  0  0  0  0  0  0  0  0  0  0
   44.7290   34.0150   39.7070 C   0  0  0  0  0  0  0  0  0  0  0  0
   45.3160   33.8170   38.4210 C   0  0  0  0  0  0  0  0  0  0  0  0
   44.5950   33.0360   37.4710 C   0  0  0  0  0  0  0  0  0  0  0  0
   43.4040   32.5160   37.7950 N   0  0  0  0  0  0  0  0  0  0  0  0
   42.8790   32.7330   39.0390 C   0  0  0  0  0  0  0  0  0  0  0  0
   43.5400   33.4750   39.9820 N   0  0  0  0  0  0  0  0  0  0  0  0
   45.2270   34.5980   40.4680 H   0  0  0  0  0  0  0  0  0  0  0  0
   46.2790   34.2780   38.2590 H   0  0  0  0  0  0  0  0  0  0  0  0
   45.0760   32.9130   36.5180 H   0  0  0  0  0  0  0  0  0  0  0  0
  1 10  2  0  0  0  0
  1  2  1  0  0  0  0
  2  3  2  0  0  0  0
  3  4  1  0  0  0  0
  3 12  1  0  0  0  0
  4 13  1  0  0  0  0
  5  6  1  0  0  0  0
  5  4  2  0  0  0  0
  6 14  1  0  0  0  0
  7 15  1  0  0  0  0
  7  6  2  0  0  0  0
  8  7  1  0  0  0  0
  9  8  2  0  0  0  0
  9 10  1  0  0  0  0
 10  5  1  0  0  0  0
 11  2  1  0  0  0  0
 16  8  1  0  0  0  0
 17 18  1  0  0  0  0
 17  9  1  0  0  0  0
 19 18  2  0  0  0  0
 20 19  1  0  0  0  0
 21 20  2  0  0  0  0
 21 28  1  0  0  0  0
 22 21  1  0  0  0  0
 23 22  2  0  0  0  0
 23 25  1  0  0  0  0
 24 23  1  0  0  0  0
 25 27  2  0  0  0  0
 26 25  1  0  0  0  0
 27 28  1  0  0  0  0
 28 17  2  0  0  0  0
 29 30  1  0  0  0  0
 29  1  1  0  0  0  0
 31 34  1  1  0  0  0
 31 33  1  0  0  0  0
 32 31  1  0  0  0  0
 32 33  1  0  0  0  0
 33 37  1  1  0  0  0
 33 29  1  0  0  0  0
 35 32  1  0  0  0  0
 36 32  1  0  0  0  0
 38 43  1  0  0  0  0
 38 44  1  0  0  0  0
 39 38  2  0  0  0  0
 40 41  2  0  0  0  0
 40 39  1  0  0  0  0
 41 42  1  0  0  0  0
 42 31  1  0  0  0  0
 42 43  2  0  0  0  0
 45 39  1  0  0  0  0
 46 40  1  0  0  0  0
M  END
>  <minimizedAffinity>
-6.32209063

$$$$

 OpenBabel03242511103D

 46 51  0  0  1  0  0  0  0  0999 V2000
   36.1910   29.5800   40.6350 C   0  0  0  0  0  0  0  0  0  0  0  0
   34.8730   29.1750   40.5240 C   0  0  0  0  0  0  0  0  0  0  0  0
   34.2250   28.9920   39.3070 C   0  0  0  0  0  0  0  0  0  0  0  0
   34.9130   29.2200   38.1350 C   0  0  0  0  0  0  0  0  0  0  0  0
   36.2110   29.6190   38.2070 C   0  0  0  0  0  0  0  0  0  0  0  0
   36.9280   29.8660   37.0460 C   0  0  0  0  0  0  0  0  0  0  0  0
   38.2310   30.2800   37.0420 C   0  0  0  0  0  0  0  0  0  0  0  0
   38.8240   30.4520   38.2800 C   0  0  0  0  0  0  0  0  0  0  0  0
   38.1090   30.2050   39.4380 C   0  0  0  0  0  0  0  0  0  0  0  0
   36.8120   29.7890   39.4370 C   0  0  0  0  0  0  0  0  0  0  0  0
   34.2130   28.9570   41.3550 H   0  0  0  0  0  0  0  0  0  0  0  0
   33.1990   28.6790   39.2070 H   0  0  0  0  0  0  0  0  0  0  0  0
   34.4080   29.0830   37.1770 H   0  0  0  0  0  0  0  0  0  0  0  0
   36.4100   29.7170   36.1160 H   0  0  0  0  0  0  0  0  0  0  0  0
   38.7300   30.4540   36.1000 H   0  0  0  0  0  0  0  0  0  0  0  0
   39.8650   30.7810   38.2000 H   0  0  0  0  0  0  0  0  0  0  0  0
   38.9630   30.4510   40.5970 C   0  0  0  0  0  0  0  0  0  0  0  0
   39.1060   31.4110   41.5030 N   0  0  0  0  0  0  0  0  0  0  0  0
   40.0170   31.3970   42.4650 C   0  0  0  0  0  3  0  0  0  0  0  0
   40.9030   30.3910   42.6170 N   0  0  0  0  0  0  0  0  0  0  0  0
   40.8660   29.3380   41.7490 C   0  0  0  0  0  0  0  0  0  0  0  0
   41.7810   28.3400   41.9200 C   0  0  0  0  0  3  0  0  0  0  0  0
   41.7710   27.2760   41.0510 C   0  0  0  0  0  0  0  0  0  0  0  0
   42.4930   26.5120   41.2040 H   0  0  0  0  0  0  0  0  0  0  0  0
   40.8530   27.2490   40.0480 C   0  0  0  0  0  0  0  0  0  0  0  0
   40.8690   26.4110   39.3890 H   0  0  0  0  0  0  0  0  0  0  0  0
   39.9620   28.2860   39.9320 C   0  0  0  0  0  3  0  0  0  0  0  0
   39.8900   29.4100   40.7650 C   0  0  0  0  0  0  0  0  0  0  0  0
   36.7450   29.7190   41.9140 N   0  0  0  0  0  0  0  0  0  0  0  0
   36.6000   30.7460   41.9360 H   0  0  0  0  0  0  0  0  0  0  0  0
   37.1140   27.2320   42.1780 C   0  0  1  0  0  0  0  0  0  0  0  0
   36.3020   27.6990   43.3680 C   0  0  0  0  0  0  0  0  0  0  0  0
   37.2870   28.6010   42.6400 C   0  0  2  0  0  0  0  0  0  0  0  0
   36.4160   26.9100   41.3570 H   0  0  0  0  0  0  0  0  0  0  0  0
   35.2440   27.9490   43.2780 H   0  0  0  0  0  0  0  0  0  0  0  0
   36.5980   27.3760   44.3870 H   0  0  0  0  0  0  0  0  0  0  0  0
   38.2640   28.8210   43.1420 H   0  0  0  0  0  0  0  0  0  0  0  0
   39.1130   24.1390   41.7830 C   0  0  0  0  0  0  0  0  0  0  0  0
   40.0820   24.2860   42.8210 C   0  0  0  0  0  0  0  0  0  0  0  0
   40.0230   25.4580   43.6290 C   0  0  0  0  0  0  0  0  0  0  0  0
   39.0790   26.3820   43.4050 N   0  0  0  0  0  0  0  0  0  0  0  0
   38.1710   26.2000   42.3980 C   0  0  0  0  0  0  0  0  0  0  0  0
   38.1930   25.0880   41.5980 N   0  0  0  0  0  0  0  0  0  0  0  0
   39.1070   23.2720   41.1390 H   0  0  0  0  0  0  0  0  0  0  0  0
   40.8010   23.4850   42.9210 H   0  0  0  0  0  0  0  0  0  0  0  0
   40.7720   25.5260   44.3960 H   0  0  0  0  0  0  0  0  0  0  0  0
  1 29  1  0  0  0  0
  2  1  1  0  0  0  0
  2 11  1  0  0  0  0
  3  2  2  0  0  0  0
  4  5  2  0  0  0  0
  4  3  1  0  0  0  0
  5 10  1  0  0  0  0
  6  5  1  0  0  0  0
  7  6  2  0  0  0  0
  7  8  1  0  0  0  0
  8  9  2  0  0  0  0
  9 17  1  0  0  0  0
 10  9  1  0  0  0  0
 10  1  2  0  0  0  0
 12  3  1  0  0  0  0
 13  4  1  0  0  0  0
 14  6  1  0  0  0  0
 15  7  1  0  0  0  0
 16  8  1  0  0  0  0
 17 28  2  0  0  0  0
 17 18  1  0  0  0  0
 18 19  2  0  0  0  0
 19 20  1  0  0  0  0
 21 22  1  0  0  0  0
 21 20  2  0  0  0  0
 23 24  1  0  0  0  0
 23 22  2  0  0  0  0
 25 23  1  0  0  0  0
 26 25  1  0  0  0  0
 27 25  2  0  0  0  0
 27 28  1  0  0  0  0
 28 21  1  0  0  0  0
 29 30  1  0  0  0  0
 29 33  1  0  0  0  0
 31 34  1  6  0  0  0
 31 42  1  0  0  0  0
 31 33  1  0  0  0  0
 31 32  1  0  0  0  0
 32 36  1  0  0  0  0
 33 37  1  1  0  0  0
 33 32  1  0  0  0  0
 35 32  1  0  0  0  0
 38 39  1  0  0  0  0
 39 45  1  0  0  0  0
 39 40  2  0  0  0  0
 40 46  1  0  0  0  0
 41 40  1  0  0  0  0
 42 41  2  0  0  0  0
 43 38  2  0  0  0  0
 43 42  1  0  0  0  0
 44 38  1  0  0  0  0
M  END
>  <minimizedAffinity>
-6.3047657

$$$$

 OpenBabel03242511103D

 46 51  0  0  1  0  0  0  0  0999 V2000
   40.4450   29.1830   41.3290 C   0  0  0  0  0  0  0  0  0  0  0  0
   41.6450   28.5730   41.6500 C   0  0  0  0  0  0  0  0  0  0  0  0
   41.7680   27.5760   42.6120 C   0  0  0  0  0  0  0  0  0  0  0  0
   40.6460   27.1550   43.2940 C   0  0  0  0  0  0  0  0  0  0  0  0
   39.4500   27.7320   43.0030 C   0  0  0  0  0  0  0  0  0  0  0  0
   38.3050   27.3370   43.6780 C   0  0  0  0  0  0  0  0  0  0  0  0
   37.0720   27.8800   43.4470 C   0  0  0  0  0  0  0  0  0  0  0  0
   37.0090   28.8720   42.4860 C   0  0  0  0  0  0  0  0  0  0  0  0
   38.1510   29.2660   41.8110 C   0  0  0  0  0  0  0  0  0  0  0  0
   39.3760   28.7190   42.0430 C   0  0  0  0  0  0  0  0  0  0  0  0
   42.6020   28.7990   41.1970 H   0  0  0  0  0  0  0  0  0  0  0  0
   42.6960   27.0960   42.8720 H   0  0  0  0  0  0  0  0  0  0  0  0
   40.7380   26.3760   44.0530 H   0  0  0  0  0  0  0  0  0  0  0  0
   38.4210   26.5630   44.4170 H   0  0  0  0  0  0  0  0  0  0  0  0
   36.2210   27.5250   44.0100 H   0  0  0  0  0  0  0  0  0  0  0  0
   35.9940   29.2580   42.3520 H   0  0  0  0  0  0  0  0  0  0  0  0
   37.8100   30.3120   40.8510 C   0  0  0  0  0  0  0  0  0  0  0  0
   37.8790   31.6370   40.8040 N   0  0  0  0  0  0  0  0  0  0  0  0
   37.4530   32.3690   39.7850 C   0  0  0  0  0  3  0  0  0  0  0  0
   36.8990   31.8290   38.6790 N   0  0  0  0  0  0  0  0  0  0  0  0
   36.7690   30.4720   38.5980 C   0  0  0  0  0  0  0  0  0  0  0  0
   36.1950   29.9550   37.4720 C   0  0  0  0  0  3  0  0  0  0  0  0
   36.0410   28.5940   37.3740 C   0  0  0  0  0  0  0  0  0  0  0  0
   35.5910   28.2140   36.4890 H   0  0  0  0  0  0  0  0  0  0  0  0
   36.4640   27.8030   38.3980 C   0  0  0  0  0  0  0  0  0  0  0  0
   36.3310   26.7510   38.2930 H   0  0  0  0  0  0  0  0  0  0  0  0
   37.0310   28.3890   39.5010 C   0  0  0  0  0  3  0  0  0  0  0  0
   37.2320   29.7610   39.6960 C   0  0  0  0  0  0  0  0  0  0  0  0
   40.4380   30.1670   40.3330 N   0  0  0  0  0  0  0  0  0  0  0  0
   39.8930   30.8380   40.9090 H   0  0  0  0  0  0  0  0  0  0  0  0
   41.4530   31.0680   38.2010 C   0  0  1  0  0  0  0  0  0  0  0  0
   40.2000   30.3080   37.8210 C   0  0  0  0  0  0  0  0  0  0  0  0
   41.0360   29.9560   39.0420 C   0  0  2  0  0  0  0  0  0  0  0  0
   41.1920   32.1470   38.3800 H   0  0  0  0  0  0  0  0  0  0  0  0
   39.2040   30.7140   38.0050 H   0  0  0  0  0  0  0  0  0  0  0  0
   40.2370   29.5860   36.9790 H   0  0  0  0  0  0  0  0  0  0  0  0
   41.6810   29.0410   38.9880 H   0  0  0  0  0  0  0  0  0  0  0  0
   43.6240   30.0680   35.3710 C   0  0  0  0  0  0  0  0  0  0  0  0
   44.8450   30.7320   35.6940 C   0  0  0  0  0  0  0  0  0  0  0  0
   44.8840   31.5190   36.8810 C   0  0  0  0  0  0  0  0  0  0  0  0
   43.7970   31.6160   37.6590 N   0  0  0  0  0  0  0  0  0  0  0  0
   42.6480   30.9610   37.3110 C   0  0  0  0  0  0  0  0  0  0  0  0
   42.5670   30.1970   36.1770 N   0  0  0  0  0  0  0  0  0  0  0  0
   43.5330   29.4580   34.4850 H   0  0  0  0  0  0  0  0  0  0  0  0
   45.6640   30.5900   35.0030 H   0  0  0  0  0  0  0  0  0  0  0  0
   45.8230   32.0010   37.0830 H   0  0  0  0  0  0  0  0  0  0  0  0
  1  2  2  0  0  0  0
  1 10  1  0  0  0  0
  2  3  1  0  0  0  0
  3 12  1  0  0  0  0
  3  4  2  0  0  0  0
  4 13  1  0  0  0  0
  5  4  1  0  0  0  0
  5  6  1  0  0  0  0
  6 14  1  0  0  0  0
  7  6  2  0  0  0  0
  7 15  1  0  0  0  0
  8  7  1  0  0  0  0
  9 10  1  0  0  0  0
  9  8  2  0  0  0  0
 10  5  2  0  0  0  0
 11  2  1  0  0  0  0
 16  8  1  0  0  0  0
 17  9  1  0  0  0  0
 18 17  1  0  0  0  0
 19 18  2  0  0  0  0
 20 19  1  0  0  0  0
 21 20  2  0  0  0  0
 21 28  1  0  0  0  0
 22 21  1  0  0  0  0
 23 22  2  0  0  0  0
 23 25  1  0  0  0  0
 24 23  1  0  0  0  0
 25 27  2  0  0  0  0
 26 25  1  0  0  0  0
 27 28  1  0  0  0  0
 28 17  2  0  0  0  0
 29 30  1  0  0  0  0
 29  1  1  0  0  0  0
 31 34  1  1  0  0  0
 31 33  1  0  0  0  0
 32 35  1  0  0  0  0
 32 31  1  0  0  0  0
 32 33  1  0  0  0  0
 33 37  1  6  0  0  0
 33 29  1  0  0  0  0
 36 32  1  0  0  0  0
 38 39  2  0  0  0  0
 38 43  1  0  0  0  0
 39 40  1  0  0  0  0
 40 46  1  0  0  0  0
 40 41  2  0  0  0  0
 42 41  1  0  0  0  0
 42 31  1  0  0  0  0
 43 42  2  0  0  0  0
 44 38  1  0  0  0  0
 45 39  1  0  0  0  0
M  END
>  <minimizedAffinity>
-6.29592657

$$$$

 OpenBabel03242511103D

 46 51  0  0  1  0  0  0  0  0999 V2000
   37.3190   30.9490   37.3380 C   0  0  0  0  0  0  0  0  0  0  0  0
   37.1450   30.4610   36.0550 C   0  0  0  0  0  0  0  0  0  0  0  0
   36.2220   29.4730   35.7270 C   0  0  0  0  0  0  0  0  0  0  0  0
   35.4270   28.9370   36.7180 C   0  0  0  0  0  0  0  0  0  0  0  0
   35.5720   29.3930   37.9900 C   0  0  0  0  0  0  0  0  0  0  0  0
   34.7940   28.8680   39.0100 C   0  0  0  0  0  0  0  0  0  0  0  0
   34.8930   29.2700   40.3130 C   0  0  0  0  0  0  0  0  0  0  0  0
   35.8290   30.2500   40.5830 C   0  0  0  0  0  0  0  0  0  0  0  0
   36.6060   30.7760   39.5660 C   0  0  0  0  0  0  0  0  0  0  0  0
   36.5010   30.3740   38.2690 C   0  0  0  0  0  0  0  0  0  0  0  0
   37.6940   30.7880   35.1820 H   0  0  0  0  0  0  0  0  0  0  0  0
   36.0790   29.0830   34.7340 H   0  0  0  0  0  0  0  0  0  0  0  0
   34.7060   28.1580   36.4670 H   0  0  0  0  0  0  0  0  0  0  0  0
   34.0850   28.1060   38.7360 H   0  0  0  0  0  0  0  0  0  0  0  0
   34.2550   28.8180   41.0590 H   0  0  0  0  0  0  0  0  0  0  0  0
   35.8520   30.5240   41.6430 H   0  0  0  0  0  0  0  0  0  0  0  0
   37.5000   31.7920   40.1130 C   0  0  0  0  0  0  0  0  0  0  0  0
   37.5670   33.1180   40.1120 N   0  0  0  0  0  0  0  0  0  0  0  0
   38.5420   33.8150   40.6790 C   0  0  0  0  0  3  0  0  0  0  0  0
   39.5760   33.2330   41.3220 N   0  0  0  0  0  0  0  0  0  0  0  0
   39.6290   31.8710   41.3960 C   0  0  0  0  0  0  0  0  0  0  0  0
   40.6930   31.3100   42.0420 C   0  0  0  0  0  3  0  0  0  0  0  0
   40.7740   29.9410   42.1180 C   0  0  0  0  0  0  0  0  0  0  0  0
   41.6120   29.5270   42.6250 H   0  0  0  0  0  0  0  0  0  0  0  0
   39.7960   29.1860   41.5490 C   0  0  0  0  0  0  0  0  0  0  0  0
   39.8860   28.1260   41.6240 H   0  0  0  0  0  0  0  0  0  0  0  0
   38.7550   29.8140   40.9140 C   0  0  0  0  0  3  0  0  0  0  0  0
   38.5810   31.1980   40.7830 C   0  0  0  0  0  0  0  0  0  0  0  0
   38.2700   31.9550   37.5490 N   0  0  0  0  0  0  0  0  0  0  0  0
   37.5860   32.5960   37.9960 H   0  0  0  0  0  0  0  0  0  0  0  0
   40.5950   31.0080   37.8370 C   0  0  1  0  0  0  0  0  0  0  0  0
   40.7020   32.5150   37.9490 C   0  0  0  0  0  0  0  0  0  0  0  0
   39.6340   31.8260   37.1130 C   0  0  2  0  0  0  0  0  0  0  0  0
   40.4310   30.5720   38.8610 H   0  0  0  0  0  0  0  0  0  0  0  0
   40.3640   33.0500   38.8370 H   0  0  0  0  0  0  0  0  0  0  0  0
   41.4960   33.0450   37.3850 H   0  0  0  0  0  0  0  0  0  0  0  0
   39.7540   31.8380   35.9990 H   0  0  0  0  0  0  0  0  0  0  0  0
   43.6430   30.3460   35.8390 C   0  0  0  0  0  0  0  0  0  0  0  0
   43.6490   28.9200   35.7830 C   0  0  0  0  0  0  0  0  0  0  0  0
   42.6000   28.2210   36.4480 C   0  0  0  0  0  0  0  0  0  0  0  0
   41.6450   28.9010   37.0970 N   0  0  0  0  0  0  0  0  0  0  0  0
   41.6790   30.2690   37.1240 C   0  0  0  0  0  0  0  0  0  0  0  0
   42.6700   30.9780   36.5000 N   0  0  0  0  0  0  0  0  0  0  0  0
   44.4110   30.9310   35.3540 H   0  0  0  0  0  0  0  0  0  0  0  0
   44.4610   28.4660   35.2340 H   0  0  0  0  0  0  0  0  0  0  0  0
   42.6450   27.1500   36.3800 H   0  0  0  0  0  0  0  0  0  0  0  0
  1 29  1  0  0  0  0
  1 10  1  0  0  0  0
  2  1  2  0  0  0  0
  3  2  1  0  0  0  0
  3  4  2  0  0  0  0
  4  5  1  0  0  0  0
  5 10  2  0  0  0  0
  5  6  1  0  0  0  0
  6  7  2  0  0  0  0
  7  8  1  0  0  0  0
  7 15  1  0  0  0  0
  8 16  1  0  0  0  0
  9 17  1  0  0  0  0
  9  8  2  0  0  0  0
 10  9  1  0  0  0  0
 11  2  1  0  0  0  0
 12  3  1  0  0  0  0
 13  4  1  0  0  0  0
 14  6  1  0  0  0  0
 17 28  1  0  0  0  0
 18 17  2  0  0  0  0
 18 19  1  0  0  0  0
 19 20  2  0  0  0  0
 20 21  1  0  0  0  0
 21 22  1  0  0  0  0
 22 23  2  0  0  0  0
 23 24  1  0  0  0  0
 25 26  1  0  0  0  0
 25 23  1  0  0  0  0
 27 25  2  0  0  0  0
 28 27  1  0  0  0  0
 28 21  2  0  0  0  0
 29 30  1  0  0  0  0
 31 32  1  0  0  0  0
 31 34  1  1  0  0  0
 32 35  1  0  0  0  0
 33 37  1  6  0  0  0
 33 29  1  0  0  0  0
 33 31  1  0  0  0  0
 33 32  1  0  0  0  0
 36 32  1  0  0  0  0
 38 43  1  0  0  0  0
 39 38  2  0  0  0  0
 39 40  1  0  0  0  0
 40 41  2  0  0  0  0
 41 42  1  0  0  0  0
 42 31  1  0  0  0  0
 43 42  2  0  0  0  0
 44 38  1  0  0  0  0
 45 39  1  0  0  0  0
 46 40  1  0  0  0  0
M  END
>  <minimizedAffinity>
-6.28906202

$$$$

 OpenBabel03242511103D

 46 51  0  0  1  0  0  0  0  0999 V2000
   39.2810   28.4710   40.3580 C   0  0  0  0  0  0  0  0  0  0  0  0
   40.6230   28.5390   40.6880 C   0  0  0  0  0  0  0  0  0  0  0  0
   41.1150   28.2930   41.9650 C   0  0  0  0  0  0  0  0  0  0  0  0
   40.2360   27.9590   42.9730 C   0  0  0  0  0  0  0  0  0  0  0  0
   38.9100   27.8820   42.6840 C   0  0  0  0  0  0  0  0  0  0  0  0
   37.9990   27.5570   43.6790 C   0  0  0  0  0  0  0  0  0  0  0  0
   36.6520   27.4730   43.4640 C   0  0  0  0  0  0  0  0  0  0  0  0
   36.2180   27.7340   42.1780 C   0  0  0  0  0  0  0  0  0  0  0  0
   37.1250   28.0570   41.1850 C   0  0  0  0  0  0  0  0  0  0  0  0
   38.4670   28.1370   41.4030 C   0  0  0  0  0  0  0  0  0  0  0  0
   41.4240   28.7860   40.0010 H   0  0  0  0  0  0  0  0  0  0  0  0
   42.1560   28.3450   42.2350 H   0  0  0  0  0  0  0  0  0  0  0  0
   40.6150   27.7690   43.9790 H   0  0  0  0  0  0  0  0  0  0  0  0
   38.3990   27.3680   44.6590 H   0  0  0  0  0  0  0  0  0  0  0  0
   35.9980   27.2150   44.2850 H   0  0  0  0  0  0  0  0  0  0  0  0
   35.1310   27.6450   42.0790 H   0  0  0  0  0  0  0  0  0  0  0  0
   36.4140   28.2730   39.9280 C   0  0  0  0  0  0  0  0  0  0  0  0
   35.9090   29.3110   39.2730 N   0  0  0  0  0  0  0  0  0  0  0  0
   35.2580   29.2210   38.1220 C   0  0  0  0  0  3  0  0  0  0  0  0
   35.0420   28.0450   37.4960 N   0  0  0  0  0  0  0  0  0  0  0  0
   35.5100   26.8950   38.0650 C   0  0  0  0  0  0  0  0  0  0  0  0
   35.2670   25.7190   37.4150 C   0  0  0  0  0  3  0  0  0  0  0  0
   35.7180   24.5490   37.9750 C   0  0  0  0  0  0  0  0  0  0  0  0
   35.5160   23.6460   37.4520 H   0  0  0  0  0  0  0  0  0  0  0  0
   36.3910   24.5950   39.1570 C   0  0  0  0  0  0  0  0  0  0  0  0
   36.7280   23.6700   39.5670 H   0  0  0  0  0  0  0  0  0  0  0  0
   36.6000   25.8110   39.7570 C   0  0  0  0  0  3  0  0  0  0  0  0
   36.1830   27.0560   39.2690 C   0  0  0  0  0  0  0  0  0  0  0  0
   38.9020   28.7260   39.0350 N   0  0  0  0  0  0  0  0  0  0  0  0
   38.2670   27.9060   38.9900 H   0  0  0  0  0  0  0  0  0  0  0  0
   39.3500   31.1950   38.7340 C   0  0  1  0  0  0  0  0  0  0  0  0
   38.4680   30.7510   37.5860 C   0  0  0  0  0  0  0  0  0  0  0  0
   39.4510   29.8180   38.2760 C   0  0  2  0  0  0  0  0  0  0  0  0
   38.7020   31.5480   39.5840 H   0  0  0  0  0  0  0  0  0  0  0  0
   37.4070   30.5410   37.7250 H   0  0  0  0  0  0  0  0  0  0  0  0
   38.7290   31.0580   36.5520 H   0  0  0  0  0  0  0  0  0  0  0  0
   40.3950   29.5590   37.7320 H   0  0  0  0  0  0  0  0  0  0  0  0
   41.5420   34.1610   39.0770 C   0  0  0  0  0  0  0  0  0  0  0  0
   42.3910   34.0270   37.9370 C   0  0  0  0  0  0  0  0  0  0  0  0
   42.1880   32.9060   37.0810 C   0  0  0  0  0  0  0  0  0  0  0  0
   41.2230   32.0180   37.3550 N   0  0  0  0  0  0  0  0  0  0  0  0
   40.4330   32.1870   38.4580 C   0  0  0  0  0  0  0  0  0  0  0  0
   40.5960   33.2480   39.3080 N   0  0  0  0  0  0  0  0  0  0  0  0
   41.6480   34.9900   39.7620 H   0  0  0  0  0  0  0  0  0  0  0  0
   43.1380   34.7960   37.8040 H   0  0  0  0  0  0  0  0  0  0  0  0
   42.8500   32.8460   36.2380 H   0  0  0  0  0  0  0  0  0  0  0  0
  1  2  2  0  0  0  0
  1 10  1  0  0  0  0
  2  3  1  0  0  0  0
  3 12  1  0  0  0  0
  3  4  2  0  0  0  0
  4 13  1  0  0  0  0
  5  4  1  0  0  0  0
  5  6  1  0  0  0  0
  6 14  1  0  0  0  0
  7  6  2  0  0  0  0
  7 15  1  0  0  0  0
  8  7  1  0  0  0  0
  9 10  1  0  0  0  0
  9  8  2  0  0  0  0
 10  5  2  0  0  0  0
 11  2  1  0  0  0  0
 16  8  1  0  0  0  0
 17  9  1  0  0  0  0
 18 17  1  0  0  0  0
 19 18  2  0  0  0  0
 20 21  2  0  0  0  0
 20 19  1  0  0  0  0
 21 28  1  0  0  0  0
 22 23  2  0  0  0  0
 22 21  1  0  0  0  0
 23 25  1  0  0  0  0
 24 23  1  0  0  0  0
 25 26  1  0  0  0  0
 25 27  2  0  0  0  0
 28 27  1  0  0  0  0
 28 17  2  0  0  0  0
 29  1  1  0  0  0  0
 30 29  1  0  0  0  0
 31 34  1  1  0  0  0
 32 35  1  0  0  0  0
 32 33  1  0  0  0  0
 32 31  1  0  0  0  0
 33 37  1  6  0  0  0
 33 31  1  0  0  0  0
 33 29  1  0  0  0  0
 36 32  1  0  0  0  0
 38 43  1  0  0  0  0
 38 44  1  0  0  0  0
 39 38  2  0  0  0  0
 40 41  2  0  0  0  0
 40 39  1  0  0  0  0
 41 42  1  0  0  0  0
 42 31  1  0  0  0  0
 42 43  2  0  0  0  0
 45 39  1  0  0  0  0
 46 40  1  0  0  0  0
M  END
>  <minimizedAffinity>
-6.25456381

$$$$

 OpenBabel03242511103D

 46 51  0  0  1  0  0  0  0  0999 V2000
   37.7230   29.2570   37.7440 C   0  0  0  0  0  0  0  0  0  0  0  0
   37.7630   28.9030   36.4060 C   0  0  0  0  0  0  0  0  0  0  0  0
   36.6410   28.5310   35.6760 C   0  0  0  0  0  0  0  0  0  0  0  0
   35.4090   28.5080   36.2950 C   0  0  0  0  0  0  0  0  0  0  0  0
   35.3330   28.8510   37.6080 C   0  0  0  0  0  0  0  0  0  0  0  0
   34.1100   28.8280   38.2630 C   0  0  0  0  0  0  0  0  0  0  0  0
   33.9600   29.1490   39.5830 C   0  0  0  0  0  0  0  0  0  0  0  0
   35.1100   29.5050   40.2630 C   0  0  0  0  0  0  0  0  0  0  0  0
   36.3300   29.5290   39.6110 C   0  0  0  0  0  0  0  0  0  0  0  0
   36.4740   29.2110   38.2950 C   0  0  0  0  0  0  0  0  0  0  0  0
   38.6550   28.8790   35.7930 H   0  0  0  0  0  0  0  0  0  0  0  0
   36.6590   28.2520   34.6360 H   0  0  0  0  0  0  0  0  0  0  0  0
   34.5260   28.2120   35.7270 H   0  0  0  0  0  0  0  0  0  0  0  0
   33.2540   28.5400   37.6790 H   0  0  0  0  0  0  0  0  0  0  0  0
   32.9770   29.1100   40.0310 H   0  0  0  0  0  0  0  0  0  0  0  0
   34.9140   29.7500   41.3120 H   0  0  0  0  0  0  0  0  0  0  0  0
   37.3720   29.9440   40.5450 C   0  0  0  0  0  0  0  0  0  0  0  0
   38.0780   31.0450   40.7740 N   0  0  0  0  0  0  0  0  0  0  0  0
   39.0210   31.1460   41.7000 C   0  0  0  0  0  3  0  0  0  0  0  0
   39.3610   30.1220   42.5100 N   0  0  0  0  0  0  0  0  0  0  0  0
   38.7100   28.9290   42.3790 C   0  0  0  0  0  0  0  0  0  0  0  0
   39.0810   27.9070   43.2050 C   0  0  0  0  0  3  0  0  0  0  0  0
   38.4500   26.6940   43.0830 C   0  0  0  0  0  0  0  0  0  0  0  0
   38.7570   25.9140   43.7360 H   0  0  0  0  0  0  0  0  0  0  0  0
   37.4750   26.5460   42.1460 C   0  0  0  0  0  0  0  0  0  0  0  0
   37.0030   25.5930   42.0740 H   0  0  0  0  0  0  0  0  0  0  0  0
   37.1510   27.6130   41.3470 C   0  0  0  0  0  3  0  0  0  0  0  0
   37.7330   28.8860   41.3940 C   0  0  0  0  0  0  0  0  0  0  0  0
   38.9160   29.6280   38.3760 N   0  0  0  0  0  0  0  0  0  0  0  0
   38.6310   29.2300   39.2910 H   0  0  0  0  0  0  0  0  0  0  0  0
   41.0050   31.0500   38.4180 C   0  0  1  0  0  0  0  0  0  0  0  0
   39.9080   31.8760   37.7810 C   0  0  0  0  0  0  0  0  0  0  0  0
   39.9510   30.3580   37.6930 C   0  0  2  0  0  0  0  0  0  0  0  0
   41.0120   31.2370   39.5280 H   0  0  0  0  0  0  0  0  0  0  0  0
   39.1020   32.3130   38.3710 H   0  0  0  0  0  0  0  0  0  0  0  0
   40.1190   32.4250   36.8400 H   0  0  0  0  0  0  0  0  0  0  0  0
   40.2580   29.8990   36.7170 H   0  0  0  0  0  0  0  0  0  0  0  0
   43.8610   30.7780   36.0750 C   0  0  0  0  0  0  0  0  0  0  0  0
   44.9290   31.3120   36.8570 C   0  0  0  0  0  0  0  0  0  0  0  0
   44.6320   31.7610   38.1760 C   0  0  0  0  0  0  0  0  0  0  0  0
   43.3810   31.6750   38.6490 N   0  0  0  0  0  0  0  0  0  0  0  0
   42.3880   31.1550   37.8650 C   0  0  0  0  0  0  0  0  0  0  0  0
   42.6320   30.7140   36.5910 N   0  0  0  0  0  0  0  0  0  0  0  0
   44.0250   30.4210   35.0690 H   0  0  0  0  0  0  0  0  0  0  0  0
   45.9010   31.3380   36.3850 H   0  0  0  0  0  0  0  0  0  0  0  0
   45.4650   32.1560   38.7260 H   0  0  0  0  0  0  0  0  0  0  0  0
  1 10  1  0  0  0  0
  1 29  1  0  0  0  0
  2  1  2  0  0  0  0
  3  4  2  0  0  0  0
  3  2  1  0  0  0  0
  4  5  1  0  0  0  0
  5  6  2  0  0  0  0
  5 10  1  0  0  0  0
  6  7  1  0  0  0  0
  7 15  1  0  0  0  0
  7  8  2  0  0  0  0
  8 16  1  0  0  0  0
  9  8  1  0  0  0  0
  9 17  1  0  0  0  0
 10  9  2  0  0  0  0
 11  2  1  0  0  0  0
 12  3  1  0  0  0  0
 13  4  1  0  0  0  0
 14  6  1  0  0  0  0
 17 18  2  0  0  0  0
 17 28  1  0  0  0  0
 18 19  1  0  0  0  0
 19 20  2  0  0  0  0
 21 20  1  0  0  0  0
 21 22  1  0  0  0  0
 23 22  2  0  0  0  0
 23 24  1  0  0  0  0
 25 23  1  0  0  0  0
 26 25  1  0  0  0  0
 27 28  1  0  0  0  0
 27 25  2  0  0  0  0
 28 21  2  0  0  0  0
 29 30  1  0  0  0  0
 31 34  1  1  0  0  0
 32 35  1  0  0  0  0
 32 31  1  0  0  0  0
 33 37  1  6  0  0  0
 33 32  1  0  0  0  0
 33 29  1  0  0  0  0
 33 31  1  0  0  0  0
 36 32  1  0  0  0  0
 38 43  2  0  0  0  0
 38 39  1  0  0  0  0
 39 40  2  0  0  0  0
 40 41  1  0  0  0  0
 40 46  1  0  0  0  0
 42 31  1  0  0  0  0
 42 41  2  0  0  0  0
 43 42  1  0  0  0  0
 44 38  1  0  0  0  0
 45 39  1  0  0  0  0
M  END
>  <minimizedAffinity>
-6.24353981

$$$$

 OpenBabel03242511103D

 46 51  0  0  1  0  0  0  0  0999 V2000
   40.2460   28.2240   40.9590 C   0  0  0  0  0  0  0  0  0  0  0  0
   41.3660   28.0180   41.7450 C   0  0  0  0  0  0  0  0  0  0  0  0
   41.3080   27.6120   43.0740 C   0  0  0  0  0  0  0  0  0  0  0  0
   40.0790   27.3960   43.6610 C   0  0  0  0  0  0  0  0  0  0  0  0
   38.9570   27.5890   42.9160 C   0  0  0  0  0  0  0  0  0  0  0  0
   37.7060   27.3890   43.4800 C   0  0  0  0  0  0  0  0  0  0  0  0
   36.5370   27.5750   42.7960 C   0  0  0  0  0  0  0  0  0  0  0  0
   36.6530   27.9840   41.4810 C   0  0  0  0  0  0  0  0  0  0  0  0
   37.9010   28.1830   40.9180 C   0  0  0  0  0  0  0  0  0  0  0  0
   39.0630   27.9940   41.6020 C   0  0  0  0  0  0  0  0  0  0  0  0
   42.3910   28.1450   41.4200 H   0  0  0  0  0  0  0  0  0  0  0  0
   42.1710   27.4500   43.6970 H   0  0  0  0  0  0  0  0  0  0  0  0
   40.0270   27.0820   44.7040 H   0  0  0  0  0  0  0  0  0  0  0  0
   37.6830   27.0740   44.5080 H   0  0  0  0  0  0  0  0  0  0  0  0
   35.5950   27.4010   43.2970 H   0  0  0  0  0  0  0  0  0  0  0  0
   35.6800   28.1100   40.9960 H   0  0  0  0  0  0  0  0  0  0  0  0
   37.7460   28.6000   39.5270 C   0  0  0  0  0  0  0  0  0  0  0  0
   37.7500   28.0100   38.3380 N   0  0  0  0  0  0  0  0  0  0  0  0
   37.6150   28.6530   37.1870 C   0  0  0  0  0  3  0  0  0  0  0  0
   37.4570   29.9910   37.1130 N   0  0  0  0  0  0  0  0  0  0  0  0
   37.4340   30.7210   38.2670 C   0  0  0  0  0  0  0  0  0  0  0  0
   37.2840   32.0740   38.1610 C   0  0  0  0  0  3  0  0  0  0  0  0
   37.2710   32.8300   39.3070 C   0  0  0  0  0  0  0  0  0  0  0  0
   37.1540   33.8810   39.2000 H   0  0  0  0  0  0  0  0  0  0  0  0
   37.4080   32.2110   40.5110 C   0  0  0  0  0  0  0  0  0  0  0  0
   37.3950   32.8240   41.3830 H   0  0  0  0  0  0  0  0  0  0  0  0
   37.5570   30.8480   40.5460 C   0  0  0  0  0  3  0  0  0  0  0  0
   37.5810   29.9910   39.4380 C   0  0  0  0  0  0  0  0  0  0  0  0
   40.4250   28.6200   39.6280 N   0  0  0  0  0  0  0  0  0  0  0  0
   39.7440   27.9270   39.2620 H   0  0  0  0  0  0  0  0  0  0  0  0
   41.0260   31.0550   39.3140 C   0  0  1  0  0  0  0  0  0  0  0  0
   41.0980   30.3910   37.9540 C   0  0  0  0  0  0  0  0  0  0  0  0
   41.3660   29.6420   39.2510 C   0  0  2  0  0  0  0  0  0  0  0  0
   39.9900   31.4650   39.4700 H   0  0  0  0  0  0  0  0  0  0  0  0
   40.2000   30.1150   37.4010 H   0  0  0  0  0  0  0  0  0  0  0  0
   41.9800   30.5760   37.3070 H   0  0  0  0  0  0  0  0  0  0  0  0
   42.4290   29.3890   39.4990 H   0  0  0  0  0  0  0  0  0  0  0  0
   44.2950   32.7720   39.5970 C   0  0  0  0  0  0  0  0  0  0  0  0
   43.9420   33.9520   40.3190 C   0  0  0  0  0  0  0  0  0  0  0  0
   42.5750   34.1270   40.6830 C   0  0  0  0  0  0  0  0  0  0  0  0
   41.6670   33.2000   40.3500 N   0  0  0  0  0  0  0  0  0  0  0  0
   42.0510   32.0850   39.6580 C   0  0  0  0  0  0  0  0  0  0  0  0
   43.3530   31.8790   39.2870 N   0  0  0  0  0  0  0  0  0  0  0  0
   45.3150   32.5840   39.2940 H   0  0  0  0  0  0  0  0  0  0  0  0
   44.7470   34.6370   40.5400 H   0  0  0  0  0  0  0  0  0  0  0  0
   42.3550   35.0290   41.2240 H   0  0  0  0  0  0  0  0  0  0  0  0
  1 10  2  0  0  0  0
  1  2  1  0  0  0  0
  2  3  2  0  0  0  0
  3  4  1  0  0  0  0
  3 12  1  0  0  0  0
  4 13  1  0  0  0  0
  5  6  1  0  0  0  0
  5  4  2  0  0  0  0
  6 14  1  0  0  0  0
  7 15  1  0  0  0  0
  7  6  2  0  0  0  0
  8  7  1  0  0  0  0
  9  8  2  0  0  0  0
  9 10  1  0  0  0  0
 10  5  1  0  0  0  0
 11  2  1  0  0  0  0
 16  8  1  0  0  0  0
 17  9  1  0  0  0  0
 18 17  2  0  0  0  0
 19 18  1  0  0  0  0
 20 19  2  0  0  0  0
 20 21  1  0  0  0  0
 21 28  1  0  0  0  0
 22 21  2  0  0  0  0
 22 23  1  0  0  0  0
 23 25  2  0  0  0  0
 24 23  1  0  0  0  0
 25 27  1  0  0  0  0
 25 26  1  0  0  0  0
 28 17  1  0  0  0  0
 28 27  2  0  0  0  0
 29  1  1  0  0  0  0
 30 29  1  0  0  0  0
 31 34  1  1  0  0  0
 31 42  1  0  0  0  0
 32 33  1  0  0  0  0
 32 31  1  0  0  0  0
 33 31  1  0  0  0  0
 33 37  1  1  0  0  0
 33 29  1  0  0  0  0
 35 32  1  0  0  0  0
 36 32  1  0  0  0  0
 38 39  1  0  0  0  0
 39 45  1  0  0  0  0
 39 40  2  0  0  0  0
 40 46  1  0  0  0  0
 41 40  1  0  0  0  0
 42 41  2  0  0  0  0
 43 38  2  0  0  0  0
 43 42  1  0  0  0  0
 44 38  1  0  0  0  0
M  END
>  <minimizedAffinity>
-6.15177584

$$$$

 OpenBabel03242511103D

 46 51  0  0  1  0  0  0  0  0999 V2000
   37.3690   28.0400   39.5070 C   0  0  0  0  0  0  0  0  0  0  0  0
   37.2530   26.8510   38.8090 C   0  0  0  0  0  0  0  0  0  0  0  0
   37.0480   25.6190   39.4200 C   0  0  0  0  0  0  0  0  0  0  0  0
   36.9490   25.5540   40.7930 C   0  0  0  0  0  0  0  0  0  0  0  0
   37.0580   26.7030   41.5100 C   0  0  0  0  0  0  0  0  0  0  0  0
   36.9720   26.6700   42.8940 C   0  0  0  0  0  0  0  0  0  0  0  0
   37.0840   27.7830   43.6800 C   0  0  0  0  0  0  0  0  0  0  0  0
   37.2930   28.9810   43.0210 C   0  0  0  0  0  0  0  0  0  0  0  0
   37.3780   29.0150   41.6410 C   0  0  0  0  0  0  0  0  0  0  0  0
   37.2630   27.9040   40.8620 C   0  0  0  0  0  0  0  0  0  0  0  0
   37.3070   26.7510   37.7330 H   0  0  0  0  0  0  0  0  0  0  0  0
   36.9590   24.6870   38.8880 H   0  0  0  0  0  0  0  0  0  0  0  0
   36.7930   24.5880   41.2770 H   0  0  0  0  0  0  0  0  0  0  0  0
   36.8110   25.7080   43.3460 H   0  0  0  0  0  0  0  0  0  0  0  0
   37.0080   27.6860   44.7530 H   0  0  0  0  0  0  0  0  0  0  0  0
   37.3700   29.8270   43.7110 H   0  0  0  0  0  0  0  0  0  0  0  0
   37.5900   30.3910   41.2010 C   0  0  0  0  0  0  0  0  0  0  0  0
   36.8590   31.3490   40.6440 N   0  0  0  0  0  0  0  0  0  0  0  0
   37.3270   32.5420   40.3050 C   0  0  0  0  0  3  0  0  0  0  0  0
   38.6130   32.9020   40.4950 N   0  0  0  0  0  0  0  0  0  0  0  0
   39.4760   32.0070   41.0610 C   0  0  0  0  0  0  0  0  0  0  0  0
   40.7730   32.3950   41.2320 C   0  0  0  0  0  3  0  0  0  0  0  0
   41.6620   31.5070   41.7870 C   0  0  0  0  0  0  0  0  0  0  0  0
   42.6670   31.8310   41.9090 H   0  0  0  0  0  0  0  0  0  0  0  0
   41.2250   30.2710   42.1500 C   0  0  0  0  0  0  0  0  0  0  0  0
   41.9370   29.6030   42.5780 H   0  0  0  0  0  0  0  0  0  0  0  0
   39.9070   29.9450   41.9500 C   0  0  0  0  0  3  0  0  0  0  0  0
   38.9260   30.7770   41.3940 C   0  0  0  0  0  0  0  0  0  0  0  0
   37.5610   29.2250   38.7860 N   0  0  0  0  0  0  0  0  0  0  0  0
   36.7430   29.6970   39.2180 H   0  0  0  0  0  0  0  0  0  0  0  0
   40.0020   29.5370   38.2080 C   0  0  1  0  0  0  0  0  0  0  0  0
   39.2530   30.7420   37.6790 C   0  0  0  0  0  0  0  0  0  0  0  0
   38.6110   29.3700   37.8140 C   0  0  2  0  0  0  0  0  0  0  0  0
   40.3560   29.7510   39.2540 H   0  0  0  0  0  0  0  0  0  0  0  0
   38.8850   31.5260   38.3420 H   0  0  0  0  0  0  0  0  0  0  0  0
   39.4480   31.0910   36.6440 H   0  0  0  0  0  0  0  0  0  0  0  0
   38.4430   28.7780   36.8770 H   0  0  0  0  0  0  0  0  0  0  0  0
   42.9490   29.3570   35.9710 C   0  0  0  0  0  0  0  0  0  0  0  0
   43.1340   27.9470   35.8480 C   0  0  0  0  0  0  0  0  0  0  0  0
   42.2360   27.0920   36.5510 C   0  0  0  0  0  0  0  0  0  0  0  0
   41.2550   27.6160   37.2970 N   0  0  0  0  0  0  0  0  0  0  0  0
   41.1150   28.9740   37.3860 C   0  0  0  0  0  0  0  0  0  0  0  0
   41.9570   29.8300   36.7290 N   0  0  0  0  0  0  0  0  0  0  0  0
   43.5970   30.0550   35.4620 H   0  0  0  0  0  0  0  0  0  0  0  0
   43.9530   27.6250   35.2230 H   0  0  0  0  0  0  0  0  0  0  0  0
   42.4140   26.0390   36.4300 H   0  0  0  0  0  0  0  0  0  0  0  0
  1 10  1  0  0  0  0
  2  3  1  0  0  0  0
  2  1  2  0  0  0  0
  3  4  2  0  0  0  0
  4 13  1  0  0  0  0
  4  5  1  0  0  0  0
  5  6  1  0  0  0  0
  6 14  1  0  0  0  0
  6  7  2  0  0  0  0
  7 15  1  0  0  0  0
  8  7  1  0  0  0  0
  8 16  1  0  0  0  0
  9  8  2  0  0  0  0
 10  5  2  0  0  0  0
 10  9  1  0  0  0  0
 11  2  1  0  0  0  0
 12  3  1  0  0  0  0
 17 28  1  0  0  0  0
 17  9  1  0  0  0  0
 18 17  2  0  0  0  0
 19 20  2  0  0  0  0
 19 18  1  0  0  0  0
 20 21  1  0  0  0  0
 21 22  2  0  0  0  0
 21 28  1  0  0  0  0
 22 23  1  0  0  0  0
 23 24  1  0  0  0  0
 23 25  2  0  0  0  0
 25 26  1  0  0  0  0
 27 25  1  0  0  0  0
 28 27  2  0  0  0  0
 29 30  1  0  0  0  0
 29  1  1  0  0  0  0
 31 34  1  1  0  0  0
 32 33  1  0  0  0  0
 32 31  1  0  0  0  0
 32 35  1  0  0  0  0
 33 37  1  6  0  0  0
 33 31  1  0  0  0  0
 33 29  1  0  0  0  0
 36 32  1  0  0  0  0
 38 43  1  0  0  0  0
 39 38  2  0  0  0  0
 39 40  1  0  0  0  0
 40 41  2  0  0  0  0
 41 42  1  0  0  0  0
 42 31  1  0  0  0  0
 43 42  2  0  0  0  0
 44 38  1  0  0  0  0
 45 39  1  0  0  0  0
 46 40  1  0  0  0  0
M  END
>  <minimizedAffinity>
-6.14628983

$$$$
