
     RDKit          3D

 25 27  0  0  0  0  0  0  0  0999 V2000
   44.5443   36.0271   44.5247 C   0  0  0  0  0  0  0  0  0  0  0  0
   45.2606   35.8930   43.3191 C   0  0  0  0  0  0  0  0  0  0  0  0
   46.1288   34.7956   43.2096 C   0  0  0  0  0  0  0  0  0  0  0  0
   46.2282   33.9412   44.2505 N   0  0  0  0  0  0  0  0  0  0  0  0
   45.5283   34.0946   45.3960 C   0  0  0  0  0  0  0  0  0  0  0  0
   44.6941   35.1381   45.5172 N   0  0  0  0  0  0  0  0  0  0  0  0
   47.0667   34.5635   41.7118 S   0  0  0  0  0  0  0  0  0  0  0  0
   43.8934   36.8760   44.5689 H   0  0  0  0  0  0  0  0  0  0  0  0
   45.1356   36.6071   42.5310 H   0  0  0  0  0  0  0  0  0  0  0  0
   45.5943   33.4211   46.2405 H   0  0  0  0  0  0  0  0  0  0  0  0
   46.0789   33.5554   40.6157 C   0  0  0  0  0  0  0  0  0  0  0  0
   44.8652   33.1958   41.1235 N   0  0  0  0  0  0  0  0  0  0  0  0
   44.0037   32.4332   40.4129 C   0  0  0  0  0  0  0  0  0  0  0  0
   44.3989   32.0514   39.1940 N   0  0  0  0  0  0  0  0  0  0  0  0
   45.5668   32.3611   38.6287 C   0  0  0  0  0  0  0  0  0  0  0  0
   45.9466   31.9511   37.3672 C   0  0  0  0  0  0  0  0  0  0  0  0
   47.1845   32.3297   36.8742 C   0  0  0  0  0  0  0  0  0  0  0  0
   47.4552   31.9921   35.8797 H   0  0  0  0  0  0  0  0  0  0  0  0
   48.0306   33.1092   37.6364 C   0  0  0  0  0  0  0  0  0  0  0  0
   48.9965   33.3878   37.2166 H   0  0  0  0  0  0  0  0  0  0  0  0
   47.6947   33.5494   38.9163 C   0  0  0  0  0  0  0  0  0  0  0  0
   46.4481   33.1372   39.3473 C   0  0  0  0  0  0  0  0  0  0  0  0
   43.0433   32.1674   40.8540 H   0  0  0  0  0  0  0  0  0  0  0  0
   45.2297   31.3476   36.8414 H   0  0  0  0  0  0  0  0  0  0  0  0
   48.3475   34.1605   39.5249 H   0  0  0  0  0  0  0  0  0  0  0  0
  1  6  2  0
  2  1  1  0
  3  2  2  0
  3  4  1  0
  4  5  2  0
  5  6  1  0
  7  3  1  0
  1  8  1  0
  2  9  1  0
  5 10  1  0
 11 12  2  0
 12 13  1  0
 13 14  2  0
 14 15  1  0
 15 16  2  0
 16 17  1  0
 17 18  1  0
 17 19  2  0
 19 20  1  0
 19 21  1  0
 21 22  2  0
 22 11  1  0
 22 15  1  0
 13 23  1  0
 16 24  1  0
 21 25  1  0
  7 11  1  0
M  ISO  5   8  14   9  14  10  14  18  16  20  16
M  END
>  <DihAtoms>  (1) 
2,6,10,11

>  <DihDeg>  (1) 
-89.61400676986321

$$$$
