
 OpenBabel03252506213D

 38 41  0  0  0  0  0  0  0  0999 V2000
   44.8250   35.5690   42.1640 C   0  0  0  0  0  0  0  0  0  0  0  0
   43.5570   35.8010   41.6000 C   0  0  0  0  0  0  0  0  0  0  0  0
   43.1550   34.9600   40.5540 C   0  0  0  0  0  0  0  0  0  0  0  0
   43.9940   33.9760   40.1380 N   0  0  0  0  0  0  0  0  0  0  0  0
   45.2070   33.7940   40.7160 C   0  0  0  0  0  0  0  0  0  0  0  0
   45.6080   34.5870   41.7150 N   0  0  0  0  0  0  0  0  0  0  0  0
   42.8960   36.5670   41.9180 H   0  0  0  0  0  0  0  0  0  0  0  0
   42.1920   35.0780   40.0710 H   0  0  0  0  0  0  0  0  0  0  0  0
   47.9610   34.6280   39.7770 Cl  0  0  0  0  0  0  0  0  0  0  0  0
   47.3240   33.0180   39.7590 C   0  0  0  0  0  0  0  0  0  0  0  0
   46.0570   32.6980   40.1990 C   0  0  0  0  0  0  0  0  0  0  0  0
   45.5220   31.4340   40.1970 C   0  0  0  0  0  0  0  0  0  0  0  0
   46.3360   30.4430   39.7140 C   0  0  0  0  0  0  0  0  0  0  0  0
   47.6090   30.6280   39.2480 C   0  0  0  0  0  0  0  0  0  0  0  0
   48.0680   31.9480   39.2890 C   0  0  0  0  0  0  0  0  0  0  0  0
   44.5250   31.2260   40.5510 H   0  0  0  0  0  0  0  0  0  0  0  0
   45.9820   29.4030   39.6770 H   0  0  0  0  0  0  0  0  0  0  0  0
   48.2150   29.8270   38.8780 H   0  0  0  0  0  0  0  0  0  0  0  0
   49.0680   32.1420   38.9320 H   0  0  0  0  0  0  0  0  0  0  0  0
   45.2640   36.4410   43.2620 C   0  0  0  0  0  3  0  0  0  0  0  0
   45.2090   37.7320   43.1000 C   0  0  0  0  0  3  0  0  0  0  0  0
   45.6390   38.6480   44.1840 C   0  0  0  0  0  0  0  0  0  0  0  0
   45.6970   38.1500   45.1700 H   0  0  0  0  0  0  0  0  0  0  0  0
   46.6720   39.0040   43.8990 H   0  0  0  0  0  0  0  0  0  0  0  0
   44.7890   39.8200   44.1700 N   0  0  0  0  0  0  0  0  0  0  0  0
   44.2800   40.0470   43.2990 H   0  0  0  0  0  0  0  0  0  0  0  0
   44.7220   40.5760   45.3730 C   0  0  0  0  0  0  0  0  0  0  0  0
   44.5790   39.9910   46.5720 N   0  0  0  0  0  0  0  0  0  0  0  0
   44.5110   40.6210   47.7420 C   0  0  0  0  0  3  0  0  0  0  0  0
   44.5890   41.9500   47.7450 N   0  0  0  0  0  0  0  0  0  0  0  0
   44.7350   42.6540   46.5890 C   0  0  0  0  0  0  0  0  0  0  0  0
   44.8080   44.0290   46.6700 C   0  0  0  0  0  3  0  0  0  0  0  0
   44.9550   44.6720   45.4600 C   0  0  0  0  0  0  0  0  0  0  0  0
   45.0160   45.7600   45.4850 H   0  0  0  0  0  0  0  0  0  0  0  0
   45.0280   44.0530   44.2360 C   0  0  0  0  0  0  0  0  0  0  0  0
   45.1440   44.6080   43.3090 H   0  0  0  0  0  0  0  0  0  0  0  0
   44.9460   42.6680   44.2480 C   0  0  0  0  0  3  0  0  0  0  0  0
   44.8000   41.9510   45.4070 C   0  0  0  0  0  0  0  0  0  0  0  0
  1 20  1  0  0  0  0
  2  7  1  0  0  0  0
  2  1  2  0  0  0  0
  3  2  1  0  0  0  0
  4  3  2  0  0  0  0
  4  5  1  0  0  0  0
  5  6  2  0  0  0  0
  6  1  1  0  0  0  0
  8  3  1  0  0  0  0
 10  9  1  0  0  0  0
 10 11  1  0  0  0  0
 11  5  1  0  0  0  0
 12 11  2  0  0  0  0
 12 16  1  0  0  0  0
 13 12  1  0  0  0  0
 14 15  1  0  0  0  0
 14 13  2  0  0  0  0
 15 10  2  0  0  0  0
 17 13  1  0  0  0  0
 18 14  1  0  0  0  0
 19 15  1  0  0  0  0
 21 20  2  0  0  0  0
 21 22  1  0  0  0  0
 22 23  1  0  0  0  0
 24 22  1  0  0  0  0
 25 22  1  0  0  0  0
 25 27  1  0  0  0  0
 26 25  1  0  0  0  0
 27 38  2  0  0  0  0
 27 28  1  0  0  0  0
 28 29  2  0  0  0  0
 29 30  1  0  0  0  0
 31 32  1  0  0  0  0
 31 30  2  0  0  0  0
 33 34  1  0  0  0  0
 33 32  2  0  0  0  0
 35 37  2  0  0  0  0
 35 33  1  0  0  0  0
 36 35  1  0  0  0  0
 37 38  1  0  0  0  0
 38 31  1  0  0  0  0
M  END
>  <minimizedAffinity>
0.583054483

>  <minimizedRMSD>
2.06908965

$$$$
