
 OpenBabel03242517483D

 46 50  0  0  0  0  0  0  0  0999 V2000
   38.5480   31.8210   41.1990 C   0  0  0  0  0  0  0  0  0  0  0  0
   39.9240   31.7170   40.9790 C   0  0  0  0  0  0  0  0  0  0  0  0
   40.4190   30.4880   40.6130 C   0  0  0  0  0  0  0  0  0  0  0  0
   39.5600   29.4450   40.4850 N   0  0  0  0  0  0  0  0  0  0  0  0
   38.2260   29.5830   40.7070 C   0  0  0  0  0  0  0  0  0  0  0  0
   37.7000   30.7480   41.0620 N   0  0  0  0  0  0  0  0  0  0  0  0
   38.0960   32.7750   41.4930 H   0  0  0  0  0  0  0  0  0  0  0  0
   41.4840   30.3770   40.4350 H   0  0  0  0  0  0  0  0  0  0  0  0
   37.3760   28.3860   40.5420 C   0  0  0  0  0  0  0  0  0  0  0  0
   37.0850   28.0560   41.5700 H   0  0  0  0  0  0  0  0  0  0  0  0
   37.8800   27.5570   40.0490 H   0  0  0  0  0  0  0  0  0  0  0  0
   36.0730   28.7430   39.8150 C   0  0  0  0  0  0  0  0  0  0  0  0
   35.2120   28.5590   40.4900 H   0  0  0  0  0  0  0  0  0  0  0  0
   36.0730   29.7850   39.4850 H   0  0  0  0  0  0  0  0  0  0  0  0
   35.9630   27.7860   38.6810 C   0  0  0  0  0  0  0  0  0  0  0  0
   36.7510   27.7840   37.5920 N   0  0  0  0  0  0  0  0  0  0  0  0
   36.6110   26.8960   36.5920 C   0  0  0  0  0  3  0  0  0  0  0  0
   35.6630   25.9460   36.6250 N   0  0  0  0  0  0  0  0  0  0  0  0
   34.8290   25.8820   37.6890 C   0  0  0  0  0  0  0  0  0  0  0  0
   33.8730   24.8900   37.6780 C   0  0  0  0  0  3  0  0  0  0  0  0
   33.0070   24.7920   38.7420 C   0  0  0  0  0  0  0  0  0  0  0  0
   32.2280   24.0400   38.8060 H   0  0  0  0  0  0  0  0  0  0  0  0
   33.1350   25.6880   39.7680 C   0  0  0  0  0  0  0  0  0  0  0  0
   32.4540   25.6130   40.6050 H   0  0  0  0  0  0  0  0  0  0  0  0
   34.0920   26.6890   39.7920 C   0  0  0  0  0  3  0  0  0  0  0  0
   34.9750   26.7980   38.7190 C   0  0  0  0  0  0  0  0  0  0  0  0
   40.9890   33.1130   41.1640 S   0  0  0  0  0  0  0  0  0  0  0  0
   40.9480   34.1200   39.7090 C   0  0  0  0  0  0  0  0  0  0  0  0
   39.8630   34.1690   38.8450 C   0  0  0  0  0  0  0  0  0  0  0  0
   39.9100   34.9860   37.7260 C   0  0  0  0  0  0  0  0  0  0  0  0
   41.0070   35.7500   37.4480 C   0  0  0  0  0  0  0  0  0  0  0  0
   42.0820   35.6960   38.3130 C   0  0  0  0  0  0  0  0  0  0  0  0
   42.0660   34.8920   39.4360 C   0  0  0  0  0  0  0  0  0  0  0  0
   39.0070   33.5620   39.0760 H   0  0  0  0  0  0  0  0  0  0  0  0
   39.0060   34.9490   37.1150 H   0  0  0  0  0  0  0  0  0  0  0  0
   40.9380   36.3390   36.5650 H   0  0  0  0  0  0  0  0  0  0  0  0
   42.9320   36.3180   38.0550 H   0  0  0  0  0  0  0  0  0  0  0  0
   43.2070   34.8480   40.3360 C   0  0  0  0  0  0  0  0  0  0  0  0
   44.2830   34.0290   40.1820 C   0  0  0  0  0  0  0  0  0  0  0  0
   45.3690   34.0030   41.0590 C   0  0  0  0  0  0  0  0  0  0  0  0
   45.3520   34.8320   42.1140 N   0  0  0  0  0  0  0  0  0  0  0  0
   44.2870   35.6480   42.2750 C   0  0  0  0  0  0  0  0  0  0  0  0
   43.2430   35.6610   41.4170 N   0  0  0  0  0  0  0  0  0  0  0  0
   44.3080   33.3510   39.3280 H   0  0  0  0  0  0  0  0  0  0  0  0
   46.1970   33.3330   40.8870 H   0  0  0  0  0  0  0  0  0  0  0  0
   44.1400   36.3750   43.0890 H   0  0  0  0  0  0  0  0  0  0  0  0
  1  7  1  0  0  0  0
  2 27  1  0  0  0  0
  2  1  2  0  0  0  0
  3  2  1  0  0  0  0
  4  3  2  0  0  0  0
  4  5  1  0  0  0  0
  5  6  2  0  0  0  0
  6  1  1  0  0  0  0
  8  3  1  0  0  0  0
  9  5  1  0  0  0  0
  9 10  1  0  0  0  0
 11  9  1  0  0  0  0
 12 13  1  0  0  0  0
 12  9  1  0  0  0  0
 14 12  1  0  0  0  0
 15 26  1  0  0  0  0
 15 12  1  0  0  0  0
 16 15  2  0  0  0  0
 17 18  2  0  0  0  0
 17 16  1  0  0  0  0
 18 19  1  0  0  0  0
 19 26  1  0  0  0  0
 20 19  2  0  0  0  0
 20 21  1  0  0  0  0
 21 22  1  0  0  0  0
 21 23  2  0  0  0  0
 23 25  1  0  0  0  0
 23 24  1  0  0  0  0
 26 25  2  0  0  0  0
 28 27  1  0  0  0  0
 29 34  1  0  0  0  0
 29 28  2  0  0  0  0
 30 29  1  0  0  0  0
 31 30  2  0  0  0  0
 31 32  1  0  0  0  0
 32 33  2  0  0  0  0
 33 28  1  0  0  0  0
 33 38  1  0  0  0  0
 35 30  1  0  0  0  0
 36 31  1  0  0  0  0
 37 32  1  0  0  0  0
 38 43  1  0  0  0  0
 39 38  2  0  0  0  0
 39 40  1  0  0  0  0
 40 41  2  0  0  0  0
 41 42  1  0  0  0  0
 42 46  1  0  0  0  0
 43 42  2  0  0  0  0
 44 39  1  0  0  0  0
 45 40  1  0  0  0  0
M  END
>  <minimizedAffinity>
-5.51792431

>  <minimizedRMSD>
2.09385157

$$$$
