
 OpenBabel03252504333D

 43 46  0  0  0  0  0  0  0  0999 V2000
   41.5970   35.7440   41.2010 C   0  0  0  0  0  0  0  0  0  0  0  0
   41.5370   35.8350   42.3090 H   0  0  0  0  0  0  0  0  0  0  0  0
   41.2050   36.6990   40.7920 H   0  0  0  0  0  0  0  0  0  0  0  0
   40.9090   33.4010   41.3270 C   0  0  0  0  0  0  0  0  0  0  0  0
   40.5670   34.7000   40.8780 C   0  0  0  0  0  0  0  0  0  0  0  0
   39.3880   34.8270   40.2300 C   0  0  0  0  0  0  0  0  0  0  0  0
   38.6470   33.7470   40.0620 N   0  0  0  0  0  0  0  0  0  0  0  0
   38.9570   32.5430   40.4730 C   0  0  0  0  0  0  0  0  0  0  0  0
   40.1380   32.3220   41.1420 N   0  0  0  0  0  0  0  0  0  0  0  0
   41.8530   33.2380   41.8580 H   0  0  0  0  0  0  0  0  0  0  0  0
   39.1450   35.7970   39.9030 H   0  0  0  0  0  0  0  0  0  0  0  0
   38.2080   31.2690   40.3390 C   0  0  0  0  0  0  0  0  0  0  0  0
   37.4470   30.7350   41.3290 N   0  0  0  0  0  0  0  0  0  0  0  0
   36.7630   29.6100   41.2600 C   0  0  0  0  0  3  0  0  0  0  0  0
   36.7840   28.8750   40.1200 N   0  0  0  0  0  0  0  0  0  0  0  0
   37.5160   29.3100   39.0510 C   0  0  0  0  0  0  0  0  0  0  0  0
   37.5300   28.5550   37.8990 C   0  0  0  0  0  3  0  0  0  0  0  0
   38.2590   28.9690   36.8040 C   0  0  0  0  0  0  0  0  0  0  0  0
   38.1890   28.2960   35.9690 H   0  0  0  0  0  0  0  0  0  0  0  0
   38.9500   30.1540   36.9410 C   0  0  0  0  0  0  0  0  0  0  0  0
   39.5130   30.4410   36.0480 H   0  0  0  0  0  0  0  0  0  0  0  0
   38.9040   30.8710   38.1150 C   0  0  0  0  0  3  0  0  0  0  0  0
   38.1970   30.4920   39.2100 C   0  0  0  0  0  0  0  0  0  0  0  0
   42.8150   35.4630   40.6570 O   0  0  0  0  0  0  0  0  0  0  0  0
   44.0300   35.3110   41.3030 C   0  0  0  0  0  3  0  0  0  0  0  0
   44.0520   35.6590   42.5840 C   0  0  0  0  0  3  0  0  0  0  0  0
   45.2600   35.5790   43.5010 C   0  0  0  0  0  0  0  0  0  0  0  0
   46.0800   35.2570   42.8300 H   0  0  0  0  0  0  0  0  0  0  0  0
   45.4730   36.5360   43.9850 H   0  0  0  0  0  0  0  0  0  0  0  0
   44.9910   34.6010   44.4400 O   0  0  0  0  0  0  0  0  0  0  0  0
   45.6830   32.4880   42.9900 O   0  0  0  0  0  0  0  0  0  0  0  0
   46.0090   33.2710   44.2400 P   0  0  1  0  0  0  0  0  0  0  0  0
   47.6260   33.7680   44.0940 O   0  0  0  0  0  0  0  0  0  0  0  0
   47.6580   34.7570   44.2360 H   0  0  0  0  0  0  0  0  0  0  0  0
   45.9090   32.2710   45.5970 O   0  0  0  0  0  0  0  0  0  0  0  0
   46.1730   32.9520   46.7680 C   0  0  0  0  0  0  0  0  0  0  0  0
   47.0400   32.3140   47.8070 C   0  0  0  0  0  0  0  0  0  0  0  0
   45.5320   32.3610   48.0040 C   0  0  0  0  0  0  0  0  0  0  0  0
   46.3320   34.0250   46.6530 H   0  0  0  0  0  0  0  0  0  0  0  0
   47.7000   32.9030   48.4580 H   0  0  0  0  0  0  0  0  0  0  0  0
   47.4130   31.2840   47.6290 H   0  0  0  0  0  0  0  0  0  0  0  0
   45.2250   33.1310   48.7580 H   0  0  0  0  0  0  0  0  0  0  0  0
   44.9370   31.4500   47.9290 H   0  0  0  0  0  0  0  0  0  0  0  0
  1  2  1  0  0  0  0
  3  1  1  0  0  0  0
  4 10  1  0  0  0  0
  5  1  1  0  0  0  0
  5  4  2  0  0  0  0
  6  5  1  0  0  0  0
  7  6  2  0  0  0  0
  7  8  1  0  0  0  0
  8  9  2  0  0  0  0
  9  4  1  0  0  0  0
 11  6  1  0  0  0  0
 12  8  1  0  0  0  0
 12 13  1  0  0  0  0
 14 13  2  0  0  0  0
 15 14  1  0  0  0  0
 16 23  1  0  0  0  0
 16 15  2  0  0  0  0
 17 16  1  0  0  0  0
 18 20  1  0  0  0  0
 18 17  2  0  0  0  0
 19 18  1  0  0  0  0
 20 22  2  0  0  0  0
 21 20  1  0  0  0  0
 22 23  1  0  0  0  0
 23 12  2  0  0  0  0
 24  1  1  0  0  0  0
 24 25  1  0  0  0  0
 25 26  2  0  0  0  0
 26 27  1  0  0  0  0
 27 29  1  0  0  0  0
 27 30  1  0  0  0  0
 28 27  1  0  0  0  0
 32 31  2  6  0  0  0
 32 30  1  0  0  0  0
 32 35  1  0  0  0  0
 33 34  1  0  0  0  0
 33 32  1  0  0  0  0
 35 36  1  0  0  0  0
 36 37  1  0  0  0  0
 36 38  1  0  0  0  0
 37 38  1  0  0  0  0
 37 40  1  0  0  0  0
 38 42  1  0  0  0  0
 39 36  1  0  0  0  0
 41 37  1  0  0  0  0
 43 38  1  0  0  0  0
M  END
>  <minimizedAffinity>
-5.67673874

>  <minimizedRMSD>
0.712285161

$$$$
