
 OpenBabel03242514573D

 28 30  0  0  0  0  0  0  0  0999 V2000
   41.2400   34.8310   41.3100 C   0  0  0  0  0  0  0  0  0  0  0  0
   41.2090   34.9970   42.4090 H   0  0  0  0  0  0  0  0  0  0  0  0
   40.8990   35.7980   40.8890 H   0  0  0  0  0  0  0  0  0  0  0  0
   40.2810   33.7270   41.0390 C   0  0  0  0  0  0  0  0  0  0  0  0
   40.0640   32.7740   41.9630 N   0  0  0  0  0  0  0  0  0  0  0  0
   39.2150   31.7680   41.6970 C   0  0  0  0  0  3  0  0  0  0  0  0
   38.5460   31.6610   40.5100 N   0  0  0  0  0  0  0  0  0  0  0  0
   38.7590   32.6110   39.5850 C   0  0  0  0  0  0  0  0  0  0  0  0
   38.1280   32.5840   38.3820 C   0  0  0  0  0  3  0  0  0  0  0  0
   38.2380   33.4760   37.3520 C   0  0  0  0  0  0  0  0  0  0  0  0
   37.7020   33.3880   36.4210 H   0  0  0  0  0  0  0  0  0  0  0  0
   39.1200   34.5290   37.6220 C   0  0  0  0  0  0  0  0  0  0  0  0
   39.2520   35.2840   36.8320 H   0  0  0  0  0  0  0  0  0  0  0  0
   39.8020   34.6230   38.8320 C   0  0  0  0  0  3  0  0  0  0  0  0
   39.6160   33.6600   39.8090 C   0  0  0  0  0  0  0  0  0  0  0  0
   42.6430   34.4840   40.9750 C   0  0  0  0  0  0  0  0  0  0  0  0
   42.7800   34.4150   39.8840 H   0  0  0  0  0  0  0  0  0  0  0  0
   42.8460   33.4300   41.3380 H   0  0  0  0  0  0  0  0  0  0  0  0
   43.8910   35.5510   41.6750 S   0  0  0  0  0  0  0  0  0  0  0  0
   44.4580   35.0380   43.3000 C   0  0  0  0  0  0  0  0  0  0  0  0
   45.1690   33.8380   43.3410 C   0  0  0  0  0  0  0  0  0  0  0  0
   45.6300   33.4000   44.5840 C   0  0  0  0  0  0  0  0  0  0  0  0
   45.3590   34.1710   45.6850 N   0  0  0  0  0  0  0  0  0  0  0  0
   44.6700   35.3240   45.6140 C   0  0  0  0  0  0  0  0  0  0  0  0
   44.2120   35.7710   44.4250 N   0  0  0  0  0  0  0  0  0  0  0  0
   45.3580   33.2640   42.4390 H   0  0  0  0  0  0  0  0  0  0  0  0
   46.1880   32.4800   44.6890 H   0  0  0  0  0  0  0  0  0  0  0  0
   44.4950   35.8790   46.5330 H   0  0  0  0  0  0  0  0  0  0  0  0
  1  2  1  0  0  0  0
  3  1  1  0  0  0  0
  4  1  1  0  0  0  0
  4  5  1  0  0  0  0
  6  5  2  0  0  0  0
  7  6  1  0  0  0  0
  8 15  1  0  0  0  0
  8  7  2  0  0  0  0
  9  8  1  0  0  0  0
 10 12  1  0  0  0  0
 10  9  2  0  0  0  0
 11 10  1  0  0  0  0
 12 14  2  0  0  0  0
 13 12  1  0  0  0  0
 14 15  1  0  0  0  0
 15  4  2  0  0  0  0
 16  1  1  0  0  0  0
 16 18  1  0  0  0  0
 16 19  1  0  0  0  0
 17 16  1  0  0  0  0
 19 20  1  0  0  0  0
 20 21  2  0  0  0  0
 20 25  1  0  0  0  0
 21 22  1  0  0  0  0
 22 27  1  0  0  0  0
 22 23  2  0  0  0  0
 24 23  1  0  0  0  0
 24 28  1  0  0  0  0
 25 24  2  0  0  0  0
 26 21  1  0  0  0  0
M  END
>  <minimizedAffinity>
-5.50602674

>  <minimizedRMSD>
3.1892221

$$$$
