
 OpenBabel03252506463D

 45 49  0  0  1  0  0  0  0  0999 V2000
   49.6970   33.6570   41.4210 N   0  0  1  0  0  0  0  0  0  0  0  0
   50.7390   33.0790   42.2290 C   0  0  0  0  0  0  0  0  0  0  0  0
   51.2810   31.7780   41.7180 C   0  0  0  0  0  0  0  0  0  0  0  0
   50.1850   30.7370   41.7870 C   0  0  0  0  0  0  0  0  0  0  0  0
   48.8450   31.3410   41.4880 C   0  0  0  0  0  0  0  0  0  0  0  0
   49.0350   32.6030   40.6850 C   0  0  2  0  0  0  0  0  0  0  0  0
   50.3680   32.8900   43.2590 H   0  0  0  0  0  0  0  0  0  0  0  0
   51.5310   33.8440   42.3190 H   0  0  0  0  0  0  0  0  0  0  0  0
   52.1060   31.5040   42.4450 H   0  0  0  0  0  0  0  0  0  0  0  0
   51.7840   31.8160   40.7500 H   0  0  0  0  0  0  0  0  0  0  0  0
   50.4110   29.8370   41.2020 H   0  0  0  0  0  0  0  0  0  0  0  0
   50.1410   30.4160   42.8650 H   0  0  0  0  0  0  0  0  0  0  0  0
   48.1690   30.6810   40.9330 H   0  0  0  0  0  0  0  0  0  0  0  0
   48.2970   31.6370   42.4120 H   0  0  0  0  0  0  0  0  0  0  0  0
   48.0100   32.9730   40.4670 H   0  0  0  0  0  0  0  0  0  0  0  0
   49.6370   32.3070   39.4150 N   0  0  0  0  0  0  0  0  0  0  0  0
   50.6530   32.1170   39.5130 H   0  0  0  0  0  0  0  0  0  0  0  0
   49.0260   32.2730   38.1410 C   0  0  0  0  0  0  0  0  0  0  0  0
   49.6580   31.9760   36.9990 N   0  0  0  0  0  0  0  0  0  0  0  0
   49.1410   31.9230   35.7850 C   0  0  0  0  0  3  0  0  0  0  0  0
   47.8310   32.1920   35.6470 N   0  0  0  0  0  0  0  0  0  0  0  0
   47.0870   32.5040   36.7180 C   0  0  0  0  0  0  0  0  0  0  0  0
   45.7590   32.7730   36.5500 C   0  0  0  0  0  3  0  0  0  0  0  0
   44.9350   33.1020   37.6060 C   0  0  0  0  0  0  0  0  0  0  0  0
   43.9060   33.3000   37.4000 H   0  0  0  0  0  0  0  0  0  0  0  0
   45.5290   33.1430   38.8560 C   0  0  0  0  0  0  0  0  0  0  0  0
   44.8730   33.4010   39.6750 H   0  0  0  0  0  0  0  0  0  0  0  0
   46.8630   32.8690   38.9960 C   0  0  0  0  0  3  0  0  0  0  0  0
   47.6890   32.5420   37.9510 C   0  0  0  0  0  0  0  0  0  0  0  0
   47.4290   34.7430   41.9580 C   0  0  1  0  0  0  0  0  0  0  0  0
   48.4760   35.7760   41.7740 C   0  0  0  0  0  0  0  0  0  0  0  0
   48.8510   34.4280   42.2440 C   0  0  2  0  0  0  0  0  0  0  0  0
   46.9220   34.4190   41.0220 H   0  0  0  0  0  0  0  0  0  0  0  0
   48.5560   36.6010   42.5080 H   0  0  0  0  0  0  0  0  0  0  0  0
   48.7750   36.1010   40.7470 H   0  0  0  0  0  0  0  0  0  0  0  0
   49.0690   34.3100   43.3490 H   0  0  0  0  0  0  0  0  0  0  0  0
   45.5780   35.9650   43.1330 C   0  0  0  0  0  0  0  0  0  0  0  0
   46.4770   34.8900   43.0780 C   0  0  0  0  0  0  0  0  0  0  0  0
   46.4310   33.9390   44.1240 C   0  0  0  0  0  0  0  0  0  0  0  0
   45.5280   34.1200   45.1150 N   0  0  0  0  0  0  0  0  0  0  0  0
   44.6730   35.1610   45.1460 C   0  0  0  0  0  0  0  0  0  0  0  0
   44.6890   36.1000   44.1490 N   0  0  0  0  0  0  0  0  0  0  0  0
   45.6150   36.6900   42.3320 H   0  0  0  0  0  0  0  0  0  0  0  0
   47.1110   33.0980   44.1140 H   0  0  0  0  0  0  0  0  0  0  0  0
   44.0050   35.1780   45.9980 H   0  0  0  0  0  0  0  0  0  0  0  0
  1  2  1  1  0  0  0
  1 32  1  0  0  0  0
  2  8  1  0  0  0  0
  2  7  1  0  0  0  0
  3  4  1  0  0  0  0
  3  2  1  0  0  0  0
  3  9  1  0  0  0  0
  4 12  1  0  0  0  0
  5  4  1  0  0  0  0
  5 14  1  0  0  0  0
  6 15  1  6  0  0  0
  6  1  1  0  0  0  0
  6  5  1  0  0  0  0
 10  3  1  0  0  0  0
 11  4  1  0  0  0  0
 13  5  1  0  0  0  0
 16 17  1  0  0  0  0
 16  6  1  0  0  0  0
 18 16  1  0  0  0  0
 19 18  2  0  0  0  0
 20 19  1  0  0  0  0
 21 20  2  0  0  0  0
 21 22  1  0  0  0  0
 22 29  1  0  0  0  0
 23 22  2  0  0  0  0
 23 24  1  0  0  0  0
 24 26  2  0  0  0  0
 25 24  1  0  0  0  0
 26 28  1  0  0  0  0
 26 27  1  0  0  0  0
 29 18  1  0  0  0  0
 29 28  2  0  0  0  0
 30 33  1  6  0  0  0
 30 32  1  0  0  0  0
 30 38  1  0  0  0  0
 31 30  1  0  0  0  0
 31 32  1  0  0  0  0
 31 34  1  0  0  0  0
 32 36  1  1  0  0  0
 35 31  1  0  0  0  0
 37 42  1  0  0  0  0
 38 37  2  0  0  0  0
 38 39  1  0  0  0  0
 39 40  2  0  0  0  0
 40 41  1  0  0  0  0
 41 45  1  0  0  0  0
 42 41  2  0  0  0  0
 43 37  1  0  0  0  0
 44 39  1  0  0  0  0
M  END
>  <minimizedAffinity>
-6.08321762

>  <minimizedRMSD>
3.35144901

$$$$
