
     RDKit          3D

 25 27  0  0  0  0  0  0  0  0999 V2000
   44.5443   36.0271   44.5247 C   0  0  0  0  0  0  0  0  0  0  0  0
   45.2606   35.8930   43.3191 C   0  0  0  0  0  0  0  0  0  0  0  0
   46.1288   34.7956   43.2096 C   0  0  0  0  0  0  0  0  0  0  0  0
   46.2282   33.9412   44.2505 N   0  0  0  0  0  0  0  0  0  0  0  0
   45.5283   34.0946   45.3960 C   0  0  0  0  0  0  0  0  0  0  0  0
   44.6941   35.1381   45.5172 N   0  0  0  0  0  0  0  0  0  0  0  0
   47.0667   34.5635   41.7118 S   0  0  0  0  0  0  0  0  0  0  0  0
   43.8934   36.8760   44.5689 H   0  0  0  0  0  0  0  0  0  0  0  0
   45.1356   36.6071   42.5310 H   0  0  0  0  0  0  0  0  0  0  0  0
   45.5943   33.4211   46.2405 H   0  0  0  0  0  0  0  0  0  0  0  0
   46.0789   33.5554   40.6157 C   0  0  0  0  0  0  0  0  0  0  0  0
   45.5120   34.2394   39.5808 N   0  0  0  0  0  0  0  0  0  0  0  0
   44.7364   33.6145   38.6661 C   0  0  0  0  0  0  0  0  0  0  0  0
   44.5540   32.2997   38.8259 N   0  0  0  0  0  0  0  0  0  0  0  0
   45.0728   31.5621   39.8089 C   0  0  0  0  0  0  0  0  0  0  0  0
   44.8657   30.2050   39.9472 C   0  0  0  0  0  0  0  0  0  0  0  0
   45.4525   29.5332   41.0070 C   0  0  0  0  0  0  0  0  0  0  0  0
   45.2715   28.4670   41.0896 H   0  0  0  0  0  0  0  0  0  0  0  0
   46.2368   30.2135   41.9162 C   0  0  0  0  0  0  0  0  0  0  0  0
   46.6824   29.6529   42.7372 H   0  0  0  0  0  0  0  0  0  0  0  0
   46.4770   31.5839   41.8214 C   0  0  0  0  0  0  0  0  0  0  0  0
   45.8632   32.1926   40.7432 C   0  0  0  0  0  0  0  0  0  0  0  0
   44.3016   34.1965   37.8537 H   0  0  0  0  0  0  0  0  0  0  0  0
   44.2431   29.7530   39.1971 H   0  0  0  0  0  0  0  0  0  0  0  0
   47.0892   32.1301   42.5263 H   0  0  0  0  0  0  0  0  0  0  0  0
  1  6  2  0
  2  1  1  0
  3  2  2  0
  3  4  1  0
  4  5  2  0
  5  6  1  0
  7  3  1  0
  1  8  1  0
  2  9  1  0
  5 10  1  0
 11 12  2  0
 12 13  1  0
 13 14  2  0
 14 15  1  0
 15 16  2  0
 16 17  1  0
 17 18  1  0
 17 19  2  0
 19 20  1  0
 19 21  1  0
 21 22  2  0
 22 11  1  0
 22 15  1  0
 13 23  1  0
 16 24  1  0
 21 25  1  0
  7 11  1  0
M  ISO  5   8  14   9  14  10  14  18  16  20  16
M  END
>  <DihAtoms>  (1) 
2,6,10,11

>  <DihDeg>  (1) 
-89.61400676986321

$$$$
