
 OpenBabel03252506343D

 36 39  0  0  1  0  0  0  0  0999 V2000
   44.4810   35.7210   44.9900 C   0  0  0  0  0  0  0  0  0  0  0  0
   45.1370   35.6920   43.7480 C   0  0  0  0  0  0  0  0  0  0  0  0
   46.0520   34.7110   43.5060 C   0  0  0  0  0  0  0  0  0  0  0  0
   46.2590   33.8210   44.5080 N   0  0  0  0  0  0  0  0  0  0  0  0
   45.6380   33.8530   45.6760 C   0  0  0  0  0  0  0  0  0  0  0  0
   44.7310   34.8010   45.9580 N   0  0  0  0  0  0  0  0  0  0  0  0
   45.9580   32.8540   46.6260 N   0  0  0  0  0  0  0  0  0  0  0  0
   45.1500   32.5610   47.8190 C   0  0  0  0  0  0  0  0  0  0  0  0
   46.2120   32.2620   48.8530 C   0  0  0  0  0  0  0  0  0  0  0  0
   47.5140   32.1310   48.1100 C   0  0  0  0  0  0  0  0  0  0  0  0
   47.0510   31.9310   46.6920 C   0  0  1  0  0  0  0  0  0  0  0  0
   43.7280   36.4650   45.2920 H   0  0  0  0  0  0  0  0  0  0  0  0
   46.5220   34.7260   42.5580 H   0  0  0  0  0  0  0  0  0  0  0  0
   44.4290   31.7530   47.6590 H   0  0  0  0  0  0  0  0  0  0  0  0
   44.6680   33.5190   48.1370 H   0  0  0  0  0  0  0  0  0  0  0  0
   45.9780   31.2390   49.2480 H   0  0  0  0  0  0  0  0  0  0  0  0
   46.2420   32.9900   49.6670 H   0  0  0  0  0  0  0  0  0  0  0  0
   48.1730   31.3250   48.4720 H   0  0  0  0  0  0  0  0  0  0  0  0
   48.0070   33.1400   48.1400 H   0  0  0  0  0  0  0  0  0  0  0  0
   47.8010   32.2760   45.9470 H   0  0  0  0  0  0  0  0  0  0  0  0
   44.7460   36.7460   42.8470 N   0  0  0  0  0  0  0  0  0  0  0  0
   43.7980   36.8000   42.3850 H   0  0  0  0  0  0  0  0  0  0  0  0
   45.4830   37.4550   42.6910 H   0  0  0  0  0  0  0  0  0  0  0  0
   46.5600   30.2240   46.4590 S   0  0  0  0  0  0  0  0  0  0  0  0
   46.8340   29.5840   44.8410 C   0  0  0  0  0  0  0  0  0  0  0  0
   45.9420   29.3990   43.8210 N   0  0  0  0  0  0  0  0  0  0  0  0
   46.3740   28.8770   42.6630 C   0  0  0  0  0  3  0  0  0  0  0  0
   47.6440   28.5070   42.4120 N   0  0  0  0  0  0  0  0  0  0  0  0
   48.5600   28.6710   43.3960 C   0  0  0  0  0  0  0  0  0  0  0  0
   49.8330   28.2660   43.0630 C   0  0  0  0  0  3  0  0  0  0  0  0
   50.8090   28.4150   44.0540 C   0  0  0  0  0  0  0  0  0  0  0  0
   51.8300   28.1220   43.8740 H   0  0  0  0  0  0  0  0  0  0  0  0
   50.4640   28.9410   45.2720 C   0  0  0  0  0  0  0  0  0  0  0  0
   51.2050   29.0640   46.0540 H   0  0  0  0  0  0  0  0  0  0  0  0
   49.1650   29.3240   45.5270 C   0  0  0  0  0  3  0  0  0  0  0  0
   48.1390   29.2080   44.5940 C   0  0  0  0  0  0  0  0  0  0  0  0
  1 12  1  0  0  0  0
  1  6  1  0  0  0  0
  2  1  2  0  0  0  0
  3  2  1  0  0  0  0
  3  4  2  0  0  0  0
  4  5  1  0  0  0  0
  5  6  2  0  0  0  0
  5  7  1  0  0  0  0
  7 11  1  0  0  0  0
  7  8  1  0  0  0  0
  8 15  1  0  0  0  0
  8  9  1  0  0  0  0
  9 16  1  0  0  0  0
  9 17  1  0  0  0  0
 10 19  1  0  0  0  0
 10 18  1  0  0  0  0
 10  9  1  0  0  0  0
 11 20  1  6  0  0  0
 11 10  1  0  0  0  0
 13  3  1  0  0  0  0
 14  8  1  0  0  0  0
 21  2  1  0  0  0  0
 22 21  1  0  0  0  0
 23 21  1  0  0  0  0
 24 11  1  0  0  0  0
 25 24  1  0  0  0  0
 26 25  2  0  0  0  0
 27 26  1  0  0  0  0
 28 27  2  0  0  0  0
 28 29  1  0  0  0  0
 29 36  1  0  0  0  0
 30 29  2  0  0  0  0
 30 31  1  0  0  0  0
 31 33  2  0  0  0  0
 32 31  1  0  0  0  0
 33 35  1  0  0  0  0
 33 34  1  0  0  0  0
 36 25  1  0  0  0  0
 36 35  2  0  0  0  0
M  END
>  <minimizedAffinity>
-5.13630915

>  <minimizedRMSD>
2.16897655

$$$$
