
 OpenBabel03252504313D

 36 38  0  0  0  0  0  0  0  0999 V2000
   36.0030   30.2180   40.5370 C   0  0  0  0  0  0  0  0  0  0  0  0
   36.4520   30.0230   39.5290 H   0  0  0  0  0  0  0  0  0  0  0  0
   34.9090   30.0780   40.5090 H   0  0  0  0  0  0  0  0  0  0  0  0
   36.3890   27.8960   41.4860 C   0  0  0  0  0  3  0  0  0  0  0  0
   36.6680   29.2040   41.4490 C   0  0  0  0  0  3  0  0  0  0  0  0
   37.1080   27.1260   42.3910 O   0  0  0  0  0  0  0  0  0  0  0  0
   37.7500   27.5700   43.5250 C   0  0  0  0  0  0  0  0  0  0  0  0
   37.6830   28.7030   43.5040 H   0  0  0  0  0  0  0  0  0  0  0  0
   37.2600   27.2410   44.4420 H   0  0  0  0  0  0  0  0  0  0  0  0
   39.9540   28.3560   42.9220 C   0  0  0  0  0  0  0  0  0  0  0  0
   39.2140   27.3120   43.5160 C   0  0  0  0  0  0  0  0  0  0  0  0
   39.9120   26.2470   43.9880 C   0  0  0  0  0  0  0  0  0  0  0  0
   41.2380   26.2720   43.8520 N   0  0  0  0  0  0  0  0  0  0  0  0
   41.9350   27.2480   43.2970 C   0  0  0  0  0  0  0  0  0  0  0  0
   41.2960   28.3750   42.7890 N   0  0  0  0  0  0  0  0  0  0  0  0
   39.4840   29.2610   42.5100 H   0  0  0  0  0  0  0  0  0  0  0  0
   39.2910   25.4830   44.4290 H   0  0  0  0  0  0  0  0  0  0  0  0
   43.0170   27.2090   43.2160 H   0  0  0  0  0  0  0  0  0  0  0  0
   36.3670   31.4650   40.9800 O   0  0  0  0  0  0  0  0  0  0  0  0
   37.2300   31.6320   38.4720 O   0  0  0  0  0  0  0  0  0  0  0  0
   37.3040   32.2760   39.8230 P   0  0  1  0  0  0  0  0  0  0  0  0
   36.7870   33.8810   39.6780 O   0  0  0  0  0  0  0  0  0  0  0  0
   36.8760   34.3440   40.5540 H   0  0  0  0  0  0  0  0  0  0  0  0
   38.9130   32.3230   40.3650 O   0  0  0  0  0  0  0  0  0  0  0  0
   39.6100   33.5100   40.1490 C   0  0  0  0  0  0  0  0  0  0  0  0
   39.3580   34.6480   40.8240 N   0  0  0  0  0  0  0  0  0  0  0  0
   40.0650   35.7870   40.5800 C   0  0  0  0  0  3  0  0  0  0  0  0
   41.0230   35.7510   39.6490 N   0  0  0  0  0  0  0  0  0  0  0  0
   41.3320   34.6440   38.9330 C   0  0  0  0  0  0  0  0  0  0  0  0
   42.3530   34.7860   38.0100 C   0  0  0  0  0  3  0  0  0  0  0  0
   42.6520   33.6370   37.2870 C   0  0  0  0  0  0  0  0  0  0  0  0
   43.4490   33.7270   36.5600 H   0  0  0  0  0  0  0  0  0  0  0  0
   41.9610   32.4640   37.5030 C   0  0  0  0  0  0  0  0  0  0  0  0
   42.2110   31.5830   36.9280 H   0  0  0  0  0  0  0  0  0  0  0  0
   40.9480   32.3720   38.4370 C   0  0  0  0  0  3  0  0  0  0  0  0
   40.6050   33.4960   39.1930 C   0  0  0  0  0  0  0  0  0  0  0  0
  1 19  1  0  0  0  0
  1  5  1  0  0  0  0
  2  1  1  0  0  0  0
  3  1  1  0  0  0  0
  4  6  1  0  0  0  0
  5  4  2  0  0  0  0
  6  7  1  0  0  0  0
  7  9  1  0  0  0  0
  8  7  1  0  0  0  0
 10 11  1  0  0  0  0
 11  7  1  0  0  0  0
 11 12  2  0  0  0  0
 12 17  1  0  0  0  0
 13 12  1  0  0  0  0
 14 13  2  0  0  0  0
 15 10  2  0  0  0  0
 15 14  1  0  0  0  0
 16 10  1  0  0  0  0
 18 14  1  0  0  0  0
 21 20  2  6  0  0  0
 21 24  1  0  0  0  0
 21 19  1  0  0  0  0
 22 21  1  0  0  0  0
 22 23  1  0  0  0  0
 25 24  1  0  0  0  0
 25 26  1  0  0  0  0
 27 26  2  0  0  0  0
 28 27  1  0  0  0  0
 29 36  1  0  0  0  0
 29 28  2  0  0  0  0
 30 29  1  0  0  0  0
 31 33  1  0  0  0  0
 31 30  2  0  0  0  0
 32 31  1  0  0  0  0
 33 35  2  0  0  0  0
 34 33  1  0  0  0  0
 35 36  1  0  0  0  0
 36 25  2  0  0  0  0
M  END
>  <minimizedAffinity>
-5.81534195

$$$$

 OpenBabel03252504313D

 36 38  0  0  0  0  0  0  0  0999 V2000
   36.2530   29.3570   41.1600 C   0  0  0  0  0  0  0  0  0  0  0  0
   35.8250   29.5180   42.1830 H   0  0  0  0  0  0  0  0  0  0  0  0
   35.5310   28.8290   40.5150 H   0  0  0  0  0  0  0  0  0  0  0  0
   37.0410   31.0520   39.4430 C   0  0  0  0  0  3  0  0  0  0  0  0
   36.5350   30.7570   40.6460 C   0  0  0  0  0  3  0  0  0  0  0  0
   37.2270   32.3960   39.1530 O   0  0  0  0  0  0  0  0  0  0  0  0
   37.4850   33.4070   40.0510 C   0  0  0  0  0  0  0  0  0  0  0  0
   36.7690   34.2490   39.7940 H   0  0  0  0  0  0  0  0  0  0  0  0
   37.2760   33.1170   41.0810 H   0  0  0  0  0  0  0  0  0  0  0  0
   38.8210   35.4190   40.1150 C   0  0  0  0  0  0  0  0  0  0  0  0
   38.8230   34.0290   39.8760 C   0  0  0  0  0  0  0  0  0  0  0  0
   40.0080   33.4610   39.5300 C   0  0  0  0  0  0  0  0  0  0  0  0
   41.0720   34.2610   39.4450 N   0  0  0  0  0  0  0  0  0  0  0  0
   41.0740   35.5630   39.6690 C   0  0  0  0  0  0  0  0  0  0  0  0
   39.9020   36.2220   40.0270 N   0  0  0  0  0  0  0  0  0  0  0  0
   37.9150   35.9740   40.4000 H   0  0  0  0  0  0  0  0  0  0  0  0
   39.9450   32.3980   39.3610 H   0  0  0  0  0  0  0  0  0  0  0  0
   41.9760   36.1610   39.5830 H   0  0  0  0  0  0  0  0  0  0  0  0
   37.4580   28.7070   41.2520 O   0  0  0  0  0  0  0  0  0  0  0  0
   39.1790   29.7940   42.9600 O   0  0  0  0  0  0  0  0  0  0  0  0
   38.0780   28.7860   42.8280 P   0  0  1  0  0  0  0  0  0  0  0  0
   36.8480   29.1940   43.9170 O   0  0  0  0  0  0  0  0  0  0  0  0
   36.1280   28.5090   43.8840 H   0  0  0  0  0  0  0  0  0  0  0  0
   38.6360   27.2430   43.2690 O   0  0  0  0  0  0  0  0  0  0  0  0
   39.2880   26.5100   42.2800 C   0  0  0  0  0  0  0  0  0  0  0  0
   40.5520   26.7610   41.8860 N   0  0  0  0  0  0  0  0  0  0  0  0
   41.1510   26.0190   40.9140 C   0  0  0  0  0  3  0  0  0  0  0  0
   40.4540   25.0250   40.3550 N   0  0  0  0  0  0  0  0  0  0  0  0
   39.1830   24.7140   40.7000 C   0  0  0  0  0  0  0  0  0  0  0  0
   38.6120   23.6540   40.0190 C   0  0  0  0  0  3  0  0  0  0  0  0
   37.3070   23.3540   40.3910 C   0  0  0  0  0  0  0  0  0  0  0  0
   36.8420   22.5260   39.8690 H   0  0  0  0  0  0  0  0  0  0  0  0
   36.6640   24.0800   41.3690 C   0  0  0  0  0  0  0  0  0  0  0  0
   35.6480   23.8290   41.6420 H   0  0  0  0  0  0  0  0  0  0  0  0
   37.2760   25.1320   42.0220 C   0  0  0  0  0  3  0  0  0  0  0  0
   38.5880   25.4790   41.6890 C   0  0  0  0  0  0  0  0  0  0  0  0
  1 19  1  0  0  0  0
  1  2  1  0  0  0  0
  3  1  1  0  0  0  0
  4  5  2  0  0  0  0
  5  1  1  0  0  0  0
  6  4  1  0  0  0  0
  6  7  1  0  0  0  0
  7  9  1  0  0  0  0
  8  7  1  0  0  0  0
 10 16  1  0  0  0  0
 11  7  1  0  0  0  0
 11 10  2  0  0  0  0
 12 11  1  0  0  0  0
 13 12  2  0  0  0  0
 13 14  1  0  0  0  0
 14 15  2  0  0  0  0
 15 10  1  0  0  0  0
 17 12  1  0  0  0  0
 18 14  1  0  0  0  0
 19 21  1  0  0  0  0
 21 20  2  1  0  0  0
 21 24  1  0  0  0  0
 21 22  1  0  0  0  0
 23 22  1  0  0  0  0
 25 24  1  0  0  0  0
 26 25  1  0  0  0  0
 27 26  2  0  0  0  0
 28 29  2  0  0  0  0
 28 27  1  0  0  0  0
 29 36  1  0  0  0  0
 30 31  2  0  0  0  0
 30 29  1  0  0  0  0
 31 33  1  0  0  0  0
 32 31  1  0  0  0  0
 33 34  1  0  0  0  0
 33 35  2  0  0  0  0
 36 35  1  0  0  0  0
 36 25  2  0  0  0  0
M  END
>  <minimizedAffinity>
-5.72261763

$$$$

 OpenBabel03252504313D

 36 38  0  0  0  0  0  0  0  0999 V2000
   36.3060   29.5370   38.5650 C   0  0  0  0  0  0  0  0  0  0  0  0
   36.9350   28.8670   37.9250 H   0  0  0  0  0  0  0  0  0  0  0  0
   35.2470   29.4870   38.2580 H   0  0  0  0  0  0  0  0  0  0  0  0
   36.8570   29.7350   41.0350 C   0  0  0  0  0  3  0  0  0  0  0  0
   36.4990   29.0040   39.9730 C   0  0  0  0  0  3  0  0  0  0  0  0
   36.9820   29.0660   42.2440 O   0  0  0  0  0  0  0  0  0  0  0  0
   36.5490   27.7910   42.5310 C   0  0  0  0  0  0  0  0  0  0  0  0
   36.0500   27.8490   43.5490 H   0  0  0  0  0  0  0  0  0  0  0  0
   35.7950   27.4350   41.8290 H   0  0  0  0  0  0  0  0  0  0  0  0
   38.6440   27.3020   43.6320 C   0  0  0  0  0  0  0  0  0  0  0  0
   37.6560   26.8230   42.7460 C   0  0  0  0  0  0  0  0  0  0  0  0
   37.8400   25.5820   42.2250 C   0  0  0  0  0  0  0  0  0  0  0  0
   38.9350   24.9170   42.5920 N   0  0  0  0  0  0  0  0  0  0  0  0
   39.8620   25.3620   43.4230 C   0  0  0  0  0  0  0  0  0  0  0  0
   39.7490   26.6230   43.9990 N   0  0  0  0  0  0  0  0  0  0  0  0
   38.5890   28.2920   44.1080 H   0  0  0  0  0  0  0  0  0  0  0  0
   37.0520   25.2730   41.5550 H   0  0  0  0  0  0  0  0  0  0  0  0
   40.7340   24.7700   43.6820 H   0  0  0  0  0  0  0  0  0  0  0  0
   36.8060   30.8140   38.5410 O   0  0  0  0  0  0  0  0  0  0  0  0
   38.7330   29.5440   37.2240 O   0  0  0  0  0  0  0  0  0  0  0  0
   38.3500   30.8540   37.8410 P   0  0  1  0  0  0  0  0  0  0  0  0
   38.4140   32.0480   36.6430 O   0  0  0  0  0  0  0  0  0  0  0  0
   38.2130   32.9370   37.0420 H   0  0  0  0  0  0  0  0  0  0  0  0
   39.4740   31.2940   39.0360 O   0  0  0  0  0  0  0  0  0  0  0  0
   40.3590   32.3210   38.7130 C   0  0  0  0  0  0  0  0  0  0  0  0
   41.3610   32.1810   37.8250 N   0  0  0  0  0  0  0  0  0  0  0  0
   42.2040   33.2120   37.5400 C   0  0  0  0  0  3  0  0  0  0  0  0
   42.0130   34.3780   38.1650 N   0  0  0  0  0  0  0  0  0  0  0  0
   41.0270   34.5920   39.0680 C   0  0  0  0  0  0  0  0  0  0  0  0
   40.9760   35.8600   39.6180 C   0  0  0  0  0  3  0  0  0  0  0  0
   39.9560   36.0560   40.5410 C   0  0  0  0  0  0  0  0  0  0  0  0
   39.8980   37.0430   40.9840 H   0  0  0  0  0  0  0  0  0  0  0  0
   39.0820   35.0390   40.8590 C   0  0  0  0  0  0  0  0  0  0  0  0
   38.2960   35.2140   41.5810 H   0  0  0  0  0  0  0  0  0  0  0  0
   39.1740   33.7880   40.2820 C   0  0  0  0  0  3  0  0  0  0  0  0
   40.1800   33.5340   39.3460 C   0  0  0  0  0  0  0  0  0  0  0  0
  1  5  1  0  0  0  0
  2  1  1  0  0  0  0
  3  1  1  0  0  0  0
  4  6  1  0  0  0  0
  5  4  2  0  0  0  0
  6  7  1  0  0  0  0
  7 11  1  0  0  0  0
  7  8  1  0  0  0  0
  9  7  1  0  0  0  0
 10 15  1  0  0  0  0
 10 16  1  0  0  0  0
 11 10  2  0  0  0  0
 12 13  2  0  0  0  0
 12 11  1  0  0  0  0
 13 14  1  0  0  0  0
 14 18  1  0  0  0  0
 14 15  2  0  0  0  0
 17 12  1  0  0  0  0
 19  1  1  0  0  0  0
 21 20  2  6  0  0  0
 21 19  1  0  0  0  0
 21 24  1  0  0  0  0
 22 23  1  0  0  0  0
 22 21  1  0  0  0  0
 25 24  1  0  0  0  0
 25 36  1  0  0  0  0
 26 25  2  0  0  0  0
 27 26  1  0  0  0  0
 27 28  2  0  0  0  0
 28 29  1  0  0  0  0
 29 36  2  0  0  0  0
 29 30  1  0  0  0  0
 30 31  2  0  0  0  0
 31 33  1  0  0  0  0
 31 32  1  0  0  0  0
 33 34  1  0  0  0  0
 35 33  2  0  0  0  0
 36 35  1  0  0  0  0
M  END
>  <minimizedAffinity>
-5.69480944

$$$$

 OpenBabel03252504313D

 36 38  0  0  0  0  0  0  0  0999 V2000
   36.5370   29.9540   38.0750 C   0  0  0  0  0  0  0  0  0  0  0  0
   36.8880   29.1730   38.7970 H   0  0  0  0  0  0  0  0  0  0  0  0
   37.1470   29.9350   37.1560 H   0  0  0  0  0  0  0  0  0  0  0  0
   34.6920   28.4990   37.1140 C   0  0  0  0  0  3  0  0  0  0  0  0
   35.0930   29.5820   37.7890 C   0  0  0  0  0  3  0  0  0  0  0  0
   33.3230   28.3300   36.9560 O   0  0  0  0  0  0  0  0  0  0  0  0
   32.5400   28.8340   35.9430 C   0  0  0  0  0  0  0  0  0  0  0  0
   33.2480   29.3570   35.2260 H   0  0  0  0  0  0  0  0  0  0  0  0
   32.0350   28.0530   35.3740 H   0  0  0  0  0  0  0  0  0  0  0  0
   31.1760   29.7620   37.7090 C   0  0  0  0  0  0  0  0  0  0  0  0
   31.6300   29.9230   36.3830 C   0  0  0  0  0  0  0  0  0  0  0  0
   31.1910   31.0160   35.7060 C   0  0  0  0  0  0  0  0  0  0  0  0
   30.3700   31.8480   36.3480 N   0  0  0  0  0  0  0  0  0  0  0  0
   29.9440   31.7010   37.5900 C   0  0  0  0  0  0  0  0  0  0  0  0
   30.3460   30.6080   38.3510 N   0  0  0  0  0  0  0  0  0  0  0  0
   31.4720   28.9120   38.3410 H   0  0  0  0  0  0  0  0  0  0  0  0
   31.5720   31.0840   34.6990 H   0  0  0  0  0  0  0  0  0  0  0  0
   29.2730   32.4160   38.0570 H   0  0  0  0  0  0  0  0  0  0  0  0
   36.5280   31.1850   38.6810 O   0  0  0  0  0  0  0  0  0  0  0  0
   37.7830   32.2850   40.7490 O   0  0  0  0  0  0  0  0  0  0  0  0
   37.0230   31.0750   40.2990 P   0  0  1  0  0  0  0  0  0  0  0  0
   35.6780   30.8830   41.3070 O   0  0  0  0  0  0  0  0  0  0  0  0
   35.1850   30.0550   41.0580 H   0  0  0  0  0  0  0  0  0  0  0  0
   37.9770   29.6800   40.4780 O   0  0  0  0  0  0  0  0  0  0  0  0
   37.6880   28.8630   41.5690 C   0  0  0  0  0  0  0  0  0  0  0  0
   37.6510   29.3110   42.8390 N   0  0  0  0  0  0  0  0  0  0  0  0
   37.3640   28.4760   43.8760 C   0  0  0  0  0  3  0  0  0  0  0  0
   37.1180   27.1910   43.6060 N   0  0  0  0  0  0  0  0  0  0  0  0
   37.1370   26.6700   42.3560 C   0  0  0  0  0  0  0  0  0  0  0  0
   36.8580   25.3190   42.2590 C   0  0  0  0  0  3  0  0  0  0  0  0
   36.8840   24.8080   40.9670 C   0  0  0  0  0  0  0  0  0  0  0  0
   36.6680   23.7510   40.8700 H   0  0  0  0  0  0  0  0  0  0  0  0
   37.1690   25.6180   39.8900 C   0  0  0  0  0  0  0  0  0  0  0  0
   37.1840   25.1980   38.8930 H   0  0  0  0  0  0  0  0  0  0  0  0
   37.4420   26.9630   40.0370 C   0  0  0  0  0  3  0  0  0  0  0  0
   37.4300   27.5320   41.3140 C   0  0  0  0  0  0  0  0  0  0  0  0
  1 19  1  0  0  0  0
  1  2  1  0  0  0  0
  3  1  1  0  0  0  0
  4  5  2  0  0  0  0
  5  1  1  0  0  0  0
  6  4  1  0  0  0  0
  7 11  1  0  0  0  0
  7  6  1  0  0  0  0
  8  7  1  0  0  0  0
  9  7  1  0  0  0  0
 10 16  1  0  0  0  0
 10 15  1  0  0  0  0
 11 10  2  0  0  0  0
 12 13  2  0  0  0  0
 12 11  1  0  0  0  0
 13 14  1  0  0  0  0
 14 18  1  0  0  0  0
 14 15  2  0  0  0  0
 17 12  1  0  0  0  0
 19 21  1  0  0  0  0
 21 24  1  0  0  0  0
 21 20  2  1  0  0  0
 21 22  1  0  0  0  0
 23 22  1  0  0  0  0
 24 25  1  0  0  0  0
 25 26  1  0  0  0  0
 26 27  2  0  0  0  0
 28 27  1  0  0  0  0
 29 28  2  0  0  0  0
 30 29  1  0  0  0  0
 31 30  2  0  0  0  0
 32 31  1  0  0  0  0
 33 35  2  0  0  0  0
 33 31  1  0  0  0  0
 34 33  1  0  0  0  0
 35 36  1  0  0  0  0
 36 25  2  0  0  0  0
 36 29  1  0  0  0  0
M  END
>  <minimizedAffinity>
-5.54021072

$$$$

 OpenBabel03252504313D

 36 38  0  0  0  0  0  0  0  0999 V2000
   37.4130   32.7640   39.9790 C   0  0  0  0  0  0  0  0  0  0  0  0
   37.6880   32.1470   40.8720 H   0  0  0  0  0  0  0  0  0  0  0  0
   36.4430   33.2640   40.1350 H   0  0  0  0  0  0  0  0  0  0  0  0
   38.7460   34.8100   40.6740 C   0  0  0  0  0  3  0  0  0  0  0  0
   38.5420   33.7710   39.8550 C   0  0  0  0  0  3  0  0  0  0  0  0
   39.8370   35.6220   40.3970 O   0  0  0  0  0  0  0  0  0  0  0  0
   41.0520   35.2260   39.8850 C   0  0  0  0  0  0  0  0  0  0  0  0
   40.8920   34.1870   39.4580 H   0  0  0  0  0  0  0  0  0  0  0  0
   41.3870   35.8580   39.0630 H   0  0  0  0  0  0  0  0  0  0  0  0
   42.6460   33.7160   40.8940 C   0  0  0  0  0  0  0  0  0  0  0  0
   42.0920   35.0130   40.9250 C   0  0  0  0  0  0  0  0  0  0  0  0
   42.5680   35.8670   41.8680 C   0  0  0  0  0  0  0  0  0  0  0  0
   43.5170   35.4130   42.6870 N   0  0  0  0  0  0  0  0  0  0  0  0
   44.0390   34.2000   42.6590 C   0  0  0  0  0  0  0  0  0  0  0  0
   43.6080   33.2640   41.7250 N   0  0  0  0  0  0  0  0  0  0  0  0
   42.3310   32.9500   40.1700 H   0  0  0  0  0  0  0  0  0  0  0  0
   42.1050   36.8420   41.8420 H   0  0  0  0  0  0  0  0  0  0  0  0
   44.8130   33.8900   43.3560 H   0  0  0  0  0  0  0  0  0  0  0  0
   37.4350   31.9870   38.8470 O   0  0  0  0  0  0  0  0  0  0  0  0
   38.2130   29.5980   37.9850 O   0  0  0  0  0  0  0  0  0  0  0  0
   37.8680   30.3890   39.2090 P   0  0  1  0  0  0  0  0  0  0  0  0
   39.2010   30.3690   40.2510 O   0  0  0  0  0  0  0  0  0  0  0  0
   38.9760   30.8460   41.0950 H   0  0  0  0  0  0  0  0  0  0  0  0
   36.5810   29.6550   40.0410 O   0  0  0  0  0  0  0  0  0  0  0  0
   36.9110   28.9130   41.1730 C   0  0  0  0  0  0  0  0  0  0  0  0
   37.2430   29.4730   42.3520 N   0  0  0  0  0  0  0  0  0  0  0  0
   37.5600   28.7090   43.4340 C   0  0  0  0  0  3  0  0  0  0  0  0
   37.5340   27.3800   43.3020 N   0  0  0  0  0  0  0  0  0  0  0  0
   37.2100   26.7480   42.1490 C   0  0  0  0  0  0  0  0  0  0  0  0
   37.2330   25.3650   42.1890 C   0  0  0  0  0  3  0  0  0  0  0  0
   36.8970   24.7390   40.9960 C   0  0  0  0  0  0  0  0  0  0  0  0
   36.9090   23.6560   41.0060 H   0  0  0  0  0  0  0  0  0  0  0  0
   36.5700   25.4750   39.8770 C   0  0  0  0  0  0  0  0  0  0  0  0
   36.3120   24.9650   38.9580 H   0  0  0  0  0  0  0  0  0  0  0  0
   36.5600   26.8550   39.8850 C   0  0  0  0  0  3  0  0  0  0  0  0
   36.8900   27.5390   41.0590 C   0  0  0  0  0  0  0  0  0  0  0  0
  1  3  1  0  0  0  0
  1  2  1  0  0  0  0
  5  1  1  0  0  0  0
  5  4  2  0  0  0  0
  6  4  1  0  0  0  0
  7  6  1  0  0  0  0
  7 11  1  0  0  0  0
  8  7  1  0  0  0  0
  9  7  1  0  0  0  0
 10 11  2  0  0  0  0
 10 15  1  0  0  0  0
 11 12  1  0  0  0  0
 12 13  2  0  0  0  0
 14 13  1  0  0  0  0
 14 18  1  0  0  0  0
 15 14  2  0  0  0  0
 16 10  1  0  0  0  0
 17 12  1  0  0  0  0
 19 21  1  0  0  0  0
 19  1  1  0  0  0  0
 21 20  2  6  0  0  0
 21 24  1  0  0  0  0
 21 22  1  0  0  0  0
 22 23  1  0  0  0  0
 24 25  1  0  0  0  0
 25 26  1  0  0  0  0
 26 27  2  0  0  0  0
 28 27  1  0  0  0  0
 29 30  1  0  0  0  0
 29 28  2  0  0  0  0
 31 32  1  0  0  0  0
 31 30  2  0  0  0  0
 33 35  2  0  0  0  0
 33 31  1  0  0  0  0
 34 33  1  0  0  0  0
 35 36  1  0  0  0  0
 36 25  2  0  0  0  0
 36 29  1  0  0  0  0
M  END
>  <minimizedAffinity>
-5.53112125

$$$$

 OpenBabel03252504313D

 36 38  0  0  0  0  0  0  0  0999 V2000
   37.3830   30.9510   37.8530 C   0  0  0  0  0  0  0  0  0  0  0  0
   37.0180   31.2710   36.8440 H   0  0  0  0  0  0  0  0  0  0  0  0
   37.1890   29.8770   38.0140 H   0  0  0  0  0  0  0  0  0  0  0  0
   39.8420   30.3310   37.7470 C   0  0  0  0  0  3  0  0  0  0  0  0
   38.8700   31.2480   37.8280 C   0  0  0  0  0  3  0  0  0  0  0  0
   41.1480   30.8000   37.7360 O   0  0  0  0  0  0  0  0  0  0  0  0
   42.0560   30.6910   36.7070 C   0  0  0  0  0  0  0  0  0  0  0  0
   42.4410   29.6240   36.7370 H   0  0  0  0  0  0  0  0  0  0  0  0
   41.6000   30.8350   35.7270 H   0  0  0  0  0  0  0  0  0  0  0  0
   43.0110   32.8050   37.3860 C   0  0  0  0  0  0  0  0  0  0  0  0
   43.2830   31.5050   36.9110 C   0  0  0  0  0  0  0  0  0  0  0  0
   44.5860   31.1780   36.7100 C   0  0  0  0  0  0  0  0  0  0  0  0
   45.5020   32.1100   36.9780 N   0  0  0  0  0  0  0  0  0  0  0  0
   45.2500   33.3280   37.4240 C   0  0  0  0  0  0  0  0  0  0  0  0
   43.9420   33.7420   37.6550 N   0  0  0  0  0  0  0  0  0  0  0  0
   41.9900   33.1670   37.5800 H   0  0  0  0  0  0  0  0  0  0  0  0
   44.7300   30.1720   36.3470 H   0  0  0  0  0  0  0  0  0  0  0  0
   46.0430   34.0430   37.6240 H   0  0  0  0  0  0  0  0  0  0  0  0
   36.8260   31.7420   38.8270 O   0  0  0  0  0  0  0  0  0  0  0  0
   38.1630   31.7870   41.1220 O   0  0  0  0  0  0  0  0  0  0  0  0
   37.0760   31.0830   40.3690 P   0  0  1  0  0  0  0  0  0  0  0  0
   35.6520   31.1740   41.2780 O   0  0  0  0  0  0  0  0  0  0  0  0
   34.9270   30.6690   40.8200 H   0  0  0  0  0  0  0  0  0  0  0  0
   37.4490   29.4350   40.1990 O   0  0  0  0  0  0  0  0  0  0  0  0
   37.3690   28.6550   41.3510 C   0  0  0  0  0  0  0  0  0  0  0  0
   37.4600   29.1630   42.5950 N   0  0  0  0  0  0  0  0  0  0  0  0
   37.3770   28.3630   43.6940 C   0  0  0  0  0  3  0  0  0  0  0  0
   37.2010   27.0510   43.5120 N   0  0  0  0  0  0  0  0  0  0  0  0
   37.1010   26.4700   42.2930 C   0  0  0  0  0  0  0  0  0  0  0  0
   36.9220   25.0990   42.2890 C   0  0  0  0  0  3  0  0  0  0  0  0
   36.8210   24.5260   41.0270 C   0  0  0  0  0  0  0  0  0  0  0  0
   36.6800   23.4520   41.0020 H   0  0  0  0  0  0  0  0  0  0  0  0
   36.9000   25.2990   39.8890 C   0  0  0  0  0  0  0  0  0  0  0  0
   36.8200   24.8310   38.9170 H   0  0  0  0  0  0  0  0  0  0  0  0
   37.0810   26.6660   39.9440 C   0  0  0  0  0  3  0  0  0  0  0  0
   37.1880   27.2970   41.1860 C   0  0  0  0  0  0  0  0  0  0  0  0
  1  3  1  0  0  0  0
  1 19  1  0  0  0  0
  2  1  1  0  0  0  0
  4  5  2  0  0  0  0
  5  1  1  0  0  0  0
  6  4  1  0  0  0  0
  7  8  1  0  0  0  0
  7 11  1  0  0  0  0
  7  6  1  0  0  0  0
  9  7  1  0  0  0  0
 10 16  1  0  0  0  0
 10 15  1  0  0  0  0
 11 10  2  0  0  0  0
 12 11  1  0  0  0  0
 12 13  2  0  0  0  0
 13 14  1  0  0  0  0
 14 18  1  0  0  0  0
 14 15  2  0  0  0  0
 17 12  1  0  0  0  0
 19 21  1  0  0  0  0
 21 20  2  1  0  0  0
 21 22  1  0  0  0  0
 23 22  1  0  0  0  0
 24 21  1  0  0  0  0
 24 25  1  0  0  0  0
 25 26  1  0  0  0  0
 26 27  2  0  0  0  0
 28 27  1  0  0  0  0
 29 28  2  0  0  0  0
 30 29  1  0  0  0  0
 31 30  2  0  0  0  0
 32 31  1  0  0  0  0
 33 35  2  0  0  0  0
 33 31  1  0  0  0  0
 34 33  1  0  0  0  0
 35 36  1  0  0  0  0
 36 25  2  0  0  0  0
 36 29  1  0  0  0  0
M  END
>  <minimizedAffinity>
-5.521101

$$$$

 OpenBabel03252504313D

 36 38  0  0  0  0  0  0  0  0999 V2000
   39.3860   29.0330   42.7790 C   0  0  0  0  0  0  0  0  0  0  0  0
   39.3270   28.1830   42.0530 H   0  0  0  0  0  0  0  0  0  0  0  0
   40.1060   28.8080   43.5840 H   0  0  0  0  0  0  0  0  0  0  0  0
   40.1940   30.1590   40.6530 C   0  0  0  0  0  3  0  0  0  0  0  0
   39.8420   30.2140   41.9420 C   0  0  0  0  0  3  0  0  0  0  0  0
   40.5830   31.3510   40.0570 O   0  0  0  0  0  0  0  0  0  0  0  0
   41.2060   32.4150   40.6680 C   0  0  0  0  0  0  0  0  0  0  0  0
   41.1290   32.2270   41.7850 H   0  0  0  0  0  0  0  0  0  0  0  0
   42.2690   32.4740   40.4310 H   0  0  0  0  0  0  0  0  0  0  0  0
   41.2950   34.7040   39.8990 C   0  0  0  0  0  0  0  0  0  0  0  0
   40.4910   33.7050   40.4860 C   0  0  0  0  0  0  0  0  0  0  0  0
   39.2120   34.0420   40.7960 C   0  0  0  0  0  0  0  0  0  0  0  0
   38.8190   35.2850   40.5210 N   0  0  0  0  0  0  0  0  0  0  0  0
   39.5690   36.2240   39.9700 C   0  0  0  0  0  0  0  0  0  0  0  0
   40.8910   35.9610   39.6230 N   0  0  0  0  0  0  0  0  0  0  0  0
   42.3430   34.5340   39.6120 H   0  0  0  0  0  0  0  0  0  0  0  0
   38.6480   33.2360   41.2420 H   0  0  0  0  0  0  0  0  0  0  0  0
   39.1890   37.2210   39.7710 H   0  0  0  0  0  0  0  0  0  0  0  0
   38.1340   29.3310   43.2560 O   0  0  0  0  0  0  0  0  0  0  0  0
   37.8270   26.7260   42.8310 O   0  0  0  0  0  0  0  0  0  0  0  0
   37.0930   28.0010   43.1150 P   0  0  1  0  0  0  0  0  0  0  0  0
   36.2090   27.8010   44.5450 O   0  0  0  0  0  0  0  0  0  0  0  0
   35.6720   28.6180   44.7260 H   0  0  0  0  0  0  0  0  0  0  0  0
   35.9700   28.3210   41.8820 O   0  0  0  0  0  0  0  0  0  0  0  0
   36.4360   28.2240   40.5720 C   0  0  0  0  0  0  0  0  0  0  0  0
   36.6390   27.0500   39.9450 N   0  0  0  0  0  0  0  0  0  0  0  0
   37.0980   27.0020   38.6630 C   0  0  0  0  0  3  0  0  0  0  0  0
   37.3430   28.1550   38.0340 N   0  0  0  0  0  0  0  0  0  0  0  0
   37.1620   29.3710   38.6000 C   0  0  0  0  0  0  0  0  0  0  0  0
   37.4660   30.4610   37.8040 C   0  0  0  0  0  3  0  0  0  0  0  0
   37.2720   31.6980   38.4070 C   0  0  0  0  0  0  0  0  0  0  0  0
   37.5040   32.5650   37.8000 H   0  0  0  0  0  0  0  0  0  0  0  0
   36.8100   31.7910   39.7020 C   0  0  0  0  0  0  0  0  0  0  0  0
   36.6670   32.7650   40.1510 H   0  0  0  0  0  0  0  0  0  0  0  0
   36.5200   30.6730   40.4580 C   0  0  0  0  0  3  0  0  0  0  0  0
   36.6960   29.4020   39.9030 C   0  0  0  0  0  0  0  0  0  0  0  0
  1 19  1  0  0  0  0
  1  3  1  0  0  0  0
  2  1  1  0  0  0  0
  4  5  2  0  0  0  0
  5  1  1  0  0  0  0
  6  4  1  0  0  0  0
  6  7  1  0  0  0  0
  7  8  1  0  0  0  0
  9  7  1  0  0  0  0
 10 11  1  0  0  0  0
 11  7  1  0  0  0  0
 11 12  2  0  0  0  0
 12 17  1  0  0  0  0
 13 12  1  0  0  0  0
 14 13  2  0  0  0  0
 15 10  2  0  0  0  0
 15 14  1  0  0  0  0
 16 10  1  0  0  0  0
 18 14  1  0  0  0  0
 21 20  2  6  0  0  0
 21 19  1  0  0  0  0
 21 22  1  0  0  0  0
 22 23  1  0  0  0  0
 24 21  1  0  0  0  0
 25 24  1  0  0  0  0
 26 25  1  0  0  0  0
 27 26  2  0  0  0  0
 28 29  2  0  0  0  0
 28 27  1  0  0  0  0
 29 36  1  0  0  0  0
 30 31  2  0  0  0  0
 30 29  1  0  0  0  0
 31 33  1  0  0  0  0
 32 31  1  0  0  0  0
 33 34  1  0  0  0  0
 33 35  2  0  0  0  0
 36 35  1  0  0  0  0
 36 25  2  0  0  0  0
M  END
>  <minimizedAffinity>
-5.50514412

$$$$

 OpenBabel03252504313D

 36 38  0  0  0  0  0  0  0  0999 V2000
   39.5460   28.3790   42.8160 C   0  0  0  0  0  0  0  0  0  0  0  0
   40.3550   27.6040   42.8520 H   0  0  0  0  0  0  0  0  0  0  0  0
   39.1300   28.5530   43.8220 H   0  0  0  0  0  0  0  0  0  0  0  0
   40.1140   30.0960   41.0340 C   0  0  0  0  0  3  0  0  0  0  0  0
   40.2360   29.6190   42.2790 C   0  0  0  0  0  3  0  0  0  0  0  0
   40.8250   31.2480   40.7310 O   0  0  0  0  0  0  0  0  0  0  0  0
   40.5180   32.1770   39.7630 C   0  0  0  0  0  0  0  0  0  0  0  0
   41.2910   32.0450   38.9420 H   0  0  0  0  0  0  0  0  0  0  0  0
   39.5430   32.0050   39.3080 H   0  0  0  0  0  0  0  0  0  0  0  0
   39.5700   34.3810   40.0480 C   0  0  0  0  0  0  0  0  0  0  0  0
   40.7220   33.5820   40.2040 C   0  0  0  0  0  0  0  0  0  0  0  0
   41.8270   34.1800   40.7190 C   0  0  0  0  0  0  0  0  0  0  0  0
   41.7350   35.4720   41.0370 N   0  0  0  0  0  0  0  0  0  0  0  0
   40.6580   36.2230   40.8940 C   0  0  0  0  0  0  0  0  0  0  0  0
   39.4840   35.6880   40.3730 N   0  0  0  0  0  0  0  0  0  0  0  0
   38.6250   33.9930   39.6400 H   0  0  0  0  0  0  0  0  0  0  0  0
   42.6740   33.5180   40.8130 H   0  0  0  0  0  0  0  0  0  0  0  0
   40.6470   37.2730   41.1730 H   0  0  0  0  0  0  0  0  0  0  0  0
   38.5890   28.0160   41.9010 O   0  0  0  0  0  0  0  0  0  0  0  0
   36.6710   26.6460   43.1260 O   0  0  0  0  0  0  0  0  0  0  0  0
   37.0460   27.9980   42.6030 P   0  0  1  0  0  0  0  0  0  0  0  0
   36.9760   29.1040   43.8820 O   0  0  0  0  0  0  0  0  0  0  0  0
   37.1720   30.0200   43.5470 H   0  0  0  0  0  0  0  0  0  0  0  0
   35.9180   28.5150   41.4430 O   0  0  0  0  0  0  0  0  0  0  0  0
   36.2810   29.6110   40.6630 C   0  0  0  0  0  0  0  0  0  0  0  0
   36.5040   30.8380   41.1730 N   0  0  0  0  0  0  0  0  0  0  0  0
   36.8570   31.8830   40.3740 C   0  0  0  0  0  3  0  0  0  0  0  0
   36.9800   31.6640   39.0610 N   0  0  0  0  0  0  0  0  0  0  0  0
   36.7730   30.4590   38.4790 C   0  0  0  0  0  0  0  0  0  0  0  0
   36.9440   30.4120   37.1080 C   0  0  0  0  0  3  0  0  0  0  0  0
   36.7260   29.1650   36.5330 C   0  0  0  0  0  0  0  0  0  0  0  0
   36.8560   29.1070   35.4590 H   0  0  0  0  0  0  0  0  0  0  0  0
   36.3670   28.0820   37.3060 C   0  0  0  0  0  0  0  0  0  0  0  0
   36.2020   27.1210   36.8370 H   0  0  0  0  0  0  0  0  0  0  0  0
   36.2080   28.1790   38.6740 C   0  0  0  0  0  3  0  0  0  0  0  0
   36.4150   29.4080   39.3060 C   0  0  0  0  0  0  0  0  0  0  0  0
  1  2  1  0  0  0  0
  1  3  1  0  0  0  0
  4  5  2  0  0  0  0
  5  1  1  0  0  0  0
  6  4  1  0  0  0  0
  7 11  1  0  0  0  0
  7  6  1  0  0  0  0
  8  7  1  0  0  0  0
  9  7  1  0  0  0  0
 10 11  2  0  0  0  0
 10 15  1  0  0  0  0
 11 12  1  0  0  0  0
 12 17  1  0  0  0  0
 12 13  2  0  0  0  0
 14 13  1  0  0  0  0
 14 18  1  0  0  0  0
 15 14  2  0  0  0  0
 16 10  1  0  0  0  0
 19 21  1  0  0  0  0
 19  1  1  0  0  0  0
 21 20  2  1  0  0  0
 21 22  1  0  0  0  0
 23 22  1  0  0  0  0
 24 21  1  0  0  0  0
 25 26  1  0  0  0  0
 25 24  1  0  0  0  0
 27 26  2  0  0  0  0
 28 27  1  0  0  0  0
 29 28  2  0  0  0  0
 29 36  1  0  0  0  0
 30 29  1  0  0  0  0
 31 30  2  0  0  0  0
 31 33  1  0  0  0  0
 32 31  1  0  0  0  0
 33 35  2  0  0  0  0
 34 33  1  0  0  0  0
 35 36  1  0  0  0  0
 36 25  2  0  0  0  0
M  END
>  <minimizedAffinity>
-5.46457005

$$$$

 OpenBabel03252504313D

 36 38  0  0  0  0  0  0  0  0999 V2000
   36.9760   30.2230   38.4680 C   0  0  0  0  0  0  0  0  0  0  0  0
   36.2810   31.0400   38.7920 H   0  0  0  0  0  0  0  0  0  0  0  0
   36.7410   29.8960   37.4420 H   0  0  0  0  0  0  0  0  0  0  0  0
   39.4070   30.5060   37.7940 C   0  0  0  0  0  3  0  0  0  0  0  0
   38.3560   30.8490   38.5480 C   0  0  0  0  0  3  0  0  0  0  0  0
   40.5900   31.1970   38.0130 O   0  0  0  0  0  0  0  0  0  0  0  0
   40.8610   32.5010   37.6670 C   0  0  0  0  0  0  0  0  0  0  0  0
   41.7030   32.4580   36.9070 H   0  0  0  0  0  0  0  0  0  0  0  0
   40.0190   32.9900   37.1770 H   0  0  0  0  0  0  0  0  0  0  0  0
   40.4740   34.0430   39.4870 C   0  0  0  0  0  0  0  0  0  0  0  0
   41.4410   33.3010   38.7770 C   0  0  0  0  0  0  0  0  0  0  0  0
   42.7310   33.4110   39.1880 C   0  0  0  0  0  0  0  0  0  0  0  0
   42.9800   34.2090   40.2270 N   0  0  0  0  0  0  0  0  0  0  0  0
   42.0760   34.9040   40.8950 C   0  0  0  0  0  0  0  0  0  0  0  0
   40.7330   34.8480   40.5380 N   0  0  0  0  0  0  0  0  0  0  0  0
   39.4040   34.0240   39.2340 H   0  0  0  0  0  0  0  0  0  0  0  0
   43.4230   32.8220   38.6060 H   0  0  0  0  0  0  0  0  0  0  0  0
   42.3440   35.5380   41.7350 H   0  0  0  0  0  0  0  0  0  0  0  0
   36.9430   29.1930   39.3750 O   0  0  0  0  0  0  0  0  0  0  0  0
   36.0530   30.9390   41.1690 O   0  0  0  0  0  0  0  0  0  0  0  0
   35.8920   29.5400   40.6590 P   0  0  1  0  0  0  0  0  0  0  0  0
   34.2870   29.3310   40.1680 O   0  0  0  0  0  0  0  0  0  0  0  0
   34.1430   28.3920   39.8730 H   0  0  0  0  0  0  0  0  0  0  0  0
   36.1760   28.4220   41.9070 O   0  0  0  0  0  0  0  0  0  0  0  0
   37.5080   28.1760   42.2330 C   0  0  0  0  0  0  0  0  0  0  0  0
   38.3990   29.1530   42.4880 N   0  0  0  0  0  0  0  0  0  0  0  0
   39.6930   28.8670   42.8030 C   0  0  0  0  0  3  0  0  0  0  0  0
   40.0640   27.5840   42.8560 N   0  0  0  0  0  0  0  0  0  0  0  0
   39.2240   26.5500   42.6130 C   0  0  0  0  0  0  0  0  0  0  0  0
   39.7760   25.2860   42.7110 C   0  0  0  0  0  3  0  0  0  0  0  0
   38.8960   24.2410   42.4580 C   0  0  0  0  0  0  0  0  0  0  0  0
   39.3090   23.2430   42.5300 H   0  0  0  0  0  0  0  0  0  0  0  0
   37.5780   24.4870   42.1350 C   0  0  0  0  0  0  0  0  0  0  0  0
   36.9110   23.6580   41.9410 H   0  0  0  0  0  0  0  0  0  0  0  0
   37.0730   25.7690   42.0490 C   0  0  0  0  0  3  0  0  0  0  0  0
   37.9130   26.8580   42.2940 C   0  0  0  0  0  0  0  0  0  0  0  0
  1  5  1  0  0  0  0
  1  2  1  0  0  0  0
  1 19  1  0  0  0  0
  3  1  1  0  0  0  0
  4  6  1  0  0  0  0
  4  5  2  0  0  0  0
  7  6  1  0  0  0  0
  7 11  1  0  0  0  0
  8  7  1  0  0  0  0
  9  7  1  0  0  0  0
 10 15  1  0  0  0  0
 11 12  1  0  0  0  0
 11 10  2  0  0  0  0
 12 13  2  0  0  0  0
 13 14  1  0  0  0  0
 14 18  1  0  0  0  0
 15 14  2  0  0  0  0
 16 10  1  0  0  0  0
 17 12  1  0  0  0  0
 19 21  1  0  0  0  0
 21 20  2  1  0  0  0
 21 24  1  0  0  0  0
 22 21  1  0  0  0  0
 23 22  1  0  0  0  0
 24 25  1  0  0  0  0
 25 36  2  0  0  0  0
 25 26  1  0  0  0  0
 26 27  2  0  0  0  0
 27 28  1  0  0  0  0
 29 30  1  0  0  0  0
 29 28  2  0  0  0  0
 31 32  1  0  0  0  0
 31 30  2  0  0  0  0
 33 31  1  0  0  0  0
 34 33  1  0  0  0  0
 35 33  2  0  0  0  0
 35 36  1  0  0  0  0
 36 29  1  0  0  0  0
M  END
>  <minimizedAffinity>
-5.36026239

$$$$
