
 OpenBabel03252506383D

 47 51  0  0  1  0  0  0  0  0999 V2000
   46.6530   30.0590   46.5970 S   0  0  0  0  0  0  0  0  0  0  0  0
   45.6840   30.5180   43.4350 O   0  0  0  0  0  0  0  0  0  0  0  0
   45.0420   29.9800   44.3510 C   0  0  0  0  0  0  0  0  0  0  0  0
   45.1210   29.7650   45.8180 C   0  0  1  0  0  0  0  0  0  0  0  0
   44.5910   28.3600   45.9580 C   0  0  0  0  0  0  0  0  0  0  0  0
   43.2850   28.5600   45.1830 C   0  0  0  0  0  0  0  0  0  0  0  0
   43.8070   29.3120   44.0480 N   0  0  0  0  0  0  0  0  0  0  0  0
   44.2290   30.3740   46.1350 H   0  0  0  0  0  0  0  0  0  0  0  0
   44.3200   28.0930   46.9930 H   0  0  0  0  0  0  0  0  0  0  0  0
   45.2410   27.6290   45.4720 H   0  0  0  0  0  0  0  0  0  0  0  0
   42.6340   29.2290   45.7790 H   0  0  0  0  0  0  0  0  0  0  0  0
   42.8230   27.6080   44.9030 H   0  0  0  0  0  0  0  0  0  0  0  0
   43.0450   29.2840   42.8250 C   0  0  0  0  0  0  0  0  0  0  0  0
   43.3310   30.2000   41.8740 N   0  0  0  0  0  0  0  0  0  0  0  0
   42.6570   30.2440   40.6880 C   0  0  0  0  0  3  0  0  0  0  0  0
   41.6810   29.3730   40.4220 N   0  0  0  0  0  0  0  0  0  0  0  0
   41.3720   28.4460   41.3500 C   0  0  0  0  0  0  0  0  0  0  0  0
   40.3690   27.5290   41.1110 C   0  0  0  0  0  3  0  0  0  0  0  0
   40.0280   26.5620   42.0480 C   0  0  0  0  0  0  0  0  0  0  0  0
   39.2390   25.8520   41.8430 H   0  0  0  0  0  0  0  0  0  0  0  0
   40.7360   26.5480   43.2460 C   0  0  0  0  0  0  0  0  0  0  0  0
   40.4410   25.7820   43.9500 H   0  0  0  0  0  0  0  0  0  0  0  0
   41.7560   27.4490   43.5380 C   0  0  0  0  0  3  0  0  0  0  0  0
   42.0350   28.3770   42.5590 C   0  0  0  0  0  0  0  0  0  0  0  0
   44.5070   35.5210   45.1320 C   0  0  0  0  0  0  0  0  0  0  0  0
   45.1740   35.5050   43.8820 C   0  0  0  0  0  0  0  0  0  0  0  0
   46.1000   34.5440   43.6380 C   0  0  0  0  0  0  0  0  0  0  0  0
   46.3310   33.6440   44.6260 N   0  0  0  0  0  0  0  0  0  0  0  0
   45.7030   33.6640   45.7930 C   0  0  0  0  0  0  0  0  0  0  0  0
   44.7890   34.5960   46.0610 N   0  0  0  0  0  0  0  0  0  0  0  0
   46.0340   32.6610   46.7680 N   0  0  0  0  0  0  0  0  0  0  0  0
   45.2940   32.4160   47.9500 C   0  0  0  0  0  0  0  0  0  0  0  0
   46.3660   32.0860   48.9710 C   0  0  0  0  0  0  0  0  0  0  0  0
   47.6500   31.9750   48.2050 C   0  0  0  0  0  0  0  0  0  0  0  0
   47.1570   31.7550   46.7780 C   0  0  1  0  0  0  0  0  0  0  0  0
   43.7680   36.2890   45.3230 H   0  0  0  0  0  0  0  0  0  0  0  0
   46.6060   34.5230   42.7050 H   0  0  0  0  0  0  0  0  0  0  0  0
   44.8970   33.4220   48.2940 H   0  0  0  0  0  0  0  0  0  0  0  0
   44.5090   31.7410   48.0550 H   0  0  0  0  0  0  0  0  0  0  0  0
   46.1590   31.0860   49.4450 H   0  0  0  0  0  0  0  0  0  0  0  0
   46.4420   32.7990   49.7900 H   0  0  0  0  0  0  0  0  0  0  0  0
   48.2330   31.1110   48.5580 H   0  0  0  0  0  0  0  0  0  0  0  0
   48.2540   32.9020   48.2610 H   0  0  0  0  0  0  0  0  0  0  0  0
   47.9530   32.0370   46.0870 H   0  0  0  0  0  0  0  0  0  0  0  0
   44.8170   36.5290   42.9390 N   0  0  0  0  0  0  0  0  0  0  0  0
   45.5500   36.8870   42.2670 H   0  0  0  0  0  0  0  0  0  0  0  0
   43.8430   36.8810   42.9570 H   0  0  0  0  0  0  0  0  0  0  0  0
  1 35  1  0  0  0  0
  2  3  2  0  0  0  0
  3  4  1  0  0  0  0
  4  5  1  0  0  0  0
  4  8  1  1  0  0  0
  4  1  1  0  0  0  0
  5  9  1  0  0  0  0
  6 11  1  0  0  0  0
  6  5  1  0  0  0  0
  7  3  1  0  0  0  0
  7  6  1  0  0  0  0
 10  5  1  0  0  0  0
 12  6  1  0  0  0  0
 13  7  1  0  0  0  0
 14 13  2  0  0  0  0
 15 14  1  0  0  0  0
 16 15  2  0  0  0  0
 16 17  1  0  0  0  0
 17 24  1  0  0  0  0
 18 17  2  0  0  0  0
 18 19  1  0  0  0  0
 19 21  2  0  0  0  0
 20 19  1  0  0  0  0
 21 23  1  0  0  0  0
 21 22  1  0  0  0  0
 24 13  1  0  0  0  0
 24 23  2  0  0  0  0
 25 36  1  0  0  0  0
 25 30  1  0  0  0  0
 26 25  2  0  0  0  0
 27 26  1  0  0  0  0
 27 28  2  0  0  0  0
 28 29  1  0  0  0  0
 29 30  2  0  0  0  0
 29 31  1  0  0  0  0
 31 35  1  0  0  0  0
 31 32  1  0  0  0  0
 32 39  1  0  0  0  0
 32 38  1  0  0  0  0
 32 33  1  0  0  0  0
 33 40  1  0  0  0  0
 33 41  1  0  0  0  0
 34 43  1  0  0  0  0
 34 42  1  0  0  0  0
 34 33  1  0  0  0  0
 35 44  1  6  0  0  0
 35 34  1  0  0  0  0
 37 27  1  0  0  0  0
 45 47  1  0  0  0  0
 45 26  1  0  0  0  0
 46 45  1  0  0  0  0
M  END
>  <minimizedAffinity>
-5.9078083

>  <minimizedRMSD>
0.108822554

$$$$
