
 OpenBabel03252504333D

 43 46  0  0  0  0  0  0  0  0999 V2000
   41.8080   35.7560   41.1480 C   0  0  0  0  0  0  0  0  0  0  0  0
   41.6990   35.9290   42.2430 H   0  0  0  0  0  0  0  0  0  0  0  0
   41.4810   36.6950   40.6550 H   0  0  0  0  0  0  0  0  0  0  0  0
   41.0620   33.4310   41.2960 C   0  0  0  0  0  0  0  0  0  0  0  0
   40.7460   34.7370   40.8470 C   0  0  0  0  0  0  0  0  0  0  0  0
   39.5600   34.8930   40.2180 C   0  0  0  0  0  0  0  0  0  0  0  0
   38.7890   33.8310   40.0660 N   0  0  0  0  0  0  0  0  0  0  0  0
   39.0740   32.6210   40.4770 C   0  0  0  0  0  0  0  0  0  0  0  0
   40.2600   32.3730   41.1280 N   0  0  0  0  0  0  0  0  0  0  0  0
   42.0100   33.2470   41.8120 H   0  0  0  0  0  0  0  0  0  0  0  0
   39.3370   35.8670   39.8900 H   0  0  0  0  0  0  0  0  0  0  0  0
   38.2910   31.3670   40.3610 C   0  0  0  0  0  0  0  0  0  0  0  0
   37.5080   30.8740   41.3530 N   0  0  0  0  0  0  0  0  0  0  0  0
   36.7940   29.7660   41.3000 C   0  0  0  0  0  3  0  0  0  0  0  0
   36.8010   29.0090   40.1740 N   0  0  0  0  0  0  0  0  0  0  0  0
   37.5540   29.4030   39.1040 C   0  0  0  0  0  0  0  0  0  0  0  0
   37.5550   28.6270   37.9670 C   0  0  0  0  0  3  0  0  0  0  0  0
   38.3050   29.0000   36.8710 C   0  0  0  0  0  0  0  0  0  0  0  0
   38.2220   28.3140   36.0470 H   0  0  0  0  0  0  0  0  0  0  0  0
   39.0280   30.1660   36.9900 C   0  0  0  0  0  0  0  0  0  0  0  0
   39.6050   30.4210   36.0970 H   0  0  0  0  0  0  0  0  0  0  0  0
   38.9930   30.9070   38.1500 C   0  0  0  0  0  3  0  0  0  0  0  0
   38.2670   30.5690   39.2460 C   0  0  0  0  0  0  0  0  0  0  0  0
   43.0360   35.3830   40.6880 O   0  0  0  0  0  0  0  0  0  0  0  0
   44.1960   35.1690   41.4120 C   0  0  0  0  0  3  0  0  0  0  0  0
   44.1330   35.4590   42.7070 C   0  0  0  0  0  3  0  0  0  0  0  0
   45.2680   35.3050   43.7030 C   0  0  0  0  0  0  0  0  0  0  0  0
   46.1790   35.3950   43.0820 H   0  0  0  0  0  0  0  0  0  0  0  0
   45.2290   36.0600   44.4920 H   0  0  0  0  0  0  0  0  0  0  0  0
   45.1690   34.0320   44.2350 O   0  0  0  0  0  0  0  0  0  0  0  0
   46.4480   32.2640   42.7220 O   0  0  0  0  0  0  0  0  0  0  0  0
   46.5730   33.1430   43.9450 P   0  0  1  0  0  0  0  0  0  0  0  0
   47.8930   34.1760   43.6660 O   0  0  0  0  0  0  0  0  0  0  0  0
   47.5830   35.1150   43.8100 H   0  0  0  0  0  0  0  0  0  0  0  0
   46.9420   32.2070   45.3000 O   0  0  0  0  0  0  0  0  0  0  0  0
   46.6960   32.8790   46.4810 C   0  0  0  0  0  0  0  0  0  0  0  0
   47.2210   32.3180   47.7650 C   0  0  0  0  0  0  0  0  0  0  0  0
   45.7460   32.1760   47.4240 C   0  0  0  0  0  0  0  0  0  0  0  0
   46.7500   33.9650   46.4150 H   0  0  0  0  0  0  0  0  0  0  0  0
   47.5350   32.9630   48.5970 H   0  0  0  0  0  0  0  0  0  0  0  0
   47.7580   31.3480   47.7420 H   0  0  0  0  0  0  0  0  0  0  0  0
   45.1020   32.8790   48.0140 H   0  0  0  0  0  0  0  0  0  0  0  0
   45.3320   31.2020   47.1590 H   0  0  0  0  0  0  0  0  0  0  0  0
  1  2  1  0  0  0  0
  3  1  1  0  0  0  0
  4 10  1  0  0  0  0
  5  1  1  0  0  0  0
  5  4  2  0  0  0  0
  6  5  1  0  0  0  0
  7  6  2  0  0  0  0
  7  8  1  0  0  0  0
  8  9  2  0  0  0  0
  9  4  1  0  0  0  0
 11  6  1  0  0  0  0
 12  8  1  0  0  0  0
 12 13  1  0  0  0  0
 14 13  2  0  0  0  0
 15 14  1  0  0  0  0
 16 23  1  0  0  0  0
 16 15  2  0  0  0  0
 17 16  1  0  0  0  0
 18 20  1  0  0  0  0
 18 17  2  0  0  0  0
 19 18  1  0  0  0  0
 20 22  2  0  0  0  0
 21 20  1  0  0  0  0
 22 23  1  0  0  0  0
 23 12  2  0  0  0  0
 24  1  1  0  0  0  0
 24 25  1  0  0  0  0
 25 26  2  0  0  0  0
 26 27  1  0  0  0  0
 27 30  1  0  0  0  0
 27 29  1  0  0  0  0
 28 27  1  0  0  0  0
 32 31  2  6  0  0  0
 32 30  1  0  0  0  0
 32 35  1  0  0  0  0
 33 34  1  0  0  0  0
 33 32  1  0  0  0  0
 35 36  1  0  0  0  0
 36 38  1  0  0  0  0
 36 37  1  0  0  0  0
 37 40  1  0  0  0  0
 38 37  1  0  0  0  0
 38 42  1  0  0  0  0
 39 36  1  0  0  0  0
 41 37  1  0  0  0  0
 43 38  1  0  0  0  0
M  END
>  <minimizedAffinity>
-5.60094786

>  <minimizedRMSD>
0.856253862

$$$$
