
 OpenBabel03242523403D

 40 45  0  0  1  0  0  0  0  0999 V2000
   35.7310   29.6520   39.6320 C   0  0  0  0  0  0  0  0  0  0  0  0
   36.1490   29.0530   40.8420 C   0  0  0  0  0  0  0  0  0  0  0  0
   37.0230   29.7680   41.6450 C   0  0  0  0  0  0  0  0  0  0  0  0
   37.4020   30.9910   41.1910 N   0  0  0  0  0  0  0  0  0  0  0  0
   36.9750   31.5450   40.0060 C   0  0  0  0  0  0  0  0  0  0  0  0
   36.1770   30.8360   39.3250 N   0  0  0  0  0  0  0  0  0  0  0  0
   35.0480   29.1310   38.9730 H   0  0  0  0  0  0  0  0  0  0  0  0
   35.7410   28.0740   41.0320 H   0  0  0  0  0  0  0  0  0  0  0  0
   37.7070   32.7590   40.0490 C   0  0  2  0  0  0  0  0  0  0  0  0
   38.1280   33.9190   39.7120 N   0  0  1  0  0  4  0  0  0  0  0  0
   38.7260   34.8610   40.3140 C   0  0  0  0  0  0  0  0  0  0  0  0
   39.8670   34.5170   39.7140 N   0  0  0  0  0  0  0  0  0  0  0  0
   39.9420   33.3040   39.1030 C   0  0  2  0  0  3  0  0  0  0  0  0
   41.1300   33.0560   38.3570 C   0  0  0  0  0  0  0  0  0  0  0  0
   41.2200   31.8760   37.7100 C   0  0  0  0  0  0  0  0  0  0  0  0
   40.2530   30.8960   37.7150 C   0  0  0  0  0  0  0  0  0  0  0  0
   39.1450   31.2580   38.4750 C   0  0  0  0  0  0  0  0  0  0  0  0
   38.8430   32.3990   39.2160 C   0  0  1  0  0  0  0  0  0  0  0  0
   38.1670   32.6390   41.1280 H   0  0  0  0  0  0  0  0  0  0  0  0
   37.4640   34.3300   38.9800 H   0  0  0  0  0  0  0  0  0  0  0  0
   38.4270   35.9200   40.1190 H   0  0  0  0  0  0  0  0  0  0  0  0
   38.8000   34.7960   41.4360 H   0  0  0  0  0  0  0  0  0  0  0  0
   40.6460   35.2410   39.7680 H   0  0  0  0  0  0  0  0  0  0  0  0
   41.9320   33.7550   38.2970 H   0  0  0  0  0  0  0  0  0  0  0  0
   42.1410   31.6860   37.1350 H   0  0  0  0  0  0  0  0  0  0  0  0
   40.3450   29.9810   37.2010 H   0  0  0  0  0  0  0  0  0  0  0  0
   38.4150   30.4620   38.4080 H   0  0  0  0  0  0  0  0  0  0  0  0
   37.5260   29.0580   43.1620 S   0  0  0  0  0  0  0  0  0  0  0  0
   38.8400   27.8920   42.8180 C   0  0  0  0  0  0  0  0  0  0  0  0
   40.1270   28.2800   42.8700 N   0  0  0  0  0  0  0  0  0  0  0  0
   41.1520   27.4140   42.6120 C   0  0  0  0  0  3  0  0  0  0  0  0
   40.8880   26.1140   42.2900 N   0  0  0  0  0  0  0  0  0  0  0  0
   39.6180   25.6800   42.2260 C   0  0  0  0  0  0  0  0  0  0  0  0
   39.2690   24.3800   41.9060 C   0  0  0  0  0  3  0  0  0  0  0  0
   37.9770   23.9210   41.8350 C   0  0  0  0  0  0  0  0  0  0  0  0
   37.7230   22.8980   41.5820 H   0  0  0  0  0  0  0  0  0  0  0  0
   36.9540   24.8130   42.1000 C   0  0  0  0  0  0  0  0  0  0  0  0
   35.9010   24.4970   42.0560 H   0  0  0  0  0  0  0  0  0  0  0  0
   37.2840   26.1110   42.4190 C   0  0  0  0  0  3  0  0  0  0  0  0
   38.5790   26.5770   42.4930 C   0  0  0  0  0  0  0  0  0  0  0  0
  1  2  1  0  0  0  0
  2  8  1  0  0  0  0
  2  3  2  0  0  0  0
  3 28  1  0  0  0  0
  4  3  1  0  0  0  0
  5  9  1  0  0  0  0
  5  4  2  0  0  0  0
  6  1  2  0  0  0  0
  6  5  1  0  0  0  0
  7  1  1  0  0  0  0
  9 19  1  1  0  0  0
 10 20  1  6  0  0  0
 10  9  1  0  0  0  0
 10 11  1  0  0  0  0
 11 22  1  0  0  0  0
 12 23  1  0  0  0  0
 12 11  1  0  0  0  0
 13 14  1  6  0  0  0
 13 18  1  0  0  0  0
 13 12  1  0  0  0  0
 15 16  1  0  0  0  0
 15 14  2  0  0  0  0
 16 17  2  0  0  0  0
 18 17  1  6  0  0  0
 18 10  1  0  0  0  0
 18  9  1  0  0  0  0
 21 11  1  0  0  0  0
 24 14  1  0  0  0  0
 25 15  1  0  0  0  0
 26 16  1  0  0  0  0
 27 17  1  0  0  0  0
 29 30  1  0  0  0  0
 29 28  1  0  0  0  0
 31 30  2  0  0  0  0
 32 31  1  0  0  0  0
 33 32  2  0  0  0  0
 33 40  1  0  0  0  0
 34 33  1  0  0  0  0
 35 34  2  0  0  0  0
 35 37  1  0  0  0  0
 36 35  1  0  0  0  0
 37 39  2  0  0  0  0
 38 37  1  0  0  0  0
 39 40  1  0  0  0  0
 40 29  2  0  0  0  0
M  END
>  <minimizedAffinity>
-6.96228075

$$$$

 OpenBabel03242523403D

 40 45  0  0  1  0  0  0  0  0999 V2000
   37.1080   30.3370   36.9490 C   0  0  0  0  0  0  0  0  0  0  0  0
   36.3860   29.5990   37.9130 C   0  0  0  0  0  0  0  0  0  0  0  0
   36.3640   30.0850   39.2110 C   0  0  0  0  0  0  0  0  0  0  0  0
   37.0470   31.2370   39.4400 N   0  0  0  0  0  0  0  0  0  0  0  0
   37.7410   31.9310   38.4750 C   0  0  0  0  0  0  0  0  0  0  0  0
   37.7160   31.4300   37.3120 N   0  0  0  0  0  0  0  0  0  0  0  0
   37.1520   29.9970   35.9220 H   0  0  0  0  0  0  0  0  0  0  0  0
   35.9080   28.7070   37.5430 H   0  0  0  0  0  0  0  0  0  0  0  0
   38.2580   32.9770   39.2800 C   0  0  2  0  0  0  0  0  0  0  0  0
   38.8540   34.0640   39.6000 N   0  0  1  0  0  4  0  0  0  0  0  0
   38.8480   34.8190   40.6180 C   0  0  0  0  0  0  0  0  0  0  0  0
   40.0300   34.3230   40.9890 N   0  0  0  0  0  0  0  0  0  0  0  0
   40.4700   33.1790   40.4000 C   0  0  2  0  0  3  0  0  0  0  0  0
   41.7980   32.7820   40.7290 C   0  0  0  0  0  0  0  0  0  0  0  0
   42.2770   31.6700   40.1350 C   0  0  0  0  0  0  0  0  0  0  0  0
   41.5820   30.8920   39.2360 C   0  0  0  0  0  0  0  0  0  0  0  0
   40.3020   31.3840   38.9980 C   0  0  0  0  0  0  0  0  0  0  0  0
   39.6110   32.4890   39.4920 C   0  0  1  0  0  0  0  0  0  0  0  0
   37.7440   32.6760   40.2970 H   0  0  0  0  0  0  0  0  0  0  0  0
   38.9890   34.6570   38.7190 H   0  0  0  0  0  0  0  0  0  0  0  0
   38.8570   35.9280   40.4850 H   0  0  0  0  0  0  0  0  0  0  0  0
   38.0500   34.6390   41.3930 H   0  0  0  0  0  0  0  0  0  0  0  0
   40.5420   34.8810   41.7370 H   0  0  0  0  0  0  0  0  0  0  0  0
   42.4100   33.3210   41.4140 H   0  0  0  0  0  0  0  0  0  0  0  0
   43.3040   31.3640   40.3920 H   0  0  0  0  0  0  0  0  0  0  0  0
   41.9780   30.0270   38.7840 H   0  0  0  0  0  0  0  0  0  0  0  0
   39.8270   30.7480   38.2620 H   0  0  0  0  0  0  0  0  0  0  0  0
   35.4480   29.2040   40.4120 S   0  0  0  0  0  0  0  0  0  0  0  0
   36.6040   28.5090   41.5890 C   0  0  0  0  0  0  0  0  0  0  0  0
   37.0510   29.2460   42.6230 N   0  0  0  0  0  0  0  0  0  0  0  0
   37.9340   28.7450   43.5370 C   0  0  0  0  0  3  0  0  0  0  0  0
   38.3900   27.4630   43.4200 N   0  0  0  0  0  0  0  0  0  0  0  0
   37.9720   26.6890   42.4050 C   0  0  0  0  0  0  0  0  0  0  0  0
   38.3870   25.3820   42.2170 C   0  0  0  0  0  3  0  0  0  0  0  0
   37.9710   24.5790   41.1850 C   0  0  0  0  0  0  0  0  0  0  0  0
   38.3080   23.5570   41.0540 H   0  0  0  0  0  0  0  0  0  0  0  0
   37.0770   25.1050   40.2710 C   0  0  0  0  0  0  0  0  0  0  0  0
   36.7130   24.5030   39.4250 H   0  0  0  0  0  0  0  0  0  0  0  0
   36.6540   26.4030   40.4420 C   0  0  0  0  0  3  0  0  0  0  0  0
   37.0680   27.2150   41.4770 C   0  0  0  0  0  0  0  0  0  0  0  0
  1  6  2  0  0  0  0
  1  2  1  0  0  0  0
  2  3  2  0  0  0  0
  3  4  1  0  0  0  0
  3 28  1  0  0  0  0
  5  9  1  0  0  0  0
  5  4  2  0  0  0  0
  6  5  1  0  0  0  0
  7  1  1  0  0  0  0
  8  2  1  0  0  0  0
  9 18  1  0  0  0  0
  9 10  1  0  0  0  0
  9 19  1  1  0  0  0
 10 20  1  6  0  0  0
 10 11  1  0  0  0  0
 11 12  1  0  0  0  0
 11 22  1  0  0  0  0
 12 23  1  0  0  0  0
 13 14  1  6  0  0  0
 13 12  1  0  0  0  0
 14 24  1  0  0  0  0
 15 25  1  0  0  0  0
 15 14  2  0  0  0  0
 16 15  1  0  0  0  0
 17 16  2  0  0  0  0
 18 17  1  6  0  0  0
 18 10  1  0  0  0  0
 18 13  1  0  0  0  0
 21 11  1  0  0  0  0
 26 16  1  0  0  0  0
 27 17  1  0  0  0  0
 28 29  1  0  0  0  0
 29 30  1  0  0  0  0
 30 31  2  0  0  0  0
 32 31  1  0  0  0  0
 33 32  2  0  0  0  0
 34 33  1  0  0  0  0
 35 34  2  0  0  0  0
 36 35  1  0  0  0  0
 37 39  2  0  0  0  0
 37 35  1  0  0  0  0
 38 37  1  0  0  0  0
 39 40  1  0  0  0  0
 40 29  2  0  0  0  0
 40 33  1  0  0  0  0
M  END
>  <minimizedAffinity>
-6.8949976

$$$$

 OpenBabel03242523403D

 40 45  0  0  1  0  0  0  0  0999 V2000
   37.3280   32.9980   39.2880 C   0  0  0  0  0  0  0  0  0  0  0  0
   37.9910   32.6530   40.4870 C   0  0  0  0  0  0  0  0  0  0  0  0
   38.6330   31.4240   40.5370 C   0  0  0  0  0  0  0  0  0  0  0  0
   38.5630   30.6580   39.4170 N   0  0  0  0  0  0  0  0  0  0  0  0
   37.9070   31.0260   38.2650 C   0  0  0  0  0  0  0  0  0  0  0  0
   37.3460   32.1610   38.2910 N   0  0  0  0  0  0  0  0  0  0  0  0
   36.8150   33.9470   39.2030 H   0  0  0  0  0  0  0  0  0  0  0  0
   37.9360   33.3910   41.2700 H   0  0  0  0  0  0  0  0  0  0  0  0
   38.1330   29.8570   37.4940 C   0  0  2  0  0  0  0  0  0  0  0  0
   38.1650   29.0730   36.4840 N   0  0  1  0  0  4  0  0  0  0  0  0
   38.7850   28.0030   36.2030 C   0  0  0  0  0  0  0  0  0  0  0  0
   37.6740   27.3020   36.4330 N   0  0  0  0  0  0  0  0  0  0  0  0
   36.6470   27.9040   37.0920 C   0  0  2  0  0  3  0  0  0  0  0  0
   35.4380   27.1550   37.1760 C   0  0  0  0  0  0  0  0  0  0  0  0
   34.3900   27.7390   37.7920 C   0  0  0  0  0  0  0  0  0  0  0  0
   34.3990   29.0010   38.3430 C   0  0  0  0  0  0  0  0  0  0  0  0
   35.6330   29.6270   38.1950 C   0  0  0  0  0  0  0  0  0  0  0  0
   36.8310   29.2220   37.6090 C   0  0  1  0  0  0  0  0  0  0  0  0
   38.7550   29.2500   38.2910 H   0  0  0  0  0  0  0  0  0  0  0  0
   38.0300   29.6500   35.5930 H   0  0  0  0  0  0  0  0  0  0  0  0
   39.1950   27.8550   35.1740 H   0  0  0  0  0  0  0  0  0  0  0  0
   39.6280   27.6980   36.8850 H   0  0  0  0  0  0  0  0  0  0  0  0
   37.6860   26.3000   36.0730 H   0  0  0  0  0  0  0  0  0  0  0  0
   35.3380   26.1710   36.7800 H   0  0  0  0  0  0  0  0  0  0  0  0
   33.4570   27.1560   37.8580 H   0  0  0  0  0  0  0  0  0  0  0  0
   33.5670   29.4370   38.8190 H   0  0  0  0  0  0  0  0  0  0  0  0
   35.5600   30.6210   38.6170 H   0  0  0  0  0  0  0  0  0  0  0  0
   39.4870   30.9930   42.0000 S   0  0  0  0  0  0  0  0  0  0  0  0
   38.8240   29.4380   42.5900 C   0  0  0  0  0  0  0  0  0  0  0  0
   37.4950   29.2300   42.6180 N   0  0  0  0  0  0  0  0  0  0  0  0
   36.9580   28.0550   43.0630 C   0  0  0  0  0  3  0  0  0  0  0  0
   37.7730   27.0490   43.4970 N   0  0  0  0  0  0  0  0  0  0  0  0
   39.1070   27.2100   43.4880 C   0  0  0  0  0  0  0  0  0  0  0  0
   39.9980   26.2410   43.9120 C   0  0  0  0  0  3  0  0  0  0  0  0
   41.3630   26.3900   43.9100 C   0  0  0  0  0  0  0  0  0  0  0  0
   42.0450   25.6180   44.2460 H   0  0  0  0  0  0  0  0  0  0  0  0
   41.8850   27.5870   43.4550 C   0  0  0  0  0  0  0  0  0  0  0  0
   42.9720   27.7580   43.4330 H   0  0  0  0  0  0  0  0  0  0  0  0
   41.0130   28.5630   43.0300 C   0  0  0  0  0  3  0  0  0  0  0  0
   39.6420   28.4180   43.0290 C   0  0  0  0  0  0  0  0  0  0  0  0
  1  2  1  0  0  0  0
  2  3  2  0  0  0  0
  2  8  1  0  0  0  0
  3 28  1  0  0  0  0
  4  3  1  0  0  0  0
  5  6  1  0  0  0  0
  5  4  2  0  0  0  0
  6  1  2  0  0  0  0
  7  1  1  0  0  0  0
  9 18  1  0  0  0  0
  9  5  1  0  0  0  0
  9 19  1  1  0  0  0
 10 20  1  6  0  0  0
 10  9  1  0  0  0  0
 10 18  1  0  0  0  0
 11 12  1  0  0  0  0
 11 10  1  0  0  0  0
 11 22  1  0  0  0  0
 12 13  1  0  0  0  0
 13 14  1  6  0  0  0
 13 18  1  0  0  0  0
 14 15  2  0  0  0  0
 15 25  1  0  0  0  0
 15 16  1  0  0  0  0
 16 26  1  0  0  0  0
 17 16  2  0  0  0  0
 17 27  1  0  0  0  0
 18 17  1  6  0  0  0
 21 11  1  0  0  0  0
 23 12  1  0  0  0  0
 24 14  1  0  0  0  0
 28 29  1  0  0  0  0
 29 30  2  0  0  0  0
 29 40  1  0  0  0  0
 30 31  1  0  0  0  0
 31 32  2  0  0  0  0
 33 32  1  0  0  0  0
 33 34  1  0  0  0  0
 35 34  2  0  0  0  0
 35 36  1  0  0  0  0
 37 35  1  0  0  0  0
 38 37  1  0  0  0  0
 39 37  2  0  0  0  0
 40 39  1  0  0  0  0
 40 33  2  0  0  0  0
M  END
>  <minimizedAffinity>
-6.58032084

$$$$

 OpenBabel03242523403D

 40 45  0  0  1  0  0  0  0  0999 V2000
   38.5720   30.1080   38.2180 C   0  0  0  0  0  0  0  0  0  0  0  0
   38.6100   30.1020   39.6310 C   0  0  0  0  0  0  0  0  0  0  0  0
   39.4880   30.9750   40.2540 C   0  0  0  0  0  0  0  0  0  0  0  0
   40.2400   31.7630   39.4410 N   0  0  0  0  0  0  0  0  0  0  0  0
   40.1770   31.7420   38.0670 C   0  0  0  0  0  0  0  0  0  0  0  0
   39.3520   30.9220   37.5670 N   0  0  0  0  0  0  0  0  0  0  0  0
   37.9000   29.4440   37.6880 H   0  0  0  0  0  0  0  0  0  0  0  0
   37.9380   29.4050   40.1040 H   0  0  0  0  0  0  0  0  0  0  0  0
   41.1780   32.7060   37.7820 C   0  0  2  0  0  0  0  0  0  0  0  0
   41.8950   33.5320   37.1180 N   0  0  1  0  0  4  0  0  0  0  0  0
   42.6550   34.5000   37.4220 C   0  0  0  0  0  0  0  0  0  0  0  0
   43.7210   33.7310   37.1910 N   0  0  0  0  0  0  0  0  0  0  0  0
   43.5450   32.3860   37.0900 C   0  0  2  0  0  3  0  0  0  0  0  0
   44.6910   31.6370   36.6970 C   0  0  0  0  0  0  0  0  0  0  0  0
   44.5410   30.3040   36.5540 C   0  0  0  0  0  0  0  0  0  0  0  0
   43.3670   29.6150   36.7560 C   0  0  0  0  0  0  0  0  0  0  0  0
   42.3240   30.4570   37.1340 C   0  0  0  0  0  0  0  0  0  0  0  0
   42.2530   31.8320   37.3430 C   0  0  1  0  0  0  0  0  0  0  0  0
   41.5080   32.9370   38.8900 H   0  0  0  0  0  0  0  0  0  0  0  0
   41.4100   33.7400   36.1860 H   0  0  0  0  0  0  0  0  0  0  0  0
   42.6400   35.4310   36.8040 H   0  0  0  0  0  0  0  0  0  0  0  0
   42.6230   34.8710   38.4850 H   0  0  0  0  0  0  0  0  0  0  0  0
   44.6460   34.2510   37.1040 H   0  0  0  0  0  0  0  0  0  0  0  0
   45.6420   32.0840   36.5190 H   0  0  0  0  0  0  0  0  0  0  0  0
   45.4300   29.7270   36.2520 H   0  0  0  0  0  0  0  0  0  0  0  0
   43.2730   28.5730   36.6380 H   0  0  0  0  0  0  0  0  0  0  0  0
   41.4300   29.8570   37.2440 H   0  0  0  0  0  0  0  0  0  0  0  0
   39.5260   31.0070   42.0020 S   0  0  0  0  0  0  0  0  0  0  0  0
   38.8280   29.4710   42.5980 C   0  0  0  0  0  0  0  0  0  0  0  0
   37.4940   29.3020   42.6520 N   0  0  0  0  0  0  0  0  0  0  0  0
   36.9310   28.1420   43.1030 C   0  0  0  0  0  3  0  0  0  0  0  0
   37.7230   27.1100   43.5160 N   0  0  0  0  0  0  0  0  0  0  0  0
   39.0610   27.2310   43.4820 C   0  0  0  0  0  0  0  0  0  0  0  0
   39.9300   26.2330   43.8840 C   0  0  0  0  0  3  0  0  0  0  0  0
   41.2990   26.3410   43.8550 C   0  0  0  0  0  0  0  0  0  0  0  0
   41.9640   25.5470   44.1750 H   0  0  0  0  0  0  0  0  0  0  0  0
   41.8490   27.5230   43.3950 C   0  0  0  0  0  0  0  0  0  0  0  0
   42.9390   27.6610   43.3520 H   0  0  0  0  0  0  0  0  0  0  0  0
   40.9980   28.5270   42.9920 C   0  0  0  0  0  3  0  0  0  0  0  0
   39.6230   28.4240   43.0170 C   0  0  0  0  0  0  0  0  0  0  0  0
  1  2  1  0  0  0  0
  2  8  1  0  0  0  0
  2  3  2  0  0  0  0
  3 28  1  0  0  0  0
  4  3  1  0  0  0  0
  5  4  2  0  0  0  0
  6  5  1  0  0  0  0
  6  1  2  0  0  0  0
  7  1  1  0  0  0  0
  9  5  1  0  0  0  0
  9 19  1  1  0  0  0
 10 20  1  6  0  0  0
 10 18  1  0  0  0  0
 10 11  1  0  0  0  0
 10  9  1  0  0  0  0
 11 22  1  0  0  0  0
 12 11  1  0  0  0  0
 13 14  1  6  0  0  0
 13 12  1  0  0  0  0
 13 18  1  0  0  0  0
 15 14  2  0  0  0  0
 15 16  1  0  0  0  0
 16 17  2  0  0  0  0
 17 27  1  0  0  0  0
 18 17  1  6  0  0  0
 18  9  1  0  0  0  0
 21 11  1  0  0  0  0
 23 12  1  0  0  0  0
 24 14  1  0  0  0  0
 25 15  1  0  0  0  0
 26 16  1  0  0  0  0
 28 29  1  0  0  0  0
 29 30  2  0  0  0  0
 29 40  1  0  0  0  0
 30 31  1  0  0  0  0
 31 32  2  0  0  0  0
 33 32  1  0  0  0  0
 33 34  1  0  0  0  0
 35 34  2  0  0  0  0
 35 36  1  0  0  0  0
 37 35  1  0  0  0  0
 38 37  1  0  0  0  0
 39 40  1  0  0  0  0
 39 37  2  0  0  0  0
 40 33  2  0  0  0  0
M  END
>  <minimizedAffinity>
-6.57309294

$$$$

 OpenBabel03242523403D

 40 45  0  0  1  0  0  0  0  0999 V2000
   35.0480   29.1290   39.1560 C   0  0  0  0  0  0  0  0  0  0  0  0
   35.9390   29.8960   38.3720 C   0  0  0  0  0  0  0  0  0  0  0  0
   37.2720   29.9240   38.7550 C   0  0  0  0  0  0  0  0  0  0  0  0
   37.6010   29.2040   39.8590 N   0  0  0  0  0  0  0  0  0  0  0  0
   36.7060   28.4670   40.6000 C   0  0  0  0  0  0  0  0  0  0  0  0
   35.5080   28.4870   40.1920 N   0  0  0  0  0  0  0  0  0  0  0  0
   33.9980   29.0770   38.8960 H   0  0  0  0  0  0  0  0  0  0  0  0
   35.4920   30.4000   37.5320 H   0  0  0  0  0  0  0  0  0  0  0  0
   37.5840   27.9940   41.6080 C   0  0  2  0  0  0  0  0  0  0  0  0
   38.6620   27.5940   42.1700 N   0  0  1  0  0  4  0  0  0  0  0  0
   39.0560   27.4850   43.3700 C   0  0  0  0  0  0  0  0  0  0  0  0
   38.8580   26.1670   43.3130 N   0  0  0  0  0  0  0  0  0  0  0  0
   38.1190   25.6630   42.2880 C   0  0  2  0  0  3  0  0  0  0  0  0
   38.0680   24.2420   42.1990 C   0  0  0  0  0  0  0  0  0  0  0  0
   37.3720   23.7100   41.1740 C   0  0  0  0  0  0  0  0  0  0  0  0
   36.7100   24.4340   40.2080 C   0  0  0  0  0  0  0  0  0  0  0  0
   36.8370   25.8070   40.4040 C   0  0  0  0  0  0  0  0  0  0  0  0
   37.4910   26.5630   41.3750 C   0  0  1  0  0  0  0  0  0  0  0  0
   36.8640   28.1240   42.5320 H   0  0  0  0  0  0  0  0  0  0  0  0
   39.4930   27.8450   41.5440 H   0  0  0  0  0  0  0  0  0  0  0  0
   40.1050   27.7630   43.6350 H   0  0  0  0  0  0  0  0  0  0  0  0
   38.4290   27.9740   44.1680 H   0  0  0  0  0  0  0  0  0  0  0  0
   39.3070   25.6050   44.0980 H   0  0  0  0  0  0  0  0  0  0  0  0
   38.5480   23.6000   42.9010 H   0  0  0  0  0  0  0  0  0  0  0  0
   37.3320   22.6100   41.1080 H   0  0  0  0  0  0  0  0  0  0  0  0
   36.1730   23.9970   39.4140 H   0  0  0  0  0  0  0  0  0  0  0  0
   36.3240   26.3120   39.5960 H   0  0  0  0  0  0  0  0  0  0  0  0
   38.3960   30.8400   37.7780 S   0  0  0  0  0  0  0  0  0  0  0  0
   38.9800   32.2210   38.7570 C   0  0  0  0  0  0  0  0  0  0  0  0
   38.2370   32.7020   39.7700 N   0  0  0  0  0  0  0  0  0  0  0  0
   38.6550   33.7550   40.5340 C   0  0  0  0  0  3  0  0  0  0  0  0
   39.8570   34.3520   40.2810 N   0  0  0  0  0  0  0  0  0  0  0  0
   40.6340   33.9060   39.2800 C   0  0  0  0  0  0  0  0  0  0  0  0
   41.8630   34.4570   38.9620 C   0  0  0  0  0  3  0  0  0  0  0  0
   42.6680   34.0130   37.9410 C   0  0  0  0  0  0  0  0  0  0  0  0
   43.6280   34.4590   37.7060 H   0  0  0  0  0  0  0  0  0  0  0  0
   42.2260   32.9470   37.1800 C   0  0  0  0  0  0  0  0  0  0  0  0
   42.8340   32.5540   36.3510 H   0  0  0  0  0  0  0  0  0  0  0  0
   41.0060   32.3870   37.4830 C   0  0  0  0  0  3  0  0  0  0  0  0
   40.1940   32.8270   38.5070 C   0  0  0  0  0  0  0  0  0  0  0  0
  1  6  1  0  0  0  0
  2  3  1  0  0  0  0
  2  1  2  0  0  0  0
  3  4  2  0  0  0  0
  4  5  1  0  0  0  0
  5  9  1  0  0  0  0
  6  5  2  0  0  0  0
  7  1  1  0  0  0  0
  8  2  1  0  0  0  0
  9 10  1  0  0  0  0
  9 19  1  1  0  0  0
 10 20  1  6  0  0  0
 10 11  1  0  0  0  0
 11 21  1  0  0  0  0
 11 22  1  0  0  0  0
 12 11  1  0  0  0  0
 12 23  1  0  0  0  0
 13 14  1  6  0  0  0
 13 12  1  0  0  0  0
 14 24  1  0  0  0  0
 15 14  2  0  0  0  0
 16 17  2  0  0  0  0
 16 15  1  0  0  0  0
 18 17  1  6  0  0  0
 18  9  1  0  0  0  0
 18 10  1  0  0  0  0
 18 13  1  0  0  0  0
 25 15  1  0  0  0  0
 26 16  1  0  0  0  0
 27 17  1  0  0  0  0
 28  3  1  0  0  0  0
 28 29  1  0  0  0  0
 29 30  1  0  0  0  0
 30 31  2  0  0  0  0
 32 31  1  0  0  0  0
 33 32  2  0  0  0  0
 34 33  1  0  0  0  0
 35 34  2  0  0  0  0
 36 35  1  0  0  0  0
 37 39  2  0  0  0  0
 37 35  1  0  0  0  0
 38 37  1  0  0  0  0
 39 40  1  0  0  0  0
 40 29  2  0  0  0  0
 40 33  1  0  0  0  0
M  END
>  <minimizedAffinity>
-6.50961351

$$$$

 OpenBabel03242523403D

 40 45  0  0  1  0  0  0  0  0999 V2000
   40.0270   33.0260   40.0530 C   0  0  0  0  0  0  0  0  0  0  0  0
   40.6410   31.9710   40.7640 C   0  0  0  0  0  0  0  0  0  0  0  0
   40.3460   30.6740   40.3720 C   0  0  0  0  0  0  0  0  0  0  0  0
   39.4840   30.5360   39.3300 N   0  0  0  0  0  0  0  0  0  0  0  0
   38.9040   31.5880   38.6590 C   0  0  0  0  0  0  0  0  0  0  0  0
   39.2200   32.7430   39.0700 N   0  0  0  0  0  0  0  0  0  0  0  0
   40.2280   34.0550   40.3230 H   0  0  0  0  0  0  0  0  0  0  0  0
   41.2950   32.2770   41.5630 H   0  0  0  0  0  0  0  0  0  0  0  0
   38.1070   30.8570   37.7430 C   0  0  2  0  0  0  0  0  0  0  0  0
   37.1830   30.5980   36.8960 N   0  0  1  0  0  4  0  0  0  0  0  0
   36.9940   29.6910   36.0300 C   0  0  0  0  0  0  0  0  0  0  0  0
   36.1100   29.1060   36.8400 N   0  0  0  0  0  0  0  0  0  0  0  0
   36.0730   29.4840   38.1460 C   0  0  2  0  0  3  0  0  0  0  0  0
   35.0130   28.9320   38.9230 C   0  0  0  0  0  0  0  0  0  0  0  0
   34.9280   29.3140   40.2140 C   0  0  0  0  0  0  0  0  0  0  0  0
   35.7840   30.1950   40.8360 C   0  0  0  0  0  0  0  0  0  0  0  0
   36.7720   30.6610   39.9730 C   0  0  0  0  0  0  0  0  0  0  0  0
   37.0480   30.4060   38.6310 C   0  0  1  0  0  0  0  0  0  0  0  0
   38.7750   29.8880   37.6730 H   0  0  0  0  0  0  0  0  0  0  0  0
   36.7700   31.5190   36.5410 H   0  0  0  0  0  0  0  0  0  0  0  0
   36.5690   29.9590   35.0320 H   0  0  0  0  0  0  0  0  0  0  0  0
   37.8620   29.0140   35.7900 H   0  0  0  0  0  0  0  0  0  0  0  0
   35.4900   28.3710   36.3810 H   0  0  0  0  0  0  0  0  0  0  0  0
   34.3030   28.2440   38.5270 H   0  0  0  0  0  0  0  0  0  0  0  0
   34.1080   28.8850   40.8120 H   0  0  0  0  0  0  0  0  0  0  0  0
   35.6980   30.4790   41.8460 H   0  0  0  0  0  0  0  0  0  0  0  0
   37.3860   31.3700   40.5150 H   0  0  0  0  0  0  0  0  0  0  0  0
   41.1200   29.3550   41.2180 S   0  0  0  0  0  0  0  0  0  0  0  0
   40.0590   27.9190   41.0940 C   0  0  0  0  0  0  0  0  0  0  0  0
   40.3250   26.9490   40.2000 N   0  0  0  0  0  0  0  0  0  0  0  0
   39.5340   25.8410   40.0810 C   0  0  0  0  0  3  0  0  0  0  0  0
   38.4360   25.6920   40.8800 N   0  0  0  0  0  0  0  0  0  0  0  0
   38.1300   26.6340   41.7870 C   0  0  0  0  0  0  0  0  0  0  0  0
   37.0370   26.5570   42.6310 C   0  0  0  0  0  3  0  0  0  0  0  0
   36.7100   27.5110   43.5630 C   0  0  0  0  0  0  0  0  0  0  0  0
   35.8480   27.4330   44.2160 H   0  0  0  0  0  0  0  0  0  0  0  0
   37.5240   28.6240   43.6670 C   0  0  0  0  0  0  0  0  0  0  0  0
   37.3050   29.4180   44.3980 H   0  0  0  0  0  0  0  0  0  0  0  0
   38.6150   28.7170   42.8350 C   0  0  0  0  0  3  0  0  0  0  0  0
   38.9490   27.7620   41.8980 C   0  0  0  0  0  0  0  0  0  0  0  0
  1  7  1  0  0  0  0
  1  2  1  0  0  0  0
  2  8  1  0  0  0  0
  3  2  2  0  0  0  0
  3 28  1  0  0  0  0
  4  3  1  0  0  0  0
  5  6  1  0  0  0  0
  5  4  2  0  0  0  0
  6  1  2  0  0  0  0
  9 19  1  6  0  0  0
  9 18  1  0  0  0  0
  9  5  1  0  0  0  0
 10 20  1  6  0  0  0
 10  9  1  0  0  0  0
 10 18  1  0  0  0  0
 11 12  1  0  0  0  0
 11 10  1  0  0  0  0
 12 13  1  0  0  0  0
 13 18  1  0  0  0  0
 13 14  1  6  0  0  0
 14 15  2  0  0  0  0
 15 25  1  0  0  0  0
 15 16  1  0  0  0  0
 16 26  1  0  0  0  0
 17 27  1  0  0  0  0
 17 16  2  0  0  0  0
 18 17  1  1  0  0  0
 21 11  1  0  0  0  0
 22 11  1  0  0  0  0
 23 12  1  0  0  0  0
 24 14  1  0  0  0  0
 29 28  1  0  0  0  0
 29 40  1  0  0  0  0
 30 29  2  0  0  0  0
 31 30  1  0  0  0  0
 31 32  2  0  0  0  0
 32 33  1  0  0  0  0
 33 40  2  0  0  0  0
 33 34  1  0  0  0  0
 34 35  2  0  0  0  0
 35 37  1  0  0  0  0
 35 36  1  0  0  0  0
 37 38  1  0  0  0  0
 39 37  2  0  0  0  0
 40 39  1  0  0  0  0
M  END
>  <minimizedAffinity>
-6.50588417

$$$$

 OpenBabel03242523403D

 40 45  0  0  1  0  0  0  0  0999 V2000
   34.3510   27.5700   34.8330 C   0  0  0  0  0  0  0  0  0  0  0  0
   35.5290   28.1740   35.3280 C   0  0  0  0  0  0  0  0  0  0  0  0
   35.4050   29.0390   36.4040 C   0  0  0  0  0  0  0  0  0  0  0  0
   34.1500   29.2290   36.8890 N   0  0  0  0  0  0  0  0  0  0  0  0
   33.0230   28.6230   36.3820 C   0  0  0  0  0  0  0  0  0  0  0  0
   33.2110   27.8460   35.4010 N   0  0  0  0  0  0  0  0  0  0  0  0
   34.3990   26.8860   33.9950 H   0  0  0  0  0  0  0  0  0  0  0  0
   36.4340   27.9010   34.8120 H   0  0  0  0  0  0  0  0  0  0  0  0
   32.0510   29.2140   37.2290 C   0  0  2  0  0  0  0  0  0  0  0  0
   30.9170   29.4490   37.7740 N   0  0  1  0  0  4  0  0  0  0  0  0
   30.5420   30.0200   38.8420 C   0  0  0  0  0  0  0  0  0  0  0  0
   30.1740   31.0920   38.1350 N   0  0  0  0  0  0  0  0  0  0  0  0
   30.6150   31.2100   36.8540 C   0  0  2  0  0  3  0  0  0  0  0  0
   30.0710   32.2950   36.1080 C   0  0  0  0  0  0  0  0  0  0  0  0
   30.4610   32.4190   34.8220 C   0  0  0  0  0  0  0  0  0  0  0  0
   31.3410   31.5780   34.1780 C   0  0  0  0  0  0  0  0  0  0  0  0
   31.7980   30.5610   35.0120 C   0  0  0  0  0  0  0  0  0  0  0  0
   31.5380   30.2470   36.3440 C   0  0  1  0  0  0  0  0  0  0  0  0
   32.7810   29.8390   37.9120 H   0  0  0  0  0  0  0  0  0  0  0  0
   30.2510   28.6430   37.5490 H   0  0  0  0  0  0  0  0  0  0  0  0
   29.7070   29.5800   39.4410 H   0  0  0  0  0  0  0  0  0  0  0  0
   31.3320   30.2660   39.6050 H   0  0  0  0  0  0  0  0  0  0  0  0
   29.5510   31.7840   38.6510 H   0  0  0  0  0  0  0  0  0  0  0  0
   29.3840   32.9960   36.5220 H   0  0  0  0  0  0  0  0  0  0  0  0
   30.0400   33.2600   34.2480 H   0  0  0  0  0  0  0  0  0  0  0  0
   31.6310   31.6950   33.1720 H   0  0  0  0  0  0  0  0  0  0  0  0
   32.4550   29.9230   34.4350 H   0  0  0  0  0  0  0  0  0  0  0  0
   36.8550   29.7710   37.0520 S   0  0  0  0  0  0  0  0  0  0  0  0
   36.7090   29.8040   38.8350 C   0  0  0  0  0  0  0  0  0  0  0  0
   36.4870   30.9630   39.4800 N   0  0  0  0  0  0  0  0  0  0  0  0
   36.3720   31.0220   40.8410 C   0  0  0  0  0  3  0  0  0  0  0  0
   36.4810   29.8840   41.5880 N   0  0  0  0  0  0  0  0  0  0  0  0
   36.7020   28.7020   40.9890 C   0  0  0  0  0  0  0  0  0  0  0  0
   36.8250   27.5070   41.6750 C   0  0  0  0  0  3  0  0  0  0  0  0
   37.0520   26.2920   41.0770 C   0  0  0  0  0  0  0  0  0  0  0  0
   37.1460   25.3650   41.6320 H   0  0  0  0  0  0  0  0  0  0  0  0
   37.1660   26.2550   39.7000 C   0  0  0  0  0  0  0  0  0  0  0  0
   37.3480   25.3070   39.1720 H   0  0  0  0  0  0  0  0  0  0  0  0
   37.0460   27.4350   39.0020 C   0  0  0  0  0  3  0  0  0  0  0  0
   36.8170   28.6580   39.5960 C   0  0  0  0  0  0  0  0  0  0  0  0
  1  2  2  0  0  0  0
  1  6  1  0  0  0  0
  2  3  1  0  0  0  0
  3  4  2  0  0  0  0
  3 28  1  0  0  0  0
  5  4  1  0  0  0  0
  5  9  1  0  0  0  0
  6  5  2  0  0  0  0
  7  1  1  0  0  0  0
  8  2  1  0  0  0  0
  9 10  1  0  0  0  0
  9 19  1  1  0  0  0
 10 20  1  6  0  0  0
 10 11  1  0  0  0  0
 11 21  1  0  0  0  0
 11 22  1  0  0  0  0
 12 23  1  0  0  0  0
 12 11  1  0  0  0  0
 13 14  1  6  0  0  0
 13 12  1  0  0  0  0
 14 24  1  0  0  0  0
 15 14  2  0  0  0  0
 16 15  1  0  0  0  0
 16 17  2  0  0  0  0
 18 17  1  6  0  0  0
 18 13  1  0  0  0  0
 18  9  1  0  0  0  0
 18 10  1  0  0  0  0
 25 15  1  0  0  0  0
 26 16  1  0  0  0  0
 27 17  1  0  0  0  0
 28 29  1  0  0  0  0
 29 30  2  0  0  0  0
 29 40  1  0  0  0  0
 30 31  1  0  0  0  0
 31 32  2  0  0  0  0
 33 32  1  0  0  0  0
 33 34  1  0  0  0  0
 35 36  1  0  0  0  0
 35 34  2  0  0  0  0
 37 35  1  0  0  0  0
 38 37  1  0  0  0  0
 39 40  1  0  0  0  0
 39 37  2  0  0  0  0
 40 33  2  0  0  0  0
M  END
>  <minimizedAffinity>
-6.48352528

$$$$

 OpenBabel03242523403D

 40 45  0  0  1  0  0  0  0  0999 V2000
   37.2650   29.4360   37.1890 C   0  0  0  0  0  0  0  0  0  0  0  0
   36.6130   28.7410   38.2330 C   0  0  0  0  0  0  0  0  0  0  0  0
   37.1490   28.8440   39.5080 C   0  0  0  0  0  0  0  0  0  0  0  0
   38.2640   29.6110   39.6370 N   0  0  0  0  0  0  0  0  0  0  0  0
   38.8730   30.2750   38.5970 C   0  0  0  0  0  0  0  0  0  0  0  0
   38.3290   30.1360   37.4620 N   0  0  0  0  0  0  0  0  0  0  0  0
   36.8820   29.3860   36.1780 H   0  0  0  0  0  0  0  0  0  0  0  0
   35.7410   28.1830   37.9360 H   0  0  0  0  0  0  0  0  0  0  0  0
   39.9630   30.8440   39.3030 C   0  0  2  0  0  0  0  0  0  0  0  0
   40.7090   31.1910   40.2830 N   0  0  1  0  0  4  0  0  0  0  0  0
   41.9190   31.5510   40.4010 C   0  0  0  0  0  0  0  0  0  0  0  0
   41.5250   32.8190   40.5410 N   0  0  0  0  0  0  0  0  0  0  0  0
   40.2490   33.1450   40.2020 C   0  0  2  0  0  3  0  0  0  0  0  0
   39.8450   34.4760   40.5120 C   0  0  0  0  0  0  0  0  0  0  0  0
   38.5740   34.8220   40.2210 C   0  0  0  0  0  0  0  0  0  0  0  0
   37.6390   33.9870   39.6510 C   0  0  0  0  0  0  0  0  0  0  0  0
   38.1550   32.7190   39.3980 C   0  0  0  0  0  0  0  0  0  0  0  0
   39.4100   32.1540   39.6090 C   0  0  1  0  0  0  0  0  0  0  0  0
   40.6490   31.0960   38.3770 H   0  0  0  0  0  0  0  0  0  0  0  0
   40.4160   30.6410   41.1530 H   0  0  0  0  0  0  0  0  0  0  0  0
   42.5260   31.1800   41.2620 H   0  0  0  0  0  0  0  0  0  0  0  0
   42.5910   31.4120   39.5080 H   0  0  0  0  0  0  0  0  0  0  0  0
   42.2650   33.4860   40.9150 H   0  0  0  0  0  0  0  0  0  0  0  0
   40.5000   35.1910   40.9540 H   0  0  0  0  0  0  0  0  0  0  0  0
   38.2650   35.8520   40.4600 H   0  0  0  0  0  0  0  0  0  0  0  0
   36.6510   34.2790   39.4320 H   0  0  0  0  0  0  0  0  0  0  0  0
   37.3620   32.1090   38.9830 H   0  0  0  0  0  0  0  0  0  0  0  0
   36.3380   28.0190   40.8180 S   0  0  0  0  0  0  0  0  0  0  0  0
   37.0900   26.4060   41.0060 C   0  0  0  0  0  0  0  0  0  0  0  0
   36.6950   25.3750   40.2390 N   0  0  0  0  0  0  0  0  0  0  0  0
   37.2490   24.1310   40.3590 C   0  0  0  0  0  3  0  0  0  0  0  0
   38.2340   23.9050   41.2780 N   0  0  0  0  0  0  0  0  0  0  0  0
   38.6630   24.9040   42.0670 C   0  0  0  0  0  0  0  0  0  0  0  0
   39.6540   24.7550   43.0200 C   0  0  0  0  0  3  0  0  0  0  0  0
   40.1030   25.7660   43.8340 C   0  0  0  0  0  0  0  0  0  0  0  0
   40.8810   25.6290   44.5760 H   0  0  0  0  0  0  0  0  0  0  0  0
   39.5280   27.0160   43.6960 C   0  0  0  0  0  0  0  0  0  0  0  0
   39.8520   27.8590   44.3250 H   0  0  0  0  0  0  0  0  0  0  0  0
   38.5400   27.1820   42.7530 C   0  0  0  0  0  3  0  0  0  0  0  0
   38.0860   26.1710   41.9320 C   0  0  0  0  0  0  0  0  0  0  0  0
  1  6  2  0  0  0  0
  1  2  1  0  0  0  0
  2  3  2  0  0  0  0
  3  4  1  0  0  0  0
  3 28  1  0  0  0  0
  5  9  1  0  0  0  0
  5  4  2  0  0  0  0
  6  5  1  0  0  0  0
  7  1  1  0  0  0  0
  8  2  1  0  0  0  0
  9 19  1  6  0  0  0
  9 18  1  0  0  0  0
  9 10  1  0  0  0  0
 10 11  1  0  0  0  0
 10 20  1  1  0  0  0
 11 12  1  0  0  0  0
 11 21  1  0  0  0  0
 12 23  1  0  0  0  0
 13 14  1  1  0  0  0
 13 12  1  0  0  0  0
 14 24  1  0  0  0  0
 15 25  1  0  0  0  0
 15 14  2  0  0  0  0
 16 15  1  0  0  0  0
 17 16  2  0  0  0  0
 18 17  1  1  0  0  0
 18 13  1  0  0  0  0
 18 10  1  0  0  0  0
 22 11  1  0  0  0  0
 26 16  1  0  0  0  0
 27 17  1  0  0  0  0
 28 29  1  0  0  0  0
 29 40  1  0  0  0  0
 30 31  1  0  0  0  0
 30 29  2  0  0  0  0
 31 32  2  0  0  0  0
 32 33  1  0  0  0  0
 33 34  1  0  0  0  0
 34 35  2  0  0  0  0
 35 36  1  0  0  0  0
 37 35  1  0  0  0  0
 37 38  1  0  0  0  0
 39 37  2  0  0  0  0
 40 33  2  0  0  0  0
 40 39  1  0  0  0  0
M  END
>  <minimizedAffinity>
-6.40496159

$$$$

 OpenBabel03242523403D

 40 45  0  0  1  0  0  0  0  0999 V2000
   36.7850   27.6190   43.7880 C   0  0  0  0  0  0  0  0  0  0  0  0
   36.9580   26.7430   42.6930 C   0  0  0  0  0  0  0  0  0  0  0  0
   37.9240   27.0710   41.7530 C   0  0  0  0  0  0  0  0  0  0  0  0
   38.6210   28.2170   41.9740 N   0  0  0  0  0  0  0  0  0  0  0  0
   38.4250   29.0470   43.0540 C   0  0  0  0  0  0  0  0  0  0  0  0
   37.5290   28.6840   43.8710 N   0  0  0  0  0  0  0  0  0  0  0  0
   36.0440   27.4020   44.5470 H   0  0  0  0  0  0  0  0  0  0  0  0
   36.3100   25.8830   42.6880 H   0  0  0  0  0  0  0  0  0  0  0  0
   39.3690   30.0560   42.7340 C   0  0  2  0  0  0  0  0  0  0  0  0
   39.9900   31.1740   42.7710 N   0  0  1  0  0  4  0  0  0  0  0  0
   41.1220   31.5810   42.3680 C   0  0  0  0  0  0  0  0  0  0  0  0
   40.5320   32.1950   41.3410 N   0  0  0  0  0  0  0  0  0  0  0  0
   39.2450   31.8740   41.0410 C   0  0  2  0  0  3  0  0  0  0  0  0
   38.6250   32.6670   40.0330 C   0  0  0  0  0  0  0  0  0  0  0  0
   37.3370   32.3960   39.7360 C   0  0  0  0  0  0  0  0  0  0  0  0
   36.5780   31.4160   40.3340 C   0  0  0  0  0  0  0  0  0  0  0  0
   37.2950   30.7140   41.3000 C   0  0  0  0  0  0  0  0  0  0  0  0
   38.6060   30.8180   41.7590 C   0  0  1  0  0  0  0  0  0  0  0  0
   40.0660   29.4160   42.0300 H   0  0  0  0  0  0  0  0  0  0  0  0
   39.7300   31.6850   43.6750 H   0  0  0  0  0  0  0  0  0  0  0  0
   41.7220   32.2710   43.0100 H   0  0  0  0  0  0  0  0  0  0  0  0
   41.8620   30.8030   42.0290 H   0  0  0  0  0  0  0  0  0  0  0  0
   41.1380   32.9050   40.8280 H   0  0  0  0  0  0  0  0  0  0  0  0
   39.1340   33.4470   39.5160 H   0  0  0  0  0  0  0  0  0  0  0  0
   36.8610   33.0100   38.9550 H   0  0  0  0  0  0  0  0  0  0  0  0
   35.5730   31.2220   40.0870 H   0  0  0  0  0  0  0  0  0  0  0  0
   36.6320   29.9860   41.7500 H   0  0  0  0  0  0  0  0  0  0  0  0
   38.1760   25.9830   40.4080 S   0  0  0  0  0  0  0  0  0  0  0  0
   38.3130   26.9670   38.9190 C   0  0  0  0  0  0  0  0  0  0  0  0
   39.4550   26.9730   38.2070 N   0  0  0  0  0  0  0  0  0  0  0  0
   39.5910   27.7130   37.0680 C   0  0  0  0  0  3  0  0  0  0  0  0
   38.5520   28.4780   36.6180 N   0  0  0  0  0  0  0  0  0  0  0  0
   37.3920   28.5050   37.2950 C   0  0  0  0  0  0  0  0  0  0  0  0
   36.2960   29.2530   36.9050 C   0  0  0  0  0  3  0  0  0  0  0  0
   35.1040   29.2920   37.5860 C   0  0  0  0  0  0  0  0  0  0  0  0
   34.2550   29.8850   37.2650 H   0  0  0  0  0  0  0  0  0  0  0  0
   34.9870   28.5350   38.7370 C   0  0  0  0  0  0  0  0  0  0  0  0
   34.0540   28.5310   39.3200 H   0  0  0  0  0  0  0  0  0  0  0  0
   36.0690   27.7840   39.1390 C   0  0  0  0  0  3  0  0  0  0  0  0
   37.2680   27.7410   38.4600 C   0  0  0  0  0  0  0  0  0  0  0  0
  1  6  1  0  0  0  0
  1  7  1  0  0  0  0
  2  1  2  0  0  0  0
  3  4  2  0  0  0  0
  3  2  1  0  0  0  0
  4  5  1  0  0  0  0
  5  6  2  0  0  0  0
  8  2  1  0  0  0  0
  9 19  1  6  0  0  0
  9 10  1  0  0  0  0
  9  5  1  0  0  0  0
 10 20  1  1  0  0  0
 11 10  1  0  0  0  0
 11 21  1  0  0  0  0
 12 11  1  0  0  0  0
 13 14  1  1  0  0  0
 13 12  1  0  0  0  0
 13 18  1  0  0  0  0
 15 14  2  0  0  0  0
 15 16  1  0  0  0  0
 16 17  2  0  0  0  0
 17 27  1  0  0  0  0
 18 17  1  1  0  0  0
 18  9  1  0  0  0  0
 18 10  1  0  0  0  0
 22 11  1  0  0  0  0
 23 12  1  0  0  0  0
 24 14  1  0  0  0  0
 25 15  1  0  0  0  0
 26 16  1  0  0  0  0
 28  3  1  0  0  0  0
 29 28  1  0  0  0  0
 30 29  2  0  0  0  0
 31 30  1  0  0  0  0
 32 31  2  0  0  0  0
 32 33  1  0  0  0  0
 33 40  1  0  0  0  0
 34 33  2  0  0  0  0
 34 35  1  0  0  0  0
 35 37  2  0  0  0  0
 36 35  1  0  0  0  0
 37 39  1  0  0  0  0
 37 38  1  0  0  0  0
 40 29  1  0  0  0  0
 40 39  2  0  0  0  0
M  END
>  <minimizedAffinity>
-6.38677311

$$$$
