
 OpenBabel03252500053D

 48 52  0  0  0  0  0  0  0  0999 V2000
   35.2110   28.9740   40.5050 C   0  0  0  0  0  0  0  0  0  0  0  0
   36.4740   29.4070   40.8340 C   0  0  0  0  0  0  0  0  0  0  0  0
   37.3890   29.7510   39.8230 C   0  0  0  0  0  0  0  0  0  0  0  0
   36.8970   29.6110   38.5730 N   0  0  0  0  0  0  0  0  0  0  0  0
   35.6900   29.1970   38.2540 C   0  0  0  0  0  0  0  0  0  0  0  0
   34.8620   28.8830   39.2360 N   0  0  0  0  0  0  0  0  0  0  0  0
   34.5500   28.7230   41.3220 H   0  0  0  0  0  0  0  0  0  0  0  0
   38.7160   30.2150   40.0120 C   0  0  0  0  0  0  0  0  0  0  0  0
   39.7230   29.2590   40.0930 C   0  0  0  0  0  0  0  0  0  0  0  0
   41.0590   29.5280   40.2750 C   0  0  0  0  0  0  0  0  0  0  0  0
   41.4860   30.8140   40.3910 C   0  0  0  0  0  0  0  0  0  0  0  0
   40.5480   31.8200   40.3210 C   0  0  0  0  0  0  0  0  0  0  0  0
   40.9080   33.1340   40.4310 C   0  0  0  0  0  0  0  0  0  0  0  0
   40.0070   34.1610   40.3680 C   0  0  0  0  0  0  0  0  0  0  0  0
   38.6530   33.8190   40.1790 C   0  0  0  0  0  0  0  0  0  0  0  0
   38.3320   32.4860   40.0730 C   0  0  0  0  0  0  0  0  0  0  0  0
   39.2160   31.4850   40.1370 C   0  0  0  0  0  0  0  0  0  0  0  0
   39.4960   28.1910   40.0130 H   0  0  0  0  0  0  0  0  0  0  0  0
   41.8050   28.7580   40.3330 H   0  0  0  0  0  0  0  0  0  0  0  0
   42.5100   31.0560   40.5330 H   0  0  0  0  0  0  0  0  0  0  0  0
   41.9390   33.3540   40.5730 H   0  0  0  0  0  0  0  0  0  0  0  0
   40.3380   35.1890   40.4590 H   0  0  0  0  0  0  0  0  0  0  0  0
   37.9860   34.6510   40.1350 H   0  0  0  0  0  0  0  0  0  0  0  0
   36.9430   32.3060   39.8930 N   0  0  0  0  0  0  0  0  0  0  0  0
   36.0820   32.0960   40.4110 H   0  0  0  0  0  0  0  0  0  0  0  0
   36.7950   32.4560   38.8500 H   0  0  0  0  0  0  0  0  0  0  0  0
   35.4160   29.1400   36.7840 C   0  0  0  0  0  0  0  0  0  0  0  0
   36.1700   30.0430   36.1010 F   0  0  0  0  0  0  0  0  0  0  0  0
   34.0670   29.3280   36.5360 F   0  0  0  0  0  0  0  0  0  0  0  0
   35.6530   27.8200   36.3310 F   0  0  0  0  0  0  0  0  0  0  0  0
   37.0130   29.5490   42.2150 C   0  0  0  0  0  0  0  0  0  0  0  0
   36.4440   30.3310   42.7810 H   0  0  0  0  0  0  0  0  0  0  0  0
   38.0100   29.9470   42.0830 H   0  0  0  0  0  0  0  0  0  0  0  0
   36.9570   28.3140   43.0260 C   0  0  0  0  0  0  0  0  0  0  0  0
   36.0970   27.6700   42.8550 H   0  0  0  0  0  0  0  0  0  0  0  0
   36.7360   28.6590   44.0840 H   0  0  0  0  0  0  0  0  0  0  0  0
   38.1850   27.4750   42.9980 C   0  0  0  0  0  0  0  0  0  0  0  0
   39.4220   27.7080   43.4560 N   0  0  0  0  0  0  0  0  0  0  0  0
   40.4740   26.9250   43.4150 C   0  0  0  0  0  3  0  0  0  0  0  0
   40.3840   25.7100   42.8580 N   0  0  0  0  0  0  0  0  0  0  0  0
   39.1860   25.3400   42.3510 C   0  0  0  0  0  0  0  0  0  0  0  0
   39.1590   24.0830   41.7860 C   0  0  0  0  0  3  0  0  0  0  0  0
   37.9710   23.6440   41.2430 C   0  0  0  0  0  0  0  0  0  0  0  0
   37.9380   22.6660   40.8010 H   0  0  0  0  0  0  0  0  0  0  0  0
   36.8580   24.4560   41.2760 C   0  0  0  0  0  0  0  0  0  0  0  0
   35.9500   24.0880   40.8450 H   0  0  0  0  0  0  0  0  0  0  0  0
   36.9780   25.6990   41.8620 C   0  0  0  0  0  3  0  0  0  0  0  0
   38.1240   26.2180   42.4300 C   0  0  0  0  0  0  0  0  0  0  0  0
  1  2  1  0  0  0  0
  1  7  1  0  0  0  0
  2 31  1  0  0  0  0
  3  8  1  0  0  0  0
  3  2  2  0  0  0  0
  4  3  1  0  0  0  0
  5  4  2  0  0  0  0
  5  6  1  0  0  0  0
  6  1  2  0  0  0  0
  8  9  2  0  0  0  0
  8 17  1  0  0  0  0
  9 10  1  0  0  0  0
 10 19  1  0  0  0  0
 10 11  2  0  0  0  0
 11 20  1  0  0  0  0
 12 11  1  0  0  0  0
 12 13  1  0  0  0  0
 13 21  1  0  0  0  0
 14 13  2  0  0  0  0
 14 22  1  0  0  0  0
 15 14  1  0  0  0  0
 16 17  1  0  0  0  0
 16 15  2  0  0  0  0
 17 12  2  0  0  0  0
 18  9  1  0  0  0  0
 23 15  1  0  0  0  0
 24 16  1  0  0  0  0
 24 25  1  0  0  0  0
 26 24  1  0  0  0  0
 27  5  1  0  0  0  0
 28 27  1  0  0  0  0
 29 27  1  0  0  0  0
 30 27  1  0  0  0  0
 31 32  1  0  0  0  0
 31 34  1  0  0  0  0
 33 31  1  0  0  0  0
 34 36  1  0  0  0  0
 35 34  1  0  0  0  0
 37 34  1  0  0  0  0
 37 38  1  0  0  0  0
 39 38  2  0  0  0  0
 40 39  1  0  0  0  0
 41 48  1  0  0  0  0
 41 40  2  0  0  0  0
 42 41  1  0  0  0  0
 43 45  1  0  0  0  0
 43 42  2  0  0  0  0
 44 43  1  0  0  0  0
 45 47  2  0  0  0  0
 46 45  1  0  0  0  0
 47 48  1  0  0  0  0
 48 37  2  0  0  0  0
M  END
>  <minimizedAffinity>
-7.04896736

$$$$

 OpenBabel03252500053D

 48 52  0  0  0  0  0  0  0  0999 V2000
   35.9960   28.6320   37.7470 C   0  0  0  0  0  0  0  0  0  0  0  0
   36.7090   29.5320   38.5040 C   0  0  0  0  0  0  0  0  0  0  0  0
   37.2640   30.6760   37.9050 C   0  0  0  0  0  0  0  0  0  0  0  0
   37.0220   30.7690   36.5800 N   0  0  0  0  0  0  0  0  0  0  0  0
   36.3410   29.9100   35.8520 C   0  0  0  0  0  0  0  0  0  0  0  0
   35.8360   28.8480   36.4550 N   0  0  0  0  0  0  0  0  0  0  0  0
   35.5920   27.7710   38.2600 H   0  0  0  0  0  0  0  0  0  0  0  0
   38.0140   31.6870   38.5590 C   0  0  0  0  0  0  0  0  0  0  0  0
   37.3040   32.6940   39.2050 C   0  0  0  0  0  0  0  0  0  0  0  0
   37.8650   33.7500   39.8840 C   0  0  0  0  0  0  0  0  0  0  0  0
   39.2180   33.8670   39.9630 C   0  0  0  0  0  0  0  0  0  0  0  0
   39.9920   32.9090   39.3490 C   0  0  0  0  0  0  0  0  0  0  0  0
   41.3570   32.9680   39.3880 C   0  0  0  0  0  0  0  0  0  0  0  0
   42.1600   32.0360   38.7890 C   0  0  0  0  0  0  0  0  0  0  0  0
   41.5240   30.9790   38.1090 C   0  0  0  0  0  0  0  0  0  0  0  0
   40.1490   30.9560   38.0930 C   0  0  0  0  0  0  0  0  0  0  0  0
   39.3670   31.8690   38.6780 C   0  0  0  0  0  0  0  0  0  0  0  0
   36.2090   32.7010   39.2070 H   0  0  0  0  0  0  0  0  0  0  0  0
   37.2790   34.5070   40.3690 H   0  0  0  0  0  0  0  0  0  0  0  0
   39.6820   34.6710   40.4790 H   0  0  0  0  0  0  0  0  0  0  0  0
   41.8020   33.7810   39.9090 H   0  0  0  0  0  0  0  0  0  0  0  0
   43.2380   32.1230   38.8470 H   0  0  0  0  0  0  0  0  0  0  0  0
   42.1880   30.2760   37.6590 H   0  0  0  0  0  0  0  0  0  0  0  0
   39.6630   29.8430   37.3720 N   0  0  0  0  0  0  0  0  0  0  0  0
   39.3140   29.5710   36.4460 H   0  0  0  0  0  0  0  0  0  0  0  0
   39.6990   29.0440   38.0740 H   0  0  0  0  0  0  0  0  0  0  0  0
   36.2290   30.2690   34.4030 C   0  0  0  0  0  0  0  0  0  0  0  0
   36.6720   31.5330   34.1660 F   0  0  0  0  0  0  0  0  0  0  0  0
   34.9260   30.1070   33.9650 F   0  0  0  0  0  0  0  0  0  0  0  0
   36.9520   29.3170   33.6450 F   0  0  0  0  0  0  0  0  0  0  0  0
   36.9810   29.4170   39.9640 C   0  0  0  0  0  0  0  0  0  0  0  0
   36.7690   30.3870   40.4820 H   0  0  0  0  0  0  0  0  0  0  0  0
   38.0510   29.2730   40.0350 H   0  0  0  0  0  0  0  0  0  0  0  0
   36.1850   28.3830   40.6580 C   0  0  0  0  0  0  0  0  0  0  0  0
   35.1510   28.2810   40.3350 H   0  0  0  0  0  0  0  0  0  0  0  0
   36.0230   28.7820   41.7070 H   0  0  0  0  0  0  0  0  0  0  0  0
   36.7980   27.0290   40.7050 C   0  0  0  0  0  0  0  0  0  0  0  0
   36.6060   25.9470   39.9380 N   0  0  0  0  0  0  0  0  0  0  0  0
   37.1850   24.7720   40.0150 C   0  0  0  0  0  3  0  0  0  0  0  0
   38.1060   24.5390   40.9610 N   0  0  0  0  0  0  0  0  0  0  0  0
   38.4000   25.5490   41.8110 C   0  0  0  0  0  0  0  0  0  0  0  0
   39.3480   25.2460   42.7650 C   0  0  0  0  0  3  0  0  0  0  0  0
   39.6920   26.2270   43.6690 C   0  0  0  0  0  0  0  0  0  0  0  0
   40.4300   26.0020   44.4160 H   0  0  0  0  0  0  0  0  0  0  0  0
   39.0910   27.4650   43.6020 C   0  0  0  0  0  0  0  0  0  0  0  0
   39.3770   28.2060   44.3190 H   0  0  0  0  0  0  0  0  0  0  0  0
   38.1520   27.6800   42.6140 C   0  0  0  0  0  3  0  0  0  0  0  0
   37.7490   26.7580   41.6680 C   0  0  0  0  0  0  0  0  0  0  0  0
  1  7  1  0  0  0  0
  1  2  1  0  0  0  0
  2 31  1  0  0  0  0
  3  2  2  0  0  0  0
  3  8  1  0  0  0  0
  4  3  1  0  0  0  0
  5  6  1  0  0  0  0
  5  4  2  0  0  0  0
  6  1  2  0  0  0  0
  8 17  2  0  0  0  0
  8  9  1  0  0  0  0
  9 18  1  0  0  0  0
  9 10  2  0  0  0  0
 10 11  1  0  0  0  0
 10 19  1  0  0  0  0
 11 20  1  0  0  0  0
 12 13  1  0  0  0  0
 12 11  2  0  0  0  0
 13 21  1  0  0  0  0
 14 22  1  0  0  0  0
 14 13  2  0  0  0  0
 15 14  1  0  0  0  0
 16 15  2  0  0  0  0
 16 17  1  0  0  0  0
 17 12  1  0  0  0  0
 23 15  1  0  0  0  0
 24 26  1  0  0  0  0
 24 16  1  0  0  0  0
 25 24  1  0  0  0  0
 27  5  1  0  0  0  0
 28 27  1  0  0  0  0
 29 27  1  0  0  0  0
 30 27  1  0  0  0  0
 31 33  1  0  0  0  0
 31 32  1  0  0  0  0
 31 34  1  0  0  0  0
 34 37  1  0  0  0  0
 34 36  1  0  0  0  0
 35 34  1  0  0  0  0
 37 48  1  0  0  0  0
 38 39  1  0  0  0  0
 38 37  2  0  0  0  0
 39 40  2  0  0  0  0
 40 41  1  0  0  0  0
 41 42  1  0  0  0  0
 42 43  2  0  0  0  0
 43 44  1  0  0  0  0
 45 43  1  0  0  0  0
 45 46  1  0  0  0  0
 47 45  2  0  0  0  0
 48 41  2  0  0  0  0
 48 47  1  0  0  0  0
M  END
>  <minimizedAffinity>
-7.03585768

$$$$

 OpenBabel03252500053D

 48 52  0  0  0  0  0  0  0  0999 V2000
   34.4410   28.7650   38.0420 C   0  0  0  0  0  0  0  0  0  0  0  0
   35.3440   29.4880   38.7860 C   0  0  0  0  0  0  0  0  0  0  0  0
   36.4370   30.1120   38.1600 C   0  0  0  0  0  0  0  0  0  0  0  0
   36.4790   29.9230   36.8230 N   0  0  0  0  0  0  0  0  0  0  0  0
   35.6170   29.2330   36.1080 C   0  0  0  0  0  0  0  0  0  0  0  0
   34.6050   28.6610   36.7380 N   0  0  0  0  0  0  0  0  0  0  0  0
   33.6220   28.3070   38.5770 H   0  0  0  0  0  0  0  0  0  0  0  0
   37.4390   30.8890   38.7950 C   0  0  0  0  0  0  0  0  0  0  0  0
   37.1620   32.2350   39.0150 C   0  0  0  0  0  0  0  0  0  0  0  0
   38.0150   33.1320   39.6130 C   0  0  0  0  0  0  0  0  0  0  0  0
   39.2390   32.7260   40.0450 C   0  0  0  0  0  0  0  0  0  0  0  0
   39.5890   31.4070   39.8640 C   0  0  0  0  0  0  0  0  0  0  0  0
   40.8030   30.9330   40.2720 C   0  0  0  0  0  0  0  0  0  0  0  0
   41.1880   29.6300   40.1090 C   0  0  0  0  0  0  0  0  0  0  0  0
   40.2690   28.7600   39.4900 C   0  0  0  0  0  0  0  0  0  0  0  0
   39.0570   29.2760   39.0930 C   0  0  0  0  0  0  0  0  0  0  0  0
   38.6850   30.5510   39.2530 C   0  0  0  0  0  0  0  0  0  0  0  0
   36.2060   32.6720   38.7080 H   0  0  0  0  0  0  0  0  0  0  0  0
   37.7610   34.1650   39.7630 H   0  0  0  0  0  0  0  0  0  0  0  0
   39.9210   33.3940   40.5100 H   0  0  0  0  0  0  0  0  0  0  0  0
   41.4720   31.6180   40.7350 H   0  0  0  0  0  0  0  0  0  0  0  0
   42.1610   29.2980   40.4490 H   0  0  0  0  0  0  0  0  0  0  0  0
   40.6090   27.7540   39.3840 H   0  0  0  0  0  0  0  0  0  0  0  0
   38.2510   28.2860   38.4870 N   0  0  0  0  0  0  0  0  0  0  0  0
   37.9810   27.9170   37.5690 H   0  0  0  0  0  0  0  0  0  0  0  0
   37.8020   27.7800   39.3080 H   0  0  0  0  0  0  0  0  0  0  0  0
   35.9120   29.1920   34.6410 C   0  0  0  0  0  0  0  0  0  0  0  0
   35.6260   30.3790   34.0420 F   0  0  0  0  0  0  0  0  0  0  0  0
   35.2250   28.1520   34.0390 F   0  0  0  0  0  0  0  0  0  0  0  0
   37.2700   28.8360   34.4630 F   0  0  0  0  0  0  0  0  0  0  0  0
   35.2970   29.6820   40.2620 C   0  0  0  0  0  0  0  0  0  0  0  0
   34.2770   30.0190   40.5820 H   0  0  0  0  0  0  0  0  0  0  0  0
   35.9560   30.5190   40.4510 H   0  0  0  0  0  0  0  0  0  0  0  0
   35.6130   28.4740   41.0520 C   0  0  0  0  0  0  0  0  0  0  0  0
   35.5520   27.5280   40.5190 H   0  0  0  0  0  0  0  0  0  0  0  0
   34.7440   28.3490   41.7710 H   0  0  0  0  0  0  0  0  0  0  0  0
   36.9010   28.5140   41.7940 C   0  0  0  0  0  0  0  0  0  0  0  0
   37.5550   29.5310   42.3700 N   0  0  0  0  0  0  0  0  0  0  0  0
   38.6910   29.5110   43.0270 C   0  0  0  0  0  3  0  0  0  0  0  0
   39.3510   28.3560   43.1890 N   0  0  0  0  0  0  0  0  0  0  0  0
   38.8030   27.2410   42.6560 C   0  0  0  0  0  0  0  0  0  0  0  0
   39.5320   26.0880   42.8500 C   0  0  0  0  0  3  0  0  0  0  0  0
   39.0360   24.9130   42.3260 C   0  0  0  0  0  0  0  0  0  0  0  0
   39.5950   24.0080   42.4730 H   0  0  0  0  0  0  0  0  0  0  0  0
   37.8450   24.9190   41.6330 C   0  0  0  0  0  0  0  0  0  0  0  0
   37.4850   23.9920   41.2370 H   0  0  0  0  0  0  0  0  0  0  0  0
   37.1830   26.1210   41.4870 C   0  0  0  0  0  3  0  0  0  0  0  0
   37.6050   27.3400   41.9780 C   0  0  0  0  0  0  0  0  0  0  0  0
  1  7  1  0  0  0  0
  1  2  1  0  0  0  0
  2 31  1  0  0  0  0
  3  2  2  0  0  0  0
  3  8  1  0  0  0  0
  4  3  1  0  0  0  0
  5  6  1  0  0  0  0
  5  4  2  0  0  0  0
  6  1  2  0  0  0  0
  8  9  2  0  0  0  0
  8 17  1  0  0  0  0
  9 10  1  0  0  0  0
 10 19  1  0  0  0  0
 10 11  2  0  0  0  0
 11 20  1  0  0  0  0
 12 11  1  0  0  0  0
 12 13  1  0  0  0  0
 13 21  1  0  0  0  0
 14 13  2  0  0  0  0
 14 22  1  0  0  0  0
 15 14  1  0  0  0  0
 16 17  1  0  0  0  0
 16 15  2  0  0  0  0
 17 12  2  0  0  0  0
 18  9  1  0  0  0  0
 23 15  1  0  0  0  0
 24 16  1  0  0  0  0
 24 26  1  0  0  0  0
 25 24  1  0  0  0  0
 27  5  1  0  0  0  0
 28 27  1  0  0  0  0
 29 27  1  0  0  0  0
 30 27  1  0  0  0  0
 31 33  1  0  0  0  0
 31 32  1  0  0  0  0
 31 34  1  0  0  0  0
 34 36  1  0  0  0  0
 34 37  1  0  0  0  0
 35 34  1  0  0  0  0
 37 48  2  0  0  0  0
 37 38  1  0  0  0  0
 38 39  2  0  0  0  0
 39 40  1  0  0  0  0
 41 42  1  0  0  0  0
 41 40  2  0  0  0  0
 43 44  1  0  0  0  0
 43 42  2  0  0  0  0
 45 43  1  0  0  0  0
 46 45  1  0  0  0  0
 47 45  2  0  0  0  0
 47 48  1  0  0  0  0
 48 41  1  0  0  0  0
M  END
>  <minimizedAffinity>
-6.84628582

$$$$

 OpenBabel03252500053D

 48 52  0  0  0  0  0  0  0  0999 V2000
   36.8360   29.6960   37.1100 C   0  0  0  0  0  0  0  0  0  0  0  0
   37.2470   29.1570   38.3070 C   0  0  0  0  0  0  0  0  0  0  0  0
   36.3160   28.5410   39.1610 C   0  0  0  0  0  0  0  0  0  0  0  0
   35.0530   28.5470   38.6840 N   0  0  0  0  0  0  0  0  0  0  0  0
   34.6560   29.0610   37.5400 C   0  0  0  0  0  0  0  0  0  0  0  0
   35.5640   29.6310   36.7680 N   0  0  0  0  0  0  0  0  0  0  0  0
   37.5950   30.1570   36.4940 H   0  0  0  0  0  0  0  0  0  0  0  0
   36.5940   27.9410   40.4160 C   0  0  0  0  0  0  0  0  0  0  0  0
   36.6600   28.7790   41.5250 C   0  0  0  0  0  0  0  0  0  0  0  0
   36.9190   28.3700   42.8120 C   0  0  0  0  0  0  0  0  0  0  0  0
   37.1360   27.0540   43.0800 C   0  0  0  0  0  0  0  0  0  0  0  0
   37.0870   26.1610   42.0340 C   0  0  0  0  0  0  0  0  0  0  0  0
   37.2970   24.8250   42.2320 C   0  0  0  0  0  0  0  0  0  0  0  0
   37.2580   23.9060   41.2180 C   0  0  0  0  0  0  0  0  0  0  0  0
   36.9870   24.3880   39.9230 C   0  0  0  0  0  0  0  0  0  0  0  0
   36.7820   25.7390   39.7650 C   0  0  0  0  0  0  0  0  0  0  0  0
   36.8220   26.6340   40.7580 C   0  0  0  0  0  0  0  0  0  0  0  0
   36.5020   29.8570   41.4280 H   0  0  0  0  0  0  0  0  0  0  0  0
   36.9610   29.0510   43.6410 H   0  0  0  0  0  0  0  0  0  0  0  0
   37.3390   26.7070   44.0620 H   0  0  0  0  0  0  0  0  0  0  0  0
   37.5000   24.4980   43.2230 H   0  0  0  0  0  0  0  0  0  0  0  0
   37.4300   22.8560   41.4230 H   0  0  0  0  0  0  0  0  0  0  0  0
   36.9660   23.6380   39.1640 H   0  0  0  0  0  0  0  0  0  0  0  0
   36.5280   26.0650   38.4150 N   0  0  0  0  0  0  0  0  0  0  0  0
   36.9920   26.4080   37.5660 H   0  0  0  0  0  0  0  0  0  0  0  0
   35.4910   25.8620   38.2900 H   0  0  0  0  0  0  0  0  0  0  0  0
   33.1900   28.9230   37.2670 C   0  0  0  0  0  0  0  0  0  0  0  0
   32.4450   29.3140   38.3350 F   0  0  0  0  0  0  0  0  0  0  0  0
   32.8890   27.6240   36.8970 F   0  0  0  0  0  0  0  0  0  0  0  0
   32.8730   29.6760   36.1120 F   0  0  0  0  0  0  0  0  0  0  0  0
   38.6420   29.1640   38.8310 C   0  0  0  0  0  0  0  0  0  0  0  0
   39.0770   28.1310   38.8050 H   0  0  0  0  0  0  0  0  0  0  0  0
   38.5410   29.4160   39.8780 H   0  0  0  0  0  0  0  0  0  0  0  0
   39.5730   30.0360   38.0860 C   0  0  0  0  0  0  0  0  0  0  0  0
   39.4100   30.1000   37.0120 H   0  0  0  0  0  0  0  0  0  0  0  0
   40.5700   29.4930   38.1000 H   0  0  0  0  0  0  0  0  0  0  0  0
   39.7240   31.4150   38.6210 C   0  0  0  0  0  0  0  0  0  0  0  0
   38.9270   32.1460   39.4110 N   0  0  0  0  0  0  0  0  0  0  0  0
   39.1130   33.3620   39.8670 C   0  0  0  0  0  3  0  0  0  0  0  0
   40.2270   34.0350   39.5470 N   0  0  0  0  0  0  0  0  0  0  0  0
   41.1270   33.4150   38.7500 C   0  0  0  0  0  0  0  0  0  0  0  0
   42.2470   34.1590   38.4510 C   0  0  0  0  0  3  0  0  0  0  0  0
   43.2030   33.5920   37.6370 C   0  0  0  0  0  0  0  0  0  0  0  0
   44.0800   34.1630   37.3980 H   0  0  0  0  0  0  0  0  0  0  0  0
   43.0200   32.3160   37.1480 C   0  0  0  0  0  0  0  0  0  0  0  0
   43.7790   31.9020   36.5180 H   0  0  0  0  0  0  0  0  0  0  0  0
   41.8670   31.6440   37.5000 C   0  0  0  0  0  3  0  0  0  0  0  0
   40.8610   32.1340   38.3090 C   0  0  0  0  0  0  0  0  0  0  0  0
  1  2  1  0  0  0  0
  2 31  1  0  0  0  0
  2  3  2  0  0  0  0
  3  8  1  0  0  0  0
  4  3  1  0  0  0  0
  5  4  2  0  0  0  0
  6  1  2  0  0  0  0
  6  5  1  0  0  0  0
  7  1  1  0  0  0  0
  8 17  2  0  0  0  0
  8  9  1  0  0  0  0
  9 10  2  0  0  0  0
 10 11  1  0  0  0  0
 10 19  1  0  0  0  0
 11 20  1  0  0  0  0
 12 13  1  0  0  0  0
 12 11  2  0  0  0  0
 13 21  1  0  0  0  0
 14 22  1  0  0  0  0
 14 13  2  0  0  0  0
 15 14  1  0  0  0  0
 16 15  2  0  0  0  0
 16 17  1  0  0  0  0
 17 12  1  0  0  0  0
 18  9  1  0  0  0  0
 23 15  1  0  0  0  0
 24 16  1  0  0  0  0
 25 24  1  0  0  0  0
 26 24  1  0  0  0  0
 27  5  1  0  0  0  0
 27 28  1  0  0  0  0
 29 27  1  0  0  0  0
 30 27  1  0  0  0  0
 31 33  1  0  0  0  0
 32 31  1  0  0  0  0
 34 36  1  0  0  0  0
 34 37  1  0  0  0  0
 34 31  1  0  0  0  0
 35 34  1  0  0  0  0
 37 38  1  0  0  0  0
 38 39  2  0  0  0  0
 40 39  1  0  0  0  0
 41 40  2  0  0  0  0
 42 41  1  0  0  0  0
 43 42  2  0  0  0  0
 44 43  1  0  0  0  0
 45 47  2  0  0  0  0
 45 43  1  0  0  0  0
 46 45  1  0  0  0  0
 47 48  1  0  0  0  0
 48 37  2  0  0  0  0
 48 41  1  0  0  0  0
M  END
>  <minimizedAffinity>
-6.81152153

$$$$

 OpenBabel03252500053D

 48 52  0  0  0  0  0  0  0  0999 V2000
   35.4990   28.7080   40.4450 C   0  0  0  0  0  0  0  0  0  0  0  0
   36.4390   29.6910   40.6450 C   0  0  0  0  0  0  0  0  0  0  0  0
   36.9130   30.4460   39.5590 C   0  0  0  0  0  0  0  0  0  0  0  0
   36.3620   30.1030   38.3750 N   0  0  0  0  0  0  0  0  0  0  0  0
   35.4620   29.1630   38.1790 C   0  0  0  0  0  0  0  0  0  0  0  0
   35.0440   28.4770   39.2290 N   0  0  0  0  0  0  0  0  0  0  0  0
   35.1710   28.1590   41.3160 H   0  0  0  0  0  0  0  0  0  0  0  0
   37.8720   31.4900   39.6150 C   0  0  0  0  0  0  0  0  0  0  0  0
   37.4110   32.7670   39.9200 C   0  0  0  0  0  0  0  0  0  0  0  0
   38.1970   33.8910   40.0140 C   0  0  0  0  0  0  0  0  0  0  0  0
   39.5380   33.8060   39.8040 C   0  0  0  0  0  0  0  0  0  0  0  0
   40.0720   32.5750   39.4970 C   0  0  0  0  0  0  0  0  0  0  0  0
   41.4100   32.4190   39.2710 C   0  0  0  0  0  0  0  0  0  0  0  0
   41.9790   31.2140   38.9630 C   0  0  0  0  0  0  0  0  0  0  0  0
   41.1200   30.1000   38.8820 C   0  0  0  0  0  0  0  0  0  0  0  0
   39.7800   30.2980   39.1150 C   0  0  0  0  0  0  0  0  0  0  0  0
   39.2280   31.4790   39.4150 C   0  0  0  0  0  0  0  0  0  0  0  0
   36.3500   32.9540   40.1090 H   0  0  0  0  0  0  0  0  0  0  0  0
   37.7990   34.8600   40.2520 H   0  0  0  0  0  0  0  0  0  0  0  0
   40.1720   34.6560   39.8690 H   0  0  0  0  0  0  0  0  0  0  0  0
   42.0280   33.2830   39.3400 H   0  0  0  0  0  0  0  0  0  0  0  0
   43.0460   31.1370   38.7930 H   0  0  0  0  0  0  0  0  0  0  0  0
   41.6060   29.1800   38.6400 H   0  0  0  0  0  0  0  0  0  0  0  0
   39.0530   29.0930   38.9930 N   0  0  0  0  0  0  0  0  0  0  0  0
   38.4840   28.5580   38.3270 H   0  0  0  0  0  0  0  0  0  0  0  0
   39.1790   28.6180   39.9360 H   0  0  0  0  0  0  0  0  0  0  0  0
   35.0260   29.0000   36.7570 C   0  0  0  0  0  0  0  0  0  0  0  0
   35.1160   27.7040   36.3530 F   0  0  0  0  0  0  0  0  0  0  0  0
   35.7600   29.8320   35.9290 F   0  0  0  0  0  0  0  0  0  0  0  0
   33.7050   29.4910   36.6300 F   0  0  0  0  0  0  0  0  0  0  0  0
   37.0510   30.0570   41.9530 C   0  0  0  0  0  0  0  0  0  0  0  0
   36.3590   30.7140   42.5410 H   0  0  0  0  0  0  0  0  0  0  0  0
   37.8990   30.6770   41.6970 H   0  0  0  0  0  0  0  0  0  0  0  0
   37.3820   28.9060   42.8190 C   0  0  0  0  0  0  0  0  0  0  0  0
   36.5610   28.2310   43.0490 H   0  0  0  0  0  0  0  0  0  0  0  0
   37.5660   29.3470   43.8480 H   0  0  0  0  0  0  0  0  0  0  0  0
   38.5500   28.0940   42.3850 C   0  0  0  0  0  0  0  0  0  0  0  0
   39.8240   28.4360   42.1540 N   0  0  0  0  0  0  0  0  0  0  0  0
   40.8250   27.6750   41.7800 C   0  0  0  0  0  3  0  0  0  0  0  0
   40.6310   26.3640   41.5810 N   0  0  0  0  0  0  0  0  0  0  0  0
   39.3850   25.8770   41.7780 C   0  0  0  0  0  0  0  0  0  0  0  0
   39.2470   24.5250   41.5500 C   0  0  0  0  0  3  0  0  0  0  0  0
   38.0010   23.9630   41.7240 C   0  0  0  0  0  0  0  0  0  0  0  0
   37.8830   22.9100   41.5500 H   0  0  0  0  0  0  0  0  0  0  0  0
   36.9410   24.7510   42.1140 C   0  0  0  0  0  0  0  0  0  0  0  0
   35.9850   24.2860   42.2410 H   0  0  0  0  0  0  0  0  0  0  0  0
   37.1700   26.0960   42.3200 C   0  0  0  0  0  3  0  0  0  0  0  0
   38.3820   26.7400   42.1700 C   0  0  0  0  0  0  0  0  0  0  0  0
  1  2  1  0  0  0  0
  1  7  1  0  0  0  0
  2 31  1  0  0  0  0
  3  8  1  0  0  0  0
  3  2  2  0  0  0  0
  4  3  1  0  0  0  0
  5  4  2  0  0  0  0
  5  6  1  0  0  0  0
  6  1  2  0  0  0  0
  8  9  1  0  0  0  0
  9 10  2  0  0  0  0
  9 18  1  0  0  0  0
 10 19  1  0  0  0  0
 11 20  1  0  0  0  0
 11 10  1  0  0  0  0
 12 11  2  0  0  0  0
 13 21  1  0  0  0  0
 13 12  1  0  0  0  0
 14 13  2  0  0  0  0
 15 14  1  0  0  0  0
 15 16  2  0  0  0  0
 16 17  1  0  0  0  0
 17 12  1  0  0  0  0
 17  8  2  0  0  0  0
 22 14  1  0  0  0  0
 23 15  1  0  0  0  0
 24 16  1  0  0  0  0
 24 26  1  0  0  0  0
 25 24  1  0  0  0  0
 27  5  1  0  0  0  0
 28 27  1  0  0  0  0
 29 27  1  0  0  0  0
 30 27  1  0  0  0  0
 31 32  1  0  0  0  0
 31 34  1  0  0  0  0
 33 31  1  0  0  0  0
 34 35  1  0  0  0  0
 34 36  1  0  0  0  0
 37 34  1  0  0  0  0
 38 37  2  0  0  0  0
 39 38  1  0  0  0  0
 40 41  1  0  0  0  0
 40 39  2  0  0  0  0
 41 48  1  0  0  0  0
 42 43  1  0  0  0  0
 42 41  2  0  0  0  0
 43 45  2  0  0  0  0
 44 43  1  0  0  0  0
 45 46  1  0  0  0  0
 45 47  1  0  0  0  0
 48 47  2  0  0  0  0
 48 37  1  0  0  0  0
M  END
>  <minimizedAffinity>
-6.78969622

$$$$

 OpenBabel03252500053D

 48 52  0  0  0  0  0  0  0  0999 V2000
   39.6140   30.0070   40.3410 C   0  0  0  0  0  0  0  0  0  0  0  0
   38.4840   29.4310   39.8110 C   0  0  0  0  0  0  0  0  0  0  0  0
   37.4160   30.2360   39.3780 C   0  0  0  0  0  0  0  0  0  0  0  0
   37.6320   31.5590   39.5410 N   0  0  0  0  0  0  0  0  0  0  0  0
   38.7110   32.1150   40.0480 C   0  0  0  0  0  0  0  0  0  0  0  0
   39.6910   31.3200   40.4420 N   0  0  0  0  0  0  0  0  0  0  0  0
   40.4020   29.3400   40.6580 H   0  0  0  0  0  0  0  0  0  0  0  0
   36.1980   29.7840   38.8090 C   0  0  0  0  0  0  0  0  0  0  0  0
   35.1430   29.5250   39.6780 C   0  0  0  0  0  0  0  0  0  0  0  0
   33.8970   29.0800   39.3020 C   0  0  0  0  0  0  0  0  0  0  0  0
   33.6190   28.8620   37.9890 C   0  0  0  0  0  0  0  0  0  0  0  0
   34.6120   29.0960   37.0650 C   0  0  0  0  0  0  0  0  0  0  0  0
   34.4010   28.8960   35.7300 C   0  0  0  0  0  0  0  0  0  0  0  0
   35.3620   29.1170   34.7820 C   0  0  0  0  0  0  0  0  0  0  0  0
   36.6170   29.5710   35.2310 C   0  0  0  0  0  0  0  0  0  0  0  0
   36.7900   29.7610   36.5830 C   0  0  0  0  0  0  0  0  0  0  0  0
   35.8480   29.5430   37.5060 C   0  0  0  0  0  0  0  0  0  0  0  0
   35.2530   29.6650   40.7580 H   0  0  0  0  0  0  0  0  0  0  0  0
   33.1100   28.8910   40.0070 H   0  0  0  0  0  0  0  0  0  0  0  0
   32.6680   28.5190   37.6650 H   0  0  0  0  0  0  0  0  0  0  0  0
   33.4410   28.5510   35.4270 H   0  0  0  0  0  0  0  0  0  0  0  0
   35.1490   28.9450   33.7330 H   0  0  0  0  0  0  0  0  0  0  0  0
   37.3360   29.7310   34.4590 H   0  0  0  0  0  0  0  0  0  0  0  0
   38.0960   30.2120   36.8750 N   0  0  0  0  0  0  0  0  0  0  0  0
   39.0180   29.8760   37.1750 H   0  0  0  0  0  0  0  0  0  0  0  0
   38.0530   31.2610   36.7020 H   0  0  0  0  0  0  0  0  0  0  0  0
   38.6770   33.6100   40.1060 C   0  0  0  0  0  0  0  0  0  0  0  0
   39.6970   34.1610   39.3950 F   0  0  0  0  0  0  0  0  0  0  0  0
   38.6960   34.0420   41.4210 F   0  0  0  0  0  0  0  0  0  0  0  0
   37.4180   34.0520   39.6330 F   0  0  0  0  0  0  0  0  0  0  0  0
   38.2490   27.9690   39.6450 C   0  0  0  0  0  0  0  0  0  0  0  0
   39.2160   27.4330   39.4610 H   0  0  0  0  0  0  0  0  0  0  0  0
   37.6850   27.8830   38.7260 H   0  0  0  0  0  0  0  0  0  0  0  0
   37.6150   27.3130   40.8080 C   0  0  0  0  0  0  0  0  0  0  0  0
   36.6500   27.7130   41.1130 H   0  0  0  0  0  0  0  0  0  0  0  0
   38.2430   27.6150   41.7030 H   0  0  0  0  0  0  0  0  0  0  0  0
   37.5040   25.8330   40.7240 C   0  0  0  0  0  0  0  0  0  0  0  0
   38.0380   24.8650   41.4810 N   0  0  0  0  0  0  0  0  0  0  0  0
   37.9000   23.5650   41.3710 C   0  0  0  0  0  3  0  0  0  0  0  0
   37.1360   23.0520   40.3960 N   0  0  0  0  0  0  0  0  0  0  0  0
   36.5320   23.9190   39.5520 C   0  0  0  0  0  0  0  0  0  0  0  0
   35.7680   23.3310   38.5680 C   0  0  0  0  0  3  0  0  0  0  0  0
   35.1280   24.1560   37.6670 C   0  0  0  0  0  0  0  0  0  0  0  0
   34.5290   23.7080   36.8960 H   0  0  0  0  0  0  0  0  0  0  0  0
   35.2670   25.5230   37.7680 C   0  0  0  0  0  0  0  0  0  0  0  0
   34.7590   26.1370   37.0540 H   0  0  0  0  0  0  0  0  0  0  0  0
   36.0520   26.0230   38.7860 C   0  0  0  0  0  3  0  0  0  0  0  0
   36.7250   25.2740   39.7300 C   0  0  0  0  0  0  0  0  0  0  0  0
  1  6  1  0  0  0  0
  1  7  1  0  0  0  0
  2  1  2  0  0  0  0
  3  4  2  0  0  0  0
  3  2  1  0  0  0  0
  4  5  1  0  0  0  0
  5 27  1  0  0  0  0
  5  6  2  0  0  0  0
  8  3  1  0  0  0  0
  8  9  1  0  0  0  0
  9 18  1  0  0  0  0
 10  9  2  0  0  0  0
 10 19  1  0  0  0  0
 11 10  1  0  0  0  0
 12 17  1  0  0  0  0
 12 11  2  0  0  0  0
 13 12  1  0  0  0  0
 14 15  1  0  0  0  0
 14 13  2  0  0  0  0
 15 16  2  0  0  0  0
 16 24  1  0  0  0  0
 16 17  1  0  0  0  0
 17  8  2  0  0  0  0
 20 11  1  0  0  0  0
 21 13  1  0  0  0  0
 22 14  1  0  0  0  0
 23 15  1  0  0  0  0
 24 25  1  0  0  0  0
 26 24  1  0  0  0  0
 27 29  1  0  0  0  0
 28 27  1  0  0  0  0
 30 27  1  0  0  0  0
 31  2  1  0  0  0  0
 31 34  1  0  0  0  0
 32 31  1  0  0  0  0
 33 31  1  0  0  0  0
 34 35  1  0  0  0  0
 34 36  1  0  0  0  0
 37 34  1  0  0  0  0
 37 38  1  0  0  0  0
 39 38  2  0  0  0  0
 40 39  1  0  0  0  0
 41 48  1  0  0  0  0
 41 40  2  0  0  0  0
 42 41  1  0  0  0  0
 43 45  1  0  0  0  0
 43 42  2  0  0  0  0
 44 43  1  0  0  0  0
 45 47  2  0  0  0  0
 46 45  1  0  0  0  0
 47 48  1  0  0  0  0
 48 37  2  0  0  0  0
M  END
>  <minimizedAffinity>
-6.71637106

$$$$

 OpenBabel03252500053D

 48 52  0  0  0  0  0  0  0  0999 V2000
   37.2220   30.0080   37.9210 C   0  0  0  0  0  0  0  0  0  0  0  0
   37.4990   29.2890   39.0600 C   0  0  0  0  0  0  0  0  0  0  0  0
   36.5430   28.4020   39.5840 C   0  0  0  0  0  0  0  0  0  0  0  0
   35.3970   28.3520   38.8710 N   0  0  0  0  0  0  0  0  0  0  0  0
   35.1290   29.0380   37.7810 C   0  0  0  0  0  0  0  0  0  0  0  0
   36.0560   29.8610   37.3220 N   0  0  0  0  0  0  0  0  0  0  0  0
   37.9930   30.6750   37.5620 H   0  0  0  0  0  0  0  0  0  0  0  0
   36.6900   27.5950   40.7420 C   0  0  0  0  0  0  0  0  0  0  0  0
   36.4190   28.1860   41.9720 C   0  0  0  0  0  0  0  0  0  0  0  0
   36.5110   27.5560   43.1910 C   0  0  0  0  0  0  0  0  0  0  0  0
   36.8910   26.2520   43.2580 C   0  0  0  0  0  0  0  0  0  0  0  0
   37.1770   25.5950   42.0810 C   0  0  0  0  0  0  0  0  0  0  0  0
   37.5660   24.2860   42.0770 C   0  0  0  0  0  0  0  0  0  0  0  0
   37.8590   23.6000   40.9300 C   0  0  0  0  0  0  0  0  0  0  0  0
   37.7450   24.3010   39.7130 C   0  0  0  0  0  0  0  0  0  0  0  0
   37.3510   25.6180   39.7610 C   0  0  0  0  0  0  0  0  0  0  0  0
   37.0660   26.2850   40.8840 C   0  0  0  0  0  0  0  0  0  0  0  0
   36.1050   29.2320   42.0390 H   0  0  0  0  0  0  0  0  0  0  0  0
   36.2930   28.0500   44.1190 H   0  0  0  0  0  0  0  0  0  0  0  0
   36.9720   25.7370   44.1830 H   0  0  0  0  0  0  0  0  0  0  0  0
   37.6420   23.7880   43.0140 H   0  0  0  0  0  0  0  0  0  0  0  0
   38.1630   22.5610   40.9740 H   0  0  0  0  0  0  0  0  0  0  0  0
   37.9820   23.7280   38.8450 H   0  0  0  0  0  0  0  0  0  0  0  0
   37.2890   26.1820   38.4670 N   0  0  0  0  0  0  0  0  0  0  0  0
   37.8330   26.7490   37.8080 H   0  0  0  0  0  0  0  0  0  0  0  0
   36.3390   25.8780   38.0980 H   0  0  0  0  0  0  0  0  0  0  0  0
   33.7740   28.7810   37.1980 C   0  0  0  0  0  0  0  0  0  0  0  0
   33.6460   29.3480   35.9690 F   0  0  0  0  0  0  0  0  0  0  0  0
   32.7860   29.2270   38.0590 F   0  0  0  0  0  0  0  0  0  0  0  0
   33.5620   27.3830   37.1480 F   0  0  0  0  0  0  0  0  0  0  0  0
   38.7610   29.3580   39.8470 C   0  0  0  0  0  0  0  0  0  0  0  0
   39.6490   29.3980   39.1640 H   0  0  0  0  0  0  0  0  0  0  0  0
   38.8230   28.4040   40.3540 H   0  0  0  0  0  0  0  0  0  0  0  0
   38.8630   30.5280   40.7440 C   0  0  0  0  0  0  0  0  0  0  0  0
   39.0060   30.3080   41.7990 H   0  0  0  0  0  0  0  0  0  0  0  0
   37.8200   30.9730   40.7770 H   0  0  0  0  0  0  0  0  0  0  0  0
   39.8550   31.5590   40.3400 C   0  0  0  0  0  0  0  0  0  0  0  0
   39.8990   32.3710   39.2750 N   0  0  0  0  0  0  0  0  0  0  0  0
   40.7980   33.2770   38.9690 C   0  0  0  0  0  3  0  0  0  0  0  0
   41.8460   33.4810   39.7790 N   0  0  0  0  0  0  0  0  0  0  0  0
   41.9310   32.7260   40.8970 C   0  0  0  0  0  0  0  0  0  0  0  0
   43.0340   32.9770   41.6840 C   0  0  0  0  0  3  0  0  0  0  0  0
   43.1880   32.2380   42.8370 C   0  0  0  0  0  0  0  0  0  0  0  0
   44.0440   32.4270   43.4580 H   0  0  0  0  0  0  0  0  0  0  0  0
   42.2540   31.2820   43.1700 C   0  0  0  0  0  0  0  0  0  0  0  0
   42.4010   30.7230   44.0710 H   0  0  0  0  0  0  0  0  0  0  0  0
   41.1810   31.0980   42.3230 C   0  0  0  0  0  3  0  0  0  0  0  0
   40.9470   31.7920   41.1530 C   0  0  0  0  0  0  0  0  0  0  0  0
  1  2  1  0  0  0  0
  2  3  2  0  0  0  0
  2 31  1  0  0  0  0
  3  8  1  0  0  0  0
  4  3  1  0  0  0  0
  5  4  2  0  0  0  0
  6  5  1  0  0  0  0
  6  1  2  0  0  0  0
  7  1  1  0  0  0  0
  8 17  2  0  0  0  0
  8  9  1  0  0  0  0
  9 18  1  0  0  0  0
  9 10  2  0  0  0  0
 10 11  1  0  0  0  0
 10 19  1  0  0  0  0
 11 20  1  0  0  0  0
 12 11  2  0  0  0  0
 13 12  1  0  0  0  0
 13 21  1  0  0  0  0
 14 22  1  0  0  0  0
 14 13  2  0  0  0  0
 15 16  2  0  0  0  0
 15 14  1  0  0  0  0
 16 17  1  0  0  0  0
 17 12  1  0  0  0  0
 23 15  1  0  0  0  0
 24 16  1  0  0  0  0
 25 24  1  0  0  0  0
 26 24  1  0  0  0  0
 27  5  1  0  0  0  0
 27 29  1  0  0  0  0
 28 27  1  0  0  0  0
 30 27  1  0  0  0  0
 31 33  1  0  0  0  0
 31 34  1  0  0  0  0
 32 31  1  0  0  0  0
 34 36  1  0  0  0  0
 34 35  1  0  0  0  0
 37 34  1  0  0  0  0
 37 48  1  0  0  0  0
 38 37  2  0  0  0  0
 39 38  1  0  0  0  0
 39 40  2  0  0  0  0
 40 41  1  0  0  0  0
 41 48  2  0  0  0  0
 41 42  1  0  0  0  0
 42 43  2  0  0  0  0
 43 45  1  0  0  0  0
 43 44  1  0  0  0  0
 45 46  1  0  0  0  0
 47 45  2  0  0  0  0
 48 47  1  0  0  0  0
M  END
>  <minimizedAffinity>
-6.71415138

$$$$

 OpenBabel03252500053D

 48 52  0  0  0  0  0  0  0  0999 V2000
   36.7950   28.8620   36.3060 C   0  0  0  0  0  0  0  0  0  0  0  0
   37.2470   28.5420   37.5650 C   0  0  0  0  0  0  0  0  0  0  0  0
   36.3330   28.3490   38.6150 C   0  0  0  0  0  0  0  0  0  0  0  0
   35.0420   28.5080   38.2510 N   0  0  0  0  0  0  0  0  0  0  0  0
   34.6060   28.8140   37.0480 C   0  0  0  0  0  0  0  0  0  0  0  0
   35.5000   28.9880   36.0890 N   0  0  0  0  0  0  0  0  0  0  0  0
   37.5420   28.9990   35.5380 H   0  0  0  0  0  0  0  0  0  0  0  0
   36.6510   28.0120   39.9560 C   0  0  0  0  0  0  0  0  0  0  0  0
   36.8930   29.0590   40.8390 C   0  0  0  0  0  0  0  0  0  0  0  0
   37.2150   28.9170   42.1680 C   0  0  0  0  0  0  0  0  0  0  0  0
   37.3180   27.6760   42.7160 C   0  0  0  0  0  0  0  0  0  0  0  0
   37.0930   26.5860   41.9060 C   0  0  0  0  0  0  0  0  0  0  0  0
   37.1820   25.3110   42.3910 C   0  0  0  0  0  0  0  0  0  0  0  0
   36.9660   24.2030   41.6170 C   0  0  0  0  0  0  0  0  0  0  0  0
   36.6400   24.4160   40.2640 C   0  0  0  0  0  0  0  0  0  0  0  0
   36.5600   25.7140   39.8140 C   0  0  0  0  0  0  0  0  0  0  0  0
   36.7720   26.7940   40.5730 C   0  0  0  0  0  0  0  0  0  0  0  0
   36.8380   30.1010   40.5090 H   0  0  0  0  0  0  0  0  0  0  0  0
   37.3940   29.7540   42.8170 H   0  0  0  0  0  0  0  0  0  0  0  0
   37.5650   27.5320   43.7380 H   0  0  0  0  0  0  0  0  0  0  0  0
   37.4310   25.1890   43.4170 H   0  0  0  0  0  0  0  0  0  0  0  0
   37.0470   23.2110   42.0450 H   0  0  0  0  0  0  0  0  0  0  0  0
   36.4790   23.5250   39.6990 H   0  0  0  0  0  0  0  0  0  0  0  0
   36.2300   25.7620   38.4420 N   0  0  0  0  0  0  0  0  0  0  0  0
   36.6540   25.8530   37.5130 H   0  0  0  0  0  0  0  0  0  0  0  0
   35.1710   25.6600   38.4270 H   0  0  0  0  0  0  0  0  0  0  0  0
   33.1180   28.9260   36.9310 C   0  0  0  0  0  0  0  0  0  0  0  0
   32.5520   29.3030   38.1090 F   0  0  0  0  0  0  0  0  0  0  0  0
   32.5790   27.7330   36.4790 F   0  0  0  0  0  0  0  0  0  0  0  0
   32.8130   29.8400   35.8950 F   0  0  0  0  0  0  0  0  0  0  0  0
   38.6730   28.3790   37.9620 C   0  0  0  0  0  0  0  0  0  0  0  0
   39.1370   27.5170   37.4170 H   0  0  0  0  0  0  0  0  0  0  0  0
   38.6380   28.0850   39.0020 H   0  0  0  0  0  0  0  0  0  0  0  0
   39.5230   29.5580   37.6950 C   0  0  0  0  0  0  0  0  0  0  0  0
   39.1480   30.2580   36.9520 H   0  0  0  0  0  0  0  0  0  0  0  0
   40.4300   29.1560   37.1430 H   0  0  0  0  0  0  0  0  0  0  0  0
   39.9440   30.3280   38.8960 C   0  0  0  0  0  0  0  0  0  0  0  0
   40.9790   30.1640   39.7300 N   0  0  0  0  0  0  0  0  0  0  0  0
   41.3140   30.8830   40.7750 C   0  0  0  0  0  3  0  0  0  0  0  0
   40.5720   31.9430   41.1250 N   0  0  0  0  0  0  0  0  0  0  0  0
   39.4890   32.2280   40.3670 C   0  0  0  0  0  0  0  0  0  0  0  0
   38.7640   33.3240   40.7810 C   0  0  0  0  0  3  0  0  0  0  0  0
   37.6410   33.6670   40.0590 C   0  0  0  0  0  0  0  0  0  0  0  0
   37.0690   34.5200   40.3720 H   0  0  0  0  0  0  0  0  0  0  0  0
   37.2760   32.9200   38.9600 C   0  0  0  0  0  0  0  0  0  0  0  0
   36.3990   33.2100   38.4190 H   0  0  0  0  0  0  0  0  0  0  0  0
   38.0620   31.8390   38.6180 C   0  0  0  0  0  3  0  0  0  0  0  0
   39.2000   31.4250   39.2820 C   0  0  0  0  0  0  0  0  0  0  0  0
  1  2  1  0  0  0  0
  2 31  1  0  0  0  0
  2  3  2  0  0  0  0
  3  8  1  0  0  0  0
  4  3  1  0  0  0  0
  5  4  2  0  0  0  0
  6  1  2  0  0  0  0
  6  5  1  0  0  0  0
  7  1  1  0  0  0  0
  8 17  2  0  0  0  0
  8  9  1  0  0  0  0
  9 10  2  0  0  0  0
 10 11  1  0  0  0  0
 10 19  1  0  0  0  0
 11 20  1  0  0  0  0
 12 13  1  0  0  0  0
 12 11  2  0  0  0  0
 13 21  1  0  0  0  0
 14 22  1  0  0  0  0
 14 13  2  0  0  0  0
 15 14  1  0  0  0  0
 16 15  2  0  0  0  0
 16 17  1  0  0  0  0
 17 12  1  0  0  0  0
 18  9  1  0  0  0  0
 23 15  1  0  0  0  0
 24 16  1  0  0  0  0
 25 24  1  0  0  0  0
 26 24  1  0  0  0  0
 27  5  1  0  0  0  0
 27 28  1  0  0  0  0
 29 27  1  0  0  0  0
 30 27  1  0  0  0  0
 31 33  1  0  0  0  0
 32 31  1  0  0  0  0
 34 31  1  0  0  0  0
 34 37  1  0  0  0  0
 35 34  1  0  0  0  0
 36 34  1  0  0  0  0
 37 48  2  0  0  0  0
 37 38  1  0  0  0  0
 38 39  2  0  0  0  0
 39 40  1  0  0  0  0
 41 42  1  0  0  0  0
 41 40  2  0  0  0  0
 43 44  1  0  0  0  0
 43 42  2  0  0  0  0
 45 43  1  0  0  0  0
 46 45  1  0  0  0  0
 47 45  2  0  0  0  0
 47 48  1  0  0  0  0
 48 41  1  0  0  0  0
M  END
>  <minimizedAffinity>
-6.71280909

$$$$

 OpenBabel03252500053D

 48 52  0  0  0  0  0  0  0  0999 V2000
   36.9810   30.2580   37.9660 C   0  0  0  0  0  0  0  0  0  0  0  0
   37.0110   29.3190   38.9700 C   0  0  0  0  0  0  0  0  0  0  0  0
   37.4690   29.6690   40.2510 C   0  0  0  0  0  0  0  0  0  0  0  0
   37.8490   30.9610   40.3590 N   0  0  0  0  0  0  0  0  0  0  0  0
   37.8220   31.8620   39.4010 C   0  0  0  0  0  0  0  0  0  0  0  0
   37.3840   31.4890   38.2110 N   0  0  0  0  0  0  0  0  0  0  0  0
   36.6200   29.9320   37.0010 H   0  0  0  0  0  0  0  0  0  0  0  0
   37.5500   28.8130   41.3790 C   0  0  0  0  0  0  0  0  0  0  0  0
   36.3600   28.4860   42.0210 C   0  0  0  0  0  0  0  0  0  0  0  0
   36.2530   27.6740   43.1260 C   0  0  0  0  0  0  0  0  0  0  0  0
   37.3660   27.1180   43.6750 C   0  0  0  0  0  0  0  0  0  0  0  0
   38.5840   27.3940   43.0960 C   0  0  0  0  0  0  0  0  0  0  0  0
   39.7420   26.8700   43.5980 C   0  0  0  0  0  0  0  0  0  0  0  0
   40.9720   27.1210   43.0520 C   0  0  0  0  0  0  0  0  0  0  0  0
   41.0150   27.9610   41.9220 C   0  0  0  0  0  0  0  0  0  0  0  0
   39.8270   28.4680   41.4470 C   0  0  0  0  0  0  0  0  0  0  0  0
   38.6280   28.2210   41.9840 C   0  0  0  0  0  0  0  0  0  0  0  0
   35.4010   28.8760   41.6660 H   0  0  0  0  0  0  0  0  0  0  0  0
   35.3120   27.4470   43.5910 H   0  0  0  0  0  0  0  0  0  0  0  0
   37.3170   26.4870   44.5270 H   0  0  0  0  0  0  0  0  0  0  0  0
   39.6720   26.2410   44.4530 H   0  0  0  0  0  0  0  0  0  0  0  0
   41.8640   26.6840   43.4830 H   0  0  0  0  0  0  0  0  0  0  0  0
   41.9920   28.1290   41.5280 H   0  0  0  0  0  0  0  0  0  0  0  0
   40.0350   29.2910   40.3180 N   0  0  0  0  0  0  0  0  0  0  0  0
   40.1420   30.2740   40.0450 H   0  0  0  0  0  0  0  0  0  0  0  0
   40.1030   28.6060   39.5070 H   0  0  0  0  0  0  0  0  0  0  0  0
   38.3030   33.2210   39.8060 C   0  0  0  0  0  0  0  0  0  0  0  0
   39.4590   33.5500   39.1710 F   0  0  0  0  0  0  0  0  0  0  0  0
   38.4530   33.2900   41.1810 F   0  0  0  0  0  0  0  0  0  0  0  0
   37.2800   34.1600   39.5390 F   0  0  0  0  0  0  0  0  0  0  0  0
   36.6000   27.8930   38.8400 C   0  0  0  0  0  0  0  0  0  0  0  0
   35.5610   27.8190   38.4260 H   0  0  0  0  0  0  0  0  0  0  0  0
   36.5380   27.5300   39.8570 H   0  0  0  0  0  0  0  0  0  0  0  0
   37.4670   27.0820   37.9600 C   0  0  0  0  0  0  0  0  0  0  0  0
   37.8600   27.5870   37.0810 H   0  0  0  0  0  0  0  0  0  0  0  0
   36.7740   26.3340   37.4620 H   0  0  0  0  0  0  0  0  0  0  0  0
   38.5880   26.3800   38.6400 C   0  0  0  0  0  0  0  0  0  0  0  0
   39.9100   26.4110   38.4210 N   0  0  0  0  0  0  0  0  0  0  0  0
   40.8640   25.7770   39.0610 C   0  0  0  0  0  3  0  0  0  0  0  0
   40.5610   24.9680   40.0850 N   0  0  0  0  0  0  0  0  0  0  0  0
   39.2570   24.8400   40.4180 C   0  0  0  0  0  0  0  0  0  0  0  0
   39.0090   23.9900   41.4740 C   0  0  0  0  0  3  0  0  0  0  0  0
   37.6990   23.8060   41.8630 C   0  0  0  0  0  0  0  0  0  0  0  0
   37.4950   23.1460   42.6850 H   0  0  0  0  0  0  0  0  0  0  0  0
   36.6870   24.4630   41.1990 C   0  0  0  0  0  0  0  0  0  0  0  0
   35.6800   24.3000   41.5230 H   0  0  0  0  0  0  0  0  0  0  0  0
   37.0280   25.2960   40.1530 C   0  0  0  0  0  3  0  0  0  0  0  0
   38.3080   25.5390   39.6990 C   0  0  0  0  0  0  0  0  0  0  0  0
  1  6  2  0  0  0  0
  1  2  1  0  0  0  0
  2  3  2  0  0  0  0
  3  4  1  0  0  0  0
  3  8  1  0  0  0  0
  5 27  1  0  0  0  0
  5  4  2  0  0  0  0
  6  5  1  0  0  0  0
  7  1  1  0  0  0  0
  8 17  2  0  0  0  0
  8  9  1  0  0  0  0
  9 10  2  0  0  0  0
 10 19  1  0  0  0  0
 10 11  1  0  0  0  0
 11 20  1  0  0  0  0
 12 13  1  0  0  0  0
 12 11  2  0  0  0  0
 13 21  1  0  0  0  0
 14 22  1  0  0  0  0
 14 13  2  0  0  0  0
 15 14  1  0  0  0  0
 16 15  2  0  0  0  0
 16 17  1  0  0  0  0
 17 12  1  0  0  0  0
 18  9  1  0  0  0  0
 23 15  1  0  0  0  0
 24 16  1  0  0  0  0
 25 24  1  0  0  0  0
 26 24  1  0  0  0  0
 27 29  1  0  0  0  0
 28 27  1  0  0  0  0
 30 27  1  0  0  0  0
 31  2  1  0  0  0  0
 31 33  1  0  0  0  0
 32 31  1  0  0  0  0
 34 37  1  0  0  0  0
 34 31  1  0  0  0  0
 35 34  1  0  0  0  0
 36 34  1  0  0  0  0
 37 48  1  0  0  0  0
 38 37  2  0  0  0  0
 38 39  1  0  0  0  0
 39 40  2  0  0  0  0
 40 41  1  0  0  0  0
 41 42  1  0  0  0  0
 42 43  2  0  0  0  0
 43 44  1  0  0  0  0
 45 46  1  0  0  0  0
 45 43  1  0  0  0  0
 47 45  2  0  0  0  0
 48 47  1  0  0  0  0
 48 41  2  0  0  0  0
M  END
>  <minimizedAffinity>
-6.65044403

$$$$
