REMARK  Name = 
REMARK  6 active torsions:
REMARK  status: ('A' for Active; 'I' for Inactive)
REMARK    1  A    between atoms: C_1  and  C_4
REMARK    2  A    between atoms: C_3  and  C_14
REMARK    3  A    between atoms: C_8  and  C_10
REMARK    4  A    between atoms: C_18  and  C_20
REMARK    5  A    between atoms: C_20  and  C_21
REMARK    6  A    between atoms: C_21  and  C_34
REMARK                            x       y       z     vdW  Elec       q    Type
REMARK                         _______ _______ _______ _____ _____    ______ ____
ROOT
ATOM      1  C   UNL     1      42.669  34.799  40.269  0.00  0.00    +0.000 A 
ATOM      2  C   UNL     1      42.496  35.200  38.968  0.00  0.00    +0.000 A 
ATOM      3  C   UNL     1      41.306  35.063  38.287  0.00  0.00    +0.000 A 
ATOM      4  N   UNL     1      40.275  34.502  38.956  0.00  0.00    +0.000 NA
ATOM      5  C   UNL     1      40.430  34.101  40.240  0.00  0.00    +0.000 A 
ATOM      6  N   UNL     1      41.597  34.243  40.891  0.00  0.00    +0.000 NA
ATOM      7  H   UNL     1      43.333  35.652  38.434  0.00  0.00    +0.000 HD
ATOM      8  H   UNL     1      41.223  35.396  37.261  0.00  0.00    +0.000 HD
ENDROOT
BRANCH   1  11
ATOM      9  C   UNL     1      43.969  34.655  42.374  0.00  0.00    +0.000 C 
ATOM     10  C   UNL     1      44.155  36.134  41.909  0.00  0.00    +0.000 C 
ATOM     11  C   UNL     1      44.001  34.943  40.970  0.00  0.00    +0.000 C 
ATOM     12  H   UNL     1      42.989  34.560  42.910  0.00  0.00    +0.000 HD
ATOM     13  H   UNL     1      45.193  36.533  41.958  0.00  0.00    +0.000 HD
ATOM     14  H   UNL     1      43.303  36.809  41.954  0.00  0.00    +0.000 HD
ATOM     15  H   UNL     1      44.821  34.756  40.268  0.00  0.00    +0.000 HD
BRANCH   9  16
ATOM     16  C   UNL     1      45.114  34.119  43.139  0.00  0.00    +0.000 A 
ATOM     17  C   UNL     1      46.358  34.052  42.489  0.00  0.00    +0.000 A 
ATOM     18  C   UNL     1      47.452  33.553  43.193  0.00  0.00    +0.000 A 
ATOM     19  N   UNL     1      47.260  33.158  44.471  0.00  0.00    +0.000 NA
ATOM     20  C   UNL     1      46.050  33.234  45.072  0.00  0.00    +0.000 A 
ATOM     21  N   UNL     1      45.023  33.717  44.369  0.00  0.00    +0.000 NA
ATOM     22  H   UNL     1      46.511  34.366  41.475  0.00  0.00    +0.000 HD
ATOM     23  H   UNL     1      48.429  33.484  42.732  0.00  0.00    +0.000 HD
BRANCH  20  24
ATOM     24  C   UNL     1      46.050  32.752  46.480  0.00  0.00    +0.000 C 
ATOM     25  F   UNL     1      45.087  33.396  47.234  0.00  0.00    +0.000 F 
ATOM     26  F   UNL     1      47.286  33.066  47.084  0.00  0.00    +0.000 F 
ATOM     27  F   UNL     1      45.950  31.389  46.515  0.00  0.00    +0.000 F 
ENDBRANCH  20  24
ENDBRANCH   9  16
ENDBRANCH   1  11
BRANCH   5  28
ATOM     28  C   UNL     1      39.323  33.457  41.011  0.00  0.00    +0.000 C 
ATOM     29  H   UNL     1      38.740  34.285  41.506  0.00  0.00    +0.000 HD
ATOM     30  H   UNL     1      39.682  32.832  41.823  0.00  0.00    +0.000 HD
BRANCH  28  31
ATOM     31  C   UNL     1      38.399  32.727  40.100  0.00  0.00    +0.000 C 
ATOM     32  H   UNL     1      38.973  31.971  39.506  0.00  0.00    +0.000 HD
ATOM     33  H   UNL     1      38.009  33.464  39.344  0.00  0.00    +0.000 HD
BRANCH  31  34
ATOM     34  C   UNL     1      37.270  32.042  40.767  0.00  0.00    +0.000 A 
ATOM     35  N   UNL     1      36.961  32.251  42.081  0.00  0.00    +0.000 NA
ATOM     36  C   UNL     1      35.938  31.604  42.675  0.00  0.00    +0.000 A 
ATOM     37  N   UNL     1      35.142  30.712  42.046  0.00  0.00    +0.000 NA
ATOM     38  C   UNL     1      35.414  30.477  40.744  0.00  0.00    +0.000 A 
ATOM     39  C   UNL     1      34.625  29.569  40.033  0.00  0.00    +0.000 A 
ATOM     40  C   UNL     1      34.851  29.293  38.704  0.00  0.00    +0.000 A 
ATOM     41  H   UNL     1      34.257  28.596  38.131  0.00  0.00    +0.000 HD
ATOM     42  C   UNL     1      35.888  29.943  38.085  0.00  0.00    +0.000 A 
ATOM     43  H   UNL     1      36.067  29.722  37.022  0.00  0.00    +0.000 HD
ATOM     44  C   UNL     1      36.666  30.839  38.788  0.00  0.00    +0.000 A 
ATOM     45  C   UNL     1      36.469  31.134  40.103  0.00  0.00    +0.000 A 
ENDBRANCH  31  34
ENDBRANCH  28  31
ENDBRANCH   5  28
TORSDOF 6
