REMARK  Name = 
REMARK  4 active torsions:
REMARK  status: ('A' for Active; 'I' for Inactive)
REMARK    1  A    between atoms: C_1  and  C_14
REMARK    2  A    between atoms: C_5  and  C_9
REMARK    3  A    between atoms: C_15  and  C_16
REMARK    4  A    between atoms: C_16  and  N_17
REMARK                            x       y       z     vdW  Elec       q    Type
REMARK                         _______ _______ _______ _____ _____    ______ ____
ROOT
ATOM      1  C   UNL     1      45.138  36.005  43.059  0.00  0.00    +0.000 A 
ATOM      2  C   UNL     1      44.141  35.801  42.088  0.00  0.00    +0.000 A 
ATOM      3  C   UNL     1      44.374  34.810  41.125  0.00  0.00    +0.000 A 
ATOM      4  N   UNL     1      45.534  34.104  41.172  0.00  0.00    +0.000 NA
ATOM      5  C   UNL     1      46.464  34.340  42.130  0.00  0.00    +0.000 A 
ATOM      6  N   UNL     1      46.259  35.282  43.057  0.00  0.00    +0.000 NA
ATOM      7  H   UNL     1      43.233  36.347  42.044  0.00  0.00    +0.000 HD
ATOM      8  H   UNL     1      43.652  34.596  40.346  0.00  0.00    +0.000 HD
ENDROOT
BRANCH   5  11
ATOM      9 CL   UNL     1      48.960  35.803  41.242  0.00  0.00    +0.000 Cl
ATOM     10  C   UNL     1      48.869  34.139  41.710  0.00  0.00    +0.000 A 
ATOM     11  C   UNL     1      47.699  33.524  42.105  0.00  0.00    +0.000 A 
ATOM     12  C   UNL     1      47.592  32.208  42.480  0.00  0.00    +0.000 A 
ATOM     13  C   UNL     1      48.754  31.483  42.447  0.00  0.00    +0.000 A 
ATOM     14  C   UNL     1      49.976  31.972  42.075  0.00  0.00    +0.000 A 
ATOM     15  C   UNL     1      49.988  33.321  41.709  0.00  0.00    +0.000 A 
ATOM     16  H   UNL     1      46.656  31.766  42.783  0.00  0.00    +0.000 HD
ATOM     17  H   UNL     1      48.754  30.421  42.732  0.00  0.00    +0.000 HD
ATOM     18  H   UNL     1      50.863  31.372  42.062  0.00  0.00    +0.000 HD
ATOM     19  H   UNL     1      50.931  33.751  41.409  0.00  0.00    +0.000 HD
ENDBRANCH   5  11
BRANCH   1  20
ATOM     20  C   UNL     1      44.911  37.040  44.077  0.00  0.00    +0.000 C 
ATOM     21  C   UNL     1      45.467  38.207  43.922  0.00  0.00    +0.000 C 
BRANCH  21  22
ATOM     22  C   UNL     1      45.261  39.281  44.923  0.00  0.00    +0.000 C 
ATOM     23  H   UNL     1      44.632  38.960  45.775  0.00  0.00    +0.000 HD
ATOM     24  H   UNL     1      46.288  39.544  45.313  0.00  0.00    +0.000 HD
BRANCH  22  25
ATOM     25  N   UNL     1      44.770  40.463  44.247  0.00  0.00    +0.000 N 
ATOM     26  H   UNL     1      44.632  40.421  43.223  0.00  0.00    +0.000 HD
ATOM     27  C   UNL     1      44.514  41.604  45.057  0.00  0.00    +0.000 A 
ATOM     28  N   UNL     1      45.504  42.365  45.545  0.00  0.00    +0.000 NA
ATOM     29  C   UNL     1      45.354  43.446  46.306  0.00  0.00    +0.000 A 
ATOM     30  N   UNL     1      44.117  43.822  46.623  0.00  0.00    +0.000 NA
ATOM     31  C   UNL     1      43.031  43.128  46.186  0.00  0.00    +0.000 A 
ATOM     32  C   UNL     1      41.779  43.576  46.554  0.00  0.00    +0.000 A 
ATOM     33  C   UNL     1      40.730  42.822  46.076  0.00  0.00    +0.000 A 
ATOM     34  H   UNL     1      39.726  43.147  46.348  0.00  0.00    +0.000 HD
ATOM     35  C   UNL     1      40.852  41.703  45.289  0.00  0.00    +0.000 A 
ATOM     36  H   UNL     1      39.990  41.142  44.937  0.00  0.00    +0.000 HD
ATOM     37  C   UNL     1      42.146  41.322  44.966  0.00  0.00    +0.000 A 
ATOM     38  C   UNL     1      43.246  42.016  45.401  0.00  0.00    +0.000 A 
ENDBRANCH  22  25
ENDBRANCH  21  22
ENDBRANCH   1  20
TORSDOF 4
