
     RDKit          3D

 28 30  0  0  0  0  0  0  0  0999 V2000
   44.5072   36.0007   44.5249 C   0  0  0  0  0  0  0  0  0  0  0  0
   45.2101   35.8759   43.3177 C   0  0  0  0  0  0  0  0  0  0  0  0
   46.1257   34.8169   43.1774 C   0  0  0  0  0  0  0  0  0  0  0  0
   46.2958   33.9510   44.2194 N   0  0  0  0  0  0  0  0  0  0  0  0
   45.5874   34.1106   45.3809 C   0  0  0  0  0  0  0  0  0  0  0  0
   44.7208   35.1157   45.5102 N   0  0  0  0  0  0  0  0  0  0  0  0
   45.8714   33.1010   46.4234 C   0  0  0  0  0  0  0  0  0  0  0  0
   46.5046   31.6082   45.5911 S   0  0  0  0  0  0  0  0  0  0  0  0
   43.8150   36.8228   44.5980 H   0  0  0  0  0  0  0  0  0  0  0  0
   45.1184   36.5248   42.4633 H   0  0  0  0  0  0  0  0  0  0  0  0
   46.7023   34.6471   42.2939 H   0  0  0  0  0  0  0  0  0  0  0  0
   46.6038   33.4738   47.1749 H   0  0  0  0  0  0  0  0  0  0  0  0
   44.9391   32.8868   46.9753 H   0  0  0  0  0  0  0  0  0  0  0  0
   45.2011   30.9034   44.5967 C   0  0  0  0  0  0  0  0  0  0  0  0
   43.9157   30.7288   44.9898 N   0  0  0  0  0  0  0  0  0  0  0  0
   43.0235   30.1793   44.1431 C   0  0  0  0  0  0  0  0  0  0  0  0
   43.3745   29.7880   42.8883 N   0  0  0  0  0  0  0  0  0  0  0  0
   44.6526   29.9397   42.4409 C   0  0  0  0  0  0  0  0  0  0  0  0
   44.9614   29.5268   41.1615 C   0  0  0  0  0  0  0  0  0  0  0  0
   46.2818   29.6955   40.7336 C   0  0  0  0  0  0  0  0  0  0  0  0
   46.6424   29.4116   39.7574 H   0  0  0  0  0  0  0  0  0  0  0  0
   47.2143   30.2539   41.5770 C   0  0  0  0  0  0  0  0  0  0  0  0
   48.2599   30.4057   41.2847 H   0  0  0  0  0  0  0  0  0  0  0  0
   46.8424   30.6474   42.8473 C   0  0  0  0  0  0  0  0  0  0  0  0
   45.5474   30.5037   43.3238 C   0  0  0  0  0  0  0  0  0  0  0  0
   41.9869   30.0486   44.4854 H   0  0  0  0  0  0  0  0  0  0  0  0
   44.2491   29.0853   40.4816 H   0  0  0  0  0  0  0  0  0  0  0  0
   47.5871   31.0827   43.4955 H   0  0  0  0  0  0  0  0  0  0  0  0
  1  6  2  0
  2  1  1  0
  3  2  2  0
  3  4  1  0
  4  5  2  0
  5  6  1  0
  5  7  1  0
  8  7  1  0
  1  9  1  0
  2 10  1  0
  3 11  1  0
  7 12  1  0
  7 13  1  0
 14 15  2  0
 15 16  1  0
 16 17  2  0
 17 18  1  0
 18 19  2  0
 19 20  1  0
 20 21  1  0
 20 22  2  0
 22 23  1  0
 22 24  1  0
 24 25  2  0
 25 14  1  0
 25 18  1  0
 16 26  1  0
 19 27  1  0
 24 28  1  0
  8 14  1  0
M  ISO  7   9  14  10  14  11  14  12   8  13   8  21  16  23  16
M  END
>  <DihAtoms>  (1) 
6,7,13,14

>  <DihDeg>  (1) 
0.10962892898769254

$$$$
