
 OpenBabel03252505433D

 45 49  0  0  1  0  0  0  0  0999 V2000
   42.8610   34.7990   40.3960 C   0  0  0  0  0  0  0  0  0  0  0  0
   42.7330   35.1530   39.0760 C   0  0  0  0  0  0  0  0  0  0  0  0
   41.5550   35.0290   38.3710 C   0  0  0  0  0  0  0  0  0  0  0  0
   40.4900   34.5300   39.0350 N   0  0  0  0  0  0  0  0  0  0  0  0
   40.6000   34.1770   40.3380 C   0  0  0  0  0  0  0  0  0  0  0  0
   41.7550   34.3050   41.0120 N   0  0  0  0  0  0  0  0  0  0  0  0
   43.5980   35.5540   38.5460 H   0  0  0  0  0  0  0  0  0  0  0  0
   41.5090   35.3220   37.3310 H   0  0  0  0  0  0  0  0  0  0  0  0
   44.1220   34.6050   42.5200 C   0  0  1  0  0  0  0  0  0  0  0  0
   44.3160   36.0940   42.0940 C   0  0  0  0  0  0  0  0  0  0  0  0
   44.1800   34.9260   41.1240 C   0  0  2  0  0  0  0  0  0  0  0  0
   43.1330   34.4970   43.0350 H   0  0  0  0  0  0  0  0  0  0  0  0
   45.3530   36.4920   42.1710 H   0  0  0  0  0  0  0  0  0  0  0  0
   43.4630   36.7680   42.1390 H   0  0  0  0  0  0  0  0  0  0  0  0
   45.0120   34.7560   40.4320 H   0  0  0  0  0  0  0  0  0  0  0  0
   45.2540   34.0500   43.2920 C   0  0  0  0  0  0  0  0  0  0  0  0
   46.5010   33.9660   42.6510 C   0  0  0  0  0  0  0  0  0  0  0  0
   47.5820   33.4500   43.3630 C   0  0  0  0  0  0  0  0  0  0  0  0
   47.3750   33.0560   44.6390 N   0  0  0  0  0  0  0  0  0  0  0  0
   46.1620   33.1480   45.2310 C   0  0  0  0  0  0  0  0  0  0  0  0
   45.1470   33.6480   44.5210 N   0  0  0  0  0  0  0  0  0  0  0  0
   46.6670   34.2800   41.6390 H   0  0  0  0  0  0  0  0  0  0  0  0
   48.5620   33.3670   42.9090 H   0  0  0  0  0  0  0  0  0  0  0  0
   46.1440   32.6640   46.6380 C   0  0  0  0  0  0  0  0  0  0  0  0
   45.1550   33.2880   47.3740 F   0  0  0  0  0  0  0  0  0  0  0  0
   47.3620   33.0000   47.2660 F   0  0  0  0  0  0  0  0  0  0  0  0
   46.0690   31.2990   46.6690 F   0  0  0  0  0  0  0  0  0  0  0  0
   39.4530   33.6020   41.1050 C   0  0  0  0  0  0  0  0  0  0  0  0
   39.0410   34.4290   41.7510 H   0  0  0  0  0  0  0  0  0  0  0  0
   39.7560   32.8210   41.7950 H   0  0  0  0  0  0  0  0  0  0  0  0
   38.3710   33.1570   40.1850 C   0  0  0  0  0  0  0  0  0  0  0  0
   38.6150   33.4670   39.1370 H   0  0  0  0  0  0  0  0  0  0  0  0
   37.4370   33.7250   40.4530 H   0  0  0  0  0  0  0  0  0  0  0  0
   38.0980   31.7030   40.1930 C   0  0  0  0  0  0  0  0  0  0  0  0
   37.7010   31.0400   41.3200 N   0  0  0  0  0  0  0  0  0  0  0  0
   37.4730   29.7110   41.3090 C   0  0  0  0  0  0  0  0  0  0  0  0
   37.6110   28.9290   40.2170 N   0  0  0  0  0  0  0  0  0  0  0  0
   38.0020   29.5470   39.0820 C   0  0  0  0  0  0  0  0  0  0  0  0
   38.1590   28.7960   37.9140 C   0  0  0  0  0  0  0  0  0  0  0  0
   38.5490   29.3700   36.7260 C   0  0  0  0  0  0  0  0  0  0  0  0
   38.6790   28.8140   35.8090 H   0  0  0  0  0  0  0  0  0  0  0  0
   38.7850   30.7220   36.7180 C   0  0  0  0  0  0  0  0  0  0  0  0
   39.0970   31.1800   35.7680 H   0  0  0  0  0  0  0  0  0  0  0  0
   38.6310   31.4620   37.8720 C   0  0  0  0  0  0  0  0  0  0  0  0
   38.2460   30.9230   39.0630 C   0  0  0  0  0  0  0  0  0  0  0  0
  1  6  1  0  0  0  0
  1 11  1  0  0  0  0
  2  1  2  0  0  0  0
  3  4  2  0  0  0  0
  3  2  1  0  0  0  0
  4  5  1  0  0  0  0
  5  6  2  0  0  0  0
  5 28  1  0  0  0  0
  7  2  1  0  0  0  0
  8  3  1  0  0  0  0
  9 12  1  1  0  0  0
  9 16  1  0  0  0  0
 10 14  1  0  0  0  0
 10 13  1  0  0  0  0
 10  9  1  0  0  0  0
 11 15  1  6  0  0  0
 11 10  1  0  0  0  0
 11  9  1  0  0  0  0
 16 21  1  0  0  0  0
 17 16  2  0  0  0  0
 17 18  1  0  0  0  0
 18 19  2  0  0  0  0
 19 20  1  0  0  0  0
 20 24  1  0  0  0  0
 21 20  2  0  0  0  0
 22 17  1  0  0  0  0
 23 18  1  0  0  0  0
 24 27  1  0  0  0  0
 24 26  1  0  0  0  0
 24 25  1  0  0  0  0
 28 29  1  0  0  0  0
 28 30  1  0  0  0  0
 31 34  1  0  0  0  0
 31 33  1  0  0  0  0
 31 28  1  0  0  0  0
 32 31  1  0  0  0  0
 34 35  1  0  0  0  0
 36 35  2  0  0  0  0
 37 36  1  0  0  0  0
 38 37  2  0  0  0  0
 39 38  1  0  0  0  0
 40 39  2  0  0  0  0
 41 40  1  0  0  0  0
 42 40  1  0  0  0  0
 42 44  2  0  0  0  0
 43 42  1  0  0  0  0
 44 45  1  0  0  0  0
 45 38  1  0  0  0  0
 45 34  2  0  0  0  0
M  END
>  <minimizedAffinity>
-6.60180473

>  <minimizedRMSD>
1.69903958

$$$$
