
 OpenBabel03242512273D

 25 27  0  0  1  0  0  0  0  0999 V2000
   45.8990   32.2280   45.0740 C   0  0  1  0  0  0  0  0  0  0  0  0
   45.5730   31.2740   44.2480 O   0  0  0  0  0  0  0  0  0  0  0  0
   45.9680   33.4290   44.2680 C   0  0  0  0  0  0  0  0  0  0  0  0
   44.9280   34.2710   44.2630 N   0  0  0  0  0  0  0  0  0  0  0  0
   44.9130   35.4250   43.5270 C   0  0  0  0  0  0  0  0  0  0  0  0
   45.9540   35.7830   42.7570 N   0  0  0  0  0  0  0  0  0  0  0  0
   47.0550   34.9890   42.6950 C   0  0  0  0  0  0  0  0  0  0  0  0
   48.1270   35.3090   41.9000 C   0  0  0  0  0  0  0  0  0  0  0  0
   49.2300   34.4910   41.8190 C   0  0  0  0  0  0  0  0  0  0  0  0
   50.0300   34.7950   41.1850 H   0  0  0  0  0  0  0  0  0  0  0  0
   49.2070   33.3210   42.5780 C   0  0  0  0  0  0  0  0  0  0  0  0
   50.0800   32.6940   42.4990 H   0  0  0  0  0  0  0  0  0  0  0  0
   48.1110   33.0480   43.3560 C   0  0  0  0  0  0  0  0  0  0  0  0
   46.9970   33.8470   43.4600 C   0  0  0  0  0  0  0  0  0  0  0  0
   47.1630   30.4670   47.9630 C   0  0  0  0  0  0  0  0  0  0  0  0
   46.6510   31.1970   49.0660 C   0  0  0  0  0  0  0  0  0  0  0  0
   45.8490   32.3180   48.8180 C   0  0  0  0  0  0  0  0  0  0  0  0
   45.6100   32.6410   47.5440 N   0  0  0  0  0  0  0  0  0  0  0  0
   46.1030   31.9410   46.4930 C   0  0  0  0  0  0  0  0  0  0  0  0
   46.8720   30.8660   46.7030 N   0  0  0  0  0  0  0  0  0  0  0  0
   47.9650   29.3330   48.2290 N   0  0  0  0  0  0  0  0  0  0  0  0
   46.8480   30.9300   50.0740 H   0  0  0  0  0  0  0  0  0  0  0  0
   45.4210   32.9260   49.6010 H   0  0  0  0  0  0  0  0  0  0  0  0
   48.9450   29.1410   47.9260 H   0  0  0  0  0  0  0  0  0  0  0  0
   47.7520   28.4680   48.7710 H   0  0  0  0  0  0  0  0  0  0  0  0
  1  2  1  1  0  0  0
  1 19  1  0  0  0  0
  3  1  1  0  0  0  0
  4  3  1  0  0  0  0
  5  4  2  0  0  0  0
  6  5  1  0  0  0  0
  7  6  2  0  0  0  0
  7 14  1  0  0  0  0
  8  7  1  0  0  0  0
  9  8  2  0  0  0  0
  9 11  1  0  0  0  0
 10  9  1  0  0  0  0
 11 13  2  0  0  0  0
 12 11  1  0  0  0  0
 13 14  1  0  0  0  0
 14  3  2  0  0  0  0
 15 21  1  0  0  0  0
 15 16  1  0  0  0  0
 16 22  1  0  0  0  0
 17 16  2  0  0  0  0
 17 23  1  0  0  0  0
 18 17  1  0  0  0  0
 19 20  1  0  0  0  0
 19 18  2  0  0  0  0
 20 15  2  0  0  0  0
 21 25  1  0  0  0  0
 24 21  1  0  0  0  0
M  END
>  <minimizedAffinity>
-5.50971889

>  <minimizedRMSD>
6.51730108

$$$$
