
     RDKit          3D

 30 32  0  0  0  0  0  0  0  0999 V2000
   45.2959   34.5693   45.0247 C   0  0  0  0  0  0  0  0  0  0  0  0
   45.2639   33.9364   46.2754 C   0  0  0  0  0  0  0  0  0  0  0  0
   46.1645   32.9083   46.4768 C   0  0  0  0  0  0  0  0  0  0  0  0
   46.9972   32.5882   45.4778 N   0  0  0  0  0  0  0  0  0  0  0  0
   47.0198   33.2029   44.2784 C   0  0  0  0  0  0  0  0  0  0  0  0
   46.1608   34.2078   44.0411 N   0  0  0  0  0  0  0  0  0  0  0  0
   43.9729   35.3896   43.3197 C   0  0  0  0  0  0  0  0  0  0  0  0
   44.4124   34.2708   42.8300 O   0  0  0  0  0  0  0  0  0  0  0  0
   44.4597   35.6536   44.6124 N   0  0  0  0  0  0  0  0  0  0  0  0
   44.3069   34.4240   47.1927 N   0  0  0  0  0  0  0  0  0  0  0  0
   46.1270   32.4311   47.4457 H   0  0  0  0  0  0  0  0  0  0  0  0
   47.7010   32.9228   43.4951 H   0  0  0  0  0  0  0  0  0  0  0  0
   44.0241   36.5412   44.7744 H   0  0  0  0  0  0  0  0  0  0  0  0
   44.1947   35.3730   47.6248 H   0  0  0  0  0  0  0  0  0  0  0  0
   43.6768   33.6273   47.3899 H   0  0  0  0  0  0  0  0  0  0  0  0
   43.2230   35.6370   42.1267 C   0  0  0  0  0  0  0  0  0  0  0  0
   42.0201   36.0387   42.5726 N   0  0  0  0  0  0  0  0  0  0  0  0
   41.0240   36.3690   41.6977 C   0  0  0  0  0  0  0  0  0  0  0  0
   41.3165   36.2692   40.4036 N   0  0  0  0  0  0  0  0  0  0  0  0
   42.4959   35.8753   39.9158 C   0  0  0  0  0  0  0  0  0  0  0  0
   42.8126   35.7674   38.5667 C   0  0  0  0  0  0  0  0  0  0  0  0
   44.0847   35.3428   38.1693 C   0  0  0  0  0  0  0  0  0  0  0  0
   44.2793   35.2761   37.0995 H   0  0  0  0  0  0  0  0  0  0  0  0
   45.0316   35.0291   39.1518 C   0  0  0  0  0  0  0  0  0  0  0  0
   45.9689   34.7160   38.7135 H   0  0  0  0  0  0  0  0  0  0  0  0
   44.7412   35.1282   40.4942 C   0  0  0  0  0  0  0  0  0  0  0  0
   43.4782   35.5496   40.8022 C   0  0  0  0  0  0  0  0  0  0  0  0
   40.0544   36.6928   42.0551 H   0  0  0  0  0  0  0  0  0  0  0  0
   42.0370   36.0246   37.8571 H   0  0  0  0  0  0  0  0  0  0  0  0
   45.6003   34.8432   41.0579 H   0  0  0  0  0  0  0  0  0  0  0  0
  1  2  2  0
  2  3  1  0
  2 10  1  0
  4  3  2  0
  5  4  1  0
  6  5  2  0
  6  1  1  0
  7  9  1  0
  8  7  2  0
  9  1  1  0
  3 11  1  0
  5 12  1  0
  9 13  1  0
 10 14  1  0
 10 15  1  0
 16 17  2  0
 17 18  1  0
 18 19  2  0
 19 20  1  0
 20 21  2  0
 21 22  1  0
 22 23  1  0
 22 24  2  0
 24 25  1  0
 24 26  1  0
 26 27  2  0
 27 16  1  0
 27 20  1  0
 18 28  1  0
 21 29  1  0
 26 30  1  0
  7 16  1  0
M  ISO  4  11  14  12  14  23  16  25  16
M  END
>  <DihAtoms>  (1) 
8,6,15,16

>  <DihDeg>  (1) 
179.75570661599892

$$$$
