
 OpenBabel03252506463D

 45 49  0  0  1  0  0  0  0  0999 V2000
   49.7410   33.5890   41.5160 N   0  0  1  0  0  0  0  0  0  0  0  0
   50.7510   33.0270   42.3760 C   0  0  0  0  0  0  0  0  0  0  0  0
   51.2970   31.7070   41.9240 C   0  0  0  0  0  0  0  0  0  0  0  0
   50.1890   30.6770   41.9890 C   0  0  0  0  0  0  0  0  0  0  0  0
   48.8650   31.2830   41.6280 C   0  0  0  0  0  0  0  0  0  0  0  0
   49.0930   32.5180   40.7930 C   0  0  2  0  0  0  0  0  0  0  0  0
   50.3450   32.8740   43.3990 H   0  0  0  0  0  0  0  0  0  0  0  0
   51.5460   33.7880   42.4670 H   0  0  0  0  0  0  0  0  0  0  0  0
   52.0950   31.4490   42.6850 H   0  0  0  0  0  0  0  0  0  0  0  0
   51.8300   31.7100   40.9710 H   0  0  0  0  0  0  0  0  0  0  0  0
   50.4260   29.7580   41.4400 H   0  0  0  0  0  0  0  0  0  0  0  0
   50.1080   30.3910   43.0750 H   0  0  0  0  0  0  0  0  0  0  0  0
   48.2020   30.6110   41.0730 H   0  0  0  0  0  0  0  0  0  0  0  0
   48.2910   31.6130   42.5240 H   0  0  0  0  0  0  0  0  0  0  0  0
   48.0790   32.8890   40.5300 H   0  0  0  0  0  0  0  0  0  0  0  0
   49.7330   32.1770   39.5530 N   0  0  0  0  0  0  0  0  0  0  0  0
   50.6910   31.8100   39.7100 H   0  0  0  0  0  0  0  0  0  0  0  0
   49.2250   32.3040   38.2400 C   0  0  0  0  0  0  0  0  0  0  0  0
   48.8550   33.4580   37.6740 N   0  0  0  0  0  0  0  0  0  0  0  0
   48.3810   33.6390   36.4530 C   0  0  0  0  0  3  0  0  0  0  0  0
   48.2430   32.5590   35.6660 N   0  0  0  0  0  0  0  0  0  0  0  0
   48.5810   31.3420   36.1190 C   0  0  0  0  0  0  0  0  0  0  0  0
   48.4320   30.2610   35.2970 C   0  0  0  0  0  3  0  0  0  0  0  0
   48.7580   28.9840   35.6980 C   0  0  0  0  0  0  0  0  0  0  0  0
   48.6150   28.1850   35.0030 H   0  0  0  0  0  0  0  0  0  0  0  0
   49.2500   28.8500   36.9850 C   0  0  0  0  0  0  0  0  0  0  0  0
   49.5020   27.8440   37.2870 H   0  0  0  0  0  0  0  0  0  0  0  0
   49.3890   29.9510   37.7880 C   0  0  0  0  0  3  0  0  0  0  0  0
   49.0680   31.2260   37.3980 C   0  0  0  0  0  0  0  0  0  0  0  0
   47.4550   34.6760   41.9680 C   0  0  1  0  0  0  0  0  0  0  0  0
   48.4940   35.7090   41.7430 C   0  0  0  0  0  0  0  0  0  0  0  0
   48.8770   34.3920   42.2870 C   0  0  2  0  0  0  0  0  0  0  0  0
   46.9630   34.2990   41.0430 H   0  0  0  0  0  0  0  0  0  0  0  0
   48.5550   36.5720   42.4340 H   0  0  0  0  0  0  0  0  0  0  0  0
   48.8030   35.9840   40.7040 H   0  0  0  0  0  0  0  0  0  0  0  0
   49.0800   34.3350   43.4000 H   0  0  0  0  0  0  0  0  0  0  0  0
   45.6180   35.9720   43.0840 C   0  0  0  0  0  0  0  0  0  0  0  0
   46.4870   34.8710   43.0660 C   0  0  0  0  0  0  0  0  0  0  0  0
   46.3940   33.9420   44.1280 C   0  0  0  0  0  0  0  0  0  0  0  0
   45.4770   34.1660   45.0970 N   0  0  0  0  0  0  0  0  0  0  0  0
   44.6520   35.2310   45.0930 C   0  0  0  0  0  0  0  0  0  0  0  0
   44.7150   36.1510   44.0800 N   0  0  0  0  0  0  0  0  0  0  0  0
   45.6910   36.6810   42.2700 H   0  0  0  0  0  0  0  0  0  0  0  0
   47.0490   33.0810   44.1460 H   0  0  0  0  0  0  0  0  0  0  0  0
   43.9690   35.2830   45.9310 H   0  0  0  0  0  0  0  0  0  0  0  0
  1 32  1  0  0  0  0
  1  2  1  1  0  0  0
  2  8  1  0  0  0  0
  2  7  1  0  0  0  0
  3  4  1  0  0  0  0
  3  2  1  0  0  0  0
  3  9  1  0  0  0  0
  4 12  1  0  0  0  0
  5  4  1  0  0  0  0
  5 14  1  0  0  0  0
  6 15  1  6  0  0  0
  6  1  1  0  0  0  0
  6  5  1  0  0  0  0
 10  3  1  0  0  0  0
 11  4  1  0  0  0  0
 13  5  1  0  0  0  0
 16 17  1  0  0  0  0
 16  6  1  0  0  0  0
 18 16  1  0  0  0  0
 19 18  1  0  0  0  0
 20 19  2  0  0  0  0
 21 22  2  0  0  0  0
 21 20  1  0  0  0  0
 22 29  1  0  0  0  0
 23 24  2  0  0  0  0
 23 22  1  0  0  0  0
 24 26  1  0  0  0  0
 25 24  1  0  0  0  0
 26 27  1  0  0  0  0
 26 28  2  0  0  0  0
 29 28  1  0  0  0  0
 29 18  2  0  0  0  0
 30 33  1  6  0  0  0
 30 32  1  0  0  0  0
 30 38  1  0  0  0  0
 31 30  1  0  0  0  0
 31 32  1  0  0  0  0
 31 34  1  0  0  0  0
 32 36  1  1  0  0  0
 35 31  1  0  0  0  0
 37 42  1  0  0  0  0
 38 37  2  0  0  0  0
 38 39  1  0  0  0  0
 39 44  1  0  0  0  0
 39 40  2  0  0  0  0
 41 40  1  0  0  0  0
 41 45  1  0  0  0  0
 42 41  2  0  0  0  0
 43 37  1  0  0  0  0
M  END
>  <minimizedAffinity>
-5.6892786

>  <minimizedRMSD>
2.79862928

$$$$
