
 OpenBabel03252503273D

 28 30  0  0  0  0  0  0  0  0999 V2000
   47.2370   31.2940   40.6250 C   0  0  0  0  0  0  0  0  0  0  0  0
   48.3660   31.1480   39.7880 C   0  0  0  0  0  0  0  0  0  0  0  0
   49.5520   30.7820   40.4580 C   0  0  0  0  0  0  0  0  0  0  0  0
   49.5130   30.6090   41.8010 N   0  0  0  0  0  0  0  0  0  0  0  0
   48.3880   30.7680   42.5430 C   0  0  0  0  0  0  0  0  0  0  0  0
   47.2420   31.1140   41.9470 N   0  0  0  0  0  0  0  0  0  0  0  0
   45.3610   30.5800   39.3470 C   0  0  0  0  0  0  0  0  0  0  0  0
   45.9960   29.4960   39.3420 O   0  0  0  0  0  0  0  0  0  0  0  0
   45.9800   31.6450   40.0400 N   0  0  0  0  0  0  0  0  0  0  0  0
   48.3130   31.3040   38.7350 H   0  0  0  0  0  0  0  0  0  0  0  0
   48.5110   30.5950   43.6040 H   0  0  0  0  0  0  0  0  0  0  0  0
   45.6120   32.5900   40.1460 H   0  0  0  0  0  0  0  0  0  0  0  0
   44.0620   31.0000   38.7640 C   0  0  0  0  0  0  0  0  0  0  0  0
   43.2920   31.9880   39.2600 N   0  0  0  0  0  0  0  0  0  0  0  0
   42.1340   32.3620   38.7400 C   0  0  0  0  0  3  0  0  0  0  0  0
   41.6240   31.7780   37.6630 N   0  0  0  0  0  0  0  0  0  0  0  0
   42.3200   30.7700   37.0840 C   0  0  0  0  0  0  0  0  0  0  0  0
   41.7900   30.1700   35.9690 C   0  0  0  0  0  3  0  0  0  0  0  0
   42.4450   29.1510   35.3470 C   0  0  0  0  0  0  0  0  0  0  0  0
   41.9550   28.7390   34.4780 H   0  0  0  0  0  0  0  0  0  0  0  0
   43.6590   28.7540   35.8840 C   0  0  0  0  0  0  0  0  0  0  0  0
   44.1600   27.9390   35.3660 H   0  0  0  0  0  0  0  0  0  0  0  0
   44.1530   29.3850   37.0040 C   0  0  0  0  0  3  0  0  0  0  0  0
   43.5220   30.4070   37.6500 C   0  0  0  0  0  0  0  0  0  0  0  0
   50.7210   30.6290   39.5900 C   0  0  0  0  0  0  0  0  0  0  0  0
   51.8300   30.3090   40.3900 F   0  0  0  0  0  0  0  0  0  0  0  0
   50.9850   31.8670   39.0510 F   0  0  0  0  0  0  0  0  0  0  0  0
   50.5920   29.6240   38.6710 F   0  0  0  0  0  0  0  0  0  0  0  0
  1  6  1  0  0  0  0
  2  3  1  0  0  0  0
  2  1  2  0  0  0  0
  3  4  2  0  0  0  0
  4  5  1  0  0  0  0
  5 11  1  0  0  0  0
  6  5  2  0  0  0  0
  7  9  1  0  0  0  0
  8  7  2  0  0  0  0
  9 12  1  0  0  0  0
  9  1  1  0  0  0  0
 10  2  1  0  0  0  0
 13 14  1  0  0  0  0
 13  7  1  0  0  0  0
 15 14  2  0  0  0  0
 16 15  1  0  0  0  0
 17 24  1  0  0  0  0
 17 16  2  0  0  0  0
 18 17  1  0  0  0  0
 19 21  1  0  0  0  0
 19 18  2  0  0  0  0
 20 19  1  0  0  0  0
 21 23  2  0  0  0  0
 22 21  1  0  0  0  0
 23 24  1  0  0  0  0
 24 13  2  0  0  0  0
 25 26  1  0  0  0  0
 25  3  1  0  0  0  0
 27 25  1  0  0  0  0
 28 25  1  0  0  0  0
M  END
>  <minimizedAffinity>
-2.26567912

>  <minimizedRMSD>
5.9806385

$$$$
