
 OpenBabel03252506383D

 47 51  0  0  1  0  0  0  0  0999 V2000
   46.6560   30.0300   46.5500 S   0  0  0  0  0  0  0  0  0  0  0  0
   45.5450   30.5820   43.4510 O   0  0  0  0  0  0  0  0  0  0  0  0
   44.9480   30.0100   44.3760 C   0  0  0  0  0  0  0  0  0  0  0  0
   45.0930   29.7500   45.8300 C   0  0  1  0  0  0  0  0  0  0  0  0
   44.5780   28.3360   45.9490 C   0  0  0  0  0  0  0  0  0  0  0  0
   43.2380   28.5510   45.2390 C   0  0  0  0  0  0  0  0  0  0  0  0
   43.7050   29.3420   44.1060 N   0  0  0  0  0  0  0  0  0  0  0  0
   44.2120   30.3410   46.2060 H   0  0  0  0  0  0  0  0  0  0  0  0
   44.3550   28.0350   46.9860 H   0  0  0  0  0  0  0  0  0  0  0  0
   45.2100   27.6260   45.4120 H   0  0  0  0  0  0  0  0  0  0  0  0
   42.6100   29.1960   45.8840 H   0  0  0  0  0  0  0  0  0  0  0  0
   42.7700   27.6050   44.9490 H   0  0  0  0  0  0  0  0  0  0  0  0
   42.8890   29.3470   42.9180 C   0  0  0  0  0  0  0  0  0  0  0  0
   41.5540   29.5030   43.0630 N   0  0  0  0  0  0  0  0  0  0  0  0
   40.7090   29.5190   41.9920 C   0  0  0  0  0  3  0  0  0  0  0  0
   41.1770   29.3790   40.7480 N   0  0  0  0  0  0  0  0  0  0  0  0
   42.5030   29.2220   40.5720 C   0  0  0  0  0  0  0  0  0  0  0  0
   43.0230   29.0750   39.3020 C   0  0  0  0  0  3  0  0  0  0  0  0
   44.3850   28.9100   39.0880 C   0  0  0  0  0  0  0  0  0  0  0  0
   44.7750   28.7960   38.0850 H   0  0  0  0  0  0  0  0  0  0  0  0
   45.2160   28.8990   40.2030 C   0  0  0  0  0  0  0  0  0  0  0  0
   46.2700   28.7690   39.9970 H   0  0  0  0  0  0  0  0  0  0  0  0
   44.7450   29.0430   41.5050 C   0  0  0  0  0  3  0  0  0  0  0  0
   43.3830   29.2010   41.6350 C   0  0  0  0  0  0  0  0  0  0  0  0
   44.5160   35.5110   45.1500 C   0  0  0  0  0  0  0  0  0  0  0  0
   45.1760   35.5050   43.8950 C   0  0  0  0  0  0  0  0  0  0  0  0
   46.0980   34.5440   43.6370 C   0  0  0  0  0  0  0  0  0  0  0  0
   46.3320   33.6350   44.6140 N   0  0  0  0  0  0  0  0  0  0  0  0
   45.7120   33.6450   45.7850 C   0  0  0  0  0  0  0  0  0  0  0  0
   44.8010   34.5770   46.0680 N   0  0  0  0  0  0  0  0  0  0  0  0
   46.0450   32.6320   46.7490 N   0  0  0  0  0  0  0  0  0  0  0  0
   45.3120   32.3770   47.9330 C   0  0  0  0  0  0  0  0  0  0  0  0
   46.3900   32.0350   48.9450 C   0  0  0  0  0  0  0  0  0  0  0  0
   47.6690   31.9280   48.1700 C   0  0  0  0  0  0  0  0  0  0  0  0
   47.1660   31.7230   46.7440 C   0  0  1  0  0  0  0  0  0  0  0  0
   43.7810   36.2790   45.3520 H   0  0  0  0  0  0  0  0  0  0  0  0
   46.5980   34.5300   42.7010 H   0  0  0  0  0  0  0  0  0  0  0  0
   44.9200   33.3810   48.2890 H   0  0  0  0  0  0  0  0  0  0  0  0
   44.5260   31.7040   48.0370 H   0  0  0  0  0  0  0  0  0  0  0  0
   46.1830   31.0310   49.4110 H   0  0  0  0  0  0  0  0  0  0  0  0
   46.4720   32.7400   49.7700 H   0  0  0  0  0  0  0  0  0  0  0  0
   48.2510   31.0590   48.5120 H   0  0  0  0  0  0  0  0  0  0  0  0
   48.2750   32.8530   48.2310 H   0  0  0  0  0  0  0  0  0  0  0  0
   47.9590   32.0090   46.0510 H   0  0  0  0  0  0  0  0  0  0  0  0
   44.8160   36.5400   42.9650 N   0  0  0  0  0  0  0  0  0  0  0  0
   45.5460   36.9020   42.2910 H   0  0  0  0  0  0  0  0  0  0  0  0
   43.8430   36.8930   42.9910 H   0  0  0  0  0  0  0  0  0  0  0  0
  1 35  1  0  0  0  0
  2  3  2  0  0  0  0
  3  4  1  0  0  0  0
  4  5  1  0  0  0  0
  4  8  1  1  0  0  0
  4  1  1  0  0  0  0
  5  9  1  0  0  0  0
  6 11  1  0  0  0  0
  6  5  1  0  0  0  0
  7  3  1  0  0  0  0
  7  6  1  0  0  0  0
 10  5  1  0  0  0  0
 12  6  1  0  0  0  0
 13 14  1  0  0  0  0
 13  7  1  0  0  0  0
 15 14  2  0  0  0  0
 16 15  1  0  0  0  0
 17 16  2  0  0  0  0
 17 24  1  0  0  0  0
 18 17  1  0  0  0  0
 19 18  2  0  0  0  0
 19 21  1  0  0  0  0
 20 19  1  0  0  0  0
 21 23  2  0  0  0  0
 22 21  1  0  0  0  0
 23 24  1  0  0  0  0
 24 13  2  0  0  0  0
 25 36  1  0  0  0  0
 25 30  1  0  0  0  0
 26 25  2  0  0  0  0
 27 26  1  0  0  0  0
 27 28  2  0  0  0  0
 28 29  1  0  0  0  0
 29 30  2  0  0  0  0
 29 31  1  0  0  0  0
 31 32  1  0  0  0  0
 32 39  1  0  0  0  0
 32 38  1  0  0  0  0
 32 33  1  0  0  0  0
 33 40  1  0  0  0  0
 33 41  1  0  0  0  0
 34 43  1  0  0  0  0
 34 42  1  0  0  0  0
 34 33  1  0  0  0  0
 35 44  1  6  0  0  0
 35 31  1  0  0  0  0
 35 34  1  0  0  0  0
 37 27  1  0  0  0  0
 45 47  1  0  0  0  0
 45 26  1  0  0  0  0
 46 45  1  0  0  0  0
M  END
>  <minimizedAffinity>
-5.60792255

>  <minimizedRMSD>
0.129751623

$$$$
