
     RDKit          3D

 28 30  0  0  0  0  0  0  0  0999 V2000
   44.5072   36.0007   44.5249 C   0  0  0  0  0  0  0  0  0  0  0  0
   45.2101   35.8759   43.3177 C   0  0  0  0  0  0  0  0  0  0  0  0
   46.1257   34.8169   43.1774 C   0  0  0  0  0  0  0  0  0  0  0  0
   46.2958   33.9510   44.2194 N   0  0  0  0  0  0  0  0  0  0  0  0
   45.5874   34.1106   45.3809 C   0  0  0  0  0  0  0  0  0  0  0  0
   44.7208   35.1157   45.5102 N   0  0  0  0  0  0  0  0  0  0  0  0
   45.8714   33.1010   46.4234 C   0  0  0  0  0  0  0  0  0  0  0  0
   46.5046   31.6082   45.5911 S   0  0  0  0  0  0  0  0  0  0  0  0
   43.8150   36.8228   44.5980 H   0  0  0  0  0  0  0  0  0  0  0  0
   45.1184   36.5248   42.4633 H   0  0  0  0  0  0  0  0  0  0  0  0
   46.7023   34.6471   42.2939 H   0  0  0  0  0  0  0  0  0  0  0  0
   46.6038   33.4738   47.1749 H   0  0  0  0  0  0  0  0  0  0  0  0
   44.9391   32.8868   46.9753 H   0  0  0  0  0  0  0  0  0  0  0  0
   45.2011   30.9034   44.5967 C   0  0  0  0  0  0  0  0  0  0  0  0
   45.2446   30.7193   43.2545 N   0  0  0  0  0  0  0  0  0  0  0  0
   44.1889   30.1779   42.6166 C   0  0  0  0  0  0  0  0  0  0  0  0
   43.0638   29.8042   43.2841 N   0  0  0  0  0  0  0  0  0  0  0  0
   42.9655   29.9665   44.6334 C   0  0  0  0  0  0  0  0  0  0  0  0
   41.8044   29.5740   45.2663 C   0  0  0  0  0  0  0  0  0  0  0  0
   41.7353   29.7551   46.6510 C   0  0  0  0  0  0  0  0  0  0  0  0
   40.8820   29.4879   47.2544 H   0  0  0  0  0  0  0  0  0  0  0  0
   42.7985   30.3057   47.3287 C   0  0  0  0  0  0  0  0  0  0  0  0
   42.7892   30.4661   48.4131 H   0  0  0  0  0  0  0  0  0  0  0  0
   43.9341   30.6787   46.6373 C   0  0  0  0  0  0  0  0  0  0  0  0
   44.0571   30.5220   45.2644 C   0  0  0  0  0  0  0  0  0  0  0  0
   44.2488   30.0385   41.5277 H   0  0  0  0  0  0  0  0  0  0  0  0
   40.9568   29.1411   44.7577 H   0  0  0  0  0  0  0  0  0  0  0  0
   44.7580   31.1096   47.1849 H   0  0  0  0  0  0  0  0  0  0  0  0
  1  6  2  0
  2  1  1  0
  3  2  2  0
  3  4  1  0
  4  5  2  0
  5  6  1  0
  5  7  1  0
  8  7  1  0
  1  9  1  0
  2 10  1  0
  3 11  1  0
  7 12  1  0
  7 13  1  0
 14 15  2  0
 15 16  1  0
 16 17  2  0
 17 18  1  0
 18 19  2  0
 19 20  1  0
 20 21  1  0
 20 22  2  0
 22 23  1  0
 22 24  1  0
 24 25  2  0
 25 14  1  0
 25 18  1  0
 16 26  1  0
 19 27  1  0
 24 28  1  0
  8 14  1  0
M  ISO  7   9  14  10  14  11  14  12   8  13   8  21  16  23  16
M  END
>  <DihAtoms>  (1) 
6,7,13,14

>  <DihDeg>  (1) 
0.10962892898769254

$$$$
