
 OpenBabel03252506373D

 47 51  0  0  1  0  0  0  0  0999 V2000
   46.7210   29.9580   46.5050 S   0  0  0  0  0  0  0  0  0  0  0  0
   45.2840   30.5220   43.5440 O   0  0  0  0  0  0  0  0  0  0  0  0
   44.7910   29.9430   44.5250 C   0  0  0  0  0  0  0  0  0  0  0  0
   45.0910   29.6750   45.9540 C   0  0  1  0  0  0  0  0  0  0  0  0
   44.5970   28.2590   46.1180 C   0  0  0  0  0  0  0  0  0  0  0  0
   43.1890   28.4710   45.5550 C   0  0  0  0  0  0  0  0  0  0  0  0
   43.5290   29.2710   44.3850 N   0  0  0  0  0  0  0  0  0  0  0  0
   44.2530   30.2600   46.4240 H   0  0  0  0  0  0  0  0  0  0  0  0
   44.4870   27.9510   47.1710 H   0  0  0  0  0  0  0  0  0  0  0  0
   45.1710   27.5540   45.5120 H   0  0  0  0  0  0  0  0  0  0  0  0
   42.6300   29.1100   46.2680 H   0  0  0  0  0  0  0  0  0  0  0  0
   42.6950   27.5240   45.3120 H   0  0  0  0  0  0  0  0  0  0  0  0
   42.5910   29.2780   43.2900 C   0  0  0  0  0  0  0  0  0  0  0  0
   42.5200   30.3860   42.5190 N   0  0  0  0  0  0  0  0  0  0  0  0
   41.6610   30.4770   41.4640 C   0  0  0  0  0  3  0  0  0  0  0  0
   40.8490   29.4630   41.1510 N   0  0  0  0  0  0  0  0  0  0  0  0
   40.8960   28.3440   41.9010 C   0  0  0  0  0  0  0  0  0  0  0  0
   40.0740   27.2750   41.6080 C   0  0  0  0  0  3  0  0  0  0  0  0
   40.1000   26.1100   42.3630 C   0  0  0  0  0  0  0  0  0  0  0  0
   39.4480   25.2820   42.1190 H   0  0  0  0  0  0  0  0  0  0  0  0
   40.9890   26.0530   43.4310 C   0  0  0  0  0  0  0  0  0  0  0  0
   40.9800   25.1300   43.9950 H   0  0  0  0  0  0  0  0  0  0  0  0
   41.8400   27.1010   43.7700 C   0  0  0  0  0  3  0  0  0  0  0  0
   41.7550   28.2220   42.9750 C   0  0  0  0  0  0  0  0  0  0  0  0
   44.5370   35.4430   45.1880 C   0  0  0  0  0  0  0  0  0  0  0  0
   45.1940   35.4600   43.9330 C   0  0  0  0  0  0  0  0  0  0  0  0
   46.1220   34.5100   43.6580 C   0  0  0  0  0  0  0  0  0  0  0  0
   46.3660   33.5880   44.6220 N   0  0  0  0  0  0  0  0  0  0  0  0
   45.7480   33.5770   45.7940 C   0  0  0  0  0  0  0  0  0  0  0  0
   44.8320   34.4980   46.0930 N   0  0  0  0  0  0  0  0  0  0  0  0
   46.0920   32.5530   46.7430 N   0  0  0  0  0  0  0  0  0  0  0  0
   45.3630   32.2760   47.9240 C   0  0  0  0  0  0  0  0  0  0  0  0
   46.4460   31.9270   48.9290 C   0  0  0  0  0  0  0  0  0  0  0  0
   47.7240   31.8410   48.1500 C   0  0  0  0  0  0  0  0  0  0  0  0
   47.2190   31.6520   46.7220 C   0  0  1  0  0  0  0  0  0  0  0  0
   43.7970   36.2030   45.4040 H   0  0  0  0  0  0  0  0  0  0  0  0
   46.6200   34.5130   42.7210 H   0  0  0  0  0  0  0  0  0  0  0  0
   44.9650   33.2710   48.2960 H   0  0  0  0  0  0  0  0  0  0  0  0
   44.5820   31.5950   48.0200 H   0  0  0  0  0  0  0  0  0  0  0  0
   46.2470   30.9150   49.3800 H   0  0  0  0  0  0  0  0  0  0  0  0
   46.5250   32.6210   49.7640 H   0  0  0  0  0  0  0  0  0  0  0  0
   48.3130   30.9710   48.4770 H   0  0  0  0  0  0  0  0  0  0  0  0
   48.3240   32.7690   48.2220 H   0  0  0  0  0  0  0  0  0  0  0  0
   48.0080   31.9540   46.0310 H   0  0  0  0  0  0  0  0  0  0  0  0
   44.8240   36.5050   43.0180 N   0  0  0  0  0  0  0  0  0  0  0  0
   45.5500   36.8820   42.3480 H   0  0  0  0  0  0  0  0  0  0  0  0
   43.8490   36.8520   43.0520 H   0  0  0  0  0  0  0  0  0  0  0  0
  1 35  1  0  0  0  0
  2  3  2  0  0  0  0
  3  4  1  0  0  0  0
  4  5  1  0  0  0  0
  4  8  1  1  0  0  0
  4  1  1  0  0  0  0
  5  9  1  0  0  0  0
  6  5  1  0  0  0  0
  6 11  1  0  0  0  0
  7  3  1  0  0  0  0
  7  6  1  0  0  0  0
 10  5  1  0  0  0  0
 12  6  1  0  0  0  0
 13  7  1  0  0  0  0
 14 13  2  0  0  0  0
 15 14  1  0  0  0  0
 16 15  2  0  0  0  0
 16 17  1  0  0  0  0
 17 24  1  0  0  0  0
 18 17  2  0  0  0  0
 18 19  1  0  0  0  0
 19 21  2  0  0  0  0
 20 19  1  0  0  0  0
 21 23  1  0  0  0  0
 21 22  1  0  0  0  0
 24 13  1  0  0  0  0
 24 23  2  0  0  0  0
 25 36  1  0  0  0  0
 25 30  1  0  0  0  0
 26 25  2  0  0  0  0
 27 26  1  0  0  0  0
 27 28  2  0  0  0  0
 28 29  1  0  0  0  0
 29 30  2  0  0  0  0
 29 31  1  0  0  0  0
 31 32  1  0  0  0  0
 32 39  1  0  0  0  0
 32 38  1  0  0  0  0
 32 33  1  0  0  0  0
 33 40  1  0  0  0  0
 33 41  1  0  0  0  0
 34 43  1  0  0  0  0
 34 42  1  0  0  0  0
 34 33  1  0  0  0  0
 35 44  1  6  0  0  0
 35 31  1  0  0  0  0
 35 34  1  0  0  0  0
 37 27  1  0  0  0  0
 45 47  1  0  0  0  0
 45 26  1  0  0  0  0
 46 45  1  0  0  0  0
M  END
>  <minimizedAffinity>
-6.00053978

>  <minimizedRMSD>
0.43883127

$$$$
