
     RDKit          3D

 25 27  0  0  0  0  0  0  0  0999 V2000
   44.5443   36.0271   44.5247 C   0  0  0  0  0  0  0  0  0  0  0  0
   45.2606   35.8930   43.3191 C   0  0  0  0  0  0  0  0  0  0  0  0
   46.1288   34.7956   43.2096 C   0  0  0  0  0  0  0  0  0  0  0  0
   46.2282   33.9412   44.2505 N   0  0  0  0  0  0  0  0  0  0  0  0
   45.5283   34.0946   45.3960 C   0  0  0  0  0  0  0  0  0  0  0  0
   44.6941   35.1381   45.5172 N   0  0  0  0  0  0  0  0  0  0  0  0
   47.0667   34.5635   41.7118 S   0  0  0  0  0  0  0  0  0  0  0  0
   43.8934   36.8760   44.5689 H   0  0  0  0  0  0  0  0  0  0  0  0
   45.1356   36.6071   42.5310 H   0  0  0  0  0  0  0  0  0  0  0  0
   45.5943   33.4211   46.2405 H   0  0  0  0  0  0  0  0  0  0  0  0
   46.0789   33.5554   40.6157 C   0  0  0  0  0  0  0  0  0  0  0  0
   46.2965   33.7875   39.2894 N   0  0  0  0  0  0  0  0  0  0  0  0
   45.6246   33.1028   38.3363 C   0  0  0  0  0  0  0  0  0  0  0  0
   44.7411   32.1916   38.7567 N   0  0  0  0  0  0  0  0  0  0  0  0
   44.4726   31.9074   40.0321 C   0  0  0  0  0  0  0  0  0  0  0  0
   43.5536   30.9603   40.4350 C   0  0  0  0  0  0  0  0  0  0  0  0
   43.3509   30.7434   41.7880 C   0  0  0  0  0  0  0  0  0  0  0  0
   42.6221   29.9928   42.0740 H   0  0  0  0  0  0  0  0  0  0  0  0
   44.0604   31.4669   42.7248 C   0  0  0  0  0  0  0  0  0  0  0  0
   43.8750   31.2697   43.7801 H   0  0  0  0  0  0  0  0  0  0  0  0
   44.9997   32.4347   42.3702 C   0  0  0  0  0  0  0  0  0  0  0  0
   45.1533   32.6013   41.0070 C   0  0  0  0  0  0  0  0  0  0  0  0
   45.8272   33.3176   37.2873 H   0  0  0  0  0  0  0  0  0  0  0  0
   43.0451   30.4426   39.6426 H   0  0  0  0  0  0  0  0  0  0  0  0
   45.5629   33.0092   43.0932 H   0  0  0  0  0  0  0  0  0  0  0  0
  1  6  2  0
  2  1  1  0
  3  2  2  0
  3  4  1  0
  4  5  2  0
  5  6  1  0
  7  3  1  0
  1  8  1  0
  2  9  1  0
  5 10  1  0
 11 12  2  0
 12 13  1  0
 13 14  2  0
 14 15  1  0
 15 16  2  0
 16 17  1  0
 17 18  1  0
 17 19  2  0
 19 20  1  0
 19 21  1  0
 21 22  2  0
 22 11  1  0
 22 15  1  0
 13 23  1  0
 16 24  1  0
 21 25  1  0
  7 11  1  0
M  ISO  5   8  14   9  14  10  14  18  16  20  16
M  END
>  <DihAtoms>  (1) 
2,6,10,11

>  <DihDeg>  (1) 
-89.61400676986321

$$$$
