
 OpenBabel03242521083D

 43 47  0  0  1  0  0  0  0  0999 V2000
   46.0970   32.6200   38.8880 C   0  0  2  0  0  0  0  0  0  0  0  0
   46.9670   31.5790   38.3090 C   0  0  0  0  0  0  0  0  0  0  0  0
   46.4220   32.7460   37.4800 C   0  0  1  0  0  0  0  0  0  0  0  0
   45.0280   32.3030   39.0990 H   0  0  0  0  0  0  0  0  0  0  0  0
   46.4970   30.5990   38.0620 H   0  0  0  0  0  0  0  0  0  0  0  0
   48.0270   31.4900   38.5320 H   0  0  0  0  0  0  0  0  0  0  0  0
   47.2930   33.3350   37.1320 H   0  0  0  0  0  0  0  0  0  0  0  0
   46.5510   34.6210   41.9510 C   0  0  0  0  0  0  0  0  0  0  0  0
   47.7530   35.1990   41.6130 C   0  0  0  0  0  0  0  0  0  0  0  0
   48.4470   34.9810   40.4360 C   0  0  0  0  0  0  0  0  0  0  0  0
   47.8840   34.1090   39.5260 C   0  0  0  0  0  0  0  0  0  0  0  0
   46.6900   33.5440   39.8770 C   0  0  0  0  0  0  0  0  0  0  0  0
   46.0740   33.7920   41.0210 N   0  0  0  0  0  0  0  0  0  0  0  0
   48.2280   35.8980   42.3170 H   0  0  0  0  0  0  0  0  0  0  0  0
   49.3910   35.4840   40.2580 H   0  0  0  0  0  0  0  0  0  0  0  0
   48.4460   33.9550   38.6160 H   0  0  0  0  0  0  0  0  0  0  0  0
   44.4940   36.0860   44.7480 C   0  0  0  0  0  0  0  0  0  0  0  0
   45.0770   35.9930   43.4700 C   0  0  0  0  0  0  0  0  0  0  0  0
   45.8640   34.8860   43.2170 C   0  0  0  0  0  0  0  0  0  0  0  0
   46.0330   33.9630   44.1910 N   0  0  0  0  0  0  0  0  0  0  0  0
   45.4500   34.0900   45.4140 C   0  0  0  0  0  0  0  0  0  0  0  0
   44.6920   35.1490   45.6690 N   0  0  0  0  0  0  0  0  0  0  0  0
   43.8690   36.9630   44.9510 H   0  0  0  0  0  0  0  0  0  0  0  0
   44.9580   36.7070   42.6950 H   0  0  0  0  0  0  0  0  0  0  0  0
   45.6550   33.2890   46.1150 H   0  0  0  0  0  0  0  0  0  0  0  0
   45.4810   32.3970   36.4980 O   0  0  0  0  0  0  0  0  0  0  0  0
   46.0960   30.7110   34.6810 O   0  0  0  0  0  0  0  0  0  0  0  0
   46.1570   32.2180   34.9670 P   0  0  1  0  0  0  0  0  0  0  0  0
   45.2170   32.9690   33.8070 O   0  0  0  0  0  0  0  0  0  0  0  0
   45.7690   33.4800   33.1690 H   0  0  0  0  0  0  0  0  0  0  0  0
   47.7880   32.6170   34.8810 O   0  0  0  0  0  0  0  0  0  0  0  0
   48.4610   32.4280   33.6830 C   0  0  0  0  0  0  0  0  0  0  0  0
   48.1190   32.8750   32.4610 N   0  0  0  0  0  0  0  0  0  0  0  0
   48.8850   32.6030   31.3960 C   0  0  0  0  0  0  0  0  0  0  0  0
   50.0310   31.8700   31.5010 N   0  0  0  0  0  0  0  0  0  0  0  0
   50.3940   31.4120   32.7090 C   0  0  0  0  0  0  0  0  0  0  0  0
   51.5620   30.6810   32.7370 C   0  0  0  0  0  0  0  0  0  0  0  0
   51.9800   30.1870   33.9570 C   0  0  0  0  0  0  0  0  0  0  0  0
   52.8870   29.6110   34.0140 H   0  0  0  0  0  0  0  0  0  0  0  0
   51.2420   30.4270   35.0950 C   0  0  0  0  0  0  0  0  0  0  0  0
   51.5340   30.0580   36.0750 H   0  0  0  0  0  0  0  0  0  0  0  0
   50.0810   31.1630   35.0270 C   0  0  0  0  0  0  0  0  0  0  0  0
   49.6160   31.6810   33.8350 C   0  0  0  0  0  0  0  0  0  0  0  0
  1  4  1  1  0  0  0
  1 12  1  0  0  0  0
  2  6  1  0  0  0  0
  2  1  1  0  0  0  0
  3  7  1  6  0  0  0
  3  2  1  0  0  0  0
  3  1  1  0  0  0  0
  5  2  1  0  0  0  0
  8 19  1  0  0  0  0
  9  8  1  0  0  0  0
  9 14  1  0  0  0  0
 10  9  2  0  0  0  0
 11 12  2  0  0  0  0
 11 10  1  0  0  0  0
 12 13  1  0  0  0  0
 13  8  2  0  0  0  0
 15 10  1  0  0  0  0
 16 11  1  0  0  0  0
 17 23  1  0  0  0  0
 17 22  1  0  0  0  0
 18 17  2  0  0  0  0
 19 18  1  0  0  0  0
 19 20  2  0  0  0  0
 20 21  1  0  0  0  0
 21 22  2  0  0  0  0
 21 25  1  0  0  0  0
 24 18  1  0  0  0  0
 26  3  1  0  0  0  0
 28 27  2  6  0  0  0
 28 26  1  0  0  0  0
 29 28  1  0  0  0  0
 30 29  1  0  0  0  0
 31 28  1  0  0  0  0
 32 43  1  0  0  0  0
 32 31  1  0  0  0  0
 33 32  2  0  0  0  0
 34 35  2  0  0  0  0
 34 33  1  0  0  0  0
 35 36  1  0  0  0  0
 36 37  2  0  0  0  0
 36 43  1  0  0  0  0
 37 38  1  0  0  0  0
 38 39  1  0  0  0  0
 38 40  2  0  0  0  0
 40 41  1  0  0  0  0
 42 40  1  0  0  0  0
 43 42  2  0  0  0  0
M  END
>  <minimizedAffinity>
-7.41874981

>  <minimizedRMSD>
2.66492128

$$$$
