
 OpenBabel03252508003D

 32 35  0  0  1  0  0  0  0  0999 V2000
   46.9360   31.9750   44.6810 C   0  0  0  0  0  0  0  0  0  0  0  0
   47.5780   30.6880   44.6300 C   0  0  0  0  0  0  0  0  0  0  0  0
   47.3850   29.8560   45.7300 C   0  0  0  0  0  0  0  0  0  0  0  0
   46.6230   30.2970   46.7600 N   0  0  0  0  0  0  0  0  0  0  0  0
   46.0370   31.5390   46.7470 C   0  0  0  0  0  0  0  0  0  0  0  0
   46.1740   32.3870   45.7360 N   0  0  0  0  0  0  0  0  0  0  0  0
   48.1560   30.4350   43.7780 H   0  0  0  0  0  0  0  0  0  0  0  0
   47.8500   28.8890   45.7220 H   0  0  0  0  0  0  0  0  0  0  0  0
   45.2080   31.9490   47.9170 C   0  0  1  0  0  0  0  0  0  0  0  0
   44.9670   30.9460   49.0210 C   0  0  0  0  0  0  0  0  0  0  0  0
   45.9540   32.0670   49.1870 C   0  0  1  0  0  0  0  0  0  0  0  0
   44.3930   32.6700   47.7100 H   0  0  0  0  0  0  0  0  0  0  0  0
   43.9760   31.0190   49.5140 H   0  0  0  0  0  0  0  0  0  0  0  0
   45.3140   29.9190   48.7510 H   0  0  0  0  0  0  0  0  0  0  0  0
   45.6430   32.8200   49.9520 H   0  0  0  0  0  0  0  0  0  0  0  0
   47.3380   31.5850   49.2570 N   0  0  0  0  0  0  0  0  0  0  0  0
   47.3820   30.5650   49.5020 H   0  0  0  0  0  0  0  0  0  0  0  0
   47.8030   32.0790   50.0620 H   0  0  0  0  0  0  0  0  0  0  0  0
   47.1700   32.8380   43.5520 C   0  0  2  0  0  3  0  0  0  0  0  0
   48.1540   33.6870   43.5570 O   0  0  0  0  0  1  0  0  0  0  0  0
   46.5460   33.0630   42.2510 C   0  0  0  0  0  0  0  0  0  0  0  0
   47.0430   32.4120   41.1880 N   0  0  0  0  0  0  0  0  0  0  0  0
   46.5290   32.5560   39.9270 C   0  0  0  0  0  3  0  0  0  0  0  0
   45.4960   33.3590   39.6900 N   0  0  0  0  0  0  0  0  0  0  0  0
   44.9120   34.0690   40.6960 C   0  0  0  0  0  0  0  0  0  0  0  0
   43.8390   34.9070   40.4950 C   0  0  0  0  0  3  0  0  0  0  0  0
   43.2640   35.6090   41.5330 C   0  0  0  0  0  0  0  0  0  0  0  0
   42.4370   36.2270   41.2530 H   0  0  0  0  0  0  0  0  0  0  0  0
   43.8260   35.4250   42.7970 C   0  0  0  0  0  0  0  0  0  0  0  0
   43.3570   35.9850   43.5870 H   0  0  0  0  0  0  0  0  0  0  0  0
   44.8920   34.5790   42.9370 C   0  0  0  0  0  3  0  0  0  0  0  0
   45.4840   33.8700   41.9270 C   0  0  0  0  0  0  0  0  0  0  0  0
  1  6  1  0  0  0  0
  2  1  2  0  0  0  0
  2  3  1  0  0  0  0
  3  4  2  0  0  0  0
  5  4  1  0  0  0  0
  5  9  1  0  0  0  0
  6  5  2  0  0  0  0
  7  2  1  0  0  0  0
  8  3  1  0  0  0  0
  9 12  1  6  0  0  0
  9 10  1  0  0  0  0
  9 11  1  0  0  0  0
 10 11  1  0  0  0  0
 10 13  1  0  0  0  0
 11 16  1  0  0  0  0
 11 15  1  1  0  0  0
 14 10  1  0  0  0  0
 16 17  1  0  0  0  0
 16 18  1  0  0  0  0
 19 20  1  1  0  0  0
 19  1  1  0  0  0  0
 21 19  1  0  0  0  0
 22 21  2  0  0  0  0
 23 22  1  0  0  0  0
 24 23  2  0  0  0  0
 24 25  1  0  0  0  0
 25 32  1  0  0  0  0
 26 25  2  0  0  0  0
 26 27  1  0  0  0  0
 27 29  2  0  0  0  0
 28 27  1  0  0  0  0
 29 31  1  0  0  0  0
 29 30  1  0  0  0  0
 32 21  1  0  0  0  0
 32 31  2  0  0  0  0
M  END
>  <minimizedAffinity>
-5.18749142

>  <minimizedRMSD>
3.2168746

$$$$
