
 OpenBabel03252506463D

 45 49  0  0  1  0  0  0  0  0999 V2000
   49.7690   33.6390   41.4900 N   0  0  1  0  0  0  0  0  0  0  0  0
   50.7110   32.9730   42.3530 C   0  0  0  0  0  0  0  0  0  0  0  0
   51.2250   31.6650   41.8320 C   0  0  0  0  0  0  0  0  0  0  0  0
   50.0730   30.6840   41.7690 C   0  0  0  0  0  0  0  0  0  0  0  0
   48.7960   31.3710   41.3920 C   0  0  0  0  0  0  0  0  0  0  0  0
   49.1150   32.6510   40.6610 C   0  0  2  0  0  0  0  0  0  0  0  0
   50.2480   32.7650   43.3420 H   0  0  0  0  0  0  0  0  0  0  0  0
   51.5320   33.6890   42.5370 H   0  0  0  0  0  0  0  0  0  0  0  0
   51.9720   31.3180   42.6090 H   0  0  0  0  0  0  0  0  0  0  0  0
   51.8050   31.7120   40.9080 H   0  0  0  0  0  0  0  0  0  0  0  0
   50.2990   29.7960   41.1660 H   0  0  0  0  0  0  0  0  0  0  0  0
   49.9260   30.3240   42.8260 H   0  0  0  0  0  0  0  0  0  0  0  0
   48.1340   30.7720   40.7570 H   0  0  0  0  0  0  0  0  0  0  0  0
   48.1900   31.6630   42.2810 H   0  0  0  0  0  0  0  0  0  0  0  0
   48.1320   33.0860   40.3780 H   0  0  0  0  0  0  0  0  0  0  0  0
   49.8020   32.3720   39.4300 N   0  0  0  0  0  0  0  0  0  0  0  0
   50.7840   32.7070   39.4610 H   0  0  0  0  0  0  0  0  0  0  0  0
   49.2980   31.7490   38.2660 C   0  0  0  0  0  0  0  0  0  0  0  0
   48.1220   32.0370   37.6950 N   0  0  0  0  0  0  0  0  0  0  0  0
   47.6030   31.4950   36.6080 C   0  0  0  0  0  3  0  0  0  0  0  0
   48.3140   30.5430   35.9790 N   0  0  0  0  0  0  0  0  0  0  0  0
   49.5100   30.1660   36.4530 C   0  0  0  0  0  0  0  0  0  0  0  0
   50.2110   29.1950   35.7950 C   0  0  0  0  0  3  0  0  0  0  0  0
   51.4460   28.7590   36.2270 C   0  0  0  0  0  0  0  0  0  0  0  0
   51.9380   27.9970   35.6620 H   0  0  0  0  0  0  0  0  0  0  0  0
   51.9430   29.3600   37.3710 C   0  0  0  0  0  0  0  0  0  0  0  0
   52.9110   29.0110   37.6990 H   0  0  0  0  0  0  0  0  0  0  0  0
   51.2190   30.3300   38.0110 C   0  0  0  0  0  3  0  0  0  0  0  0
   49.9910   30.7700   37.5890 C   0  0  0  0  0  0  0  0  0  0  0  0
   47.4800   34.7110   41.9580 C   0  0  1  0  0  0  0  0  0  0  0  0
   48.5170   35.7510   41.7600 C   0  0  0  0  0  0  0  0  0  0  0  0
   48.9010   34.4230   42.2760 C   0  0  2  0  0  0  0  0  0  0  0  0
   46.9920   34.3520   41.0250 H   0  0  0  0  0  0  0  0  0  0  0  0
   48.5740   36.5980   42.4690 H   0  0  0  0  0  0  0  0  0  0  0  0
   48.8290   36.0480   40.7280 H   0  0  0  0  0  0  0  0  0  0  0  0
   49.1020   34.3410   43.3870 H   0  0  0  0  0  0  0  0  0  0  0  0
   45.6180   35.9630   43.0840 C   0  0  0  0  0  0  0  0  0  0  0  0
   46.5080   34.8790   43.0580 C   0  0  0  0  0  0  0  0  0  0  0  0
   46.4330   33.9410   44.1130 C   0  0  0  0  0  0  0  0  0  0  0  0
   45.5120   34.1400   45.0840 N   0  0  0  0  0  0  0  0  0  0  0  0
   44.6670   35.1900   45.0870 C   0  0  0  0  0  0  0  0  0  0  0  0
   44.7120   36.1170   44.0810 N   0  0  0  0  0  0  0  0  0  0  0  0
   45.6780   36.6790   42.2760 H   0  0  0  0  0  0  0  0  0  0  0  0
   47.1050   33.0920   44.1260 H   0  0  0  0  0  0  0  0  0  0  0  0
   43.9830   35.2220   45.9260 H   0  0  0  0  0  0  0  0  0  0  0  0
  1 32  1  0  0  0  0
  1  2  1  1  0  0  0
  2  8  1  0  0  0  0
  2  7  1  0  0  0  0
  3  2  1  0  0  0  0
  3  9  1  0  0  0  0
  4  3  1  0  0  0  0
  4 12  1  0  0  0  0
  5  4  1  0  0  0  0
  5 14  1  0  0  0  0
  6 15  1  6  0  0  0
  6  5  1  0  0  0  0
  6  1  1  0  0  0  0
 10  3  1  0  0  0  0
 11  4  1  0  0  0  0
 13  5  1  0  0  0  0
 16 17  1  0  0  0  0
 16  6  1  0  0  0  0
 18 16  1  0  0  0  0
 19 18  1  0  0  0  0
 20 19  2  0  0  0  0
 21 22  2  0  0  0  0
 21 20  1  0  0  0  0
 22 29  1  0  0  0  0
 23 24  2  0  0  0  0
 23 22  1  0  0  0  0
 24 26  1  0  0  0  0
 25 24  1  0  0  0  0
 26 27  1  0  0  0  0
 26 28  2  0  0  0  0
 29 28  1  0  0  0  0
 29 18  2  0  0  0  0
 30 33  1  6  0  0  0
 30 32  1  0  0  0  0
 30 38  1  0  0  0  0
 31 30  1  0  0  0  0
 31 32  1  0  0  0  0
 31 34  1  0  0  0  0
 32 36  1  1  0  0  0
 35 31  1  0  0  0  0
 37 42  1  0  0  0  0
 38 37  2  0  0  0  0
 38 39  1  0  0  0  0
 39 44  1  0  0  0  0
 39 40  2  0  0  0  0
 40 41  1  0  0  0  0
 41 45  1  0  0  0  0
 42 41  2  0  0  0  0
 43 37  1  0  0  0  0
M  END
>  <minimizedAffinity>
-5.38356352

>  <minimizedRMSD>
1.92010856

$$$$
