
 OpenBabel03252501323D

 27 29  0  0  0  0  0  0  0  0999 V2000
   44.7660   34.5620   42.8710 C   0  0  0  0  0  0  0  0  0  0  0  0
   44.3630   33.3630   43.1600 O   0  0  0  0  0  0  0  0  0  0  0  0
   45.6790   35.0770   43.8080 N   0  0  0  0  0  0  0  0  0  0  0  0
   45.8610   35.9680   43.3870 H   0  0  0  0  0  0  0  0  0  0  0  0
   43.9510   34.5700   41.6950 C   0  0  0  0  0  0  0  0  0  0  0  0
   42.8330   35.2140   42.0740 N   0  0  0  0  0  0  0  0  0  0  0  0
   41.8080   35.4150   41.1940 C   0  0  0  0  0  3  0  0  0  0  0  0
   41.9840   34.9420   39.9630 N   0  0  0  0  0  0  0  0  0  0  0  0
   43.0760   34.2970   39.5420 C   0  0  0  0  0  0  0  0  0  0  0  0
   43.2720   33.7990   38.2590 C   0  0  0  0  0  3  0  0  0  0  0  0
   44.4600   33.1390   37.9280 C   0  0  0  0  0  0  0  0  0  0  0  0
   44.5600   32.7690   36.9080 H   0  0  0  0  0  0  0  0  0  0  0  0
   45.4470   32.9880   38.9100 C   0  0  0  0  0  0  0  0  0  0  0  0
   46.3100   32.4630   38.5280 H   0  0  0  0  0  0  0  0  0  0  0  0
   45.2750   33.4730   40.1880 C   0  0  0  0  0  3  0  0  0  0  0  0
   44.0890   34.1060   40.4320 C   0  0  0  0  0  0  0  0  0  0  0  0
   45.8770   34.1110   44.8440 C   0  0  0  0  0  0  0  0  0  0  0  0
   45.2320   34.0960   46.0880 C   0  0  0  0  0  0  0  0  0  0  0  0
   45.5710   33.0760   46.9550 C   0  0  0  0  0  0  0  0  0  0  0  0
   46.4820   32.1790   46.5540 N   0  0  0  0  0  0  0  0  0  0  0  0
   47.0970   32.2020   45.3540 C   0  0  0  0  0  0  0  0  0  0  0  0
   46.7960   33.1780   44.4820 N   0  0  0  0  0  0  0  0  0  0  0  0
   45.0650   33.0790   47.9100 H   0  0  0  0  0  0  0  0  0  0  0  0
   47.8250   31.4670   45.0610 H   0  0  0  0  0  0  0  0  0  0  0  0
   44.3000   35.1340   46.3160 N   0  0  0  0  0  0  0  0  0  0  0  0
   44.4290   36.1740   46.3500 H   0  0  0  0  0  0  0  0  0  0  0  0
   43.3880   34.6650   46.4580 H   0  0  0  0  0  0  0  0  0  0  0  0
  1  2  2  0  0  0  0
  1  3  1  0  0  0  0
  3 17  1  0  0  0  0
  4  3  1  0  0  0  0
  5  6  1  0  0  0  0
  5  1  1  0  0  0  0
  7  6  2  0  0  0  0
  8  7  1  0  0  0  0
  9  8  2  0  0  0  0
  9 16  1  0  0  0  0
 10  9  1  0  0  0  0
 11 10  2  0  0  0  0
 11 13  1  0  0  0  0
 12 11  1  0  0  0  0
 13 15  2  0  0  0  0
 14 13  1  0  0  0  0
 15 16  1  0  0  0  0
 16  5  2  0  0  0  0
 17 18  1  0  0  0  0
 18 25  1  0  0  0  0
 18 19  2  0  0  0  0
 19 23  1  0  0  0  0
 20 19  1  0  0  0  0
 21 20  2  0  0  0  0
 22 17  2  0  0  0  0
 22 21  1  0  0  0  0
 24 21  1  0  0  0  0
 25 26  1  0  0  0  0
 25 27  1  0  0  0  0
M  END
>  <minimizedAffinity>
-5.29213715

>  <minimizedRMSD>
1.46264827

$$$$
