
 OpenBabel03242523303D

 25 27  0  0  0  0  0  0  0  0999 V2000
   46.7850   31.8200   45.8520 S   0  0  0  0  0  0  0  0  0  0  0  0
   45.7170   30.4020   45.6660 C   0  0  0  0  0  0  0  0  0  0  0  0
   45.1530   29.7010   46.6790 N   0  0  0  0  0  0  0  0  0  0  0  0
   44.3650   28.6430   46.4070 C   0  0  0  0  0  3  0  0  0  0  0  0
   44.1140   28.2480   45.1290 N   0  0  0  0  0  0  0  0  0  0  0  0
   44.6560   28.9150   44.0720 C   0  0  0  0  0  0  0  0  0  0  0  0
   44.3730   28.4780   42.7950 C   0  0  0  0  0  3  0  0  0  0  0  0
   44.9450   29.1840   41.7320 C   0  0  0  0  0  0  0  0  0  0  0  0
   44.7990   28.9370   40.6930 H   0  0  0  0  0  0  0  0  0  0  0  0
   45.7530   30.2690   41.9810 C   0  0  0  0  0  0  0  0  0  0  0  0
   46.2230   30.8520   41.1810 H   0  0  0  0  0  0  0  0  0  0  0  0
   45.9980   30.6580   43.2830 C   0  0  0  0  0  3  0  0  0  0  0  0
   45.4570   29.9940   44.3750 C   0  0  0  0  0  0  0  0  0  0  0  0
   45.8150   33.2020   46.5400 C   0  0  0  0  0  0  0  0  0  0  0  0
   46.3560   33.6760   47.3920 H   0  0  0  0  0  0  0  0  0  0  0  0
   44.8470   32.8520   46.9400 H   0  0  0  0  0  0  0  0  0  0  0  0
   44.5010   36.0070   44.4720 C   0  0  0  0  0  0  0  0  0  0  0  0
   45.2410   35.8310   43.2940 C   0  0  0  0  0  0  0  0  0  0  0  0
   46.1640   34.7710   43.2290 C   0  0  0  0  0  0  0  0  0  0  0  0
   46.3050   33.9530   44.3140 N   0  0  0  0  0  0  0  0  0  0  0  0
   45.5600   34.1630   45.4450 C   0  0  0  0  0  0  0  0  0  0  0  0
   44.6880   35.1690   45.5020 N   0  0  0  0  0  0  0  0  0  0  0  0
   43.8050   36.8290   44.4870 H   0  0  0  0  0  0  0  0  0  0  0  0
   45.1740   36.4400   42.4080 H   0  0  0  0  0  0  0  0  0  0  0  0
   46.7680   34.5640   42.3720 H   0  0  0  0  0  0  0  0  0  0  0  0
  1 14  1  0  0  0  0
  2  1  1  0  0  0  0
  2  3  1  0  0  0  0
  4  3  2  0  0  0  0
  5  4  1  0  0  0  0
  6 13  1  0  0  0  0
  6  5  2  0  0  0  0
  7  6  1  0  0  0  0
  8 10  1  0  0  0  0
  8  7  2  0  0  0  0
  9  8  1  0  0  0  0
 10 12  2  0  0  0  0
 11 10  1  0  0  0  0
 12 13  1  0  0  0  0
 13  2  2  0  0  0  0
 14 16  1  0  0  0  0
 14 15  1  0  0  0  0
 17 23  1  0  0  0  0
 17 22  1  0  0  0  0
 18 17  2  0  0  0  0
 19 18  1  0  0  0  0
 19 20  2  0  0  0  0
 20 21  1  0  0  0  0
 21 22  2  0  0  0  0
 21 14  1  0  0  0  0
 24 18  1  0  0  0  0
 25 19  1  0  0  0  0
M  END
>  <minimizedAffinity>
-3.6967845

>  <minimizedRMSD>
1.69065368

$$$$
