
 OpenBabel03252506383D

 47 51  0  0  1  0  0  0  0  0999 V2000
   46.6560   30.0420   46.5730 S   0  0  0  0  0  0  0  0  0  0  0  0
   45.5940   30.5960   43.4570 O   0  0  0  0  0  0  0  0  0  0  0  0
   44.9840   30.0190   44.3710 C   0  0  0  0  0  0  0  0  0  0  0  0
   45.1070   29.7560   45.8270 C   0  0  1  0  0  0  0  0  0  0  0  0
   44.5970   28.3400   45.9330 C   0  0  0  0  0  0  0  0  0  0  0  0
   43.2680   28.5490   45.2010 C   0  0  0  0  0  0  0  0  0  0  0  0
   43.7500   29.3460   44.0780 N   0  0  0  0  0  0  0  0  0  0  0  0
   44.2170   30.3420   46.1890 H   0  0  0  0  0  0  0  0  0  0  0  0
   44.3580   28.0340   46.9650 H   0  0  0  0  0  0  0  0  0  0  0  0
   45.2420   27.6340   45.4050 H   0  0  0  0  0  0  0  0  0  0  0  0
   42.6260   29.1900   45.8370 H   0  0  0  0  0  0  0  0  0  0  0  0
   42.8090   27.6020   44.9010 H   0  0  0  0  0  0  0  0  0  0  0  0
   42.9540   29.3500   42.8760 C   0  0  0  0  0  0  0  0  0  0  0  0
   41.8100   30.0700   42.8720 N   0  0  0  0  0  0  0  0  0  0  0  0
   40.9990   30.1280   41.7770 C   0  0  0  0  0  3  0  0  0  0  0  0
   41.3070   29.4670   40.6590 N   0  0  0  0  0  0  0  0  0  0  0  0
   42.4410   28.7390   40.6320 C   0  0  0  0  0  0  0  0  0  0  0  0
   42.7950   28.0430   39.4940 C   0  0  0  0  0  3  0  0  0  0  0  0
   43.9560   27.2840   39.4370 C   0  0  0  0  0  0  0  0  0  0  0  0
   44.2180   26.7450   38.5360 H   0  0  0  0  0  0  0  0  0  0  0  0
   44.7600   27.2480   40.5720 C   0  0  0  0  0  0  0  0  0  0  0  0
   45.6550   26.6480   40.4890 H   0  0  0  0  0  0  0  0  0  0  0  0
   44.4520   27.9320   41.7450 C   0  0  0  0  0  3  0  0  0  0  0  0
   43.2830   28.6620   41.7240 C   0  0  0  0  0  0  0  0  0  0  0  0
   44.5130   35.5150   45.1430 C   0  0  0  0  0  0  0  0  0  0  0  0
   45.1780   35.5050   43.8920 C   0  0  0  0  0  0  0  0  0  0  0  0
   46.1030   34.5450   43.6410 C   0  0  0  0  0  0  0  0  0  0  0  0
   46.3350   33.6390   44.6230 N   0  0  0  0  0  0  0  0  0  0  0  0
   45.7090   33.6530   45.7910 C   0  0  0  0  0  0  0  0  0  0  0  0
   44.7960   34.5840   46.0660 N   0  0  0  0  0  0  0  0  0  0  0  0
   46.0400   32.6440   46.7600 N   0  0  0  0  0  0  0  0  0  0  0  0
   45.3020   32.3920   47.9410 C   0  0  0  0  0  0  0  0  0  0  0  0
   46.3760   32.0560   48.9590 C   0  0  0  0  0  0  0  0  0  0  0  0
   47.6590   31.9480   48.1910 C   0  0  0  0  0  0  0  0  0  0  0  0
   47.1630   31.7370   46.7630 C   0  0  1  0  0  0  0  0  0  0  0  0
   43.7760   36.2820   45.3400 H   0  0  0  0  0  0  0  0  0  0  0  0
   46.6070   34.5280   42.7070 H   0  0  0  0  0  0  0  0  0  0  0  0
   44.9070   33.3970   48.2920 H   0  0  0  0  0  0  0  0  0  0  0  0
   44.5160   31.7180   48.0440 H   0  0  0  0  0  0  0  0  0  0  0  0
   46.1690   31.0530   49.4280 H   0  0  0  0  0  0  0  0  0  0  0  0
   46.4540   32.7640   49.7820 H   0  0  0  0  0  0  0  0  0  0  0  0
   48.2400   31.0810   48.5370 H   0  0  0  0  0  0  0  0  0  0  0  0
   48.2630   32.8740   48.2500 H   0  0  0  0  0  0  0  0  0  0  0  0
   47.9580   32.0220   46.0720 H   0  0  0  0  0  0  0  0  0  0  0  0
   44.8200   36.5350   42.9560 N   0  0  0  0  0  0  0  0  0  0  0  0
   45.5530   36.8960   42.2840 H   0  0  0  0  0  0  0  0  0  0  0  0
   43.8470   36.8880   42.9770 H   0  0  0  0  0  0  0  0  0  0  0  0
  1 35  1  0  0  0  0
  2  3  2  0  0  0  0
  3  4  1  0  0  0  0
  4  5  1  0  0  0  0
  4  8  1  1  0  0  0
  4  1  1  0  0  0  0
  5  9  1  0  0  0  0
  6 11  1  0  0  0  0
  6  5  1  0  0  0  0
  7  3  1  0  0  0  0
  7  6  1  0  0  0  0
 10  5  1  0  0  0  0
 12  6  1  0  0  0  0
 13  7  1  0  0  0  0
 14 13  1  0  0  0  0
 15 14  2  0  0  0  0
 16 15  1  0  0  0  0
 17 16  2  0  0  0  0
 17 24  1  0  0  0  0
 18 17  1  0  0  0  0
 19 18  2  0  0  0  0
 19 21  1  0  0  0  0
 20 19  1  0  0  0  0
 21 23  2  0  0  0  0
 22 21  1  0  0  0  0
 24 23  1  0  0  0  0
 24 13  2  0  0  0  0
 25 36  1  0  0  0  0
 25 30  1  0  0  0  0
 26 25  2  0  0  0  0
 27 26  1  0  0  0  0
 27 28  2  0  0  0  0
 28 29  1  0  0  0  0
 29 30  2  0  0  0  0
 29 31  1  0  0  0  0
 31 35  1  0  0  0  0
 31 32  1  0  0  0  0
 32 39  1  0  0  0  0
 32 38  1  0  0  0  0
 32 33  1  0  0  0  0
 33 40  1  0  0  0  0
 33 41  1  0  0  0  0
 34 43  1  0  0  0  0
 34 42  1  0  0  0  0
 34 33  1  0  0  0  0
 35 44  1  6  0  0  0
 35 34  1  0  0  0  0
 37 27  1  0  0  0  0
 45 47  1  0  0  0  0
 45 26  1  0  0  0  0
 46 45  1  0  0  0  0
M  END
>  <minimizedAffinity>
-5.61159897

>  <minimizedRMSD>
0.113319375

$$$$
