
     RDKit          3D

 35 38  0  0  0  0  0  0  0  0999 V2000
   45.2310   33.5641   43.7106 C   0  0  1  0  0  0  0  0  0  0  0  0
   45.8583   34.9875   43.4796 C   0  0  1  0  0  0  0  0  0  0  0  0
   45.8112   33.8705   42.4590 C   0  0  0  0  0  0  0  0  0  0  0  0
   45.8948   32.8678   44.8176 C   0  0  0  0  0  0  0  0  0  0  0  0
   46.7184   31.7575   44.5094 C   0  0  0  0  0  0  0  0  0  0  0  0
   47.3925   31.0533   45.5086 C   0  0  0  0  0  0  0  0  0  0  0  0
   47.2086   31.4994   46.7837 N   0  0  0  0  0  0  0  0  0  0  0  0
   46.4082   32.5735   47.0430 C   0  0  0  0  0  0  0  0  0  0  0  0
   45.7693   33.2389   46.0928 N   0  0  0  0  0  0  0  0  0  0  0  0
   46.3274   32.9047   48.3818 O   0  0  0  0  0  0  0  0  0  0  0  0
   44.8347   36.0712   43.2371 C   0  0  0  0  0  0  0  0  0  0  0  0
   45.3629   37.3300   43.2371 F   0  0  0  0  0  0  0  0  0  0  0  0
   44.2470   35.8592   41.9798 F   0  0  0  0  0  0  0  0  0  0  0  0
   43.7878   35.9674   44.1419 F   0  0  0  0  0  0  0  0  0  0  0  0
   44.1150   33.6124   43.8615 H   0  0  0  0  0  0  0  0  0  0  0  0
   46.8113   35.2079   43.9481 H   0  0  0  0  0  0  0  0  0  0  0  0
   46.8156   33.4556   42.1791 H   0  0  0  0  0  0  0  0  0  0  0  0
   45.1842   34.0033   41.5497 H   0  0  0  0  0  0  0  0  0  0  0  0
   46.8231   31.4554   43.4850 H   0  0  0  0  0  0  0  0  0  0  0  0
   48.0161   30.2100   45.2647 H   0  0  0  0  0  0  0  0  0  0  0  0
   46.9642   32.2580   49.4016 C   0  0  0  0  0  0  0  0  0  0  0  0
   46.5146   31.2112   50.1355 N   0  0  0  0  0  0  0  0  0  0  0  0
   47.2844   30.6801   51.1256 C   0  0  0  0  0  0  0  0  0  0  0  0
   48.5058   31.1672   51.4108 N   0  0  0  0  0  0  0  0  0  0  0  0
   48.9806   32.1993   50.7068 C   0  0  0  0  0  0  0  0  0  0  0  0
   50.2392   32.6626   51.0380 C   0  0  0  0  0  0  0  0  0  0  0  0
   50.7601   33.7196   50.3384 C   0  0  0  0  0  0  0  0  0  0  0  0
   51.7424   34.1235   50.5559 H   0  0  0  0  0  0  0  0  0  0  0  0
   50.0415   34.3268   49.3063 C   0  0  0  0  0  0  0  0  0  0  0  0
   50.3853   35.1627   48.7106 H   0  0  0  0  0  0  0  0  0  0  0  0
   48.7868   33.8439   48.9963 C   0  0  0  0  0  0  0  0  0  0  0  0
   48.2328   32.7830   49.6793 C   0  0  0  0  0  0  0  0  0  0  0  0
   46.8976   29.8412   51.6975 H   0  0  0  0  0  0  0  0  0  0  0  0
   50.8130   32.1958   51.8447 H   0  0  0  0  0  0  0  0  0  0  0  0
   48.1976   34.2882   48.2019 H   0  0  0  0  0  0  0  0  0  0  0  0
  1  4  1  0
  2  1  1  0
  3  2  1  0
  3  1  1  0
  4  9  1  0
  5  4  2  0
  5  6  1  0
  6  7  2  0
  7  8  1  0
  8 10  1  0
  9  8  2  0
 11  2  1  0
 11 14  1  0
 12 11  1  0
 13 11  1  0
  1 15  1  6
  2 16  1  1
  3 17  1  0
  3 18  1  0
  5 19  1  0
  6 20  1  0
 21 22  2  0
 22 23  1  0
 23 24  2  0
 24 25  1  0
 25 26  2  0
 26 27  1  0
 27 28  1  0
 27 29  2  0
 29 30  1  0
 29 31  1  0
 31 32  2  0
 32 21  1  0
 32 25  1  0
 23 33  1  0
 26 34  1  0
 31 35  1  0
 10 21  1  0
M  ISO  8  15  13  16  13  17  13  18  13  19  14  20  14  28  16  30  16
M  END
>  <DihAtoms>  (1) 
7,9,20,21

>  <DihDeg>  (1) 
-0.002756056157925287

$$$$
