
 OpenBabel03242511173D

 22 24  0  0  0  0  0  0  0  0999 V2000
   47.0570   33.2290   41.0390 C   0  0  0  0  0  0  0  0  0  0  0  0
   48.1180   33.9180   40.5300 N   0  0  0  0  0  0  0  0  0  0  0  0
   48.2030   34.2050   39.2120 C   0  0  0  0  0  3  0  0  0  0  0  0
   47.2020   33.7820   38.4350 N   0  0  0  0  0  0  0  0  0  0  0  0
   46.1320   33.1030   38.8560 C   0  0  0  0  0  0  0  0  0  0  0  0
   45.1120   32.6790   38.0290 C   0  0  0  0  0  3  0  0  0  0  0  0
   44.0460   31.9800   38.5690 C   0  0  0  0  0  0  0  0  0  0  0  0
   43.2590   31.6600   37.8940 H   0  0  0  0  0  0  0  0  0  0  0  0
   44.0020   31.7110   39.9220 C   0  0  0  0  0  0  0  0  0  0  0  0
   43.1470   31.1590   40.3130 H   0  0  0  0  0  0  0  0  0  0  0  0
   45.0050   32.1180   40.8000 C   0  0  0  0  0  3  0  0  0  0  0  0
   46.0400   32.8090   40.1970 C   0  0  0  0  0  0  0  0  0  0  0  0
   47.1340   32.9530   42.8030 S   0  0  0  0  0  0  0  0  0  0  0  0
   44.9920   36.3120   43.5430 C   0  0  0  0  0  0  0  0  0  0  0  0
   45.8020   35.3680   42.8810 C   0  0  0  0  0  0  0  0  0  0  0  0
   46.1150   34.1920   43.5800 C   0  0  0  0  0  0  0  0  0  0  0  0
   45.6310   34.0320   44.8310 N   0  0  0  0  0  0  0  0  0  0  0  0
   44.8560   34.9560   45.4410 C   0  0  0  0  0  0  0  0  0  0  0  0
   44.5470   36.0850   44.7870 N   0  0  0  0  0  0  0  0  0  0  0  0
   44.7750   37.1950   42.9770 H   0  0  0  0  0  0  0  0  0  0  0  0
   46.1530   35.5560   41.8870 H   0  0  0  0  0  0  0  0  0  0  0  0
   44.4590   34.8450   46.4420 H   0  0  0  0  0  0  0  0  0  0  0  0
  1 13  1  0  0  0  0
  2  1  1  0  0  0  0
  3  2  2  0  0  0  0
  4  5  2  0  0  0  0
  4  3  1  0  0  0  0
  5 12  1  0  0  0  0
  6  7  2  0  0  0  0
  6  5  1  0  0  0  0
  7  9  1  0  0  0  0
  8  7  1  0  0  0  0
  9 10  1  0  0  0  0
  9 11  2  0  0  0  0
 12 11  1  0  0  0  0
 12  1  2  0  0  0  0
 13 16  1  0  0  0  0
 14 19  1  0  0  0  0
 15 14  2  0  0  0  0
 15 16  1  0  0  0  0
 16 17  2  0  0  0  0
 17 18  1  0  0  0  0
 18 22  1  0  0  0  0
 19 18  2  0  0  0  0
 20 14  1  0  0  0  0
 21 15  1  0  0  0  0
M  END
>  <minimizedAffinity>
-3.9275434

>  <minimizedRMSD>
2.06892896

$$$$
