REMARK  Name = 
REMARK  3 active torsions:
REMARK  status: ('A' for Active; 'I' for Inactive)
REMARK    1  A    between atoms: C_2  and  N_12
REMARK    2  A    between atoms: C_11  and  S_13
REMARK    3  A    between atoms: S_13  and  C_16
REMARK                            x       y       z     vdW  Elec       q    Type
REMARK                         _______ _______ _______ _____ _____    ______ ____
ROOT
ATOM      1  S   UNL     1      46.620  30.076  46.636  0.00  0.00    +0.000 S 
ENDROOT
BRANCH   1   4
ATOM      2  O   UNL     1      45.608  30.516  43.485  0.00  0.00    +0.000 OA
ATOM      3  C   UNL     1      44.977  29.988  44.414  0.00  0.00    +0.000 C 
ATOM      4  C   UNL     1      45.076  29.784  45.881  0.00  0.00    +0.000 C 
ATOM      5  C   UNL     1      44.541  28.382  46.039  0.00  0.00    +0.000 C 
ATOM      6  C   UNL     1      43.226  28.582  45.281  0.00  0.00    +0.000 C 
ATOM      7  N   UNL     1      43.735  29.323  44.133  0.00  0.00    +0.000 N 
ATOM      8  H   UNL     1      44.191  30.399  46.206  0.00  0.00    +0.000 HD
ATOM      9  H   UNL     1      44.284  28.124  47.080  0.00  0.00    +0.000 HD
ATOM     10  H   UNL     1      45.181  27.644  45.550  0.00  0.00    +0.000 HD
ATOM     11  H   UNL     1      42.586  29.259  45.881  0.00  0.00    +0.000 HD
ATOM     12  H   UNL     1      42.755  27.630  45.015  0.00  0.00    +0.000 HD
ATOM     13  C   UNL     1      42.955  29.289  42.921  0.00  0.00    +0.000 A 
ATOM     14  N   UNL     1      43.232  30.197  41.959  0.00  0.00    +0.000 NA
ATOM     15  C   UNL     1      42.542  30.235  40.783  0.00  0.00    +0.000 A 
ATOM     16  N   UNL     1      41.558  29.366  40.537  0.00  0.00    +0.000 NA
ATOM     17  C   UNL     1      41.258  28.448  41.477  0.00  0.00    +0.000 A 
ATOM     18  C   UNL     1      40.248  27.534  41.259  0.00  0.00    +0.000 A 
ATOM     19  C   UNL     1      39.915  26.576  42.208  0.00  0.00    +0.000 A 
ATOM     20  H   UNL     1      39.120  25.868  42.020  0.00  0.00    +0.000 HD
ATOM     21  C   UNL     1      40.640  26.568  43.396  0.00  0.00    +0.000 A 
ATOM     22  H   UNL     1      40.352  25.808  44.110  0.00  0.00    +0.000 HD
ATOM     23  C   UNL     1      41.668  27.466  43.667  0.00  0.00    +0.000 A 
ATOM     24  C   UNL     1      41.938  28.385  42.677  0.00  0.00    +0.000 A 
ENDBRANCH   1   4
BRANCH   1  35
ATOM     25  C   UNL     1      44.498  35.535  45.124  0.00  0.00    +0.000 A 
ATOM     26  C   UNL     1      45.169  35.507  43.876  0.00  0.00    +0.000 A 
ATOM     27  C   UNL     1      46.092  34.541  43.642  0.00  0.00    +0.000 A 
ATOM     28  N   UNL     1      46.317  33.648  44.637  0.00  0.00    +0.000 NA
ATOM     29  C   UNL     1      45.686  33.679  45.802  0.00  0.00    +0.000 A 
ATOM     30  N   UNL     1      44.774  34.616  46.061  0.00  0.00    +0.000 NA
ATOM     31  N   UNL     1      46.010  32.682  46.786  0.00  0.00    +0.000 N 
ATOM     32  C   UNL     1      45.266  32.448  47.967  0.00  0.00    +0.000 C 
ATOM     33  C   UNL     1      46.334  32.122  48.994  0.00  0.00    +0.000 C 
ATOM     34  C   UNL     1      47.620  32.001  48.233  0.00  0.00    +0.000 C 
ATOM     35  C   UNL     1      47.130  31.772  46.806  0.00  0.00    +0.000 C 
ATOM     36  H   UNL     1      43.762  36.307  45.307  0.00  0.00    +0.000 HD
ATOM     37  H   UNL     1      46.601  34.511  42.711  0.00  0.00    +0.000 HD
ATOM     38  H   UNL     1      44.872  33.458  48.303  0.00  0.00    +0.000 HD
ATOM     39  H   UNL     1      44.478  31.777  48.075  0.00  0.00    +0.000 HD
ATOM     40  H   UNL     1      46.122  31.126  49.475  0.00  0.00    +0.000 HD
ATOM     41  H   UNL     1      46.410  32.841  49.808  0.00  0.00    +0.000 HD
ATOM     42  H   UNL     1      48.198  31.137  48.594  0.00  0.00    +0.000 HD
ATOM     43  H   UNL     1      48.227  32.926  48.283  0.00  0.00    +0.000 HD
ATOM     44  H   UNL     1      47.929  32.046  46.115  0.00  0.00    +0.000 HD
BRANCH  26  45
ATOM     45  N   UNL     1      44.818  36.526  42.925  0.00  0.00    +0.000 N 
ATOM     46  H   UNL     1      45.555  36.876  42.252  0.00  0.00    +0.000 HD
ATOM     47  H   UNL     1      43.846  36.881  42.937  0.00  0.00    +0.000 HD
ENDBRANCH  26  45
ENDBRANCH   1  35
TORSDOF 3
