REMARK  Name = 
REMARK  3 active torsions:
REMARK  status: ('A' for Active; 'I' for Inactive)
REMARK    1  A    between atoms: C_5  and  C_7
REMARK    2  A    between atoms: C_7  and  S_8
REMARK    3  A    between atoms: S_8  and  C_14
REMARK                            x       y       z     vdW  Elec       q    Type
REMARK                         _______ _______ _______ _____ _____    ______ ____
ROOT
ATOM      1  S   UNL     1      46.505  31.608  45.591  0.00  0.00    +0.000 S 
ENDROOT
BRANCH   1   2
ATOM      2  C   UNL     1      45.201  30.903  44.597  0.00  0.00    +0.000 A 
ATOM      3  N   UNL     1      44.761  31.392  43.412  0.00  0.00    +0.000 NA
ATOM      4  C   UNL     1      43.763  30.768  42.757  0.00  0.00    +0.000 A 
ATOM      5  N   UNL     1      43.173  29.646  43.253  0.00  0.00    +0.000 NA
ATOM      6  C   UNL     1      43.575  29.112  44.440  0.00  0.00    +0.000 A 
ATOM      7  C   UNL     1      42.947  27.975  44.902  0.00  0.00    +0.000 A 
ATOM      8  C   UNL     1      43.383  27.452  46.124  0.00  0.00    +0.000 A 
ATOM      9  H   UNL     1      42.969  26.570  46.587  0.00  0.00    +0.000 HD
ATOM     10  C   UNL     1      44.400  28.069  46.814  0.00  0.00    +0.000 A 
ATOM     11  H   UNL     1      44.775  27.695  47.774  0.00  0.00    +0.000 HD
ATOM     12  C   UNL     1      44.990  29.206  46.297  0.00  0.00    +0.000 A 
ATOM     13  C   UNL     1      44.597  29.767  45.091  0.00  0.00    +0.000 A 
ENDBRANCH   1   2
BRANCH   1  14
ATOM     14  C   UNL     1      45.871  33.101  46.423  0.00  0.00    +0.000 C 
ATOM     15  H   UNL     1      46.604  33.474  47.175  0.00  0.00    +0.000 HD
ATOM     16  H   UNL     1      44.939  32.887  46.975  0.00  0.00    +0.000 HD
BRANCH  14  21
ATOM     17  C   UNL     1      44.507  36.001  44.525  0.00  0.00    +0.000 A 
ATOM     18  C   UNL     1      45.210  35.876  43.318  0.00  0.00    +0.000 A 
ATOM     19  C   UNL     1      46.126  34.817  43.177  0.00  0.00    +0.000 A 
ATOM     20  N   UNL     1      46.296  33.951  44.219  0.00  0.00    +0.000 NA
ATOM     21  C   UNL     1      45.587  34.111  45.381  0.00  0.00    +0.000 A 
ATOM     22  N   UNL     1      44.721  35.116  45.510  0.00  0.00    +0.000 NA
ATOM     23  H   UNL     1      43.815  36.823  44.598  0.00  0.00    +0.000 HD
ATOM     24  H   UNL     1      45.118  36.525  42.463  0.00  0.00    +0.000 HD
ATOM     25  H   UNL     1      46.702  34.647  42.294  0.00  0.00    +0.000 HD
ENDBRANCH  14  21
ENDBRANCH   1  14
TORSDOF 3
