REMARK  Name = 
REMARK  3 active torsions:
REMARK  status: ('A' for Active; 'I' for Inactive)
REMARK    1  A    between atoms: N_1  and  C_9
REMARK    2  A    between atoms: C_6  and  O_13
REMARK    3  A    between atoms: O_13  and  C_26
REMARK                            x       y       z     vdW  Elec       q    Type
REMARK                         _______ _______ _______ _____ _____    ______ ____
ROOT
ATOM      1  N   UNL     1      46.883  34.603  42.229  0.00  0.00    +0.000 N 
ATOM      2  C   UNL     1      48.331  34.769  42.262  0.00  0.00    +0.000 C 
ATOM      3  C   UNL     1      48.657  35.513  40.970  0.00  0.00    +0.000 C 
ATOM      4  C   UNL     1      48.331  34.660  39.781  0.00  0.00    +0.000 C 
ATOM      5  C   UNL     1      47.083  33.863  39.907  0.00  0.00    +0.000 C 
ATOM      6  C   UNL     1      46.181  34.252  41.026  0.00  0.00    +0.000 C 
ATOM      7  H   UNL     1      48.763  33.764  42.153  0.00  0.00    +0.000 HD
ATOM      8  H   UNL     1      48.671  35.328  43.128  0.00  0.00    +0.000 HD
ATOM      9  H   UNL     1      49.782  35.609  40.991  0.00  0.00    +0.000 HD
ATOM     10  H   UNL     1      48.175  36.491  40.978  0.00  0.00    +0.000 HD
ATOM     11  H   UNL     1      49.194  33.997  39.501  0.00  0.00    +0.000 HD
ATOM     12  H   UNL     1      48.212  35.344  38.906  0.00  0.00    +0.000 HD
ATOM     13  H   UNL     1      46.493  33.813  38.966  0.00  0.00    +0.000 HD
ATOM     14  H   UNL     1      47.380  32.795  40.097  0.00  0.00    +0.000 HD
ATOM     15  H   UNL     1      45.536  35.104  40.691  0.00  0.00    +0.000 HD
ENDROOT
BRANCH   1  18
ATOM     16  C   UNL     1      44.510  35.993  44.765  0.00  0.00    +0.000 A 
ATOM     17  C   UNL     1      45.231  35.888  43.571  0.00  0.00    +0.000 A 
ATOM     18  C   UNL     1      46.110  34.788  43.412  0.00  0.00    +0.000 A 
ATOM     19  N   UNL     1      46.197  33.898  44.436  0.00  0.00    +0.000 NA
ATOM     20  C   UNL     1      45.473  34.045  45.578  0.00  0.00    +0.000 A 
ATOM     21  N   UNL     1      44.636  35.090  45.732  0.00  0.00    +0.000 NA
ATOM     22  H   UNL     1      43.884  36.875  44.745  0.00  0.00    +0.000 HD
ATOM     23  H   UNL     1      45.184  36.576  42.742  0.00  0.00    +0.000 HD
ATOM     24  H   UNL     1      45.557  33.326  46.381  0.00  0.00    +0.000 HD
ENDBRANCH   1  18
BRANCH   6  25
ATOM     25  O   UNL     1      45.348  33.155  41.310  0.00  0.00    +0.000 OA
BRANCH  25  26
ATOM     26  C   UNL     1      43.982  33.143  41.194  0.00  0.00    +0.000 A 
ATOM     27  N   UNL     1      43.059  33.703  41.992  0.00  0.00    +0.000 NA
ATOM     28  C   UNL     1      41.752  33.606  41.750  0.00  0.00    +0.000 A 
ATOM     29  N   UNL     1      41.293  32.926  40.667  0.00  0.00    +0.000 NA
ATOM     30  C   UNL     1      42.161  32.344  39.830  0.00  0.00    +0.000 A 
ATOM     31  C   UNL     1      41.696  31.655  38.732  0.00  0.00    +0.000 A 
ATOM     32  C   UNL     1      42.552  31.043  37.849  0.00  0.00    +0.000 A 
ATOM     33  H   UNL     1      42.281  30.479  36.958  0.00  0.00    +0.000 HD
ATOM     34  C   UNL     1      43.892  31.130  38.079  0.00  0.00    +0.000 A 
ATOM     35  H   UNL     1      44.634  30.680  37.436  0.00  0.00    +0.000 HD
ATOM     36  C   UNL     1      44.346  31.823  39.182  0.00  0.00    +0.000 A 
ATOM     37  C   UNL     1      43.514  32.451  40.092  0.00  0.00    +0.000 A 
ENDBRANCH  25  26
ENDBRANCH   6  25
TORSDOF 3
