
     RDKit          3D

 25 27  0  0  0  0  0  0  0  0999 V2000
   44.5443   36.0271   44.5247 C   0  0  0  0  0  0  0  0  0  0  0  0
   45.2606   35.8930   43.3191 C   0  0  0  0  0  0  0  0  0  0  0  0
   46.1288   34.7956   43.2096 C   0  0  0  0  0  0  0  0  0  0  0  0
   46.2282   33.9412   44.2505 N   0  0  0  0  0  0  0  0  0  0  0  0
   45.5283   34.0946   45.3960 C   0  0  0  0  0  0  0  0  0  0  0  0
   44.6941   35.1381   45.5172 N   0  0  0  0  0  0  0  0  0  0  0  0
   47.0667   34.5635   41.7118 S   0  0  0  0  0  0  0  0  0  0  0  0
   43.8934   36.8760   44.5689 H   0  0  0  0  0  0  0  0  0  0  0  0
   45.1356   36.6071   42.5310 H   0  0  0  0  0  0  0  0  0  0  0  0
   45.5943   33.4211   46.2405 H   0  0  0  0  0  0  0  0  0  0  0  0
   46.0789   33.5554   40.6157 C   0  0  0  0  0  0  0  0  0  0  0  0
   45.0447   34.2174   40.0222 N   0  0  0  0  0  0  0  0  0  0  0  0
   44.2072   33.5898   39.1658 C   0  0  0  0  0  0  0  0  0  0  0  0
   44.4424   32.2948   38.9311 N   0  0  0  0  0  0  0  0  0  0  0  0
   45.4302   31.5791   39.4710 C   0  0  0  0  0  0  0  0  0  0  0  0
   45.6472   30.2420   39.2089 C   0  0  0  0  0  0  0  0  0  0  0  0
   46.7045   29.5923   39.8244 C   0  0  0  0  0  0  0  0  0  0  0  0
   46.8498   28.5415   39.5989 H   0  0  0  0  0  0  0  0  0  0  0  0
   47.5333   30.2746   40.6916 C   0  0  0  0  0  0  0  0  0  0  0  0
   48.3548   29.7316   41.1576 H   0  0  0  0  0  0  0  0  0  0  0  0
   47.3571   31.6253   40.9902 C   0  0  0  0  0  0  0  0  0  0  0  0
   46.2860   32.2126   40.3437 C   0  0  0  0  0  0  0  0  0  0  0  0
   43.3926   34.1540   38.7120 H   0  0  0  0  0  0  0  0  0  0  0  0
   44.9567   29.7869   38.5229 H   0  0  0  0  0  0  0  0  0  0  0  0
   47.9984   32.1728   41.6676 H   0  0  0  0  0  0  0  0  0  0  0  0
  1  6  2  0
  2  1  1  0
  3  2  2  0
  3  4  1  0
  4  5  2  0
  5  6  1  0
  7  3  1  0
  1  8  1  0
  2  9  1  0
  5 10  1  0
 11 12  2  0
 12 13  1  0
 13 14  2  0
 14 15  1  0
 15 16  2  0
 16 17  1  0
 17 18  1  0
 17 19  2  0
 19 20  1  0
 19 21  1  0
 21 22  2  0
 22 11  1  0
 22 15  1  0
 13 23  1  0
 16 24  1  0
 21 25  1  0
  7 11  1  0
M  ISO  5   8  14   9  14  10  14  18  16  20  16
M  END
>  <DihAtoms>  (1) 
2,6,10,11

>  <DihDeg>  (1) 
-89.61400676986321

$$$$
