
 OpenBabel03252507053D

 50 54  0  0  0  0  0  0  0  0999 V2000
   36.4870   29.8460   38.9410 N   0  0  0  0  0  0  0  0  0  0  0  0
   37.5090   30.3670   38.0980 C   0  0  0  0  0  0  0  0  0  0  0  0
   37.3300   31.8540   38.4020 C   0  0  0  0  0  0  0  0  0  0  0  0
   37.5250   32.1980   39.8000 C   0  0  0  0  0  0  0  0  0  0  0  0
   37.3350   31.1820   40.8120 C   0  0  0  0  0  0  0  0  0  0  0  0
   36.7420   29.8540   40.4010 C   0  0  0  0  0  0  0  0  0  0  0  0
   38.5180   30.0060   38.2060 H   0  0  0  0  0  0  0  0  0  0  0  0
   37.1240   30.2620   37.0400 H   0  0  0  0  0  0  0  0  0  0  0  0
   37.9730   32.4520   37.7240 H   0  0  0  0  0  0  0  0  0  0  0  0
   36.2730   32.0720   38.0880 H   0  0  0  0  0  0  0  0  0  0  0  0
   38.5530   32.6210   39.9450 H   0  0  0  0  0  0  0  0  0  0  0  0
   36.8510   33.0650   40.0570 H   0  0  0  0  0  0  0  0  0  0  0  0
   37.5490   31.2710   41.8370 H   0  0  0  0  0  0  0  0  0  0  0  0
   35.2980   29.3560   38.5880 C   0  0  0  0  0  0  0  0  0  0  0  0
   34.7410   28.8380   39.4430 H   0  0  0  0  0  0  0  0  0  0  0  0
   34.5810   30.1360   38.2530 H   0  0  0  0  0  0  0  0  0  0  0  0
   35.3690   28.3180   37.5250 C   0  0  0  0  0  0  0  0  0  0  0  0
   36.1060   28.5830   36.7170 H   0  0  0  0  0  0  0  0  0  0  0  0
   35.6940   27.3230   37.9000 H   0  0  0  0  0  0  0  0  0  0  0  0
   34.0190   28.1420   36.9610 C   0  0  0  0  0  0  0  0  0  0  0  0
   33.7110   27.0180   36.2260 C   0  0  0  0  0  0  0  0  0  0  0  0
   32.4300   26.9070   35.7060 C   0  0  0  0  0  0  0  0  0  0  0  0
   31.5400   27.9140   35.9490 N   0  0  0  0  0  0  0  0  0  0  0  0
   31.8720   28.9840   36.6660 C   0  0  0  0  0  0  0  0  0  0  0  0
   33.1130   29.0730   37.1570 N   0  0  0  0  0  0  0  0  0  0  0  0
   34.2530   26.1330   35.9450 H   0  0  0  0  0  0  0  0  0  0  0  0
   32.0100   26.1020   35.1050 H   0  0  0  0  0  0  0  0  0  0  0  0
   30.8470   30.0000   36.9010 C   0  0  0  0  0  0  0  0  0  0  0  0
   30.8930   31.2200   36.2330 C   0  0  0  0  0  0  0  0  0  0  0  0
   29.9290   32.1670   36.4640 C   0  0  0  0  0  0  0  0  0  0  0  0
   28.9740   31.7990   37.3730 C   0  0  0  0  0  0  0  0  0  0  0  0
   28.8730   30.5930   38.0760 C   0  0  0  0  0  0  0  0  0  0  0  0
   29.8680   29.7170   37.7840 N   0  0  0  0  0  0  0  0  0  0  0  0
   31.6870   31.4450   35.5200 H   0  0  0  0  0  0  0  0  0  0  0  0
   29.8780   33.1370   36.0000 H   0  0  0  0  0  0  0  0  0  0  0  0
   28.1720   32.5180   37.6010 H   0  0  0  0  0  0  0  0  0  0  0  0
   28.0880   30.4060   38.7630 H   0  0  0  0  0  0  0  0  0  0  0  0
   36.3930   28.5810   41.5220 S   0  0  0  0  0  0  0  0  0  0  0  0
   37.0510   27.0350   41.0420 C   0  0  0  0  0  0  0  0  0  0  0  0
   36.8240   26.2070   40.0290 N   0  0  0  0  0  0  0  0  0  0  0  0
   37.4250   25.0500   39.8150 C   0  0  0  0  0  3  0  0  0  0  0  0
   38.3580   24.6190   40.6620 N   0  0  0  0  0  0  0  0  0  0  0  0
   38.6770   25.3750   41.7340 C   0  0  0  0  0  0  0  0  0  0  0  0
   39.6490   24.8480   42.5480 C   0  0  0  0  0  3  0  0  0  0  0  0
   40.0200   25.5660   43.6550 C   0  0  0  0  0  0  0  0  0  0  0  0
   40.7700   25.2560   44.3640 H   0  0  0  0  0  0  0  0  0  0  0  0
   39.4250   26.7620   43.9110 C   0  0  0  0  0  0  0  0  0  0  0  0
   39.6800   27.3720   44.7700 H   0  0  0  0  0  0  0  0  0  0  0  0
   38.4560   27.2490   43.0660 C   0  0  0  0  0  3  0  0  0  0  0  0
   38.0260   26.5830   41.9270 C   0  0  0  0  0  0  0  0  0  0  0  0
  1  6  1  0  0  0  0
  2  7  1  0  0  0  0
  2  3  1  0  0  0  0
  2  1  1  0  0  0  0
  3  4  1  0  0  0  0
  4 11  1  0  0  0  0
  4 12  1  0  0  0  0
  4  5  1  0  0  0  0
  5 13  1  0  0  0  0
  6  5  2  0  0  0  0
  6 38  1  0  0  0  0
  8  2  1  0  0  0  0
  9  3  1  0  0  0  0
 10  3  1  0  0  0  0
 14  1  1  0  0  0  0
 14 15  1  0  0  0  0
 16 14  1  0  0  0  0
 17 19  1  0  0  0  0
 17 14  1  0  0  0  0
 18 17  1  0  0  0  0
 20 25  1  0  0  0  0
 20 17  1  0  0  0  0
 21 20  2  0  0  0  0
 22 23  2  0  0  0  0
 22 21  1  0  0  0  0
 23 24  1  0  0  0  0
 24 28  1  0  0  0  0
 24 25  2  0  0  0  0
 26 21  1  0  0  0  0
 27 22  1  0  0  0  0
 28 33  1  0  0  0  0
 29 30  1  0  0  0  0
 29 28  2  0  0  0  0
 30 31  2  0  0  0  0
 31 36  1  0  0  0  0
 31 32  1  0  0  0  0
 32 37  1  0  0  0  0
 33 32  2  0  0  0  0
 34 29  1  0  0  0  0
 35 30  1  0  0  0  0
 39 38  1  0  0  0  0
 39 50  1  0  0  0  0
 40 39  2  0  0  0  0
 41 40  1  0  0  0  0
 41 42  2  0  0  0  0
 42 43  1  0  0  0  0
 43 50  2  0  0  0  0
 43 44  1  0  0  0  0
 44 45  2  0  0  0  0
 45 47  1  0  0  0  0
 45 46  1  0  0  0  0
 47 48  1  0  0  0  0
 49 47  2  0  0  0  0
 50 49  1  0  0  0  0
M  END
>  <minimizedAffinity>
-6.34340477

$$$$

 OpenBabel03252507053D

 50 54  0  0  0  0  0  0  0  0999 V2000
   35.6250   28.2940   36.4900 N   0  0  0  0  0  0  0  0  0  0  0  0
   36.7200   27.3980   36.3300 C   0  0  0  0  0  0  0  0  0  0  0  0
   36.5280   26.5630   37.5960 C   0  0  0  0  0  0  0  0  0  0  0  0
   35.2480   25.8800   37.6650 C   0  0  0  0  0  0  0  0  0  0  0  0
   34.1260   26.4040   36.9170 C   0  0  0  0  0  0  0  0  0  0  0  0
   34.2650   27.7530   36.2530 C   0  0  0  0  0  0  0  0  0  0  0  0
   36.8030   26.8230   35.4220 H   0  0  0  0  0  0  0  0  0  0  0  0
   37.6510   28.0010   36.5440 H   0  0  0  0  0  0  0  0  0  0  0  0
   37.3870   25.8710   37.7180 H   0  0  0  0  0  0  0  0  0  0  0  0
   36.6210   27.3100   38.4310 H   0  0  0  0  0  0  0  0  0  0  0  0
   35.3760   24.8090   37.3650 H   0  0  0  0  0  0  0  0  0  0  0  0
   34.9330   25.8090   38.7460 H   0  0  0  0  0  0  0  0  0  0  0  0
   33.1870   25.9460   36.7940 H   0  0  0  0  0  0  0  0  0  0  0  0
   35.6570   29.5780   36.8480 C   0  0  0  0  0  0  0  0  0  0  0  0
   35.1570   30.2790   36.0940 H   0  0  0  0  0  0  0  0  0  0  0  0
   35.1090   29.7870   37.7920 H   0  0  0  0  0  0  0  0  0  0  0  0
   37.0320   30.1260   36.9910 C   0  0  0  0  0  0  0  0  0  0  0  0
   37.8240   29.3730   36.7210 H   0  0  0  0  0  0  0  0  0  0  0  0
   37.2290   31.0030   36.3370 H   0  0  0  0  0  0  0  0  0  0  0  0
   37.2040   30.5830   38.3820 C   0  0  0  0  0  0  0  0  0  0  0  0
   37.1790   31.9280   38.6820 C   0  0  0  0  0  0  0  0  0  0  0  0
   37.3590   32.3070   40.0050 C   0  0  0  0  0  0  0  0  0  0  0  0
   37.5480   31.3300   40.9400 N   0  0  0  0  0  0  0  0  0  0  0  0
   37.5640   30.0410   40.6130 C   0  0  0  0  0  0  0  0  0  0  0  0
   37.3900   29.6970   39.3330 N   0  0  0  0  0  0  0  0  0  0  0  0
   37.0310   32.8240   38.1060 H   0  0  0  0  0  0  0  0  0  0  0  0
   37.3720   33.3110   40.4260 H   0  0  0  0  0  0  0  0  0  0  0  0
   37.7440   29.0620   41.6850 C   0  0  0  0  0  0  0  0  0  0  0  0
   36.6660   28.3150   42.1500 C   0  0  0  0  0  0  0  0  0  0  0  0
   36.8460   27.4040   43.1580 C   0  0  0  0  0  0  0  0  0  0  0  0
   38.1290   27.3160   43.6270 C   0  0  0  0  0  0  0  0  0  0  0  0
   39.2510   28.0370   43.2030 C   0  0  0  0  0  0  0  0  0  0  0  0
   38.9800   28.9140   42.2040 N   0  0  0  0  0  0  0  0  0  0  0  0
   35.6680   28.4390   41.7280 H   0  0  0  0  0  0  0  0  0  0  0  0
   36.0780   26.7810   43.5850 H   0  0  0  0  0  0  0  0  0  0  0  0
   38.3370   26.6010   44.4370 H   0  0  0  0  0  0  0  0  0  0  0  0
   40.2090   27.8930   43.6350 H   0  0  0  0  0  0  0  0  0  0  0  0
   32.9780   28.5270   35.3920 S   0  0  0  0  0  0  0  0  0  0  0  0
   31.9230   29.4680   36.4190 C   0  0  0  0  0  0  0  0  0  0  0  0
   31.5770   29.4010   37.6990 N   0  0  0  0  0  0  0  0  0  0  0  0
   30.7460   30.2130   38.3280 C   0  0  0  0  0  3  0  0  0  0  0  0
   30.1680   31.2160   37.6680 N   0  0  0  0  0  0  0  0  0  0  0  0
   30.4430   31.3870   36.3570 C   0  0  0  0  0  0  0  0  0  0  0  0
   29.8010   32.4460   35.7640 C   0  0  0  0  0  3  0  0  0  0  0  0
   30.0350   32.6770   34.4340 C   0  0  0  0  0  0  0  0  0  0  0  0
   29.5920   33.4750   33.8620 H   0  0  0  0  0  0  0  0  0  0  0  0
   30.8840   31.8630   33.7500 C   0  0  0  0  0  0  0  0  0  0  0  0
   31.1070   31.9990   32.6970 H   0  0  0  0  0  0  0  0  0  0  0  0
   31.5040   30.8150   34.3880 C   0  0  0  0  0  3  0  0  0  0  0  0
   31.3190   30.5160   35.7310 C   0  0  0  0  0  0  0  0  0  0  0  0
  1 14  1  0  0  0  0
  2  1  1  0  0  0  0
  2  8  1  0  0  0  0
  2  3  1  0  0  0  0
  3  4  1  0  0  0  0
  3  9  1  0  0  0  0
  3 10  1  0  0  0  0
  4 12  1  0  0  0  0
  5  4  1  0  0  0  0
  6  1  1  0  0  0  0
  6  5  2  0  0  0  0
  7  2  1  0  0  0  0
 11  4  1  0  0  0  0
 13  5  1  0  0  0  0
 14 17  1  0  0  0  0
 14 16  1  0  0  0  0
 15 14  1  0  0  0  0
 17 20  1  0  0  0  0
 18 17  1  0  0  0  0
 19 17  1  0  0  0  0
 20 21  2  0  0  0  0
 20 25  1  0  0  0  0
 21 22  1  0  0  0  0
 22 27  1  0  0  0  0
 22 23  2  0  0  0  0
 24 23  1  0  0  0  0
 24 28  1  0  0  0  0
 25 24  2  0  0  0  0
 26 21  1  0  0  0  0
 28 29  2  0  0  0  0
 28 33  1  0  0  0  0
 29 30  1  0  0  0  0
 30 35  1  0  0  0  0
 30 31  2  0  0  0  0
 31 36  1  0  0  0  0
 32 31  1  0  0  0  0
 32 37  1  0  0  0  0
 33 32  2  0  0  0  0
 34 29  1  0  0  0  0
 38  6  1  0  0  0  0
 38 39  1  0  0  0  0
 39 40  1  0  0  0  0
 40 41  2  0  0  0  0
 42 41  1  0  0  0  0
 43 42  2  0  0  0  0
 44 43  1  0  0  0  0
 45 44  2  0  0  0  0
 46 45  1  0  0  0  0
 47 49  2  0  0  0  0
 47 45  1  0  0  0  0
 48 47  1  0  0  0  0
 49 50  1  0  0  0  0
 50 43  1  0  0  0  0
 50 39  2  0  0  0  0
M  END
>  <minimizedAffinity>
-6.33451939

$$$$

 OpenBabel03252507053D

 50 54  0  0  0  0  0  0  0  0999 V2000
   37.2470   29.4030   39.3500 N   0  0  0  0  0  0  0  0  0  0  0  0
   38.1000   29.9670   38.3580 C   0  0  0  0  0  0  0  0  0  0  0  0
   37.2890   31.2210   38.0350 C   0  0  0  0  0  0  0  0  0  0  0  0
   37.0880   32.1030   39.1710 C   0  0  0  0  0  0  0  0  0  0  0  0
   37.1540   31.5590   40.5100 C   0  0  0  0  0  0  0  0  0  0  0  0
   37.2250   30.0590   40.6780 C   0  0  0  0  0  0  0  0  0  0  0  0
   39.1350   30.1500   38.5950 H   0  0  0  0  0  0  0  0  0  0  0  0
   37.9760   29.3230   37.4380 H   0  0  0  0  0  0  0  0  0  0  0  0
   37.7410   31.7420   37.1660 H   0  0  0  0  0  0  0  0  0  0  0  0
   36.3040   30.8230   37.6690 H   0  0  0  0  0  0  0  0  0  0  0  0
   37.8180   32.9530   39.1230 H   0  0  0  0  0  0  0  0  0  0  0  0
   36.0890   32.6160   39.0610 H   0  0  0  0  0  0  0  0  0  0  0  0
   37.1380   32.1040   41.4090 H   0  0  0  0  0  0  0  0  0  0  0  0
   36.4350   28.3520   39.2360 C   0  0  0  0  0  0  0  0  0  0  0  0
   36.4410   27.8740   38.1970 H   0  0  0  0  0  0  0  0  0  0  0  0
   36.7090   27.5080   39.9060 H   0  0  0  0  0  0  0  0  0  0  0  0
   35.0020   28.6720   39.4750 C   0  0  0  0  0  0  0  0  0  0  0  0
   34.5320   27.9930   40.2380 H   0  0  0  0  0  0  0  0  0  0  0  0
   34.8370   29.7010   39.8610 H   0  0  0  0  0  0  0  0  0  0  0  0
   34.2880   28.5800   38.1880 C   0  0  0  0  0  0  0  0  0  0  0  0
   34.6840   27.6680   37.2350 C   0  0  0  0  0  0  0  0  0  0  0  0
   33.9880   27.6300   36.0350 C   0  0  0  0  0  0  0  0  0  0  0  0
   32.9460   28.4960   35.8610 N   0  0  0  0  0  0  0  0  0  0  0  0
   32.5910   29.3630   36.8050 C   0  0  0  0  0  0  0  0  0  0  0  0
   33.2760   29.3840   37.9540 N   0  0  0  0  0  0  0  0  0  0  0  0
   35.4470   26.9110   37.1900 H   0  0  0  0  0  0  0  0  0  0  0  0
   34.1560   26.9850   35.1740 H   0  0  0  0  0  0  0  0  0  0  0  0
   31.4450   30.2330   36.5440 C   0  0  0  0  0  0  0  0  0  0  0  0
   31.2250   30.7510   35.2720 C   0  0  0  0  0  0  0  0  0  0  0  0
   30.1500   31.5700   35.0400 C   0  0  0  0  0  0  0  0  0  0  0  0
   29.3650   31.8050   36.1360 C   0  0  0  0  0  0  0  0  0  0  0  0
   29.5320   31.3170   37.4360 C   0  0  0  0  0  0  0  0  0  0  0  0
   30.6200   30.5160   37.5730 N   0  0  0  0  0  0  0  0  0  0  0  0
   31.8950   30.5200   34.4430 H   0  0  0  0  0  0  0  0  0  0  0  0
   29.8960   32.0190   34.0950 H   0  0  0  0  0  0  0  0  0  0  0  0
   28.4850   32.4560   36.0120 H   0  0  0  0  0  0  0  0  0  0  0  0
   28.8620   31.5610   38.2210 H   0  0  0  0  0  0  0  0  0  0  0  0
   37.2330   29.2750   42.2220 S   0  0  0  0  0  0  0  0  0  0  0  0
   38.6780   28.3370   42.5170 C   0  0  0  0  0  0  0  0  0  0  0  0
   39.9400   28.6440   42.7920 N   0  0  0  0  0  0  0  0  0  0  0  0
   40.9280   27.7890   42.9890 C   0  0  0  0  0  3  0  0  0  0  0  0
   40.6970   26.4790   42.9190 N   0  0  0  0  0  0  0  0  0  0  0  0
   39.4490   26.0420   42.6450 C   0  0  0  0  0  0  0  0  0  0  0  0
   39.3100   24.6780   42.5940 C   0  0  0  0  0  3  0  0  0  0  0  0
   38.0680   24.1670   42.3200 C   0  0  0  0  0  0  0  0  0  0  0  0
   37.8370   23.1170   42.2540 H   0  0  0  0  0  0  0  0  0  0  0  0
   37.0250   25.0140   42.1100 C   0  0  0  0  0  0  0  0  0  0  0  0
   36.0210   24.6660   41.8900 H   0  0  0  0  0  0  0  0  0  0  0  0
   37.2130   26.3750   42.1720 C   0  0  0  0  0  3  0  0  0  0  0  0
   38.4380   26.9680   42.4440 C   0  0  0  0  0  0  0  0  0  0  0  0
  1  6  1  0  0  0  0
  2  7  1  0  0  0  0
  2  1  1  0  0  0  0
  3  2  1  0  0  0  0
  3  4  1  0  0  0  0
  4  5  1  0  0  0  0
  5  6  2  0  0  0  0
  5 13  1  0  0  0  0
  6 38  1  0  0  0  0
  8  2  1  0  0  0  0
  9  3  1  0  0  0  0
 10  3  1  0  0  0  0
 11  4  1  0  0  0  0
 12  4  1  0  0  0  0
 14  1  1  0  0  0  0
 14 17  1  0  0  0  0
 14 16  1  0  0  0  0
 15 14  1  0  0  0  0
 17 19  1  0  0  0  0
 17 18  1  0  0  0  0
 20 17  1  0  0  0  0
 21 20  2  0  0  0  0
 22 21  1  0  0  0  0
 23 22  2  0  0  0  0
 23 24  1  0  0  0  0
 24 25  2  0  0  0  0
 25 20  1  0  0  0  0
 26 21  1  0  0  0  0
 27 22  1  0  0  0  0
 28 24  1  0  0  0  0
 28 33  1  0  0  0  0
 29 28  2  0  0  0  0
 30 29  1  0  0  0  0
 30 31  2  0  0  0  0
 31 32  1  0  0  0  0
 32 33  2  0  0  0  0
 32 37  1  0  0  0  0
 34 29  1  0  0  0  0
 35 30  1  0  0  0  0
 36 31  1  0  0  0  0
 38 39  1  0  0  0  0
 39 40  1  0  0  0  0
 40 41  2  0  0  0  0
 42 41  1  0  0  0  0
 43 42  2  0  0  0  0
 44 43  1  0  0  0  0
 45 44  2  0  0  0  0
 46 45  1  0  0  0  0
 47 49  2  0  0  0  0
 47 45  1  0  0  0  0
 48 47  1  0  0  0  0
 49 50  1  0  0  0  0
 50 39  2  0  0  0  0
 50 43  1  0  0  0  0
M  END
>  <minimizedAffinity>
-6.33111954

$$$$

 OpenBabel03252507053D

 50 54  0  0  0  0  0  0  0  0999 V2000
   35.7740   29.5440   40.3200 N   0  0  0  0  0  0  0  0  0  0  0  0
   34.6210   29.1320   39.5910 C   0  0  0  0  0  0  0  0  0  0  0  0
   35.3140   28.3400   38.4830 C   0  0  0  0  0  0  0  0  0  0  0  0
   36.1050   27.2200   38.9630 C   0  0  0  0  0  0  0  0  0  0  0  0
   36.6100   27.2410   40.3190 C   0  0  0  0  0  0  0  0  0  0  0  0
   36.4730   28.5120   41.1230 C   0  0  0  0  0  0  0  0  0  0  0  0
   33.8370   28.5970   40.1020 H   0  0  0  0  0  0  0  0  0  0  0  0
   34.2400   30.0560   39.0630 H   0  0  0  0  0  0  0  0  0  0  0  0
   34.5670   28.0370   37.7210 H   0  0  0  0  0  0  0  0  0  0  0  0
   35.9730   29.0970   37.9770 H   0  0  0  0  0  0  0  0  0  0  0  0
   35.5260   26.2690   38.8400 H   0  0  0  0  0  0  0  0  0  0  0  0
   36.9870   27.0770   38.2740 H   0  0  0  0  0  0  0  0  0  0  0  0
   37.0950   26.4530   40.8190 H   0  0  0  0  0  0  0  0  0  0  0  0
   36.3300   30.7540   40.3660 C   0  0  0  0  0  0  0  0  0  0  0  0
   35.5730   31.6060   40.4680 H   0  0  0  0  0  0  0  0  0  0  0  0
   36.9980   30.9000   41.2430 H   0  0  0  0  0  0  0  0  0  0  0  0
   37.1030   31.1050   39.1450 C   0  0  0  0  0  0  0  0  0  0  0  0
   37.7130   30.2410   38.7600 H   0  0  0  0  0  0  0  0  0  0  0  0
   36.4630   31.4120   38.2890 H   0  0  0  0  0  0  0  0  0  0  0  0
   37.9710   32.2540   39.4620 C   0  0  0  0  0  0  0  0  0  0  0  0
   37.4240   33.4910   39.7220 C   0  0  0  0  0  0  0  0  0  0  0  0
   38.2850   34.5420   40.0020 C   0  0  0  0  0  0  0  0  0  0  0  0
   39.6290   34.2970   40.0090 N   0  0  0  0  0  0  0  0  0  0  0  0
   40.1210   33.0880   39.7550 C   0  0  0  0  0  0  0  0  0  0  0  0
   39.2740   32.0890   39.4860 N   0  0  0  0  0  0  0  0  0  0  0  0
   36.4190   33.8720   39.7780 H   0  0  0  0  0  0  0  0  0  0  0  0
   38.0390   35.5790   40.2260 H   0  0  0  0  0  0  0  0  0  0  0  0
   41.5720   32.9100   39.8130 C   0  0  0  0  0  0  0  0  0  0  0  0
   42.1690   31.7840   39.2530 C   0  0  0  0  0  0  0  0  0  0  0  0
   43.5290   31.6260   39.3170 C   0  0  0  0  0  0  0  0  0  0  0  0
   44.1930   32.6390   39.9540 C   0  0  0  0  0  0  0  0  0  0  0  0
   43.6520   33.7910   40.5350 C   0  0  0  0  0  0  0  0  0  0  0  0
   42.3010   33.8640   40.4250 N   0  0  0  0  0  0  0  0  0  0  0  0
   41.5750   31.0150   38.7600 H   0  0  0  0  0  0  0  0  0  0  0  0
   44.0830   30.7940   38.9160 H   0  0  0  0  0  0  0  0  0  0  0  0
   45.2890   32.5680   40.0370 H   0  0  0  0  0  0  0  0  0  0  0  0
   44.2580   34.5210   41.0090 H   0  0  0  0  0  0  0  0  0  0  0  0
   37.0990   28.6950   42.7270 S   0  0  0  0  0  0  0  0  0  0  0  0
   38.6150   27.8640   42.9790 C   0  0  0  0  0  0  0  0  0  0  0  0
   38.9490   26.6020   43.2210 N   0  0  0  0  0  0  0  0  0  0  0  0
   40.1740   26.1360   43.3900 C   0  0  0  0  0  3  0  0  0  0  0  0
   41.2160   26.9640   43.3230 N   0  0  0  0  0  0  0  0  0  0  0  0
   41.0020   28.2750   43.0810 C   0  0  0  0  0  0  0  0  0  0  0  0
   42.1360   29.0470   43.0300 C   0  0  0  0  0  3  0  0  0  0  0  0
   41.9910   30.3880   42.7880 C   0  0  0  0  0  0  0  0  0  0  0  0
   42.8030   31.0920   42.7250 H   0  0  0  0  0  0  0  0  0  0  0  0
   40.7460   30.9070   42.6090 C   0  0  0  0  0  0  0  0  0  0  0  0
   40.5720   31.9600   42.4140 H   0  0  0  0  0  0  0  0  0  0  0  0
   39.6400   30.0930   42.6690 C   0  0  0  0  0  3  0  0  0  0  0  0
   39.7050   28.7280   42.9090 C   0  0  0  0  0  0  0  0  0  0  0  0
  1 14  1  0  0  0  0
  1  6  1  0  0  0  0
  2  7  1  0  0  0  0
  2  1  1  0  0  0  0
  3  4  1  0  0  0  0
  3  2  1  0  0  0  0
  4  5  1  0  0  0  0
  5 13  1  0  0  0  0
  5  6  2  0  0  0  0
  6 38  1  0  0  0  0
  8  2  1  0  0  0  0
  9  3  1  0  0  0  0
 10  3  1  0  0  0  0
 11  4  1  0  0  0  0
 12  4  1  0  0  0  0
 14 15  1  0  0  0  0
 14 16  1  0  0  0  0
 17 20  1  0  0  0  0
 17 14  1  0  0  0  0
 18 17  1  0  0  0  0
 19 17  1  0  0  0  0
 20 25  2  0  0  0  0
 20 21  1  0  0  0  0
 21 26  1  0  0  0  0
 21 22  2  0  0  0  0
 22 23  1  0  0  0  0
 22 27  1  0  0  0  0
 24 28  1  0  0  0  0
 24 23  2  0  0  0  0
 25 24  1  0  0  0  0
 28 33  1  0  0  0  0
 29 30  1  0  0  0  0
 29 28  2  0  0  0  0
 30 31  2  0  0  0  0
 31 36  1  0  0  0  0
 31 32  1  0  0  0  0
 32 37  1  0  0  0  0
 33 32  2  0  0  0  0
 34 29  1  0  0  0  0
 35 30  1  0  0  0  0
 38 39  1  0  0  0  0
 39 40  1  0  0  0  0
 40 41  2  0  0  0  0
 42 41  1  0  0  0  0
 43 42  2  0  0  0  0
 44 43  1  0  0  0  0
 45 44  2  0  0  0  0
 46 45  1  0  0  0  0
 47 49  2  0  0  0  0
 47 45  1  0  0  0  0
 48 47  1  0  0  0  0
 49 50  1  0  0  0  0
 50 39  2  0  0  0  0
 50 43  1  0  0  0  0
M  END
>  <minimizedAffinity>
-6.32626486

$$$$

 OpenBabel03252507053D

 50 54  0  0  0  0  0  0  0  0999 V2000
   35.3860   29.1140   37.6500 N   0  0  0  0  0  0  0  0  0  0  0  0
   36.5010   29.9630   37.3960 C   0  0  0  0  0  0  0  0  0  0  0  0
   37.1880   29.1320   36.3130 C   0  0  0  0  0  0  0  0  0  0  0  0
   36.3720   28.9090   35.1330 C   0  0  0  0  0  0  0  0  0  0  0  0
   34.9310   28.9760   35.2460 C   0  0  0  0  0  0  0  0  0  0  0  0
   34.3180   29.0730   36.6230 C   0  0  0  0  0  0  0  0  0  0  0  0
   36.3310   30.9930   37.1300 H   0  0  0  0  0  0  0  0  0  0  0  0
   37.1840   29.8560   38.2900 H   0  0  0  0  0  0  0  0  0  0  0  0
   38.1740   29.5810   36.0700 H   0  0  0  0  0  0  0  0  0  0  0  0
   37.4180   28.1560   36.8220 H   0  0  0  0  0  0  0  0  0  0  0  0
   36.6740   29.6230   34.3240 H   0  0  0  0  0  0  0  0  0  0  0  0
   36.6320   27.9010   34.6960 H   0  0  0  0  0  0  0  0  0  0  0  0
   34.2380   28.9440   34.4560 H   0  0  0  0  0  0  0  0  0  0  0  0
   35.1770   28.3210   38.7010 C   0  0  0  0  0  0  0  0  0  0  0  0
   34.2990   27.6000   38.5670 H   0  0  0  0  0  0  0  0  0  0  0  0
   36.0320   27.6440   38.9200 H   0  0  0  0  0  0  0  0  0  0  0  0
   34.8500   29.0570   39.9510 C   0  0  0  0  0  0  0  0  0  0  0  0
   34.4580   30.0930   39.7480 H   0  0  0  0  0  0  0  0  0  0  0  0
   34.0640   28.5630   40.5620 H   0  0  0  0  0  0  0  0  0  0  0  0
   36.0650   29.1160   40.7840 C   0  0  0  0  0  0  0  0  0  0  0  0
   36.5950   30.3310   41.1600 C   0  0  0  0  0  0  0  0  0  0  0  0
   37.7470   30.3310   41.9320 C   0  0  0  0  0  0  0  0  0  0  0  0
   38.2950   29.1310   42.2830 N   0  0  0  0  0  0  0  0  0  0  0  0
   37.7540   27.9770   41.9040 C   0  0  0  0  0  0  0  0  0  0  0  0
   36.6440   27.9980   41.1570 N   0  0  0  0  0  0  0  0  0  0  0  0
   36.3100   31.3560   41.0030 H   0  0  0  0  0  0  0  0  0  0  0  0
   38.3050   31.1840   42.3180 H   0  0  0  0  0  0  0  0  0  0  0  0
   38.3920   26.7380   42.3490 C   0  0  0  0  0  0  0  0  0  0  0  0
   39.4340   26.7710   43.2710 C   0  0  0  0  0  0  0  0  0  0  0  0
   40.0270   25.6040   43.6780 C   0  0  0  0  0  0  0  0  0  0  0  0
   39.5100   24.4720   43.1090 C   0  0  0  0  0  0  0  0  0  0  0  0
   38.4680   24.3730   42.1800 C   0  0  0  0  0  0  0  0  0  0  0  0
   37.9410   25.5760   41.8360 N   0  0  0  0  0  0  0  0  0  0  0  0
   39.7950   27.7140   43.6830 H   0  0  0  0  0  0  0  0  0  0  0  0
   40.8370   25.5250   44.3830 H   0  0  0  0  0  0  0  0  0  0  0  0
   39.9460   23.5020   43.3970 H   0  0  0  0  0  0  0  0  0  0  0  0
   38.1400   23.4400   41.7980 H   0  0  0  0  0  0  0  0  0  0  0  0
   32.6100   29.0850   36.9050 S   0  0  0  0  0  0  0  0  0  0  0  0
   31.6640   29.1110   35.4360 C   0  0  0  0  0  0  0  0  0  0  0  0
   31.5270   28.2810   34.4080 N   0  0  0  0  0  0  0  0  0  0  0  0
   30.7500   28.4630   33.3550 C   0  0  0  0  0  3  0  0  0  0  0  0
   30.0070   29.5640   33.2580 N   0  0  0  0  0  0  0  0  0  0  0  0
   30.0610   30.4850   34.2430 C   0  0  0  0  0  0  0  0  0  0  0  0
   29.2620   31.5850   34.0540 C   0  0  0  0  0  3  0  0  0  0  0  0
   29.2680   32.5590   35.0170 C   0  0  0  0  0  0  0  0  0  0  0  0
   28.6840   33.4640   34.9800 H   0  0  0  0  0  0  0  0  0  0  0  0
   30.0550   32.4110   36.1170 C   0  0  0  0  0  0  0  0  0  0  0  0
   30.0990   33.1490   36.9110 H   0  0  0  0  0  0  0  0  0  0  0  0
   30.8390   31.2910   36.2630 C   0  0  0  0  0  3  0  0  0  0  0  0
   30.8870   30.2620   35.3330 C   0  0  0  0  0  0  0  0  0  0  0  0
  1 14  1  0  0  0  0
  2  1  1  0  0  0  0
  2  8  1  0  0  0  0
  3 10  1  0  0  0  0
  3  2  1  0  0  0  0
  4  5  1  0  0  0  0
  4  3  1  0  0  0  0
  5  6  2  0  0  0  0
  6 38  1  0  0  0  0
  6  1  1  0  0  0  0
  7  2  1  0  0  0  0
  9  3  1  0  0  0  0
 11  4  1  0  0  0  0
 12  4  1  0  0  0  0
 13  5  1  0  0  0  0
 14 16  1  0  0  0  0
 14 17  1  0  0  0  0
 15 14  1  0  0  0  0
 17 19  1  0  0  0  0
 17 20  1  0  0  0  0
 18 17  1  0  0  0  0
 20 25  2  0  0  0  0
 20 21  1  0  0  0  0
 21 22  2  0  0  0  0
 22 23  1  0  0  0  0
 22 27  1  0  0  0  0
 24 23  2  0  0  0  0
 24 28  1  0  0  0  0
 25 24  1  0  0  0  0
 26 21  1  0  0  0  0
 28 29  1  0  0  0  0
 29 30  2  0  0  0  0
 29 34  1  0  0  0  0
 30 35  1  0  0  0  0
 31 36  1  0  0  0  0
 31 30  1  0  0  0  0
 32 31  2  0  0  0  0
 33 32  1  0  0  0  0
 33 28  2  0  0  0  0
 37 32  1  0  0  0  0
 39 38  1  0  0  0  0
 40 39  2  0  0  0  0
 41 40  1  0  0  0  0
 42 41  2  0  0  0  0
 42 43  1  0  0  0  0
 43 50  1  0  0  0  0
 44 43  2  0  0  0  0
 44 45  1  0  0  0  0
 45 47  2  0  0  0  0
 46 45  1  0  0  0  0
 47 49  1  0  0  0  0
 47 48  1  0  0  0  0
 50 39  1  0  0  0  0
 50 49  2  0  0  0  0
M  END
>  <minimizedAffinity>
-6.29091167

$$$$

 OpenBabel03252507053D

 50 54  0  0  0  0  0  0  0  0999 V2000
   37.4290   31.3390   40.3050 N   0  0  0  0  0  0  0  0  0  0  0  0
   37.2930   31.9190   39.0110 C   0  0  0  0  0  0  0  0  0  0  0  0
   37.1460   33.3830   39.4240 C   0  0  0  0  0  0  0  0  0  0  0  0
   38.2840   33.9070   40.1580 C   0  0  0  0  0  0  0  0  0  0  0  0
   39.1440   32.9930   40.8770 C   0  0  0  0  0  0  0  0  0  0  0  0
   38.7160   31.5510   41.0110 C   0  0  0  0  0  0  0  0  0  0  0  0
   38.0520   31.7370   38.2680 H   0  0  0  0  0  0  0  0  0  0  0  0
   36.2600   31.6370   38.6500 H   0  0  0  0  0  0  0  0  0  0  0  0
   36.8940   33.9970   38.5340 H   0  0  0  0  0  0  0  0  0  0  0  0
   36.2240   33.3940   40.0680 H   0  0  0  0  0  0  0  0  0  0  0  0
   38.9370   34.5020   39.4680 H   0  0  0  0  0  0  0  0  0  0  0  0
   37.9170   34.6800   40.8940 H   0  0  0  0  0  0  0  0  0  0  0  0
   40.0530   33.2290   41.3500 H   0  0  0  0  0  0  0  0  0  0  0  0
   36.5310   30.6300   40.9880 C   0  0  0  0  0  0  0  0  0  0  0  0
   36.9310   30.2040   41.9720 H   0  0  0  0  0  0  0  0  0  0  0  0
   35.6490   31.2260   41.3080 H   0  0  0  0  0  0  0  0  0  0  0  0
   36.0300   29.4350   40.2580 C   0  0  0  0  0  0  0  0  0  0  0  0
   34.9190   29.4750   40.0810 H   0  0  0  0  0  0  0  0  0  0  0  0
   36.4800   29.3110   39.2500 H   0  0  0  0  0  0  0  0  0  0  0  0
   36.3880   28.2350   41.0360 C   0  0  0  0  0  0  0  0  0  0  0  0
   36.3880   28.2710   42.4130 C   0  0  0  0  0  0  0  0  0  0  0  0
   36.7460   27.1180   43.0980 C   0  0  0  0  0  0  0  0  0  0  0  0
   37.0780   26.0090   42.3750 N   0  0  0  0  0  0  0  0  0  0  0  0
   37.0650   26.0110   41.0450 C   0  0  0  0  0  0  0  0  0  0  0  0
   36.7180   27.1320   40.4030 N   0  0  0  0  0  0  0  0  0  0  0  0
   36.1480   29.0210   43.1450 H   0  0  0  0  0  0  0  0  0  0  0  0
   36.8050   26.9600   44.1740 H   0  0  0  0  0  0  0  0  0  0  0  0
   37.4070   24.7690   40.3510 C   0  0  0  0  0  0  0  0  0  0  0  0
   37.6450   23.6010   41.0690 C   0  0  0  0  0  0  0  0  0  0  0  0
   37.9690   22.4440   40.4090 C   0  0  0  0  0  0  0  0  0  0  0  0
   38.0300   22.5610   39.0460 C   0  0  0  0  0  0  0  0  0  0  0  0
   37.8030   23.7020   38.2700 C   0  0  0  0  0  0  0  0  0  0  0  0
   37.4880   24.7990   39.0060 N   0  0  0  0  0  0  0  0  0  0  0  0
   37.5790   23.5820   42.1570 H   0  0  0  0  0  0  0  0  0  0  0  0
   38.1710   21.4930   40.8720 H   0  0  0  0  0  0  0  0  0  0  0  0
   38.2860   21.6650   38.4610 H   0  0  0  0  0  0  0  0  0  0  0  0
   37.8760   23.6880   37.2120 H   0  0  0  0  0  0  0  0  0  0  0  0
   39.6120   30.3710   41.9070 S   0  0  0  0  0  0  0  0  0  0  0  0
   39.9600   28.9230   40.9930 C   0  0  0  0  0  0  0  0  0  0  0  0
   40.0340   28.6410   39.6980 N   0  0  0  0  0  0  0  0  0  0  0  0
   40.3150   27.4640   39.1680 C   0  0  0  0  0  3  0  0  0  0  0  0
   40.5590   26.4200   39.9590 N   0  0  0  0  0  0  0  0  0  0  0  0
   40.5140   26.5820   41.2990 C   0  0  0  0  0  0  0  0  0  0  0  0
   40.7790   25.4510   42.0290 C   0  0  0  0  0  3  0  0  0  0  0  0
   40.7500   25.5460   43.3960 C   0  0  0  0  0  0  0  0  0  0  0  0
   40.9420   24.7300   44.0730 H   0  0  0  0  0  0  0  0  0  0  0  0
   40.4640   26.7400   43.9800 C   0  0  0  0  0  0  0  0  0  0  0  0
   40.4280   26.8740   45.0560 H   0  0  0  0  0  0  0  0  0  0  0  0
   40.2050   27.8470   43.2060 C   0  0  0  0  0  3  0  0  0  0  0  0
   40.2160   27.8310   41.8180 C   0  0  0  0  0  0  0  0  0  0  0  0
  1 14  1  0  0  0  0
  1  6  1  0  0  0  0
  2  3  1  0  0  0  0
  2  1  1  0  0  0  0
  3 10  1  0  0  0  0
  3  4  1  0  0  0  0
  4  5  1  0  0  0  0
  4 12  1  0  0  0  0
  5  6  2  0  0  0  0
  5 13  1  0  0  0  0
  6 38  1  0  0  0  0
  7  2  1  0  0  0  0
  8  2  1  0  0  0  0
  9  3  1  0  0  0  0
 11  4  1  0  0  0  0
 14 16  1  0  0  0  0
 14 15  1  0  0  0  0
 17 14  1  0  0  0  0
 17 20  1  0  0  0  0
 18 17  1  0  0  0  0
 19 17  1  0  0  0  0
 20 21  1  0  0  0  0
 21 22  2  0  0  0  0
 21 26  1  0  0  0  0
 22 27  1  0  0  0  0
 23 22  1  0  0  0  0
 24 23  2  0  0  0  0
 25 20  2  0  0  0  0
 25 24  1  0  0  0  0
 28 24  1  0  0  0  0
 28 29  1  0  0  0  0
 29 34  1  0  0  0  0
 30 35  1  0  0  0  0
 30 29  2  0  0  0  0
 31 30  1  0  0  0  0
 32 33  1  0  0  0  0
 32 31  2  0  0  0  0
 33 28  2  0  0  0  0
 36 31  1  0  0  0  0
 37 32  1  0  0  0  0
 39 50  1  0  0  0  0
 39 38  1  0  0  0  0
 40 39  2  0  0  0  0
 41 40  1  0  0  0  0
 41 42  2  0  0  0  0
 42 43  1  0  0  0  0
 43 50  2  0  0  0  0
 43 44  1  0  0  0  0
 44 45  2  0  0  0  0
 45 47  1  0  0  0  0
 45 46  1  0  0  0  0
 47 48  1  0  0  0  0
 49 47  2  0  0  0  0
 50 49  1  0  0  0  0
M  END
>  <minimizedAffinity>
-6.26698017

$$$$

 OpenBabel03252507053D

 50 54  0  0  0  0  0  0  0  0999 V2000
   38.2870   29.8570   41.3480 N   0  0  0  0  0  0  0  0  0  0  0  0
   36.9880   29.5470   40.8530 C   0  0  0  0  0  0  0  0  0  0  0  0
   36.3450   30.9260   40.9960 C   0  0  0  0  0  0  0  0  0  0  0  0
   37.0050   31.9670   40.2280 C   0  0  0  0  0  0  0  0  0  0  0  0
   38.3970   31.8050   39.8660 C   0  0  0  0  0  0  0  0  0  0  0  0
   39.1730   30.6590   40.4710 C   0  0  0  0  0  0  0  0  0  0  0  0
   36.8870   29.1040   39.8760 H   0  0  0  0  0  0  0  0  0  0  0  0
   36.4860   28.9320   41.6580 H   0  0  0  0  0  0  0  0  0  0  0  0
   35.2610   30.8550   40.7720 H   0  0  0  0  0  0  0  0  0  0  0  0
   36.4140   31.1460   42.0960 H   0  0  0  0  0  0  0  0  0  0  0  0
   36.4370   32.1550   39.2800 H   0  0  0  0  0  0  0  0  0  0  0  0
   36.9090   32.9440   40.7840 H   0  0  0  0  0  0  0  0  0  0  0  0
   38.9540   32.4250   39.2250 H   0  0  0  0  0  0  0  0  0  0  0  0
   38.8190   29.5310   42.5260 C   0  0  0  0  0  0  0  0  0  0  0  0
   39.8280   28.9990   42.4450 H   0  0  0  0  0  0  0  0  0  0  0  0
   39.0460   30.4110   43.1670 H   0  0  0  0  0  0  0  0  0  0  0  0
   37.9830   28.5940   43.3230 C   0  0  0  0  0  0  0  0  0  0  0  0
   37.9270   28.8870   44.4080 H   0  0  0  0  0  0  0  0  0  0  0  0
   36.9260   28.5440   42.9810 H   0  0  0  0  0  0  0  0  0  0  0  0
   38.5430   27.2390   43.1790 C   0  0  0  0  0  0  0  0  0  0  0  0
   39.6400   26.8550   43.9200 C   0  0  0  0  0  0  0  0  0  0  0  0
   40.1380   25.5730   43.7370 C   0  0  0  0  0  0  0  0  0  0  0  0
   39.5150   24.7570   42.8370 N   0  0  0  0  0  0  0  0  0  0  0  0
   38.4560   25.1610   42.1410 C   0  0  0  0  0  0  0  0  0  0  0  0
   37.9930   26.4010   42.3300 N   0  0  0  0  0  0  0  0  0  0  0  0
   40.2450   27.3340   44.6700 H   0  0  0  0  0  0  0  0  0  0  0  0
   40.9880   25.1000   44.2260 H   0  0  0  0  0  0  0  0  0  0  0  0
   37.8350   24.2100   41.2190 C   0  0  0  0  0  0  0  0  0  0  0  0
   36.5350   24.4100   40.7660 C   0  0  0  0  0  0  0  0  0  0  0  0
   35.9610   23.5100   39.9060 C   0  0  0  0  0  0  0  0  0  0  0  0
   36.7640   22.4550   39.5650 C   0  0  0  0  0  0  0  0  0  0  0  0
   38.0730   22.1980   39.9860 C   0  0  0  0  0  0  0  0  0  0  0  0
   38.5590   23.1390   40.8330 N   0  0  0  0  0  0  0  0  0  0  0  0
   35.9530   25.2770   41.0810 H   0  0  0  0  0  0  0  0  0  0  0  0
   34.9660   23.5760   39.5000 H   0  0  0  0  0  0  0  0  0  0  0  0
   36.3580   21.6970   38.8760 H   0  0  0  0  0  0  0  0  0  0  0  0
   38.6120   21.3440   39.6600 H   0  0  0  0  0  0  0  0  0  0  0  0
   40.8590   30.3950   40.1830 S   0  0  0  0  0  0  0  0  0  0  0  0
   41.8220   31.8480   40.3130 C   0  0  0  0  0  0  0  0  0  0  0  0
   41.8730   32.8480   41.1850 N   0  0  0  0  0  0  0  0  0  0  0  0
   42.6810   33.8930   41.1300 C   0  0  0  0  0  3  0  0  0  0  0  0
   43.5500   34.0090   40.1270 N   0  0  0  0  0  0  0  0  0  0  0  0
   43.5930   33.0520   39.1760 C   0  0  0  0  0  0  0  0  0  0  0  0
   44.5200   33.2590   38.1850 C   0  0  0  0  0  3  0  0  0  0  0  0
   44.6160   32.3240   37.1880 C   0  0  0  0  0  0  0  0  0  0  0  0
   45.3040   32.3770   36.3610 H   0  0  0  0  0  0  0  0  0  0  0  0
   43.8020   31.2340   37.2080 C   0  0  0  0  0  0  0  0  0  0  0  0
   43.8350   30.4630   36.4460 H   0  0  0  0  0  0  0  0  0  0  0  0
   42.8880   31.0700   38.2220 C   0  0  0  0  0  3  0  0  0  0  0  0
   42.7310   31.9710   39.2670 C   0  0  0  0  0  0  0  0  0  0  0  0
  1 14  1  0  0  0  0
  2  3  1  0  0  0  0
  2  1  1  0  0  0  0
  2  8  1  0  0  0  0
  3 10  1  0  0  0  0
  4 12  1  0  0  0  0
  4  3  1  0  0  0  0
  5  4  1  0  0  0  0
  5  6  2  0  0  0  0
  6  1  1  0  0  0  0
  7  2  1  0  0  0  0
  9  3  1  0  0  0  0
 11  4  1  0  0  0  0
 13  5  1  0  0  0  0
 14 16  1  0  0  0  0
 14 17  1  0  0  0  0
 15 14  1  0  0  0  0
 17 18  1  0  0  0  0
 19 17  1  0  0  0  0
 20 17  1  0  0  0  0
 20 21  1  0  0  0  0
 21 26  1  0  0  0  0
 22 21  2  0  0  0  0
 22 27  1  0  0  0  0
 23 22  1  0  0  0  0
 24 25  1  0  0  0  0
 24 23  2  0  0  0  0
 25 20  2  0  0  0  0
 28 24  1  0  0  0  0
 29 34  1  0  0  0  0
 29 28  2  0  0  0  0
 30 29  1  0  0  0  0
 31 30  2  0  0  0  0
 31 32  1  0  0  0  0
 32 33  2  0  0  0  0
 33 28  1  0  0  0  0
 35 30  1  0  0  0  0
 36 31  1  0  0  0  0
 37 32  1  0  0  0  0
 38 39  1  0  0  0  0
 38  6  1  0  0  0  0
 39 40  1  0  0  0  0
 41 40  2  0  0  0  0
 42 41  1  0  0  0  0
 43 50  1  0  0  0  0
 43 42  2  0  0  0  0
 44 43  1  0  0  0  0
 45 47  1  0  0  0  0
 45 44  2  0  0  0  0
 46 45  1  0  0  0  0
 47 49  2  0  0  0  0
 48 47  1  0  0  0  0
 49 50  1  0  0  0  0
 50 39  2  0  0  0  0
M  END
>  <minimizedAffinity>
-6.2416563

$$$$

 OpenBabel03252507053D

 50 54  0  0  0  0  0  0  0  0999 V2000
   38.4070   26.6090   42.2490 N   0  0  0  0  0  0  0  0  0  0  0  0
   39.7260   26.7170   42.7750 C   0  0  0  0  0  0  0  0  0  0  0  0
   39.7340   25.4660   43.6510 C   0  0  0  0  0  0  0  0  0  0  0  0
   39.5200   24.2300   42.9180 C   0  0  0  0  0  0  0  0  0  0  0  0
   38.8270   24.2710   41.6490 C   0  0  0  0  0  0  0  0  0  0  0  0
   38.1680   25.5630   41.2260 C   0  0  0  0  0  0  0  0  0  0  0  0
   40.5600   26.7950   42.0970 H   0  0  0  0  0  0  0  0  0  0  0  0
   39.6960   27.5670   43.5200 H   0  0  0  0  0  0  0  0  0  0  0  0
   40.6610   25.4440   44.2600 H   0  0  0  0  0  0  0  0  0  0  0  0
   38.8970   25.6390   44.3810 H   0  0  0  0  0  0  0  0  0  0  0  0
   40.5030   23.7210   42.7420 H   0  0  0  0  0  0  0  0  0  0  0  0
   38.9700   23.5040   43.5840 H   0  0  0  0  0  0  0  0  0  0  0  0
   38.7070   23.4730   40.9750 H   0  0  0  0  0  0  0  0  0  0  0  0
   37.3310   27.3270   42.5710 C   0  0  0  0  0  0  0  0  0  0  0  0
   36.5980   27.4720   41.7040 H   0  0  0  0  0  0  0  0  0  0  0  0
   36.7050   26.8540   43.3580 H   0  0  0  0  0  0  0  0  0  0  0  0
   37.6440   28.7120   43.0120 C   0  0  0  0  0  0  0  0  0  0  0  0
   37.0920   28.9990   43.9500 H   0  0  0  0  0  0  0  0  0  0  0  0
   38.7190   28.8690   43.2480 H   0  0  0  0  0  0  0  0  0  0  0  0
   37.3100   29.6340   41.9110 C   0  0  0  0  0  0  0  0  0  0  0  0
   36.1090   29.5190   41.2450 C   0  0  0  0  0  0  0  0  0  0  0  0
   35.8490   30.4020   40.2070 C   0  0  0  0  0  0  0  0  0  0  0  0
   36.7920   31.3410   39.9000 N   0  0  0  0  0  0  0  0  0  0  0  0
   37.9400   31.4230   40.5670 C   0  0  0  0  0  0  0  0  0  0  0  0
   38.1730   30.5610   41.5620 N   0  0  0  0  0  0  0  0  0  0  0  0
   35.2530   28.8760   41.3450 H   0  0  0  0  0  0  0  0  0  0  0  0
   34.9650   30.4610   39.5730 H   0  0  0  0  0  0  0  0  0  0  0  0
   38.8810   32.4770   40.1880 C   0  0  0  0  0  0  0  0  0  0  0  0
   38.7950   33.7420   40.7630 C   0  0  0  0  0  0  0  0  0  0  0  0
   39.6800   34.7230   40.3980 C   0  0  0  0  0  0  0  0  0  0  0  0
   40.6010   34.3420   39.4600 C   0  0  0  0  0  0  0  0  0  0  0  0
   40.7380   33.0920   38.8460 C   0  0  0  0  0  0  0  0  0  0  0  0
   39.8220   32.1840   39.2680 N   0  0  0  0  0  0  0  0  0  0  0  0
   38.0320   33.9750   41.5070 H   0  0  0  0  0  0  0  0  0  0  0  0
   39.6950   35.7290   40.7830 H   0  0  0  0  0  0  0  0  0  0  0  0
   41.3390   35.0880   39.1260 H   0  0  0  0  0  0  0  0  0  0  0  0
   41.4910   32.8980   38.1260 H   0  0  0  0  0  0  0  0  0  0  0  0
   37.2450   25.7280   39.7710 S   0  0  0  0  0  0  0  0  0  0  0  0
   37.6730   27.1400   38.8340 C   0  0  0  0  0  0  0  0  0  0  0  0
   38.7860   27.8480   38.6820 N   0  0  0  0  0  0  0  0  0  0  0  0
   38.9370   28.9130   37.9150 C   0  0  0  0  0  3  0  0  0  0  0  0
   37.9090   29.3680   37.1990 N   0  0  0  0  0  0  0  0  0  0  0  0
   36.7220   28.7300   37.2700 C   0  0  0  0  0  0  0  0  0  0  0  0
   35.7250   29.2720   36.4970 C   0  0  0  0  0  3  0  0  0  0  0  0
   34.4930   28.6730   36.5220 C   0  0  0  0  0  0  0  0  0  0  0  0
   33.6370   29.0060   35.9600 H   0  0  0  0  0  0  0  0  0  0  0  0
   34.2970   27.5740   37.2990 C   0  0  0  0  0  0  0  0  0  0  0  0
   33.3440   27.0590   37.3570 H   0  0  0  0  0  0  0  0  0  0  0  0
   35.3260   27.0670   38.0560 C   0  0  0  0  0  3  0  0  0  0  0  0
   36.6000   27.6160   38.0850 C   0  0  0  0  0  0  0  0  0  0  0  0
  1 14  1  0  0  0  0
  1  2  1  0  0  0  0
  2  8  1  0  0  0  0
  2  3  1  0  0  0  0
  3  9  1  0  0  0  0
  3 10  1  0  0  0  0
  4 12  1  0  0  0  0
  4  3  1  0  0  0  0
  5  4  1  0  0  0  0
  6  5  2  0  0  0  0
  6  1  1  0  0  0  0
  7  2  1  0  0  0  0
 11  4  1  0  0  0  0
 13  5  1  0  0  0  0
 14 17  1  0  0  0  0
 14 16  1  0  0  0  0
 15 14  1  0  0  0  0
 17 19  1  0  0  0  0
 17 18  1  0  0  0  0
 20 17  1  0  0  0  0
 21 26  1  0  0  0  0
 21 20  2  0  0  0  0
 22 21  1  0  0  0  0
 23 22  2  0  0  0  0
 23 24  1  0  0  0  0
 24 25  2  0  0  0  0
 25 20  1  0  0  0  0
 27 22  1  0  0  0  0
 28 24  1  0  0  0  0
 28 29  1  0  0  0  0
 29 34  1  0  0  0  0
 30 29  2  0  0  0  0
 30 35  1  0  0  0  0
 31 30  1  0  0  0  0
 32 33  1  0  0  0  0
 32 31  2  0  0  0  0
 33 28  2  0  0  0  0
 36 31  1  0  0  0  0
 37 32  1  0  0  0  0
 38  6  1  0  0  0  0
 39 38  1  0  0  0  0
 40 39  1  0  0  0  0
 41 40  2  0  0  0  0
 42 43  2  0  0  0  0
 42 41  1  0  0  0  0
 43 50  1  0  0  0  0
 44 45  2  0  0  0  0
 44 43  1  0  0  0  0
 45 47  1  0  0  0  0
 46 45  1  0  0  0  0
 47 48  1  0  0  0  0
 47 49  2  0  0  0  0
 49 50  1  0  0  0  0
 50 39  2  0  0  0  0
M  END
>  <minimizedAffinity>
-6.18711805

$$$$

 OpenBabel03252507053D

 50 54  0  0  0  0  0  0  0  0999 V2000
   38.1220   31.5870   39.3600 N   0  0  0  0  0  0  0  0  0  0  0  0
   37.4070   32.5300   38.5670 C   0  0  0  0  0  0  0  0  0  0  0  0
   37.2810   33.6540   39.5940 C   0  0  0  0  0  0  0  0  0  0  0  0
   38.5550   34.1690   40.0660 C   0  0  0  0  0  0  0  0  0  0  0  0
   39.7280   33.3250   39.9950 C   0  0  0  0  0  0  0  0  0  0  0  0
   39.5520   31.8710   39.6250 C   0  0  0  0  0  0  0  0  0  0  0  0
   37.8110   32.8350   37.6160 H   0  0  0  0  0  0  0  0  0  0  0  0
   36.3540   32.1280   38.4790 H   0  0  0  0  0  0  0  0  0  0  0  0
   36.6220   34.4520   39.1930 H   0  0  0  0  0  0  0  0  0  0  0  0
   36.7080   33.1870   40.4410 H   0  0  0  0  0  0  0  0  0  0  0  0
   38.7990   35.1210   39.5300 H   0  0  0  0  0  0  0  0  0  0  0  0
   38.4370   34.4990   41.1390 H   0  0  0  0  0  0  0  0  0  0  0  0
   40.7190   33.6120   40.1980 H   0  0  0  0  0  0  0  0  0  0  0  0
   37.6640   30.4680   39.9210 C   0  0  0  0  0  0  0  0  0  0  0  0
   36.6110   30.1790   39.5810 H   0  0  0  0  0  0  0  0  0  0  0  0
   38.2690   29.5700   39.6700 H   0  0  0  0  0  0  0  0  0  0  0  0
   37.5550   30.5420   41.4030 C   0  0  0  0  0  0  0  0  0  0  0  0
   38.3800   31.1530   41.8630 H   0  0  0  0  0  0  0  0  0  0  0  0
   36.6130   31.0150   41.7530 H   0  0  0  0  0  0  0  0  0  0  0  0
   37.5670   29.1670   41.9350 C   0  0  0  0  0  0  0  0  0  0  0  0
   37.9220   28.9300   43.2450 C   0  0  0  0  0  0  0  0  0  0  0  0
   37.9300   27.6170   43.6930 C   0  0  0  0  0  0  0  0  0  0  0  0
   37.5830   26.6290   42.8160 N   0  0  0  0  0  0  0  0  0  0  0  0
   37.2430   26.8960   41.5590 C   0  0  0  0  0  0  0  0  0  0  0  0
   37.2440   28.1680   41.1460 N   0  0  0  0  0  0  0  0  0  0  0  0
   38.2040   29.5560   44.0730 H   0  0  0  0  0  0  0  0  0  0  0  0
   38.1830   27.2400   44.6830 H   0  0  0  0  0  0  0  0  0  0  0  0
   36.8590   25.7780   40.6970 C   0  0  0  0  0  0  0  0  0  0  0  0
   36.9070   24.4710   41.1720 C   0  0  0  0  0  0  0  0  0  0  0  0
   36.5480   23.4300   40.3540 C   0  0  0  0  0  0  0  0  0  0  0  0
   36.1610   23.8010   39.0940 C   0  0  0  0  0  0  0  0  0  0  0  0
   36.0930   25.0920   38.5600 C   0  0  0  0  0  0  0  0  0  0  0  0
   36.4650   26.0580   39.4380 N   0  0  0  0  0  0  0  0  0  0  0  0
   37.2270   24.2490   42.1900 H   0  0  0  0  0  0  0  0  0  0  0  0
   36.5520   22.3890   40.6260 H   0  0  0  0  0  0  0  0  0  0  0  0
   35.8610   23.0090   38.3910 H   0  0  0  0  0  0  0  0  0  0  0  0
   35.7770   25.2740   37.5640 H   0  0  0  0  0  0  0  0  0  0  0  0
   40.8600   30.7380   39.5770 S   0  0  0  0  0  0  0  0  0  0  0  0
   42.3890   31.4600   39.1370 C   0  0  0  0  0  0  0  0  0  0  0  0
   43.1920   32.3480   39.7120 N   0  0  0  0  0  0  0  0  0  0  0  0
   44.3390   32.7930   39.2290 C   0  0  0  0  0  3  0  0  0  0  0  0
   44.7850   32.3450   38.0570 N   0  0  0  0  0  0  0  0  0  0  0  0
   44.0550   31.4370   37.3750 C   0  0  0  0  0  0  0  0  0  0  0  0
   44.5960   31.0360   36.1800 C   0  0  0  0  0  3  0  0  0  0  0  0
   43.9050   30.1150   35.4370 C   0  0  0  0  0  0  0  0  0  0  0  0
   44.2290   29.7250   34.4860 H   0  0  0  0  0  0  0  0  0  0  0  0
   42.7210   29.6320   35.8990 C   0  0  0  0  0  0  0  0  0  0  0  0
   42.1320   28.9010   35.3540 H   0  0  0  0  0  0  0  0  0  0  0  0
   42.2180   30.0640   37.1040 C   0  0  0  0  0  3  0  0  0  0  0  0
   42.8580   30.9930   37.9130 C   0  0  0  0  0  0  0  0  0  0  0  0
  1  6  1  0  0  0  0
  1 14  1  0  0  0  0
  2  1  1  0  0  0  0
  2  3  1  0  0  0  0
  3  4  1  0  0  0  0
  3 10  1  0  0  0  0
  4 12  1  0  0  0  0
  5  4  1  0  0  0  0
  5 13  1  0  0  0  0
  6  5  2  0  0  0  0
  7  2  1  0  0  0  0
  8  2  1  0  0  0  0
  9  3  1  0  0  0  0
 11  4  1  0  0  0  0
 14 17  1  0  0  0  0
 15 14  1  0  0  0  0
 16 14  1  0  0  0  0
 17 19  1  0  0  0  0
 17 18  1  0  0  0  0
 17 20  1  0  0  0  0
 20 21  1  0  0  0  0
 21 22  2  0  0  0  0
 21 26  1  0  0  0  0
 22 27  1  0  0  0  0
 23 22  1  0  0  0  0
 24 23  2  0  0  0  0
 25 24  1  0  0  0  0
 25 20  2  0  0  0  0
 28 29  1  0  0  0  0
 28 24  1  0  0  0  0
 29 34  1  0  0  0  0
 30 35  1  0  0  0  0
 30 29  2  0  0  0  0
 31 30  1  0  0  0  0
 32 31  2  0  0  0  0
 32 33  1  0  0  0  0
 33 28  2  0  0  0  0
 36 31  1  0  0  0  0
 37 32  1  0  0  0  0
 38  6  1  0  0  0  0
 39 38  1  0  0  0  0
 39 40  1  0  0  0  0
 41 40  2  0  0  0  0
 42 41  1  0  0  0  0
 43 50  1  0  0  0  0
 43 42  2  0  0  0  0
 44 43  1  0  0  0  0
 45 47  1  0  0  0  0
 45 44  2  0  0  0  0
 46 45  1  0  0  0  0
 47 49  2  0  0  0  0
 48 47  1  0  0  0  0
 49 50  1  0  0  0  0
 50 39  2  0  0  0  0
M  END
>  <minimizedAffinity>
-6.16080713

$$$$
