
 OpenBabel03252506143D

 39 42  0  0  0  0  0  0  0  0999 V2000
   37.6480   32.3700   38.9130 F   0  0  0  0  0  0  0  0  0  0  0  0
   38.3090   31.2210   38.7380 C   0  0  0  0  0  0  0  0  0  0  0  0
   39.6840   31.2520   38.6360 C   0  0  0  0  0  0  0  0  0  0  0  0
   40.4530   30.0990   38.4540 C   0  0  0  0  0  0  0  0  0  0  0  0
   39.8170   28.8590   38.3730 C   0  0  0  0  0  0  0  0  0  0  0  0
   38.4340   28.8820   38.4830 C   0  0  0  0  0  0  0  0  0  0  0  0
   37.6720   29.9940   38.6600 C   0  0  0  0  0  0  0  0  0  0  0  0
   41.5410   30.2010   38.3800 H   0  0  0  0  0  0  0  0  0  0  0  0
   40.4570   28.0250   38.2350 H   0  0  0  0  0  0  0  0  0  0  0  0
   38.0780   27.8580   38.4100 H   0  0  0  0  0  0  0  0  0  0  0  0
   41.8960   34.0460   37.7640 C   0  0  0  0  0  0  0  0  0  0  0  0
   41.7420   34.8950   38.8820 C   0  0  0  0  0  0  0  0  0  0  0  0
   40.8730   34.5020   39.9360 C   0  0  0  0  0  0  0  0  0  0  0  0
   40.2350   33.3020   39.7890 N   0  0  0  0  0  0  0  0  0  0  0  0
   40.4040   32.5240   38.7190 C   0  0  0  0  0  0  0  0  0  0  0  0
   41.2250   32.8950   37.7220 N   0  0  0  0  0  0  0  0  0  0  0  0
   42.2720   35.8320   38.9440 H   0  0  0  0  0  0  0  0  0  0  0  0
   40.7370   35.1340   40.8030 H   0  0  0  0  0  0  0  0  0  0  0  0
   42.7630   34.4590   36.7320 N   0  0  0  0  0  0  0  0  0  0  0  0
   43.6320   33.8810   36.8120 H   0  0  0  0  0  0  0  0  0  0  0  0
   42.6820   35.1740   35.9820 H   0  0  0  0  0  0  0  0  0  0  0  0
   36.3160   29.8870   38.7520 O   0  0  0  0  0  0  0  0  0  0  0  0
   33.9890   29.1950   39.8040 O   0  0  0  0  0  0  0  0  0  0  0  0
   35.4220   29.5080   40.1300 P   0  0  2  0  0  0  0  0  0  0  0  0
   35.5120   30.8390   41.2030 O   0  0  0  0  0  0  0  0  0  0  0  0
   34.8930   30.7000   41.9840 H   0  0  0  0  0  0  0  0  0  0  0  0
   36.0790   28.2140   40.9950 O   0  0  0  0  0  0  0  0  0  0  0  0
   37.2050   28.2280   41.7700 C   0  0  0  0  0  0  0  0  0  0  0  0
   37.8640   29.2680   42.3090 N   0  0  0  0  0  0  0  0  0  0  0  0
   38.9670   29.1170   43.0530 C   0  0  0  0  0  3  0  0  0  0  0  0
   39.4780   27.8790   43.3010 N   0  0  0  0  0  0  0  0  0  0  0  0
   38.8670   26.7970   42.7910 C   0  0  0  0  0  0  0  0  0  0  0  0
   39.4350   25.5710   43.0780 C   0  0  0  0  0  3  0  0  0  0  0  0
   38.8380   24.4350   42.5730 C   0  0  0  0  0  0  0  0  0  0  0  0
   39.1840   23.4220   42.7260 H   0  0  0  0  0  0  0  0  0  0  0  0
   37.6970   24.5540   41.8000 C   0  0  0  0  0  0  0  0  0  0  0  0
   37.1850   23.6870   41.3750 H   0  0  0  0  0  0  0  0  0  0  0  0
   37.1720   25.8010   41.5440 C   0  0  0  0  0  3  0  0  0  0  0  0
   37.7440   26.9750   42.0350 C   0  0  0  0  0  0  0  0  0  0  0  0
  2  1  1  0  0  0  0
  3 15  1  0  0  0  0
  3  2  2  0  0  0  0
  4  3  1  0  0  0  0
  5  4  2  0  0  0  0
  5  6  1  0  0  0  0
  6  7  2  0  0  0  0
  7  2  1  0  0  0  0
  7 22  1  0  0  0  0
  8  4  1  0  0  0  0
  9  5  1  0  0  0  0
 10  6  1  0  0  0  0
 11 12  1  0  0  0  0
 12 17  1  0  0  0  0
 12 13  2  0  0  0  0
 13 18  1  0  0  0  0
 14 13  1  0  0  0  0
 15 14  2  0  0  0  0
 16 11  2  0  0  0  0
 16 15  1  0  0  0  0
 19 20  1  0  0  0  0
 19 11  1  0  0  0  0
 21 19  1  0  0  0  0
 22 24  1  0  0  0  0
 24 23  2  6  0  0  0
 24 27  1  0  0  0  0
 24 25  1  0  0  0  0
 25 26  1  0  0  0  0
 27 28  1  0  0  0  0
 28 39  2  0  0  0  0
 28 29  1  0  0  0  0
 29 30  2  0  0  0  0
 30 31  1  0  0  0  0
 32 33  1  0  0  0  0
 32 31  2  0  0  0  0
 34 35  1  0  0  0  0
 34 33  2  0  0  0  0
 36 34  1  0  0  0  0
 37 36  1  0  0  0  0
 38 36  2  0  0  0  0
 38 39  1  0  0  0  0
 39 32  1  0  0  0  0
M  END
>  <minimizedAffinity>
-7.63538122

$$$$

 OpenBabel03252506143D

 39 42  0  0  0  0  0  0  0  0999 V2000
   39.5680   31.0470   38.3470 F   0  0  0  0  0  0  0  0  0  0  0  0
   39.1770   32.1810   38.9380 C   0  0  0  0  0  0  0  0  0  0  0  0
   40.1340   33.0920   39.3340 C   0  0  0  0  0  0  0  0  0  0  0  0
   39.8120   34.3010   39.9560 C   0  0  0  0  0  0  0  0  0  0  0  0
   38.4720   34.6140   40.1910 C   0  0  0  0  0  0  0  0  0  0  0  0
   37.5490   33.6670   39.7730 C   0  0  0  0  0  0  0  0  0  0  0  0
   37.8450   32.4860   39.1670 C   0  0  0  0  0  0  0  0  0  0  0  0
   40.6270   34.9750   40.2440 H   0  0  0  0  0  0  0  0  0  0  0  0
   38.2970   35.5460   40.6660 H   0  0  0  0  0  0  0  0  0  0  0  0
   36.5580   34.0420   40.0110 H   0  0  0  0  0  0  0  0  0  0  0  0
   43.5040   33.2390   37.8920 C   0  0  0  0  0  0  0  0  0  0  0  0
   44.1990   32.3030   38.6890 C   0  0  0  0  0  0  0  0  0  0  0  0
   43.5030   31.6220   39.7240 C   0  0  0  0  0  0  0  0  0  0  0  0
   42.1800   31.9280   39.8770 N   0  0  0  0  0  0  0  0  0  0  0  0
   41.5540   32.8180   39.1070 C   0  0  0  0  0  0  0  0  0  0  0  0
   42.2110   33.4630   38.1270 N   0  0  0  0  0  0  0  0  0  0  0  0
   45.2450   32.1010   38.5230 H   0  0  0  0  0  0  0  0  0  0  0  0
   44.0120   30.9000   40.3490 H   0  0  0  0  0  0  0  0  0  0  0  0
   44.2170   33.9010   36.8730 N   0  0  0  0  0  0  0  0  0  0  0  0
   43.9180   33.4780   35.9640 H   0  0  0  0  0  0  0  0  0  0  0  0
   44.9210   34.6660   36.8820 H   0  0  0  0  0  0  0  0  0  0  0  0
   36.8460   31.6340   38.8030 O   0  0  0  0  0  0  0  0  0  0  0  0
   35.1040   29.6520   38.9980 O   0  0  0  0  0  0  0  0  0  0  0  0
   36.2190   30.3600   39.7130 P   0  0  2  0  0  0  0  0  0  0  0  0
   35.6630   30.9960   41.2020 O   0  0  0  0  0  0  0  0  0  0  0  0
   35.1740   30.2880   41.7230 H   0  0  0  0  0  0  0  0  0  0  0  0
   37.3970   29.2280   40.1420 O   0  0  0  0  0  0  0  0  0  0  0  0
   37.4930   28.5460   41.3230 C   0  0  0  0  0  0  0  0  0  0  0  0
   37.7920   28.9950   42.5540 N   0  0  0  0  0  0  0  0  0  0  0  0
   37.8480   28.1920   43.6230 C   0  0  0  0  0  3  0  0  0  0  0  0
   37.6000   26.8580   43.5070 N   0  0  0  0  0  0  0  0  0  0  0  0
   37.2950   26.3430   42.3040 C   0  0  0  0  0  0  0  0  0  0  0  0
   37.0540   24.9850   42.2540 C   0  0  0  0  0  3  0  0  0  0  0  0
   36.7380   24.4170   41.0370 C   0  0  0  0  0  0  0  0  0  0  0  0
   36.5290   23.3700   40.8670 H   0  0  0  0  0  0  0  0  0  0  0  0
   36.6710   25.2180   39.9110 C   0  0  0  0  0  0  0  0  0  0  0  0
   36.4260   24.8200   38.9230 H   0  0  0  0  0  0  0  0  0  0  0  0
   36.9210   26.5680   40.0170 C   0  0  0  0  0  3  0  0  0  0  0  0
   37.2440   27.1820   41.2280 C   0  0  0  0  0  0  0  0  0  0  0  0
  1  2  1  0  0  0  0
  2  7  2  0  0  0  0
  2  3  1  0  0  0  0
  3  4  2  0  0  0  0
  4  5  1  0  0  0  0
  4  8  1  0  0  0  0
  5  9  1  0  0  0  0
  6 10  1  0  0  0  0
  6  5  2  0  0  0  0
  7  6  1  0  0  0  0
 11 16  2  0  0  0  0
 11 12  1  0  0  0  0
 12 13  2  0  0  0  0
 13 14  1  0  0  0  0
 13 18  1  0  0  0  0
 15  3  1  0  0  0  0
 15 14  2  0  0  0  0
 16 15  1  0  0  0  0
 17 12  1  0  0  0  0
 19 21  1  0  0  0  0
 19 11  1  0  0  0  0
 20 19  1  0  0  0  0
 22  7  1  0  0  0  0
 22 24  1  0  0  0  0
 24 23  2  6  0  0  0
 24 27  1  0  0  0  0
 24 25  1  0  0  0  0
 25 26  1  0  0  0  0
 27 28  1  0  0  0  0
 28 29  1  0  0  0  0
 29 30  2  0  0  0  0
 31 30  1  0  0  0  0
 32 31  2  0  0  0  0
 33 32  1  0  0  0  0
 34 33  2  0  0  0  0
 35 34  1  0  0  0  0
 36 38  2  0  0  0  0
 36 34  1  0  0  0  0
 37 36  1  0  0  0  0
 38 39  1  0  0  0  0
 39 28  2  0  0  0  0
 39 32  1  0  0  0  0
M  END
>  <minimizedAffinity>
-7.1477232

$$$$

 OpenBabel03252506143D

 39 42  0  0  0  0  0  0  0  0999 V2000
   39.7990   31.2380   38.6030 F   0  0  0  0  0  0  0  0  0  0  0  0
   39.3580   32.3860   39.1290 C   0  0  0  0  0  0  0  0  0  0  0  0
   40.2780   33.3360   39.5210 C   0  0  0  0  0  0  0  0  0  0  0  0
   39.9030   34.5620   40.0780 C   0  0  0  0  0  0  0  0  0  0  0  0
   38.5480   34.8500   40.2500 C   0  0  0  0  0  0  0  0  0  0  0  0
   37.6640   33.8620   39.8400 C   0  0  0  0  0  0  0  0  0  0  0  0
   38.0120   32.6650   39.2970 C   0  0  0  0  0  0  0  0  0  0  0  0
   40.6890   35.2690   40.3660 H   0  0  0  0  0  0  0  0  0  0  0  0
   38.3310   35.7960   40.6770 H   0  0  0  0  0  0  0  0  0  0  0  0
   36.6560   34.2210   40.0240 H   0  0  0  0  0  0  0  0  0  0  0  0
   43.6600   33.3710   38.1020 C   0  0  0  0  0  0  0  0  0  0  0  0
   44.3830   32.6280   39.0620 C   0  0  0  0  0  0  0  0  0  0  0  0
   43.7000   32.1160   40.1990 C   0  0  0  0  0  0  0  0  0  0  0  0
   42.3630   32.3850   40.2830 N   0  0  0  0  0  0  0  0  0  0  0  0
   41.7110   33.0900   39.3580 C   0  0  0  0  0  0  0  0  0  0  0  0
   42.3550   33.5750   38.2820 N   0  0  0  0  0  0  0  0  0  0  0  0
   45.4380   32.4470   38.9430 H   0  0  0  0  0  0  0  0  0  0  0  0
   44.2300   31.5450   40.9490 H   0  0  0  0  0  0  0  0  0  0  0  0
   44.3600   33.8670   36.9840 N   0  0  0  0  0  0  0  0  0  0  0  0
   44.0930   33.2720   36.1660 H   0  0  0  0  0  0  0  0  0  0  0  0
   45.0300   34.6510   36.8580 H   0  0  0  0  0  0  0  0  0  0  0  0
   37.0480   31.7720   38.9330 O   0  0  0  0  0  0  0  0  0  0  0  0
   35.4990   29.6320   39.0700 O   0  0  0  0  0  0  0  0  0  0  0  0
   36.4850   30.4650   39.8370 P   0  0  2  0  0  0  0  0  0  0  0  0
   35.7630   31.0800   41.2630 O   0  0  0  0  0  0  0  0  0  0  0  0
   35.3090   30.3400   41.7710 H   0  0  0  0  0  0  0  0  0  0  0  0
   37.7340   29.4680   40.3840 O   0  0  0  0  0  0  0  0  0  0  0  0
   37.7670   28.7510   41.5480 C   0  0  0  0  0  0  0  0  0  0  0  0
   36.7540   28.3030   42.3100 N   0  0  0  0  0  0  0  0  0  0  0  0
   36.9500   27.6070   43.4360 C   0  0  0  0  0  3  0  0  0  0  0  0
   38.2090   27.3150   43.8660 N   0  0  0  0  0  0  0  0  0  0  0  0
   39.2670   27.7330   43.1500 C   0  0  0  0  0  0  0  0  0  0  0  0
   40.5160   27.4050   43.6390 C   0  0  0  0  0  3  0  0  0  0  0  0
   41.6270   27.8160   42.9330 C   0  0  0  0  0  0  0  0  0  0  0  0
   42.6550   27.6240   43.2100 H   0  0  0  0  0  0  0  0  0  0  0  0
   41.4610   28.5380   41.7650 C   0  0  0  0  0  0  0  0  0  0  0  0
   42.3070   28.8880   41.1680 H   0  0  0  0  0  0  0  0  0  0  0  0
   40.1930   28.8390   41.3210 C   0  0  0  0  0  3  0  0  0  0  0  0
   39.0420   28.4420   42.0050 C   0  0  0  0  0  0  0  0  0  0  0  0
  1  2  1  0  0  0  0
  2  7  2  0  0  0  0
  2  3  1  0  0  0  0
  3  4  2  0  0  0  0
  4  5  1  0  0  0  0
  4  8  1  0  0  0  0
  5  9  1  0  0  0  0
  6 10  1  0  0  0  0
  6  5  2  0  0  0  0
  7  6  1  0  0  0  0
 11 16  2  0  0  0  0
 11 12  1  0  0  0  0
 12 13  2  0  0  0  0
 13 14  1  0  0  0  0
 13 18  1  0  0  0  0
 15  3  1  0  0  0  0
 15 14  2  0  0  0  0
 16 15  1  0  0  0  0
 17 12  1  0  0  0  0
 19 11  1  0  0  0  0
 20 19  1  0  0  0  0
 21 19  1  0  0  0  0
 22  7  1  0  0  0  0
 22 24  1  0  0  0  0
 24 23  2  6  0  0  0
 24 27  1  0  0  0  0
 24 25  1  0  0  0  0
 25 26  1  0  0  0  0
 27 28  1  0  0  0  0
 28 39  2  0  0  0  0
 28 29  1  0  0  0  0
 29 30  2  0  0  0  0
 30 31  1  0  0  0  0
 32 33  1  0  0  0  0
 32 31  2  0  0  0  0
 34 35  1  0  0  0  0
 34 33  2  0  0  0  0
 36 34  1  0  0  0  0
 37 36  1  0  0  0  0
 38 36  2  0  0  0  0
 38 39  1  0  0  0  0
 39 32  1  0  0  0  0
M  END
>  <minimizedAffinity>
-6.9014678

$$$$

 OpenBabel03252506143D

 39 42  0  0  0  0  0  0  0  0999 V2000
   39.4940   27.0870   40.9490 F   0  0  0  0  0  0  0  0  0  0  0  0
   38.6190   27.3410   41.9280 C   0  0  0  0  0  0  0  0  0  0  0  0
   37.4980   26.5460   42.0430 C   0  0  0  0  0  0  0  0  0  0  0  0
   36.5350   26.7410   43.0380 C   0  0  0  0  0  0  0  0  0  0  0  0
   36.7020   27.7780   43.9570 C   0  0  0  0  0  0  0  0  0  0  0  0
   37.8450   28.5480   43.7980 C   0  0  0  0  0  0  0  0  0  0  0  0
   38.7910   28.3720   42.8380 C   0  0  0  0  0  0  0  0  0  0  0  0
   35.6700   26.0700   43.0670 H   0  0  0  0  0  0  0  0  0  0  0  0
   35.9360   27.8710   44.6850 H   0  0  0  0  0  0  0  0  0  0  0  0
   37.8480   29.3030   44.5790 H   0  0  0  0  0  0  0  0  0  0  0  0
   37.6250   23.2040   40.5370 C   0  0  0  0  0  0  0  0  0  0  0  0
   36.8570   23.3860   39.3660 C   0  0  0  0  0  0  0  0  0  0  0  0
   36.2960   24.6640   39.0980 C   0  0  0  0  0  0  0  0  0  0  0  0
   36.5450   25.6480   40.0130 N   0  0  0  0  0  0  0  0  0  0  0  0
   37.2750   25.4410   41.1100 C   0  0  0  0  0  0  0  0  0  0  0  0
   37.8070   24.2330   41.3650 N   0  0  0  0  0  0  0  0  0  0  0  0
   36.6920   22.5730   38.6780 H   0  0  0  0  0  0  0  0  0  0  0  0
   35.7030   24.8310   38.2090 H   0  0  0  0  0  0  0  0  0  0  0  0
   38.1700   21.9270   40.7800 N   0  0  0  0  0  0  0  0  0  0  0  0
   39.1940   21.9870   40.5750 H   0  0  0  0  0  0  0  0  0  0  0  0
   37.7560   21.0280   41.0980 H   0  0  0  0  0  0  0  0  0  0  0  0
   39.8730   29.1980   42.7830 O   0  0  0  0  0  0  0  0  0  0  0  0
   41.0440   30.1990   40.6320 O   0  0  0  0  0  0  0  0  0  0  0  0
   40.0940   30.5130   41.7510 P   0  0  2  0  0  0  0  0  0  0  0  0
   40.6820   31.8240   42.6820 O   0  0  0  0  0  0  0  0  0  0  0  0
   40.9390   32.5900   42.0830 H   0  0  0  0  0  0  0  0  0  0  0  0
   38.6410   31.0710   41.0930 O   0  0  0  0  0  0  0  0  0  0  0  0
   38.2500   31.0060   39.7850 C   0  0  0  0  0  0  0  0  0  0  0  0
   38.8410   31.5030   38.6850 N   0  0  0  0  0  0  0  0  0  0  0  0
   38.3280   31.3540   37.4580 C   0  0  0  0  0  3  0  0  0  0  0  0
   37.1600   30.6790   37.2670 N   0  0  0  0  0  0  0  0  0  0  0  0
   36.5180   30.1560   38.3250 C   0  0  0  0  0  0  0  0  0  0  0  0
   35.3400   29.4840   38.0650 C   0  0  0  0  0  3  0  0  0  0  0  0
   34.6500   28.9330   39.1240 C   0  0  0  0  0  0  0  0  0  0  0  0
   33.7200   28.3850   39.0530 H   0  0  0  0  0  0  0  0  0  0  0  0
   35.1520   29.0670   40.4060 C   0  0  0  0  0  0  0  0  0  0  0  0
   34.6450   28.6510   41.2810 H   0  0  0  0  0  0  0  0  0  0  0  0
   36.3310   29.7480   40.6100 C   0  0  0  0  0  3  0  0  0  0  0  0
   37.0610   30.3210   39.5670 C   0  0  0  0  0  0  0  0  0  0  0  0
  1  2  1  0  0  0  0
  2  3  2  0  0  0  0
  2  7  1  0  0  0  0
  3  4  1  0  0  0  0
  4  8  1  0  0  0  0
  4  5  2  0  0  0  0
  5  9  1  0  0  0  0
  6  5  1  0  0  0  0
  6 10  1  0  0  0  0
  7  6  2  0  0  0  0
 11 19  1  0  0  0  0
 11 16  1  0  0  0  0
 12 11  2  0  0  0  0
 13 12  1  0  0  0  0
 13 14  2  0  0  0  0
 14 15  1  0  0  0  0
 15 16  2  0  0  0  0
 15  3  1  0  0  0  0
 17 12  1  0  0  0  0
 18 13  1  0  0  0  0
 19 21  1  0  0  0  0
 20 19  1  0  0  0  0
 22  7  1  0  0  0  0
 24 23  2  6  0  0  0
 24 25  1  0  0  0  0
 24 22  1  0  0  0  0
 26 25  1  0  0  0  0
 27 24  1  0  0  0  0
 28 27  1  0  0  0  0
 29 28  2  0  0  0  0
 30 29  1  0  0  0  0
 31 30  2  0  0  0  0
 31 32  1  0  0  0  0
 32 39  1  0  0  0  0
 33 32  2  0  0  0  0
 33 34  1  0  0  0  0
 34 36  2  0  0  0  0
 35 34  1  0  0  0  0
 36 38  1  0  0  0  0
 36 37  1  0  0  0  0
 39 28  1  0  0  0  0
 39 38  2  0  0  0  0
M  END
>  <minimizedAffinity>
-6.80020809

$$$$

 OpenBabel03252506143D

 39 42  0  0  0  0  0  0  0  0999 V2000
   38.3900   32.0490   39.3060 F   0  0  0  0  0  0  0  0  0  0  0  0
   39.0200   30.8790   39.1510 C   0  0  0  0  0  0  0  0  0  0  0  0
   40.3920   30.8740   39.0070 C   0  0  0  0  0  0  0  0  0  0  0  0
   41.1280   29.6970   38.8430 C   0  0  0  0  0  0  0  0  0  0  0  0
   40.4610   28.4710   38.8220 C   0  0  0  0  0  0  0  0  0  0  0  0
   39.0830   28.5300   38.9710 C   0  0  0  0  0  0  0  0  0  0  0  0
   38.3530   29.6650   39.1320 C   0  0  0  0  0  0  0  0  0  0  0  0
   42.2150   29.7710   38.7330 H   0  0  0  0  0  0  0  0  0  0  0  0
   41.0780   27.6170   38.6940 H   0  0  0  0  0  0  0  0  0  0  0  0
   38.7020   27.5130   38.9440 H   0  0  0  0  0  0  0  0  0  0  0  0
   42.2600   33.8120   37.8540 C   0  0  0  0  0  0  0  0  0  0  0  0
   42.5410   34.4710   39.0710 C   0  0  0  0  0  0  0  0  0  0  0  0
   42.0840   33.9000   40.2890 C   0  0  0  0  0  0  0  0  0  0  0  0
   41.3900   32.7260   40.1930 N   0  0  0  0  0  0  0  0  0  0  0  0
   41.1420   32.1300   39.0270 C   0  0  0  0  0  0  0  0  0  0  0  0
   41.5740   32.6690   37.8740 N   0  0  0  0  0  0  0  0  0  0  0  0
   43.0940   35.3960   39.0860 H   0  0  0  0  0  0  0  0  0  0  0  0
   42.2850   34.3840   41.2350 H   0  0  0  0  0  0  0  0  0  0  0  0
   42.7240   34.3990   36.6590 N   0  0  0  0  0  0  0  0  0  0  0  0
   43.5430   33.8330   36.3370 H   0  0  0  0  0  0  0  0  0  0  0  0
   42.4120   35.2220   36.1060 H   0  0  0  0  0  0  0  0  0  0  0  0
   36.9980   29.5940   39.2680 O   0  0  0  0  0  0  0  0  0  0  0  0
   34.8180   28.9770   40.6340 O   0  0  0  0  0  0  0  0  0  0  0  0
   36.1140   29.7320   40.6970 P   0  0  2  0  0  0  0  0  0  0  0  0
   35.8220   31.3960   40.9800 O   0  0  0  0  0  0  0  0  0  0  0  0
   35.1960   31.5120   41.7590 H   0  0  0  0  0  0  0  0  0  0  0  0
   36.9830   29.2130   42.0500 O   0  0  0  0  0  0  0  0  0  0  0  0
   37.6130   28.0110   42.2130 C   0  0  0  0  0  0  0  0  0  0  0  0
   37.1100   26.7650   42.1820 N   0  0  0  0  0  0  0  0  0  0  0  0
   37.8660   25.6760   42.3630 C   0  0  0  0  0  3  0  0  0  0  0  0
   39.2040   25.7840   42.5910 N   0  0  0  0  0  0  0  0  0  0  0  0
   39.7710   27.0010   42.6340 C   0  0  0  0  0  0  0  0  0  0  0  0
   41.1310   27.0440   42.8680 C   0  0  0  0  0  3  0  0  0  0  0  0
   41.7520   28.2750   42.9200 C   0  0  0  0  0  0  0  0  0  0  0  0
   42.8060   28.4410   43.0960 H   0  0  0  0  0  0  0  0  0  0  0  0
   41.0010   29.4220   42.7380 C   0  0  0  0  0  0  0  0  0  0  0  0
   41.4420   30.4220   42.7700 H   0  0  0  0  0  0  0  0  0  0  0  0
   39.6470   29.3230   42.5080 C   0  0  0  0  0  3  0  0  0  0  0  0
   38.9800   28.0980   42.4470 C   0  0  0  0  0  0  0  0  0  0  0  0
  2  1  1  0  0  0  0
  3 15  1  0  0  0  0
  3  2  2  0  0  0  0
  4  3  1  0  0  0  0
  5  4  2  0  0  0  0
  5  6  1  0  0  0  0
  6  7  2  0  0  0  0
  7  2  1  0  0  0  0
  7 22  1  0  0  0  0
  8  4  1  0  0  0  0
  9  5  1  0  0  0  0
 10  6  1  0  0  0  0
 11 16  2  0  0  0  0
 11 12  1  0  0  0  0
 12 17  1  0  0  0  0
 12 13  2  0  0  0  0
 13 18  1  0  0  0  0
 14 13  1  0  0  0  0
 15 14  2  0  0  0  0
 16 15  1  0  0  0  0
 19 11  1  0  0  0  0
 20 19  1  0  0  0  0
 21 19  1  0  0  0  0
 22 24  1  0  0  0  0
 24 23  2  6  0  0  0
 24 25  1  0  0  0  0
 24 27  1  0  0  0  0
 25 26  1  0  0  0  0
 27 28  1  0  0  0  0
 28 39  1  0  0  0  0
 29 28  2  0  0  0  0
 29 30  1  0  0  0  0
 30 31  2  0  0  0  0
 31 32  1  0  0  0  0
 32 33  1  0  0  0  0
 33 34  2  0  0  0  0
 34 35  1  0  0  0  0
 36 37  1  0  0  0  0
 36 34  1  0  0  0  0
 38 36  2  0  0  0  0
 39 38  1  0  0  0  0
 39 32  2  0  0  0  0
M  END
>  <minimizedAffinity>
-6.5511775

$$$$

 OpenBabel03252506143D

 39 42  0  0  0  0  0  0  0  0999 V2000
   40.2580   30.9960   41.9710 F   0  0  0  0  0  0  0  0  0  0  0  0
   38.9930   30.9930   41.5380 C   0  0  0  0  0  0  0  0  0  0  0  0
   38.6210   31.8900   40.5580 C   0  0  0  0  0  0  0  0  0  0  0  0
   37.3210   31.9530   40.0480 C   0  0  0  0  0  0  0  0  0  0  0  0
   36.3500   31.0800   40.5410 C   0  0  0  0  0  0  0  0  0  0  0  0
   36.7740   30.1980   41.5240 C   0  0  0  0  0  0  0  0  0  0  0  0
   38.0330   30.1230   42.0300 C   0  0  0  0  0  0  0  0  0  0  0  0
   37.1000   32.6930   39.2710 H   0  0  0  0  0  0  0  0  0  0  0  0
   35.3850   31.1800   40.1120 H   0  0  0  0  0  0  0  0  0  0  0  0
   35.9250   29.5810   41.8050 H   0  0  0  0  0  0  0  0  0  0  0  0
   41.1110   33.3650   38.3050 C   0  0  0  0  0  0  0  0  0  0  0  0
   41.4240   34.5720   38.9710 C   0  0  0  0  0  0  0  0  0  0  0  0
   40.7730   34.8740   40.1970 C   0  0  0  0  0  0  0  0  0  0  0  0
   39.8710   33.9550   40.6560 N   0  0  0  0  0  0  0  0  0  0  0  0
   39.6000   32.8250   40.0020 C   0  0  0  0  0  0  0  0  0  0  0  0
   40.2150   32.5370   38.8410 N   0  0  0  0  0  0  0  0  0  0  0  0
   42.1440   35.2610   38.5610 H   0  0  0  0  0  0  0  0  0  0  0  0
   40.9920   35.7910   40.7270 H   0  0  0  0  0  0  0  0  0  0  0  0
   41.7710   33.0890   37.0900 N   0  0  0  0  0  0  0  0  0  0  0  0
   42.4840   32.3510   37.2890 H   0  0  0  0  0  0  0  0  0  0  0  0
   41.6690   33.4650   36.1270 H   0  0  0  0  0  0  0  0  0  0  0  0
   38.3290   29.2110   43.0000 O   0  0  0  0  0  0  0  0  0  0  0  0
   36.6750   27.1680   43.2980 O   0  0  0  0  0  0  0  0  0  0  0  0
   38.0820   27.5450   42.9320 P   0  0  2  0  0  0  0  0  0  0  0  0
   39.1960   26.8010   44.0000 O   0  0  0  0  0  0  0  0  0  0  0  0
   39.0000   25.8170   44.0770 H   0  0  0  0  0  0  0  0  0  0  0  0
   38.4440   26.8960   41.4150 O   0  0  0  0  0  0  0  0  0  0  0  0
   37.5610   26.5950   40.4150 C   0  0  0  0  0  0  0  0  0  0  0  0
   36.8430   27.4140   39.6270 N   0  0  0  0  0  0  0  0  0  0  0  0
   36.0110   26.9610   38.6820 C   0  0  0  0  0  3  0  0  0  0  0  0
   35.8520   25.6240   38.4740 N   0  0  0  0  0  0  0  0  0  0  0  0
   36.5400   24.7510   39.2280 C   0  0  0  0  0  0  0  0  0  0  0  0
   36.3350   23.4110   38.9670 C   0  0  0  0  0  3  0  0  0  0  0  0
   37.0240   22.4810   39.7200 C   0  0  0  0  0  0  0  0  0  0  0  0
   36.9500   21.4080   39.6140 H   0  0  0  0  0  0  0  0  0  0  0  0
   37.8930   22.9150   40.7050 C   0  0  0  0  0  0  0  0  0  0  0  0
   38.4610   22.2210   41.3300 H   0  0  0  0  0  0  0  0  0  0  0  0
   38.0600   24.2640   40.9240 C   0  0  0  0  0  3  0  0  0  0  0  0
   37.3840   25.2360   40.1860 C   0  0  0  0  0  0  0  0  0  0  0  0
  2  1  1  0  0  0  0
  2  7  1  0  0  0  0
  3  2  2  0  0  0  0
  4  5  2  0  0  0  0
  4  3  1  0  0  0  0
  5  6  1  0  0  0  0
  6 10  1  0  0  0  0
  6  7  2  0  0  0  0
  7 22  1  0  0  0  0
  8  4  1  0  0  0  0
  9  5  1  0  0  0  0
 11 16  2  0  0  0  0
 11 12  1  0  0  0  0
 12 13  2  0  0  0  0
 13 14  1  0  0  0  0
 13 18  1  0  0  0  0
 15  3  1  0  0  0  0
 15 14  2  0  0  0  0
 16 15  1  0  0  0  0
 17 12  1  0  0  0  0
 19 20  1  0  0  0  0
 19 11  1  0  0  0  0
 21 19  1  0  0  0  0
 24 22  1  0  0  0  0
 24 23  2  1  0  0  0
 24 25  1  0  0  0  0
 25 26  1  0  0  0  0
 27 24  1  0  0  0  0
 28 27  1  0  0  0  0
 29 28  2  0  0  0  0
 30 29  1  0  0  0  0
 31 30  2  0  0  0  0
 31 32  1  0  0  0  0
 32 39  1  0  0  0  0
 33 32  2  0  0  0  0
 33 34  1  0  0  0  0
 34 36  2  0  0  0  0
 35 34  1  0  0  0  0
 36 38  1  0  0  0  0
 36 37  1  0  0  0  0
 39 28  1  0  0  0  0
 39 38  2  0  0  0  0
M  END
>  <minimizedAffinity>
-6.46168184

$$$$

 OpenBabel03252506143D

 39 42  0  0  0  0  0  0  0  0999 V2000
   39.5270   26.5810   39.5480 F   0  0  0  0  0  0  0  0  0  0  0  0
   38.7690   25.7290   40.2460 C   0  0  0  0  0  0  0  0  0  0  0  0
   39.1740   25.3600   41.5120 C   0  0  0  0  0  0  0  0  0  0  0  0
   38.4400   24.4760   42.3090 C   0  0  0  0  0  0  0  0  0  0  0  0
   37.2490   23.9400   41.8180 C   0  0  0  0  0  0  0  0  0  0  0  0
   36.8860   24.3440   40.5410 C   0  0  0  0  0  0  0  0  0  0  0  0
   37.5870   25.2010   39.7530 C   0  0  0  0  0  0  0  0  0  0  0  0
   38.8250   24.2280   43.3050 H   0  0  0  0  0  0  0  0  0  0  0  0
   36.7420   23.2770   42.4730 H   0  0  0  0  0  0  0  0  0  0  0  0
   35.9460   23.8590   40.2950 H   0  0  0  0  0  0  0  0  0  0  0  0
   42.4950   25.5090   43.0610 C   0  0  0  0  0  0  0  0  0  0  0  0
   42.7160   26.9020   43.1350 C   0  0  0  0  0  0  0  0  0  0  0  0
   41.7180   27.7880   42.6490 C   0  0  0  0  0  0  0  0  0  0  0  0
   40.5880   27.2160   42.1330 N   0  0  0  0  0  0  0  0  0  0  0  0
   40.4110   25.8960   42.0790 C   0  0  0  0  0  0  0  0  0  0  0  0
   41.3550   25.0560   42.5380 N   0  0  0  0  0  0  0  0  0  0  0  0
   43.6280   27.2970   43.5520 H   0  0  0  0  0  0  0  0  0  0  0  0
   41.8620   28.8590   42.6930 H   0  0  0  0  0  0  0  0  0  0  0  0
   43.5010   24.6510   43.5490 N   0  0  0  0  0  0  0  0  0  0  0  0
   43.1630   24.2720   44.4640 H   0  0  0  0  0  0  0  0  0  0  0  0
   44.4300   24.3660   43.1810 H   0  0  0  0  0  0  0  0  0  0  0  0
   37.1260   25.5210   38.5110 O   0  0  0  0  0  0  0  0  0  0  0  0
   34.8220   26.3810   37.5360 O   0  0  0  0  0  0  0  0  0  0  0  0
   36.1410   26.8260   38.1010 P   0  0  2  0  0  0  0  0  0  0  0  0
   36.9830   27.7880   36.9620 O   0  0  0  0  0  0  0  0  0  0  0  0
   36.3810   28.5100   36.6030 H   0  0  0  0  0  0  0  0  0  0  0  0
   35.8540   27.8590   39.4070 O   0  0  0  0  0  0  0  0  0  0  0  0
   36.7300   28.7490   39.9610 C   0  0  0  0  0  0  0  0  0  0  0  0
   37.4220   29.7480   39.3840 N   0  0  0  0  0  0  0  0  0  0  0  0
   38.2520   30.5420   40.0700 C   0  0  0  0  0  3  0  0  0  0  0  0
   38.4360   30.3710   41.4080 N   0  0  0  0  0  0  0  0  0  0  0  0
   37.7750   29.3910   42.0470 C   0  0  0  0  0  0  0  0  0  0  0  0
   38.0050   29.2690   43.4030 C   0  0  0  0  0  3  0  0  0  0  0  0
   37.3450   28.2750   44.0960 C   0  0  0  0  0  0  0  0  0  0  0  0
   37.4400   28.0770   45.1540 H   0  0  0  0  0  0  0  0  0  0  0  0
   36.4800   27.4350   43.4180 C   0  0  0  0  0  0  0  0  0  0  0  0
   35.9330   26.6310   43.9180 H   0  0  0  0  0  0  0  0  0  0  0  0
   36.2870   27.6000   42.0650 C   0  0  0  0  0  3  0  0  0  0  0  0
   36.9340   28.5920   41.3270 C   0  0  0  0  0  0  0  0  0  0  0  0
  1  2  1  0  0  0  0
  2  3  1  0  0  0  0
  3 15  1  0  0  0  0
  3  4  2  0  0  0  0
  4  8  1  0  0  0  0
  5  4  1  0  0  0  0
  5  9  1  0  0  0  0
  6  5  2  0  0  0  0
  7  2  2  0  0  0  0
  7  6  1  0  0  0  0
 10  6  1  0  0  0  0
 11 12  1  0  0  0  0
 11 19  1  0  0  0  0
 12 17  1  0  0  0  0
 13 18  1  0  0  0  0
 13 12  2  0  0  0  0
 14 13  1  0  0  0  0
 15 14  2  0  0  0  0
 15 16  1  0  0  0  0
 16 11  2  0  0  0  0
 19 20  1  0  0  0  0
 21 19  1  0  0  0  0
 22  7  1  0  0  0  0
 24 23  2  6  0  0  0
 24 22  1  0  0  0  0
 24 27  1  0  0  0  0
 25 24  1  0  0  0  0
 26 25  1  0  0  0  0
 27 28  1  0  0  0  0
 28 39  1  0  0  0  0
 29 28  2  0  0  0  0
 29 30  1  0  0  0  0
 30 31  2  0  0  0  0
 31 32  1  0  0  0  0
 32 33  1  0  0  0  0
 33 34  2  0  0  0  0
 34 35  1  0  0  0  0
 36 37  1  0  0  0  0
 36 34  1  0  0  0  0
 38 36  2  0  0  0  0
 39 32  2  0  0  0  0
 39 38  1  0  0  0  0
M  END
>  <minimizedAffinity>
-6.31928968

$$$$

 OpenBabel03252506143D

 39 42  0  0  0  0  0  0  0  0999 V2000
   40.8220   28.1850   39.9030 F   0  0  0  0  0  0  0  0  0  0  0  0
   41.0810   29.0300   40.9070 C   0  0  0  0  0  0  0  0  0  0  0  0
   40.4200   30.2400   40.9480 C   0  0  0  0  0  0  0  0  0  0  0  0
   40.6290   31.1790   41.9620 C   0  0  0  0  0  0  0  0  0  0  0  0
   41.5390   30.8940   42.9810 C   0  0  0  0  0  0  0  0  0  0  0  0
   42.1770   29.6650   42.8950 C   0  0  0  0  0  0  0  0  0  0  0  0
   41.9850   28.7410   41.9160 C   0  0  0  0  0  0  0  0  0  0  0  0
   40.0680   32.1190   41.9280 H   0  0  0  0  0  0  0  0  0  0  0  0
   41.6510   31.6480   43.7190 H   0  0  0  0  0  0  0  0  0  0  0  0
   42.8440   29.5760   43.7480 H   0  0  0  0  0  0  0  0  0  0  0  0
   39.0050   31.5550   37.8300 C   0  0  0  0  0  0  0  0  0  0  0  0
   37.6370   31.2360   37.9770 C   0  0  0  0  0  0  0  0  0  0  0  0
   37.2050   30.5650   39.1530 C   0  0  0  0  0  0  0  0  0  0  0  0
   38.1660   30.2720   40.0790 N   0  0  0  0  0  0  0  0  0  0  0  0
   39.4500   30.5880   39.9090 C   0  0  0  0  0  0  0  0  0  0  0  0
   39.8600   31.2220   38.7970 N   0  0  0  0  0  0  0  0  0  0  0  0
   36.9230   31.4920   37.2110 H   0  0  0  0  0  0  0  0  0  0  0  0
   36.1630   30.3090   39.2900 H   0  0  0  0  0  0  0  0  0  0  0  0
   39.4090   32.2200   36.6540 N   0  0  0  0  0  0  0  0  0  0  0  0
   39.5950   33.2160   36.9130 H   0  0  0  0  0  0  0  0  0  0  0  0
   39.5360   31.9070   35.6710 H   0  0  0  0  0  0  0  0  0  0  0  0
   42.6750   27.5650   41.9400 O   0  0  0  0  0  0  0  0  0  0  0  0
   43.6030   26.6470   44.2410 O   0  0  0  0  0  0  0  0  0  0  0  0
   42.6180   26.3810   43.1380 P   0  0  2  0  0  0  0  0  0  0  0  0
   42.9400   24.8680   42.4040 O   0  0  0  0  0  0  0  0  0  0  0  0
   43.0340   24.1530   43.1050 H   0  0  0  0  0  0  0  0  0  0  0  0
   41.0780   26.2120   43.8120 O   0  0  0  0  0  0  0  0  0  0  0  0
   39.9670   25.6910   43.2080 C   0  0  0  0  0  0  0  0  0  0  0  0
   39.7510   24.4560   42.7250 N   0  0  0  0  0  0  0  0  0  0  0  0
   38.5960   24.0950   42.1540 C   0  0  0  0  0  3  0  0  0  0  0  0
   37.5680   24.9820   42.0360 N   0  0  0  0  0  0  0  0  0  0  0  0
   37.7190   26.2340   42.4980 C   0  0  0  0  0  0  0  0  0  0  0  0
   36.6410   27.0840   42.3480 C   0  0  0  0  0  3  0  0  0  0  0  0
   36.7560   28.3790   42.8100 C   0  0  0  0  0  0  0  0  0  0  0  0
   35.9870   29.1380   42.7520 H   0  0  0  0  0  0  0  0  0  0  0  0
   37.9360   28.7860   43.4050 C   0  0  0  0  0  0  0  0  0  0  0  0
   38.0800   29.8000   43.7870 H   0  0  0  0  0  0  0  0  0  0  0  0
   38.9810   27.8980   43.5300 C   0  0  0  0  0  3  0  0  0  0  0  0
   38.9070   26.5790   43.0760 C   0  0  0  0  0  0  0  0  0  0  0  0
  1  2  1  0  0  0  0
  2  3  2  0  0  0  0
  2  7  1  0  0  0  0
  3  4  1  0  0  0  0
  4  5  2  0  0  0  0
  5  9  1  0  0  0  0
  6  5  1  0  0  0  0
  6 10  1  0  0  0  0
  7 22  1  0  0  0  0
  7  6  2  0  0  0  0
  8  4  1  0  0  0  0
 11 12  2  0  0  0  0
 11 16  1  0  0  0  0
 12 13  1  0  0  0  0
 13 18  1  0  0  0  0
 13 14  2  0  0  0  0
 15 14  1  0  0  0  0
 15  3  1  0  0  0  0
 16 15  2  0  0  0  0
 17 12  1  0  0  0  0
 19 20  1  0  0  0  0
 19 11  1  0  0  0  0
 21 19  1  0  0  0  0
 22 24  1  0  0  0  0
 24 27  1  0  0  0  0
 24 23  2  1  0  0  0
 25 26  1  0  0  0  0
 25 24  1  0  0  0  0
 28 27  1  0  0  0  0
 29 28  2  0  0  0  0
 30 29  1  0  0  0  0
 31 30  2  0  0  0  0
 31 32  1  0  0  0  0
 32 39  1  0  0  0  0
 33 32  2  0  0  0  0
 33 34  1  0  0  0  0
 34 36  2  0  0  0  0
 35 34  1  0  0  0  0
 36 38  1  0  0  0  0
 36 37  1  0  0  0  0
 39 28  1  0  0  0  0
 39 38  2  0  0  0  0
M  END
>  <minimizedAffinity>
-6.30287743

$$$$

 OpenBabel03252506143D

 39 42  0  0  0  0  0  0  0  0999 V2000
   40.1990   27.6110   40.3540 F   0  0  0  0  0  0  0  0  0  0  0  0
   40.6600   27.4430   41.5980 C   0  0  0  0  0  0  0  0  0  0  0  0
   40.3450   26.2840   42.2760 C   0  0  0  0  0  0  0  0  0  0  0  0
   40.7870   26.0280   43.5770 C   0  0  0  0  0  0  0  0  0  0  0  0
   41.5800   26.9740   44.2290 C   0  0  0  0  0  0  0  0  0  0  0  0
   41.8690   28.1210   43.5040 C   0  0  0  0  0  0  0  0  0  0  0  0
   41.4480   28.3850   42.2390 C   0  0  0  0  0  0  0  0  0  0  0  0
   40.4950   25.0840   44.0530 H   0  0  0  0  0  0  0  0  0  0  0  0
   41.8810   26.7180   45.2130 H   0  0  0  0  0  0  0  0  0  0  0  0
   42.4930   28.7570   44.1260 H   0  0  0  0  0  0  0  0  0  0  0  0
   39.2100   23.7410   39.8890 C   0  0  0  0  0  0  0  0  0  0  0  0
   37.9800   23.3400   40.4570 C   0  0  0  0  0  0  0  0  0  0  0  0
   37.5450   23.9490   41.6650 C   0  0  0  0  0  0  0  0  0  0  0  0
   38.3660   24.9010   42.2020 N   0  0  0  0  0  0  0  0  0  0  0  0
   39.5210   25.2550   41.6390 C   0  0  0  0  0  0  0  0  0  0  0  0
   39.9340   24.6800   40.4960 N   0  0  0  0  0  0  0  0  0  0  0  0
   37.3740   22.5820   39.9880 H   0  0  0  0  0  0  0  0  0  0  0  0
   36.6080   23.6610   42.1210 H   0  0  0  0  0  0  0  0  0  0  0  0
   39.6200   23.1210   38.6910 N   0  0  0  0  0  0  0  0  0  0  0  0
   39.4740   23.8140   37.9210 H   0  0  0  0  0  0  0  0  0  0  0  0
   40.0050   22.1800   38.4750 H   0  0  0  0  0  0  0  0  0  0  0  0
   41.7980   29.5540   41.6310 O   0  0  0  0  0  0  0  0  0  0  0  0
   41.5780   32.0960   40.9310 O   0  0  0  0  0  0  0  0  0  0  0  0
   41.2240   31.0970   41.9950 P   0  0  2  0  0  0  0  0  0  0  0  0
   41.8900   31.5690   43.5000 O   0  0  0  0  0  0  0  0  0  0  0  0
   41.6670   32.5300   43.6940 H   0  0  0  0  0  0  0  0  0  0  0  0
   39.5520   31.1270   42.2370 O   0  0  0  0  0  0  0  0  0  0  0  0
   38.5960   30.5350   41.4600 C   0  0  0  0  0  0  0  0  0  0  0  0
   38.2370   30.7950   40.1910 N   0  0  0  0  0  0  0  0  0  0  0  0
   37.2690   30.1200   39.5610 C   0  0  0  0  0  3  0  0  0  0  0  0
   36.5910   29.1210   40.1910 N   0  0  0  0  0  0  0  0  0  0  0  0
   36.8990   28.8100   41.4610 C   0  0  0  0  0  0  0  0  0  0  0  0
   36.1760   27.7880   42.0430 C   0  0  0  0  0  3  0  0  0  0  0  0
   36.4620   27.4390   43.3470 C   0  0  0  0  0  0  0  0  0  0  0  0
   35.9690   26.6600   43.9120 H   0  0  0  0  0  0  0  0  0  0  0  0
   37.4580   28.1160   44.0280 C   0  0  0  0  0  0  0  0  0  0  0  0
   37.7240   27.8800   45.0620 H   0  0  0  0  0  0  0  0  0  0  0  0
   38.1490   29.1280   43.4000 C   0  0  0  0  0  3  0  0  0  0  0  0
   37.8910   29.5130   42.0840 C   0  0  0  0  0  0  0  0  0  0  0  0
  1  2  1  0  0  0  0
  2  7  2  0  0  0  0
  2  3  1  0  0  0  0
  3  4  2  0  0  0  0
  4  8  1  0  0  0  0
  4  5  1  0  0  0  0
  5  9  1  0  0  0  0
  6 10  1  0  0  0  0
  6  5  2  0  0  0  0
  7  6  1  0  0  0  0
 11 12  2  0  0  0  0
 11 16  1  0  0  0  0
 12 13  1  0  0  0  0
 13 18  1  0  0  0  0
 13 14  2  0  0  0  0
 15 14  1  0  0  0  0
 15  3  1  0  0  0  0
 16 15  2  0  0  0  0
 17 12  1  0  0  0  0
 19 11  1  0  0  0  0
 20 19  1  0  0  0  0
 21 19  1  0  0  0  0
 22 24  1  0  0  0  0
 22  7  1  0  0  0  0
 24 23  2  6  0  0  0
 24 27  1  0  0  0  0
 24 25  1  0  0  0  0
 25 26  1  0  0  0  0
 28 39  1  0  0  0  0
 28 27  1  0  0  0  0
 29 28  2  0  0  0  0
 30 31  2  0  0  0  0
 30 29  1  0  0  0  0
 31 32  1  0  0  0  0
 32 33  2  0  0  0  0
 32 39  1  0  0  0  0
 33 34  1  0  0  0  0
 34 35  1  0  0  0  0
 34 36  2  0  0  0  0
 36 37  1  0  0  0  0
 38 36  1  0  0  0  0
 39 38  2  0  0  0  0
M  END
>  <minimizedAffinity>
-6.23401976

$$$$
