
 OpenBabel03242523303D

 25 27  0  0  0  0  0  0  0  0999 V2000
   46.8330   32.4050   46.7570 S   0  0  0  0  0  0  0  0  0  0  0  0
   46.3540   30.7080   47.0380 C   0  0  0  0  0  0  0  0  0  0  0  0
   45.3690   30.2940   47.8700 N   0  0  0  0  0  0  0  0  0  0  0  0
   45.1060   28.9780   47.9980 C   0  0  0  0  0  3  0  0  0  0  0  0
   45.8070   28.0380   47.3080 N   0  0  0  0  0  0  0  0  0  0  0  0
   46.8090   28.3990   46.4570 C   0  0  0  0  0  0  0  0  0  0  0  0
   47.4920   27.4090   45.7800 C   0  0  0  0  0  3  0  0  0  0  0  0
   48.5150   27.8130   44.9160 C   0  0  0  0  0  0  0  0  0  0  0  0
   49.1180   27.1330   44.3340 H   0  0  0  0  0  0  0  0  0  0  0  0
   48.8050   29.1490   44.7660 C   0  0  0  0  0  0  0  0  0  0  0  0
   49.5970   29.5110   44.1000 H   0  0  0  0  0  0  0  0  0  0  0  0
   48.0830   30.0910   45.4720 C   0  0  0  0  0  3  0  0  0  0  0  0
   47.0590   29.7490   46.3430 C   0  0  0  0  0  0  0  0  0  0  0  0
   45.3430   33.4540   46.8090 C   0  0  0  0  0  0  0  0  0  0  0  0
   45.3360   34.0830   47.7290 H   0  0  0  0  0  0  0  0  0  0  0  0
   44.4240   32.8440   46.8410 H   0  0  0  0  0  0  0  0  0  0  0  0
   44.6310   36.0820   44.2670 C   0  0  0  0  0  0  0  0  0  0  0  0
   45.4470   35.6500   43.2110 C   0  0  0  0  0  0  0  0  0  0  0  0
   46.2160   34.4840   43.3850 C   0  0  0  0  0  0  0  0  0  0  0  0
   46.1390   33.8170   44.5740 N   0  0  0  0  0  0  0  0  0  0  0  0
   45.3280   34.2750   45.5790 C   0  0  0  0  0  0  0  0  0  0  0  0
   44.6020   35.3800   45.4090 N   0  0  0  0  0  0  0  0  0  0  0  0
   44.0570   36.9770   44.0990 H   0  0  0  0  0  0  0  0  0  0  0  0
   45.5480   36.1320   42.2520 H   0  0  0  0  0  0  0  0  0  0  0  0
   46.8620   34.0850   42.6340 H   0  0  0  0  0  0  0  0  0  0  0  0
  1 14  1  0  0  0  0
  1  2  1  0  0  0  0
  2  3  1  0  0  0  0
  3  4  2  0  0  0  0
  5  4  1  0  0  0  0
  6  5  2  0  0  0  0
  7  6  1  0  0  0  0
  8  7  2  0  0  0  0
  9  8  1  0  0  0  0
 10  8  1  0  0  0  0
 10 12  2  0  0  0  0
 11 10  1  0  0  0  0
 12 13  1  0  0  0  0
 13  6  1  0  0  0  0
 13  2  2  0  0  0  0
 14 16  1  0  0  0  0
 14 15  1  0  0  0  0
 17 22  1  0  0  0  0
 18 19  1  0  0  0  0
 18 17  2  0  0  0  0
 19 20  2  0  0  0  0
 20 21  1  0  0  0  0
 21 14  1  0  0  0  0
 22 21  2  0  0  0  0
 23 17  1  0  0  0  0
 24 18  1  0  0  0  0
 25 19  1  0  0  0  0
M  END
>  <minimizedAffinity>
-4.08607864

>  <minimizedRMSD>
3.21904135

$$$$
