REMARK  Name = 
REMARK  9 active torsions:
REMARK  status: ('A' for Active; 'I' for Inactive)
REMARK    1  A    between atoms: O_1  and  C_2
REMARK    2  A    between atoms: O_1  and  C_9
REMARK    3  A    between atoms: C_2  and  C_4
REMARK    4  A    between atoms: C_10  and  C_11
REMARK    5  A    between atoms: C_11  and  O_12
REMARK    6  A    between atoms: O_12  and  P_14
REMARK    7  A    between atoms: P_14  and  O_15
REMARK    8  A    between atoms: P_14  and  O_16
REMARK    9  A    between atoms: O_16  and  C_27
REMARK                            x       y       z     vdW  Elec       q    Type
REMARK                         _______ _______ _______ _____ _____    ______ ____
ROOT
ATOM      1  C   UNL     1      45.194  35.581  43.538  0.00  0.00    +0.000 C 
ATOM      2  H   UNL     1      46.040  35.130  42.959  0.00  0.00    +0.000 HD
ATOM      3  H   UNL     1      45.333  36.670  43.645  0.00  0.00    +0.000 HD
ENDROOT
BRANCH   1   5
ATOM      4  C   UNL     1      43.727  35.684  41.469  0.00  0.00    +0.000 C 
ATOM      5  C   UNL     1      43.960  35.258  42.716  0.00  0.00    +0.000 C 
BRANCH   4   6
ATOM      6  O   UNL     1      42.537  35.280  40.880  0.00  0.00    +0.000 OA
BRANCH   6   7
ATOM      7  C   UNL     1      41.272  35.733  41.179  0.00  0.00    +0.000 C 
ATOM      8  H   UNL     1      41.219  35.798  42.311  0.00  0.00    +0.000 HD
ATOM      9  H   UNL     1      41.083  36.736  40.796  0.00  0.00    +0.000 HD
BRANCH   7  11
ATOM     10  C   UNL     1      40.266  33.577  41.602  0.00  0.00    +0.000 A 
ATOM     11  C   UNL     1      40.199  34.762  40.840  0.00  0.00    +0.000 A 
ATOM     12  C   UNL     1      39.196  34.857  39.929  0.00  0.00    +0.000 A 
ATOM     13  N   UNL     1      38.357  33.826  39.828  0.00  0.00    +0.000 NA
ATOM     14  C   UNL     1      38.416  32.715  40.541  0.00  0.00    +0.000 A 
ATOM     15  N   UNL     1      39.413  32.538  41.495  0.00  0.00    +0.000 NA
ATOM     16  H   UNL     1      41.039  33.401  42.365  0.00  0.00    +0.000 HD
ATOM     17  H   UNL     1      39.198  35.785  39.378  0.00  0.00    +0.000 HD
ATOM     18  H   UNL     1      37.700  31.909  40.411  0.00  0.00    +0.000 HD
ENDBRANCH   7  11
ENDBRANCH   6   7
ENDBRANCH   4   6
ENDBRANCH   1   5
BRANCH   1  19
ATOM     19  O   UNL     1      45.058  34.942  44.745  0.00  0.00    +0.000 OA
BRANCH  19  21
ATOM     20  O   UNL     1      45.545  32.348  44.438  0.00  0.00    +0.000 OA
ATOM     21  P   UNL     1      46.145  33.648  44.879  0.00  0.00    +0.000 P 
BRANCH  21  22
ATOM     22  O   UNL     1      47.522  33.946  43.942  0.00  0.00    +0.000 OA
ATOM     23  H   UNL     1      47.967  34.780  44.252  0.00  0.00    +0.000 HD
ENDBRANCH  21  22
BRANCH  21  24
ATOM     24  O   UNL     1      46.661  33.540  46.494  0.00  0.00    +0.000 OA
BRANCH  24  25
ATOM     25  C   UNL     1      47.281  32.351  46.873  0.00  0.00    +0.000 A 
ATOM     26  N   UNL     1      47.742  32.123  48.118  0.00  0.00    +0.000 NA
ATOM     27  C   UNL     1      48.342  30.945  48.445  0.00  0.00    +0.000 A 
ATOM     28  N   UNL     1      48.466  30.010  47.496  0.00  0.00    +0.000 NA
ATOM     29  C   UNL     1      48.027  30.170  46.225  0.00  0.00    +0.000 A 
ATOM     30  C   UNL     1      48.237  29.101  45.374  0.00  0.00    +0.000 A 
ATOM     31  C   UNL     1      47.779  29.287  44.075  0.00  0.00    +0.000 A 
ATOM     32  H   UNL     1      47.933  28.462  43.393  0.00  0.00    +0.000 HD
ATOM     33  C   UNL     1      47.166  30.465  43.703  0.00  0.00    +0.000 A 
ATOM     34  H   UNL     1      46.816  30.588  42.686  0.00  0.00    +0.000 HD
ATOM     35  C   UNL     1      46.979  31.505  44.590  0.00  0.00    +0.000 A 
ATOM     36  C   UNL     1      47.420  31.373  45.909  0.00  0.00    +0.000 A 
ENDBRANCH  24  25
ENDBRANCH  21  24
ENDBRANCH  19  21
ENDBRANCH   1  19
TORSDOF 9
