
 OpenBabel03252508443D

 42 45  0  0  0  0  0  0  0  0999 V2000
   44.2830   33.5730   41.7000 C   0  0  0  0  0  0  0  0  0  0  0  0
   43.8090   33.2610   40.7560 H   0  0  0  0  0  0  0  0  0  0  0  0
   44.3230   32.6900   42.3700 H   0  0  0  0  0  0  0  0  0  0  0  0
   46.3150   33.6600   40.2590 C   0  0  0  0  0  0  0  0  0  0  0  0
   45.6550   34.0580   41.4100 C   0  0  0  0  0  0  0  0  0  0  0  0
   46.3050   34.9110   42.2670 C   0  0  0  0  0  0  0  0  0  0  0  0
   47.5660   35.3530   41.9940 C   0  0  0  0  0  0  0  0  0  0  0  0
   48.2390   34.9730   40.8610 C   0  0  0  0  0  0  0  0  0  0  0  0
   47.5520   34.1100   40.0170 C   0  0  0  0  0  0  0  0  0  0  0  0
   45.8180   35.2390   43.1710 H   0  0  0  0  0  0  0  0  0  0  0  0
   48.0930   36.0250   42.6610 H   0  0  0  0  0  0  0  0  0  0  0  0
   49.2330   35.2600   40.5490 H   0  0  0  0  0  0  0  0  0  0  0  0
   48.0140   33.7620   39.1000 H   0  0  0  0  0  0  0  0  0  0  0  0
   44.2050   32.1870   37.4950 C   0  0  0  0  0  0  0  0  0  0  0  0
   44.8710   33.1490   38.2710 C   0  0  0  0  0  0  0  0  0  0  0  0
   45.5800   32.7490   39.3740 C   0  0  0  0  0  0  0  0  0  0  0  0
   45.6050   31.4190   39.6690 N   0  0  0  0  0  0  0  0  0  0  0  0
   44.9580   30.5010   38.9120 C   0  0  0  0  0  0  0  0  0  0  0  0
   44.2630   30.8770   37.8330 N   0  0  0  0  0  0  0  0  0  0  0  0
   43.6470   32.5020   36.6270 H   0  0  0  0  0  0  0  0  0  0  0  0
   44.8490   34.2090   38.0340 H   0  0  0  0  0  0  0  0  0  0  0  0
   45.0040   29.4530   39.1820 H   0  0  0  0  0  0  0  0  0  0  0  0
   43.4230   34.5540   42.3100 N   0  0  0  0  0  0  0  0  0  0  0  0
   43.9250   35.3700   42.6810 H   0  0  0  0  0  0  0  0  0  0  0  0
   42.1220   35.0090   41.2950 S   0  0  0  0  0  0  0  0  0  0  0  0
   42.5460   35.0220   39.8600 O   0  0  0  0  0  0  0  0  0  0  0  0
   43.1090   35.6610   39.3890 H   0  0  0  0  0  0  0  0  0  0  0  0
   41.5490   36.3300   41.6800 O   0  0  0  0  0  0  0  0  0  0  0  0
   40.9030   36.4930   42.4170 H   0  0  0  0  0  0  0  0  0  0  0  0
   40.9320   33.8360   41.4820 O   0  0  0  0  0  0  0  0  0  0  0  0
   40.8180   32.7450   40.6310 C   0  0  0  0  0  0  0  0  0  0  0  0
   41.5040   31.5700   40.7490 N   0  0  0  0  0  0  0  0  0  0  0  0
   41.3120   30.5780   39.8600 C   0  0  0  0  0  3  0  0  0  0  0  0
   40.4580   30.6500   38.8120 N   0  0  0  0  0  0  0  0  0  0  0  0
   39.7720   31.8150   38.6860 C   0  0  0  0  0  0  0  0  0  0  0  0
   38.9010   31.8850   37.6150 C   0  0  0  0  0  3  0  0  0  0  0  0
   38.1550   33.0400   37.4080 C   0  0  0  0  0  0  0  0  0  0  0  0
   37.4660   33.0920   36.5560 H   0  0  0  0  0  0  0  0  0  0  0  0
   38.2980   34.1090   38.2820 C   0  0  0  0  0  0  0  0  0  0  0  0
   37.7060   35.0030   38.1020 H   0  0  0  0  0  0  0  0  0  0  0  0
   39.1810   34.0050   39.3480 C   0  0  0  0  0  3  0  0  0  0  0  0
   39.9350   32.8730   39.5800 C   0  0  0  0  0  0  0  0  0  0  0  0
  1 23  1  0  0  0  0
  1  3  1  0  0  0  0
  2  1  1  0  0  0  0
  4  5  1  0  0  0  0
  5  1  1  0  0  0  0
  5  6  2  0  0  0  0
  6 10  1  0  0  0  0
  7  6  1  0  0  0  0
  7 11  1  0  0  0  0
  8  7  2  0  0  0  0
  9  4  2  0  0  0  0
  9  8  1  0  0  0  0
 12  8  1  0  0  0  0
 13  9  1  0  0  0  0
 14 19  2  0  0  0  0
 14 15  1  0  0  0  0
 15 16  2  0  0  0  0
 16 17  1  0  0  0  0
 16  4  1  0  0  0  0
 18 22  1  0  0  0  0
 18 17  2  0  0  0  0
 19 18  1  0  0  0  0
 20 14  1  0  0  0  0
 21 15  1  0  0  0  0
 23 24  1  0  0  0  0
 25 30  1  0  0  0  0
 25 28  1  0  0  0  0
 25 23  1  0  0  0  0
 26 25  1  0  0  0  0
 27 26  1  0  0  0  0
 28 29  1  0  0  0  0
 31 32  1  0  0  0  0
 31 30  1  0  0  0  0
 33 32  2  0  0  0  0
 34 33  1  0  0  0  0
 35 34  2  0  0  0  0
 35 42  1  0  0  0  0
 36 35  1  0  0  0  0
 37 36  2  0  0  0  0
 37 39  1  0  0  0  0
 38 37  1  0  0  0  0
 39 41  2  0  0  0  0
 40 39  1  0  0  0  0
 41 42  1  0  0  0  0
 42 31  2  0  0  0  0
M  END
>  <minimizedAffinity>
-6.00497055

>  <minimizedRMSD>
6.99645138

$$$$
