
 OpenBabel03252508033D

 45 49  0  0  1  0  0  0  0  0999 V2000
   42.6020   33.2470   41.1430 C   0  0  0  0  0  0  0  0  0  0  0  0
   43.2080   34.4290   41.4540 C   0  0  0  0  0  0  0  0  0  0  0  0
   42.4380   35.6100   41.3930 C   0  0  0  0  0  0  0  0  0  0  0  0
   41.1070   35.6150   41.0340 C   0  0  0  0  0  0  0  0  0  0  0  0
   40.5080   34.4260   40.7240 C   0  0  0  0  0  0  0  0  0  0  0  0
   41.2490   33.2850   40.7810 C   0  0  0  0  0  0  0  0  0  0  0  0
   42.8270   36.5890   41.6130 H   0  0  0  0  0  0  0  0  0  0  0  0
   40.5230   36.5130   40.9890 H   0  0  0  0  0  0  0  0  0  0  0  0
   39.4890   34.3540   40.4390 H   0  0  0  0  0  0  0  0  0  0  0  0
   40.7660   32.3270   40.5300 H   0  0  0  0  0  0  0  0  0  0  0  0
   43.4100   31.7670   41.2210 S   0  0  0  0  0  0  0  0  0  0  0  0
   42.5710   30.8730   40.3140 O   0  0  0  0  0  0  0  0  0  0  0  0
   43.2960   31.2410   42.6340 O   0  0  0  0  0  0  0  0  0  0  0  0
   44.7920   31.2160   40.4980 C   0  0  0  0  0  0  0  0  0  0  0  0
   45.7390   30.3960   41.0080 N   0  0  0  0  0  0  0  0  0  0  0  0
   46.9150   30.0440   40.5680 C   0  0  0  0  0  3  0  0  0  0  0  0
   47.2530   30.5850   39.4070 N   0  0  0  0  0  0  0  0  0  0  0  0
   46.4430   31.4200   38.7520 C   0  0  0  0  0  0  0  0  0  0  0  0
   46.9920   31.8860   37.5550 C   0  0  0  0  0  3  0  0  0  0  0  0
   46.2190   32.7590   36.8190 C   0  0  0  0  0  0  0  0  0  0  0  0
   46.5890   33.1530   35.8860 H   0  0  0  0  0  0  0  0  0  0  0  0
   44.9730   33.1230   37.2840 C   0  0  0  0  0  0  0  0  0  0  0  0
   44.3900   33.8070   36.6850 H   0  0  0  0  0  0  0  0  0  0  0  0
   44.5290   32.6060   38.4770 C   0  0  0  0  0  3  0  0  0  0  0  0
   45.2200   31.7360   39.2840 C   0  0  0  0  0  0  0  0  0  0  0  0
   44.6050   34.5290   41.8270 C   0  0  0  0  0  0  0  0  0  0  0  0
   45.5640   34.6410   40.9860 O   0  0  0  0  0  0  0  0  0  0  0  0
   44.8170   34.4920   43.2450 C   0  0  0  0  0  0  0  0  0  0  0  0
   44.3880   35.6540   43.9520 C   0  0  0  0  0  0  0  0  0  0  0  0
   44.5780   35.6420   45.3330 C   0  0  0  0  0  0  0  0  0  0  0  0
   45.1450   34.5460   45.9040 N   0  0  0  0  0  0  0  0  0  0  0  0
   45.5310   33.4760   45.1720 C   0  0  0  0  0  0  0  0  0  0  0  0
   45.3670   33.4640   43.8910 N   0  0  0  0  0  0  0  0  0  0  0  0
   43.9410   36.5490   43.6000 H   0  0  0  0  0  0  0  0  0  0  0  0
   44.3000   36.4530   45.9960 H   0  0  0  0  0  0  0  0  0  0  0  0
   46.1340   32.3160   45.8790 C   0  0  1  0  0  0  0  0  0  0  0  0
   47.0390   32.5770   47.0650 C   0  0  0  0  0  0  0  0  0  0  0  0
   45.6430   32.0800   47.2430 C   0  0  1  0  0  0  0  0  0  0  0  0
   46.3730   31.4530   45.2550 H   0  0  0  0  0  0  0  0  0  0  0  0
   47.8360   31.8180   47.2320 H   0  0  0  0  0  0  0  0  0  0  0  0
   47.3060   33.6340   47.2290 H   0  0  0  0  0  0  0  0  0  0  0  0
   45.4860   31.0410   47.5870 H   0  0  0  0  0  0  0  0  0  0  0  0
   44.7950   33.0790   47.8870 N   0  0  0  0  0  0  0  0  0  0  0  0
   44.2090   32.6160   48.6440 H   0  0  0  0  0  0  0  0  0  0  0  0
   45.3070   33.8540   48.3220 H   0  0  0  0  0  0  0  0  0  0  0  0
  1 11  1  0  0  0  0
  1  2  1  0  0  0  0
  2 26  1  0  0  0  0
  3  2  2  0  0  0  0
  3  7  1  0  0  0  0
  4  3  1  0  0  0  0
  5  6  1  0  0  0  0
  5  4  2  0  0  0  0
  6  1  2  0  0  0  0
  8  4  1  0  0  0  0
  9  5  1  0  0  0  0
 10  6  1  0  0  0  0
 11 13  2  0  0  0  0
 12 11  2  0  0  0  0
 14 15  1  0  0  0  0
 14 11  1  0  0  0  0
 16 15  2  0  0  0  0
 17 16  1  0  0  0  0
 18 25  1  0  0  0  0
 18 17  2  0  0  0  0
 19 18  1  0  0  0  0
 20 22  1  0  0  0  0
 20 19  2  0  0  0  0
 21 20  1  0  0  0  0
 22 24  2  0  0  0  0
 23 22  1  0  0  0  0
 24 25  1  0  0  0  0
 25 14  2  0  0  0  0
 26 28  1  0  0  0  0
 27 26  2  0  0  0  0
 28 33  2  0  0  0  0
 28 29  1  0  0  0  0
 29 30  2  0  0  0  0
 30 31  1  0  0  0  0
 30 35  1  0  0  0  0
 32 36  1  0  0  0  0
 32 31  2  0  0  0  0
 33 32  1  0  0  0  0
 34 29  1  0  0  0  0
 36 39  1  6  0  0  0
 36 37  1  0  0  0  0
 36 38  1  0  0  0  0
 37 41  1  0  0  0  0
 37 40  1  0  0  0  0
 37 38  1  0  0  0  0
 38 42  1  1  0  0  0
 38 43  1  0  0  0  0
 43 45  1  0  0  0  0
 43 44  1  0  0  0  0
M  END
>  <minimizedAffinity>
-6.20364141

>  <minimizedRMSD>
1.50758672

$$$$
