
     RDKit          3D

 30 32  0  0  0  0  0  0  0  0999 V2000
   45.2959   34.5693   45.0247 C   0  0  0  0  0  0  0  0  0  0  0  0
   45.2639   33.9364   46.2754 C   0  0  0  0  0  0  0  0  0  0  0  0
   46.1645   32.9083   46.4768 C   0  0  0  0  0  0  0  0  0  0  0  0
   46.9972   32.5882   45.4778 N   0  0  0  0  0  0  0  0  0  0  0  0
   47.0198   33.2029   44.2784 C   0  0  0  0  0  0  0  0  0  0  0  0
   46.1608   34.2078   44.0411 N   0  0  0  0  0  0  0  0  0  0  0  0
   43.9729   35.3896   43.3197 C   0  0  0  0  0  0  0  0  0  0  0  0
   44.4124   34.2708   42.8300 O   0  0  0  0  0  0  0  0  0  0  0  0
   44.4597   35.6536   44.6124 N   0  0  0  0  0  0  0  0  0  0  0  0
   44.3069   34.4240   47.1927 N   0  0  0  0  0  0  0  0  0  0  0  0
   46.1270   32.4311   47.4457 H   0  0  0  0  0  0  0  0  0  0  0  0
   47.7010   32.9228   43.4951 H   0  0  0  0  0  0  0  0  0  0  0  0
   44.0241   36.5412   44.7744 H   0  0  0  0  0  0  0  0  0  0  0  0
   44.1947   35.3730   47.6248 H   0  0  0  0  0  0  0  0  0  0  0  0
   43.6768   33.6273   47.3899 H   0  0  0  0  0  0  0  0  0  0  0  0
   43.2230   35.6370   42.1267 C   0  0  0  0  0  0  0  0  0  0  0  0
   43.1822   36.9777   42.0368 N   0  0  0  0  0  0  0  0  0  0  0  0
   42.5359   37.5903   41.0006 C   0  0  0  0  0  0  0  0  0  0  0  0
   41.9620   36.7901   40.1058 N   0  0  0  0  0  0  0  0  0  0  0  0
   41.9772   35.4554   40.1548 C   0  0  0  0  0  0  0  0  0  0  0  0
   41.3816   34.6099   39.2262 C   0  0  0  0  0  0  0  0  0  0  0  0
   41.4612   33.2216   39.3785 C   0  0  0  0  0  0  0  0  0  0  0  0
   40.9767   32.6058   38.6218 H   0  0  0  0  0  0  0  0  0  0  0  0
   42.1499   32.6996   40.4801 C   0  0  0  0  0  0  0  0  0  0  0  0
   42.1370   31.6187   40.4798 H   0  0  0  0  0  0  0  0  0  0  0  0
   42.7479   33.5171   41.4131 C   0  0  0  0  0  0  0  0  0  0  0  0
   42.6262   34.8607   41.1949 C   0  0  0  0  0  0  0  0  0  0  0  0
   42.5020   38.6701   40.9266 H   0  0  0  0  0  0  0  0  0  0  0  0
   40.8643   35.0755   38.3974 H   0  0  0  0  0  0  0  0  0  0  0  0
   43.2116   32.9126   42.1591 H   0  0  0  0  0  0  0  0  0  0  0  0
  1  2  2  0
  2  3  1  0
  2 10  1  0
  4  3  2  0
  5  4  1  0
  6  5  2  0
  6  1  1  0
  7  9  1  0
  8  7  2  0
  9  1  1  0
  3 11  1  0
  5 12  1  0
  9 13  1  0
 10 14  1  0
 10 15  1  0
 16 17  2  0
 17 18  1  0
 18 19  2  0
 19 20  1  0
 20 21  2  0
 21 22  1  0
 22 23  1  0
 22 24  2  0
 24 25  1  0
 24 26  1  0
 26 27  2  0
 27 16  1  0
 27 20  1  0
 18 28  1  0
 21 29  1  0
 26 30  1  0
  7 16  1  0
M  ISO  4  11  14  12  14  23  16  25  16
M  END
>  <DihAtoms>  (1) 
8,6,15,16

>  <DihDeg>  (1) 
179.75570661599892

$$$$
