
     RDKit          3D

 48 52  0  0  0  0  0  0  0  0999 V2000
   49.3326   33.2263   41.4952 N   0  0  0  0  0  0  0  0  0  0  0  0
   50.6631   33.1186   42.0379 C   0  0  0  0  0  0  0  0  0  0  0  0
   51.3386   31.8053   41.7889 C   0  0  0  0  0  0  0  0  0  0  0  0
   50.5840   30.7243   42.5334 C   0  0  0  0  0  0  0  0  0  0  0  0
   49.1097   30.9986   42.5376 C   0  0  0  0  0  0  0  0  0  0  0  0
   48.7673   31.9011   41.3793 C   0  0  2  0  0  0  0  0  0  0  0  0
   47.1899   34.5499   42.0115 C   0  0  1  0  0  0  0  0  0  0  0  0
   48.3214   35.4672   41.7326 C   0  0  0  0  0  0  0  0  0  0  0  0
   48.5864   34.1244   42.2836 C   0  0  2  0  0  0  0  0  0  0  0  0
   45.5057   36.0207   43.1515 C   0  0  0  0  0  0  0  0  0  0  0  0
   46.2891   34.8573   43.1396 C   0  0  0  0  0  0  0  0  0  0  0  0
   46.1753   33.9771   44.2406 C   0  0  0  0  0  0  0  0  0  0  0  0
   45.3215   34.3047   45.2382 N   0  0  0  0  0  0  0  0  0  0  0  0
   44.5793   35.4288   45.2261 C   0  0  0  0  0  0  0  0  0  0  0  0
   44.6640   36.3041   44.1763 N   0  0  0  0  0  0  0  0  0  0  0  0
   49.0521   31.2486   40.1307 N   0  0  0  0  0  0  0  0  0  0  0  0
   50.6431   33.2671   43.1389 H   0  0  0  0  0  0  0  0  0  0  0  0
   51.2426   33.9615   41.6213 H   0  0  0  0  0  0  0  0  0  0  0  0
   52.3711   31.9210   42.2414 H   0  0  0  0  0  0  0  0  0  0  0  0
   51.5342   31.5571   40.7440 H   0  0  0  0  0  0  0  0  0  0  0  0
   50.8503   29.7121   42.2047 H   0  0  0  0  0  0  0  0  0  0  0  0
   50.9136   30.8100   43.6065 H   0  0  0  0  0  0  0  0  0  0  0  0
   48.4864   30.1006   42.4688 H   0  0  0  0  0  0  0  0  0  0  0  0
   48.7803   31.5336   43.4582 H   0  0  0  0  0  0  0  0  0  0  0  0
   47.6644   32.0301   41.4193 H   0  0  0  0  0  0  0  0  0  0  0  0
   46.6282   34.2142   41.1111 H   0  0  0  0  0  0  0  0  0  0  0  0
   48.4974   36.3274   42.4072 H   0  0  0  0  0  0  0  0  0  0  0  0
   48.6181   35.6954   40.6791 H   0  0  0  0  0  0  0  0  0  0  0  0
   48.8235   34.0594   43.3889 H   0  0  0  0  0  0  0  0  0  0  0  0
   45.5952   36.6920   42.3080 H   0  0  0  0  0  0  0  0  0  0  0  0
   46.7646   33.0702   44.2657 H   0  0  0  0  0  0  0  0  0  0  0  0
   43.9392   35.5635   46.0897 H   0  0  0  0  0  0  0  0  0  0  0  0
   49.5941   31.8668   39.4973 H   0  0  0  0  0  0  0  0  0  0  0  0
   48.6753   29.9531   39.7116 C   0  0  0  0  0  0  0  0  0  0  0  0
   47.4509   29.4310   39.8540 N   0  0  0  0  0  0  0  0  0  0  0  0
   47.0399   28.2333   39.4778 C   0  0  0  0  0  0  0  0  0  0  0  0
   47.9290   27.4216   38.8805 N   0  0  0  0  0  0  0  0  0  0  0  0
   49.1905   27.8297   38.6800 C   0  0  0  0  0  0  0  0  0  0  0  0
   50.0745   26.9854   38.0709 C   0  0  0  0  0  0  0  0  0  0  0  0
   51.3860   27.3393   37.8335 C   0  0  0  0  0  0  0  0  0  0  0  0
   52.0215   26.6276   37.3523 H   0  0  0  0  0  0  0  0  0  0  0  0
   51.7640   28.6045   38.2475 C   0  0  0  0  0  0  0  0  0  0  0  0
   52.7944   28.8706   38.0561 H   0  0  0  0  0  0  0  0  0  0  0  0
   50.8579   29.4315   38.8559 C   0  0  0  0  0  0  0  0  0  0  0  0
   49.5517   29.0883   39.0961 C   0  0  0  0  0  0  0  0  0  0  0  0
   46.0211   27.9364   39.6534 H   0  0  0  0  0  0  0  0  0  0  0  0
   49.7431   25.9860   37.7535 H   0  0  0  0  0  0  0  0  0  0  0  0
   51.2690   30.3816   39.1298 H   0  0  0  0  0  0  0  0  0  0  0  0
  1  2  1  0
  1  9  1  0
  3  2  1  0
  3  4  1  0
  5  4  1  0
  6  1  1  0
  6  5  1  0
  7  9  1  0
  7 11  1  0
  8  7  1  0
  8  9  1  0
 10 15  2  0
 11 10  1  0
 11 12  2  0
 12 13  1  0
 14 13  2  0
 15 14  1  0
 16  6  1  0
  2 17  1  0
  2 18  1  0
  3 19  1  0
  3 20  1  0
  4 21  1  0
  4 22  1  0
  5 23  1  0
  5 24  1  0
  6 25  1  6
  7 26  1  6
  8 27  1  0
  8 28  1  0
  9 29  1  1
 10 30  1  0
 12 31  1  0
 14 32  1  0
 16 33  1  0
 34 35  2  0
 35 36  1  0
 36 37  2  0
 37 38  1  0
 38 39  2  0
 39 40  1  0
 40 41  1  0
 40 42  2  0
 42 43  1  0
 42 44  1  0
 44 45  2  0
 45 34  1  0
 45 38  1  0
 36 46  1  0
 39 47  1  0
 44 48  1  0
 16 34  1  0
M  ISO  8  17  13  18  13  19  13  20  13  21  13  22  13  23  13  24  13
M  ISO  8  25  13  26  13  27  13  28  13  29  13  30  14  31  14  32  14
M  ISO  3  33   5  41  16  43  16
M  END
>  <DihAtoms>  (1) 
5,15,33,34

>  <DihDeg>  (1) 
0.5819173732669283

$$$$
