REMARK  Name = 
REMARK  4 active torsions:
REMARK  status: ('A' for Active; 'I' for Inactive)
REMARK    1  A    between atoms: C_1  and  C_11
REMARK    2  A    between atoms: C_5  and  C_7
REMARK    3  A    between atoms: C_9  and  N_10
REMARK    4  A    between atoms: C_11  and  C_21
REMARK                            x       y       z     vdW  Elec       q    Type
REMARK                         _______ _______ _______ _____ _____    ______ ____
ROOT
ATOM      1  C   UNL     1      46.280  34.752  43.239  0.00  0.00    +0.000 A 
ATOM      2  C   UNL     1      45.306  35.750  43.595  0.00  0.00    +0.000 A 
ATOM      3  C   UNL     1      44.660  35.576  44.817  0.00  0.00    +0.000 A 
ATOM      4  N   UNL     1      44.978  34.503  45.580  0.00  0.00    +0.000 NA
ATOM      5  C   UNL     1      45.918  33.585  45.182  0.00  0.00    +0.000 A 
ATOM      6  N   UNL     1      46.576  33.682  44.034  0.00  0.00    +0.000 NA
ATOM      7  H   UNL     1      45.127  36.555  42.929  0.00  0.00    +0.000 HD
ATOM      8  H   UNL     1      43.928  36.304  45.112  0.00  0.00    +0.000 HD
ENDROOT
BRANCH   5   9
ATOM      9  C   UNL     1      46.216  32.432  46.081  0.00  0.00    +0.000 C 
ATOM     10  C   UNL     1      47.034  32.679  47.327  0.00  0.00    +0.000 C 
ATOM     11  C   UNL     1      45.544  32.489  47.395  0.00  0.00    +0.000 C 
ATOM     12  H   UNL     1      46.340  31.448  45.589  0.00  0.00    +0.000 HD
ATOM     13  H   UNL     1      47.701  31.844  47.625  0.00  0.00    +0.000 HD
ATOM     14  H   UNL     1      47.477  33.704  47.354  0.00  0.00    +0.000 HD
ATOM     15  H   UNL     1      45.242  31.545  47.912  0.00  0.00    +0.000 HD
BRANCH  11  16
ATOM     16  N   UNL     1      44.844  33.715  47.794  0.00  0.00    +0.000 NA
ATOM     17  H   UNL     1      45.490  34.395  48.265  0.00  0.00    +0.000 HD
ATOM     18  H   UNL     1      44.142  33.450  48.533  0.00  0.00    +0.000 HD
ENDBRANCH  11  16
ENDBRANCH   5   9
BRANCH   1  19
ATOM     19  C   UNL     1      46.917  34.926  41.960  0.00  0.00    +0.000 C 
ATOM     20  O   UNL     1      48.063  35.532  41.865  0.00  0.00    +0.000 OA
BRANCH  19  21
ATOM     21  C   UNL     1      46.611  34.580  40.575  0.00  0.00    +0.000 A 
ATOM     22  N   UNL     1      47.613  34.159  39.789  0.00  0.00    +0.000 NA
ATOM     23  C   UNL     1      47.429  33.811  38.477  0.00  0.00    +0.000 A 
ATOM     24  N   UNL     1      46.228  33.875  37.909  0.00  0.00    +0.000 NA
ATOM     25  C   UNL     1      45.137  34.288  38.613  0.00  0.00    +0.000 A 
ATOM     26  C   UNL     1      43.878  34.365  38.065  0.00  0.00    +0.000 A 
ATOM     27  C   UNL     1      42.791  34.782  38.803  0.00  0.00    +0.000 A 
ATOM     28  H   UNL     1      41.865  34.800  38.268  0.00  0.00    +0.000 HD
ATOM     29  C   UNL     1      43.035  35.123  40.135  0.00  0.00    +0.000 A 
ATOM     30  H   UNL     1      42.168  35.445  40.686  0.00  0.00    +0.000 HD
ATOM     31  C   UNL     1      44.308  35.028  40.626  0.00  0.00    +0.000 A 
ATOM     32  C   UNL     1      45.406  34.618  39.918  0.00  0.00    +0.000 A 
ENDBRANCH  19  21
ENDBRANCH   1  19
TORSDOF 4
