
     RDKit          3D

 31 33  0  0  0  0  0  0  0  0999 V2000
   45.6127   34.6313   44.1262 C   0  0  0  0  0  0  0  0  0  0  0  0
   46.6437   33.9063   43.5258 C   0  0  0  0  0  0  0  0  0  0  0  0
   47.2584   32.9063   44.2817 C   0  0  0  0  0  0  0  0  0  0  0  0
   46.8155   32.6967   45.5623 N   0  0  0  0  0  0  0  0  0  0  0  0
   45.8189   33.4119   46.1144 C   0  0  0  0  0  0  0  0  0  0  0  0
   45.2067   34.3848   45.4057 N   0  0  0  0  0  0  0  0  0  0  0  0
   44.8614   35.9035   43.1062 S   0  0  0  0  0  0  0  0  0  0  0  0
   44.1256   35.2836   41.6022 C   0  0  0  0  0  0  0  0  0  0  0  0
   42.6430   35.2555   41.5774 C   0  0  0  0  0  0  0  0  0  0  0  0
   46.9580   34.1110   42.5074 H   0  0  0  0  0  0  0  0  0  0  0  0
   48.0631   32.3065   43.8798 H   0  0  0  0  0  0  0  0  0  0  0  0
   45.5246   33.1857   47.1368 H   0  0  0  0  0  0  0  0  0  0  0  0
   44.5216   35.8394   40.7369 H   0  0  0  0  0  0  0  0  0  0  0  0
   44.5058   34.2292   41.4410 H   0  0  0  0  0  0  0  0  0  0  0  0
   42.3268   34.5334   42.3604 H   0  0  0  0  0  0  0  0  0  0  0  0
   42.1659   36.2060   41.8895 H   0  0  0  0  0  0  0  0  0  0  0  0
   42.0867   34.7375   40.2982 C   0  0  0  0  0  0  0  0  0  0  0  0
   41.4001   33.5809   40.2757 N   0  0  0  0  0  0  0  0  0  0  0  0
   40.9252   33.1101   39.1119 C   0  0  0  0  0  0  0  0  0  0  0  0
   41.1073   33.7591   37.9227 N   0  0  0  0  0  0  0  0  0  0  0  0
   41.7916   34.9143   37.9405 C   0  0  0  0  0  0  0  0  0  0  0  0
   42.0112   35.6269   36.8054 C   0  0  0  0  0  0  0  0  0  0  0  0
   42.6775   36.8117   36.6692 C   0  0  0  0  0  0  0  0  0  0  0  0
   42.8122   37.3210   35.7276 H   0  0  0  0  0  0  0  0  0  0  0  0
   43.1756   37.3108   37.8784 C   0  0  0  0  0  0  0  0  0  0  0  0
   43.7234   38.2653   37.8365 H   0  0  0  0  0  0  0  0  0  0  0  0
   42.9896   36.6358   39.0819 C   0  0  0  0  0  0  0  0  0  0  0  0
   42.2973   35.4380   39.1046 C   0  0  0  0  0  0  0  0  0  0  0  0
   40.3527   32.1827   38.9623 H   0  0  0  0  0  0  0  0  0  0  0  0
   41.6021   35.1963   35.8778 H   0  0  0  0  0  0  0  0  0  0  0  0
   43.3883   37.0721   39.9868 H   0  0  0  0  0  0  0  0  0  0  0  0
  1  6  1  0
  2  1  2  0
  2  3  1  0
  3  4  2  0
  4  5  1  0
  6  5  2  0
  7  1  1  0
  8  7  1  0
  9  8  1  0
  2 10  1  0
  3 11  1  0
  5 12  1  0
  8 13  1  0
  8 14  1  0
  9 15  1  0
  9 16  1  0
 17 18  2  0
 18 19  1  0
 19 20  2  0
 20 21  1  0
 21 22  2  0
 22 23  1  0
 23 24  1  0
 23 25  2  0
 25 26  1  0
 25 27  1  0
 27 28  2  0
 28 17  1  0
 28 21  1  0
 19 29  1  0
 22 30  1  0
 27 31  1  0
  9 17  1  0
M  ISO  8  10  14  11  14  12  14  13   8  14   8  15   8  16   8  24  16
M  ISO  1  26  16
M  END
>  <DihAtoms>  (1) 
7,8,16,17

>  <DihDeg>  (1) 
99.39475643863477

$$$$
