
 OpenBabel03252507223D

 50 54  0  0  1  0  0  0  0  0999 V2000
   47.1920   33.1680   43.1010 C   0  0  0  0  0  0  0  0  0  0  0  0
   48.3940   33.2090   43.4790 O   0  0  0  0  0  0  0  0  0  0  0  0
   46.7070   32.2530   42.1340 N   0  0  0  0  0  0  0  0  0  0  0  0
   45.4870   31.4280   42.1270 C   0  0  0  0  0  0  0  0  0  0  0  0
   44.7430   31.6310   40.8180 C   0  0  0  0  0  0  0  0  0  0  0  0
   45.5690   31.1250   39.6780 C   0  0  0  0  0  0  0  0  0  0  0  0
   46.9980   30.9050   40.1350 C   0  0  0  0  0  0  0  0  0  0  0  0
   47.5090   32.0650   40.9550 C   0  0  2  0  0  0  0  0  0  0  0  0
   44.8190   31.8850   42.9080 H   0  0  0  0  0  0  0  0  0  0  0  0
   45.6960   30.3720   42.3320 H   0  0  0  0  0  0  0  0  0  0  0  0
   43.7720   31.1170   40.9300 H   0  0  0  0  0  0  0  0  0  0  0  0
   44.5900   32.7160   40.6860 H   0  0  0  0  0  0  0  0  0  0  0  0
   45.1720   30.1020   39.4190 H   0  0  0  0  0  0  0  0  0  0  0  0
   45.4980   31.7120   38.7530 H   0  0  0  0  0  0  0  0  0  0  0  0
   47.6350   30.7110   39.2710 H   0  0  0  0  0  0  0  0  0  0  0  0
   46.9940   29.9990   40.7770 H   0  0  0  0  0  0  0  0  0  0  0  0
   47.3530   32.9730   40.3210 H   0  0  0  0  0  0  0  0  0  0  0  0
   45.8740   35.2260   42.9180 C   0  0  0  0  0  0  0  0  0  0  0  0
   46.2620   34.1060   43.6860 C   0  0  0  0  0  0  0  0  0  0  0  0
   45.7500   33.9390   44.9580 C   0  0  0  0  0  0  0  0  0  0  0  0
   44.8870   34.8610   45.4270 N   0  0  0  0  0  0  0  0  0  0  0  0
   44.5040   35.9470   44.6990 C   0  0  0  0  0  0  0  0  0  0  0  0
   45.0100   36.1060   43.4520 N   0  0  0  0  0  0  0  0  0  0  0  0
   46.2760   35.3570   41.9210 H   0  0  0  0  0  0  0  0  0  0  0  0
   43.8050   36.6500   45.1410 H   0  0  0  0  0  0  0  0  0  0  0  0
   46.1670   32.7760   45.7270 C   0  0  0  0  0  0  0  0  0  0  0  0
   45.6720   31.5450   45.4310 C   0  0  0  0  0  0  0  0  0  0  0  0
   46.0930   30.4630   46.1850 C   0  0  0  0  0  0  0  0  0  0  0  0
   46.9990   30.5840   47.2310 C   0  0  0  0  0  0  0  0  0  0  0  0
   47.4690   31.8580   47.4890 C   0  0  0  0  0  0  0  0  0  0  0  0
   47.0480   32.8910   46.7470 N   0  0  0  0  0  0  0  0  0  0  0  0
   44.9660   31.3460   44.6420 H   0  0  0  0  0  0  0  0  0  0  0  0
   45.7130   29.4720   45.9650 H   0  0  0  0  0  0  0  0  0  0  0  0
   47.3450   29.7590   47.8350 H   0  0  0  0  0  0  0  0  0  0  0  0
   48.1790   32.0980   48.2740 H   0  0  0  0  0  0  0  0  0  0  0  0
   48.9570   31.8420   41.2270 C   0  0  0  0  0  0  0  0  0  0  0  0
   49.0840   30.8170   41.6150 H   0  0  0  0  0  0  0  0  0  0  0  0
   49.4530   32.5290   41.9150 H   0  0  0  0  0  0  0  0  0  0  0  0
   49.7390   31.8430   39.9130 C   0  0  0  0  0  0  0  0  0  0  0  0
   49.1570   32.3000   38.7650 N   0  0  0  0  0  0  0  0  0  0  0  0
   49.8250   32.3460   37.5990 C   0  0  0  0  0  3  0  0  0  0  0  0
   51.1240   31.9350   37.5140 N   0  0  0  0  0  0  0  0  0  0  0  0
   51.7300   31.4770   38.6370 C   0  0  0  0  0  0  0  0  0  0  0  0
   53.0400   31.0610   38.5160 C   0  0  0  0  0  3  0  0  0  0  0  0
   53.6720   30.5830   39.6470 C   0  0  0  0  0  0  0  0  0  0  0  0
   54.7050   30.2510   39.5790 H   0  0  0  0  0  0  0  0  0  0  0  0
   52.9990   30.5290   40.8480 C   0  0  0  0  0  0  0  0  0  0  0  0
   53.5330   30.1440   41.7190 H   0  0  0  0  0  0  0  0  0  0  0  0
   51.6700   30.9480   40.9810 C   0  0  0  0  0  3  0  0  0  0  0  0
   51.0650   31.4210   39.8370 C   0  0  0  0  0  0  0  0  0  0  0  0
  1  2  2  0  0  0  0
  1 19  1  0  0  0  0
  3  1  1  0  0  0  0
  4  3  1  0  0  0  0
  4 10  1  0  0  0  0
  4  9  1  0  0  0  0
  5 11  1  0  0  0  0
  5  4  1  0  0  0  0
  6  7  1  0  0  0  0
  6  5  1  0  0  0  0
  7 16  1  0  0  0  0
  7  8  1  0  0  0  0
  8 17  1  6  0  0  0
  8 36  1  0  0  0  0
  8  3  1  0  0  0  0
 12  5  1  0  0  0  0
 13  6  1  0  0  0  0
 14  6  1  0  0  0  0
 15  7  1  0  0  0  0
 18 23  2  0  0  0  0
 18 19  1  0  0  0  0
 19 20  2  0  0  0  0
 20 21  1  0  0  0  0
 20 26  1  0  0  0  0
 22 25  1  0  0  0  0
 22 21  2  0  0  0  0
 23 22  1  0  0  0  0
 24 18  1  0  0  0  0
 26 31  1  0  0  0  0
 27 26  2  0  0  0  0
 27 28  1  0  0  0  0
 28 29  2  0  0  0  0
 29 30  1  0  0  0  0
 29 34  1  0  0  0  0
 30 35  1  0  0  0  0
 31 30  2  0  0  0  0
 32 27  1  0  0  0  0
 33 28  1  0  0  0  0
 36 37  1  0  0  0  0
 36 38  1  0  0  0  0
 39 36  1  0  0  0  0
 40 39  2  0  0  0  0
 41 40  1  0  0  0  0
 42 41  2  0  0  0  0
 42 43  1  0  0  0  0
 43 50  1  0  0  0  0
 44 43  2  0  0  0  0
 44 45  1  0  0  0  0
 45 47  2  0  0  0  0
 46 45  1  0  0  0  0
 47 49  1  0  0  0  0
 47 48  1  0  0  0  0
 50 39  1  0  0  0  0
 50 49  2  0  0  0  0
M  END
>  <minimizedAffinity>
-5.73435736

>  <minimizedRMSD>
1.17115641

$$$$
