
 OpenBabel03242519123D

 50 54  0  0  1  0  0  0  0  0999 V2000
   40.1590   31.6010   38.7420 C   0  0  0  0  0  0  0  0  0  0  0  0
   40.8800   32.6910   38.2020 C   0  0  0  0  0  0  0  0  0  0  0  0
   41.8660   32.3050   37.3160 C   0  0  0  0  0  0  0  0  0  0  0  0
   42.1770   31.0290   36.9450 C   0  0  0  0  0  0  0  0  0  0  0  0
   41.4470   29.9950   37.4980 C   0  0  0  0  0  0  0  0  0  0  0  0
   40.4590   30.3140   38.3810 C   0  0  0  0  0  0  0  0  0  0  0  0
   42.4880   33.0750   36.8370 H   0  0  0  0  0  0  0  0  0  0  0  0
   42.9610   30.7970   36.2450 H   0  0  0  0  0  0  0  0  0  0  0  0
   41.6940   28.9860   37.2020 H   0  0  0  0  0  0  0  0  0  0  0  0
   40.2280   28.5110   40.0590 C   0  0  0  0  0  0  0  0  0  0  0  0
   41.3430   28.8580   40.5270 O   0  0  0  0  0  0  0  0  0  0  0  0
   39.7370   29.2140   38.9420 N   0  0  0  0  0  0  0  0  0  0  0  0
   38.8600   29.0420   38.4200 H   0  0  0  0  0  0  0  0  0  0  0  0
   39.2590   27.4620   40.4510 C   0  0  0  0  0  0  0  0  0  0  0  0
   39.0340   26.3020   39.7900 N   0  0  0  0  0  0  0  0  0  0  0  0
   38.1740   25.3730   40.1390 C   0  0  0  0  0  3  0  0  0  0  0  0
   37.4190   25.5040   41.2200 N   0  0  0  0  0  0  0  0  0  0  0  0
   37.5430   26.6260   41.9790 C   0  0  0  0  0  0  0  0  0  0  0  0
   36.7580   26.7580   43.1000 C   0  0  0  0  0  3  0  0  0  0  0  0
   36.8560   27.8780   43.8920 C   0  0  0  0  0  0  0  0  0  0  0  0
   36.1900   27.8680   44.7430 H   0  0  0  0  0  0  0  0  0  0  0  0
   37.7650   28.8600   43.5230 C   0  0  0  0  0  0  0  0  0  0  0  0
   37.8100   29.7100   44.1600 H   0  0  0  0  0  0  0  0  0  0  0  0
   38.5150   28.6610   42.3920 C   0  0  0  0  0  3  0  0  0  0  0  0
   38.4610   27.5640   41.5630 C   0  0  0  0  0  0  0  0  0  0  0  0
   40.6310   34.0370   38.5280 N   0  0  0  0  0  0  0  0  0  0  0  0
   39.7870   34.3380   37.9880 H   0  0  0  0  0  0  0  0  0  0  0  0
   41.9830   35.5630   41.4420 N   0  0  0  0  0  0  0  0  0  0  0  0
   41.7680   34.3270   40.6850 C   0  0  0  0  0  0  0  0  0  0  0  0
   41.2960   34.9480   39.3960 C   0  0  2  0  0  0  0  0  0  0  0  0
   40.2490   35.9350   39.8960 C   0  0  0  0  0  0  0  0  0  0  0  0
   40.8450   36.4090   41.1900 C   0  0  0  0  0  0  0  0  0  0  0  0
   42.6780   33.7310   40.6020 H   0  0  0  0  0  0  0  0  0  0  0  0
   40.9030   33.7980   41.1380 H   0  0  0  0  0  0  0  0  0  0  0  0
   42.1540   35.4720   38.9360 H   0  0  0  0  0  0  0  0  0  0  0  0
   40.0900   36.7420   39.1590 H   0  0  0  0  0  0  0  0  0  0  0  0
   39.3100   35.3350   40.0540 H   0  0  0  0  0  0  0  0  0  0  0  0
   41.2490   37.4410   41.0110 H   0  0  0  0  0  0  0  0  0  0  0  0
   40.1060   36.4320   42.0130 H   0  0  0  0  0  0  0  0  0  0  0  0
   45.3390   35.9450   43.0020 C   0  0  0  0  0  0  0  0  0  0  0  0
   44.3720   35.4980   42.1120 C   0  0  0  0  0  0  0  0  0  0  0  0
   43.0480   35.9400   42.2720 C   0  0  0  0  0  0  0  0  0  0  0  0
   42.7900   36.7940   43.3100 N   0  0  0  0  0  0  0  0  0  0  0  0
   43.7350   37.2200   44.1670 C   0  0  0  0  0  0  0  0  0  0  0  0
   45.0040   36.7920   44.0080 N   0  0  0  0  0  0  0  0  0  0  0  0
   46.3360   35.5680   42.8220 H   0  0  0  0  0  0  0  0  0  0  0  0
   44.5090   34.8400   41.2920 H   0  0  0  0  0  0  0  0  0  0  0  0
   43.4450   37.8950   44.9580 H   0  0  0  0  0  0  0  0  0  0  0  0
   38.2690   32.1940   40.4220 N   0  0  0  0  0  0  0  0  0  0  0  0
   39.1040   31.9210   39.6820 C   0  0  0  0  0  0  0  0  0  0  0  0
  1 50  1  0  0  0  0
  2 26  1  0  0  0  0
  2  1  2  0  0  0  0
  3  2  1  0  0  0  0
  4  3  2  0  0  0  0
  4  5  1  0  0  0  0
  5  6  2  0  0  0  0
  6  1  1  0  0  0  0
  6 12  1  0  0  0  0
  7  3  1  0  0  0  0
  8  4  1  0  0  0  0
  9  5  1  0  0  0  0
 10 14  1  0  0  0  0
 10 11  2  0  0  0  0
 12 10  1  0  0  0  0
 13 12  1  0  0  0  0
 14 25  1  0  0  0  0
 15 16  1  0  0  0  0
 15 14  2  0  0  0  0
 16 17  2  0  0  0  0
 17 18  1  0  0  0  0
 18 19  1  0  0  0  0
 19 20  2  0  0  0  0
 20 21  1  0  0  0  0
 22 20  1  0  0  0  0
 22 23  1  0  0  0  0
 24 22  2  0  0  0  0
 25 18  2  0  0  0  0
 25 24  1  0  0  0  0
 26 30  1  0  0  0  0
 27 26  1  0  0  0  0
 28 42  1  0  0  0  0
 29 34  1  0  0  0  0
 29 28  1  0  0  0  0
 30 35  1  6  0  0  0
 30 31  1  0  0  0  0
 30 29  1  0  0  0  0
 31 37  1  0  0  0  0
 31 32  1  0  0  0  0
 32 28  1  0  0  0  0
 32 39  1  0  0  0  0
 33 29  1  0  0  0  0
 36 31  1  0  0  0  0
 38 32  1  0  0  0  0
 40 45  1  0  0  0  0
 41 42  1  0  0  0  0
 41 40  2  0  0  0  0
 42 43  2  0  0  0  0
 43 44  1  0  0  0  0
 44 48  1  0  0  0  0
 45 44  2  0  0  0  0
 46 40  1  0  0  0  0
 47 41  1  0  0  0  0
 50 49  3  0  0  0  0
M  END
>  <minimizedAffinity>
-7.46880722

$$$$

 OpenBabel03242519123D

 50 54  0  0  1  0  0  0  0  0999 V2000
   38.3370   30.7100   39.4990 C   0  0  0  0  0  0  0  0  0  0  0  0
   38.2680   31.9660   38.8540 C   0  0  0  0  0  0  0  0  0  0  0  0
   37.6920   31.9020   37.6010 C   0  0  0  0  0  0  0  0  0  0  0  0
   37.2130   30.7860   36.9770 C   0  0  0  0  0  0  0  0  0  0  0  0
   37.3010   29.5810   37.6460 C   0  0  0  0  0  0  0  0  0  0  0  0
   37.8610   29.5800   38.8880 C   0  0  0  0  0  0  0  0  0  0  0  0
   37.5890   32.8240   37.0090 H   0  0  0  0  0  0  0  0  0  0  0  0
   36.7740   30.8070   35.9950 H   0  0  0  0  0  0  0  0  0  0  0  0
   36.9210   28.6990   37.1510 H   0  0  0  0  0  0  0  0  0  0  0  0
   36.9410   27.8690   40.4200 C   0  0  0  0  0  0  0  0  0  0  0  0
   35.9790   28.6470   40.6470 O   0  0  0  0  0  0  0  0  0  0  0  0
   37.9470   28.3100   39.5390 N   0  0  0  0  0  0  0  0  0  0  0  0
   38.8140   27.8130   39.2680 H   0  0  0  0  0  0  0  0  0  0  0  0
   37.2660   26.5090   40.9060 C   0  0  0  0  0  0  0  0  0  0  0  0
   36.6900   25.3570   40.4880 N   0  0  0  0  0  0  0  0  0  0  0  0
   36.9800   24.1520   40.9220 C   0  0  0  0  0  3  0  0  0  0  0  0
   37.9050   23.9570   41.8490 N   0  0  0  0  0  0  0  0  0  0  0  0
   38.5650   25.0320   42.3580 C   0  0  0  0  0  0  0  0  0  0  0  0
   39.5250   24.8250   43.3210 C   0  0  0  0  0  3  0  0  0  0  0  0
   40.2130   25.8880   43.8590 C   0  0  0  0  0  0  0  0  0  0  0  0
   40.9410   25.6020   44.6040 H   0  0  0  0  0  0  0  0  0  0  0  0
   39.9070   27.1620   43.4010 C   0  0  0  0  0  0  0  0  0  0  0  0
   40.4600   27.9560   43.8410 H   0  0  0  0  0  0  0  0  0  0  0  0
   38.9380   27.2920   42.4390 C   0  0  0  0  0  3  0  0  0  0  0  0
   38.2190   26.2700   41.8660 C   0  0  0  0  0  0  0  0  0  0  0  0
   38.7380   33.1670   39.4170 N   0  0  0  0  0  0  0  0  0  0  0  0
   37.9530   33.8570   39.3800 H   0  0  0  0  0  0  0  0  0  0  0  0
   41.4990   35.0880   40.5680 N   0  0  0  0  0  0  0  0  0  0  0  0
   40.0430   34.9430   40.4990 C   0  0  0  0  0  0  0  0  0  0  0  0
   39.9970   33.5330   39.9700 C   0  0  2  0  0  0  0  0  0  0  0  0
   40.9880   33.6050   38.8160 C   0  0  0  0  0  0  0  0  0  0  0  0
   42.0320   34.5460   39.3460 C   0  0  0  0  0  0  0  0  0  0  0  0
   39.5670   35.0850   41.4700 H   0  0  0  0  0  0  0  0  0  0  0  0
   39.6740   35.6140   39.6950 H   0  0  0  0  0  0  0  0  0  0  0  0
   40.3580   32.8580   40.7680 H   0  0  0  0  0  0  0  0  0  0  0  0
   41.3790   32.6010   38.5730 H   0  0  0  0  0  0  0  0  0  0  0  0
   40.4210   34.0430   37.9480 H   0  0  0  0  0  0  0  0  0  0  0  0
   42.9230   33.9260   39.6330 H   0  0  0  0  0  0  0  0  0  0  0  0
   42.3290   35.3100   38.6020 H   0  0  0  0  0  0  0  0  0  0  0  0
   42.8310   37.1790   43.3440 C   0  0  0  0  0  0  0  0  0  0  0  0
   41.9440   36.7340   42.3730 C   0  0  0  0  0  0  0  0  0  0  0  0
   42.3050   35.6330   41.5790 C   0  0  0  0  0  0  0  0  0  0  0  0
   43.5260   35.0600   41.8140 N   0  0  0  0  0  0  0  0  0  0  0  0
   44.3780   35.4990   42.7580 C   0  0  0  0  0  0  0  0  0  0  0  0
   44.0250   36.5570   43.5160 N   0  0  0  0  0  0  0  0  0  0  0  0
   42.4920   38.0290   43.9190 H   0  0  0  0  0  0  0  0  0  0  0  0
   40.9890   37.1340   42.1440 H   0  0  0  0  0  0  0  0  0  0  0  0
   45.3210   34.9870   42.8760 H   0  0  0  0  0  0  0  0  0  0  0  0
   39.3780   30.6740   41.8790 N   0  0  0  0  0  0  0  0  0  0  0  0
   38.9280   30.6900   40.8220 C   0  0  0  0  0  0  0  0  0  0  0  0
  1 50  1  0  0  0  0
  2 26  1  0  0  0  0
  2  1  2  0  0  0  0
  3  2  1  0  0  0  0
  4  3  2  0  0  0  0
  4  5  1  0  0  0  0
  5  6  2  0  0  0  0
  6  1  1  0  0  0  0
  6 12  1  0  0  0  0
  7  3  1  0  0  0  0
  8  4  1  0  0  0  0
  9  5  1  0  0  0  0
 10 11  2  0  0  0  0
 10 14  1  0  0  0  0
 12 10  1  0  0  0  0
 13 12  1  0  0  0  0
 14 25  1  0  0  0  0
 15 14  2  0  0  0  0
 15 16  1  0  0  0  0
 16 17  2  0  0  0  0
 17 18  1  0  0  0  0
 18 19  1  0  0  0  0
 19 20  2  0  0  0  0
 20 21  1  0  0  0  0
 22 23  1  0  0  0  0
 22 20  1  0  0  0  0
 24 22  2  0  0  0  0
 25 18  2  0  0  0  0
 25 24  1  0  0  0  0
 26 30  1  0  0  0  0
 27 26  1  0  0  0  0
 28 42  1  0  0  0  0
 29 28  1  0  0  0  0
 29 33  1  0  0  0  0
 30 29  1  0  0  0  0
 30 35  1  1  0  0  0
 31 32  1  0  0  0  0
 31 30  1  0  0  0  0
 32 38  1  0  0  0  0
 32 28  1  0  0  0  0
 34 29  1  0  0  0  0
 36 31  1  0  0  0  0
 37 31  1  0  0  0  0
 39 32  1  0  0  0  0
 40 45  1  0  0  0  0
 40 46  1  0  0  0  0
 41 40  2  0  0  0  0
 42 43  2  0  0  0  0
 42 41  1  0  0  0  0
 43 44  1  0  0  0  0
 44 48  1  0  0  0  0
 44 45  2  0  0  0  0
 47 41  1  0  0  0  0
 50 49  3  0  0  0  0
M  END
>  <minimizedAffinity>
-7.43030453

$$$$

 OpenBabel03242519123D

 50 54  0  0  1  0  0  0  0  0999 V2000
   39.4610   31.5030   39.8270 C   0  0  0  0  0  0  0  0  0  0  0  0
   39.3640   32.8470   39.4000 C   0  0  0  0  0  0  0  0  0  0  0  0
   38.0740   33.3380   39.4380 C   0  0  0  0  0  0  0  0  0  0  0  0
   36.9550   32.6640   39.8330 C   0  0  0  0  0  0  0  0  0  0  0  0
   37.0970   31.3530   40.2420 C   0  0  0  0  0  0  0  0  0  0  0  0
   38.3480   30.8120   40.2260 C   0  0  0  0  0  0  0  0  0  0  0  0
   37.8850   34.3760   39.1260 H   0  0  0  0  0  0  0  0  0  0  0  0
   35.9750   33.1090   39.8390 H   0  0  0  0  0  0  0  0  0  0  0  0
   36.2090   30.8210   40.5550 H   0  0  0  0  0  0  0  0  0  0  0  0
   38.5500   29.1020   42.0030 C   0  0  0  0  0  0  0  0  0  0  0  0
   38.5890   30.0380   42.8430 O   0  0  0  0  0  0  0  0  0  0  0  0
   38.4480   29.4470   40.6410 N   0  0  0  0  0  0  0  0  0  0  0  0
   38.4350   28.8100   39.8260 H   0  0  0  0  0  0  0  0  0  0  0  0
   38.5910   27.6290   42.1410 C   0  0  0  0  0  0  0  0  0  0  0  0
   37.5430   26.7870   41.9860 N   0  0  0  0  0  0  0  0  0  0  0  0
   37.5820   25.4800   42.1100 C   0  0  0  0  0  3  0  0  0  0  0  0
   38.7070   24.8500   42.4120 N   0  0  0  0  0  0  0  0  0  0  0  0
   39.8420   25.5770   42.5970 C   0  0  0  0  0  0  0  0  0  0  0  0
   41.0080   24.9190   42.9110 C   0  0  0  0  0  3  0  0  0  0  0  0
   42.1740   25.6220   43.1040 C   0  0  0  0  0  0  0  0  0  0  0  0
   43.0220   24.9980   43.3450 H   0  0  0  0  0  0  0  0  0  0  0  0
   42.1330   27.0030   42.9730 C   0  0  0  0  0  0  0  0  0  0  0  0
   43.0540   27.5100   43.1310 H   0  0  0  0  0  0  0  0  0  0  0  0
   40.9340   27.5920   42.6590 C   0  0  0  0  0  3  0  0  0  0  0  0
   39.7390   26.9430   42.4540 C   0  0  0  0  0  0  0  0  0  0  0  0
   40.4620   33.6180   38.9740 N   0  0  0  0  0  0  0  0  0  0  0  0
   40.6560   33.3610   37.9790 H   0  0  0  0  0  0  0  0  0  0  0  0
   41.9840   35.5880   41.5130 N   0  0  0  0  0  0  0  0  0  0  0  0
   41.5630   34.2550   41.0740 C   0  0  0  0  0  0  0  0  0  0  0  0
   41.2590   34.5920   39.6370 C   0  0  2  0  0  0  0  0  0  0  0  0
   40.4030   35.8430   39.7900 C   0  0  0  0  0  0  0  0  0  0  0  0
   41.0360   36.5250   40.9690 C   0  0  0  0  0  0  0  0  0  0  0  0
   42.3460   33.5080   41.2140 H   0  0  0  0  0  0  0  0  0  0  0  0
   40.6000   34.0210   41.5740 H   0  0  0  0  0  0  0  0  0  0  0  0
   42.2150   34.8200   39.1310 H   0  0  0  0  0  0  0  0  0  0  0  0
   40.4220   36.4450   38.8650 H   0  0  0  0  0  0  0  0  0  0  0  0
   39.3620   35.4780   40.0180 H   0  0  0  0  0  0  0  0  0  0  0  0
   41.6330   37.3880   40.5700 H   0  0  0  0  0  0  0  0  0  0  0  0
   40.2880   36.8890   41.6980 H   0  0  0  0  0  0  0  0  0  0  0  0
   45.3830   35.9750   42.9760 C   0  0  0  0  0  0  0  0  0  0  0  0
   44.3890   35.5150   42.1240 C   0  0  0  0  0  0  0  0  0  0  0  0
   43.0740   35.9750   42.3050 C   0  0  0  0  0  0  0  0  0  0  0  0
   42.8520   36.8600   43.3250 N   0  0  0  0  0  0  0  0  0  0  0  0
   43.8230   37.3000   44.1460 C   0  0  0  0  0  0  0  0  0  0  0  0
   45.0830   36.8530   43.9660 N   0  0  0  0  0  0  0  0  0  0  0  0
   46.3710   35.5820   42.7820 H   0  0  0  0  0  0  0  0  0  0  0  0
   44.4980   34.8320   41.3190 H   0  0  0  0  0  0  0  0  0  0  0  0
   43.5600   37.9990   44.9250 H   0  0  0  0  0  0  0  0  0  0  0  0
   41.8380   30.4570   39.8000 N   0  0  0  0  0  0  0  0  0  0  0  0
   40.7830   30.9110   39.8180 C   0  0  0  0  0  0  0  0  0  0  0  0
  1  6  1  0  0  0  0
  2  3  1  0  0  0  0
  2  1  2  0  0  0  0
  3  4  2  0  0  0  0
  4  8  1  0  0  0  0
  4  5  1  0  0  0  0
  5  9  1  0  0  0  0
  6  5  2  0  0  0  0
  6 12  1  0  0  0  0
  7  3  1  0  0  0  0
 10 14  1  0  0  0  0
 10 11  2  0  0  0  0
 12 10  1  0  0  0  0
 13 12  1  0  0  0  0
 14 25  1  0  0  0  0
 15 16  1  0  0  0  0
 15 14  2  0  0  0  0
 16 17  2  0  0  0  0
 17 18  1  0  0  0  0
 18 19  1  0  0  0  0
 19 20  2  0  0  0  0
 20 21  1  0  0  0  0
 22 20  1  0  0  0  0
 22 23  1  0  0  0  0
 24 22  2  0  0  0  0
 25 18  2  0  0  0  0
 25 24  1  0  0  0  0
 26  2  1  0  0  0  0
 26 30  1  0  0  0  0
 27 26  1  0  0  0  0
 28 42  1  0  0  0  0
 29 33  1  0  0  0  0
 29 28  1  0  0  0  0
 29 34  1  0  0  0  0
 30 35  1  6  0  0  0
 30 31  1  0  0  0  0
 30 29  1  0  0  0  0
 31 37  1  0  0  0  0
 31 32  1  0  0  0  0
 32 28  1  0  0  0  0
 32 39  1  0  0  0  0
 36 31  1  0  0  0  0
 38 32  1  0  0  0  0
 40 45  1  0  0  0  0
 41 42  1  0  0  0  0
 41 40  2  0  0  0  0
 42 43  2  0  0  0  0
 43 44  1  0  0  0  0
 44 48  1  0  0  0  0
 45 44  2  0  0  0  0
 46 40  1  0  0  0  0
 47 41  1  0  0  0  0
 49 50  3  0  0  0  0
 50  1  1  0  0  0  0
M  END
>  <minimizedAffinity>
-7.28397799

$$$$

 OpenBabel03242519123D

 50 54  0  0  1  0  0  0  0  0999 V2000
   39.4990   32.2410   39.6600 C   0  0  0  0  0  0  0  0  0  0  0  0
   38.2030   32.0560   39.1250 C   0  0  0  0  0  0  0  0  0  0  0  0
   37.3810   33.1510   39.3000 C   0  0  0  0  0  0  0  0  0  0  0  0
   37.7060   34.3280   39.9110 C   0  0  0  0  0  0  0  0  0  0  0  0
   38.9840   34.4650   40.4190 C   0  0  0  0  0  0  0  0  0  0  0  0
   39.8420   33.4150   40.2770 C   0  0  0  0  0  0  0  0  0  0  0  0
   36.3490   33.1140   38.9210 H   0  0  0  0  0  0  0  0  0  0  0  0
   37.0140   35.1450   40.0130 H   0  0  0  0  0  0  0  0  0  0  0  0
   39.2390   35.3970   40.9020 H   0  0  0  0  0  0  0  0  0  0  0  0
   42.1520   34.2870   40.1290 C   0  0  0  0  0  0  0  0  0  0  0  0
   41.8740   34.7150   38.9790 O   0  0  0  0  0  0  0  0  0  0  0  0
   41.1480   33.5920   40.8300 N   0  0  0  0  0  0  0  0  0  0  0  0
   41.2180   33.1510   41.7640 H   0  0  0  0  0  0  0  0  0  0  0  0
   43.3790   34.3570   40.9550 C   0  0  0  0  0  0  0  0  0  0  0  0
   44.4730   33.5720   40.8200 N   0  0  0  0  0  0  0  0  0  0  0  0
   45.5600   33.6360   41.5560 C   0  0  0  0  0  3  0  0  0  0  0  0
   45.6770   34.5170   42.5360 N   0  0  0  0  0  0  0  0  0  0  0  0
   44.6470   35.3710   42.7830 C   0  0  0  0  0  0  0  0  0  0  0  0
   44.7730   36.2850   43.8030 C   0  0  0  0  0  3  0  0  0  0  0  0
   43.7530   37.1650   44.0800 C   0  0  0  0  0  0  0  0  0  0  0  0
   43.9670   37.8330   44.9010 H   0  0  0  0  0  0  0  0  0  0  0  0
   42.6040   37.0970   43.3040 C   0  0  0  0  0  0  0  0  0  0  0  0
   41.8390   37.7930   43.5500 H   0  0  0  0  0  0  0  0  0  0  0  0
   42.5490   36.1600   42.3030 C   0  0  0  0  0  3  0  0  0  0  0  0
   43.5350   35.2570   41.9800 C   0  0  0  0  0  0  0  0  0  0  0  0
   37.7790   30.8790   38.4810 N   0  0  0  0  0  0  0  0  0  0  0  0
   38.0410   30.9630   37.4720 H   0  0  0  0  0  0  0  0  0  0  0  0
   36.9190   27.4840   39.0970 N   0  0  0  0  0  0  0  0  0  0  0  0
   37.9840   28.4840   38.9840 C   0  0  0  0  0  0  0  0  0  0  0  0
   37.1150   29.7150   38.9600 C   0  0  2  0  0  0  0  0  0  0  0  0
   36.0720   29.3340   37.9180 C   0  0  0  0  0  0  0  0  0  0  0  0
   35.8890   27.8650   38.1670 C   0  0  0  0  0  0  0  0  0  0  0  0
   38.6870   28.4340   39.8170 H   0  0  0  0  0  0  0  0  0  0  0  0
   38.4430   28.3780   37.9780 H   0  0  0  0  0  0  0  0  0  0  0  0
   36.6590   29.8290   39.9610 H   0  0  0  0  0  0  0  0  0  0  0  0
   35.1490   29.9260   38.0540 H   0  0  0  0  0  0  0  0  0  0  0  0
   36.5450   29.5410   36.9180 H   0  0  0  0  0  0  0  0  0  0  0  0
   34.9110   27.7390   38.7040 H   0  0  0  0  0  0  0  0  0  0  0  0
   35.8810   27.2750   37.2300 H   0  0  0  0  0  0  0  0  0  0  0  0
   36.3390   24.0430   40.3900 C   0  0  0  0  0  0  0  0  0  0  0  0
   36.3810   25.0910   39.4800 C   0  0  0  0  0  0  0  0  0  0  0  0
   36.8300   26.3480   39.9160 C   0  0  0  0  0  0  0  0  0  0  0  0
   37.2040   26.4650   41.2270 N   0  0  0  0  0  0  0  0  0  0  0  0
   37.1600   25.4420   42.1010 C   0  0  0  0  0  0  0  0  0  0  0  0
   36.7270   24.2380   41.6760 N   0  0  0  0  0  0  0  0  0  0  0  0
   35.9840   23.1040   39.9910 H   0  0  0  0  0  0  0  0  0  0  0  0
   36.1060   25.0640   38.4570 H   0  0  0  0  0  0  0  0  0  0  0  0
   37.4740   25.6220   43.1180 H   0  0  0  0  0  0  0  0  0  0  0  0
   41.1480   30.2520   39.3910 N   0  0  0  0  0  0  0  0  0  0  0  0
   40.4260   31.1370   39.5170 C   0  0  0  0  0  0  0  0  0  0  0  0
  1  6  1  0  0  0  0
  2  3  1  0  0  0  0
  2  1  2  0  0  0  0
  3  4  2  0  0  0  0
  4  8  1  0  0  0  0
  4  5  1  0  0  0  0
  5  9  1  0  0  0  0
  6  5  2  0  0  0  0
  6 12  1  0  0  0  0
  7  3  1  0  0  0  0
 10 12  1  0  0  0  0
 10 14  1  0  0  0  0
 11 10  2  0  0  0  0
 12 13  1  0  0  0  0
 14 25  1  0  0  0  0
 15 14  2  0  0  0  0
 15 16  1  0  0  0  0
 16 17  2  0  0  0  0
 17 18  1  0  0  0  0
 18 19  1  0  0  0  0
 19 20  2  0  0  0  0
 20 21  1  0  0  0  0
 22 23  1  0  0  0  0
 22 20  1  0  0  0  0
 24 22  2  0  0  0  0
 25 24  1  0  0  0  0
 25 18  2  0  0  0  0
 26 30  1  0  0  0  0
 26  2  1  0  0  0  0
 27 26  1  0  0  0  0
 28 42  1  0  0  0  0
 29 28  1  0  0  0  0
 29 33  1  0  0  0  0
 30 29  1  0  0  0  0
 30 35  1  1  0  0  0
 31 36  1  0  0  0  0
 31 32  1  0  0  0  0
 31 30  1  0  0  0  0
 32 38  1  0  0  0  0
 32 28  1  0  0  0  0
 34 29  1  0  0  0  0
 37 31  1  0  0  0  0
 39 32  1  0  0  0  0
 40 45  1  0  0  0  0
 41 42  1  0  0  0  0
 41 40  2  0  0  0  0
 42 43  2  0  0  0  0
 43 44  1  0  0  0  0
 44 48  1  0  0  0  0
 45 44  2  0  0  0  0
 46 40  1  0  0  0  0
 47 41  1  0  0  0  0
 49 50  3  0  0  0  0
 50  1  1  0  0  0  0
M  END
>  <minimizedAffinity>
-7.19806147

$$$$

 OpenBabel03242519123D

 50 54  0  0  1  0  0  0  0  0999 V2000
   39.8620   31.7110   39.3730 C   0  0  0  0  0  0  0  0  0  0  0  0
   39.5800   33.0940   39.3010 C   0  0  0  0  0  0  0  0  0  0  0  0
   38.2770   33.4020   39.6390 C   0  0  0  0  0  0  0  0  0  0  0  0
   37.3010   32.5240   40.0140 C   0  0  0  0  0  0  0  0  0  0  0  0
   37.6220   31.1820   40.0710 C   0  0  0  0  0  0  0  0  0  0  0  0
   38.8940   30.8160   39.7470 C   0  0  0  0  0  0  0  0  0  0  0  0
   37.9500   34.4520   39.6170 H   0  0  0  0  0  0  0  0  0  0  0  0
   36.3010   32.8320   40.2660 H   0  0  0  0  0  0  0  0  0  0  0  0
   36.8480   30.4890   40.3680 H   0  0  0  0  0  0  0  0  0  0  0  0
   39.6480   28.8110   40.9850 C   0  0  0  0  0  0  0  0  0  0  0  0
   39.8440   29.5500   41.9830 O   0  0  0  0  0  0  0  0  0  0  0  0
   39.1800   29.4160   39.8020 N   0  0  0  0  0  0  0  0  0  0  0  0
   38.9970   28.9640   38.8890 H   0  0  0  0  0  0  0  0  0  0  0  0
   39.8120   27.3560   40.7670 C   0  0  0  0  0  0  0  0  0  0  0  0
   40.8420   26.7600   40.1230 N   0  0  0  0  0  0  0  0  0  0  0  0
   40.9840   25.4680   39.9310 C   0  0  0  0  0  3  0  0  0  0  0  0
   40.0860   24.6030   40.3740 N   0  0  0  0  0  0  0  0  0  0  0  0
   38.9950   25.0670   41.0410 C   0  0  0  0  0  0  0  0  0  0  0  0
   38.0640   24.1650   41.4990 C   0  0  0  0  0  3  0  0  0  0  0  0
   36.9490   24.5980   42.1770 C   0  0  0  0  0  0  0  0  0  0  0  0
   36.2910   23.7990   42.4870 H   0  0  0  0  0  0  0  0  0  0  0  0
   36.7980   25.9630   42.3800 C   0  0  0  0  0  0  0  0  0  0  0  0
   35.9230   26.2570   42.9080 H   0  0  0  0  0  0  0  0  0  0  0  0
   37.7670   26.8040   41.8950 C   0  0  0  0  0  3  0  0  0  0  0  0
   38.9000   26.4300   41.2110 C   0  0  0  0  0  0  0  0  0  0  0  0
   40.5210   34.0700   38.9230 N   0  0  0  0  0  0  0  0  0  0  0  0
   40.5980   34.0410   37.8800 H   0  0  0  0  0  0  0  0  0  0  0  0
   41.9820   35.8320   41.6440 N   0  0  0  0  0  0  0  0  0  0  0  0
   41.5810   34.5370   41.0870 C   0  0  0  0  0  0  0  0  0  0  0  0
   41.2980   34.9910   39.6790 C   0  0  2  0  0  0  0  0  0  0  0  0
   40.4270   36.2180   39.9210 C   0  0  0  0  0  0  0  0  0  0  0  0
   41.0340   36.8030   41.1640 C   0  0  0  0  0  0  0  0  0  0  0  0
   42.3690   33.7870   41.1780 H   0  0  0  0  0  0  0  0  0  0  0  0
   40.6120   34.2550   41.5500 H   0  0  0  0  0  0  0  0  0  0  0  0
   42.2590   35.2690   39.2100 H   0  0  0  0  0  0  0  0  0  0  0  0
   40.4560   36.8960   39.0510 H   0  0  0  0  0  0  0  0  0  0  0  0
   39.3870   35.8270   40.0990 H   0  0  0  0  0  0  0  0  0  0  0  0
   41.6300   37.7020   40.8500 H   0  0  0  0  0  0  0  0  0  0  0  0
   40.2710   37.0990   41.9080 H   0  0  0  0  0  0  0  0  0  0  0  0
   44.0890   37.2240   44.3770 C   0  0  0  0  0  0  0  0  0  0  0  0
   42.9490   36.9740   43.6240 C   0  0  0  0  0  0  0  0  0  0  0  0
   43.0550   36.1600   42.4850 C   0  0  0  0  0  0  0  0  0  0  0  0
   44.2920   35.6580   42.1810 N   0  0  0  0  0  0  0  0  0  0  0  0
   45.3910   35.9070   42.9180 C   0  0  0  0  0  0  0  0  0  0  0  0
   45.2810   36.6890   44.0100 N   0  0  0  0  0  0  0  0  0  0  0  0
   43.9380   37.8570   45.2390 H   0  0  0  0  0  0  0  0  0  0  0  0
   41.9680   37.3320   43.8060 H   0  0  0  0  0  0  0  0  0  0  0  0
   46.3270   35.4700   42.6070 H   0  0  0  0  0  0  0  0  0  0  0  0
   42.2730   30.9610   38.7660 N   0  0  0  0  0  0  0  0  0  0  0  0
   41.2100   31.3040   39.0340 C   0  0  0  0  0  0  0  0  0  0  0  0
  1  6  1  0  0  0  0
  2  1  2  0  0  0  0
  2  3  1  0  0  0  0
  3  4  2  0  0  0  0
  4  5  1  0  0  0  0
  4  8  1  0  0  0  0
  5  9  1  0  0  0  0
  6 12  1  0  0  0  0
  6  5  2  0  0  0  0
  7  3  1  0  0  0  0
 10 11  2  0  0  0  0
 12 10  1  0  0  0  0
 13 12  1  0  0  0  0
 14 10  1  0  0  0  0
 14 25  1  0  0  0  0
 15 14  2  0  0  0  0
 16 15  1  0  0  0  0
 16 17  2  0  0  0  0
 17 18  1  0  0  0  0
 18 25  2  0  0  0  0
 18 19  1  0  0  0  0
 19 20  2  0  0  0  0
 20 22  1  0  0  0  0
 20 21  1  0  0  0  0
 22 23  1  0  0  0  0
 24 22  2  0  0  0  0
 25 24  1  0  0  0  0
 26  2  1  0  0  0  0
 26 30  1  0  0  0  0
 27 26  1  0  0  0  0
 28 42  1  0  0  0  0
 29 33  1  0  0  0  0
 29 34  1  0  0  0  0
 29 28  1  0  0  0  0
 30 35  1  6  0  0  0
 30 31  1  0  0  0  0
 30 29  1  0  0  0  0
 31 37  1  0  0  0  0
 31 32  1  0  0  0  0
 32 28  1  0  0  0  0
 32 39  1  0  0  0  0
 36 31  1  0  0  0  0
 38 32  1  0  0  0  0
 40 46  1  0  0  0  0
 41 47  1  0  0  0  0
 41 40  2  0  0  0  0
 42 41  1  0  0  0  0
 43 42  2  0  0  0  0
 43 44  1  0  0  0  0
 44 45  2  0  0  0  0
 45 40  1  0  0  0  0
 48 44  1  0  0  0  0
 49 50  3  0  0  0  0
 50  1  1  0  0  0  0
M  END
>  <minimizedAffinity>
-7.19364357

$$$$

 OpenBabel03242519123D

 50 54  0  0  1  0  0  0  0  0999 V2000
   39.7940   32.3570   39.5250 C   0  0  0  0  0  0  0  0  0  0  0  0
   38.8080   31.7130   38.7430 C   0  0  0  0  0  0  0  0  0  0  0  0
   37.5850   32.3510   38.7760 C   0  0  0  0  0  0  0  0  0  0  0  0
   37.2750   33.4880   39.4650 C   0  0  0  0  0  0  0  0  0  0  0  0
   38.2690   34.0840   40.2150 C   0  0  0  0  0  0  0  0  0  0  0  0
   39.5000   33.4990   40.2220 C   0  0  0  0  0  0  0  0  0  0  0  0
   36.7450   31.9330   38.2020 H   0  0  0  0  0  0  0  0  0  0  0  0
   36.2960   33.9360   39.4470 H   0  0  0  0  0  0  0  0  0  0  0  0
   38.0220   34.9850   40.7590 H   0  0  0  0  0  0  0  0  0  0  0  0
   41.3190   35.1530   40.4980 C   0  0  0  0  0  0  0  0  0  0  0  0
   41.1760   35.4530   39.2850 O   0  0  0  0  0  0  0  0  0  0  0  0
   40.4970   34.1380   41.0240 N   0  0  0  0  0  0  0  0  0  0  0  0
   40.5040   33.7510   41.9840 H   0  0  0  0  0  0  0  0  0  0  0  0
   42.2190   35.6630   41.5580 C   0  0  0  0  0  0  0  0  0  0  0  0
   41.9450   36.6760   42.4130 N   0  0  0  0  0  0  0  0  0  0  0  0
   42.7450   37.1280   43.3510 C   0  0  0  0  0  3  0  0  0  0  0  0
   43.9440   36.6020   43.5460 N   0  0  0  0  0  0  0  0  0  0  0  0
   44.3500   35.5730   42.7540 C   0  0  0  0  0  0  0  0  0  0  0  0
   45.5960   35.0290   42.9590 C   0  0  0  0  0  3  0  0  0  0  0  0
   46.0400   33.9880   42.1780 C   0  0  0  0  0  0  0  0  0  0  0  0
   47.0320   33.6450   42.4330 H   0  0  0  0  0  0  0  0  0  0  0  0
   45.1940   33.5110   41.1860 C   0  0  0  0  0  0  0  0  0  0  0  0
   45.5740   32.7060   40.6030 H   0  0  0  0  0  0  0  0  0  0  0  0
   43.9650   34.1010   41.0380 C   0  0  0  0  0  3  0  0  0  0  0  0
   43.4690   35.1430   41.7870 C   0  0  0  0  0  0  0  0  0  0  0  0
   39.0360   30.5370   38.0030 N   0  0  0  0  0  0  0  0  0  0  0  0
   39.4290   30.8220   37.0770 H   0  0  0  0  0  0  0  0  0  0  0  0
   38.9720   27.4190   39.7120 N   0  0  0  0  0  0  0  0  0  0  0  0
   38.7630   28.8680   39.7830 C   0  0  0  0  0  0  0  0  0  0  0  0
   38.8260   29.1630   38.3070 C   0  0  2  0  0  0  0  0  0  0  0  0
   40.0900   28.4170   37.8990 C   0  0  0  0  0  0  0  0  0  0  0  0
   40.0420   27.1980   38.7750 C   0  0  0  0  0  0  0  0  0  0  0  0
   37.8170   29.1250   40.2620 H   0  0  0  0  0  0  0  0  0  0  0  0
   39.6620   29.3170   40.2540 H   0  0  0  0  0  0  0  0  0  0  0  0
   37.9300   28.7230   37.8320 H   0  0  0  0  0  0  0  0  0  0  0  0
   40.0780   28.1880   36.8190 H   0  0  0  0  0  0  0  0  0  0  0  0
   40.9480   29.0970   38.1620 H   0  0  0  0  0  0  0  0  0  0  0  0
   39.7260   26.3370   38.1270 H   0  0  0  0  0  0  0  0  0  0  0  0
   41.0190   26.9770   39.2450 H   0  0  0  0  0  0  0  0  0  0  0  0
   37.0540   25.4070   42.1860 C   0  0  0  0  0  0  0  0  0  0  0  0
   37.6720   26.5170   41.6240 C   0  0  0  0  0  0  0  0  0  0  0  0
   38.3140   26.3780   40.3830 C   0  0  0  0  0  0  0  0  0  0  0  0
   38.2920   25.1420   39.7960 N   0  0  0  0  0  0  0  0  0  0  0  0
   37.6900   24.0730   40.3500 C   0  0  0  0  0  0  0  0  0  0  0  0
   37.0760   24.2130   41.5410 N   0  0  0  0  0  0  0  0  0  0  0  0
   36.5790   25.5820   43.1410 H   0  0  0  0  0  0  0  0  0  0  0  0
   37.7230   27.4960   42.0280 H   0  0  0  0  0  0  0  0  0  0  0  0
   37.7200   23.1350   39.8170 H   0  0  0  0  0  0  0  0  0  0  0  0
   42.1550   31.2730   39.5380 N   0  0  0  0  0  0  0  0  0  0  0  0
   41.1090   31.7500   39.5430 C   0  0  0  0  0  0  0  0  0  0  0  0
  1 50  1  0  0  0  0
  1  6  1  0  0  0  0
  2  3  1  0  0  0  0
  2  1  2  0  0  0  0
  3  4  2  0  0  0  0
  4  5  1  0  0  0  0
  5  6  2  0  0  0  0
  5  9  1  0  0  0  0
  6 12  1  0  0  0  0
  7  3  1  0  0  0  0
  8  4  1  0  0  0  0
 10 12  1  0  0  0  0
 10 14  1  0  0  0  0
 11 10  2  0  0  0  0
 12 13  1  0  0  0  0
 14 25  2  0  0  0  0
 14 15  1  0  0  0  0
 15 16  2  0  0  0  0
 16 17  1  0  0  0  0
 18 19  1  0  0  0  0
 18 17  2  0  0  0  0
 20 21  1  0  0  0  0
 20 19  2  0  0  0  0
 22 20  1  0  0  0  0
 23 22  1  0  0  0  0
 24 22  2  0  0  0  0
 24 25  1  0  0  0  0
 25 18  1  0  0  0  0
 26 30  1  0  0  0  0
 26  2  1  0  0  0  0
 27 26  1  0  0  0  0
 28 29  1  0  0  0  0
 28 42  1  0  0  0  0
 29 34  1  0  0  0  0
 29 33  1  0  0  0  0
 30 35  1  6  0  0  0
 30 29  1  0  0  0  0
 31 37  1  0  0  0  0
 31 30  1  0  0  0  0
 31 32  1  0  0  0  0
 32 39  1  0  0  0  0
 32 28  1  0  0  0  0
 36 31  1  0  0  0  0
 38 32  1  0  0  0  0
 40 46  1  0  0  0  0
 41 47  1  0  0  0  0
 41 40  1  0  0  0  0
 42 41  2  0  0  0  0
 43 44  2  0  0  0  0
 43 42  1  0  0  0  0
 44 45  1  0  0  0  0
 45 40  2  0  0  0  0
 48 44  1  0  0  0  0
 49 50  3  0  0  0  0
M  END
>  <minimizedAffinity>
-6.83953714

$$$$

 OpenBabel03242519123D

 50 54  0  0  1  0  0  0  0  0999 V2000
   38.2530   29.4120   41.7100 C   0  0  0  0  0  0  0  0  0  0  0  0
   37.2220   28.4500   41.6170 C   0  0  0  0  0  0  0  0  0  0  0  0
   36.0560   28.9530   41.0750 C   0  0  0  0  0  0  0  0  0  0  0  0
   35.8390   30.2310   40.6470 C   0  0  0  0  0  0  0  0  0  0  0  0
   36.8750   31.1380   40.7560 C   0  0  0  0  0  0  0  0  0  0  0  0
   38.0520   30.6990   41.2850 C   0  0  0  0  0  0  0  0  0  0  0  0
   35.1870   28.2880   40.9580 H   0  0  0  0  0  0  0  0  0  0  0  0
   34.9010   30.5590   40.2320 H   0  0  0  0  0  0  0  0  0  0  0  0
   36.7010   32.1480   40.4170 H   0  0  0  0  0  0  0  0  0  0  0  0
   39.9350   31.9710   40.3060 C   0  0  0  0  0  0  0  0  0  0  0  0
   39.7660   31.3230   39.2410 O   0  0  0  0  0  0  0  0  0  0  0  0
   39.0940   31.6730   41.3950 N   0  0  0  0  0  0  0  0  0  0  0  0
   39.1170   32.0850   42.3440 H   0  0  0  0  0  0  0  0  0  0  0  0
   40.8830   33.0420   40.6880 C   0  0  0  0  0  0  0  0  0  0  0  0
   42.1280   32.8600   41.1870 N   0  0  0  0  0  0  0  0  0  0  0  0
   42.9670   33.8120   41.5270 C   0  0  0  0  0  3  0  0  0  0  0  0
   42.6450   35.0910   41.4010 N   0  0  0  0  0  0  0  0  0  0  0  0
   41.4190   35.4170   40.9110 C   0  0  0  0  0  0  0  0  0  0  0  0
   41.0880   36.7460   40.7830 C   0  0  0  0  0  3  0  0  0  0  0  0
   39.8580   37.1140   40.2900 C   0  0  0  0  0  0  0  0  0  0  0  0
   39.7140   38.1830   40.2360 H   0  0  0  0  0  0  0  0  0  0  0  0
   38.9720   36.1080   39.9320 C   0  0  0  0  0  0  0  0  0  0  0  0
   38.0310   36.4330   39.5560 H   0  0  0  0  0  0  0  0  0  0  0  0
   39.3690   34.8040   40.0880 C   0  0  0  0  0  3  0  0  0  0  0  0
   40.5830   34.3770   40.5730 C   0  0  0  0  0  0  0  0  0  0  0  0
   37.3540   27.1130   42.0350 N   0  0  0  0  0  0  0  0  0  0  0  0
   36.9610   27.0470   43.0020 H   0  0  0  0  0  0  0  0  0  0  0  0
   37.8180   23.7720   40.9080 N   0  0  0  0  0  0  0  0  0  0  0  0
   36.8800   24.8720   41.1500 C   0  0  0  0  0  0  0  0  0  0  0  0
   37.8920   25.9610   41.3940 C   0  0  2  0  0  0  0  0  0  0  0  0
   38.8290   25.2920   42.3910 C   0  0  0  0  0  0  0  0  0  0  0  0
   38.8420   23.8680   41.9150 C   0  0  0  0  0  0  0  0  0  0  0  0
   36.2170   25.0430   40.3000 H   0  0  0  0  0  0  0  0  0  0  0  0
   36.3640   24.6720   42.1120 H   0  0  0  0  0  0  0  0  0  0  0  0
   38.4060   26.1700   40.4390 H   0  0  0  0  0  0  0  0  0  0  0  0
   39.8230   25.7730   42.3780 H   0  0  0  0  0  0  0  0  0  0  0  0
   38.3370   25.4000   43.3980 H   0  0  0  0  0  0  0  0  0  0  0  0
   39.8210   23.7020   41.3920 H   0  0  0  0  0  0  0  0  0  0  0  0
   38.7310   23.1440   42.7450 H   0  0  0  0  0  0  0  0  0  0  0  0
   38.0210   20.5270   39.0990 C   0  0  0  0  0  0  0  0  0  0  0  0
   38.0650   21.4170   40.1630 C   0  0  0  0  0  0  0  0  0  0  0  0
   37.8050   22.7760   39.9210 C   0  0  0  0  0  0  0  0  0  0  0  0
   37.5230   23.1440   38.6330 N   0  0  0  0  0  0  0  0  0  0  0  0
   37.4840   22.2730   37.6080 C   0  0  0  0  0  0  0  0  0  0  0  0
   37.7340   20.9700   37.8480 N   0  0  0  0  0  0  0  0  0  0  0  0
   38.2300   19.4980   39.3530 H   0  0  0  0  0  0  0  0  0  0  0  0
   38.2770   21.1950   41.1780 H   0  0  0  0  0  0  0  0  0  0  0  0
   37.2520   22.6490   36.6230 H   0  0  0  0  0  0  0  0  0  0  0  0
   40.5040   28.6110   42.7290 N   0  0  0  0  0  0  0  0  0  0  0  0
   39.5130   28.9640   42.2680 C   0  0  0  0  0  0  0  0  0  0  0  0
  1 50  1  0  0  0  0
  2  1  1  0  0  0  0
  2 26  1  0  0  0  0
  3  2  2  0  0  0  0
  4  5  2  0  0  0  0
  4  3  1  0  0  0  0
  5  6  1  0  0  0  0
  6 12  1  0  0  0  0
  6  1  2  0  0  0  0
  7  3  1  0  0  0  0
  8  4  1  0  0  0  0
  9  5  1  0  0  0  0
 10 14  1  0  0  0  0
 10 12  1  0  0  0  0
 11 10  2  0  0  0  0
 12 13  1  0  0  0  0
 14 15  1  0  0  0  0
 15 16  2  0  0  0  0
 17 16  1  0  0  0  0
 18 17  2  0  0  0  0
 19 18  1  0  0  0  0
 20 19  2  0  0  0  0
 21 20  1  0  0  0  0
 22 24  2  0  0  0  0
 22 20  1  0  0  0  0
 23 22  1  0  0  0  0
 24 25  1  0  0  0  0
 25 14  2  0  0  0  0
 25 18  1  0  0  0  0
 26 27  1  0  0  0  0
 28 29  1  0  0  0  0
 28 32  1  0  0  0  0
 29 30  1  0  0  0  0
 29 34  1  0  0  0  0
 30 35  1  6  0  0  0
 30 26  1  0  0  0  0
 30 31  1  0  0  0  0
 31 37  1  0  0  0  0
 32 31  1  0  0  0  0
 32 39  1  0  0  0  0
 33 29  1  0  0  0  0
 36 31  1  0  0  0  0
 38 32  1  0  0  0  0
 40 46  1  0  0  0  0
 40 41  1  0  0  0  0
 41 47  1  0  0  0  0
 42 41  2  0  0  0  0
 42 28  1  0  0  0  0
 43 42  1  0  0  0  0
 44 45  1  0  0  0  0
 44 43  2  0  0  0  0
 45 40  2  0  0  0  0
 48 44  1  0  0  0  0
 50 49  3  0  0  0  0
M  END
>  <minimizedAffinity>
-6.76211929

$$$$

 OpenBabel03242519123D

 50 54  0  0  1  0  0  0  0  0999 V2000
   39.5350   32.2370   40.1990 C   0  0  0  0  0  0  0  0  0  0  0  0
   38.2240   32.0580   39.7020 C   0  0  0  0  0  0  0  0  0  0  0  0
   37.5010   33.2330   39.6390 C   0  0  0  0  0  0  0  0  0  0  0  0
   37.9330   34.4780   39.9980 C   0  0  0  0  0  0  0  0  0  0  0  0
   39.2220   34.6050   40.4770 C   0  0  0  0  0  0  0  0  0  0  0  0
   39.9840   33.4780   40.5630 C   0  0  0  0  0  0  0  0  0  0  0  0
   36.4660   33.2080   39.2670 H   0  0  0  0  0  0  0  0  0  0  0  0
   37.3150   35.3560   39.9230 H   0  0  0  0  0  0  0  0  0  0  0  0
   39.5610   35.5910   40.7600 H   0  0  0  0  0  0  0  0  0  0  0  0
   42.2990   34.3220   40.3400 C   0  0  0  0  0  0  0  0  0  0  0  0
   41.9960   34.7320   39.1900 O   0  0  0  0  0  0  0  0  0  0  0  0
   41.3060   33.6520   41.0800 N   0  0  0  0  0  0  0  0  0  0  0  0
   41.3950   33.2280   42.0200 H   0  0  0  0  0  0  0  0  0  0  0  0
   43.5470   34.3950   41.1330 C   0  0  0  0  0  0  0  0  0  0  0  0
   44.6340   33.6040   40.9780 N   0  0  0  0  0  0  0  0  0  0  0  0
   45.7400   33.6700   41.6840 C   0  0  0  0  0  3  0  0  0  0  0  0
   45.8860   34.5610   42.6530 N   0  0  0  0  0  0  0  0  0  0  0  0
   44.8670   35.4210   42.9180 C   0  0  0  0  0  0  0  0  0  0  0  0
   45.0230   36.3440   43.9250 C   0  0  0  0  0  3  0  0  0  0  0  0
   44.0130   37.2310   44.2210 C   0  0  0  0  0  0  0  0  0  0  0  0
   44.2520   37.9060   45.0300 H   0  0  0  0  0  0  0  0  0  0  0  0
   42.8450   37.1610   43.4750 C   0  0  0  0  0  0  0  0  0  0  0  0
   42.0890   37.8620   43.7340 H   0  0  0  0  0  0  0  0  0  0  0  0
   42.7600   36.2140   42.4850 C   0  0  0  0  0  3  0  0  0  0  0  0
   43.7330   35.3040   42.1450 C   0  0  0  0  0  0  0  0  0  0  0  0
   37.6940   30.8150   39.3110 N   0  0  0  0  0  0  0  0  0  0  0  0
   38.1420   30.0820   39.9090 H   0  0  0  0  0  0  0  0  0  0  0  0
   35.8040   28.9380   36.9550 N   0  0  0  0  0  0  0  0  0  0  0  0
   36.4350   28.9780   38.2760 C   0  0  0  0  0  0  0  0  0  0  0  0
   36.7360   30.4530   38.3230 C   0  0  2  0  0  0  0  0  0  0  0  0
   37.3900   30.6760   36.9650 C   0  0  0  0  0  0  0  0  0  0  0  0
   36.6200   29.7390   36.0790 C   0  0  0  0  0  0  0  0  0  0  0  0
   35.7680   28.6210   39.0630 H   0  0  0  0  0  0  0  0  0  0  0  0
   37.4040   28.4400   38.2060 H   0  0  0  0  0  0  0  0  0  0  0  0
   35.7760   30.9950   38.3990 H   0  0  0  0  0  0  0  0  0  0  0  0
   37.3130   31.7350   36.6630 H   0  0  0  0  0  0  0  0  0  0  0  0
   38.4640   30.3630   37.0840 H   0  0  0  0  0  0  0  0  0  0  0  0
   35.9150   30.3640   35.4680 H   0  0  0  0  0  0  0  0  0  0  0  0
   37.2780   29.1530   35.4100 H   0  0  0  0  0  0  0  0  0  0  0  0
   33.0940   26.4430   36.4290 C   0  0  0  0  0  0  0  0  0  0  0  0
   34.2750   26.9840   36.9210 C   0  0  0  0  0  0  0  0  0  0  0  0
   34.6400   28.2820   36.5290 C   0  0  0  0  0  0  0  0  0  0  0  0
   33.7990   28.9430   35.6750 N   0  0  0  0  0  0  0  0  0  0  0  0
   32.6570   28.4090   35.2040 C   0  0  0  0  0  0  0  0  0  0  0  0
   32.3130   27.1620   35.5840 N   0  0  0  0  0  0  0  0  0  0  0  0
   32.8720   25.4420   36.7700 H   0  0  0  0  0  0  0  0  0  0  0  0
   34.9650   26.5240   37.5820 H   0  0  0  0  0  0  0  0  0  0  0  0
   32.0520   29.0010   34.5340 H   0  0  0  0  0  0  0  0  0  0  0  0
   41.0330   30.1210   40.3680 N   0  0  0  0  0  0  0  0  0  0  0  0
   40.3610   31.0510   40.2950 C   0  0  0  0  0  0  0  0  0  0  0  0
  1 50  1  0  0  0  0
  1  6  1  0  0  0  0
  2  1  2  0  0  0  0
  3  2  1  0  0  0  0
  3  4  2  0  0  0  0
  4  5  1  0  0  0  0
  5  6  2  0  0  0  0
  5  9  1  0  0  0  0
  6 12  1  0  0  0  0
  7  3  1  0  0  0  0
  8  4  1  0  0  0  0
 10 12  1  0  0  0  0
 10 14  1  0  0  0  0
 11 10  2  0  0  0  0
 12 13  1  0  0  0  0
 14 25  1  0  0  0  0
 15 14  2  0  0  0  0
 15 16  1  0  0  0  0
 16 17  2  0  0  0  0
 17 18  1  0  0  0  0
 18 19  1  0  0  0  0
 19 20  2  0  0  0  0
 20 21  1  0  0  0  0
 22 23  1  0  0  0  0
 22 20  1  0  0  0  0
 24 22  2  0  0  0  0
 25 24  1  0  0  0  0
 25 18  2  0  0  0  0
 26  2  1  0  0  0  0
 26 27  1  0  0  0  0
 28 29  1  0  0  0  0
 29 30  1  0  0  0  0
 29 33  1  0  0  0  0
 30 35  1  1  0  0  0
 30 26  1  0  0  0  0
 31 37  1  0  0  0  0
 31 30  1  0  0  0  0
 32 28  1  0  0  0  0
 32 31  1  0  0  0  0
 34 29  1  0  0  0  0
 36 31  1  0  0  0  0
 38 32  1  0  0  0  0
 39 32  1  0  0  0  0
 40 46  1  0  0  0  0
 40 41  1  0  0  0  0
 41 47  1  0  0  0  0
 42 41  2  0  0  0  0
 42 28  1  0  0  0  0
 43 42  1  0  0  0  0
 44 45  1  0  0  0  0
 44 43  2  0  0  0  0
 45 40  2  0  0  0  0
 48 44  1  0  0  0  0
 50 49  3  0  0  0  0
M  END
>  <minimizedAffinity>
-6.74168682

$$$$

 OpenBabel03242519123D

 50 54  0  0  1  0  0  0  0  0999 V2000
   37.9500   30.7590   39.2920 C   0  0  0  0  0  0  0  0  0  0  0  0
   38.1450   31.9760   38.5990 C   0  0  0  0  0  0  0  0  0  0  0  0
   37.7890   31.9060   37.2670 C   0  0  0  0  0  0  0  0  0  0  0  0
   37.2930   30.8170   36.6090 C   0  0  0  0  0  0  0  0  0  0  0  0
   37.1180   29.6500   37.3270 C   0  0  0  0  0  0  0  0  0  0  0  0
   37.4530   29.6570   38.6480 C   0  0  0  0  0  0  0  0  0  0  0  0
   37.9010   32.7990   36.6330 H   0  0  0  0  0  0  0  0  0  0  0  0
   37.0340   30.8310   35.5650 H   0  0  0  0  0  0  0  0  0  0  0  0
   36.7250   28.7900   36.8050 H   0  0  0  0  0  0  0  0  0  0  0  0
   38.2260   27.3910   39.2710 C   0  0  0  0  0  0  0  0  0  0  0  0
   39.2270   27.5720   38.5300 O   0  0  0  0  0  0  0  0  0  0  0  0
   37.2730   28.4240   39.3500 N   0  0  0  0  0  0  0  0  0  0  0  0
   36.3850   28.4280   39.8820 H   0  0  0  0  0  0  0  0  0  0  0  0
   37.8060   26.2600   40.1290 C   0  0  0  0  0  0  0  0  0  0  0  0
   38.2520   26.0040   41.3810 N   0  0  0  0  0  0  0  0  0  0  0  0
   37.8780   24.9990   42.1400 C   0  0  0  0  0  3  0  0  0  0  0  0
   36.9900   24.1120   41.7200 N   0  0  0  0  0  0  0  0  0  0  0  0
   36.4580   24.2490   40.4750 C   0  0  0  0  0  0  0  0  0  0  0  0
   35.5370   23.3250   40.0420 C   0  0  0  0  0  3  0  0  0  0  0  0
   34.9780   23.4320   38.7910 C   0  0  0  0  0  0  0  0  0  0  0  0
   34.2680   22.6490   38.5630 H   0  0  0  0  0  0  0  0  0  0  0  0
   35.3730   24.4930   37.9880 C   0  0  0  0  0  0  0  0  0  0  0  0
   34.9180   24.5400   37.0280 H   0  0  0  0  0  0  0  0  0  0  0  0
   36.2970   25.3760   38.4860 C   0  0  0  0  0  3  0  0  0  0  0  0
   36.8890   25.3210   39.7260 C   0  0  0  0  0  0  0  0  0  0  0  0
   38.6530   33.1460   39.1930 N   0  0  0  0  0  0  0  0  0  0  0  0
   37.9070   33.8770   39.1320 H   0  0  0  0  0  0  0  0  0  0  0  0
   41.4840   34.9100   40.4250 N   0  0  0  0  0  0  0  0  0  0  0  0
   40.0270   34.8630   40.2850 C   0  0  0  0  0  0  0  0  0  0  0  0
   39.9070   33.4430   39.7980 C   0  0  2  0  0  0  0  0  0  0  0  0
   40.9560   33.4080   38.6930 C   0  0  0  0  0  0  0  0  0  0  0  0
   42.0360   34.2920   39.2470 C   0  0  0  0  0  0  0  0  0  0  0  0
   39.5150   35.0700   41.2270 H   0  0  0  0  0  0  0  0  0  0  0  0
   39.7450   35.5310   39.4450 H   0  0  0  0  0  0  0  0  0  0  0  0
   40.1800   32.7710   40.6320 H   0  0  0  0  0  0  0  0  0  0  0  0
   41.2850   32.3720   38.5000 H   0  0  0  0  0  0  0  0  0  0  0  0
   40.4630   33.8550   37.7850 H   0  0  0  0  0  0  0  0  0  0  0  0
   42.8660   33.6220   39.5970 H   0  0  0  0  0  0  0  0  0  0  0  0
   42.4220   35.0080   38.4970 H   0  0  0  0  0  0  0  0  0  0  0  0
   42.8250   36.9950   43.2000 C   0  0  0  0  0  0  0  0  0  0  0  0
   41.9570   36.5810   42.1990 C   0  0  0  0  0  0  0  0  0  0  0  0
   42.2760   35.4310   41.4580 C   0  0  0  0  0  0  0  0  0  0  0  0
   43.4400   34.7820   41.7720 N   0  0  0  0  0  0  0  0  0  0  0  0
   44.2740   35.1930   42.7450 C   0  0  0  0  0  0  0  0  0  0  0  0
   43.9610   36.2970   43.4510 N   0  0  0  0  0  0  0  0  0  0  0  0
   42.5200   37.8860   43.7300 H   0  0  0  0  0  0  0  0  0  0  0  0
   41.0450   37.0390   41.9090 H   0  0  0  0  0  0  0  0  0  0  0  0
   45.1710   34.6210   42.9270 H   0  0  0  0  0  0  0  0  0  0  0  0
   38.5560   30.7410   41.8180 N   0  0  0  0  0  0  0  0  0  0  0  0
   38.2990   30.7490   40.6980 C   0  0  0  0  0  0  0  0  0  0  0  0
  1 50  1  0  0  0  0
  2 26  1  0  0  0  0
  2  1  2  0  0  0  0
  3  2  1  0  0  0  0
  4  3  2  0  0  0  0
  4  5  1  0  0  0  0
  5  6  2  0  0  0  0
  6  1  1  0  0  0  0
  6 12  1  0  0  0  0
  7  3  1  0  0  0  0
  8  4  1  0  0  0  0
  9  5  1  0  0  0  0
 10 12  1  0  0  0  0
 10 14  1  0  0  0  0
 11 10  2  0  0  0  0
 12 13  1  0  0  0  0
 14 15  1  0  0  0  0
 15 16  2  0  0  0  0
 17 16  1  0  0  0  0
 18 17  2  0  0  0  0
 19 18  1  0  0  0  0
 20 19  2  0  0  0  0
 21 20  1  0  0  0  0
 22 24  2  0  0  0  0
 22 20  1  0  0  0  0
 23 22  1  0  0  0  0
 24 25  1  0  0  0  0
 25 14  2  0  0  0  0
 25 18  1  0  0  0  0
 26 30  1  0  0  0  0
 27 26  1  0  0  0  0
 28 42  1  0  0  0  0
 29 28  1  0  0  0  0
 29 33  1  0  0  0  0
 30 29  1  0  0  0  0
 30 35  1  1  0  0  0
 31 32  1  0  0  0  0
 31 30  1  0  0  0  0
 32 38  1  0  0  0  0
 32 28  1  0  0  0  0
 34 29  1  0  0  0  0
 36 31  1  0  0  0  0
 37 31  1  0  0  0  0
 39 32  1  0  0  0  0
 40 45  1  0  0  0  0
 40 46  1  0  0  0  0
 41 40  2  0  0  0  0
 42 43  2  0  0  0  0
 42 41  1  0  0  0  0
 43 44  1  0  0  0  0
 44 48  1  0  0  0  0
 44 45  2  0  0  0  0
 47 41  1  0  0  0  0
 50 49  3  0  0  0  0
M  END
>  <minimizedAffinity>
-6.72289133

$$$$
