
 OpenBabel03252502233D

 37 40  0  0  1  0  0  0  0  0999 V2000
   46.6290   34.4650   42.2630 N   0  0  0  0  0  0  0  0  0  0  0  0
   48.0550   34.1640   42.3090 C   0  0  0  0  0  0  0  0  0  0  0  0
   48.6390   34.9100   41.1130 C   0  0  0  0  0  0  0  0  0  0  0  0
   48.1040   34.3430   39.8330 C   0  0  0  0  0  0  0  0  0  0  0  0
   46.6660   33.9680   39.8690 C   0  0  0  0  0  0  0  0  0  0  0  0
   45.8930   34.4900   41.0290 C   0  0  1  0  0  0  0  0  0  0  0  0
   48.1560   33.0940   42.0810 H   0  0  0  0  0  0  0  0  0  0  0  0
   48.5230   34.4870   43.2340 H   0  0  0  0  0  0  0  0  0  0  0  0
   49.7370   34.6460   41.1410 H   0  0  0  0  0  0  0  0  0  0  0  0
   48.4860   35.9830   41.2380 H   0  0  0  0  0  0  0  0  0  0  0  0
   48.7260   33.4790   39.4730 H   0  0  0  0  0  0  0  0  0  0  0  0
   48.2330   35.1240   39.0450 H   0  0  0  0  0  0  0  0  0  0  0  0
   46.1220   34.2120   38.9310 H   0  0  0  0  0  0  0  0  0  0  0  0
   46.6090   32.8460   39.9300 H   0  0  0  0  0  0  0  0  0  0  0  0
   45.5570   35.5340   40.8000 H   0  0  0  0  0  0  0  0  0  0  0  0
   44.4620   36.1190   44.8250 C   0  0  0  0  0  0  0  0  0  0  0  0
   45.1330   35.9200   43.6130 C   0  0  0  0  0  0  0  0  0  0  0  0
   45.9130   34.7470   43.4620 C   0  0  0  0  0  0  0  0  0  0  0  0
   45.9610   33.8830   44.5110 N   0  0  0  0  0  0  0  0  0  0  0  0
   45.2900   34.1230   45.6690 C   0  0  0  0  0  0  0  0  0  0  0  0
   44.5460   35.2370   45.8150 N   0  0  0  0  0  0  0  0  0  0  0  0
   43.9100   37.0490   44.7960 H   0  0  0  0  0  0  0  0  0  0  0  0
   45.1150   36.5850   42.7640 H   0  0  0  0  0  0  0  0  0  0  0  0
   45.3410   33.4230   46.4910 H   0  0  0  0  0  0  0  0  0  0  0  0
   44.7510   33.6850   41.1850 O   0  0  0  0  0  0  0  0  0  0  0  0
   43.8180   33.4320   40.2130 C   0  0  0  0  0  0  0  0  0  0  0  0
   43.8780   32.5710   39.1840 N   0  0  0  0  0  0  0  0  0  0  0  0
   42.8830   32.4330   38.3090 C   0  0  0  0  0  3  0  0  0  0  0  0
   41.7470   33.1690   38.4250 N   0  0  0  0  0  0  0  0  0  0  0  0
   41.6220   34.0470   39.4290 C   0  0  0  0  0  0  0  0  0  0  0  0
   40.4720   34.7940   39.5470 C   0  0  0  0  0  3  0  0  0  0  0  0
   40.3040   35.7050   40.5620 C   0  0  0  0  0  0  0  0  0  0  0  0
   39.4350   36.3370   40.7360 H   0  0  0  0  0  0  0  0  0  0  0  0
   41.3100   35.8600   41.4660 C   0  0  0  0  0  0  0  0  0  0  0  0
   41.2610   36.5530   42.2940 H   0  0  0  0  0  0  0  0  0  0  0  0
   42.4580   35.1070   41.3380 C   0  0  0  0  0  3  0  0  0  0  0  0
   42.6620   34.1810   40.3290 C   0  0  0  0  0  0  0  0  0  0  0  0
  1  2  1  0  0  0  0
  1 18  1  0  0  0  0
  2  8  1  0  0  0  0
  3  9  1  0  0  0  0
  3 10  1  0  0  0  0
  3  2  1  0  0  0  0
  4  5  1  0  0  0  0
  4  3  1  0  0  0  0
  5 14  1  0  0  0  0
  5  6  1  0  0  0  0
  6 15  1  6  0  0  0
  6 25  1  0  0  0  0
  6  1  1  0  0  0  0
  7  2  1  0  0  0  0
 11  4  1  0  0  0  0
 12  4  1  0  0  0  0
 13  5  1  0  0  0  0
 16 21  1  0  0  0  0
 17 16  2  0  0  0  0
 18 17  1  0  0  0  0
 18 19  2  0  0  0  0
 19 20  1  0  0  0  0
 20 21  2  0  0  0  0
 20 24  1  0  0  0  0
 22 16  1  0  0  0  0
 23 17  1  0  0  0  0
 26 37  1  0  0  0  0
 26 25  1  0  0  0  0
 27 26  2  0  0  0  0
 28 29  2  0  0  0  0
 28 27  1  0  0  0  0
 29 30  1  0  0  0  0
 30 31  2  0  0  0  0
 30 37  1  0  0  0  0
 31 32  1  0  0  0  0
 32 33  1  0  0  0  0
 32 34  2  0  0  0  0
 34 35  1  0  0  0  0
 36 34  1  0  0  0  0
 37 36  2  0  0  0  0
M  END
>  <minimizedAffinity>
-6.52040768

>  <minimizedRMSD>
1.54799402

$$$$
