
 OpenBabel03242517483D

 46 50  0  0  0  0  0  0  0  0999 V2000
   38.5290   31.8690   41.2260 C   0  0  0  0  0  0  0  0  0  0  0  0
   39.9110   31.7180   41.0840 C   0  0  0  0  0  0  0  0  0  0  0  0
   40.3910   30.4540   40.8340 C   0  0  0  0  0  0  0  0  0  0  0  0
   39.5120   29.4250   40.7360 N   0  0  0  0  0  0  0  0  0  0  0  0
   38.1730   29.6090   40.8790 C   0  0  0  0  0  0  0  0  0  0  0  0
   37.6610   30.8080   41.1220 N   0  0  0  0  0  0  0  0  0  0  0  0
   38.0890   32.8520   41.4270 H   0  0  0  0  0  0  0  0  0  0  0  0
   41.4610   30.3070   40.7190 H   0  0  0  0  0  0  0  0  0  0  0  0
   37.3010   28.4230   40.7570 C   0  0  0  0  0  0  0  0  0  0  0  0
   36.8090   28.2830   41.7510 H   0  0  0  0  0  0  0  0  0  0  0  0
   37.8390   27.5090   40.5130 H   0  0  0  0  0  0  0  0  0  0  0  0
   36.1740   28.6800   39.7480 C   0  0  0  0  0  0  0  0  0  0  0  0
   35.2620   28.1360   40.0660 H   0  0  0  0  0  0  0  0  0  0  0  0
   35.9590   29.7480   39.6550 H   0  0  0  0  0  0  0  0  0  0  0  0
   36.6290   28.0770   38.4660 C   0  0  0  0  0  0  0  0  0  0  0  0
   37.6450   28.5340   37.7130 N   0  0  0  0  0  0  0  0  0  0  0  0
   38.0180   27.9510   36.5600 C   0  0  0  0  0  3  0  0  0  0  0  0
   37.3880   26.8630   36.0880 N   0  0  0  0  0  0  0  0  0  0  0  0
   36.3540   26.3430   36.7890 C   0  0  0  0  0  0  0  0  0  0  0  0
   35.7390   25.2270   36.2650 C   0  0  0  0  0  3  0  0  0  0  0  0
   34.6850   24.6680   36.9480 C   0  0  0  0  0  0  0  0  0  0  0  0
   34.1500   23.7910   36.5990 H   0  0  0  0  0  0  0  0  0  0  0  0
   34.2920   25.2480   38.1230 C   0  0  0  0  0  0  0  0  0  0  0  0
   33.4620   24.8100   38.6610 H   0  0  0  0  0  0  0  0  0  0  0  0
   34.9020   26.3700   38.6600 C   0  0  0  0  0  3  0  0  0  0  0  0
   35.9700   26.9440   37.9770 C   0  0  0  0  0  0  0  0  0  0  0  0
   41.0020   33.0990   41.2230 S   0  0  0  0  0  0  0  0  0  0  0  0
   40.9370   34.0890   39.7580 C   0  0  0  0  0  0  0  0  0  0  0  0
   39.8410   34.1210   38.9070 C   0  0  0  0  0  0  0  0  0  0  0  0
   39.8700   34.9260   37.7770 C   0  0  0  0  0  0  0  0  0  0  0  0
   40.9570   35.6940   37.4780 C   0  0  0  0  0  0  0  0  0  0  0  0
   42.0430   35.6570   38.3300 C   0  0  0  0  0  0  0  0  0  0  0  0
   42.0460   34.8660   39.4630 C   0  0  0  0  0  0  0  0  0  0  0  0
   38.9930   33.5110   39.1540 H   0  0  0  0  0  0  0  0  0  0  0  0
   38.9580   34.8760   37.1780 H   0  0  0  0  0  0  0  0  0  0  0  0
   40.8740   36.2730   36.5890 H   0  0  0  0  0  0  0  0  0  0  0  0
   42.8850   36.2820   38.0560 H   0  0  0  0  0  0  0  0  0  0  0  0
   43.1990   34.8400   40.3490 C   0  0  0  0  0  0  0  0  0  0  0  0
   44.2830   34.0340   40.1850 C   0  0  0  0  0  0  0  0  0  0  0  0
   45.3790   34.0250   41.0490 C   0  0  0  0  0  0  0  0  0  0  0  0
   45.3640   34.8570   42.1010 N   0  0  0  0  0  0  0  0  0  0  0  0
   44.2900   35.6610   42.2720 C   0  0  0  0  0  0  0  0  0  0  0  0
   43.2360   35.6570   41.4270 N   0  0  0  0  0  0  0  0  0  0  0  0
   44.3070   33.3540   39.3330 H   0  0  0  0  0  0  0  0  0  0  0  0
   46.2130   33.3660   40.8700 H   0  0  0  0  0  0  0  0  0  0  0  0
   44.1430   36.3880   43.0860 H   0  0  0  0  0  0  0  0  0  0  0  0
  1  7  1  0  0  0  0
  2 27  1  0  0  0  0
  2  1  2  0  0  0  0
  3  2  1  0  0  0  0
  4  3  2  0  0  0  0
  4  5  1  0  0  0  0
  5  6  2  0  0  0  0
  6  1  1  0  0  0  0
  8  3  1  0  0  0  0
  9  5  1  0  0  0  0
  9 10  1  0  0  0  0
 11  9  1  0  0  0  0
 12 13  1  0  0  0  0
 12  9  1  0  0  0  0
 14 12  1  0  0  0  0
 15 12  1  0  0  0  0
 16 15  2  0  0  0  0
 17 16  1  0  0  0  0
 18 17  2  0  0  0  0
 18 19  1  0  0  0  0
 19 26  1  0  0  0  0
 20 19  2  0  0  0  0
 20 21  1  0  0  0  0
 21 23  2  0  0  0  0
 22 21  1  0  0  0  0
 23 25  1  0  0  0  0
 23 24  1  0  0  0  0
 26 15  1  0  0  0  0
 26 25  2  0  0  0  0
 28 27  1  0  0  0  0
 29 34  1  0  0  0  0
 29 28  2  0  0  0  0
 30 29  1  0  0  0  0
 31 30  2  0  0  0  0
 31 32  1  0  0  0  0
 32 33  2  0  0  0  0
 33 28  1  0  0  0  0
 33 38  1  0  0  0  0
 35 30  1  0  0  0  0
 36 31  1  0  0  0  0
 37 32  1  0  0  0  0
 38 43  1  0  0  0  0
 39 38  2  0  0  0  0
 39 40  1  0  0  0  0
 40 41  2  0  0  0  0
 41 42  1  0  0  0  0
 42 46  1  0  0  0  0
 43 42  2  0  0  0  0
 44 39  1  0  0  0  0
 45 40  1  0  0  0  0
M  END
>  <minimizedAffinity>
-5.40423918

>  <minimizedRMSD>
1.20884383

$$$$
