
 OpenBabel03252505473D

 32 35  0  0  1  0  0  0  0  0999 V2000
   45.6690   31.6690   44.0880 C   0  0  0  0  0  0  0  0  0  0  0  0
   44.9910   30.4710   43.7580 C   0  0  0  0  0  0  0  0  0  0  0  0
   45.4140   29.2370   44.2570 C   0  0  0  0  0  0  0  0  0  0  0  0
   46.5080   29.2610   45.0690 N   0  0  0  0  0  0  0  0  0  0  0  0
   47.1370   30.4370   45.3630 C   0  0  0  0  0  0  0  0  0  0  0  0
   46.7320   31.6060   44.8910 N   0  0  0  0  0  0  0  0  0  0  0  0
   44.1350   30.5160   43.1130 H   0  0  0  0  0  0  0  0  0  0  0  0
   44.8920   28.3300   44.0010 H   0  0  0  0  0  0  0  0  0  0  0  0
   45.1710   32.9240   43.5140 C   0  0  1  0  0  0  0  0  0  0  0  0
   45.8330   33.2090   42.1170 C   0  0  1  0  0  0  0  0  0  0  0  0
   44.3490   33.0430   42.3700 C   0  0  0  0  0  0  0  0  0  0  0  0
   45.3010   33.7870   44.2280 H   0  0  0  0  0  0  0  0  0  0  0  0
   46.3580   32.3980   41.6250 H   0  0  0  0  0  0  0  0  0  0  0  0
   43.8980   32.1320   41.8950 H   0  0  0  0  0  0  0  0  0  0  0  0
   43.6810   33.9210   42.2280 H   0  0  0  0  0  0  0  0  0  0  0  0
   46.2560   34.6460   41.9250 C   0  0  0  0  0  0  0  0  0  0  0  0
   46.9860   34.8530   40.7900 F   0  0  0  0  0  0  0  0  0  0  0  0
   45.1040   35.4440   41.8380 F   0  0  0  0  0  0  0  0  0  0  0  0
   46.9290   35.1120   43.0450 F   0  0  0  0  0  0  0  0  0  0  0  0
   48.2310   30.2970   46.1950 O   0  0  0  0  0  0  0  0  0  0  0  0
   48.7150   29.1160   46.6810 C   0  0  0  0  0  0  0  0  0  0  0  0
   48.2450   28.3870   47.7220 N   0  0  0  0  0  0  0  0  0  0  0  0
   48.8510   27.2210   48.0790 C   0  0  0  0  0  3  0  0  0  0  0  0
   49.9260   26.7520   47.4200 N   0  0  0  0  0  0  0  0  0  0  0  0
   50.4160   27.4450   46.3880 C   0  0  0  0  0  0  0  0  0  0  0  0
   51.5210   26.9220   45.7450 C   0  0  0  0  0  3  0  0  0  0  0  0
   52.0530   27.6040   44.6810 C   0  0  0  0  0  0  0  0  0  0  0  0
   52.9180   27.2400   44.1400 H   0  0  0  0  0  0  0  0  0  0  0  0
   51.4950   28.8090   44.2460 C   0  0  0  0  0  0  0  0  0  0  0  0
   51.8580   29.4030   43.4170 H   0  0  0  0  0  0  0  0  0  0  0  0
   50.3920   29.3080   44.9060 C   0  0  0  0  0  3  0  0  0  0  0  0
   49.8330   28.6480   45.9790 C   0  0  0  0  0  0  0  0  0  0  0  0
  1  6  1  0  0  0  0
  2  1  2  0  0  0  0
  2  3  1  0  0  0  0
  3  4  2  0  0  0  0
  4  5  1  0  0  0  0
  5 20  1  0  0  0  0
  6  5  2  0  0  0  0
  7  2  1  0  0  0  0
  8  3  1  0  0  0  0
  9  1  1  0  0  0  0
  9 12  1  1  0  0  0
 10 13  1  6  0  0  0
 10 11  1  0  0  0  0
 10  9  1  0  0  0  0
 11  9  1  0  0  0  0
 14 11  1  0  0  0  0
 15 11  1  0  0  0  0
 16 10  1  0  0  0  0
 16 19  1  0  0  0  0
 17 16  1  0  0  0  0
 18 16  1  0  0  0  0
 20 21  1  0  0  0  0
 21 22  1  0  0  0  0
 22 23  2  0  0  0  0
 24 23  1  0  0  0  0
 25 24  2  0  0  0  0
 26 25  1  0  0  0  0
 27 26  2  0  0  0  0
 28 27  1  0  0  0  0
 29 27  1  0  0  0  0
 29 31  2  0  0  0  0
 30 29  1  0  0  0  0
 31 32  1  0  0  0  0
 32 25  1  0  0  0  0
 32 21  2  0  0  0  0
M  END
>  <minimizedAffinity>
-3.2445488

>  <minimizedRMSD>
4.81230736

$$$$
