REMARK  Name = 
REMARK  2 active torsions:
REMARK  status: ('A' for Active; 'I' for Inactive)
REMARK    1  A    between atoms: C_3  and  S_7
REMARK    2  A    between atoms: S_7  and  C_11
REMARK                            x       y       z     vdW  Elec       q    Type
REMARK                         _______ _______ _______ _____ _____    ______ ____
ROOT
ATOM      1  C   UNL     1      46.079  33.555  40.616  0.00  0.00    +0.000 A 
ATOM      2  N   UNL     1      46.048  33.993  39.324  0.00  0.00    +0.000 NA
ATOM      3  C   UNL     1      45.343  33.336  38.376  0.00  0.00    +0.000 A 
ATOM      4  N   UNL     1      44.682  32.241  38.765  0.00  0.00    +0.000 NA
ATOM      5  C   UNL     1      44.663  31.750  40.005  0.00  0.00    +0.000 A 
ATOM      6  C   UNL     1      43.969  30.617  40.377  0.00  0.00    +0.000 A 
ATOM      7  C   UNL     1      44.017  30.193  41.694  0.00  0.00    +0.000 A 
ATOM      8  H   UNL     1      43.461  29.299  41.956  0.00  0.00    +0.000 HD
ATOM      9  C   UNL     1      44.750  30.897  42.628  0.00  0.00    +0.000 A 
ATOM     10  H   UNL     1      44.764  30.534  43.655  0.00  0.00    +0.000 HD
ATOM     11  C   UNL     1      45.468  32.048  42.304  0.00  0.00    +0.000 A 
ATOM     12  C   UNL     1      45.378  32.415  40.975  0.00  0.00    +0.000 A 
ENDROOT
BRANCH   1  13
ATOM     13  S   UNL     1      47.067  34.563  41.712  0.00  0.00    +0.000 S 
BRANCH  13  16
ATOM     14  C   UNL     1      44.544  36.027  44.525  0.00  0.00    +0.000 A 
ATOM     15  C   UNL     1      45.261  35.893  43.319  0.00  0.00    +0.000 A 
ATOM     16  C   UNL     1      46.129  34.796  43.210  0.00  0.00    +0.000 A 
ATOM     17  N   UNL     1      46.228  33.941  44.251  0.00  0.00    +0.000 NA
ATOM     18  C   UNL     1      45.528  34.095  45.396  0.00  0.00    +0.000 A 
ATOM     19  N   UNL     1      44.694  35.138  45.517  0.00  0.00    +0.000 NA
ATOM     20  H   UNL     1      43.893  36.876  44.569  0.00  0.00    +0.000 HD
ATOM     21  H   UNL     1      45.136  36.607  42.531  0.00  0.00    +0.000 HD
ATOM     22  H   UNL     1      45.594  33.421  46.240  0.00  0.00    +0.000 HD
ENDBRANCH  13  16
ENDBRANCH   1  13
TORSDOF 2
