
 OpenBabel03252504303D

 36 38  0  0  0  0  0  0  0  0999 V2000
   45.3250   35.6340   43.5600 C   0  0  0  0  0  0  0  0  0  0  0  0
   46.0480   35.0550   42.9300 H   0  0  0  0  0  0  0  0  0  0  0  0
   45.6930   36.6600   43.7310 H   0  0  0  0  0  0  0  0  0  0  0  0
   43.9350   35.3070   41.4610 C   0  0  0  0  0  0  0  0  0  0  0  0
   44.0390   35.6350   42.7550 C   0  0  0  0  0  0  0  0  0  0  0  0
   42.6680   35.3680   40.8980 O   0  0  0  0  0  0  0  0  0  0  0  0
   41.4760   35.5440   41.5640 C   0  0  0  0  0  0  0  0  0  0  0  0
   41.6130   35.0730   42.5880 H   0  0  0  0  0  0  0  0  0  0  0  0
   41.2380   36.5950   41.7290 H   0  0  0  0  0  0  0  0  0  0  0  0
   40.1260   33.5410   41.6310 C   0  0  0  0  0  0  0  0  0  0  0  0
   40.3500   34.7710   40.9780 C   0  0  0  0  0  0  0  0  0  0  0  0
   39.5330   35.0780   39.9370 C   0  0  0  0  0  0  0  0  0  0  0  0
   38.5880   34.1940   39.6160 N   0  0  0  0  0  0  0  0  0  0  0  0
   38.3750   33.0410   40.2260 C   0  0  0  0  0  0  0  0  0  0  0  0
   39.1670   32.6520   41.3010 N   0  0  0  0  0  0  0  0  0  0  0  0
   40.7320   33.1990   42.4840 H   0  0  0  0  0  0  0  0  0  0  0  0
   39.7540   36.0300   39.4790 H   0  0  0  0  0  0  0  0  0  0  0  0
   37.5860   32.3630   39.9150 H   0  0  0  0  0  0  0  0  0  0  0  0
   45.0740   34.9590   44.7280 O   0  0  0  0  0  0  0  0  0  0  0  0
   45.2310   32.5320   43.6570 O   0  0  0  0  0  0  0  0  0  0  0  0
   45.7980   33.4260   44.7170 P   0  0  1  0  0  0  0  0  0  0  0  0
   47.4640   33.5720   44.4570 O   0  0  0  0  0  0  0  0  0  0  0  0
   47.8710   34.1210   45.1800 H   0  0  0  0  0  0  0  0  0  0  0  0
   45.5980   32.7220   46.2500 O   0  0  0  0  0  0  0  0  0  0  0  0
   46.0900   31.4290   46.4120 C   0  0  0  0  0  0  0  0  0  0  0  0
   45.6230   30.3690   45.7250 N   0  0  0  0  0  0  0  0  0  0  0  0
   46.1330   29.1200   45.9150 C   0  0  0  0  0  0  0  0  0  0  0  0
   47.1180   28.9680   46.8060 N   0  0  0  0  0  0  0  0  0  0  0  0
   47.6380   29.9860   47.5320 C   0  0  0  0  0  0  0  0  0  0  0  0
   48.6530   29.6480   48.4080 C   0  0  0  0  0  0  0  0  0  0  0  0
   49.1710   30.7090   49.1410 C   0  0  0  0  0  0  0  0  0  0  0  0
   49.9670   30.4650   49.8330 H   0  0  0  0  0  0  0  0  0  0  0  0
   48.6820   31.9870   48.9790 C   0  0  0  0  0  0  0  0  0  0  0  0
   49.1000   32.7980   49.5610 H   0  0  0  0  0  0  0  0  0  0  0  0
   47.6660   32.2760   48.0900 C   0  0  0  0  0  0  0  0  0  0  0  0
   47.1070   31.2470   47.3260 C   0  0  0  0  0  0  0  0  0  0  0  0
  1  3  1  0  0  0  0
  1 19  1  0  0  0  0
  2  1  1  0  0  0  0
  4  5  2  0  0  0  0
  5  1  1  0  0  0  0
  6  4  1  0  0  0  0
  6  7  1  0  0  0  0
  7  9  1  0  0  0  0
  7  8  1  0  0  0  0
 10 16  1  0  0  0  0
 11  7  1  0  0  0  0
 11 10  2  0  0  0  0
 12 11  1  0  0  0  0
 13 12  2  0  0  0  0
 13 14  1  0  0  0  0
 14 15  2  0  0  0  0
 15 10  1  0  0  0  0
 17 12  1  0  0  0  0
 18 14  1  0  0  0  0
 21 20  2  6  0  0  0
 21 19  1  0  0  0  0
 21 24  1  0  0  0  0
 22 21  1  0  0  0  0
 22 23  1  0  0  0  0
 24 25  1  0  0  0  0
 25 36  1  0  0  0  0
 26 27  1  0  0  0  0
 26 25  2  0  0  0  0
 27 28  2  0  0  0  0
 28 29  1  0  0  0  0
 29 30  1  0  0  0  0
 30 31  2  0  0  0  0
 31 32  1  0  0  0  0
 33 31  1  0  0  0  0
 33 34  1  0  0  0  0
 35 33  2  0  0  0  0
 36 29  2  0  0  0  0
 36 35  1  0  0  0  0
M  END
>  <minimizedAffinity>
-5.60444117

>  <minimizedRMSD>
1.21005797

$$$$
