
 OpenBabel03242517483D

 46 50  0  0  0  0  0  0  0  0999 V2000
   38.5310   31.7930   41.2040 C   0  0  0  0  0  0  0  0  0  0  0  0
   39.9010   31.6930   40.9520 C   0  0  0  0  0  0  0  0  0  0  0  0
   40.3870   30.4710   40.5510 C   0  0  0  0  0  0  0  0  0  0  0  0
   39.5240   29.4320   40.4200 N   0  0  0  0  0  0  0  0  0  0  0  0
   38.1960   29.5650   40.6730 C   0  0  0  0  0  0  0  0  0  0  0  0
   37.6780   30.7240   41.0630 N   0  0  0  0  0  0  0  0  0  0  0  0
   38.0860   32.7410   41.5270 H   0  0  0  0  0  0  0  0  0  0  0  0
   41.4480   30.3640   40.3480 H   0  0  0  0  0  0  0  0  0  0  0  0
   37.3420   28.3730   40.5020 C   0  0  0  0  0  0  0  0  0  0  0  0
   37.0600   28.0300   41.5290 H   0  0  0  0  0  0  0  0  0  0  0  0
   37.8380   27.5490   39.9940 H   0  0  0  0  0  0  0  0  0  0  0  0
   36.0310   28.7420   39.7940 C   0  0  0  0  0  0  0  0  0  0  0  0
   35.1830   28.6180   40.4990 H   0  0  0  0  0  0  0  0  0  0  0  0
   36.0570   29.7680   39.4170 H   0  0  0  0  0  0  0  0  0  0  0  0
   35.8580   27.7400   38.7080 C   0  0  0  0  0  0  0  0  0  0  0  0
   36.6420   27.6330   37.6210 N   0  0  0  0  0  0  0  0  0  0  0  0
   36.4440   26.7080   36.6660 C   0  0  0  0  0  3  0  0  0  0  0  0
   35.4370   25.8240   36.7450 N   0  0  0  0  0  0  0  0  0  0  0  0
   34.6030   25.8650   37.8100 C   0  0  0  0  0  0  0  0  0  0  0  0
   33.5850   24.9380   37.8470 C   0  0  0  0  0  3  0  0  0  0  0  0
   32.7160   24.9480   38.9120 C   0  0  0  0  0  0  0  0  0  0  0  0
   31.8910   24.2510   39.0120 H   0  0  0  0  0  0  0  0  0  0  0  0
   32.9030   25.8830   39.8940 C   0  0  0  0  0  0  0  0  0  0  0  0
   32.2210   25.8930   40.7330 H   0  0  0  0  0  0  0  0  0  0  0  0
   33.9230   26.8210   39.8690 C   0  0  0  0  0  3  0  0  0  0  0  0
   34.8090   26.8200   38.7930 C   0  0  0  0  0  0  0  0  0  0  0  0
   40.9710   33.0840   41.1420 S   0  0  0  0  0  0  0  0  0  0  0  0
   40.9270   34.1020   39.6950 C   0  0  0  0  0  0  0  0  0  0  0  0
   39.8400   34.1560   38.8340 C   0  0  0  0  0  0  0  0  0  0  0  0
   39.8850   34.9820   37.7200 C   0  0  0  0  0  0  0  0  0  0  0  0
   40.9790   35.7490   37.4460 C   0  0  0  0  0  0  0  0  0  0  0  0
   42.0560   35.6900   38.3090 C   0  0  0  0  0  0  0  0  0  0  0  0
   42.0430   34.8780   39.4260 C   0  0  0  0  0  0  0  0  0  0  0  0
   38.9860   33.5460   39.0610 H   0  0  0  0  0  0  0  0  0  0  0  0
   38.9790   34.9480   37.1100 H   0  0  0  0  0  0  0  0  0  0  0  0
   40.9080   36.3450   36.5680 H   0  0  0  0  0  0  0  0  0  0  0  0
   42.9040   36.3160   38.0550 H   0  0  0  0  0  0  0  0  0  0  0  0
   43.1860   34.8290   40.3240 C   0  0  0  0  0  0  0  0  0  0  0  0
   44.2590   34.0080   40.1650 C   0  0  0  0  0  0  0  0  0  0  0  0
   45.3470   33.9770   41.0400 C   0  0  0  0  0  0  0  0  0  0  0  0
   45.3330   34.8030   42.0980 N   0  0  0  0  0  0  0  0  0  0  0  0
   44.2700   35.6210   42.2630 C   0  0  0  0  0  0  0  0  0  0  0  0
   43.2250   35.6380   41.4070 N   0  0  0  0  0  0  0  0  0  0  0  0
   44.2820   33.3330   39.3090 H   0  0  0  0  0  0  0  0  0  0  0  0
   46.1730   33.3070   40.8640 H   0  0  0  0  0  0  0  0  0  0  0  0
   44.1260   36.3450   43.0800 H   0  0  0  0  0  0  0  0  0  0  0  0
  1  7  1  0  0  0  0
  2 27  1  0  0  0  0
  2  1  2  0  0  0  0
  3  2  1  0  0  0  0
  4  3  2  0  0  0  0
  4  5  1  0  0  0  0
  5  6  2  0  0  0  0
  6  1  1  0  0  0  0
  8  3  1  0  0  0  0
  9  5  1  0  0  0  0
  9 10  1  0  0  0  0
 11  9  1  0  0  0  0
 12 13  1  0  0  0  0
 12  9  1  0  0  0  0
 14 12  1  0  0  0  0
 15 26  1  0  0  0  0
 15 12  1  0  0  0  0
 16 15  2  0  0  0  0
 17 18  2  0  0  0  0
 17 16  1  0  0  0  0
 18 19  1  0  0  0  0
 19 20  2  0  0  0  0
 19 26  1  0  0  0  0
 20 21  1  0  0  0  0
 21 22  1  0  0  0  0
 21 23  2  0  0  0  0
 23 24  1  0  0  0  0
 25 23  1  0  0  0  0
 26 25  2  0  0  0  0
 28 27  1  0  0  0  0
 29 34  1  0  0  0  0
 29 28  2  0  0  0  0
 30 29  1  0  0  0  0
 31 30  2  0  0  0  0
 31 32  1  0  0  0  0
 32 33  2  0  0  0  0
 33 28  1  0  0  0  0
 33 38  1  0  0  0  0
 35 30  1  0  0  0  0
 36 31  1  0  0  0  0
 37 32  1  0  0  0  0
 38 43  1  0  0  0  0
 39 38  2  0  0  0  0
 39 40  1  0  0  0  0
 40 41  2  0  0  0  0
 41 42  1  0  0  0  0
 42 46  1  0  0  0  0
 43 42  2  0  0  0  0
 44 39  1  0  0  0  0
 45 40  1  0  0  0  0
M  END
>  <minimizedAffinity>
-5.52645111

>  <minimizedRMSD>
2.24615979

$$$$
