
     RDKit          3D

 28 30  0  0  0  0  0  0  0  0999 V2000
   44.5072   36.0007   44.5249 C   0  0  0  0  0  0  0  0  0  0  0  0
   45.2101   35.8759   43.3177 C   0  0  0  0  0  0  0  0  0  0  0  0
   46.1257   34.8169   43.1774 C   0  0  0  0  0  0  0  0  0  0  0  0
   46.2958   33.9510   44.2194 N   0  0  0  0  0  0  0  0  0  0  0  0
   45.5874   34.1106   45.3809 C   0  0  0  0  0  0  0  0  0  0  0  0
   44.7208   35.1157   45.5102 N   0  0  0  0  0  0  0  0  0  0  0  0
   45.8714   33.1010   46.4234 C   0  0  0  0  0  0  0  0  0  0  0  0
   46.5046   31.6082   45.5911 S   0  0  0  0  0  0  0  0  0  0  0  0
   43.8150   36.8228   44.5980 H   0  0  0  0  0  0  0  0  0  0  0  0
   45.1184   36.5248   42.4633 H   0  0  0  0  0  0  0  0  0  0  0  0
   46.7023   34.6471   42.2939 H   0  0  0  0  0  0  0  0  0  0  0  0
   46.6038   33.4738   47.1749 H   0  0  0  0  0  0  0  0  0  0  0  0
   44.9391   32.8868   46.9753 H   0  0  0  0  0  0  0  0  0  0  0  0
   45.2011   30.9034   44.5967 C   0  0  0  0  0  0  0  0  0  0  0  0
   44.3724   31.5952   43.7770 N   0  0  0  0  0  0  0  0  0  0  0  0
   43.4215   30.9446   43.0791 C   0  0  0  0  0  0  0  0  0  0  0  0
   43.2627   29.5964   43.1707 N   0  0  0  0  0  0  0  0  0  0  0  0
   44.0675   28.8514   43.9793 C   0  0  0  0  0  0  0  0  0  0  0  0
   43.8675   27.4880   44.0404 C   0  0  0  0  0  0  0  0  0  0  0  0
   44.7096   26.7527   44.8803 C   0  0  0  0  0  0  0  0  0  0  0  0
   44.6501   25.6836   45.0113 H   0  0  0  0  0  0  0  0  0  0  0  0
   45.6895   27.3908   45.6050 C   0  0  0  0  0  0  0  0  0  0  0  0
   46.3722   26.8556   46.2754 H   0  0  0  0  0  0  0  0  0  0  0  0
   45.8391   28.7596   45.5004 C   0  0  0  0  0  0  0  0  0  0  0  0
   45.0325   29.5381   44.6832 C   0  0  0  0  0  0  0  0  0  0  0  0
   42.7620   31.5281   42.4208 H   0  0  0  0  0  0  0  0  0  0  0  0
   43.1060   26.9643   43.4834 H   0  0  0  0  0  0  0  0  0  0  0  0
   46.6124   29.2435   46.0767 H   0  0  0  0  0  0  0  0  0  0  0  0
  1  6  2  0
  2  1  1  0
  3  2  2  0
  3  4  1  0
  4  5  2  0
  5  6  1  0
  5  7  1  0
  8  7  1  0
  1  9  1  0
  2 10  1  0
  3 11  1  0
  7 12  1  0
  7 13  1  0
 14 15  2  0
 15 16  1  0
 16 17  2  0
 17 18  1  0
 18 19  2  0
 19 20  1  0
 20 21  1  0
 20 22  2  0
 22 23  1  0
 22 24  1  0
 24 25  2  0
 25 14  1  0
 25 18  1  0
 16 26  1  0
 19 27  1  0
 24 28  1  0
  8 14  1  0
M  ISO  7   9  14  10  14  11  14  12   8  13   8  21  16  23  16
M  END
>  <DihAtoms>  (1) 
6,7,13,14

>  <DihDeg>  (1) 
0.10962892898769254

$$$$
