
 OpenBabel03242519263D

 43 47  0  0  0  0  0  0  0  0999 V2000
   37.2060   28.2380   41.8440 C   0  0  0  0  0  0  0  0  0  0  0  0
   35.8890   28.3270   41.3880 C   0  0  0  0  0  0  0  0  0  0  0  0
   35.4880   29.4170   40.6020 C   0  0  0  0  0  0  0  0  0  0  0  0
   36.4550   30.3490   40.3290 N   0  0  0  0  0  0  0  0  0  0  0  0
   37.7400   30.2350   40.7900 C   0  0  0  0  0  0  0  0  0  0  0  0
   38.0870   29.1920   41.5310 N   0  0  0  0  0  0  0  0  0  0  0  0
   35.0590   27.6540   41.5460 H   0  0  0  0  0  0  0  0  0  0  0  0
   34.4910   29.5590   40.2110 H   0  0  0  0  0  0  0  0  0  0  0  0
   38.6620   31.3030   40.4180 C   0  0  0  0  0  0  0  0  0  0  0  0
   38.1650   32.5780   40.5230 N   0  0  0  0  0  0  0  0  0  0  0  0
   39.1460   33.4320   40.1410 C   0  0  0  0  0  0  0  0  0  0  0  0
   40.2260   32.6760   39.8070 N   0  0  0  0  0  0  0  0  0  0  0  0
   39.9270   31.3960   39.9770 N   0  0  0  0  0  0  0  0  0  0  0  0
   39.0000   34.5210   40.1350 H   0  0  0  0  0  0  0  0  0  0  0  0
   41.4570   33.2260   39.3530 C   0  0  0  0  0  0  0  0  0  0  0  0
   41.4730   33.5710   38.0520 N   0  0  0  0  0  0  0  0  0  0  0  0
   42.5780   34.1130   37.4600 C   0  0  0  0  0  3  0  0  0  0  0  0
   43.7150   34.3210   38.1870 N   0  0  0  0  0  0  0  0  0  0  0  0
   43.7230   33.9830   39.4920 C   0  0  0  0  0  0  0  0  0  0  0  0
   44.8390   34.1660   40.2900 C   0  0  0  0  0  3  0  0  0  0  0  0
   44.8280   33.8090   41.6410 C   0  0  0  0  0  0  0  0  0  0  0  0
   45.7570   34.0010   42.1520 H   0  0  0  0  0  0  0  0  0  0  0  0
   43.6770   33.2670   42.1720 C   0  0  0  0  0  0  0  0  0  0  0  0
   43.7510   33.0240   43.2030 H   0  0  0  0  0  0  0  0  0  0  0  0
   42.5420   33.0690   41.4070 C   0  0  0  0  0  3  0  0  0  0  0  0
   42.6100   33.4390   40.0820 C   0  0  0  0  0  0  0  0  0  0  0  0
   37.5120   27.0510   42.6670 C   0  0  0  0  0  0  0  0  0  0  0  0
   38.4580   27.3090   43.7520 C   0  0  0  0  0  0  0  0  0  0  0  0
   39.7810   26.6550   43.5780 C   0  0  0  0  0  0  0  0  0  0  0  0
   39.6620   25.1540   43.3470 C   0  0  0  0  0  0  0  0  0  0  0  0
   38.5100   24.7640   42.4530 C   0  0  0  0  0  0  0  0  0  0  0  0
   37.9730   25.9530   41.6950 C   0  0  0  0  0  0  0  0  0  0  0  0
   36.5160   26.6620   43.0310 H   0  0  0  0  0  0  0  0  0  0  0  0
   38.6440   28.3760   43.9890 H   0  0  0  0  0  0  0  0  0  0  0  0
   38.0280   26.8920   44.6990 H   0  0  0  0  0  0  0  0  0  0  0  0
   40.3430   26.7490   44.5510 H   0  0  0  0  0  0  0  0  0  0  0  0
   40.4190   27.0370   42.7660 H   0  0  0  0  0  0  0  0  0  0  0  0
   39.5580   24.5910   44.3120 H   0  0  0  0  0  0  0  0  0  0  0  0
   40.6180   24.7920   42.9170 H   0  0  0  0  0  0  0  0  0  0  0  0
   38.8870   24.0590   41.6710 H   0  0  0  0  0  0  0  0  0  0  0  0
   37.6960   24.2300   42.9670 H   0  0  0  0  0  0  0  0  0  0  0  0
   37.0990   25.6260   41.1210 H   0  0  0  0  0  0  0  0  0  0  0  0
   38.7680   26.3990   41.0690 H   0  0  0  0  0  0  0  0  0  0  0  0
  1 27  1  0  0  0  0
  2  7  1  0  0  0  0
  2  1  2  0  0  0  0
  3  2  1  0  0  0  0
  4  3  2  0  0  0  0
  4  5  1  0  0  0  0
  5  6  2  0  0  0  0
  6  1  1  0  0  0  0
  8  3  1  0  0  0  0
  9 10  1  0  0  0  0
  9  5  1  0  0  0  0
 11 10  2  0  0  0  0
 12 13  1  0  0  0  0
 12 11  1  0  0  0  0
 13  9  2  0  0  0  0
 14 11  1  0  0  0  0
 15 12  1  0  0  0  0
 15 26  1  0  0  0  0
 16 15  2  0  0  0  0
 17 16  1  0  0  0  0
 17 18  2  0  0  0  0
 18 19  1  0  0  0  0
 19 26  2  0  0  0  0
 19 20  1  0  0  0  0
 20 21  2  0  0  0  0
 21 22  1  0  0  0  0
 21 23  1  0  0  0  0
 23 24  1  0  0  0  0
 25 23  2  0  0  0  0
 26 25  1  0  0  0  0
 27 33  1  0  0  0  0
 27 28  1  0  0  0  0
 28 34  1  0  0  0  0
 28 35  1  0  0  0  0
 29 28  1  0  0  0  0
 29 36  1  0  0  0  0
 30 29  1  0  0  0  0
 30 38  1  0  0  0  0
 31 41  1  0  0  0  0
 31 30  1  0  0  0  0
 32 31  1  0  0  0  0
 32 27  1  0  0  0  0
 37 29  1  0  0  0  0
 39 30  1  0  0  0  0
 40 31  1  0  0  0  0
 42 32  1  0  0  0  0
 43 32  1  0  0  0  0
M  END
>  <minimizedAffinity>
-6.97412348

$$$$

 OpenBabel03242519263D

 43 47  0  0  0  0  0  0  0  0999 V2000
   32.7980   29.1880   36.9870 C   0  0  0  0  0  0  0  0  0  0  0  0
   33.4030   28.9830   35.7450 C   0  0  0  0  0  0  0  0  0  0  0  0
   34.7660   28.6580   35.6720 C   0  0  0  0  0  0  0  0  0  0  0  0
   35.4270   28.5620   36.8680 N   0  0  0  0  0  0  0  0  0  0  0  0
   34.8060   28.7680   38.0720 C   0  0  0  0  0  0  0  0  0  0  0  0
   33.5160   29.0740   38.1070 N   0  0  0  0  0  0  0  0  0  0  0  0
   32.9770   29.0350   34.7540 H   0  0  0  0  0  0  0  0  0  0  0  0
   35.3070   28.4850   34.7530 H   0  0  0  0  0  0  0  0  0  0  0  0
   35.6350   28.6300   39.2640 C   0  0  0  0  0  0  0  0  0  0  0  0
   35.0600   29.0480   40.4380 N   0  0  0  0  0  0  0  0  0  0  0  0
   35.9620   28.8490   41.4300 C   0  0  0  0  0  0  0  0  0  0  0  0
   37.0750   28.3160   40.8560 N   0  0  0  0  0  0  0  0  0  0  0  0
   36.8690   28.1870   39.5530 N   0  0  0  0  0  0  0  0  0  0  0  0
   35.7440   29.1050   42.4760 H   0  0  0  0  0  0  0  0  0  0  0  0
   38.2430   27.9700   41.5890 C   0  0  0  0  0  0  0  0  0  0  0  0
   39.0570   29.0050   41.8710 N   0  0  0  0  0  0  0  0  0  0  0  0
   40.2210   28.8430   42.5670 C   0  0  0  0  0  3  0  0  0  0  0  0
   40.5950   27.6040   43.0020 N   0  0  0  0  0  0  0  0  0  0  0  0
   39.7970   26.5520   42.7310 C   0  0  0  0  0  0  0  0  0  0  0  0
   40.1110   25.2670   43.1400 C   0  0  0  0  0  3  0  0  0  0  0  0
   39.2720   24.1890   42.8510 C   0  0  0  0  0  0  0  0  0  0  0  0
   39.6280   23.2440   43.2230 H   0  0  0  0  0  0  0  0  0  0  0  0
   38.1120   24.4270   42.1430 C   0  0  0  0  0  0  0  0  0  0  0  0
   37.5300   23.5570   41.9640 H   0  0  0  0  0  0  0  0  0  0  0  0
   37.7620   25.6960   41.7170 C   0  0  0  0  0  3  0  0  0  0  0  0
   38.6280   26.7200   42.0310 C   0  0  0  0  0  0  0  0  0  0  0  0
   31.3620   29.5300   36.9430 C   0  0  0  0  0  0  0  0  0  0  0  0
   31.0100   30.4740   35.8840 C   0  0  0  0  0  0  0  0  0  0  0  0
   30.5900   31.8130   36.3730 C   0  0  0  0  0  0  0  0  0  0  0  0
   29.4570   31.7320   37.3880 C   0  0  0  0  0  0  0  0  0  0  0  0
   29.5890   30.5870   38.3610 C   0  0  0  0  0  0  0  0  0  0  0  0
   30.9850   30.0140   38.3530 C   0  0  0  0  0  0  0  0  0  0  0  0
   30.8130   28.5460   36.8610 H   0  0  0  0  0  0  0  0  0  0  0  0
   31.7780   30.6330   35.1010 H   0  0  0  0  0  0  0  0  0  0  0  0
   30.1320   30.0600   35.3230 H   0  0  0  0  0  0  0  0  0  0  0  0
   30.1520   32.3770   35.5020 H   0  0  0  0  0  0  0  0  0  0  0  0
   31.3700   32.4360   36.8390 H   0  0  0  0  0  0  0  0  0  0  0  0
   28.4560   31.6480   36.8880 H   0  0  0  0  0  0  0  0  0  0  0  0
   29.4120   32.6950   37.9360 H   0  0  0  0  0  0  0  0  0  0  0  0
   29.4350   30.9780   39.3970 H   0  0  0  0  0  0  0  0  0  0  0  0
   28.8410   29.7900   38.2300 H   0  0  0  0  0  0  0  0  0  0  0  0
   31.0030   29.1450   39.0210 H   0  0  0  0  0  0  0  0  0  0  0  0
   31.7210   30.7940   38.6250 H   0  0  0  0  0  0  0  0  0  0  0  0
  1  6  1  0  0  0  0
  2  1  2  0  0  0  0
  3  2  1  0  0  0  0
  3  4  2  0  0  0  0
  4  5  1  0  0  0  0
  5  6  2  0  0  0  0
  5  9  1  0  0  0  0
  7  2  1  0  0  0  0
  8  3  1  0  0  0  0
  9 13  2  0  0  0  0
  9 10  1  0  0  0  0
 10 11  2  0  0  0  0
 11 14  1  0  0  0  0
 12 11  1  0  0  0  0
 12 15  1  0  0  0  0
 13 12  1  0  0  0  0
 15 16  2  0  0  0  0
 15 26  1  0  0  0  0
 16 17  1  0  0  0  0
 17 18  2  0  0  0  0
 19 18  1  0  0  0  0
 19 20  1  0  0  0  0
 21 20  2  0  0  0  0
 21 22  1  0  0  0  0
 23 21  1  0  0  0  0
 24 23  1  0  0  0  0
 25 26  1  0  0  0  0
 25 23  2  0  0  0  0
 26 19  2  0  0  0  0
 27  1  1  0  0  0  0
 27 32  1  0  0  0  0
 28 29  1  0  0  0  0
 28 27  1  0  0  0  0
 29 37  1  0  0  0  0
 29 30  1  0  0  0  0
 30 39  1  0  0  0  0
 30 31  1  0  0  0  0
 31 40  1  0  0  0  0
 32 31  1  0  0  0  0
 32 43  1  0  0  0  0
 32 42  1  0  0  0  0
 33 27  1  0  0  0  0
 34 28  1  0  0  0  0
 35 28  1  0  0  0  0
 36 29  1  0  0  0  0
 38 30  1  0  0  0  0
 41 31  1  0  0  0  0
M  END
>  <minimizedAffinity>
-6.78152704

$$$$

 OpenBabel03242519263D

 43 47  0  0  0  0  0  0  0  0999 V2000
   40.1040   33.1470   40.3610 C   0  0  0  0  0  0  0  0  0  0  0  0
   38.9720   33.8470   39.9360 C   0  0  0  0  0  0  0  0  0  0  0  0
   37.7020   33.2610   40.0420 C   0  0  0  0  0  0  0  0  0  0  0  0
   37.6640   31.9980   40.5730 N   0  0  0  0  0  0  0  0  0  0  0  0
   38.7930   31.3370   40.9810 C   0  0  0  0  0  0  0  0  0  0  0  0
   39.9780   31.9190   40.8680 N   0  0  0  0  0  0  0  0  0  0  0  0
   38.8930   34.8350   39.5070 H   0  0  0  0  0  0  0  0  0  0  0  0
   36.7800   33.7340   39.7370 H   0  0  0  0  0  0  0  0  0  0  0  0
   38.6000   29.9980   41.5290 C   0  0  0  0  0  0  0  0  0  0  0  0
   37.7950   29.9230   42.6380 N   0  0  0  0  0  0  0  0  0  0  0  0
   37.7290   28.6200   43.0090 C   0  0  0  0  0  0  0  0  0  0  0  0
   38.4900   27.9160   42.1280 N   0  0  0  0  0  0  0  0  0  0  0  0
   39.0100   28.7520   41.2410 N   0  0  0  0  0  0  0  0  0  0  0  0
   37.1420   28.2910   43.8770 H   0  0  0  0  0  0  0  0  0  0  0  0
   38.6640   26.5070   42.1970 C   0  0  0  0  0  0  0  0  0  0  0  0
   39.5770   26.0950   43.0970 N   0  0  0  0  0  0  0  0  0  0  0  0
   39.8630   24.7730   43.2870 C   0  0  0  0  0  3  0  0  0  0  0  0
   39.2190   23.8180   42.5540 N   0  0  0  0  0  0  0  0  0  0  0  0
   38.3010   24.2060   41.6460 C   0  0  0  0  0  0  0  0  0  0  0  0
   37.6080   23.2940   40.8680 C   0  0  0  0  0  3  0  0  0  0  0  0
   36.6600   23.7140   39.9320 C   0  0  0  0  0  0  0  0  0  0  0  0
   36.1920   22.9090   39.3900 H   0  0  0  0  0  0  0  0  0  0  0  0
   36.4230   25.0650   39.7940 C   0  0  0  0  0  0  0  0  0  0  0  0
   35.6890   25.3010   39.0620 H   0  0  0  0  0  0  0  0  0  0  0  0
   37.0940   26.0080   40.5520 C   0  0  0  0  0  3  0  0  0  0  0  0
   38.0160   25.5350   41.4590 C   0  0  0  0  0  0  0  0  0  0  0  0
   41.3860   33.8600   40.1970 C   0  0  0  0  0  0  0  0  0  0  0  0
   41.3850   34.8440   39.1150 C   0  0  0  0  0  0  0  0  0  0  0  0
   42.2470   34.4830   37.9600 C   0  0  0  0  0  0  0  0  0  0  0  0
   43.6810   34.1800   38.3770 C   0  0  0  0  0  0  0  0  0  0  0  0
   43.7900   33.4020   39.6650 C   0  0  0  0  0  0  0  0  0  0  0  0
   42.4700   32.7800   40.0480 C   0  0  0  0  0  0  0  0  0  0  0  0
   41.6200   34.3120   41.2060 H   0  0  0  0  0  0  0  0  0  0  0  0
   40.3890   35.1190   38.7120 H   0  0  0  0  0  0  0  0  0  0  0  0
   41.7920   35.8070   39.5170 H   0  0  0  0  0  0  0  0  0  0  0  0
   42.3300   35.3890   37.2950 H   0  0  0  0  0  0  0  0  0  0  0  0
   41.9220   33.6270   37.3480 H   0  0  0  0  0  0  0  0  0  0  0  0
   44.2900   35.1160   38.4840 H   0  0  0  0  0  0  0  0  0  0  0  0
   44.1720   33.6240   37.5520 H   0  0  0  0  0  0  0  0  0  0  0  0
   44.4880   32.5430   39.5050 H   0  0  0  0  0  0  0  0  0  0  0  0
   44.2100   33.9740   40.5070 H   0  0  0  0  0  0  0  0  0  0  0  0
   42.5910   32.2910   41.0210 H   0  0  0  0  0  0  0  0  0  0  0  0
   42.1240   32.0940   39.2510 H   0  0  0  0  0  0  0  0  0  0  0  0
  1  6  1  0  0  0  0
  2  3  1  0  0  0  0
  2  1  2  0  0  0  0
  3  4  2  0  0  0  0
  4  5  1  0  0  0  0
  5  9  1  0  0  0  0
  6  5  2  0  0  0  0
  7  2  1  0  0  0  0
  8  3  1  0  0  0  0
  9 10  1  0  0  0  0
 10 11  2  0  0  0  0
 11 14  1  0  0  0  0
 12 15  1  0  0  0  0
 12 11  1  0  0  0  0
 13  9  2  0  0  0  0
 13 12  1  0  0  0  0
 15 16  1  0  0  0  0
 16 17  2  0  0  0  0
 18 17  1  0  0  0  0
 19 18  2  0  0  0  0
 20 19  1  0  0  0  0
 21 20  2  0  0  0  0
 22 21  1  0  0  0  0
 23 21  1  0  0  0  0
 23 25  2  0  0  0  0
 24 23  1  0  0  0  0
 25 26  1  0  0  0  0
 26 19  1  0  0  0  0
 26 15  2  0  0  0  0
 27  1  1  0  0  0  0
 27 33  1  0  0  0  0
 28 35  1  0  0  0  0
 28 27  1  0  0  0  0
 29 30  1  0  0  0  0
 29 28  1  0  0  0  0
 30 38  1  0  0  0  0
 30 31  1  0  0  0  0
 31 32  1  0  0  0  0
 31 41  1  0  0  0  0
 32 27  1  0  0  0  0
 32 42  1  0  0  0  0
 34 28  1  0  0  0  0
 36 29  1  0  0  0  0
 37 29  1  0  0  0  0
 39 30  1  0  0  0  0
 40 31  1  0  0  0  0
 43 32  1  0  0  0  0
M  END
>  <minimizedAffinity>
-6.62575006

$$$$

 OpenBabel03242519263D

 43 47  0  0  0  0  0  0  0  0999 V2000
   40.7670   33.8260   39.1460 C   0  0  0  0  0  0  0  0  0  0  0  0
   40.4190   35.0400   39.7450 C   0  0  0  0  0  0  0  0  0  0  0  0
   39.3420   35.0980   40.6410 C   0  0  0  0  0  0  0  0  0  0  0  0
   38.6860   33.9170   40.8720 N   0  0  0  0  0  0  0  0  0  0  0  0
   39.0510   32.7420   40.2700 C   0  0  0  0  0  0  0  0  0  0  0  0
   40.0740   32.7200   39.4270 N   0  0  0  0  0  0  0  0  0  0  0  0
   40.8650   36.0170   39.6310 H   0  0  0  0  0  0  0  0  0  0  0  0
   39.0100   35.9940   41.1450 H   0  0  0  0  0  0  0  0  0  0  0  0
   38.2630   31.5630   40.6130 C   0  0  0  0  0  0  0  0  0  0  0  0
   36.9040   31.7490   40.6510 N   0  0  0  0  0  0  0  0  0  0  0  0
   36.3370   30.5640   40.9830 C   0  0  0  0  0  0  0  0  0  0  0  0
   37.3480   29.6690   41.1450 N   0  0  0  0  0  0  0  0  0  0  0  0
   38.5040   30.2780   40.9200 N   0  0  0  0  0  0  0  0  0  0  0  0
   35.2490   30.4460   41.0800 H   0  0  0  0  0  0  0  0  0  0  0  0
   37.1400   28.3080   41.4990 C   0  0  0  0  0  0  0  0  0  0  0  0
   36.9300   28.0940   42.8120 N   0  0  0  0  0  0  0  0  0  0  0  0
   36.7140   26.8430   43.3170 C   0  0  0  0  0  3  0  0  0  0  0  0
   36.7060   25.7590   42.4870 N   0  0  0  0  0  0  0  0  0  0  0  0
   36.9140   25.9480   41.1690 C   0  0  0  0  0  0  0  0  0  0  0  0
   36.9190   24.8960   40.2690 C   0  0  0  0  0  3  0  0  0  0  0  0
   37.1370   25.1110   38.9060 C   0  0  0  0  0  0  0  0  0  0  0  0
   37.1170   24.2130   38.3110 H   0  0  0  0  0  0  0  0  0  0  0  0
   37.3480   26.4010   38.4660 C   0  0  0  0  0  0  0  0  0  0  0  0
   37.5060   26.4800   37.4180 H   0  0  0  0  0  0  0  0  0  0  0  0
   37.3510   27.4790   39.3340 C   0  0  0  0  0  3  0  0  0  0  0  0
   37.1310   27.2070   40.6660 C   0  0  0  0  0  0  0  0  0  0  0  0
   41.9130   33.8850   38.2170 C   0  0  0  0  0  0  0  0  0  0  0  0
   41.9640   32.7750   37.2670 C   0  0  0  0  0  0  0  0  0  0  0  0
   43.0950   31.8360   37.4840 C   0  0  0  0  0  0  0  0  0  0  0  0
   44.4420   32.5460   37.5170 C   0  0  0  0  0  0  0  0  0  0  0  0
   44.4170   33.8680   38.2430 C   0  0  0  0  0  0  0  0  0  0  0  0
   43.1740   34.0120   39.0870 C   0  0  0  0  0  0  0  0  0  0  0  0
   41.8520   34.8950   37.7150 H   0  0  0  0  0  0  0  0  0  0  0  0
   41.0400   32.1670   37.1810 H   0  0  0  0  0  0  0  0  0  0  0  0
   42.1060   33.1990   36.2390 H   0  0  0  0  0  0  0  0  0  0  0  0
   43.1540   31.1550   36.5880 H   0  0  0  0  0  0  0  0  0  0  0  0
   43.0560   31.2170   38.3940 H   0  0  0  0  0  0  0  0  0  0  0  0
   44.8440   32.7240   36.4850 H   0  0  0  0  0  0  0  0  0  0  0  0
   45.1810   31.8660   37.9880 H   0  0  0  0  0  0  0  0  0  0  0  0
   45.2710   33.8960   38.9650 H   0  0  0  0  0  0  0  0  0  0  0  0
   44.5490   34.7470   37.5920 H   0  0  0  0  0  0  0  0  0  0  0  0
   43.1760   35.0140   39.5300 H   0  0  0  0  0  0  0  0  0  0  0  0
   43.1240   33.1990   39.8350 H   0  0  0  0  0  0  0  0  0  0  0  0
  1  6  2  0  0  0  0
  1  2  1  0  0  0  0
  2  3  2  0  0  0  0
  3  4  1  0  0  0  0
  3  8  1  0  0  0  0
  5  9  1  0  0  0  0
  5  4  2  0  0  0  0
  6  5  1  0  0  0  0
  7  2  1  0  0  0  0
  9 10  1  0  0  0  0
  9 13  2  0  0  0  0
 10 11  2  0  0  0  0
 11 14  1  0  0  0  0
 11 12  1  0  0  0  0
 12 15  1  0  0  0  0
 13 12  1  0  0  0  0
 15 16  1  0  0  0  0
 16 17  2  0  0  0  0
 18 17  1  0  0  0  0
 19 18  2  0  0  0  0
 20 19  1  0  0  0  0
 21 20  2  0  0  0  0
 22 21  1  0  0  0  0
 23 21  1  0  0  0  0
 23 25  2  0  0  0  0
 24 23  1  0  0  0  0
 25 26  1  0  0  0  0
 26 19  1  0  0  0  0
 26 15  2  0  0  0  0
 27 32  1  0  0  0  0
 27  1  1  0  0  0  0
 28 29  1  0  0  0  0
 28 27  1  0  0  0  0
 29 30  1  0  0  0  0
 29 37  1  0  0  0  0
 30 39  1  0  0  0  0
 30 31  1  0  0  0  0
 31 40  1  0  0  0  0
 31 32  1  0  0  0  0
 32 42  1  0  0  0  0
 32 43  1  0  0  0  0
 33 27  1  0  0  0  0
 34 28  1  0  0  0  0
 35 28  1  0  0  0  0
 36 29  1  0  0  0  0
 38 30  1  0  0  0  0
 41 31  1  0  0  0  0
M  END
>  <minimizedAffinity>
-6.60443354

$$$$

 OpenBabel03242519263D

 43 47  0  0  0  0  0  0  0  0999 V2000
   37.2130   27.1410   41.8940 C   0  0  0  0  0  0  0  0  0  0  0  0
   36.9620   27.2640   43.2620 C   0  0  0  0  0  0  0  0  0  0  0  0
   37.3240   28.4360   43.9420 C   0  0  0  0  0  0  0  0  0  0  0  0
   37.9210   29.4110   43.1850 N   0  0  0  0  0  0  0  0  0  0  0  0
   38.1550   29.2610   41.8430 C   0  0  0  0  0  0  0  0  0  0  0  0
   37.8000   28.1410   41.2300 N   0  0  0  0  0  0  0  0  0  0  0  0
   36.5030   26.5630   43.9440 H   0  0  0  0  0  0  0  0  0  0  0  0
   37.1650   28.6100   44.9960 H   0  0  0  0  0  0  0  0  0  0  0  0
   38.7960   30.3830   41.1660 C   0  0  0  0  0  0  0  0  0  0  0  0
   38.0370   31.5210   41.0540 N   0  0  0  0  0  0  0  0  0  0  0  0
   38.7820   32.4490   40.4050 C   0  0  0  0  0  0  0  0  0  0  0  0
   39.9820   31.8730   40.1260 N   0  0  0  0  0  0  0  0  0  0  0  0
   39.9830   30.6310   40.5870 N   0  0  0  0  0  0  0  0  0  0  0  0
   38.3980   33.4550   40.1890 H   0  0  0  0  0  0  0  0  0  0  0  0
   41.0330   32.5460   39.4450 C   0  0  0  0  0  0  0  0  0  0  0  0
   40.9010   32.5860   38.1060 N   0  0  0  0  0  0  0  0  0  0  0  0
   41.8240   33.1950   37.3050 C   0  0  0  0  0  3  0  0  0  0  0  0
   42.9250   33.7880   37.8520 N   0  0  0  0  0  0  0  0  0  0  0  0
   43.0800   33.7610   39.1910 C   0  0  0  0  0  0  0  0  0  0  0  0
   44.1700   34.3410   39.8160 C   0  0  0  0  0  3  0  0  0  0  0  0
   44.3140   34.3020   41.2050 C   0  0  0  0  0  0  0  0  0  0  0  0
   45.2040   34.7890   41.5680 H   0  0  0  0  0  0  0  0  0  0  0  0
   43.3420   33.6700   41.9520 C   0  0  0  0  0  0  0  0  0  0  0  0
   43.5250   33.6840   42.9980 H   0  0  0  0  0  0  0  0  0  0  0  0
   42.2380   33.0780   41.3650 C   0  0  0  0  0  3  0  0  0  0  0  0
   42.1490   33.1480   39.9920 C   0  0  0  0  0  0  0  0  0  0  0  0
   36.7940   25.8630   41.2860 C   0  0  0  0  0  0  0  0  0  0  0  0
   37.0260   24.6970   42.1370 C   0  0  0  0  0  0  0  0  0  0  0  0
   38.0800   23.7760   41.6380 C   0  0  0  0  0  0  0  0  0  0  0  0
   37.8280   23.3240   40.2060 C   0  0  0  0  0  0  0  0  0  0  0  0
   37.3000   24.4140   39.3060 C   0  0  0  0  0  0  0  0  0  0  0  0
   37.4950   25.7790   39.9200 C   0  0  0  0  0  0  0  0  0  0  0  0
   35.7090   25.9970   41.0030 H   0  0  0  0  0  0  0  0  0  0  0  0
   37.2480   24.9110   43.2020 H   0  0  0  0  0  0  0  0  0  0  0  0
   36.0810   24.0960   42.1720 H   0  0  0  0  0  0  0  0  0  0  0  0
   38.0280   22.8300   42.2480 H   0  0  0  0  0  0  0  0  0  0  0  0
   39.1150   24.1510   41.6600 H   0  0  0  0  0  0  0  0  0  0  0  0
   37.1130   22.4610   40.1610 H   0  0  0  0  0  0  0  0  0  0  0  0
   38.7760   22.9190   39.7980 H   0  0  0  0  0  0  0  0  0  0  0  0
   37.9020   24.4230   38.3640 H   0  0  0  0  0  0  0  0  0  0  0  0
   36.2540   24.2760   38.9900 H   0  0  0  0  0  0  0  0  0  0  0  0
   37.0310   26.5200   39.2590 H   0  0  0  0  0  0  0  0  0  0  0  0
   38.5690   25.9660   40.1040 H   0  0  0  0  0  0  0  0  0  0  0  0
  1  2  1  0  0  0  0
  2  3  2  0  0  0  0
  2  7  1  0  0  0  0
  3  8  1  0  0  0  0
  4  3  1  0  0  0  0
  5  4  2  0  0  0  0
  6  5  1  0  0  0  0
  6  1  2  0  0  0  0
  9  5  1  0  0  0  0
 10  9  1  0  0  0  0
 11 10  2  0  0  0  0
 12 11  1  0  0  0  0
 12 13  1  0  0  0  0
 13  9  2  0  0  0  0
 14 11  1  0  0  0  0
 15 26  1  0  0  0  0
 15 12  1  0  0  0  0
 16 15  2  0  0  0  0
 17 18  2  0  0  0  0
 17 16  1  0  0  0  0
 18 19  1  0  0  0  0
 19 20  2  0  0  0  0
 19 26  1  0  0  0  0
 20 21  1  0  0  0  0
 21 22  1  0  0  0  0
 21 23  2  0  0  0  0
 23 24  1  0  0  0  0
 25 23  1  0  0  0  0
 26 25  2  0  0  0  0
 27  1  1  0  0  0  0
 27 28  1  0  0  0  0
 28 35  1  0  0  0  0
 28 34  1  0  0  0  0
 29 37  1  0  0  0  0
 29 28  1  0  0  0  0
 29 36  1  0  0  0  0
 30 29  1  0  0  0  0
 31 32  1  0  0  0  0
 31 30  1  0  0  0  0
 32 43  1  0  0  0  0
 32 27  1  0  0  0  0
 33 27  1  0  0  0  0
 38 30  1  0  0  0  0
 39 30  1  0  0  0  0
 40 31  1  0  0  0  0
 41 31  1  0  0  0  0
 42 32  1  0  0  0  0
M  END
>  <minimizedAffinity>
-6.46332359

$$$$

 OpenBabel03242519263D

 43 47  0  0  0  0  0  0  0  0999 V2000
   32.4020   29.3630   36.4780 C   0  0  0  0  0  0  0  0  0  0  0  0
   32.6300   29.0740   35.1310 C   0  0  0  0  0  0  0  0  0  0  0  0
   33.9260   28.7750   34.6860 C   0  0  0  0  0  0  0  0  0  0  0  0
   34.9090   28.7900   35.6400 N   0  0  0  0  0  0  0  0  0  0  0  0
   34.6540   29.0790   36.9550 C   0  0  0  0  0  0  0  0  0  0  0  0
   33.4180   29.3570   37.3450 N   0  0  0  0  0  0  0  0  0  0  0  0
   31.9330   29.0360   34.3070 H   0  0  0  0  0  0  0  0  0  0  0  0
   34.1860   28.5400   33.6630 H   0  0  0  0  0  0  0  0  0  0  0  0
   35.7990   29.0550   37.8600 C   0  0  0  0  0  0  0  0  0  0  0  0
   36.4610   30.2480   38.0080 N   0  0  0  0  0  0  0  0  0  0  0  0
   37.4850   30.0430   38.8740 C   0  0  0  0  0  0  0  0  0  0  0  0
   37.4390   28.7350   39.2430 N   0  0  0  0  0  0  0  0  0  0  0  0
   36.4220   28.1480   38.6300 N   0  0  0  0  0  0  0  0  0  0  0  0
   38.1730   30.8490   39.1620 H   0  0  0  0  0  0  0  0  0  0  0  0
   38.3630   28.1450   40.1490 C   0  0  0  0  0  0  0  0  0  0  0  0
   39.5450   27.8030   39.6030 N   0  0  0  0  0  0  0  0  0  0  0  0
   40.5420   27.2260   40.3370 C   0  0  0  0  0  3  0  0  0  0  0  0
   40.3600   26.9750   41.6670 N   0  0  0  0  0  0  0  0  0  0  0  0
   39.1840   27.3080   42.2350 C   0  0  0  0  0  0  0  0  0  0  0  0
   38.9280   27.0840   43.5770 C   0  0  0  0  0  3  0  0  0  0  0  0
   37.7040   27.4360   44.1490 C   0  0  0  0  0  0  0  0  0  0  0  0
   37.6290   27.2100   45.2000 H   0  0  0  0  0  0  0  0  0  0  0  0
   36.7430   28.0160   43.3480 C   0  0  0  0  0  0  0  0  0  0  0  0
   35.8410   28.2530   43.8580 H   0  0  0  0  0  0  0  0  0  0  0  0
   36.9600   28.2560   42.0030 C   0  0  0  0  0  3  0  0  0  0  0  0
   38.1860   27.8890   41.4940 C   0  0  0  0  0  0  0  0  0  0  0  0
   31.0010   29.6680   36.8310 C   0  0  0  0  0  0  0  0  0  0  0  0
   30.4420   30.8100   36.1100 C   0  0  0  0  0  0  0  0  0  0  0  0
   30.1730   31.9990   36.9610 C   0  0  0  0  0  0  0  0  0  0  0  0
   29.2940   31.6680   38.1600 C   0  0  0  0  0  0  0  0  0  0  0  0
   29.6150   30.3420   38.8050 C   0  0  0  0  0  0  0  0  0  0  0  0
   30.9600   29.8230   38.3600 C   0  0  0  0  0  0  0  0  0  0  0  0
   30.4250   28.7110   36.6600 H   0  0  0  0  0  0  0  0  0  0  0  0
   31.0200   31.1570   35.2290 H   0  0  0  0  0  0  0  0  0  0  0  0
   29.4520   30.5050   35.6820 H   0  0  0  0  0  0  0  0  0  0  0  0
   29.5640   32.7270   36.3540 H   0  0  0  0  0  0  0  0  0  0  0  0
   31.0520   32.5260   37.3650 H   0  0  0  0  0  0  0  0  0  0  0  0
   28.2050   31.6680   37.8900 H   0  0  0  0  0  0  0  0  0  0  0  0
   29.3950   32.4870   38.9010 H   0  0  0  0  0  0  0  0  0  0  0  0
   29.7050   30.4940   39.9090 H   0  0  0  0  0  0  0  0  0  0  0  0
   28.8380   29.5730   38.6730 H   0  0  0  0  0  0  0  0  0  0  0  0
   31.1070   28.8310   38.8010 H   0  0  0  0  0  0  0  0  0  0  0  0
   31.7550   30.5440   38.6250 H   0  0  0  0  0  0  0  0  0  0  0  0
  1 27  1  0  0  0  0
  1  6  1  0  0  0  0
  2  1  2  0  0  0  0
  3  2  1  0  0  0  0
  3  4  2  0  0  0  0
  4  5  1  0  0  0  0
  5  6  2  0  0  0  0
  5  9  1  0  0  0  0
  7  2  1  0  0  0  0
  8  3  1  0  0  0  0
  9 10  1  0  0  0  0
  9 13  2  0  0  0  0
 10 11  2  0  0  0  0
 11 14  1  0  0  0  0
 11 12  1  0  0  0  0
 12 15  1  0  0  0  0
 13 12  1  0  0  0  0
 15 26  1  0  0  0  0
 16 15  2  0  0  0  0
 16 17  1  0  0  0  0
 17 18  2  0  0  0  0
 18 19  1  0  0  0  0
 19 20  1  0  0  0  0
 20 21  2  0  0  0  0
 21 22  1  0  0  0  0
 23 24  1  0  0  0  0
 23 21  1  0  0  0  0
 25 23  2  0  0  0  0
 26 25  1  0  0  0  0
 26 19  2  0  0  0  0
 27 32  1  0  0  0  0
 28 27  1  0  0  0  0
 28 29  1  0  0  0  0
 29 37  1  0  0  0  0
 29 30  1  0  0  0  0
 30 31  1  0  0  0  0
 30 39  1  0  0  0  0
 31 40  1  0  0  0  0
 32 43  1  0  0  0  0
 32 42  1  0  0  0  0
 32 31  1  0  0  0  0
 33 27  1  0  0  0  0
 34 28  1  0  0  0  0
 35 28  1  0  0  0  0
 36 29  1  0  0  0  0
 38 30  1  0  0  0  0
 41 31  1  0  0  0  0
M  END
>  <minimizedAffinity>
-6.39804602

$$$$

 OpenBabel03242519263D

 43 47  0  0  0  0  0  0  0  0999 V2000
   31.8840   29.3250   36.4820 C   0  0  0  0  0  0  0  0  0  0  0  0
   32.2550   29.0480   35.1640 C   0  0  0  0  0  0  0  0  0  0  0  0
   33.5370   28.5520   34.8830 C   0  0  0  0  0  0  0  0  0  0  0  0
   34.3610   28.3680   35.9630 N   0  0  0  0  0  0  0  0  0  0  0  0
   33.9680   28.6490   37.2450 C   0  0  0  0  0  0  0  0  0  0  0  0
   32.7500   29.1170   37.4770 N   0  0  0  0  0  0  0  0  0  0  0  0
   31.6880   29.1570   34.2510 H   0  0  0  0  0  0  0  0  0  0  0  0
   33.9000   28.3130   33.8940 H   0  0  0  0  0  0  0  0  0  0  0  0
   34.9510   28.4030   38.2950 C   0  0  0  0  0  0  0  0  0  0  0  0
   35.7430   27.2960   38.1170 N   0  0  0  0  0  0  0  0  0  0  0  0
   36.5870   27.2210   39.1760 C   0  0  0  0  0  0  0  0  0  0  0  0
   36.3040   28.2760   39.9870 N   0  0  0  0  0  0  0  0  0  0  0  0
   35.3190   28.9820   39.4500 N   0  0  0  0  0  0  0  0  0  0  0  0
   37.3300   26.4180   39.2730 H   0  0  0  0  0  0  0  0  0  0  0  0
   36.9890   28.5320   41.2060 C   0  0  0  0  0  0  0  0  0  0  0  0
   36.5690   27.7960   42.2520 N   0  0  0  0  0  0  0  0  0  0  0  0
   37.1240   27.9200   43.4950 C   0  0  0  0  0  3  0  0  0  0  0  0
   38.1350   28.8110   43.7100 N   0  0  0  0  0  0  0  0  0  0  0  0
   38.5720   29.5600   42.6780 C   0  0  0  0  0  0  0  0  0  0  0  0
   39.5940   30.4830   42.8210 C   0  0  0  0  0  3  0  0  0  0  0  0
   40.0340   31.2500   41.7400 C   0  0  0  0  0  0  0  0  0  0  0  0
   40.8330   31.9300   41.9810 H   0  0  0  0  0  0  0  0  0  0  0  0
   39.4280   31.0710   40.5140 C   0  0  0  0  0  0  0  0  0  0  0  0
   39.8190   31.6910   39.7450 H   0  0  0  0  0  0  0  0  0  0  0  0
   38.4040   30.1590   40.3300 C   0  0  0  0  0  3  0  0  0  0  0  0
   38.0120   29.4310   41.4310 C   0  0  0  0  0  0  0  0  0  0  0  0
   30.5150   29.8480   36.6570 C   0  0  0  0  0  0  0  0  0  0  0  0
   30.3060   31.1720   36.0730 C   0  0  0  0  0  0  0  0  0  0  0  0
   30.0880   32.2520   37.0700 C   0  0  0  0  0  0  0  0  0  0  0  0
   28.9540   31.9320   38.0350 C   0  0  0  0  0  0  0  0  0  0  0  0
   28.9160   30.4890   38.4740 C   0  0  0  0  0  0  0  0  0  0  0  0
   30.2120   29.7830   38.1630 C   0  0  0  0  0  0  0  0  0  0  0  0
   29.8270   29.0610   36.2280 H   0  0  0  0  0  0  0  0  0  0  0  0
   31.0910   31.5220   35.3720 H   0  0  0  0  0  0  0  0  0  0  0  0
   29.3780   31.1370   35.4460 H   0  0  0  0  0  0  0  0  0  0  0  0
   29.7380   33.1690   36.5150 H   0  0  0  0  0  0  0  0  0  0  0  0
   30.9510   32.5290   37.6960 H   0  0  0  0  0  0  0  0  0  0  0  0
   27.9520   32.1900   37.6010 H   0  0  0  0  0  0  0  0  0  0  0  0
   29.0510   32.5970   38.9180 H   0  0  0  0  0  0  0  0  0  0  0  0
   28.8200   30.4570   39.5880 H   0  0  0  0  0  0  0  0  0  0  0  0
   28.0580   29.9180   38.0850 H   0  0  0  0  0  0  0  0  0  0  0  0
   30.1010   28.7270   38.4360 H   0  0  0  0  0  0  0  0  0  0  0  0
   31.0540   30.2840   38.6760 H   0  0  0  0  0  0  0  0  0  0  0  0
  1 27  1  0  0  0  0
  1  6  1  0  0  0  0
  2  1  2  0  0  0  0
  3  2  1  0  0  0  0
  3  4  2  0  0  0  0
  4  5  1  0  0  0  0
  5  6  2  0  0  0  0
  5  9  1  0  0  0  0
  7  2  1  0  0  0  0
  8  3  1  0  0  0  0
  9 13  2  0  0  0  0
 10  9  1  0  0  0  0
 10 11  2  0  0  0  0
 11 14  1  0  0  0  0
 11 12  1  0  0  0  0
 12 15  1  0  0  0  0
 13 12  1  0  0  0  0
 15 26  2  0  0  0  0
 15 16  1  0  0  0  0
 16 17  2  0  0  0  0
 17 18  1  0  0  0  0
 19 20  1  0  0  0  0
 19 18  2  0  0  0  0
 21 22  1  0  0  0  0
 21 20  2  0  0  0  0
 23 21  1  0  0  0  0
 24 23  1  0  0  0  0
 25 23  2  0  0  0  0
 25 26  1  0  0  0  0
 26 19  1  0  0  0  0
 27 32  1  0  0  0  0
 28 27  1  0  0  0  0
 28 29  1  0  0  0  0
 29 37  1  0  0  0  0
 29 30  1  0  0  0  0
 30 31  1  0  0  0  0
 30 39  1  0  0  0  0
 31 40  1  0  0  0  0
 32 42  1  0  0  0  0
 32 31  1  0  0  0  0
 32 43  1  0  0  0  0
 33 27  1  0  0  0  0
 34 28  1  0  0  0  0
 35 28  1  0  0  0  0
 36 29  1  0  0  0  0
 38 30  1  0  0  0  0
 41 31  1  0  0  0  0
M  END
>  <minimizedAffinity>
-6.35410213

$$$$

 OpenBabel03242519263D

 43 47  0  0  0  0  0  0  0  0999 V2000
   37.7950   26.2520   41.1900 C   0  0  0  0  0  0  0  0  0  0  0  0
   36.9490   26.1100   42.2920 C   0  0  0  0  0  0  0  0  0  0  0  0
   36.7910   27.1690   43.1990 C   0  0  0  0  0  0  0  0  0  0  0  0
   37.5050   28.3070   42.9260 N   0  0  0  0  0  0  0  0  0  0  0  0
   38.3280   28.4160   41.8350 C   0  0  0  0  0  0  0  0  0  0  0  0
   38.4550   27.3970   40.9970 N   0  0  0  0  0  0  0  0  0  0  0  0
   36.3480   25.2650   42.5950 H   0  0  0  0  0  0  0  0  0  0  0  0
   36.1570   27.1400   44.0730 H   0  0  0  0  0  0  0  0  0  0  0  0
   39.0230   29.6880   41.6700 C   0  0  0  0  0  0  0  0  0  0  0  0
   39.6450   30.1730   42.7940 N   0  0  0  0  0  0  0  0  0  0  0  0
   40.2330   31.3490   42.4610 C   0  0  0  0  0  0  0  0  0  0  0  0
   39.9660   31.5700   41.1460 N   0  0  0  0  0  0  0  0  0  0  0  0
   39.2390   30.5660   40.6770 N   0  0  0  0  0  0  0  0  0  0  0  0
   40.7990   31.9430   43.1910 H   0  0  0  0  0  0  0  0  0  0  0  0
   40.4220   32.7150   40.4370 C   0  0  0  0  0  0  0  0  0  0  0  0
   39.6850   33.8250   40.6270 N   0  0  0  0  0  0  0  0  0  0  0  0
   39.9880   35.0100   40.0190 C   0  0  0  0  0  3  0  0  0  0  0  0
   41.0660   35.0990   39.1860 N   0  0  0  0  0  0  0  0  0  0  0  0
   41.8200   34.0000   38.9790 C   0  0  0  0  0  0  0  0  0  0  0  0
   42.9270   34.0150   38.1490 C   0  0  0  0  0  3  0  0  0  0  0  0
   43.6960   32.8670   37.9470 C   0  0  0  0  0  0  0  0  0  0  0  0
   44.5290   33.0080   37.2790 H   0  0  0  0  0  0  0  0  0  0  0  0
   43.3310   31.7050   38.5940 C   0  0  0  0  0  0  0  0  0  0  0  0
   43.9650   30.8780   38.3880 H   0  0  0  0  0  0  0  0  0  0  0  0
   42.2310   31.6490   39.4310 C   0  0  0  0  0  3  0  0  0  0  0  0
   41.5110   32.8120   39.5930 C   0  0  0  0  0  0  0  0  0  0  0  0
   37.8880   25.0720   40.3080 C   0  0  0  0  0  0  0  0  0  0  0  0
   36.8760   25.0390   39.2520 C   0  0  0  0  0  0  0  0  0  0  0  0
   35.8640   23.9620   39.4090 C   0  0  0  0  0  0  0  0  0  0  0  0
   36.4980   22.5850   39.5560 C   0  0  0  0  0  0  0  0  0  0  0  0
   37.7410   22.5740   40.4110 C   0  0  0  0  0  0  0  0  0  0  0  0
   37.8630   23.8380   41.2250 C   0  0  0  0  0  0  0  0  0  0  0  0
   38.9450   25.0670   39.9090 H   0  0  0  0  0  0  0  0  0  0  0  0
   36.3280   25.9870   39.0760 H   0  0  0  0  0  0  0  0  0  0  0  0
   37.3930   24.8390   38.2780 H   0  0  0  0  0  0  0  0  0  0  0  0
   35.2730   23.9020   38.4510 H   0  0  0  0  0  0  0  0  0  0  0  0
   35.1600   24.0640   40.2500 H   0  0  0  0  0  0  0  0  0  0  0  0
   36.7570   22.1370   38.5600 H   0  0  0  0  0  0  0  0  0  0  0  0
   35.7380   21.8970   39.9790 H   0  0  0  0  0  0  0  0  0  0  0  0
   37.6540   21.7460   41.1580 H   0  0  0  0  0  0  0  0  0  0  0  0
   38.6720   22.3770   39.8560 H   0  0  0  0  0  0  0  0  0  0  0  0
   38.8140   23.8060   41.7680 H   0  0  0  0  0  0  0  0  0  0  0  0
   36.9830   23.9540   41.8860 H   0  0  0  0  0  0  0  0  0  0  0  0
  1  2  1  0  0  0  0
  2  7  1  0  0  0  0
  2  3  2  0  0  0  0
  3  8  1  0  0  0  0
  4  3  1  0  0  0  0
  5  4  2  0  0  0  0
  6  1  2  0  0  0  0
  6  5  1  0  0  0  0
  9  5  1  0  0  0  0
  9 10  1  0  0  0  0
 11 10  2  0  0  0  0
 11 14  1  0  0  0  0
 12 11  1  0  0  0  0
 13 12  1  0  0  0  0
 13  9  2  0  0  0  0
 15 16  1  0  0  0  0
 15 12  1  0  0  0  0
 17 16  2  0  0  0  0
 18 17  1  0  0  0  0
 19 18  2  0  0  0  0
 19 26  1  0  0  0  0
 20 19  1  0  0  0  0
 21 20  2  0  0  0  0
 21 23  1  0  0  0  0
 22 21  1  0  0  0  0
 23 25  2  0  0  0  0
 24 23  1  0  0  0  0
 25 26  1  0  0  0  0
 26 15  2  0  0  0  0
 27  1  1  0  0  0  0
 27 32  1  0  0  0  0
 28 29  1  0  0  0  0
 28 27  1  0  0  0  0
 29 30  1  0  0  0  0
 29 37  1  0  0  0  0
 30 39  1  0  0  0  0
 30 31  1  0  0  0  0
 31 40  1  0  0  0  0
 31 32  1  0  0  0  0
 32 42  1  0  0  0  0
 32 43  1  0  0  0  0
 33 27  1  0  0  0  0
 34 28  1  0  0  0  0
 35 28  1  0  0  0  0
 36 29  1  0  0  0  0
 38 30  1  0  0  0  0
 41 31  1  0  0  0  0
M  END
>  <minimizedAffinity>
-6.25821733

$$$$

 OpenBabel03242519263D

 43 47  0  0  0  0  0  0  0  0999 V2000
   37.2760   25.4540   41.2480 C   0  0  0  0  0  0  0  0  0  0  0  0
   36.9340   25.8330   42.5490 C   0  0  0  0  0  0  0  0  0  0  0  0
   37.1110   27.1610   42.9640 C   0  0  0  0  0  0  0  0  0  0  0  0
   37.6250   28.0210   42.0290 N   0  0  0  0  0  0  0  0  0  0  0  0
   37.9520   27.6190   40.7600 C   0  0  0  0  0  0  0  0  0  0  0  0
   37.7730   26.3560   40.3980 N   0  0  0  0  0  0  0  0  0  0  0  0
   36.5260   25.2400   43.3540 H   0  0  0  0  0  0  0  0  0  0  0  0
   36.8710   27.5340   43.9490 H   0  0  0  0  0  0  0  0  0  0  0  0
   38.4880   28.6450   39.8710 C   0  0  0  0  0  0  0  0  0  0  0  0
   37.7400   28.9070   38.7500 N   0  0  0  0  0  0  0  0  0  0  0  0
   38.3810   29.8730   38.0470 C   0  0  0  0  0  0  0  0  0  0  0  0
   39.5080   30.1900   38.7400 N   0  0  0  0  0  0  0  0  0  0  0  0
   39.5640   29.4470   39.8370 N   0  0  0  0  0  0  0  0  0  0  0  0
   37.9840   30.2640   37.1000 H   0  0  0  0  0  0  0  0  0  0  0  0
   40.4410   31.1720   38.3100 C   0  0  0  0  0  0  0  0  0  0  0  0
   41.3080   30.7510   37.3700 N   0  0  0  0  0  0  0  0  0  0  0  0
   42.2680   31.5710   36.8500 C   0  0  0  0  0  3  0  0  0  0  0  0
   42.3750   32.8630   37.2790 N   0  0  0  0  0  0  0  0  0  0  0  0
   41.5190   33.3080   38.2200 C   0  0  0  0  0  0  0  0  0  0  0  0
   41.5670   34.6040   38.7020 C   0  0  0  0  0  3  0  0  0  0  0  0
   40.6710   35.0480   39.6780 C   0  0  0  0  0  0  0  0  0  0  0  0
   40.8120   36.0750   39.9690 H   0  0  0  0  0  0  0  0  0  0  0  0
   39.7270   34.1640   40.1570 C   0  0  0  0  0  0  0  0  0  0  0  0
   39.0840   34.5790   40.8960 H   0  0  0  0  0  0  0  0  0  0  0  0
   39.6460   32.8610   39.7010 C   0  0  0  0  0  3  0  0  0  0  0  0
   40.5550   32.4800   38.7390 C   0  0  0  0  0  0  0  0  0  0  0  0
   37.0530   24.0310   40.9240 C   0  0  0  0  0  0  0  0  0  0  0  0
   38.2840   23.2670   40.7280 C   0  0  0  0  0  0  0  0  0  0  0  0
   38.5090   22.8200   39.3290 C   0  0  0  0  0  0  0  0  0  0  0  0
   37.3260   22.0410   38.7700 C   0  0  0  0  0  0  0  0  0  0  0  0
   35.9830   22.6000   39.1700 C   0  0  0  0  0  0  0  0  0  0  0  0
   36.1080   24.0020   39.7120 C   0  0  0  0  0  0  0  0  0  0  0  0
   36.4060   23.6230   41.7560 H   0  0  0  0  0  0  0  0  0  0  0  0
   39.2180   23.7540   41.0750 H   0  0  0  0  0  0  0  0  0  0  0  0
   38.2200   22.3330   41.3450 H   0  0  0  0  0  0  0  0  0  0  0  0
   39.3590   22.0800   39.3360 H   0  0  0  0  0  0  0  0  0  0  0  0
   38.7330   23.6050   38.5890 H   0  0  0  0  0  0  0  0  0  0  0  0
   37.3570   20.9610   39.0740 H   0  0  0  0  0  0  0  0  0  0  0  0
   37.4160   22.0190   37.6640 H   0  0  0  0  0  0  0  0  0  0  0  0
   35.3460   22.6910   38.2550 H   0  0  0  0  0  0  0  0  0  0  0  0
   35.4150   21.9630   39.8660 H   0  0  0  0  0  0  0  0  0  0  0  0
   35.1190   24.3280   40.0510 H   0  0  0  0  0  0  0  0  0  0  0  0
   36.5540   24.6690   38.9500 H   0  0  0  0  0  0  0  0  0  0  0  0
  1  2  1  0  0  0  0
  2  3  2  0  0  0  0
  2  7  1  0  0  0  0
  3  8  1  0  0  0  0
  4  3  1  0  0  0  0
  5  4  2  0  0  0  0
  6  5  1  0  0  0  0
  6  1  2  0  0  0  0
  9  5  1  0  0  0  0
 10  9  1  0  0  0  0
 11 12  1  0  0  0  0
 11 10  2  0  0  0  0
 12 13  1  0  0  0  0
 13  9  2  0  0  0  0
 14 11  1  0  0  0  0
 15 26  1  0  0  0  0
 15 12  1  0  0  0  0
 16 15  2  0  0  0  0
 17 18  2  0  0  0  0
 17 16  1  0  0  0  0
 18 19  1  0  0  0  0
 19 20  2  0  0  0  0
 19 26  1  0  0  0  0
 20 21  1  0  0  0  0
 21 22  1  0  0  0  0
 21 23  2  0  0  0  0
 23 24  1  0  0  0  0
 25 23  1  0  0  0  0
 26 25  2  0  0  0  0
 27  1  1  0  0  0  0
 27 33  1  0  0  0  0
 28 27  1  0  0  0  0
 28 34  1  0  0  0  0
 28 35  1  0  0  0  0
 29 36  1  0  0  0  0
 29 28  1  0  0  0  0
 30 38  1  0  0  0  0
 30 31  1  0  0  0  0
 30 29  1  0  0  0  0
 31 32  1  0  0  0  0
 31 41  1  0  0  0  0
 32 42  1  0  0  0  0
 32 27  1  0  0  0  0
 37 29  1  0  0  0  0
 39 30  1  0  0  0  0
 40 31  1  0  0  0  0
 43 32  1  0  0  0  0
M  END
>  <minimizedAffinity>
-6.23501062

$$$$
