
 OpenBabel03252506343D

 36 39  0  0  1  0  0  0  0  0999 V2000
   44.4570   35.7210   44.9740 C   0  0  0  0  0  0  0  0  0  0  0  0
   45.1310   35.7250   43.7410 C   0  0  0  0  0  0  0  0  0  0  0  0
   46.0770   34.7730   43.5020 C   0  0  0  0  0  0  0  0  0  0  0  0
   46.2960   33.8780   44.4970 N   0  0  0  0  0  0  0  0  0  0  0  0
   45.6580   33.8800   45.6560 C   0  0  0  0  0  0  0  0  0  0  0  0
   44.7200   34.7980   45.9350 N   0  0  0  0  0  0  0  0  0  0  0  0
   45.9940   32.8790   46.5990 N   0  0  0  0  0  0  0  0  0  0  0  0
   45.1780   32.5500   47.7780 C   0  0  0  0  0  0  0  0  0  0  0  0
   46.2340   32.2700   48.8230 C   0  0  0  0  0  0  0  0  0  0  0  0
   47.5490   32.1850   48.0980 C   0  0  0  0  0  0  0  0  0  0  0  0
   47.1120   31.9880   46.6710 C   0  0  1  0  0  0  0  0  0  0  0  0
   43.6790   36.4400   45.2730 H   0  0  0  0  0  0  0  0  0  0  0  0
   46.5590   34.8120   42.5600 H   0  0  0  0  0  0  0  0  0  0  0  0
   44.4830   31.7250   47.5990 H   0  0  0  0  0  0  0  0  0  0  0  0
   44.6650   33.4910   48.0990 H   0  0  0  0  0  0  0  0  0  0  0  0
   46.0230   31.2370   49.2040 H   0  0  0  0  0  0  0  0  0  0  0  0
   46.2320   32.9900   49.6450 H   0  0  0  0  0  0  0  0  0  0  0  0
   48.2250   31.3940   48.4600 H   0  0  0  0  0  0  0  0  0  0  0  0
   48.0130   33.2070   48.1450 H   0  0  0  0  0  0  0  0  0  0  0  0
   47.8620   32.3620   45.9410 H   0  0  0  0  0  0  0  0  0  0  0  0
   44.7220   36.7770   42.8450 N   0  0  0  0  0  0  0  0  0  0  0  0
   43.7800   36.8090   42.3710 H   0  0  0  0  0  0  0  0  0  0  0  0
   45.4410   37.5080   42.7080 H   0  0  0  0  0  0  0  0  0  0  0  0
   46.6730   30.2700   46.4130 S   0  0  0  0  0  0  0  0  0  0  0  0
   47.2260   29.5800   44.8900 C   0  0  0  0  0  0  0  0  0  0  0  0
   48.3640   28.8690   44.6240 N   0  0  0  0  0  0  0  0  0  0  0  0
   48.5930   28.4470   43.3720 C   0  0  0  0  0  3  0  0  0  0  0  0
   47.7770   28.6670   42.3240 N   0  0  0  0  0  0  0  0  0  0  0  0
   46.6380   29.3660   42.5430 C   0  0  0  0  0  0  0  0  0  0  0  0
   45.8600   29.5520   41.4220 C   0  0  0  0  0  3  0  0  0  0  0  0
   44.6750   30.2750   41.6040 C   0  0  0  0  0  0  0  0  0  0  0  0
   44.0100   30.4660   40.7780 H   0  0  0  0  0  0  0  0  0  0  0  0
   44.3550   30.7480   42.8500 C   0  0  0  0  0  0  0  0  0  0  0  0
   43.4420   31.3100   43.0130 H   0  0  0  0  0  0  0  0  0  0  0  0
   45.1880   30.5190   43.9230 C   0  0  0  0  0  3  0  0  0  0  0  0
   46.3810   29.8100   43.8210 C   0  0  0  0  0  0  0  0  0  0  0  0
  1 12  1  0  0  0  0
  1  6  1  0  0  0  0
  2  1  2  0  0  0  0
  3  2  1  0  0  0  0
  3  4  2  0  0  0  0
  4  5  1  0  0  0  0
  5  6  2  0  0  0  0
  5  7  1  0  0  0  0
  7 11  1  0  0  0  0
  7  8  1  0  0  0  0
  8 15  1  0  0  0  0
  8  9  1  0  0  0  0
  9 16  1  0  0  0  0
  9 17  1  0  0  0  0
 10 19  1  0  0  0  0
 10 18  1  0  0  0  0
 10  9  1  0  0  0  0
 11 20  1  6  0  0  0
 11 10  1  0  0  0  0
 13  3  1  0  0  0  0
 14  8  1  0  0  0  0
 21  2  1  0  0  0  0
 22 21  1  0  0  0  0
 23 21  1  0  0  0  0
 24 11  1  0  0  0  0
 25 24  1  0  0  0  0
 26 25  1  0  0  0  0
 27 26  2  0  0  0  0
 28 29  2  0  0  0  0
 28 27  1  0  0  0  0
 29 36  1  0  0  0  0
 30 31  2  0  0  0  0
 30 29  1  0  0  0  0
 31 33  1  0  0  0  0
 32 31  1  0  0  0  0
 33 34  1  0  0  0  0
 33 35  2  0  0  0  0
 36 35  1  0  0  0  0
 36 25  2  0  0  0  0
M  END
>  <minimizedAffinity>
-4.96952438

>  <minimizedRMSD>
1.71534562

$$$$
