
 OpenBabel03252502243D

 37 40  0  0  1  0  0  0  0  0999 V2000
   46.8230   34.5990   42.2880 N   0  0  0  0  0  0  0  0  0  0  0  0
   48.2780   34.5270   42.3520 C   0  0  0  0  0  0  0  0  0  0  0  0
   48.7510   35.3340   41.1460 C   0  0  0  0  0  0  0  0  0  0  0  0
   48.3260   34.6670   39.8730 C   0  0  0  0  0  0  0  0  0  0  0  0
   46.9650   34.0710   39.9050 C   0  0  0  0  0  0  0  0  0  0  0  0
   46.1060   34.4860   41.0480 C   0  0  1  0  0  0  0  0  0  0  0  0
   48.5480   33.4820   42.1460 H   0  0  0  0  0  0  0  0  0  0  0  0
   48.6790   34.9360   43.2740 H   0  0  0  0  0  0  0  0  0  0  0  0
   49.8760   35.2470   41.1890 H   0  0  0  0  0  0  0  0  0  0  0  0
   48.4300   36.3710   41.2490 H   0  0  0  0  0  0  0  0  0  0  0  0
   49.0800   33.9050   39.5360 H   0  0  0  0  0  0  0  0  0  0  0  0
   48.3390   35.4440   39.0720 H   0  0  0  0  0  0  0  0  0  0  0  0
   46.3990   34.2090   38.9580 H   0  0  0  0  0  0  0  0  0  0  0  0
   47.0840   32.9560   39.9880 H   0  0  0  0  0  0  0  0  0  0  0  0
   45.6130   35.4590   40.7960 H   0  0  0  0  0  0  0  0  0  0  0  0
   44.4780   36.0030   44.8420 C   0  0  0  0  0  0  0  0  0  0  0  0
   45.1920   35.8960   43.6440 C   0  0  0  0  0  0  0  0  0  0  0  0
   46.0580   34.7870   43.4760 C   0  0  0  0  0  0  0  0  0  0  0  0
   46.1420   33.8920   44.4960 N   0  0  0  0  0  0  0  0  0  0  0  0
   45.4250   34.0410   45.6420 C   0  0  0  0  0  0  0  0  0  0  0  0
   44.6000   35.0940   45.8050 N   0  0  0  0  0  0  0  0  0  0  0  0
   43.8610   36.8910   44.8300 H   0  0  0  0  0  0  0  0  0  0  0  0
   45.1480   36.5880   42.8180 H   0  0  0  0  0  0  0  0  0  0  0  0
   45.5060   33.3180   46.4410 H   0  0  0  0  0  0  0  0  0  0  0  0
   45.1030   33.5140   41.2100 O   0  0  0  0  0  0  0  0  0  0  0  0
   43.7730   33.6900   40.9320 C   0  0  0  0  0  0  0  0  0  0  0  0
   42.8650   34.4430   41.5740 N   0  0  0  0  0  0  0  0  0  0  0  0
   41.5930   34.5160   41.1840 C   0  0  0  0  0  3  0  0  0  0  0  0
   41.1560   33.8220   40.1010 N   0  0  0  0  0  0  0  0  0  0  0  0
   42.0100   33.0530   39.4150 C   0  0  0  0  0  0  0  0  0  0  0  0
   41.5670   32.3490   38.3170 C   0  0  0  0  0  3  0  0  0  0  0  0
   42.4100   31.5480   37.5860 C   0  0  0  0  0  0  0  0  0  0  0  0
   42.1540   30.9560   36.7080 H   0  0  0  0  0  0  0  0  0  0  0  0
   43.7140   31.4580   37.9690 C   0  0  0  0  0  0  0  0  0  0  0  0
   44.4440   30.8530   37.4510 H   0  0  0  0  0  0  0  0  0  0  0  0
   44.1470   32.1680   39.0700 C   0  0  0  0  0  3  0  0  0  0  0  0
   43.3270   32.9840   39.8300 C   0  0  0  0  0  0  0  0  0  0  0  0
  1  2  1  0  0  0  0
  1 18  1  0  0  0  0
  2  8  1  0  0  0  0
  3  9  1  0  0  0  0
  3 10  1  0  0  0  0
  3  2  1  0  0  0  0
  4  5  1  0  0  0  0
  4  3  1  0  0  0  0
  5 14  1  0  0  0  0
  5  6  1  0  0  0  0
  6 15  1  6  0  0  0
  6 25  1  0  0  0  0
  6  1  1  0  0  0  0
  7  2  1  0  0  0  0
 11  4  1  0  0  0  0
 12  4  1  0  0  0  0
 13  5  1  0  0  0  0
 16 21  1  0  0  0  0
 17 16  2  0  0  0  0
 18 17  1  0  0  0  0
 18 19  2  0  0  0  0
 19 20  1  0  0  0  0
 20 21  2  0  0  0  0
 20 24  1  0  0  0  0
 22 16  1  0  0  0  0
 23 17  1  0  0  0  0
 26 25  1  0  0  0  0
 26 27  1  0  0  0  0
 28 27  2  0  0  0  0
 29 28  1  0  0  0  0
 30 37  1  0  0  0  0
 30 29  2  0  0  0  0
 31 30  1  0  0  0  0
 32 34  1  0  0  0  0
 32 31  2  0  0  0  0
 33 32  1  0  0  0  0
 34 36  2  0  0  0  0
 35 34  1  0  0  0  0
 36 37  1  0  0  0  0
 37 26  2  0  0  0  0
M  END
>  <minimizedAffinity>
-5.96555853

>  <minimizedRMSD>
0.528470635

$$$$
