
 OpenBabel03252506383D

 47 51  0  0  1  0  0  0  0  0999 V2000
   46.7160   30.0060   46.5580 S   0  0  0  0  0  0  0  0  0  0  0  0
   45.4680   30.5030   43.5020 O   0  0  0  0  0  0  0  0  0  0  0  0
   44.9140   29.9470   44.4630 C   0  0  0  0  0  0  0  0  0  0  0  0
   45.1240   29.7120   45.9130 C   0  0  1  0  0  0  0  0  0  0  0  0
   44.6160   28.3010   46.0790 C   0  0  0  0  0  0  0  0  0  0  0  0
   43.2470   28.5020   45.4250 C   0  0  0  0  0  0  0  0  0  0  0  0
   43.6610   29.2740   44.2600 N   0  0  0  0  0  0  0  0  0  0  0  0
   44.2590   30.3090   46.3170 H   0  0  0  0  0  0  0  0  0  0  0  0
   44.4400   28.0170   47.1300 H   0  0  0  0  0  0  0  0  0  0  0  0
   45.2260   27.5810   45.5270 H   0  0  0  0  0  0  0  0  0  0  0  0
   42.6460   29.1580   46.0860 H   0  0  0  0  0  0  0  0  0  0  0  0
   42.7670   27.5500   45.1730 H   0  0  0  0  0  0  0  0  0  0  0  0
   42.7930   29.2570   43.1080 C   0  0  0  0  0  0  0  0  0  0  0  0
   42.2850   30.4320   42.6770 N   0  0  0  0  0  0  0  0  0  0  0  0
   41.4560   30.5060   41.5960 C   0  0  0  0  0  3  0  0  0  0  0  0
   41.1130   29.4080   40.9180 N   0  0  0  0  0  0  0  0  0  0  0  0
   41.6040   28.2200   41.3250 C   0  0  0  0  0  0  0  0  0  0  0  0
   41.2730   27.0630   40.6490 C   0  0  0  0  0  3  0  0  0  0  0  0
   41.7630   25.8240   41.0450 C   0  0  0  0  0  0  0  0  0  0  0  0
   41.4930   24.9280   40.5030 H   0  0  0  0  0  0  0  0  0  0  0  0
   42.6050   25.7880   42.1500 C   0  0  0  0  0  0  0  0  0  0  0  0
   42.9660   24.8070   42.4270 H   0  0  0  0  0  0  0  0  0  0  0  0
   42.9720   26.9240   42.8670 C   0  0  0  0  0  3  0  0  0  0  0  0
   42.4460   28.1130   42.4140 C   0  0  0  0  0  0  0  0  0  0  0  0
   44.5260   35.4680   45.1590 C   0  0  0  0  0  0  0  0  0  0  0  0
   45.1910   35.4710   43.9080 C   0  0  0  0  0  0  0  0  0  0  0  0
   46.1240   34.5200   43.6510 C   0  0  0  0  0  0  0  0  0  0  0  0
   46.3640   33.6110   44.6280 N   0  0  0  0  0  0  0  0  0  0  0  0
   45.7380   33.6130   45.7970 C   0  0  0  0  0  0  0  0  0  0  0  0
   44.8170   34.5350   46.0770 N   0  0  0  0  0  0  0  0  0  0  0  0
   46.0780   32.6020   46.7600 N   0  0  0  0  0  0  0  0  0  0  0  0
   45.3430   32.3370   47.9400 C   0  0  0  0  0  0  0  0  0  0  0  0
   46.4200   32.0040   48.9560 C   0  0  0  0  0  0  0  0  0  0  0  0
   47.7030   31.9120   48.1860 C   0  0  0  0  0  0  0  0  0  0  0  0
   47.2080   31.7040   46.7580 C   0  0  1  0  0  0  0  0  0  0  0  0
   43.7830   36.2280   45.3600 H   0  0  0  0  0  0  0  0  0  0  0  0
   46.6280   34.5130   42.7170 H   0  0  0  0  0  0  0  0  0  0  0  0
   44.9390   33.3360   48.2970 H   0  0  0  0  0  0  0  0  0  0  0  0
   44.5630   31.6560   48.0390 H   0  0  0  0  0  0  0  0  0  0  0  0
   46.2210   30.9970   49.4190 H   0  0  0  0  0  0  0  0  0  0  0  0
   46.4920   32.7090   49.7830 H   0  0  0  0  0  0  0  0  0  0  0  0
   48.2920   31.0480   48.5280 H   0  0  0  0  0  0  0  0  0  0  0  0
   48.3000   32.8420   48.2510 H   0  0  0  0  0  0  0  0  0  0  0  0
   48.0010   32.0000   46.0680 H   0  0  0  0  0  0  0  0  0  0  0  0
   44.8240   36.5040   42.9780 N   0  0  0  0  0  0  0  0  0  0  0  0
   45.5540   36.8740   42.3080 H   0  0  0  0  0  0  0  0  0  0  0  0
   43.8480   36.8470   43.0010 H   0  0  0  0  0  0  0  0  0  0  0  0
  1 35  1  0  0  0  0
  2  3  2  0  0  0  0
  3  4  1  0  0  0  0
  4  5  1  0  0  0  0
  4  8  1  1  0  0  0
  4  1  1  0  0  0  0
  5  9  1  0  0  0  0
  6  5  1  0  0  0  0
  6 11  1  0  0  0  0
  7  3  1  0  0  0  0
  7  6  1  0  0  0  0
 10  5  1  0  0  0  0
 12  6  1  0  0  0  0
 13  7  1  0  0  0  0
 14 13  1  0  0  0  0
 15 14  2  0  0  0  0
 16 17  2  0  0  0  0
 16 15  1  0  0  0  0
 17 24  1  0  0  0  0
 18 19  2  0  0  0  0
 18 17  1  0  0  0  0
 19 21  1  0  0  0  0
 20 19  1  0  0  0  0
 21 22  1  0  0  0  0
 21 23  2  0  0  0  0
 24 23  1  0  0  0  0
 24 13  2  0  0  0  0
 25 36  1  0  0  0  0
 25 30  1  0  0  0  0
 26 25  2  0  0  0  0
 27 26  1  0  0  0  0
 27 28  2  0  0  0  0
 28 29  1  0  0  0  0
 29 30  2  0  0  0  0
 29 31  1  0  0  0  0
 31 32  1  0  0  0  0
 32 39  1  0  0  0  0
 32 38  1  0  0  0  0
 32 33  1  0  0  0  0
 33 40  1  0  0  0  0
 33 41  1  0  0  0  0
 34 43  1  0  0  0  0
 34 42  1  0  0  0  0
 34 33  1  0  0  0  0
 35 44  1  6  0  0  0
 35 31  1  0  0  0  0
 35 34  1  0  0  0  0
 37 27  1  0  0  0  0
 45 47  1  0  0  0  0
 45 26  1  0  0  0  0
 46 45  1  0  0  0  0
M  END
>  <minimizedAffinity>
-5.73436451

>  <minimizedRMSD>
0.217860505

$$$$
