
     RDKit          3D

 53 57  0  0  0  0  0  0  0  0999 V2000
   47.5103   34.4899   42.4345 N   0  0  0  0  0  0  0  0  0  0  0  0
   47.5026   34.7494   40.9917 C   0  0  0  0  0  0  0  0  0  0  0  0
   48.1162   33.4490   40.5413 C   0  0  2  0  0  0  0  0  0  0  0  0
   49.3200   33.3389   41.4683 C   0  0  0  0  0  0  0  0  0  0  0  0
   48.7937   33.9203   42.7494 C   0  0  0  0  0  0  0  0  0  0  0  0
   44.6132   35.8511   44.3319 C   0  0  0  0  0  0  0  0  0  0  0  0
   45.5463   35.7286   43.3109 C   0  0  0  0  0  0  0  0  0  0  0  0
   46.5163   34.7166   43.3973 C   0  0  0  0  0  0  0  0  0  0  0  0
   46.4818   33.9025   44.4970 N   0  0  0  0  0  0  0  0  0  0  0  0
   45.5728   34.0300   45.4811 C   0  0  0  0  0  0  0  0  0  0  0  0
   44.6445   35.0039   45.3915 N   0  0  0  0  0  0  0  0  0  0  0  0
   48.6163   33.4797   39.2090 N   0  0  0  0  0  0  0  0  0  0  0  0
   48.8254   32.2689   37.0433 C   0  0  0  0  0  0  0  0  0  0  0  0
   48.0873   33.0143   37.9908 C   0  0  0  0  0  0  0  0  0  0  0  0
   46.7833   33.2481   37.6035 C   0  0  0  0  0  0  0  0  0  0  0  0
   46.1892   32.8382   36.4444 C   0  0  0  0  0  0  0  0  0  0  0  0
   46.9476   32.1125   35.5474 C   0  0  0  0  0  0  0  0  0  0  0  0
   48.2453   31.8499   35.8750 C   0  0  0  0  0  0  0  0  0  0  0  0
   49.5178   31.7265   33.7566 C   0  0  0  0  0  0  0  0  0  0  0  0
   49.2618   32.9455   33.5787 O   0  0  0  0  0  0  0  0  0  0  0  0
   48.9996   31.1099   34.9117 N   0  0  0  0  0  0  0  0  0  0  0  0
   51.3003   31.7356   37.6230 N   0  0  0  0  0  0  0  0  0  0  0  0
   50.2045   31.9788   37.3750 C   0  0  0  0  0  0  0  0  0  0  0  0
   46.4977   34.9387   40.6117 H   0  0  0  0  0  0  0  0  0  0  0  0
   48.2390   35.5553   40.7895 H   0  0  0  0  0  0  0  0  0  0  0  0
   47.3862   32.6422   40.7352 H   0  0  0  0  0  0  0  0  0  0  0  0
   49.6492   32.2895   41.5589 H   0  0  0  0  0  0  0  0  0  0  0  0
   50.1233   33.9800   41.0084 H   0  0  0  0  0  0  0  0  0  0  0  0
   48.5999   33.0625   43.4473 H   0  0  0  0  0  0  0  0  0  0  0  0
   49.5039   34.6296   43.2141 H   0  0  0  0  0  0  0  0  0  0  0  0
   43.8958   36.6491   44.2040 H   0  0  0  0  0  0  0  0  0  0  0  0
   45.6238   36.3264   42.4375 H   0  0  0  0  0  0  0  0  0  0  0  0
   45.6178   33.3445   46.3133 H   0  0  0  0  0  0  0  0  0  0  0  0
   49.5463   33.9106   39.0005 H   0  0  0  0  0  0  0  0  0  0  0  0
   46.1186   33.8204   38.2682 H   0  0  0  0  0  0  0  0  0  0  0  0
   45.1628   33.0553   36.2027 H   0  0  0  0  0  0  0  0  0  0  0  0
   46.4764   31.7885   34.6306 H   0  0  0  0  0  0  0  0  0  0  0  0
   49.0887   30.1183   35.1939 H   0  0  0  0  0  0  0  0  0  0  0  0
   50.2913   30.7403   32.9696 C   0  0  0  0  0  0  0  0  0  0  0  0
   50.4463   30.7431   31.6247 N   0  0  0  0  0  0  0  0  0  0  0  0
   51.1340   29.8653   30.9295 C   0  0  0  0  0  0  0  0  0  0  0  0
   51.7609   28.8589   31.5175 N   0  0  0  0  0  0  0  0  0  0  0  0
   51.6882   28.7358   32.8702 C   0  0  0  0  0  0  0  0  0  0  0  0
   52.3413   27.6881   33.4767 C   0  0  0  0  0  0  0  0  0  0  0  0
   52.2898   27.5323   34.8423 C   0  0  0  0  0  0  0  0  0  0  0  0
   52.8399   26.6754   35.2025 H   0  0  0  0  0  0  0  0  0  0  0  0
   51.5634   28.4594   35.5777 C   0  0  0  0  0  0  0  0  0  0  0  0
   51.5481   28.3039   36.6295 H   0  0  0  0  0  0  0  0  0  0  0  0
   50.9377   29.4783   34.9047 C   0  0  0  0  0  0  0  0  0  0  0  0
   50.9542   29.6839   33.5455 C   0  0  0  0  0  0  0  0  0  0  0  0
   51.0822   30.1208   29.8600 H   0  0  0  0  0  0  0  0  0  0  0  0
   52.8960   26.9956   32.8242 H   0  0  0  0  0  0  0  0  0  0  0  0
   50.4073   30.1339   35.5679 H   0  0  0  0  0  0  0  0  0  0  0  0
  1  5  1  0
  1  8  1  0
  2  1  1  0
  3  2  1  0
  3  4  1  0
  4  5  1  0
  6 11  2  0
  7  8  2  0
  7  6  1  0
  8  9  1  0
  9 10  2  0
 11 10  1  0
 12  3  1  0
 13 23  1  0
 13 14  2  0
 14 12  1  0
 15 14  1  0
 16 15  2  0
 17 18  2  0
 17 16  1  0
 18 13  1  0
 19 21  1  0
 20 19  2  0
 21 18  1  0
 23 22  3  0
  2 24  1  0
  2 25  1  0
  3 26  1  6
  4 27  1  0
  4 28  1  0
  5 29  1  0
  5 30  1  0
  6 31  1  0
  7 32  1  0
 10 33  1  0
 12 34  1  0
 15 35  1  0
 16 36  1  0
 17 37  1  0
 21 38  1  0
 39 40  2  0
 40 41  1  0
 41 42  2  0
 42 43  1  0
 43 44  2  0
 44 45  1  0
 45 46  1  0
 45 47  2  0
 47 48  1  0
 47 49  1  0
 49 50  2  0
 50 39  1  0
 50 43  1  0
 41 51  1  0
 44 52  1  0
 49 53  1  0
 19 39  1  0
M  ISO  8  24  13  25  13  26  13  27  13  28  13  29  13  30  13  31  14
M  ISO  7  32  14  33  14  35  14  36  14  37  14  46  16  48  16
M  END
>  <DihAtoms>  (1) 
20,18,38,39

>  <DihDeg>  (1) 
0.002429868290648085

$$$$
