
 OpenBabel03252508033D

 45 49  0  0  1  0  0  0  0  0999 V2000
   42.0050   33.3120   41.1990 C   0  0  0  0  0  0  0  0  0  0  0  0
   42.7820   34.4250   41.3320 C   0  0  0  0  0  0  0  0  0  0  0  0
   42.1620   35.6880   41.2210 C   0  0  0  0  0  0  0  0  0  0  0  0
   40.8120   35.8390   40.9860 C   0  0  0  0  0  0  0  0  0  0  0  0
   40.0420   34.7170   40.8550 C   0  0  0  0  0  0  0  0  0  0  0  0
   40.6370   33.4970   40.9610 C   0  0  0  0  0  0  0  0  0  0  0  0
   42.6900   36.6220   41.3030 H   0  0  0  0  0  0  0  0  0  0  0  0
   40.3430   36.7990   40.9030 H   0  0  0  0  0  0  0  0  0  0  0  0
   38.9970   34.7570   40.6730 H   0  0  0  0  0  0  0  0  0  0  0  0
   40.0150   32.5940   40.8540 H   0  0  0  0  0  0  0  0  0  0  0  0
   42.6280   31.7500   41.3540 S   0  0  0  0  0  0  0  0  0  0  0  0
   42.0320   31.0260   40.1510 O   0  0  0  0  0  0  0  0  0  0  0  0
   42.0480   31.1330   42.6070 O   0  0  0  0  0  0  0  0  0  0  0  0
   44.1130   31.1080   41.0150 C   0  0  0  0  0  0  0  0  0  0  0  0
   44.7710   31.0880   39.8330 N   0  0  0  0  0  0  0  0  0  0  0  0
   45.8580   30.4770   39.4510 C   0  0  0  0  0  3  0  0  0  0  0  0
   46.4300   29.7360   40.3870 N   0  0  0  0  0  0  0  0  0  0  0  0
   45.9230   29.6320   41.6180 C   0  0  0  0  0  0  0  0  0  0  0  0
   46.6710   28.7950   42.4490 C   0  0  0  0  0  3  0  0  0  0  0  0
   46.2110   28.6300   43.7380 C   0  0  0  0  0  0  0  0  0  0  0  0
   46.7440   27.9940   44.4250 H   0  0  0  0  0  0  0  0  0  0  0  0
   45.0640   29.2840   44.1400 C   0  0  0  0  0  0  0  0  0  0  0  0
   44.7290   29.1390   45.1560 H   0  0  0  0  0  0  0  0  0  0  0  0
   44.4040   30.0870   43.2420 C   0  0  0  0  0  3  0  0  0  0  0  0
   44.7770   30.3120   41.9390 C   0  0  0  0  0  0  0  0  0  0  0  0
   44.2120   34.3710   41.5630 C   0  0  0  0  0  0  0  0  0  0  0  0
   45.0830   34.2590   40.6320 O   0  0  0  0  0  0  0  0  0  0  0  0
   44.5650   34.4570   42.9500 C   0  0  0  0  0  0  0  0  0  0  0  0
   44.2790   35.7100   43.5710 C   0  0  0  0  0  0  0  0  0  0  0  0
   44.6070   35.8190   44.9220 C   0  0  0  0  0  0  0  0  0  0  0  0
   45.1650   34.7470   45.5460 N   0  0  0  0  0  0  0  0  0  0  0  0
   45.4110   33.5870   44.8950 C   0  0  0  0  0  0  0  0  0  0  0  0
   45.1170   33.4630   43.6440 N   0  0  0  0  0  0  0  0  0  0  0  0
   43.8510   36.5950   43.1730 H   0  0  0  0  0  0  0  0  0  0  0  0
   44.4460   36.7080   45.5200 H   0  0  0  0  0  0  0  0  0  0  0  0
   46.0140   32.4630   45.6570 C   0  0  1  0  0  0  0  0  0  0  0  0
   46.9680   32.7810   46.7910 C   0  0  0  0  0  0  0  0  0  0  0  0
   45.5690   32.3310   47.0510 C   0  0  1  0  0  0  0  0  0  0  0  0
   46.2110   31.5550   45.0850 H   0  0  0  0  0  0  0  0  0  0  0  0
   47.7540   32.0150   46.9800 H   0  0  0  0  0  0  0  0  0  0  0  0
   47.2640   33.8390   46.8730 H   0  0  0  0  0  0  0  0  0  0  0  0
   45.4020   31.3220   47.4700 H   0  0  0  0  0  0  0  0  0  0  0  0
   44.7680   33.3910   47.6550 N   0  0  0  0  0  0  0  0  0  0  0  0
   44.1990   32.9950   48.4620 H   0  0  0  0  0  0  0  0  0  0  0  0
   45.3120   34.1810   48.0180 H   0  0  0  0  0  0  0  0  0  0  0  0
  1  2  1  0  0  0  0
  1 11  1  0  0  0  0
  2 26  1  0  0  0  0
  3  7  1  0  0  0  0
  3  2  2  0  0  0  0
  4  3  1  0  0  0  0
  5  6  1  0  0  0  0
  5  4  2  0  0  0  0
  6  1  2  0  0  0  0
  8  4  1  0  0  0  0
  9  5  1  0  0  0  0
 10  6  1  0  0  0  0
 11 13  2  0  0  0  0
 12 11  2  0  0  0  0
 14 11  1  0  0  0  0
 14 25  1  0  0  0  0
 15 14  2  0  0  0  0
 16 15  1  0  0  0  0
 16 17  2  0  0  0  0
 17 18  1  0  0  0  0
 18 25  2  0  0  0  0
 18 19  1  0  0  0  0
 19 20  2  0  0  0  0
 20 22  1  0  0  0  0
 20 21  1  0  0  0  0
 22 23  1  0  0  0  0
 24 22  2  0  0  0  0
 25 24  1  0  0  0  0
 26 28  1  0  0  0  0
 27 26  2  0  0  0  0
 28 29  2  0  0  0  0
 28 33  1  0  0  0  0
 29 30  1  0  0  0  0
 30 35  1  0  0  0  0
 30 31  2  0  0  0  0
 32 31  1  0  0  0  0
 32 36  1  0  0  0  0
 33 32  2  0  0  0  0
 34 29  1  0  0  0  0
 36 39  1  6  0  0  0
 36 37  1  0  0  0  0
 36 38  1  0  0  0  0
 37 41  1  0  0  0  0
 37 40  1  0  0  0  0
 37 38  1  0  0  0  0
 38 42  1  1  0  0  0
 38 43  1  0  0  0  0
 43 45  1  0  0  0  0
 43 44  1  0  0  0  0
M  END
>  <minimizedAffinity>
-5.93188858

>  <minimizedRMSD>
0.916015506

$$$$
