
 OpenBabel03252506383D

 47 51  0  0  1  0  0  0  0  0999 V2000
   46.6040   30.0700   46.5030 S   0  0  0  0  0  0  0  0  0  0  0  0
   45.7410   30.7790   43.3570 O   0  0  0  0  0  0  0  0  0  0  0  0
   45.0850   30.1400   44.1940 C   0  0  0  0  0  0  0  0  0  0  0  0
   45.1150   29.7970   45.6380 C   0  0  1  0  0  0  0  0  0  0  0  0
   44.6320   28.3680   45.6300 C   0  0  0  0  0  0  0  0  0  0  0  0
   43.3510   28.5930   44.8220 C   0  0  0  0  0  0  0  0  0  0  0  0
   43.8880   29.4610   43.7810 N   0  0  0  0  0  0  0  0  0  0  0  0
   44.1900   30.3450   45.9700 H   0  0  0  0  0  0  0  0  0  0  0  0
   44.3310   28.0000   46.6250 H   0  0  0  0  0  0  0  0  0  0  0  0
   45.3270   27.7050   45.1090 H   0  0  0  0  0  0  0  0  0  0  0  0
   42.6530   29.1850   45.4470 H   0  0  0  0  0  0  0  0  0  0  0  0
   42.9350   27.6560   44.4400 H   0  0  0  0  0  0  0  0  0  0  0  0
   43.1750   29.5180   42.5290 C   0  0  0  0  0  0  0  0  0  0  0  0
   42.0580   28.7680   42.3980 N   0  0  0  0  0  0  0  0  0  0  0  0
   41.3230   28.7630   41.2490 C   0  0  0  0  0  3  0  0  0  0  0  0
   41.6860   29.5070   40.2010 N   0  0  0  0  0  0  0  0  0  0  0  0
   42.7950   30.2650   40.3010 C   0  0  0  0  0  0  0  0  0  0  0  0
   43.2000   31.0470   39.2380 C   0  0  0  0  0  3  0  0  0  0  0  0
   44.3390   31.8390   39.3110 C   0  0  0  0  0  0  0  0  0  0  0  0
   44.6420   32.4460   38.4680 H   0  0  0  0  0  0  0  0  0  0  0  0
   45.0640   31.8190   40.4980 C   0  0  0  0  0  0  0  0  0  0  0  0
   45.9430   32.4480   40.5170 H   0  0  0  0  0  0  0  0  0  0  0  0
   44.6990   31.0500   41.6000 C   0  0  0  0  0  3  0  0  0  0  0  0
   43.5590   30.2920   41.4500 C   0  0  0  0  0  0  0  0  0  0  0  0
   44.4950   35.5730   45.1390 C   0  0  0  0  0  0  0  0  0  0  0  0
   45.1480   35.5680   43.8820 C   0  0  0  0  0  0  0  0  0  0  0  0
   46.0620   34.6010   43.6140 C   0  0  0  0  0  0  0  0  0  0  0  0
   46.2950   33.6860   44.5860 N   0  0  0  0  0  0  0  0  0  0  0  0
   45.6810   33.6950   45.7600 C   0  0  0  0  0  0  0  0  0  0  0  0
   44.7790   34.6320   46.0520 N   0  0  0  0  0  0  0  0  0  0  0  0
   46.0130   32.6750   46.7180 N   0  0  0  0  0  0  0  0  0  0  0  0
   45.2840   32.4200   47.9040 C   0  0  0  0  0  0  0  0  0  0  0  0
   46.3650   32.0660   48.9080 C   0  0  0  0  0  0  0  0  0  0  0  0
   47.6390   31.9540   48.1260 C   0  0  0  0  0  0  0  0  0  0  0  0
   47.1270   31.7580   46.7020 C   0  0  1  0  0  0  0  0  0  0  0  0
   43.7670   36.3450   45.3490 H   0  0  0  0  0  0  0  0  0  0  0  0
   46.5570   34.5890   42.6750 H   0  0  0  0  0  0  0  0  0  0  0  0
   44.9010   33.4250   48.2670 H   0  0  0  0  0  0  0  0  0  0  0  0
   44.4940   31.7520   48.0090 H   0  0  0  0  0  0  0  0  0  0  0  0
   46.1530   31.0610   49.3700 H   0  0  0  0  0  0  0  0  0  0  0  0
   46.4570   32.7660   49.7360 H   0  0  0  0  0  0  0  0  0  0  0  0
   48.2160   31.0790   48.4600 H   0  0  0  0  0  0  0  0  0  0  0  0
   48.2520   32.8740   48.1880 H   0  0  0  0  0  0  0  0  0  0  0  0
   47.9180   32.0430   46.0060 H   0  0  0  0  0  0  0  0  0  0  0  0
   44.7900   36.6090   42.9580 N   0  0  0  0  0  0  0  0  0  0  0  0
   45.5200   36.9690   42.2820 H   0  0  0  0  0  0  0  0  0  0  0  0
   43.8210   36.9690   42.9910 H   0  0  0  0  0  0  0  0  0  0  0  0
  1 35  1  0  0  0  0
  2  3  2  0  0  0  0
  3  4  1  0  0  0  0
  4  8  1  1  0  0  0
  4  1  1  0  0  0  0
  5  4  1  0  0  0  0
  5  9  1  0  0  0  0
  6 11  1  0  0  0  0
  6  5  1  0  0  0  0
  7  3  1  0  0  0  0
  7  6  1  0  0  0  0
 10  5  1  0  0  0  0
 12  6  1  0  0  0  0
 13  7  1  0  0  0  0
 14 13  1  0  0  0  0
 15 14  2  0  0  0  0
 16 17  2  0  0  0  0
 16 15  1  0  0  0  0
 17 24  1  0  0  0  0
 18 19  2  0  0  0  0
 18 17  1  0  0  0  0
 19 21  1  0  0  0  0
 20 19  1  0  0  0  0
 21 22  1  0  0  0  0
 21 23  2  0  0  0  0
 24 23  1  0  0  0  0
 24 13  2  0  0  0  0
 25 36  1  0  0  0  0
 25 30  1  0  0  0  0
 26 25  2  0  0  0  0
 27 26  1  0  0  0  0
 27 28  2  0  0  0  0
 28 29  1  0  0  0  0
 29 30  2  0  0  0  0
 29 31  1  0  0  0  0
 31 32  1  0  0  0  0
 32 39  1  0  0  0  0
 32 38  1  0  0  0  0
 32 33  1  0  0  0  0
 33 40  1  0  0  0  0
 33 41  1  0  0  0  0
 34 43  1  0  0  0  0
 34 42  1  0  0  0  0
 34 33  1  0  0  0  0
 35 44  1  6  0  0  0
 35 31  1  0  0  0  0
 35 34  1  0  0  0  0
 37 27  1  0  0  0  0
 45 47  1  0  0  0  0
 45 26  1  0  0  0  0
 46 45  1  0  0  0  0
M  END
>  <minimizedAffinity>
-5.73648453

>  <minimizedRMSD>
0.405792028

$$$$
