
 OpenBabel03252508003D

 32 35  0  0  1  0  0  0  0  0999 V2000
   46.2870   33.2920   44.0210 C   0  0  0  0  0  0  0  0  0  0  0  0
   45.4140   34.3880   44.3490 C   0  0  0  0  0  0  0  0  0  0  0  0
   45.0070   34.4780   45.6780 C   0  0  0  0  0  0  0  0  0  0  0  0
   45.4450   33.5510   46.5630 N   0  0  0  0  0  0  0  0  0  0  0  0
   46.2790   32.5270   46.1850 C   0  0  0  0  0  0  0  0  0  0  0  0
   46.7100   32.3750   44.9400 N   0  0  0  0  0  0  0  0  0  0  0  0
   45.1260   35.0630   43.5840 H   0  0  0  0  0  0  0  0  0  0  0  0
   44.3550   35.2850   45.9560 H   0  0  0  0  0  0  0  0  0  0  0  0
   46.7220   31.5480   47.2200 C   0  0  1  0  0  0  0  0  0  0  0  0
   47.7170   31.9990   48.2630 C   0  0  0  0  0  0  0  0  0  0  0  0
   46.2570   31.8490   48.5890 C   0  0  1  0  0  0  0  0  0  0  0  0
   46.7800   30.4900   46.8980 H   0  0  0  0  0  0  0  0  0  0  0  0
   48.4300   31.2190   48.6010 H   0  0  0  0  0  0  0  0  0  0  0  0
   48.1480   33.0050   48.0390 H   0  0  0  0  0  0  0  0  0  0  0  0
   46.0470   31.0180   49.3060 H   0  0  0  0  0  0  0  0  0  0  0  0
   45.6130   33.1390   48.8640 N   0  0  0  0  0  0  0  0  0  0  0  0
   46.3160   33.8810   49.1020 H   0  0  0  0  0  0  0  0  0  0  0  0
   45.0340   33.0220   49.7360 H   0  0  0  0  0  0  0  0  0  0  0  0
   46.6750   33.1920   42.6380 C   0  0  2  0  0  3  0  0  0  0  0  0
   46.3150   32.1700   41.9190 O   0  0  0  0  0  1  0  0  0  0  0  0
   47.4480   34.0000   41.7000 C   0  0  0  0  0  0  0  0  0  0  0  0
   48.2170   34.9830   42.1910 N   0  0  0  0  0  0  0  0  0  0  0  0
   48.9770   35.7960   41.3940 C   0  0  0  0  0  3  0  0  0  0  0  0
   48.9910   35.6480   40.0720 N   0  0  0  0  0  0  0  0  0  0  0  0
   48.2470   34.6810   39.4630 C   0  0  0  0  0  0  0  0  0  0  0  0
   48.2360   34.4920   38.1010 C   0  0  0  0  0  3  0  0  0  0  0  0
   47.4780   33.5020   37.5130 C   0  0  0  0  0  0  0  0  0  0  0  0
   47.5520   33.4520   36.4480 H   0  0  0  0  0  0  0  0  0  0  0  0
   46.7230   32.7010   38.3730 C   0  0  0  0  0  0  0  0  0  0  0  0
   46.1430   31.9370   37.8860 H   0  0  0  0  0  0  0  0  0  0  0  0
   46.7740   32.9360   39.7200 C   0  0  0  0  0  3  0  0  0  0  0  0
   47.5150   33.9110   40.3310 C   0  0  0  0  0  0  0  0  0  0  0  0
  1  2  2  0  0  0  0
  1  6  1  0  0  0  0
  2  3  1  0  0  0  0
  3  8  1  0  0  0  0
  3  4  2  0  0  0  0
  5  4  1  0  0  0  0
  5  9  1  0  0  0  0
  6  5  2  0  0  0  0
  7  2  1  0  0  0  0
  9 12  1  6  0  0  0
  9 10  1  0  0  0  0
  9 11  1  0  0  0  0
 10 11  1  0  0  0  0
 10 13  1  0  0  0  0
 11 16  1  0  0  0  0
 11 15  1  1  0  0  0
 14 10  1  0  0  0  0
 16 17  1  0  0  0  0
 16 18  1  0  0  0  0
 19 20  1  1  0  0  0
 19  1  1  0  0  0  0
 21 22  1  0  0  0  0
 21 19  1  0  0  0  0
 23 22  2  0  0  0  0
 24 23  1  0  0  0  0
 25 24  2  0  0  0  0
 25 32  1  0  0  0  0
 26 25  1  0  0  0  0
 27 26  2  0  0  0  0
 27 29  1  0  0  0  0
 28 27  1  0  0  0  0
 29 31  2  0  0  0  0
 30 29  1  0  0  0  0
 31 32  1  0  0  0  0
 32 21  2  0  0  0  0
M  END
>  <minimizedAffinity>
-5.55427027

>  <minimizedRMSD>
2.32048035

$$$$
