
 OpenBabel03252500283D

 46 49  0  0  1  0  0  0  0  0999 V2000
   47.8220   32.6040   48.0490 O   0  0  0  0  0  0  0  0  0  0  0  0
   46.8640   31.7150   47.3350 P   0  0  1  0  0  0  0  0  0  0  0  0
   47.6920   30.8550   46.1380 O   0  0  0  0  0  0  0  0  0  0  0  0
   47.1920   30.7600   45.2950 H   0  0  0  0  0  0  0  0  0  0  0  0
   46.2450   30.6670   48.4580 O   0  0  0  0  0  0  0  0  0  0  0  0
   46.7940   28.8640   46.9930 C   0  0  2  0  0  0  0  0  0  0  0  0
   45.7830   29.5340   47.8390 C   0  0  2  0  0  0  0  0  0  0  0  0
   44.6340   29.7720   46.9910 C   0  0  0  0  0  0  0  0  0  0  0  0
   44.6740   28.8720   45.9180 O   0  0  0  0  0  0  0  0  0  0  0  0
   45.7280   28.0560   46.1500 C   0  0  0  0  0  0  0  0  0  0  0  0
   47.1940   29.4060   46.1210 H   0  0  0  0  0  0  0  0  0  0  0  0
   45.6600   28.8110   48.6990 H   0  0  0  0  0  0  0  0  0  0  0  0
   43.7830   29.2560   47.5660 H   0  0  0  0  0  0  0  0  0  0  0  0
   44.1380   30.7060   46.8490 H   0  0  0  0  0  0  0  0  0  0  0  0
   45.3900   27.2320   46.8280 H   0  0  0  0  0  0  0  0  0  0  0  0
   46.2040   27.5700   45.3010 H   0  0  0  0  0  0  0  0  0  0  0  0
   47.6030   27.9700   47.5810 O   0  0  0  0  0  0  0  0  0  0  0  0
   48.8840   27.8440   47.3780 C   0  0  0  0  0  0  0  0  0  0  0  0
   49.5790   28.4240   47.9160 H   0  0  0  0  0  0  0  0  0  0  0  0
   49.0570   28.3290   46.2840 H   0  0  0  0  0  0  0  0  0  0  0  0
   49.1900   26.3670   47.1560 C   0  0  0  0  0  0  0  0  0  0  0  0
   49.5490   25.8930   48.1010 H   0  0  0  0  0  0  0  0  0  0  0  0
   48.3010   25.8040   46.8580 H   0  0  0  0  0  0  0  0  0  0  0  0
   49.9960   26.2910   46.4030 H   0  0  0  0  0  0  0  0  0  0  0  0
   45.6720   32.7380   46.6720 O   0  0  0  0  0  0  0  0  0  0  0  0
   45.2820   32.4790   43.1110 C   0  0  0  0  0  0  0  0  0  0  0  0
   45.6570   33.7550   42.6300 C   0  0  0  0  0  0  0  0  0  0  0  0
   46.0470   34.6950   43.6090 C   0  0  0  0  0  0  0  0  0  0  0  0
   46.0420   34.3360   44.9100 N   0  0  0  0  0  0  0  0  0  0  0  0
   45.6770   33.1110   45.3190 C   0  0  0  0  0  0  0  0  0  0  0  0
   45.3020   32.1940   44.4170 N   0  0  0  0  0  0  0  0  0  0  0  0
   45.6520   34.0170   41.5770 H   0  0  0  0  0  0  0  0  0  0  0  0
   46.3480   35.6930   43.3120 H   0  0  0  0  0  0  0  0  0  0  0  0
   44.8950   31.5390   42.2080 O   0  0  0  0  0  0  0  0  0  0  0  0
   43.6530   31.4180   41.6570 C   0  0  0  0  0  0  0  0  0  0  0  0
   42.5450   31.2080   42.4250 N   0  0  0  0  0  0  0  0  0  0  0  0
   41.3540   31.1000   41.8080 C   0  0  0  0  0  3  0  0  0  0  0  0
   41.2290   31.1920   40.4760 N   0  0  0  0  0  0  0  0  0  0  0  0
   42.3020   31.4000   39.6890 C   0  0  0  0  0  0  0  0  0  0  0  0
   42.1920   31.4980   38.3120 C   0  0  0  0  0  3  0  0  0  0  0  0
   43.2930   31.7100   37.5120 C   0  0  0  0  0  0  0  0  0  0  0  0
   43.2480   31.7910   36.4400 H   0  0  0  0  0  0  0  0  0  0  0  0
   44.5390   31.8240   38.1330 C   0  0  0  0  0  0  0  0  0  0  0  0
   45.3950   31.9910   37.4950 H   0  0  0  0  0  0  0  0  0  0  0  0
   44.6910   31.7310   39.5190 C   0  0  0  0  0  3  0  0  0  0  0  0
   43.5650   31.5210   40.2660 C   0  0  0  0  0  0  0  0  0  0  0  0
  2  1  2  1  0  0  0
  2  5  1  0  0  0  0
  3  2  1  0  0  0  0
  4  3  1  0  0  0  0
  6 11  1  6  0  0  0
  6 17  1  0  0  0  0
  6  7  1  0  0  0  0
  7  5  1  0  0  0  0
  7 12  1  1  0  0  0
  8 13  1  0  0  0  0
  8  7  1  0  0  0  0
  9 10  1  0  0  0  0
  9  8  1  0  0  0  0
 10 15  1  0  0  0  0
 10  6  1  0  0  0  0
 14  8  1  0  0  0  0
 16 10  1  0  0  0  0
 18 17  1  0  0  0  0
 18 19  1  0  0  0  0
 20 18  1  0  0  0  0
 21 18  1  0  0  0  0
 21 22  1  0  0  0  0
 23 21  1  0  0  0  0
 24 21  1  0  0  0  0
 25  2  1  0  0  0  0
 26 31  1  0  0  0  0
 27 26  2  0  0  0  0
 27 28  1  0  0  0  0
 28 29  2  0  0  0  0
 29 30  1  0  0  0  0
 30 25  1  0  0  0  0
 31 30  2  0  0  0  0
 32 27  1  0  0  0  0
 33 28  1  0  0  0  0
 34 26  1  0  0  0  0
 35 34  1  0  0  0  0
 35 36  1  0  0  0  0
 37 36  2  0  0  0  0
 38 37  1  0  0  0  0
 39 46  1  0  0  0  0
 39 38  2  0  0  0  0
 40 39  1  0  0  0  0
 41 43  1  0  0  0  0
 41 40  2  0  0  0  0
 42 41  1  0  0  0  0
 43 45  2  0  0  0  0
 44 43  1  0  0  0  0
 45 46  1  0  0  0  0
 46 35  2  0  0  0  0
M  END
>  <minimizedAffinity>
-3.58661914

>  <minimizedRMSD>
6.34428549

$$$$
