
 OpenBabel03252503273D

 28 30  0  0  0  0  0  0  0  0999 V2000
   45.2630   34.8240   42.5870 C   0  0  0  0  0  0  0  0  0  0  0  0
   46.3470   35.2490   41.7860 C   0  0  0  0  0  0  0  0  0  0  0  0
   47.6170   34.8670   42.2660 C   0  0  0  0  0  0  0  0  0  0  0  0
   47.6910   34.1510   43.4140 N   0  0  0  0  0  0  0  0  0  0  0  0
   46.6040   33.7780   44.1330 C   0  0  0  0  0  0  0  0  0  0  0  0
   45.3800   34.1190   43.7140 N   0  0  0  0  0  0  0  0  0  0  0  0
   43.4680   34.3650   41.0930 C   0  0  0  0  0  0  0  0  0  0  0  0
   44.2830   33.5190   40.6490 O   0  0  0  0  0  0  0  0  0  0  0  0
   43.9300   35.1440   42.1780 N   0  0  0  0  0  0  0  0  0  0  0  0
   46.2030   35.8120   40.8930 H   0  0  0  0  0  0  0  0  0  0  0  0
   46.8200   33.2090   45.0280 H   0  0  0  0  0  0  0  0  0  0  0  0
   43.4080   35.8750   42.6610 H   0  0  0  0  0  0  0  0  0  0  0  0
   42.0830   34.7380   40.7140 C   0  0  0  0  0  0  0  0  0  0  0  0
   41.4640   35.8650   41.1170 N   0  0  0  0  0  0  0  0  0  0  0  0
   40.2280   36.1970   40.7800 C   0  0  0  0  0  3  0  0  0  0  0  0
   39.4800   35.4270   39.9980 N   0  0  0  0  0  0  0  0  0  0  0  0
   40.0090   34.2680   39.5370 C   0  0  0  0  0  0  0  0  0  0  0  0
   39.2320   33.4760   38.7290 C   0  0  0  0  0  3  0  0  0  0  0  0
   39.7110   32.2990   38.2360 C   0  0  0  0  0  0  0  0  0  0  0  0
   39.0320   31.7410   37.6110 H   0  0  0  0  0  0  0  0  0  0  0  0
   41.0040   31.9450   38.5850 C   0  0  0  0  0  0  0  0  0  0  0  0
   41.3600   31.0010   38.1780 H   0  0  0  0  0  0  0  0  0  0  0  0
   41.7480   32.7710   39.3990 C   0  0  0  0  0  3  0  0  0  0  0  0
   41.2970   33.9540   39.9080 C   0  0  0  0  0  0  0  0  0  0  0  0
   48.7400   35.3060   41.4350 C   0  0  0  0  0  0  0  0  0  0  0  0
   49.8360   34.4640   41.6860 F   0  0  0  0  0  0  0  0  0  0  0  0
   49.1070   36.5540   41.8840 F   0  0  0  0  0  0  0  0  0  0  0  0
   48.4870   35.2360   40.0920 F   0  0  0  0  0  0  0  0  0  0  0  0
  1  6  1  0  0  0  0
  2  3  1  0  0  0  0
  2  1  2  0  0  0  0
  3  4  2  0  0  0  0
  4  5  1  0  0  0  0
  5 11  1  0  0  0  0
  6  5  2  0  0  0  0
  7  9  1  0  0  0  0
  8  7  2  0  0  0  0
  9  1  1  0  0  0  0
  9 12  1  0  0  0  0
 10  2  1  0  0  0  0
 13  7  1  0  0  0  0
 13 14  1  0  0  0  0
 15 14  2  0  0  0  0
 16 15  1  0  0  0  0
 17 24  1  0  0  0  0
 17 16  2  0  0  0  0
 18 17  1  0  0  0  0
 19 21  1  0  0  0  0
 19 18  2  0  0  0  0
 20 19  1  0  0  0  0
 21 23  2  0  0  0  0
 22 21  1  0  0  0  0
 23 24  1  0  0  0  0
 24 13  2  0  0  0  0
 25 26  1  0  0  0  0
 25 27  1  0  0  0  0
 25  3  1  0  0  0  0
 28 25  1  0  0  0  0
M  END
>  <minimizedAffinity>
-6.75141048

>  <minimizedRMSD>
1.63392985

$$$$
