
 OpenBabel03252507043D

 50 54  0  0  0  0  0  0  0  0999 V2000
   41.1260   34.0820   40.0600 N   0  0  0  0  0  0  0  0  0  0  0  0
   40.8100   32.8400   39.4390 C   0  0  0  0  0  0  0  0  0  0  0  0
   39.6020   32.4510   40.2910 C   0  0  0  0  0  0  0  0  0  0  0  0
   38.5070   33.4030   40.2320 C   0  0  0  0  0  0  0  0  0  0  0  0
   38.7840   34.7790   39.8810 C   0  0  0  0  0  0  0  0  0  0  0  0
   40.2230   35.2260   39.7870 C   0  0  0  0  0  0  0  0  0  0  0  0
   40.6370   32.8110   38.3760 H   0  0  0  0  0  0  0  0  0  0  0  0
   41.6140   32.1160   39.7650 H   0  0  0  0  0  0  0  0  0  0  0  0
   39.2840   31.4190   40.0340 H   0  0  0  0  0  0  0  0  0  0  0  0
   40.0140   32.3890   41.3350 H   0  0  0  0  0  0  0  0  0  0  0  0
   37.7220   33.0310   39.5240 H   0  0  0  0  0  0  0  0  0  0  0  0
   37.9760   33.4060   41.2280 H   0  0  0  0  0  0  0  0  0  0  0  0
   38.0740   35.5330   39.6970 H   0  0  0  0  0  0  0  0  0  0  0  0
   42.1360   34.3570   40.8860 C   0  0  0  0  0  0  0  0  0  0  0  0
   42.0880   35.4070   41.3390 H   0  0  0  0  0  0  0  0  0  0  0  0
   42.1690   33.6950   41.7780 H   0  0  0  0  0  0  0  0  0  0  0  0
   43.4720   34.3080   40.2350 C   0  0  0  0  0  0  0  0  0  0  0  0
   43.7280   33.2790   39.8570 H   0  0  0  0  0  0  0  0  0  0  0  0
   43.5570   34.9720   39.3470 H   0  0  0  0  0  0  0  0  0  0  0  0
   44.4780   34.7680   41.2100 C   0  0  0  0  0  0  0  0  0  0  0  0
   44.1460   35.7030   42.1650 C   0  0  0  0  0  0  0  0  0  0  0  0
   45.1320   36.1120   43.0510 C   0  0  0  0  0  0  0  0  0  0  0  0
   46.3790   35.5670   42.9330 N   0  0  0  0  0  0  0  0  0  0  0  0
   46.6620   34.6650   41.9980 C   0  0  0  0  0  0  0  0  0  0  0  0
   45.6980   34.2850   41.1530 N   0  0  0  0  0  0  0  0  0  0  0  0
   43.2410   36.2250   42.4240 H   0  0  0  0  0  0  0  0  0  0  0  0
   45.0570   36.8360   43.8620 H   0  0  0  0  0  0  0  0  0  0  0  0
   48.0160   34.1130   41.9630 C   0  0  0  0  0  0  0  0  0  0  0  0
   48.2650   32.8850   41.3560 C   0  0  0  0  0  0  0  0  0  0  0  0
   49.5370   32.3760   41.3330 C   0  0  0  0  0  0  0  0  0  0  0  0
   50.4790   33.1640   41.9380 C   0  0  0  0  0  0  0  0  0  0  0  0
   50.2930   34.4010   42.5630 C   0  0  0  0  0  0  0  0  0  0  0  0
   49.0050   34.8270   42.5380 N   0  0  0  0  0  0  0  0  0  0  0  0
   47.4620   32.3100   40.8930 H   0  0  0  0  0  0  0  0  0  0  0  0
   49.8300   31.4390   40.8910 H   0  0  0  0  0  0  0  0  0  0  0  0
   51.5210   32.8070   41.9520 H   0  0  0  0  0  0  0  0  0  0  0  0
   51.0950   34.9350   43.0050 H   0  0  0  0  0  0  0  0  0  0  0  0
   40.6920   36.8580   39.4490 S   0  0  0  0  0  0  0  0  0  0  0  0
   40.7810   37.2160   37.7410 C   0  0  0  0  0  0  0  0  0  0  0  0
   41.1600   36.5280   36.6700 N   0  0  0  0  0  0  0  0  0  0  0  0
   41.1630   36.9630   35.4230 C   0  0  0  0  0  3  0  0  0  0  0  0
   40.7570   38.2040   35.1500 N   0  0  0  0  0  0  0  0  0  0  0  0
   40.3470   39.0010   36.1570 C   0  0  0  0  0  0  0  0  0  0  0  0
   39.9480   40.2580   35.7780 C   0  0  0  0  0  3  0  0  0  0  0  0
   39.5190   41.1200   36.7540 C   0  0  0  0  0  0  0  0  0  0  0  0
   39.1830   42.1280   36.5790 H   0  0  0  0  0  0  0  0  0  0  0  0
   39.5000   40.7100   38.0510 C   0  0  0  0  0  0  0  0  0  0  0  0
   39.1710   41.3490   38.8630 H   0  0  0  0  0  0  0  0  0  0  0  0
   39.9100   39.4400   38.3830 C   0  0  0  0  0  3  0  0  0  0  0  0
   40.3570   38.5110   37.4540 C   0  0  0  0  0  0  0  0  0  0  0  0
  1 14  1  0  0  0  0
  2  8  1  0  0  0  0
  2  1  1  0  0  0  0
  2  3  1  0  0  0  0
  3 10  1  0  0  0  0
  4  3  1  0  0  0  0
  4 12  1  0  0  0  0
  5  4  1  0  0  0  0
  6  5  2  0  0  0  0
  6  1  1  0  0  0  0
  7  2  1  0  0  0  0
  9  3  1  0  0  0  0
 11  4  1  0  0  0  0
 13  5  1  0  0  0  0
 14 15  1  0  0  0  0
 14 16  1  0  0  0  0
 17 14  1  0  0  0  0
 17 20  1  0  0  0  0
 18 17  1  0  0  0  0
 19 17  1  0  0  0  0
 20 21  1  0  0  0  0
 21 26  1  0  0  0  0
 21 22  2  0  0  0  0
 22 27  1  0  0  0  0
 23 22  1  0  0  0  0
 24 23  2  0  0  0  0
 25 20  2  0  0  0  0
 25 24  1  0  0  0  0
 28 24  1  0  0  0  0
 28 33  1  0  0  0  0
 29 28  2  0  0  0  0
 30 29  1  0  0  0  0
 30 31  2  0  0  0  0
 31 36  1  0  0  0  0
 31 32  1  0  0  0  0
 32 37  1  0  0  0  0
 33 32  2  0  0  0  0
 34 29  1  0  0  0  0
 35 30  1  0  0  0  0
 38  6  1  0  0  0  0
 39 38  1  0  0  0  0
 40 39  2  0  0  0  0
 41 40  1  0  0  0  0
 42 41  2  0  0  0  0
 42 43  1  0  0  0  0
 43 50  1  0  0  0  0
 44 43  2  0  0  0  0
 44 45  1  0  0  0  0
 45 47  2  0  0  0  0
 46 45  1  0  0  0  0
 47 49  1  0  0  0  0
 47 48  1  0  0  0  0
 50 39  1  0  0  0  0
 50 49  2  0  0  0  0
M  END
>  <minimizedAffinity>
-0.509614527

>  <minimizedRMSD>
1.15022922

$$$$
