
 OpenBabel03252508033D

 45 49  0  0  1  0  0  0  0  0999 V2000
   42.0070   33.3150   41.1980 C   0  0  0  0  0  0  0  0  0  0  0  0
   42.7840   34.4280   41.3320 C   0  0  0  0  0  0  0  0  0  0  0  0
   42.1660   35.6910   41.2210 C   0  0  0  0  0  0  0  0  0  0  0  0
   40.8160   35.8430   40.9850 C   0  0  0  0  0  0  0  0  0  0  0  0
   40.0450   34.7220   40.8530 C   0  0  0  0  0  0  0  0  0  0  0  0
   40.6400   33.5020   40.9590 C   0  0  0  0  0  0  0  0  0  0  0  0
   42.6950   36.6250   41.3040 H   0  0  0  0  0  0  0  0  0  0  0  0
   40.3480   36.8040   40.9030 H   0  0  0  0  0  0  0  0  0  0  0  0
   39.0010   34.7630   40.6710 H   0  0  0  0  0  0  0  0  0  0  0  0
   40.0170   32.5990   40.8510 H   0  0  0  0  0  0  0  0  0  0  0  0
   42.6280   31.7530   41.3530 S   0  0  0  0  0  0  0  0  0  0  0  0
   42.0320   31.0290   40.1490 O   0  0  0  0  0  0  0  0  0  0  0  0
   42.0480   31.1360   42.6060 O   0  0  0  0  0  0  0  0  0  0  0  0
   44.1130   31.1090   41.0130 C   0  0  0  0  0  0  0  0  0  0  0  0
   44.7700   31.0880   39.8300 N   0  0  0  0  0  0  0  0  0  0  0  0
   45.8570   30.4760   39.4490 C   0  0  0  0  0  3  0  0  0  0  0  0
   46.4280   29.7350   40.3860 N   0  0  0  0  0  0  0  0  0  0  0  0
   45.9230   29.6330   41.6170 C   0  0  0  0  0  0  0  0  0  0  0  0
   46.6700   28.7950   42.4470 C   0  0  0  0  0  3  0  0  0  0  0  0
   46.2100   28.6320   43.7380 C   0  0  0  0  0  0  0  0  0  0  0  0
   46.7440   27.9960   44.4250 H   0  0  0  0  0  0  0  0  0  0  0  0
   45.0650   29.2870   44.1390 C   0  0  0  0  0  0  0  0  0  0  0  0
   44.7290   29.1430   45.1560 H   0  0  0  0  0  0  0  0  0  0  0  0
   44.4040   30.0890   43.2400 C   0  0  0  0  0  3  0  0  0  0  0  0
   44.7770   30.3130   41.9380 C   0  0  0  0  0  0  0  0  0  0  0  0
   44.2140   34.3720   41.5640 C   0  0  0  0  0  0  0  0  0  0  0  0
   45.0870   34.2600   40.6340 O   0  0  0  0  0  0  0  0  0  0  0  0
   44.5670   34.4580   42.9510 C   0  0  0  0  0  0  0  0  0  0  0  0
   44.2790   35.7090   43.5730 C   0  0  0  0  0  0  0  0  0  0  0  0
   44.6060   35.8180   44.9240 C   0  0  0  0  0  0  0  0  0  0  0  0
   45.1650   34.7460   45.5470 N   0  0  0  0  0  0  0  0  0  0  0  0
   45.4120   33.5870   44.8960 C   0  0  0  0  0  0  0  0  0  0  0  0
   45.1190   33.4630   43.6450 N   0  0  0  0  0  0  0  0  0  0  0  0
   43.8500   36.5940   43.1760 H   0  0  0  0  0  0  0  0  0  0  0  0
   44.4440   36.7060   45.5230 H   0  0  0  0  0  0  0  0  0  0  0  0
   46.0160   32.4630   45.6580 C   0  0  1  0  0  0  0  0  0  0  0  0
   46.9690   32.7800   46.7920 C   0  0  0  0  0  0  0  0  0  0  0  0
   45.5700   32.3290   47.0510 C   0  0  1  0  0  0  0  0  0  0  0  0
   46.2140   31.5550   45.0850 H   0  0  0  0  0  0  0  0  0  0  0  0
   47.7550   32.0160   46.9810 H   0  0  0  0  0  0  0  0  0  0  0  0
   47.2640   33.8400   46.8750 H   0  0  0  0  0  0  0  0  0  0  0  0
   45.4040   31.3200   47.4700 H   0  0  0  0  0  0  0  0  0  0  0  0
   44.7670   33.3880   47.6550 N   0  0  0  0  0  0  0  0  0  0  0  0
   44.1990   32.9910   48.4620 H   0  0  0  0  0  0  0  0  0  0  0  0
   45.3110   34.1780   48.0190 H   0  0  0  0  0  0  0  0  0  0  0  0
  1  2  1  0  0  0  0
  1 11  1  0  0  0  0
  2 26  1  0  0  0  0
  3  7  1  0  0  0  0
  3  2  2  0  0  0  0
  4  3  1  0  0  0  0
  5  6  1  0  0  0  0
  5  4  2  0  0  0  0
  6  1  2  0  0  0  0
  8  4  1  0  0  0  0
  9  5  1  0  0  0  0
 10  6  1  0  0  0  0
 11 13  2  0  0  0  0
 12 11  2  0  0  0  0
 14 11  1  0  0  0  0
 14 25  1  0  0  0  0
 15 14  2  0  0  0  0
 16 15  1  0  0  0  0
 16 17  2  0  0  0  0
 17 18  1  0  0  0  0
 18 25  2  0  0  0  0
 18 19  1  0  0  0  0
 19 20  2  0  0  0  0
 20 22  1  0  0  0  0
 20 21  1  0  0  0  0
 22 23  1  0  0  0  0
 24 22  2  0  0  0  0
 25 24  1  0  0  0  0
 26 28  1  0  0  0  0
 27 26  2  0  0  0  0
 28 29  2  0  0  0  0
 28 33  1  0  0  0  0
 29 30  1  0  0  0  0
 30 35  1  0  0  0  0
 30 31  2  0  0  0  0
 32 31  1  0  0  0  0
 32 36  1  0  0  0  0
 33 32  2  0  0  0  0
 34 29  1  0  0  0  0
 36 39  1  6  0  0  0
 36 37  1  0  0  0  0
 36 38  1  0  0  0  0
 37 41  1  0  0  0  0
 37 40  1  0  0  0  0
 37 38  1  0  0  0  0
 38 42  1  1  0  0  0
 38 43  1  0  0  0  0
 43 45  1  0  0  0  0
 43 44  1  0  0  0  0
M  END
>  <minimizedAffinity>
-5.93163586

>  <minimizedRMSD>
0.773438871

$$$$
