REMARK  Name = 
REMARK  3 active torsions:
REMARK  status: ('A' for Active; 'I' for Inactive)
REMARK    1  A    between atoms: C_2  and  N_12
REMARK    2  A    between atoms: C_11  and  S_13
REMARK    3  A    between atoms: S_13  and  C_25
REMARK                            x       y       z     vdW  Elec       q    Type
REMARK                         _______ _______ _______ _____ _____    ______ ____
ROOT
ATOM      1  C   UNL     1      44.500  35.746  44.997  0.00  0.00    +0.000 A 
ATOM      2  C   UNL     1      45.129  35.708  43.741  0.00  0.00    +0.000 A 
ATOM      3  C   UNL     1      46.017  34.708  43.476  0.00  0.00    +0.000 A 
ATOM      4  N   UNL     1      46.226  33.810  44.470  0.00  0.00    +0.000 NA
ATOM      5  C   UNL     1      45.631  33.851  45.651  0.00  0.00    +0.000 A 
ATOM      6  N   UNL     1      44.751  34.817  45.956  0.00  0.00    +0.000 NA
ATOM      7  N   UNL     1      45.950  32.841  46.590  0.00  0.00    +0.000 N 
ATOM      8  C   UNL     1      45.162  32.561  47.800  0.00  0.00    +0.000 C 
ATOM      9  C   UNL     1      46.239  32.235  48.809  0.00  0.00    +0.000 C 
ATOM     10  C   UNL     1      47.521  32.079  48.038  0.00  0.00    +0.000 C 
ATOM     11  C   UNL     1      47.024  31.895  46.629  0.00  0.00    +0.000 C 
ATOM     12  H   UNL     1      43.770  36.505  45.318  0.00  0.00    +0.000 HD
ATOM     13  H   UNL     1      46.466  34.717  42.518  0.00  0.00    +0.000 HD
ATOM     14  H   UNL     1      44.420  31.770  47.652  0.00  0.00    +0.000 HD
ATOM     15  H   UNL     1      44.708  33.528  48.131  0.00  0.00    +0.000 HD
ATOM     16  H   UNL     1      45.991  31.216  49.206  0.00  0.00    +0.000 HD
ATOM     17  H   UNL     1      46.302  32.959  49.625  0.00  0.00    +0.000 HD
ATOM     18  H   UNL     1      48.170  31.258  48.383  0.00  0.00    +0.000 HD
ATOM     19  H   UNL     1      48.037  33.077  48.061  0.00  0.00    +0.000 HD
ATOM     20  H   UNL     1      47.765  32.226  45.870  0.00  0.00    +0.000 HD
ENDROOT
BRANCH   2  21
ATOM     21  N   UNL     1      44.741  36.774  42.852  0.00  0.00    +0.000 N 
ATOM     22  H   UNL     1      43.785  36.850  42.411  0.00  0.00    +0.000 HD
ATOM     23  H   UNL     1      45.490  37.467  42.683  0.00  0.00    +0.000 HD
ENDBRANCH   2  21
BRANCH  11  24
ATOM     24  S   UNL     1      46.491  30.200  46.401  0.00  0.00    +0.000 S 
BRANCH  24  25
ATOM     25  C   UNL     1      45.878  29.821  44.794  0.00  0.00    +0.000 A 
ATOM     26  N   UNL     1      44.748  29.138  44.437  0.00  0.00    +0.000 NA
ATOM     27  C   UNL     1      44.481  28.953  43.135  0.00  0.00    +0.000 A 
ATOM     28  N   UNL     1      45.250  29.392  42.122  0.00  0.00    +0.000 NA
ATOM     29  C   UNL     1      46.379  30.074  42.431  0.00  0.00    +0.000 A 
ATOM     30  C   UNL     1      47.112  30.485  41.340  0.00  0.00    +0.000 A 
ATOM     31  C   UNL     1      48.289  31.189  41.616  0.00  0.00    +0.000 A 
ATOM     32  H   UNL     1      48.921  31.546  40.819  0.00  0.00    +0.000 HD
ATOM     33  C   UNL     1      48.647  31.428  42.917  0.00  0.00    +0.000 A 
ATOM     34  H   UNL     1      49.555  31.971  43.153  0.00  0.00    +0.000 HD
ATOM     35  C   UNL     1      47.858  30.982  43.955  0.00  0.00    +0.000 A 
ATOM     36  C   UNL     1      46.674  30.276  43.761  0.00  0.00    +0.000 A 
ENDBRANCH  24  25
ENDBRANCH  11  24
TORSDOF 3
