
 OpenBabel03252506383D

 47 51  0  0  1  0  0  0  0  0999 V2000
   46.7190   29.9910   46.5060 S   0  0  0  0  0  0  0  0  0  0  0  0
   45.3280   30.8230   43.5870 O   0  0  0  0  0  0  0  0  0  0  0  0
   44.8380   30.1190   44.4840 C   0  0  0  0  0  0  0  0  0  0  0  0
   45.1160   29.7060   45.8820 C   0  0  1  0  0  0  0  0  0  0  0  0
   44.6790   28.2620   45.8750 C   0  0  0  0  0  0  0  0  0  0  0  0
   43.2770   28.4790   45.3010 C   0  0  0  0  0  0  0  0  0  0  0  0
   43.6090   29.4170   44.2350 N   0  0  0  0  0  0  0  0  0  0  0  0
   44.2430   30.2010   46.3910 H   0  0  0  0  0  0  0  0  0  0  0  0
   44.5580   27.8340   46.8840 H   0  0  0  0  0  0  0  0  0  0  0  0
   45.2970   27.6520   45.2120 H   0  0  0  0  0  0  0  0  0  0  0  0
   42.6750   29.0120   46.0640 H   0  0  0  0  0  0  0  0  0  0  0  0
   42.8300   27.5460   44.9410 H   0  0  0  0  0  0  0  0  0  0  0  0
   42.6980   29.5090   43.1220 C   0  0  0  0  0  0  0  0  0  0  0  0
   41.7760   28.5310   42.9710 N   0  0  0  0  0  0  0  0  0  0  0  0
   40.8760   28.5400   41.9460 C   0  0  0  0  0  3  0  0  0  0  0  0
   40.8730   29.5270   41.0460 N   0  0  0  0  0  0  0  0  0  0  0  0
   41.7790   30.5170   41.1700 C   0  0  0  0  0  0  0  0  0  0  0  0
   41.8070   31.5520   40.2590 C   0  0  0  0  0  3  0  0  0  0  0  0
   42.7280   32.5870   40.3600 C   0  0  0  0  0  0  0  0  0  0  0  0
   42.7350   33.3910   39.6370 H   0  0  0  0  0  0  0  0  0  0  0  0
   43.6310   32.5430   41.4190 C   0  0  0  0  0  0  0  0  0  0  0  0
   44.3320   33.3650   41.4640 H   0  0  0  0  0  0  0  0  0  0  0  0
   43.6470   31.5230   42.3640 C   0  0  0  0  0  3  0  0  0  0  0  0
   42.7030   30.5350   42.1960 C   0  0  0  0  0  0  0  0  0  0  0  0
   44.5260   35.4720   45.1860 C   0  0  0  0  0  0  0  0  0  0  0  0
   45.1860   35.4900   43.9320 C   0  0  0  0  0  0  0  0  0  0  0  0
   46.1170   34.5420   43.6590 C   0  0  0  0  0  0  0  0  0  0  0  0
   46.3610   33.6210   44.6240 N   0  0  0  0  0  0  0  0  0  0  0  0
   45.7400   33.6080   45.7940 C   0  0  0  0  0  0  0  0  0  0  0  0
   44.8200   34.5270   46.0910 N   0  0  0  0  0  0  0  0  0  0  0  0
   46.0830   32.5840   46.7440 N   0  0  0  0  0  0  0  0  0  0  0  0
   45.3520   32.3050   47.9230 C   0  0  0  0  0  0  0  0  0  0  0  0
   46.4320   31.9580   48.9300 C   0  0  0  0  0  0  0  0  0  0  0  0
   47.7130   31.8750   48.1540 C   0  0  0  0  0  0  0  0  0  0  0  0
   47.2130   31.6860   46.7250 C   0  0  1  0  0  0  0  0  0  0  0  0
   43.7840   36.2300   45.3990 H   0  0  0  0  0  0  0  0  0  0  0  0
   46.6180   34.5470   42.7240 H   0  0  0  0  0  0  0  0  0  0  0  0
   44.9500   33.3000   48.2940 H   0  0  0  0  0  0  0  0  0  0  0  0
   44.5720   31.6230   48.0160 H   0  0  0  0  0  0  0  0  0  0  0  0
   46.2350   30.9450   49.3810 H   0  0  0  0  0  0  0  0  0  0  0  0
   46.5080   32.6520   49.7660 H   0  0  0  0  0  0  0  0  0  0  0  0
   48.3030   31.0070   48.4830 H   0  0  0  0  0  0  0  0  0  0  0  0
   48.3110   32.8050   48.2280 H   0  0  0  0  0  0  0  0  0  0  0  0
   48.0020   31.9900   46.0360 H   0  0  0  0  0  0  0  0  0  0  0  0
   44.8160   36.5350   43.0170 N   0  0  0  0  0  0  0  0  0  0  0  0
   45.5440   36.9140   42.3490 H   0  0  0  0  0  0  0  0  0  0  0  0
   43.8410   36.8790   43.0480 H   0  0  0  0  0  0  0  0  0  0  0  0
  1 35  1  0  0  0  0
  2  3  2  0  0  0  0
  3  4  1  0  0  0  0
  4  8  1  1  0  0  0
  4  1  1  0  0  0  0
  5  4  1  0  0  0  0
  5  9  1  0  0  0  0
  6  5  1  0  0  0  0
  6 11  1  0  0  0  0
  7  3  1  0  0  0  0
  7  6  1  0  0  0  0
 10  5  1  0  0  0  0
 12  6  1  0  0  0  0
 13  7  1  0  0  0  0
 14 13  1  0  0  0  0
 15 14  2  0  0  0  0
 16 17  2  0  0  0  0
 16 15  1  0  0  0  0
 17 24  1  0  0  0  0
 18 19  2  0  0  0  0
 18 17  1  0  0  0  0
 19 21  1  0  0  0  0
 20 19  1  0  0  0  0
 21 22  1  0  0  0  0
 21 23  2  0  0  0  0
 24 23  1  0  0  0  0
 24 13  2  0  0  0  0
 25 36  1  0  0  0  0
 25 30  1  0  0  0  0
 26 25  2  0  0  0  0
 27 26  1  0  0  0  0
 27 28  2  0  0  0  0
 28 29  1  0  0  0  0
 29 30  2  0  0  0  0
 29 31  1  0  0  0  0
 31 32  1  0  0  0  0
 32 39  1  0  0  0  0
 32 38  1  0  0  0  0
 32 33  1  0  0  0  0
 33 40  1  0  0  0  0
 33 41  1  0  0  0  0
 34 43  1  0  0  0  0
 34 42  1  0  0  0  0
 34 33  1  0  0  0  0
 35 44  1  6  0  0  0
 35 31  1  0  0  0  0
 35 34  1  0  0  0  0
 37 27  1  0  0  0  0
 45 47  1  0  0  0  0
 45 26  1  0  0  0  0
 46 45  1  0  0  0  0
M  END
>  <minimizedAffinity>
-6.05347538

>  <minimizedRMSD>
0.492589146

$$$$
