
 OpenBabel03242522123D

 23 25  0  0  0  0  0  0  0  0999 V2000
   37.6830   28.8670   41.3490 C   0  0  0  0  0  0  0  0  0  0  0  0
   37.8470   29.2760   42.6170 N   0  0  0  0  0  0  0  0  0  0  0  0
   37.7370   28.4600   43.6790 C   0  0  0  0  0  3  0  0  0  0  0  0
   37.4480   27.1550   43.5360 N   0  0  0  0  0  0  0  0  0  0  0  0
   37.2700   26.6750   42.3000 C   0  0  0  0  0  0  0  0  0  0  0  0
   36.9730   25.3390   42.1320 C   0  0  0  0  0  3  0  0  0  0  0  0
   36.7780   24.7930   40.8640 C   0  0  0  0  0  0  0  0  0  0  0  0
   36.5520   23.7500   40.8240 H   0  0  0  0  0  0  0  0  0  0  0  0
   36.9020   25.6750   39.7950 C   0  0  0  0  0  0  0  0  0  0  0  0
   36.7470   25.2220   38.8340 H   0  0  0  0  0  0  0  0  0  0  0  0
   37.1970   26.9830   40.0150 C   0  0  0  0  0  3  0  0  0  0  0  0
   37.3890   27.5290   41.2440 C   0  0  0  0  0  0  0  0  0  0  0  0
   36.8250   31.7970   39.2710 C   0  0  0  0  0  0  0  0  0  0  0  0
   36.8500   30.8060   40.2530 C   0  0  0  0  0  0  0  0  0  0  0  0
   37.8170   29.8040   40.2540 C   0  0  0  0  0  0  0  0  0  0  0  0
   38.6860   29.9110   39.2300 N   0  0  0  0  0  0  0  0  0  0  0  0
   38.6820   30.8460   38.2820 C   0  0  0  0  0  0  0  0  0  0  0  0
   37.7510   31.8090   38.2840 N   0  0  0  0  0  0  0  0  0  0  0  0
   36.0800   32.5790   39.2610 H   0  0  0  0  0  0  0  0  0  0  0  0
   39.5180   30.5900   37.6630 H   0  0  0  0  0  0  0  0  0  0  0  0
   35.7930   30.9380   41.2350 N   0  0  0  0  0  0  0  0  0  0  0  0
   35.0880   31.0420   41.9270 H   0  0  0  0  0  0  0  0  0  0  0  0
   34.9820   30.4960   40.7090 H   0  0  0  0  0  0  0  0  0  0  0  0
  1  2  1  0  0  0  0
  2  3  2  0  0  0  0
  4  3  1  0  0  0  0
  5  4  2  0  0  0  0
  6  5  1  0  0  0  0
  7  6  2  0  0  0  0
  8  7  1  0  0  0  0
  9 11  2  0  0  0  0
  9  7  1  0  0  0  0
 10  9  1  0  0  0  0
 11 12  1  0  0  0  0
 12  1  2  0  0  0  0
 12  5  1  0  0  0  0
 13 14  1  0  0  0  0
 14 15  2  0  0  0  0
 14 21  1  0  0  0  0
 15  1  1  0  0  0  0
 16 15  1  0  0  0  0
 17 18  1  0  0  0  0
 17 16  2  0  0  0  0
 18 13  2  0  0  0  0
 19 13  1  0  0  0  0
 20 17  1  0  0  0  0
 21 22  1  0  0  0  0
 23 21  1  0  0  0  0
M  END
>  <minimizedAffinity>
-5.45839405

$$$$

 OpenBabel03242522123D

 23 25  0  0  0  0  0  0  0  0999 V2000
   37.9540   30.3430   40.2920 C   0  0  0  0  0  0  0  0  0  0  0  0
   37.3170   30.0740   39.1410 N   0  0  0  0  0  0  0  0  0  0  0  0
   36.4400   29.0660   38.9970 C   0  0  0  0  0  3  0  0  0  0  0  0
   36.1390   28.2450   40.0180 N   0  0  0  0  0  0  0  0  0  0  0  0
   36.7350   28.4510   41.1970 C   0  0  0  0  0  0  0  0  0  0  0  0
   36.4400   27.6200   42.2570 C   0  0  0  0  0  3  0  0  0  0  0  0
   37.0360   27.7950   43.5050 C   0  0  0  0  0  0  0  0  0  0  0  0
   36.7510   27.1070   44.2700 H   0  0  0  0  0  0  0  0  0  0  0  0
   37.9380   28.8510   43.6070 C   0  0  0  0  0  0  0  0  0  0  0  0
   38.3780   28.9580   44.5800 H   0  0  0  0  0  0  0  0  0  0  0  0
   38.1930   29.6420   42.5320 C   0  0  0  0  0  3  0  0  0  0  0  0
   37.6200   29.4820   41.3100 C   0  0  0  0  0  0  0  0  0  0  0  0
   39.0180   33.8750   40.4450 C   0  0  0  0  0  0  0  0  0  0  0  0
   38.2740   32.6970   40.3720 C   0  0  0  0  0  0  0  0  0  0  0  0
   38.8860   31.4460   40.3720 C   0  0  0  0  0  0  0  0  0  0  0  0
   40.2300   31.5180   40.4480 N   0  0  0  0  0  0  0  0  0  0  0  0
   40.9610   32.6290   40.5170 C   0  0  0  0  0  0  0  0  0  0  0  0
   40.3690   33.8310   40.5170 N   0  0  0  0  0  0  0  0  0  0  0  0
   38.5540   34.8500   40.4460 H   0  0  0  0  0  0  0  0  0  0  0  0
   41.9700   32.2720   40.5630 H   0  0  0  0  0  0  0  0  0  0  0  0
   36.8440   32.9200   40.3020 N   0  0  0  0  0  0  0  0  0  0  0  0
   35.8620   33.0670   40.2840 H   0  0  0  0  0  0  0  0  0  0  0  0
   36.7310   33.1380   39.2680 H   0  0  0  0  0  0  0  0  0  0  0  0
  1 15  1  0  0  0  0
  1 12  1  0  0  0  0
  2  1  2  0  0  0  0
  3  2  1  0  0  0  0
  3  4  2  0  0  0  0
  4  5  1  0  0  0  0
  5 12  2  0  0  0  0
  5  6  1  0  0  0  0
  6  7  2  0  0  0  0
  7  9  1  0  0  0  0
  7  8  1  0  0  0  0
  9 10  1  0  0  0  0
 11  9  2  0  0  0  0
 12 11  1  0  0  0  0
 13 19  1  0  0  0  0
 13 18  1  0  0  0  0
 14 15  1  0  0  0  0
 14 13  2  0  0  0  0
 15 16  2  0  0  0  0
 16 17  1  0  0  0  0
 17 18  2  0  0  0  0
 17 20  1  0  0  0  0
 21 14  1  0  0  0  0
 22 21  1  0  0  0  0
 23 21  1  0  0  0  0
M  END
>  <minimizedAffinity>
-5.43672943

$$$$

 OpenBabel03242522123D

 23 25  0  0  0  0  0  0  0  0999 V2000
   37.6730   29.0040   40.3240 C   0  0  0  0  0  0  0  0  0  0  0  0
   36.7640   28.3640   39.5720 N   0  0  0  0  0  0  0  0  0  0  0  0
   36.3790   27.0950   39.7930 C   0  0  0  0  0  3  0  0  0  0  0  0
   36.8920   26.3710   40.8010 N   0  0  0  0  0  0  0  0  0  0  0  0
   37.8060   26.9420   41.5950 C   0  0  0  0  0  0  0  0  0  0  0  0
   38.3450   26.2150   42.6350 C   0  0  0  0  0  3  0  0  0  0  0  0
   39.3000   26.7670   43.4870 C   0  0  0  0  0  0  0  0  0  0  0  0
   39.6640   26.1350   44.2680 H   0  0  0  0  0  0  0  0  0  0  0  0
   39.6670   28.0820   43.2210 C   0  0  0  0  0  0  0  0  0  0  0  0
   40.4030   28.4770   43.8960 H   0  0  0  0  0  0  0  0  0  0  0  0
   39.1050   28.7550   42.1830 C   0  0  0  0  0  3  0  0  0  0  0  0
   38.1740   28.2300   41.3440 C   0  0  0  0  0  0  0  0  0  0  0  0
   37.2890   32.6750   40.2570 C   0  0  0  0  0  0  0  0  0  0  0  0
   37.1030   31.3070   40.4590 C   0  0  0  0  0  0  0  0  0  0  0  0
   38.0380   30.3720   40.0260 C   0  0  0  0  0  0  0  0  0  0  0  0
   39.1000   30.9330   39.4150 N   0  0  0  0  0  0  0  0  0  0  0  0
   39.3000   32.2340   39.2100 C   0  0  0  0  0  0  0  0  0  0  0  0
   38.3980   33.1320   39.6280 N   0  0  0  0  0  0  0  0  0  0  0  0
   36.5700   33.4100   40.5880 H   0  0  0  0  0  0  0  0  0  0  0  0
   40.2420   32.2740   38.7030 H   0  0  0  0  0  0  0  0  0  0  0  0
   35.8680   30.9880   41.1470 N   0  0  0  0  0  0  0  0  0  0  0  0
   35.0380   30.7660   41.6440 H   0  0  0  0  0  0  0  0  0  0  0  0
   35.1770   31.0350   40.3400 H   0  0  0  0  0  0  0  0  0  0  0  0
  1 12  1  0  0  0  0
  2  3  1  0  0  0  0
  2  1  2  0  0  0  0
  3  4  2  0  0  0  0
  4  5  1  0  0  0  0
  5  6  1  0  0  0  0
  6  7  2  0  0  0  0
  7  8  1  0  0  0  0
  9  7  1  0  0  0  0
  9 10  1  0  0  0  0
 11  9  2  0  0  0  0
 12  5  2  0  0  0  0
 12 11  1  0  0  0  0
 13 14  1  0  0  0  0
 13 19  1  0  0  0  0
 14 21  1  0  0  0  0
 15  1  1  0  0  0  0
 15 14  2  0  0  0  0
 16 15  1  0  0  0  0
 17 16  2  0  0  0  0
 17 18  1  0  0  0  0
 18 13  2  0  0  0  0
 20 17  1  0  0  0  0
 21 22  1  0  0  0  0
 23 21  1  0  0  0  0
M  END
>  <minimizedAffinity>
-5.08561039

$$$$

 OpenBabel03242522123D

 23 25  0  0  0  0  0  0  0  0999 V2000
   38.7850   27.7520   41.9220 C   0  0  0  0  0  0  0  0  0  0  0  0
   39.7040   27.9520   42.8790 N   0  0  0  0  0  0  0  0  0  0  0  0
   40.2050   26.9660   43.6430 C   0  0  0  0  0  3  0  0  0  0  0  0
   39.8080   25.6910   43.4940 N   0  0  0  0  0  0  0  0  0  0  0  0
   38.8930   25.4140   42.5580 C   0  0  0  0  0  0  0  0  0  0  0  0
   38.4730   24.1120   42.3900 C   0  0  0  0  0  3  0  0  0  0  0  0
   37.5210   23.7760   41.4280 C   0  0  0  0  0  0  0  0  0  0  0  0
   37.2520   22.7440   41.3640 H   0  0  0  0  0  0  0  0  0  0  0  0
   37.0300   24.8280   40.6610 C   0  0  0  0  0  0  0  0  0  0  0  0
   36.3010   24.5340   39.9310 H   0  0  0  0  0  0  0  0  0  0  0  0
   37.4780   26.0940   40.8670 C   0  0  0  0  0  3  0  0  0  0  0  0
   38.4050   26.4370   41.8000 C   0  0  0  0  0  0  0  0  0  0  0  0
   36.7700   30.7620   41.2030 C   0  0  0  0  0  0  0  0  0  0  0  0
   37.3540   29.6470   41.8050 C   0  0  0  0  0  0  0  0  0  0  0  0
   38.2910   28.8630   41.1380 C   0  0  0  0  0  0  0  0  0  0  0  0
   38.5480   29.3010   39.8890 N   0  0  0  0  0  0  0  0  0  0  0  0
   38.0040   30.3600   39.2930 C   0  0  0  0  0  0  0  0  0  0  0  0
   37.1030   31.1120   39.9390 N   0  0  0  0  0  0  0  0  0  0  0  0
   36.0420   31.3770   41.7120 H   0  0  0  0  0  0  0  0  0  0  0  0
   38.4600   30.3740   38.3240 H   0  0  0  0  0  0  0  0  0  0  0  0
   36.8900   29.4120   43.1580 N   0  0  0  0  0  0  0  0  0  0  0  0
   36.5970   29.2640   44.0950 H   0  0  0  0  0  0  0  0  0  0  0  0
   35.9710   28.9140   42.9650 H   0  0  0  0  0  0  0  0  0  0  0  0
  1  2  1  0  0  0  0
  2  3  2  0  0  0  0
  4  3  1  0  0  0  0
  5  4  2  0  0  0  0
  6  5  1  0  0  0  0
  7  6  2  0  0  0  0
  8  7  1  0  0  0  0
  9 11  2  0  0  0  0
  9  7  1  0  0  0  0
 10  9  1  0  0  0  0
 11 12  1  0  0  0  0
 12  1  2  0  0  0  0
 12  5  1  0  0  0  0
 13 19  1  0  0  0  0
 13 14  1  0  0  0  0
 14 21  1  0  0  0  0
 15 14  2  0  0  0  0
 15  1  1  0  0  0  0
 16 15  1  0  0  0  0
 17 16  2  0  0  0  0
 17 18  1  0  0  0  0
 18 13  2  0  0  0  0
 20 17  1  0  0  0  0
 21 22  1  0  0  0  0
 23 21  1  0  0  0  0
M  END
>  <minimizedAffinity>
-5.04049635

$$$$

 OpenBabel03242522123D

 23 25  0  0  0  0  0  0  0  0999 V2000
   37.3710   30.7110   40.5270 C   0  0  0  0  0  0  0  0  0  0  0  0
   36.2330   30.6230   39.8190 N   0  0  0  0  0  0  0  0  0  0  0  0
   35.3080   29.6700   40.0200 C   0  0  0  0  0  3  0  0  0  0  0  0
   35.4660   28.7230   40.9610 N   0  0  0  0  0  0  0  0  0  0  0  0
   36.5760   28.7470   41.7070 C   0  0  0  0  0  0  0  0  0  0  0  0
   36.7560   27.7840   42.6770 C   0  0  0  0  0  3  0  0  0  0  0  0
   37.8970   27.7670   43.4790 C   0  0  0  0  0  0  0  0  0  0  0  0
   37.9570   26.9870   44.2060 H   0  0  0  0  0  0  0  0  0  0  0  0
   38.8280   28.7720   43.2360 C   0  0  0  0  0  0  0  0  0  0  0  0
   39.6930   28.7310   43.8700 H   0  0  0  0  0  0  0  0  0  0  0  0
   38.6020   29.6980   42.2670 C   0  0  0  0  0  3  0  0  0  0  0  0
   37.4950   29.7270   41.4790 C   0  0  0  0  0  0  0  0  0  0  0  0
   40.0550   32.4640   38.6960 C   0  0  0  0  0  0  0  0  0  0  0  0
   39.0860   31.5510   39.1120 C   0  0  0  0  0  0  0  0  0  0  0  0
   38.3230   31.7660   40.2550 C   0  0  0  0  0  0  0  0  0  0  0  0
   38.6280   32.9200   40.8810 N   0  0  0  0  0  0  0  0  0  0  0  0
   39.5470   33.8070   40.5040 C   0  0  0  0  0  0  0  0  0  0  0  0
   40.2790   33.5970   39.4030 N   0  0  0  0  0  0  0  0  0  0  0  0
   40.6520   32.3070   37.8090 H   0  0  0  0  0  0  0  0  0  0  0  0
   39.4870   34.5750   41.2490 H   0  0  0  0  0  0  0  0  0  0  0  0
   38.9710   30.3950   38.2440 N   0  0  0  0  0  0  0  0  0  0  0  0
   38.8680   29.6170   37.6370 H   0  0  0  0  0  0  0  0  0  0  0  0
   39.7820   29.8050   38.5970 H   0  0  0  0  0  0  0  0  0  0  0  0
  1 12  1  0  0  0  0
  2  3  1  0  0  0  0
  2  1  2  0  0  0  0
  3  4  2  0  0  0  0
  4  5  1  0  0  0  0
  5  6  1  0  0  0  0
  6  7  2  0  0  0  0
  7  8  1  0  0  0  0
  9  7  1  0  0  0  0
  9 10  1  0  0  0  0
 11  9  2  0  0  0  0
 12  5  2  0  0  0  0
 12 11  1  0  0  0  0
 13 14  2  0  0  0  0
 13 18  1  0  0  0  0
 14 15  1  0  0  0  0
 15  1  1  0  0  0  0
 15 16  2  0  0  0  0
 17 16  1  0  0  0  0
 17 20  1  0  0  0  0
 18 17  2  0  0  0  0
 19 13  1  0  0  0  0
 21 23  1  0  0  0  0
 21 14  1  0  0  0  0
 22 21  1  0  0  0  0
M  END
>  <minimizedAffinity>
-5.0200963

$$$$

 OpenBabel03242522123D

 23 25  0  0  0  0  0  0  0  0999 V2000
   38.9350   30.8910   40.7990 C   0  0  0  0  0  0  0  0  0  0  0  0
   39.3420   30.5790   42.0400 N   0  0  0  0  0  0  0  0  0  0  0  0
   38.6430   29.7890   42.8730 C   0  0  0  0  0  3  0  0  0  0  0  0
   37.4660   29.2520   42.5090 N   0  0  0  0  0  0  0  0  0  0  0  0
   36.9960   29.5180   41.2860 C   0  0  0  0  0  0  0  0  0  0  0  0
   35.7900   28.9750   40.8940 C   0  0  0  0  0  3  0  0  0  0  0  0
   35.2600   29.2250   39.6290 C   0  0  0  0  0  0  0  0  0  0  0  0
   34.3210   28.7650   39.4060 H   0  0  0  0  0  0  0  0  0  0  0  0
   36.0180   30.0470   38.8010 C   0  0  0  0  0  0  0  0  0  0  0  0
   35.5810   30.2180   37.8350 H   0  0  0  0  0  0  0  0  0  0  0  0
   37.2000   30.5560   39.2350 C   0  0  0  0  0  3  0  0  0  0  0  0
   37.7290   30.3220   40.4650 C   0  0  0  0  0  0  0  0  0  0  0  0
   40.3740   34.0680   39.5880 C   0  0  0  0  0  0  0  0  0  0  0  0
   39.6620   33.0960   40.2920 C   0  0  0  0  0  0  0  0  0  0  0  0
   39.7420   31.7480   39.9580 C   0  0  0  0  0  0  0  0  0  0  0  0
   40.5590   31.5130   38.9120 N   0  0  0  0  0  0  0  0  0  0  0  0
   41.2470   32.4220   38.2240 C   0  0  0  0  0  0  0  0  0  0  0  0
   41.1680   33.7190   38.5490 N   0  0  0  0  0  0  0  0  0  0  0  0
   40.3200   35.1170   39.8390 H   0  0  0  0  0  0  0  0  0  0  0  0
   41.7670   31.8480   37.4840 H   0  0  0  0  0  0  0  0  0  0  0  0
   38.8630   33.6360   41.3740 N   0  0  0  0  0  0  0  0  0  0  0  0
   38.3360   33.9980   42.1340 H   0  0  0  0  0  0  0  0  0  0  0  0
   38.0090   33.9730   40.8360 H   0  0  0  0  0  0  0  0  0  0  0  0
  1  2  1  0  0  0  0
  2  3  2  0  0  0  0
  4  3  1  0  0  0  0
  5  4  2  0  0  0  0
  6  5  1  0  0  0  0
  7  6  2  0  0  0  0
  8  7  1  0  0  0  0
  9 11  2  0  0  0  0
  9  7  1  0  0  0  0
 10  9  1  0  0  0  0
 11 12  1  0  0  0  0
 12  1  2  0  0  0  0
 12  5  1  0  0  0  0
 13 19  1  0  0  0  0
 13 14  1  0  0  0  0
 14 21  1  0  0  0  0
 15 14  2  0  0  0  0
 15  1  1  0  0  0  0
 16 15  1  0  0  0  0
 17 18  1  0  0  0  0
 17 16  2  0  0  0  0
 18 13  2  0  0  0  0
 20 17  1  0  0  0  0
 21 22  1  0  0  0  0
 23 21  1  0  0  0  0
M  END
>  <minimizedAffinity>
-4.99725008

$$$$

 OpenBabel03242522123D

 23 25  0  0  0  0  0  0  0  0999 V2000
   38.7610   29.6200   41.4860 C   0  0  0  0  0  0  0  0  0  0  0  0
   39.7680   30.0400   42.2680 N   0  0  0  0  0  0  0  0  0  0  0  0
   40.2840   31.2790   42.2110 C   0  0  0  0  0  3  0  0  0  0  0  0
   39.8160   32.1960   41.3480 N   0  0  0  0  0  0  0  0  0  0  0  0
   38.8110   31.8510   40.5350 C   0  0  0  0  0  0  0  0  0  0  0  0
   38.3170   32.7780   39.6420 C   0  0  0  0  0  3  0  0  0  0  0  0
   37.2720   32.4630   38.7750 C   0  0  0  0  0  0  0  0  0  0  0  0
   36.9490   33.2400   38.1160 H   0  0  0  0  0  0  0  0  0  0  0  0
   36.7690   31.1690   38.8690 C   0  0  0  0  0  0  0  0  0  0  0  0
   35.9650   30.9610   38.1880 H   0  0  0  0  0  0  0  0  0  0  0  0
   37.2920   30.2940   39.7670 C   0  0  0  0  0  3  0  0  0  0  0  0
   38.3100   30.5860   40.6180 C   0  0  0  0  0  0  0  0  0  0  0  0
   36.8600   26.8320   42.9840 C   0  0  0  0  0  0  0  0  0  0  0  0
   37.4370   28.0730   42.7110 C   0  0  0  0  0  0  0  0  0  0  0  0
   38.2560   28.2690   41.6040 C   0  0  0  0  0  0  0  0  0  0  0  0
   38.4140   27.1550   40.8620 N   0  0  0  0  0  0  0  0  0  0  0  0
   37.8750   25.9610   41.1020 C   0  0  0  0  0  0  0  0  0  0  0  0
   37.0870   25.7750   42.1680 N   0  0  0  0  0  0  0  0  0  0  0  0
   36.2220   26.6680   43.8400 H   0  0  0  0  0  0  0  0  0  0  0  0
   38.2320   25.3500   40.2980 H   0  0  0  0  0  0  0  0  0  0  0  0
   37.0930   29.0950   43.6800 N   0  0  0  0  0  0  0  0  0  0  0  0
   36.8370   29.8050   44.3240 H   0  0  0  0  0  0  0  0  0  0  0  0
   37.7810   28.8660   44.4570 H   0  0  0  0  0  0  0  0  0  0  0  0
  1 15  1  0  0  0  0
  1  2  1  0  0  0  0
  3  2  2  0  0  0  0
  4  3  1  0  0  0  0
  5 12  1  0  0  0  0
  5  4  2  0  0  0  0
  6  5  1  0  0  0  0
  7  9  1  0  0  0  0
  7  6  2  0  0  0  0
  8  7  1  0  0  0  0
  9 11  2  0  0  0  0
 10  9  1  0  0  0  0
 11 12  1  0  0  0  0
 12  1  2  0  0  0  0
 13 19  1  0  0  0  0
 14 13  1  0  0  0  0
 14 21  1  0  0  0  0
 15 14  2  0  0  0  0
 16 17  2  0  0  0  0
 16 15  1  0  0  0  0
 17 18  1  0  0  0  0
 18 13  2  0  0  0  0
 20 17  1  0  0  0  0
 21 22  1  0  0  0  0
 21 23  1  0  0  0  0
M  END
>  <minimizedAffinity>
-4.9344058

$$$$

 OpenBabel03242522123D

 23 25  0  0  0  0  0  0  0  0999 V2000
   37.8670   29.3100   40.3500 C   0  0  0  0  0  0  0  0  0  0  0  0
   37.1540   28.6150   39.4490 N   0  0  0  0  0  0  0  0  0  0  0  0
   36.4830   29.1870   38.4350 C   0  0  0  0  0  3  0  0  0  0  0  0
   36.4800   30.5190   38.2560 N   0  0  0  0  0  0  0  0  0  0  0  0
   37.1690   31.2780   39.1160 C   0  0  0  0  0  0  0  0  0  0  0  0
   37.1790   32.6470   38.9490 C   0  0  0  0  0  3  0  0  0  0  0  0
   37.8820   33.4780   39.8200 C   0  0  0  0  0  0  0  0  0  0  0  0
   37.8370   34.5260   39.6180 H   0  0  0  0  0  0  0  0  0  0  0  0
   38.5620   32.8430   40.8540 C   0  0  0  0  0  0  0  0  0  0  0  0
   39.0930   33.5110   41.5050 H   0  0  0  0  0  0  0  0  0  0  0  0
   38.5200   31.4900   40.9740 C   0  0  0  0  0  3  0  0  0  0  0  0
   37.8400   30.6670   40.1330 C   0  0  0  0  0  0  0  0  0  0  0  0
   38.2290   27.4800   43.5360 C   0  0  0  0  0  0  0  0  0  0  0  0
   37.7290   28.1630   42.4280 C   0  0  0  0  0  0  0  0  0  0  0  0
   38.5660   28.6250   41.4160 C   0  0  0  0  0  0  0  0  0  0  0  0
   39.8640   28.3400   41.6370 N   0  0  0  0  0  0  0  0  0  0  0  0
   40.3660   27.6900   42.6860 C   0  0  0  0  0  0  0  0  0  0  0  0
   39.5570   27.2470   43.6570 N   0  0  0  0  0  0  0  0  0  0  0  0
   37.5890   27.1160   44.3270 H   0  0  0  0  0  0  0  0  0  0  0  0
   41.4190   27.6650   42.4950 H   0  0  0  0  0  0  0  0  0  0  0  0
   36.2890   28.3270   42.4510 N   0  0  0  0  0  0  0  0  0  0  0  0
   35.3000   28.4160   42.4490 H   0  0  0  0  0  0  0  0  0  0  0  0
   36.1990   29.1660   43.0990 H   0  0  0  0  0  0  0  0  0  0  0  0
  1 15  1  0  0  0  0
  2  1  2  0  0  0  0
  3  2  1  0  0  0  0
  4  3  2  0  0  0  0
  4  5  1  0  0  0  0
  5 12  1  0  0  0  0
  6  5  2  0  0  0  0
  6  7  1  0  0  0  0
  7  9  2  0  0  0  0
  8  7  1  0  0  0  0
  9 11  1  0  0  0  0
  9 10  1  0  0  0  0
 12  1  1  0  0  0  0
 12 11  2  0  0  0  0
 13 18  1  0  0  0  0
 13 19  1  0  0  0  0
 14 21  1  0  0  0  0
 14 13  2  0  0  0  0
 15 16  2  0  0  0  0
 15 14  1  0  0  0  0
 16 17  1  0  0  0  0
 17 18  2  0  0  0  0
 20 17  1  0  0  0  0
 21 23  1  0  0  0  0
 22 21  1  0  0  0  0
M  END
>  <minimizedAffinity>
-4.8253994

$$$$

 OpenBabel03242522123D

 23 25  0  0  0  0  0  0  0  0999 V2000
   37.7190   28.7100   41.1620 C   0  0  0  0  0  0  0  0  0  0  0  0
   36.5940   28.0850   41.5450 N   0  0  0  0  0  0  0  0  0  0  0  0
   36.5420   27.2110   42.5650 C   0  0  0  0  0  3  0  0  0  0  0  0
   37.6360   26.9000   43.2800 N   0  0  0  0  0  0  0  0  0  0  0  0
   38.7950   27.4840   42.9570 C   0  0  0  0  0  0  0  0  0  0  0  0
   39.9290   27.1770   43.6790 C   0  0  0  0  0  3  0  0  0  0  0  0
   41.1600   27.7600   43.3790 C   0  0  0  0  0  0  0  0  0  0  0  0
   41.9870   27.4670   43.9880 H   0  0  0  0  0  0  0  0  0  0  0  0
   41.1660   28.6580   42.3160 C   0  0  0  0  0  0  0  0  0  0  0  0
   42.1280   29.0880   42.1120 H   0  0  0  0  0  0  0  0  0  0  0  0
   40.0200   28.9260   41.6370 C   0  0  0  0  0  3  0  0  0  0  0  0
   38.8150   28.3650   41.9180 C   0  0  0  0  0  0  0  0  0  0  0  0
   36.6670   31.6960   39.2630 C   0  0  0  0  0  0  0  0  0  0  0  0
   36.8170   30.7020   40.2310 C   0  0  0  0  0  0  0  0  0  0  0  0
   37.6990   29.6400   40.0540 C   0  0  0  0  0  0  0  0  0  0  0  0
   38.3590   29.6930   38.8800 N   0  0  0  0  0  0  0  0  0  0  0  0
   38.2320   30.6300   37.9420 C   0  0  0  0  0  0  0  0  0  0  0  0
   37.3830   31.6510   38.1150 N   0  0  0  0  0  0  0  0  0  0  0  0
   35.9860   32.5250   39.3900 H   0  0  0  0  0  0  0  0  0  0  0  0
   38.9130   30.3220   37.1750 H   0  0  0  0  0  0  0  0  0  0  0  0
   35.9810   30.9000   41.3980 N   0  0  0  0  0  0  0  0  0  0  0  0
   35.4320   31.0470   42.2120 H   0  0  0  0  0  0  0  0  0  0  0  0
   35.0560   30.5140   41.0420 H   0  0  0  0  0  0  0  0  0  0  0  0
  1  2  2  0  0  0  0
  1 12  1  0  0  0  0
  2  3  1  0  0  0  0
  3  4  2  0  0  0  0
  5  4  1  0  0  0  0
  5  6  1  0  0  0  0
  7  6  2  0  0  0  0
  7  8  1  0  0  0  0
  9  7  1  0  0  0  0
 10  9  1  0  0  0  0
 11 12  1  0  0  0  0
 11  9  2  0  0  0  0
 12  5  2  0  0  0  0
 13 19  1  0  0  0  0
 13 14  1  0  0  0  0
 14 21  1  0  0  0  0
 15 14  2  0  0  0  0
 15  1  1  0  0  0  0
 16 15  1  0  0  0  0
 17 18  1  0  0  0  0
 17 16  2  0  0  0  0
 18 13  2  0  0  0  0
 20 17  1  0  0  0  0
 21 22  1  0  0  0  0
 23 21  1  0  0  0  0
M  END
>  <minimizedAffinity>
-4.81324434

$$$$
