
 OpenBabel03252506573D

 41 46  0  0  0  0  0  0  0  0999 V2000
   47.3670   31.4370   45.1430 C   0  0  0  0  0  0  0  0  0  0  0  0
   46.9430   32.7490   45.0610 C   0  0  0  0  0  0  0  0  0  0  0  0
   46.2550   33.3680   46.0870 C   0  0  0  0  0  0  0  0  0  0  0  0
   45.9620   32.6620   47.2640 C   0  0  0  0  0  0  0  0  0  0  0  0
   45.3300   32.9300   48.4380 N   0  0  0  0  0  0  0  0  0  0  0  0
   45.3700   31.8100   49.2090 C   0  0  0  0  0  0  0  0  0  0  0  0
   46.0270   30.8700   48.4950 N   0  0  0  0  0  0  0  0  0  0  0  0
   46.4010   31.3600   47.3050 C   0  0  0  0  0  0  0  0  0  0  0  0
   47.0790   30.7250   46.3150 C   0  0  0  0  0  0  0  0  0  0  0  0
   47.9100   30.9470   44.3310 H   0  0  0  0  0  0  0  0  0  0  0  0
   45.9180   34.3910   46.0370 H   0  0  0  0  0  0  0  0  0  0  0  0
   44.9390   33.8720   48.5700 H   0  0  0  0  0  0  0  0  0  0  0  0
   44.9300   31.7910   50.1850 H   0  0  0  0  0  0  0  0  0  0  0  0
   46.6120   35.1770   42.3180 C   0  0  0  0  0  0  0  0  0  0  0  0
   47.7920   34.9870   41.6050 C   0  0  0  0  0  0  0  0  0  0  0  0
   48.7070   34.0210   42.0650 C   0  0  0  0  0  0  0  0  0  0  0  0
   48.3840   33.3180   43.1950 N   0  0  0  0  0  0  0  0  0  0  0  0
   47.2190   33.5320   43.8670 C   0  0  0  0  0  0  0  0  0  0  0  0
   46.3380   34.4550   43.4340 N   0  0  0  0  0  0  0  0  0  0  0  0
   45.9530   35.9290   41.9190 H   0  0  0  0  0  0  0  0  0  0  0  0
   48.0880   35.5080   40.7220 H   0  0  0  0  0  0  0  0  0  0  0  0
   49.6570   33.7630   41.6210 H   0  0  0  0  0  0  0  0  0  0  0  0
   47.5090   29.3240   46.4520 C   0  0  0  0  0  0  0  0  0  0  0  0
   48.7170   28.9090   46.9460 C   0  0  0  0  0  0  0  0  0  0  0  0
   48.6180   27.5110   46.8620 C   0  0  0  0  0  0  0  0  0  0  0  0
   47.4090   27.1520   46.3430 C   0  0  0  0  0  0  0  0  0  0  0  0
   46.8080   28.2970   46.1260 O   0  0  0  0  0  0  0  0  0  0  0  0
   49.5530   29.4820   47.3140 H   0  0  0  0  0  0  0  0  0  0  0  0
   49.4000   26.9030   47.2060 H   0  0  0  0  0  0  0  0  0  0  0  0
   46.6900   25.9400   46.0100 C   0  0  0  0  0  0  0  0  0  0  0  0
   47.2960   24.9770   45.2610 N   0  0  0  0  0  0  0  0  0  0  0  0
   46.6870   23.8930   44.8270 C   0  0  0  0  0  3  0  0  0  0  0  0
   45.3940   23.6240   45.0800 N   0  0  0  0  0  0  0  0  0  0  0  0
   44.6840   24.5200   45.8250 C   0  0  0  0  0  0  0  0  0  0  0  0
   43.3830   24.2950   46.1400 C   0  0  0  0  0  3  0  0  0  0  0  0
   42.6510   25.1680   46.9190 C   0  0  0  0  0  0  0  0  0  0  0  0
   41.6360   24.8760   47.0940 H   0  0  0  0  0  0  0  0  0  0  0  0
   43.3460   26.2970   47.3590 C   0  0  0  0  0  0  0  0  0  0  0  0
   42.7350   26.9670   47.9750 H   0  0  0  0  0  0  0  0  0  0  0  0
   44.6620   26.4880   47.0180 C   0  0  0  0  0  3  0  0  0  0  0  0
   45.3810   25.6240   46.2440 C   0  0  0  0  0  0  0  0  0  0  0  0
  1  9  1  0  0  0  0
  2  1  2  0  0  0  0
  2  3  1  0  0  0  0
  3  4  2  0  0  0  0
  4  8  1  0  0  0  0
  4  5  1  0  0  0  0
  5 12  1  0  0  0  0
  5  6  1  0  0  0  0
  6 13  1  0  0  0  0
  7  6  2  0  0  0  0
  8  7  1  0  0  0  0
  9 23  1  0  0  0  0
  9  8  2  0  0  0  0
 10  1  1  0  0  0  0
 11  3  1  0  0  0  0
 14 19  1  0  0  0  0
 15 16  1  0  0  0  0
 15 14  2  0  0  0  0
 16 17  2  0  0  0  0
 17 18  1  0  0  0  0
 18  2  1  0  0  0  0
 19 18  2  0  0  0  0
 20 14  1  0  0  0  0
 21 15  1  0  0  0  0
 22 16  1  0  0  0  0
 23 24  2  0  0  0  0
 24 28  1  0  0  0  0
 25 24  1  0  0  0  0
 25 29  1  0  0  0  0
 26 25  2  0  0  0  0
 27 26  1  0  0  0  0
 27 23  1  0  0  0  0
 30 41  1  0  0  0  0
 30 26  1  0  0  0  0
 31 30  2  0  0  0  0
 32 33  2  0  0  0  0
 32 31  1  0  0  0  0
 33 34  1  0  0  0  0
 34 35  2  0  0  0  0
 34 41  1  0  0  0  0
 35 36  1  0  0  0  0
 36 37  1  0  0  0  0
 36 38  2  0  0  0  0
 38 39  1  0  0  0  0
 40 38  1  0  0  0  0
 41 40  2  0  0  0  0
M  END
>  <minimizedAffinity>
-6.01896048

>  <minimizedRMSD>
0.453054279

$$$$
