
 OpenBabel03252507433D

 34 37  0  0  0  0  0  0  0  0999 V2000
   44.4960   34.5900   41.1640 C   0  0  0  0  0  0  0  0  0  0  0  0
   43.5870   35.6580   41.4360 C   0  0  0  0  0  0  0  0  0  0  0  0
   42.0480   35.0750   40.5680 S   0  0  0  0  0  0  0  0  0  0  0  0
   42.9240   33.5040   40.0030 C   0  0  0  0  0  0  0  0  0  0  0  0
   43.9620   33.6420   40.4460 N   0  0  0  0  0  0  0  0  0  0  0  0
   43.7860   36.5540   42.0040 H   0  0  0  0  0  0  0  0  0  0  0  0
   42.0460   32.6320   39.2080 C   0  0  0  0  0  0  0  0  0  0  0  0
   40.7450   32.3830   39.4350 N   0  0  0  0  0  0  0  0  0  0  0  0
   40.0050   31.5790   38.6720 C   0  0  0  0  0  3  0  0  0  0  0  0
   40.5160   30.9490   37.6020 N   0  0  0  0  0  0  0  0  0  0  0  0
   41.8010   31.1320   37.2920 C   0  0  0  0  0  0  0  0  0  0  0  0
   42.3310   30.4890   36.1940 C   0  0  0  0  0  3  0  0  0  0  0  0
   43.6740   30.6830   35.8740 C   0  0  0  0  0  0  0  0  0  0  0  0
   44.0490   30.1590   35.0050 H   0  0  0  0  0  0  0  0  0  0  0  0
   44.4060   31.5260   36.6950 C   0  0  0  0  0  0  0  0  0  0  0  0
   45.4390   31.5960   36.3400 H   0  0  0  0  0  0  0  0  0  0  0  0
   43.8540   32.1570   37.7840 C   0  0  0  0  0  3  0  0  0  0  0  0
   42.5310   31.9700   38.1060 C   0  0  0  0  0  0  0  0  0  0  0  0
   45.8800   34.6350   41.6830 C   0  0  0  0  0  0  0  0  0  0  0  0
   45.9250   33.9040   42.5420 H   0  0  0  0  0  0  0  0  0  0  0  0
   46.1050   35.6220   42.1380 H   0  0  0  0  0  0  0  0  0  0  0  0
   46.9410   34.2660   40.7150 C   0  0  0  0  0  0  0  0  0  0  0  0
   46.6500   33.4320   40.0820 H   0  0  0  0  0  0  0  0  0  0  0  0
   47.0470   35.1450   40.0110 H   0  0  0  0  0  0  0  0  0  0  0  0
   48.2780   34.0900   41.3220 C   0  0  0  0  0  0  0  0  0  0  0  0
   48.9290   32.8700   41.0330 C   0  0  0  0  0  0  0  0  0  0  0  0
   50.1860   32.6290   41.5600 C   0  0  0  0  0  0  0  0  0  0  0  0
   50.7450   33.6030   42.3470 N   0  0  0  0  0  0  0  0  0  0  0  0
   50.0850   34.7550   42.5970 C   0  0  0  0  0  0  0  0  0  0  0  0
   48.8780   34.9870   42.0920 N   0  0  0  0  0  0  0  0  0  0  0  0
   50.6870   31.7070   41.3470 H   0  0  0  0  0  0  0  0  0  0  0  0
   50.5880   35.4910   43.2340 H   0  0  0  0  0  0  0  0  0  0  0  0
   48.1350   31.6410   39.9970 S   0  0  0  0  0  0  0  0  0  0  0  0
   47.1920   30.9650   40.8260 H   0  0  0  0  0  0  0  0  0  0  0  0
  1  2  2  0  0  0  0
  1 19  1  0  0  0  0
  2  6  1  0  0  0  0
  3  2  1  0  0  0  0
  4  5  2  0  0  0  0
  4  3  1  0  0  0  0
  5  1  1  0  0  0  0
  7  8  1  0  0  0  0
  7  4  1  0  0  0  0
  9  8  2  0  0  0  0
 10  9  1  0  0  0  0
 11 10  2  0  0  0  0
 11 18  1  0  0  0  0
 12 11  1  0  0  0  0
 13 12  2  0  0  0  0
 13 15  1  0  0  0  0
 14 13  1  0  0  0  0
 15 17  2  0  0  0  0
 16 15  1  0  0  0  0
 17 18  1  0  0  0  0
 18  7  2  0  0  0  0
 19 21  1  0  0  0  0
 19 20  1  0  0  0  0
 22 25  1  0  0  0  0
 22 19  1  0  0  0  0
 23 22  1  0  0  0  0
 24 22  1  0  0  0  0
 25 30  1  0  0  0  0
 26 25  2  0  0  0  0
 26 27  1  0  0  0  0
 27 28  2  0  0  0  0
 28 29  1  0  0  0  0
 29 32  1  0  0  0  0
 30 29  2  0  0  0  0
 31 27  1  0  0  0  0
 33 34  1  0  0  0  0
 33 26  1  0  0  0  0
M  END
>  <minimizedAffinity>
-4.82999563

>  <minimizedRMSD>
1.03694081

$$$$
