
     RDKit          3D

 44 49  0  0  0  0  0  0  0  0999 V2000
   45.4971   34.8290   43.5422 C   0  0  0  0  0  0  0  0  0  0  0  0
   46.2179   33.7488   44.1102 C   0  0  0  0  0  0  0  0  0  0  0  0
   46.0292   33.5192   45.4674 C   0  0  0  0  0  0  0  0  0  0  0  0
   45.1867   34.3201   46.1599 N   0  0  0  0  0  0  0  0  0  0  0  0
   44.5132   35.3440   45.5844 C   0  0  0  0  0  0  0  0  0  0  0  0
   44.6684   35.5922   44.2935 N   0  0  0  0  0  0  0  0  0  0  0  0
   47.0147   32.7018   47.5352 C   0  0  0  0  0  0  0  0  0  0  0  0
   46.6923   32.4451   46.2046 C   0  0  0  0  0  0  0  0  0  0  0  0
   47.0067   31.2261   45.6757 C   0  0  0  0  0  0  0  0  0  0  0  0
   47.6297   30.2363   46.4008 C   0  0  0  0  0  0  0  0  0  0  0  0
   48.0271   28.9841   46.0883 N   0  0  0  0  0  0  0  0  0  0  0  0
   48.6049   28.4417   47.2274 C   0  0  0  0  0  0  0  0  0  0  0  0
   48.5415   29.3814   48.2004 N   0  0  0  0  0  0  0  0  0  0  0  0
   47.9531   30.4740   47.7124 C   0  0  0  0  0  0  0  0  0  0  0  0
   47.6484   31.6952   48.2732 C   0  0  0  0  0  0  0  0  0  0  0  0
   45.6855   35.0639   42.1723 O   0  0  0  0  0  0  0  0  0  0  0  0
   44.6104   34.9230   41.2959 C   0  0  0  0  0  0  0  0  0  0  0  0
   45.0351   33.8486   40.6065 C   0  0  0  0  0  0  0  0  0  0  0  0
   43.5979   33.5976   39.3841 S   0  0  0  0  0  0  0  0  0  0  0  0
   42.7199   35.0865   40.1405 C   0  0  0  0  0  0  0  0  0  0  0  0
   43.4352   35.3924   40.9129 N   0  0  0  0  0  0  0  0  0  0  0  0
   46.8801   33.1184   43.5735 H   0  0  0  0  0  0  0  0  0  0  0  0
   43.8811   35.8833   46.2782 H   0  0  0  0  0  0  0  0  0  0  0  0
   46.8284   33.6145   48.0800 H   0  0  0  0  0  0  0  0  0  0  0  0
   46.7298   31.0760   44.6250 H   0  0  0  0  0  0  0  0  0  0  0  0
   47.8938   28.5538   45.1336 H   0  0  0  0  0  0  0  0  0  0  0  0
   49.0178   27.4497   47.2873 H   0  0  0  0  0  0  0  0  0  0  0  0
   47.9337   31.8293   49.3260 H   0  0  0  0  0  0  0  0  0  0  0  0
   45.7751   32.9194   40.2765 H   0  0  0  0  0  0  0  0  0  0  0  0
   41.3881   35.3449   39.4845 C   0  0  0  0  0  0  0  0  0  0  0  0
   40.7036   36.4572   39.6198 N   0  0  0  0  0  0  0  0  0  0  0  0
   39.5333   36.7099   39.0472 C   0  0  0  0  0  0  0  0  0  0  0  0
   38.9727   35.8247   38.2827 N   0  0  0  0  0  0  0  0  0  0  0  0
   39.5561   34.6027   38.0360 C   0  0  0  0  0  0  0  0  0  0  0  0
   39.0202   33.6148   37.2391 C   0  0  0  0  0  0  0  0  0  0  0  0
   39.7272   32.4419   37.0890 C   0  0  0  0  0  0  0  0  0  0  0  0
   39.1619   31.7673   36.4304 H   0  0  0  0  0  0  0  0  0  0  0  0
   40.9635   32.2305   37.7182 C   0  0  0  0  0  0  0  0  0  0  0  0
   41.3735   31.2596   37.4869 H   0  0  0  0  0  0  0  0  0  0  0  0
   41.4758   33.2292   38.5067 C   0  0  0  0  0  0  0  0  0  0  0  0
   40.7913   34.4295   38.6851 C   0  0  0  0  0  0  0  0  0  0  0  0
   39.1867   37.7046   39.3217 H   0  0  0  0  0  0  0  0  0  0  0  0
   38.0726   33.8928   36.8131 H   0  0  0  0  0  0  0  0  0  0  0  0
   42.4201   32.9075   38.9062 H   0  0  0  0  0  0  0  0  0  0  0  0
  1  2  2  0
  1  6  1  0
  2  3  1  0
  3  4  2  0
  3  8  1  0
  5  4  1  0
  6  5  2  0
  7 15  2  0
  8  7  1  0
  9  8  2  0
  9 10  1  0
 10 14  2  0
 11 10  1  0
 11 12  1  0
 12 13  2  0
 14 13  1  0
 14 15  1  0
 16  1  1  0
 17 16  1  0
 18 17  2  0
 19 20  1  0
 19 18  1  0
 20 21  2  0
 21 17  1  0
  2 22  1  0
  5 23  1  0
  7 24  1  0
  9 25  1  0
 11 26  1  0
 12 27  1  0
 15 28  1  0
 18 29  1  0
 30 31  2  0
 31 32  1  0
 32 33  2  0
 33 34  1  0
 34 35  2  0
 35 36  1  0
 36 37  1  0
 36 38  2  0
 38 39  1  0
 38 40  1  0
 40 41  2  0
 41 30  1  0
 41 34  1  0
 32 42  1  0
 35 43  1  0
 40 44  1  0
 20 30  1  0
M  ISO  8  22  14  23  14  24  14  25  14  26   9  27  14  28  14  29  14
M  ISO  2  37  16  39  16
M  END
>  <DihAtoms>  (1) 
18,19,29,30

>  <DihDeg>  (1) 
-0.43805723849577055

$$$$
