REMARK  Name = 
REMARK  3 active torsions:
REMARK  status: ('A' for Active; 'I' for Inactive)
REMARK    1  A    between atoms: C_2  and  N_10
REMARK    2  A    between atoms: C_3  and  C_7
REMARK    3  A    between atoms: C_9  and  C_19
REMARK                            x       y       z     vdW  Elec       q    Type
REMARK                         _______ _______ _______ _____ _____    ______ ____
ROOT
ATOM      1  C   UNL     1      46.542  34.972  41.933  0.00  0.00    +0.000 C 
ATOM      2  C   UNL     1      48.062  35.278  41.937  0.00  0.00    +0.000 C 
ATOM      3  C   UNL     1      47.391  33.974  41.397  0.00  0.00    +0.000 C 
ATOM      4  H   UNL     1      45.956  35.685  41.327  0.00  0.00    +0.000 HD
ATOM      5  H   UNL     1      48.626  35.194  42.860  0.00  0.00    +0.000 HD
ATOM      6  H   UNL     1      48.382  36.002  41.192  0.00  0.00    +0.000 HD
ATOM      7  H   UNL     1      47.625  33.075  42.038  0.00  0.00    +0.000 HD
ENDROOT
BRANCH   3   8
ATOM      8  C   UNL     1      47.666  33.736  39.979  0.00  0.00    +0.000 A 
ATOM      9  N   UNL     1      48.655  34.453  39.394  0.00  0.00    +0.000 NA
ATOM     10  C   UNL     1      48.919  34.246  38.087  0.00  0.00    +0.000 A 
ATOM     11  N   UNL     1      48.256  33.356  37.305  0.00  0.00    +0.000 NA
ATOM     12  C   UNL     1      47.259  32.618  37.853  0.00  0.00    +0.000 A 
ATOM     13  C   UNL     1      46.524  31.688  37.148  0.00  0.00    +0.000 A 
ATOM     14  C   UNL     1      45.515  30.948  37.728  0.00  0.00    +0.000 A 
ATOM     15  H   UNL     1      44.936  30.219  37.182  0.00  0.00    +0.000 HD
ATOM     16  C   UNL     1      45.235  31.154  39.071  0.00  0.00    +0.000 A 
ATOM     17  H   UNL     1      44.446  30.576  39.524  0.00  0.00    +0.000 HD
ATOM     18  C   UNL     1      45.982  32.085  39.747  0.00  0.00    +0.000 A 
ATOM     19  C   UNL     1      46.994  32.833  39.183  0.00  0.00    +0.000 A 
ENDBRANCH   3   8
BRANCH   1  22
ATOM     20  C   UNL     1      44.626  35.464  45.133  0.00  0.00    +0.000 A 
ATOM     21  C   UNL     1      45.095  35.710  43.816  0.00  0.00    +0.000 A 
ATOM     22  C   UNL     1      46.041  34.828  43.353  0.00  0.00    +0.000 A 
ATOM     23  N   UNL     1      46.488  33.778  44.145  0.00  0.00    +0.000 NA
ATOM     24  C   UNL     1      46.014  33.587  45.383  0.00  0.00    +0.000 A 
ATOM     25  N   UNL     1      45.075  34.441  45.875  0.00  0.00    +0.000 NA
ATOM     26  H   UNL     1      43.876  36.146  45.524  0.00  0.00    +0.000 HD
ATOM     27  H   UNL     1      46.438  32.748  45.884  0.00  0.00    +0.000 HD
BRANCH  21  28
ATOM     28  N   UNL     1      44.651  36.809  43.016  0.00  0.00    +0.000 N 
ATOM     29  H   UNL     1      45.411  37.486  43.275  0.00  0.00    +0.000 HD
ATOM     30  H   UNL     1      43.813  36.839  42.393  0.00  0.00    +0.000 HD
ENDBRANCH  21  28
ENDBRANCH   1  22
TORSDOF 3
