REMARK  Name = 
REMARK  4 active torsions:
REMARK  status: ('A' for Active; 'I' for Inactive)
REMARK    1  A    between atoms: C_1  and  O_16
REMARK    2  A    between atoms: C_3  and  C_8
REMARK    3  A    between atoms: O_16  and  C_17
REMARK    4  A    between atoms: C_20  and  C_30
REMARK                            x       y       z     vdW  Elec       q    Type
REMARK                         _______ _______ _______ _____ _____    ______ ____
ROOT
ATOM      1  C   UNL     1      45.497  34.829  43.542  0.00  0.00    +0.000 A 
ATOM      2  C   UNL     1      46.218  33.749  44.110  0.00  0.00    +0.000 A 
ATOM      3  C   UNL     1      46.029  33.519  45.467  0.00  0.00    +0.000 A 
ATOM      4  N   UNL     1      45.187  34.320  46.160  0.00  0.00    +0.000 NA
ATOM      5  C   UNL     1      44.513  35.344  45.584  0.00  0.00    +0.000 A 
ATOM      6  N   UNL     1      44.668  35.592  44.294  0.00  0.00    +0.000 NA
ATOM      7  H   UNL     1      46.880  33.118  43.574  0.00  0.00    +0.000 HD
ATOM      8  H   UNL     1      43.881  35.883  46.278  0.00  0.00    +0.000 HD
ENDROOT
BRANCH   3  10
ATOM      9  C   UNL     1      47.015  32.702  47.535  0.00  0.00    +0.000 A 
ATOM     10  C   UNL     1      46.692  32.445  46.205  0.00  0.00    +0.000 A 
ATOM     11  C   UNL     1      47.007  31.226  45.676  0.00  0.00    +0.000 A 
ATOM     12  C   UNL     1      47.630  30.236  46.401  0.00  0.00    +0.000 A 
ATOM     13  N   UNL     1      48.027  28.984  46.088  0.00  0.00    +0.000 N 
ATOM     14  C   UNL     1      48.605  28.442  47.227  0.00  0.00    +0.000 A 
ATOM     15  N   UNL     1      48.541  29.381  48.200  0.00  0.00    +0.000 NA
ATOM     16  C   UNL     1      47.953  30.474  47.712  0.00  0.00    +0.000 A 
ATOM     17  C   UNL     1      47.648  31.695  48.273  0.00  0.00    +0.000 A 
ATOM     18  H   UNL     1      46.828  33.614  48.080  0.00  0.00    +0.000 HD
ATOM     19  H   UNL     1      46.730  31.076  44.625  0.00  0.00    +0.000 HD
ATOM     20  H   UNL     1      47.894  28.554  45.134  0.00  0.00    +0.000 HD
ATOM     21  H   UNL     1      49.018  27.450  47.287  0.00  0.00    +0.000 HD
ATOM     22  H   UNL     1      47.934  31.829  49.326  0.00  0.00    +0.000 HD
ENDBRANCH   3  10
BRANCH   1  23
ATOM     23  O   UNL     1      45.685  35.064  42.172  0.00  0.00    +0.000 OA
BRANCH  23  24
ATOM     24  C   UNL     1      44.610  34.923  41.296  0.00  0.00    +0.000 A 
ATOM     25  C   UNL     1      45.035  33.849  40.606  0.00  0.00    +0.000 A 
ATOM     26  S   UNL     1      43.598  33.598  39.384  0.00  0.00    +0.000 S 
ATOM     27  C   UNL     1      42.720  35.087  40.141  0.00  0.00    +0.000 A 
ATOM     28  N   UNL     1      43.435  35.392  40.913  0.00  0.00    +0.000 NA
ATOM     29  H   UNL     1      45.775  32.919  40.276  0.00  0.00    +0.000 HD
BRANCH  27  30
ATOM     30  C   UNL     1      41.388  35.345  39.484  0.00  0.00    +0.000 A 
ATOM     31  N   UNL     1      40.704  36.457  39.620  0.00  0.00    +0.000 NA
ATOM     32  C   UNL     1      39.533  36.710  39.047  0.00  0.00    +0.000 A 
ATOM     33  N   UNL     1      38.973  35.825  38.283  0.00  0.00    +0.000 NA
ATOM     34  C   UNL     1      39.556  34.603  38.036  0.00  0.00    +0.000 A 
ATOM     35  C   UNL     1      39.020  33.615  37.239  0.00  0.00    +0.000 A 
ATOM     36  C   UNL     1      39.727  32.442  37.089  0.00  0.00    +0.000 A 
ATOM     37  H   UNL     1      39.162  31.767  36.430  0.00  0.00    +0.000 HD
ATOM     38  C   UNL     1      40.964  32.230  37.718  0.00  0.00    +0.000 A 
ATOM     39  H   UNL     1      41.373  31.260  37.487  0.00  0.00    +0.000 HD
ATOM     40  C   UNL     1      41.476  33.229  38.507  0.00  0.00    +0.000 A 
ATOM     41  C   UNL     1      40.791  34.429  38.685  0.00  0.00    +0.000 A 
ENDBRANCH  27  30
ENDBRANCH  23  24
ENDBRANCH   1  23
TORSDOF 4
