REMARK  Name = 
REMARK  3 active torsions:
REMARK  status: ('A' for Active; 'I' for Inactive)
REMARK    1  A    between atoms: C_2  and  C_14
REMARK    2  A    between atoms: C_9  and  C_16
REMARK    3  A    between atoms: C_19  and  C_30
REMARK                            x       y       z     vdW  Elec       q    Type
REMARK                         _______ _______ _______ _____ _____    ______ ____
ROOT
ATOM      1  C   UNL     1      47.265  31.393  45.157  0.00  0.00    +0.000 A 
ATOM      2  C   UNL     1      46.870  32.716  45.124  0.00  0.00    +0.000 A 
ATOM      3  C   UNL     1      46.231  33.323  46.188  0.00  0.00    +0.000 A 
ATOM      4  C   UNL     1      45.961  32.592  47.355  0.00  0.00    +0.000 A 
ATOM      5  N   UNL     1      45.374  32.843  48.556  0.00  0.00    +0.000 N 
ATOM      6  C   UNL     1      45.413  31.703  49.296  0.00  0.00    +0.000 A 
ATOM      7  N   UNL     1      46.024  30.767  48.537  0.00  0.00    +0.000 NA
ATOM      8  C   UNL     1      46.370  31.280  47.348  0.00  0.00    +0.000 A 
ATOM      9  C   UNL     1      46.999  30.656  46.319  0.00  0.00    +0.000 A 
ATOM     10  H   UNL     1      47.770  30.912  44.315  0.00  0.00    +0.000 HD
ATOM     11  H   UNL     1      45.917  34.354  46.176  0.00  0.00    +0.000 HD
ATOM     12  H   UNL     1      45.010  33.790  48.726  0.00  0.00    +0.000 HD
ATOM     13  H   UNL     1      45.005  31.668  50.286  0.00  0.00    +0.000 HD
ENDROOT
BRANCH   2  18
ATOM     14  C   UNL     1      46.486  35.193  42.432  0.00  0.00    +0.000 A 
ATOM     15  C   UNL     1      47.659  35.027  41.701  0.00  0.00    +0.000 A 
ATOM     16  C   UNL     1      48.587  34.060  42.132  0.00  0.00    +0.000 A 
ATOM     17  N   UNL     1      48.284  33.333  43.252  0.00  0.00    +0.000 NA
ATOM     18  C   UNL     1      47.125  33.524  43.942  0.00  0.00    +0.000 A 
ATOM     19  N   UNL     1      46.231  34.447  43.537  0.00  0.00    +0.000 NA
ATOM     20  H   UNL     1      45.816  35.946  42.055  0.00  0.00    +0.000 HD
ATOM     21  H   UNL     1      47.940  35.567  40.825  0.00  0.00    +0.000 HD
ATOM     22  H   UNL     1      49.534  33.819  41.672  0.00  0.00    +0.000 HD
ENDBRANCH   2  18
BRANCH   9  23
ATOM     23  C   UNL     1      47.400  29.243  46.406  0.00  0.00    +0.000 A 
ATOM     24  C   UNL     1      48.677  28.790  46.605  0.00  0.00    +0.000 A 
ATOM     25  C   UNL     1      48.511  27.396  46.607  0.00  0.00    +0.000 A 
ATOM     26  C   UNL     1      47.199  27.075  46.416  0.00  0.00    +0.000 A 
ATOM     27  O   UNL     1      46.604  28.238  46.306  0.00  0.00    +0.000 OA
ATOM     28  H   UNL     1      49.598  29.337  46.731  0.00  0.00    +0.000 HD
ATOM     29  H   UNL     1      49.332  26.765  46.773  0.00  0.00    +0.000 HD
BRANCH  26  30
ATOM     30  C   UNL     1      46.378  25.886  46.322  0.00  0.00    +0.000 A 
ATOM     31  N   UNL     1      45.321  25.859  45.464  0.00  0.00    +0.000 NA
ATOM     32  C   UNL     1      44.463  24.864  45.388  0.00  0.00    +0.000 A 
ATOM     33  N   UNL     1      44.542  23.762  46.154  0.00  0.00    +0.000 NA
ATOM     34  C   UNL     1      45.567  23.677  47.053  0.00  0.00    +0.000 A 
ATOM     35  C   UNL     1      45.722  22.579  47.837  0.00  0.00    +0.000 A 
ATOM     36  C   UNL     1      46.767  22.454  48.730  0.00  0.00    +0.000 A 
ATOM     37  H   UNL     1      46.776  21.541  49.290  0.00  0.00    +0.000 HD
ATOM     38  C   UNL     1      47.651  23.534  48.766  0.00  0.00    +0.000 A 
ATOM     39  H   UNL     1      48.468  23.399  49.485  0.00  0.00    +0.000 HD
ATOM     40  C   UNL     1      47.458  24.626  47.957  0.00  0.00    +0.000 A 
ATOM     41  C   UNL     1      46.422  24.748  47.078  0.00  0.00    +0.000 A 
ENDBRANCH  26  30
ENDBRANCH   9  23
TORSDOF 3
