REMARK  Name = 
REMARK  9 active torsions:
REMARK  status: ('A' for Active; 'I' for Inactive)
REMARK    1  A    between atoms: O_1  and  C_2
REMARK    2  A    between atoms: O_1  and  P_10
REMARK    3  A    between atoms: C_6  and  C_7
REMARK    4  A    between atoms: C_7  and  O_8
REMARK    5  A    between atoms: P_10  and  O_11
REMARK    6  A    between atoms: P_10  and  O_12
REMARK    7  A    between atoms: O_12  and  C_13
REMARK    8  A    between atoms: C_13  and  C_16
REMARK    9  A    between atoms: C_18  and  C_36
REMARK                            x       y       z     vdW  Elec       q    Type
REMARK                         _______ _______ _______ _____ _____    ______ ____
ROOT
ATOM      1  O   UNL     1      46.465  33.514  45.618  0.00  0.00    +0.000 OA
ENDROOT
BRANCH   1   2
ATOM      2  C   UNL     1      46.257  32.176  45.575  0.00  0.00    +0.000 C 
ATOM      3  H   UNL     1      47.236  31.683  45.306  0.00  0.00    +0.000 HD
ATOM      4  H   UNL     1      45.546  31.785  44.845  0.00  0.00    +0.000 HD
BRANCH   2   7
ATOM      5  C   UNL     1      45.637  31.893  49.229  0.00  0.00    +0.000 A 
ATOM      6  C   UNL     1      45.972  32.414  47.981  0.00  0.00    +0.000 A 
ATOM      7  C   UNL     1      45.891  31.601  46.878  0.00  0.00    +0.000 A 
ATOM      8  N   UNL     1      45.482  30.325  47.094  0.00  0.00    +0.000 NA
ATOM      9  C   UNL     1      45.159  29.827  48.301  0.00  0.00    +0.000 A 
ATOM     10  N   UNL     1      45.240  30.615  49.345  0.00  0.00    +0.000 NA
ATOM     11  H   UNL     1      45.668  32.451  50.161  0.00  0.00    +0.000 HD
ATOM     12  H   UNL     1      46.285  33.439  47.906  0.00  0.00    +0.000 HD
BRANCH   9  13
ATOM     13  C   UNL     1      44.694  28.510  47.997  0.00  0.00    +0.000 A 
ATOM     14  N   UNL     1      44.295  27.384  47.737  0.00  0.00    +0.000 NA
ATOM     15  C   UNL     1      43.907  26.270  47.378  0.00  0.00    +0.000 A 
ATOM     16  N   UNL     1      43.687  25.888  48.622  0.00  0.00    +0.000 NA
ATOM     17  C   UNL     1      43.937  26.739  49.649  0.00  0.00    +0.000 A 
ATOM     18  C   UNL     1      43.691  26.175  50.932  0.00  0.00    +0.000 A 
ATOM     19  C   UNL     1      43.971  26.977  51.995  0.00  0.00    +0.000 A 
ATOM     20  H   UNL     1      43.766  26.506  52.944  0.00  0.00    +0.000 HD
ATOM     21  C   UNL     1      44.468  28.275  51.965  0.00  0.00    +0.000 A 
ATOM     22  H   UNL     1      44.686  28.904  52.776  0.00  0.00    +0.000 HD
ATOM     23  C   UNL     1      44.640  28.647  50.640  0.00  0.00    +0.000 A 
ATOM     24  C   UNL     1      44.437  28.042  49.352  0.00  0.00    +0.000 A 
ENDBRANCH   9  13
ENDBRANCH   2   7
ENDBRANCH   1   2
BRANCH   1  26
ATOM     25  O   UNL     1      44.730  35.351  45.002  0.00  0.00    +0.000 OA
ATOM     26  P   UNL     1      45.564  34.244  44.413  0.00  0.00    +0.000 P 
BRANCH  26  27
ATOM     27  O   UNL     1      44.617  33.025  43.717  0.00  0.00    +0.000 OA
ATOM     28  H   UNL     1      43.707  33.067  44.100  0.00  0.00    +0.000 HD
ENDBRANCH  26  27
BRANCH  26  29
ATOM     29  O   UNL     1      46.579  34.908  43.249  0.00  0.00    +0.000 OA
BRANCH  29  30
ATOM     30  C   UNL     1      46.802  33.991  42.226  0.00  0.00    +0.000 C 
ATOM     31  C   UNL     1      46.065  34.409  40.957  0.00  0.00    +0.000 C 
ATOM     32  C   UNL     1      46.690  33.478  39.950  0.00  0.00    +0.000 C 
ATOM     33  C   UNL     1      48.070  33.140  40.471  0.00  0.00    +0.000 C 
ATOM     34  C   UNL     1      48.216  33.958  41.734  0.00  0.00    +0.000 C 
ATOM     35  H   UNL     1      46.438  32.975  42.461  0.00  0.00    +0.000 HD
ATOM     36  H   UNL     1      44.990  34.192  41.147  0.00  0.00    +0.000 HD
ATOM     37  H   UNL     1      46.158  35.464  40.712  0.00  0.00    +0.000 HD
ATOM     38  H   UNL     1      46.022  32.594  39.865  0.00  0.00    +0.000 HD
ATOM     39  H   UNL     1      46.722  34.049  38.987  0.00  0.00    +0.000 HD
ATOM     40  H   UNL     1      48.047  32.054  40.743  0.00  0.00    +0.000 HD
ATOM     41  H   UNL     1      48.861  33.349  39.745  0.00  0.00    +0.000 HD
ATOM     42  H   UNL     1      48.832  33.390  42.468  0.00  0.00    +0.000 HD
BRANCH  34  43
ATOM     43  C   UNL     1      48.767  35.330  41.458  0.00  0.00    +0.000 C 
ATOM     44  H   UNL     1      47.965  36.105  41.405  0.00  0.00    +0.000 HD
ATOM     45  H   UNL     1      49.271  35.361  40.466  0.00  0.00    +0.000 HD
BRANCH  43  46
ATOM     46  O   UNL     1      49.661  35.748  42.416  0.00  0.00    +0.000 OA
ATOM     47  H   UNL     1      50.533  36.057  42.056  0.00  0.00    +0.000 HD
ENDBRANCH  43  46
ENDBRANCH  34  43
ENDBRANCH  29  30
ENDBRANCH  26  29
ENDBRANCH   1  26
TORSDOF 9
