
 OpenBabel03252505073D

 46 50  0  0  1  0  0  0  0  0999 V2000
   44.5840   35.5710   44.5770 C   0  0  0  0  0  0  0  0  0  0  0  0
   45.2450   35.5730   43.3270 C   0  0  0  0  0  0  0  0  0  0  0  0
   46.3240   34.6670   43.1460 C   0  0  0  0  0  0  0  0  0  0  0  0
   46.6580   33.8520   44.1810 N   0  0  0  0  0  0  0  0  0  0  0  0
   46.0060   33.8770   45.3550 C   0  0  0  0  0  0  0  0  0  0  0  0
   44.9620   34.7410   45.5580 N   0  0  0  0  0  0  0  0  0  0  0  0
   43.7760   36.2760   44.6560 H   0  0  0  0  0  0  0  0  0  0  0  0
   44.9910   36.2110   42.5040 H   0  0  0  0  0  0  0  0  0  0  0  0
   46.4240   32.9700   46.4440 C   0  0  2  0  0  0  0  0  0  0  0  0
   46.9770   31.7450   45.7700 C   0  0  0  0  0  0  0  0  0  0  0  0
   46.0910   30.5600   45.8030 C   0  0  0  0  0  0  0  0  0  0  0  0
   45.8040   30.3060   47.2760 C   0  0  0  0  0  0  0  0  0  0  0  0
   45.0200   31.3810   47.8680 C   0  0  0  0  0  0  0  0  0  0  0  0
   45.3730   32.7490   47.4100 C   0  0  0  0  0  0  0  0  0  0  0  0
   47.2760   33.5090   46.9520 H   0  0  0  0  0  0  0  0  0  0  0  0
   47.2720   31.9340   44.7090 H   0  0  0  0  0  0  0  0  0  0  0  0
   47.9240   31.4690   46.2770 H   0  0  0  0  0  0  0  0  0  0  0  0
   45.1110   30.7450   45.3360 H   0  0  0  0  0  0  0  0  0  0  0  0
   46.6530   29.7050   45.3890 H   0  0  0  0  0  0  0  0  0  0  0  0
   45.1260   29.4180   47.2690 H   0  0  0  0  0  0  0  0  0  0  0  0
   46.7040   29.9990   47.8370 H   0  0  0  0  0  0  0  0  0  0  0  0
   44.2280   31.4760   48.5680 H   0  0  0  0  0  0  0  0  0  0  0  0
   44.6840   33.8810   47.9090 N   0  0  0  0  0  0  0  0  0  0  0  0
   45.1110   34.5540   48.5860 H   0  0  0  0  0  0  0  0  0  0  0  0
   43.7020   34.0110   47.5580 H   0  0  0  0  0  0  0  0  0  0  0  0
   47.0330   34.6450   41.8800 C   0  0  0  0  0  0  0  0  0  0  0  0
   48.1320   35.4240   41.7370 C   0  0  0  0  0  0  0  0  0  0  0  0
   48.7770   35.3500   40.4830 C   0  0  0  0  0  0  0  0  0  0  0  0
   48.2180   34.5020   39.5550 C   0  0  0  0  0  0  0  0  0  0  0  0
   47.1140   33.7200   39.6900 C   0  0  0  0  0  0  0  0  0  0  0  0
   46.5820   33.8700   40.9270 N   0  0  0  0  0  0  0  0  0  0  0  0
   48.5020   36.0580   42.5130 H   0  0  0  0  0  0  0  0  0  0  0  0
   49.6420   35.9450   40.3320 H   0  0  0  0  0  0  0  0  0  0  0  0
   48.7860   34.5140   38.6190 H   0  0  0  0  0  0  0  0  0  0  0  0
   46.7170   32.9090   38.5640 C   0  0  0  0  0  0  0  0  0  0  0  0
   45.9340   33.4410   37.6130 N   0  0  0  0  0  0  0  0  0  0  0  0
   45.5160   32.7680   36.5360 C   0  0  0  0  0  3  0  0  0  0  0  0
   45.8610   31.4710   36.3230 N   0  0  0  0  0  0  0  0  0  0  0  0
   46.6560   30.8470   37.2420 C   0  0  0  0  0  0  0  0  0  0  0  0
   47.0400   29.5330   37.0810 C   0  0  0  0  0  3  0  0  0  0  0  0
   47.8430   28.8940   38.0010 C   0  0  0  0  0  0  0  0  0  0  0  0
   48.0740   27.8640   37.7650 H   0  0  0  0  0  0  0  0  0  0  0  0
   48.2500   29.6440   39.1090 C   0  0  0  0  0  0  0  0  0  0  0  0
   48.8780   29.1070   39.8060 H   0  0  0  0  0  0  0  0  0  0  0  0
   47.8430   30.9530   39.2260 C   0  0  0  0  0  3  0  0  0  0  0  0
   47.0470   31.5990   38.3220 C   0  0  0  0  0  0  0  0  0  0  0  0
  1  7  1  0  0  0  0
  1  6  1  0  0  0  0
  2  1  2  0  0  0  0
  3  2  1  0  0  0  0
  3  4  2  0  0  0  0
  4  5  1  0  0  0  0
  5  6  2  0  0  0  0
  5  9  1  0  0  0  0
  8  2  1  0  0  0  0
  9 15  1  1  0  0  0
  9 14  1  0  0  0  0
 10 11  1  0  0  0  0
 10 17  1  0  0  0  0
 10  9  1  0  0  0  0
 11 12  1  0  0  0  0
 12 21  1  0  0  0  0
 12 13  1  0  0  0  0
 13 22  1  0  0  0  0
 14 13  2  0  0  0  0
 14 23  1  0  0  0  0
 16 10  1  0  0  0  0
 18 11  1  0  0  0  0
 19 11  1  0  0  0  0
 20 12  1  0  0  0  0
 23 24  1  0  0  0  0
 25 23  1  0  0  0  0
 26  3  1  0  0  0  0
 27 26  1  0  0  0  0
 27 32  1  0  0  0  0
 28 27  2  0  0  0  0
 29 30  2  0  0  0  0
 29 28  1  0  0  0  0
 30 31  1  0  0  0  0
 31 26  2  0  0  0  0
 33 28  1  0  0  0  0
 34 29  1  0  0  0  0
 35 30  1  0  0  0  0
 36 35  2  0  0  0  0
 37 36  1  0  0  0  0
 38 37  2  0  0  0  0
 38 39  1  0  0  0  0
 39 46  1  0  0  0  0
 40 39  2  0  0  0  0
 40 41  1  0  0  0  0
 41 43  2  0  0  0  0
 42 41  1  0  0  0  0
 43 45  1  0  0  0  0
 43 44  1  0  0  0  0
 46 35  1  0  0  0  0
 46 45  2  0  0  0  0
M  END
>  <minimizedAffinity>
-7.41531181

>  <minimizedRMSD>
0.187587142

$$$$
