
 OpenBabel03242512253D

 23 25  0  0  0  0  0  0  0  0999 V2000
   46.2520   32.5390   46.4930 C   0  0  0  0  0  0  0  0  0  0  0  0
   45.6530   32.8830   47.6580 N   0  0  0  0  0  0  0  0  0  0  0  0
   45.6580   32.1090   48.7450 C   0  0  0  0  0  0  0  0  0  0  0  0
   46.2600   30.9110   48.7870 N   0  0  0  0  0  0  0  0  0  0  0  0
   46.8780   30.4950   47.6720 C   0  0  0  0  0  0  0  0  0  0  0  0
   47.4950   29.2640   47.7200 C   0  0  0  0  0  0  0  0  0  0  0  0
   48.1480   28.7740   46.6090 C   0  0  0  0  0  0  0  0  0  0  0  0
   48.6150   27.8120   46.6880 H   0  0  0  0  0  0  0  0  0  0  0  0
   48.1440   29.5750   45.4800 C   0  0  0  0  0  0  0  0  0  0  0  0
   48.6740   29.1430   44.6310 H   0  0  0  0  0  0  0  0  0  0  0  0
   47.5160   30.7990   45.4760 C   0  0  0  0  0  0  0  0  0  0  0  0
   46.8610   31.3070   46.5630 C   0  0  0  0  0  0  0  0  0  0  0  0
   44.9280   35.0290   44.2670 C   0  0  0  0  0  0  0  0  0  0  0  0
   45.8330   35.1510   43.2060 C   0  0  0  0  0  0  0  0  0  0  0  0
   46.9690   34.3370   43.2460 C   0  0  0  0  0  0  0  0  0  0  0  0
   47.1030   33.5050   44.2920 N   0  0  0  0  0  0  0  0  0  0  0  0
   46.2480   33.3850   45.3000 C   0  0  0  0  0  0  0  0  0  0  0  0
   45.1860   34.1680   45.2320 N   0  0  0  0  0  0  0  0  0  0  0  0
   43.7390   35.8340   44.2910 N   0  0  0  0  0  0  0  0  0  0  0  0
   45.6820   35.8280   42.3960 H   0  0  0  0  0  0  0  0  0  0  0  0
   47.7240   34.3430   42.4980 H   0  0  0  0  0  0  0  0  0  0  0  0
   43.0630   35.7160   43.5140 H   0  0  0  0  0  0  0  0  0  0  0  0
   43.4990   36.5400   45.0380 H   0  0  0  0  0  0  0  0  0  0  0  0
  1 12  2  0  0  0  0
  1  2  1  0  0  0  0
  2  3  2  0  0  0  0
  3  4  1  0  0  0  0
  5  6  1  0  0  0  0
  5  4  2  0  0  0  0
  7  8  1  0  0  0  0
  7  6  2  0  0  0  0
  9  7  1  0  0  0  0
 10  9  1  0  0  0  0
 11  9  2  0  0  0  0
 11 12  1  0  0  0  0
 12  5  1  0  0  0  0
 13 19  1  0  0  0  0
 13 18  1  0  0  0  0
 14 15  1  0  0  0  0
 14 13  2  0  0  0  0
 15 16  2  0  0  0  0
 16 17  1  0  0  0  0
 17  1  1  0  0  0  0
 18 17  2  0  0  0  0
 19 23  1  0  0  0  0
 20 14  1  0  0  0  0
 21 15  1  0  0  0  0
 22 19  1  0  0  0  0
M  END
>  <minimizedAffinity>
-5.36164379

>  <minimizedRMSD>
2.4391613

$$$$
