
 OpenBabel03252505093D

 46 50  0  0  1  0  0  0  0  0999 V2000
   36.2600   30.1960   38.9880 C   0  0  0  0  0  0  0  0  0  0  0  0
   36.9580   31.4260   38.9810 C   0  0  0  0  0  0  0  0  0  0  0  0
   38.0920   31.5490   39.8270 C   0  0  0  0  0  0  0  0  0  0  0  0
   38.4420   30.4810   40.5930 N   0  0  0  0  0  0  0  0  0  0  0  0
   37.7550   29.3280   40.5730 C   0  0  0  0  0  0  0  0  0  0  0  0
   36.6560   29.1800   39.7670 N   0  0  0  0  0  0  0  0  0  0  0  0
   35.4120   30.1600   38.3290 H   0  0  0  0  0  0  0  0  0  0  0  0
   36.6920   32.2730   38.3820 H   0  0  0  0  0  0  0  0  0  0  0  0
   38.1810   28.2070   41.4360 C   0  0  2  0  0  0  0  0  0  0  0  0
   38.1970   26.9910   40.5510 C   0  0  0  0  0  0  0  0  0  0  0  0
   37.0670   26.0570   40.7530 C   0  0  0  0  0  0  0  0  0  0  0  0
   37.1100   25.6760   42.2260 C   0  0  0  0  0  0  0  0  0  0  0  0
   36.8170   26.8140   43.0870 C   0  0  0  0  0  0  0  0  0  0  0  0
   37.3910   28.1090   42.6420 C   0  0  0  0  0  0  0  0  0  0  0  0
   39.2450   28.4530   41.7190 H   0  0  0  0  0  0  0  0  0  0  0  0
   38.2510   27.2490   39.4660 H   0  0  0  0  0  0  0  0  0  0  0  0
   39.1340   26.4310   40.7510 H   0  0  0  0  0  0  0  0  0  0  0  0
   36.0870   26.5300   40.5950 H   0  0  0  0  0  0  0  0  0  0  0  0
   37.2580   25.1580   40.1390 H   0  0  0  0  0  0  0  0  0  0  0  0
   36.2410   24.9840   42.3500 H   0  0  0  0  0  0  0  0  0  0  0  0
   38.0070   25.0910   42.4880 H   0  0  0  0  0  0  0  0  0  0  0  0
   36.2840   26.9960   43.9860 H   0  0  0  0  0  0  0  0  0  0  0  0
   37.1780   29.2920   43.3910 N   0  0  0  0  0  0  0  0  0  0  0  0
   37.9270   29.7440   43.9640 H   0  0  0  0  0  0  0  0  0  0  0  0
   36.2100   29.6980   43.3400 H   0  0  0  0  0  0  0  0  0  0  0  0
   38.8300   32.7990   39.8540 C   0  0  0  0  0  0  0  0  0  0  0  0
   38.1570   33.9450   40.1110 C   0  0  0  0  0  0  0  0  0  0  0  0
   38.9360   35.1230   40.1280 C   0  0  0  0  0  0  0  0  0  0  0  0
   40.2820   34.9720   39.8810 C   0  0  0  0  0  0  0  0  0  0  0  0
   40.9630   33.8240   39.6200 C   0  0  0  0  0  0  0  0  0  0  0  0
   40.1200   32.7660   39.6310 N   0  0  0  0  0  0  0  0  0  0  0  0
   37.1050   33.9760   40.2920 H   0  0  0  0  0  0  0  0  0  0  0  0
   38.4450   36.0420   40.3260 H   0  0  0  0  0  0  0  0  0  0  0  0
   40.7980   35.9360   39.9160 H   0  0  0  0  0  0  0  0  0  0  0  0
   42.3850   33.9190   39.3910 C   0  0  0  0  0  0  0  0  0  0  0  0
   42.8750   33.6440   38.1720 N   0  0  0  0  0  0  0  0  0  0  0  0
   44.1760   33.7060   37.8670 C   0  0  0  0  0  3  0  0  0  0  0  0
   45.1120   34.0580   38.7850 N   0  0  0  0  0  0  0  0  0  0  0  0
   44.7030   34.3550   40.0540 C   0  0  0  0  0  0  0  0  0  0  0  0
   45.6060   34.7190   41.0300 C   0  0  0  0  0  3  0  0  0  0  0  0
   45.2050   35.0210   42.3130 C   0  0  0  0  0  0  0  0  0  0  0  0
   46.0040   35.2930   42.9890 H   0  0  0  0  0  0  0  0  0  0  0  0
   43.8330   34.9410   42.5790 C   0  0  0  0  0  0  0  0  0  0  0  0
   43.5590   35.1860   43.5960 H   0  0  0  0  0  0  0  0  0  0  0  0
   42.9700   34.5730   41.5730 C   0  0  0  0  0  3  0  0  0  0  0  0
   43.3540   34.2710   40.2960 C   0  0  0  0  0  0  0  0  0  0  0  0
  1  6  1  0  0  0  0
  2  1  2  0  0  0  0
  2  3  1  0  0  0  0
  3 26  1  0  0  0  0
  3  4  2  0  0  0  0
  5  4  1  0  0  0  0
  5  9  1  0  0  0  0
  6  5  2  0  0  0  0
  7  1  1  0  0  0  0
  8  2  1  0  0  0  0
  9 15  1  1  0  0  0
  9 14  1  0  0  0  0
 10 17  1  0  0  0  0
 10 11  1  0  0  0  0
 10  9  1  0  0  0  0
 11 12  1  0  0  0  0
 12 20  1  0  0  0  0
 12 21  1  0  0  0  0
 12 13  1  0  0  0  0
 13 22  1  0  0  0  0
 14 13  2  0  0  0  0
 14 23  1  0  0  0  0
 16 10  1  0  0  0  0
 18 11  1  0  0  0  0
 19 11  1  0  0  0  0
 23 24  1  0  0  0  0
 25 23  1  0  0  0  0
 26 27  1  0  0  0  0
 27 28  2  0  0  0  0
 27 32  1  0  0  0  0
 28 33  1  0  0  0  0
 29 34  1  0  0  0  0
 29 28  1  0  0  0  0
 30 31  1  0  0  0  0
 30 29  2  0  0  0  0
 31 26  2  0  0  0  0
 35 30  1  0  0  0  0
 35 46  1  0  0  0  0
 36 35  2  0  0  0  0
 37 36  1  0  0  0  0
 37 38  2  0  0  0  0
 38 39  1  0  0  0  0
 39 46  2  0  0  0  0
 39 40  1  0  0  0  0
 40 41  2  0  0  0  0
 41 43  1  0  0  0  0
 41 42  1  0  0  0  0
 43 44  1  0  0  0  0
 45 43  2  0  0  0  0
 46 45  1  0  0  0  0
M  END
>  <minimizedAffinity>
-7.69485855

$$$$

 OpenBabel03252505093D

 46 50  0  0  1  0  0  0  0  0999 V2000
   36.6290   30.2360   39.0120 C   0  0  0  0  0  0  0  0  0  0  0  0
   37.2600   31.4990   39.0960 C   0  0  0  0  0  0  0  0  0  0  0  0
   38.2930   31.6610   40.0570 C   0  0  0  0  0  0  0  0  0  0  0  0
   38.6150   30.5970   40.8400 N   0  0  0  0  0  0  0  0  0  0  0  0
   37.9940   29.4120   40.7320 C   0  0  0  0  0  0  0  0  0  0  0  0
   36.9940   29.2260   39.8130 N   0  0  0  0  0  0  0  0  0  0  0  0
   35.8570   30.1710   38.2680 H   0  0  0  0  0  0  0  0  0  0  0  0
   37.0150   32.3440   38.4850 H   0  0  0  0  0  0  0  0  0  0  0  0
   38.3850   28.2960   41.6180 C   0  0  2  0  0  0  0  0  0  0  0  0
   38.5610   27.1020   40.7210 C   0  0  0  0  0  0  0  0  0  0  0  0
   37.4680   26.1060   40.7850 C   0  0  0  0  0  0  0  0  0  0  0  0
   37.3730   25.6980   42.2480 C   0  0  0  0  0  0  0  0  0  0  0  0
   36.9280   26.8000   43.0900 C   0  0  0  0  0  0  0  0  0  0  0  0
   37.4770   28.1320   42.7300 C   0  0  0  0  0  0  0  0  0  0  0  0
   39.3980   28.5910   42.0180 H   0  0  0  0  0  0  0  0  0  0  0  0
   38.7170   27.3850   39.6520 H   0  0  0  0  0  0  0  0  0  0  0  0
   39.4990   26.5870   41.0130 H   0  0  0  0  0  0  0  0  0  0  0  0
   36.4860   26.5320   40.5300 H   0  0  0  0  0  0  0  0  0  0  0  0
   37.7710   25.2320   40.1820 H   0  0  0  0  0  0  0  0  0  0  0  0
   36.5350   24.9580   42.2670 H   0  0  0  0  0  0  0  0  0  0  0  0
   38.2670   25.1540   42.5970 H   0  0  0  0  0  0  0  0  0  0  0  0
   36.2940   26.9350   43.9300 H   0  0  0  0  0  0  0  0  0  0  0  0
   37.1220   29.2860   43.4700 N   0  0  0  0  0  0  0  0  0  0  0  0
   37.7790   29.7650   44.1280 H   0  0  0  0  0  0  0  0  0  0  0  0
   36.1440   29.6430   43.3210 H   0  0  0  0  0  0  0  0  0  0  0  0
   38.9600   32.9450   40.1790 C   0  0  0  0  0  0  0  0  0  0  0  0
   38.2130   34.0730   40.1180 C   0  0  0  0  0  0  0  0  0  0  0  0
   38.9230   35.2860   40.2500 C   0  0  0  0  0  0  0  0  0  0  0  0
   40.2850   35.1840   40.4220 C   0  0  0  0  0  0  0  0  0  0  0  0
   41.0410   34.0550   40.4820 C   0  0  0  0  0  0  0  0  0  0  0  0
   40.2580   32.9590   40.3470 N   0  0  0  0  0  0  0  0  0  0  0  0
   37.1540   34.0640   39.9810 H   0  0  0  0  0  0  0  0  0  0  0  0
   38.3740   36.1930   40.2070 H   0  0  0  0  0  0  0  0  0  0  0  0
   40.7450   36.1730   40.5140 H   0  0  0  0  0  0  0  0  0  0  0  0
   42.4640   34.2030   40.6700 C   0  0  0  0  0  0  0  0  0  0  0  0
   42.9320   34.6190   41.8570 N   0  0  0  0  0  0  0  0  0  0  0  0
   44.2330   34.7850   42.1230 C   0  0  0  0  0  3  0  0  0  0  0  0
   45.1910   34.5380   41.1930 N   0  0  0  0  0  0  0  0  0  0  0  0
   44.8060   34.1100   39.9550 C   0  0  0  0  0  0  0  0  0  0  0  0
   45.7330   33.8440   38.9700 C   0  0  0  0  0  3  0  0  0  0  0  0
   45.3550   33.4110   37.7170 C   0  0  0  0  0  0  0  0  0  0  0  0
   46.1720   33.2360   37.0300 H   0  0  0  0  0  0  0  0  0  0  0  0
   43.9830   33.2550   37.4920 C   0  0  0  0  0  0  0  0  0  0  0  0
   43.7280   32.9140   36.4980 H   0  0  0  0  0  0  0  0  0  0  0  0
   43.0960   33.5340   38.5060 C   0  0  0  0  0  3  0  0  0  0  0  0
   43.4560   33.9630   39.7530 C   0  0  0  0  0  0  0  0  0  0  0  0
  1  2  2  0  0  0  0
  1  6  1  0  0  0  0
  2  3  1  0  0  0  0
  3 26  1  0  0  0  0
  3  4  2  0  0  0  0
  5  4  1  0  0  0  0
  5  9  1  0  0  0  0
  6  5  2  0  0  0  0
  7  1  1  0  0  0  0
  8  2  1  0  0  0  0
  9 15  1  1  0  0  0
  9 14  1  0  0  0  0
 10 11  1  0  0  0  0
 10 17  1  0  0  0  0
 10  9  1  0  0  0  0
 11 12  1  0  0  0  0
 12 20  1  0  0  0  0
 12 21  1  0  0  0  0
 12 13  1  0  0  0  0
 13 22  1  0  0  0  0
 14 13  2  0  0  0  0
 14 23  1  0  0  0  0
 16 10  1  0  0  0  0
 18 11  1  0  0  0  0
 19 11  1  0  0  0  0
 23 24  1  0  0  0  0
 25 23  1  0  0  0  0
 26 31  1  0  0  0  0
 27 26  2  0  0  0  0
 27 28  1  0  0  0  0
 28 29  2  0  0  0  0
 29 30  1  0  0  0  0
 29 34  1  0  0  0  0
 30 35  1  0  0  0  0
 31 30  2  0  0  0  0
 32 27  1  0  0  0  0
 33 28  1  0  0  0  0
 35 36  1  0  0  0  0
 36 37  2  0  0  0  0
 38 37  1  0  0  0  0
 39 38  2  0  0  0  0
 40 39  1  0  0  0  0
 41 40  2  0  0  0  0
 42 41  1  0  0  0  0
 43 41  1  0  0  0  0
 43 45  2  0  0  0  0
 44 43  1  0  0  0  0
 45 46  1  0  0  0  0
 46 39  1  0  0  0  0
 46 35  2  0  0  0  0
M  END
>  <minimizedAffinity>
-7.48905039

$$$$

 OpenBabel03252505093D

 46 50  0  0  1  0  0  0  0  0999 V2000
   36.2840   31.1190   40.5560 C   0  0  0  0  0  0  0  0  0  0  0  0
   37.1750   32.1590   40.2020 C   0  0  0  0  0  0  0  0  0  0  0  0
   38.5520   31.9820   40.5020 C   0  0  0  0  0  0  0  0  0  0  0  0
   38.9340   30.8280   41.1100 N   0  0  0  0  0  0  0  0  0  0  0  0
   38.0590   29.8610   41.4300 C   0  0  0  0  0  0  0  0  0  0  0  0
   36.7240   30.0040   41.1530 N   0  0  0  0  0  0  0  0  0  0  0  0
   35.2560   31.3070   40.3050 H   0  0  0  0  0  0  0  0  0  0  0  0
   36.8850   33.0730   39.7240 H   0  0  0  0  0  0  0  0  0  0  0  0
   38.5370   28.6320   42.0980 C   0  0  2  0  0  0  0  0  0  0  0  0
   38.9820   27.7120   40.9950 C   0  0  0  0  0  0  0  0  0  0  0  0
   38.0590   26.5930   40.7040 C   0  0  0  0  0  0  0  0  0  0  0  0
   37.8940   25.8480   42.0210 C   0  0  0  0  0  0  0  0  0  0  0  0
   37.2050   26.6560   43.0180 C   0  0  0  0  0  0  0  0  0  0  0  0
   37.5670   28.0970   43.0250 C   0  0  0  0  0  0  0  0  0  0  0  0
   39.4500   28.9590   42.6760 H   0  0  0  0  0  0  0  0  0  0  0  0
   39.1900   28.2540   40.0400 H   0  0  0  0  0  0  0  0  0  0  0  0
   39.9590   27.2730   41.2840 H   0  0  0  0  0  0  0  0  0  0  0  0
   37.0500   26.9320   40.4250 H   0  0  0  0  0  0  0  0  0  0  0  0
   38.5510   25.9300   39.9700 H   0  0  0  0  0  0  0  0  0  0  0  0
   37.1850   25.0200   41.7750 H   0  0  0  0  0  0  0  0  0  0  0  0
   38.8270   25.3620   42.3540 H   0  0  0  0  0  0  0  0  0  0  0  0
   36.4820   26.5080   43.7800 H   0  0  0  0  0  0  0  0  0  0  0  0
   36.9680   28.9900   43.9450 N   0  0  0  0  0  0  0  0  0  0  0  0
   37.4770   29.3860   44.7680 H   0  0  0  0  0  0  0  0  0  0  0  0
   35.9640   29.2380   43.7550 H   0  0  0  0  0  0  0  0  0  0  0  0
   39.4970   33.0300   40.1620 C   0  0  0  0  0  0  0  0  0  0  0  0
   39.1560   34.3180   40.4110 C   0  0  0  0  0  0  0  0  0  0  0  0
   40.1230   35.2860   40.0620 C   0  0  0  0  0  0  0  0  0  0  0  0
   41.2930   34.8140   39.5110 C   0  0  0  0  0  0  0  0  0  0  0  0
   41.6400   33.5240   39.2570 C   0  0  0  0  0  0  0  0  0  0  0  0
   40.6430   32.6880   39.6320 N   0  0  0  0  0  0  0  0  0  0  0  0
   38.2220   34.6000   40.8430 H   0  0  0  0  0  0  0  0  0  0  0  0
   39.8940   36.3060   40.2400 H   0  0  0  0  0  0  0  0  0  0  0  0
   41.9760   35.6350   39.2750 H   0  0  0  0  0  0  0  0  0  0  0  0
   42.9340   33.2750   38.6680 C   0  0  0  0  0  0  0  0  0  0  0  0
   43.9750   34.0460   39.0160 N   0  0  0  0  0  0  0  0  0  0  0  0
   45.2100   33.8890   38.5240 C   0  0  0  0  0  3  0  0  0  0  0  0
   45.5030   32.9200   37.6200 N   0  0  0  0  0  0  0  0  0  0  0  0
   44.5020   32.0870   37.2070 C   0  0  0  0  0  0  0  0  0  0  0  0
   44.7380   31.0850   36.2910 C   0  0  0  0  0  3  0  0  0  0  0  0
   43.7360   30.2380   35.8680 C   0  0  0  0  0  0  0  0  0  0  0  0
   44.0440   29.4930   35.1480 H   0  0  0  0  0  0  0  0  0  0  0  0
   42.4650   30.4460   36.4140 C   0  0  0  0  0  0  0  0  0  0  0  0
   41.7070   29.7620   36.0570 H   0  0  0  0  0  0  0  0  0  0  0  0
   42.2770   31.4600   37.3250 C   0  0  0  0  0  3  0  0  0  0  0  0
   43.2610   32.3060   37.7540 C   0  0  0  0  0  0  0  0  0  0  0  0
  1  6  1  0  0  0  0
  2  3  1  0  0  0  0
  2  1  2  0  0  0  0
  3  4  2  0  0  0  0
  4  5  1  0  0  0  0
  5  9  1  0  0  0  0
  6  5  2  0  0  0  0
  7  1  1  0  0  0  0
  8  2  1  0  0  0  0
  9 15  1  1  0  0  0
  9 14  1  0  0  0  0
 10 17  1  0  0  0  0
 10  9  1  0  0  0  0
 11 10  1  0  0  0  0
 11 12  1  0  0  0  0
 12 21  1  0  0  0  0
 12 13  1  0  0  0  0
 13 14  2  0  0  0  0
 13 22  1  0  0  0  0
 14 23  1  0  0  0  0
 16 10  1  0  0  0  0
 18 11  1  0  0  0  0
 19 11  1  0  0  0  0
 20 12  1  0  0  0  0
 23 24  1  0  0  0  0
 25 23  1  0  0  0  0
 26 27  1  0  0  0  0
 26  3  1  0  0  0  0
 27 32  1  0  0  0  0
 28 33  1  0  0  0  0
 28 27  2  0  0  0  0
 29 28  1  0  0  0  0
 30 29  2  0  0  0  0
 30 31  1  0  0  0  0
 31 26  2  0  0  0  0
 34 29  1  0  0  0  0
 35 36  1  0  0  0  0
 35 30  1  0  0  0  0
 37 36  2  0  0  0  0
 38 37  1  0  0  0  0
 39 38  2  0  0  0  0
 39 46  1  0  0  0  0
 40 39  1  0  0  0  0
 41 40  2  0  0  0  0
 41 43  1  0  0  0  0
 42 41  1  0  0  0  0
 43 45  2  0  0  0  0
 44 43  1  0  0  0  0
 45 46  1  0  0  0  0
 46 35  2  0  0  0  0
M  END
>  <minimizedAffinity>
-7.4581337

$$$$

 OpenBabel03252505093D

 46 50  0  0  1  0  0  0  0  0999 V2000
   35.1410   28.9910   35.0660 C   0  0  0  0  0  0  0  0  0  0  0  0
   35.7040   28.7960   36.3480 C   0  0  0  0  0  0  0  0  0  0  0  0
   34.8450   28.9090   37.4740 C   0  0  0  0  0  0  0  0  0  0  0  0
   33.5350   29.1990   37.2560 N   0  0  0  0  0  0  0  0  0  0  0  0
   33.0350   29.3770   36.0230 C   0  0  0  0  0  0  0  0  0  0  0  0
   33.8400   29.2740   34.9180 N   0  0  0  0  0  0  0  0  0  0  0  0
   35.8360   28.8930   34.2530 H   0  0  0  0  0  0  0  0  0  0  0  0
   36.7350   28.5680   36.5320 H   0  0  0  0  0  0  0  0  0  0  0  0
   31.6020   29.6980   35.8530 C   0  0  2  0  0  0  0  0  0  0  0  0
   31.5110   30.5100   34.5900 C   0  0  0  0  0  0  0  0  0  0  0  0
   31.2950   31.9600   34.7950 C   0  0  0  0  0  0  0  0  0  0  0  0
   30.0240   32.0710   35.6240 C   0  0  0  0  0  0  0  0  0  0  0  0
   30.2010   31.5240   36.9620 C   0  0  0  0  0  0  0  0  0  0  0  0
   31.0270   30.2920   37.0380 C   0  0  0  0  0  0  0  0  0  0  0  0
   31.1070   28.7010   35.6690 H   0  0  0  0  0  0  0  0  0  0  0  0
   32.4000   30.3770   33.9270 H   0  0  0  0  0  0  0  0  0  0  0  0
   30.6580   30.1260   33.9940 H   0  0  0  0  0  0  0  0  0  0  0  0
   32.0860   32.4300   35.3980 H   0  0  0  0  0  0  0  0  0  0  0  0
   31.1250   32.4190   33.8050 H   0  0  0  0  0  0  0  0  0  0  0  0
   29.8940   33.1710   35.7720 H   0  0  0  0  0  0  0  0  0  0  0  0
   29.1290   31.7290   35.0770 H   0  0  0  0  0  0  0  0  0  0  0  0
   29.8960   31.7620   37.9500 H   0  0  0  0  0  0  0  0  0  0  0  0
   31.2750   29.6610   38.2810 N   0  0  0  0  0  0  0  0  0  0  0  0
   30.8260   28.7600   38.5620 H   0  0  0  0  0  0  0  0  0  0  0  0
   31.9470   30.1580   38.9200 H   0  0  0  0  0  0  0  0  0  0  0  0
   35.3880   28.7240   38.8070 C   0  0  0  0  0  0  0  0  0  0  0  0
   35.2810   29.7370   39.7000 C   0  0  0  0  0  0  0  0  0  0  0  0
   35.8250   29.4880   40.9790 C   0  0  0  0  0  0  0  0  0  0  0  0
   36.3990   28.2510   41.1710 C   0  0  0  0  0  0  0  0  0  0  0  0
   36.5120   27.2310   40.2790 C   0  0  0  0  0  0  0  0  0  0  0  0
   35.9580   27.5810   39.0950 N   0  0  0  0  0  0  0  0  0  0  0  0
   34.8180   30.6710   39.4680 H   0  0  0  0  0  0  0  0  0  0  0  0
   35.7600   30.2570   41.7060 H   0  0  0  0  0  0  0  0  0  0  0  0
   36.7900   28.1540   42.1880 H   0  0  0  0  0  0  0  0  0  0  0  0
   37.1620   26.0190   40.7170 C   0  0  0  0  0  0  0  0  0  0  0  0
   36.8580   24.8570   40.1200 N   0  0  0  0  0  0  0  0  0  0  0  0
   37.4090   23.6850   40.4580 C   0  0  0  0  0  3  0  0  0  0  0  0
   38.3340   23.5870   41.4470 N   0  0  0  0  0  0  0  0  0  0  0  0
   38.7040   24.7220   42.1100 C   0  0  0  0  0  0  0  0  0  0  0  0
   39.6380   24.6850   43.1230 C   0  0  0  0  0  3  0  0  0  0  0  0
   40.0200   25.8240   43.7990 C   0  0  0  0  0  0  0  0  0  0  0  0
   40.7590   25.6680   44.5730 H   0  0  0  0  0  0  0  0  0  0  0  0
   39.4120   27.0220   43.4060 C   0  0  0  0  0  0  0  0  0  0  0  0
   39.7390   27.8910   43.9600 H   0  0  0  0  0  0  0  0  0  0  0  0
   38.4860   27.0090   42.3900 C   0  0  0  0  0  3  0  0  0  0  0  0
   38.0980   25.8870   41.7110 C   0  0  0  0  0  0  0  0  0  0  0  0
  1  2  1  0  0  0  0
  2  8  1  0  0  0  0
  2  3  2  0  0  0  0
  3 26  1  0  0  0  0
  4  3  1  0  0  0  0
  5  4  2  0  0  0  0
  6  1  2  0  0  0  0
  6  5  1  0  0  0  0
  7  1  1  0  0  0  0
  9 15  1  6  0  0  0
  9  5  1  0  0  0  0
  9 14  1  0  0  0  0
 10 11  1  0  0  0  0
 10  9  1  0  0  0  0
 11 18  1  0  0  0  0
 11 12  1  0  0  0  0
 12 20  1  0  0  0  0
 12 13  1  0  0  0  0
 13 14  2  0  0  0  0
 13 22  1  0  0  0  0
 14 23  1  0  0  0  0
 16 10  1  0  0  0  0
 17 10  1  0  0  0  0
 19 11  1  0  0  0  0
 21 12  1  0  0  0  0
 23 24  1  0  0  0  0
 23 25  1  0  0  0  0
 26 31  2  0  0  0  0
 26 27  1  0  0  0  0
 27 28  2  0  0  0  0
 28 29  1  0  0  0  0
 28 33  1  0  0  0  0
 29 34  1  0  0  0  0
 30 35  1  0  0  0  0
 30 29  2  0  0  0  0
 31 30  1  0  0  0  0
 32 27  1  0  0  0  0
 35 46  1  0  0  0  0
 36 37  1  0  0  0  0
 36 35  2  0  0  0  0
 37 38  2  0  0  0  0
 38 39  1  0  0  0  0
 39 40  1  0  0  0  0
 40 41  2  0  0  0  0
 41 42  1  0  0  0  0
 43 41  1  0  0  0  0
 43 44  1  0  0  0  0
 45 43  2  0  0  0  0
 46 39  2  0  0  0  0
 46 45  1  0  0  0  0
M  END
>  <minimizedAffinity>
-7.43713427

$$$$

 OpenBabel03252505093D

 46 50  0  0  1  0  0  0  0  0999 V2000
   36.0130   24.5850   39.0670 C   0  0  0  0  0  0  0  0  0  0  0  0
   36.1750   25.7610   38.2980 C   0  0  0  0  0  0  0  0  0  0  0  0
   36.7730   26.8860   38.9260 C   0  0  0  0  0  0  0  0  0  0  0  0
   37.1540   26.7690   40.2260 N   0  0  0  0  0  0  0  0  0  0  0  0
   36.9840   25.6360   40.9250 C   0  0  0  0  0  0  0  0  0  0  0  0
   36.4100   24.5340   40.3450 N   0  0  0  0  0  0  0  0  0  0  0  0
   35.5570   23.7670   38.5410 H   0  0  0  0  0  0  0  0  0  0  0  0
   35.8790   25.8640   37.2740 H   0  0  0  0  0  0  0  0  0  0  0  0
   37.4120   25.5760   42.3380 C   0  0  2  0  0  0  0  0  0  0  0  0
   37.4290   26.9990   42.8220 C   0  0  0  0  0  0  0  0  0  0  0  0
   38.7770   27.5940   42.9640 C   0  0  0  0  0  0  0  0  0  0  0  0
   39.5330   26.6720   43.9100 C   0  0  0  0  0  0  0  0  0  0  0  0
   39.7600   25.3600   43.3210 C   0  0  0  0  0  0  0  0  0  0  0  0
   38.6350   24.8260   42.5120 C   0  0  0  0  0  0  0  0  0  0  0  0
   36.5750   25.0330   42.8660 H   0  0  0  0  0  0  0  0  0  0  0  0
   36.8100   27.6780   42.1870 H   0  0  0  0  0  0  0  0  0  0  0  0
   36.9440   27.0310   43.8190 H   0  0  0  0  0  0  0  0  0  0  0  0
   39.3480   27.5890   42.0230 H   0  0  0  0  0  0  0  0  0  0  0  0
   38.6610   28.5860   43.4360 H   0  0  0  0  0  0  0  0  0  0  0  0
   40.5460   27.1380   43.9870 H   0  0  0  0  0  0  0  0  0  0  0  0
   39.1160   26.6780   44.9310 H   0  0  0  0  0  0  0  0  0  0  0  0
   40.5360   24.6370   43.3000 H   0  0  0  0  0  0  0  0  0  0  0  0
   38.7290   23.5600   41.8850 N   0  0  0  0  0  0  0  0  0  0  0  0
   38.2110   22.7170   42.2230 H   0  0  0  0  0  0  0  0  0  0  0  0
   39.3620   23.5110   41.0460 H   0  0  0  0  0  0  0  0  0  0  0  0
   36.9490   28.1140   38.1720 C   0  0  0  0  0  0  0  0  0  0  0  0
   36.0860   28.3880   37.1650 C   0  0  0  0  0  0  0  0  0  0  0  0
   36.3110   29.6010   36.4780 C   0  0  0  0  0  0  0  0  0  0  0  0
   37.3760   30.3600   36.9060 C   0  0  0  0  0  0  0  0  0  0  0  0
   38.2470   30.0900   37.9140 C   0  0  0  0  0  0  0  0  0  0  0  0
   37.9350   28.9100   38.5000 N   0  0  0  0  0  0  0  0  0  0  0  0
   35.2810   27.7410   36.8960 H   0  0  0  0  0  0  0  0  0  0  0  0
   35.6560   29.8510   35.6820 H   0  0  0  0  0  0  0  0  0  0  0  0
   37.4680   31.2760   36.3150 H   0  0  0  0  0  0  0  0  0  0  0  0
   39.2950   31.0470   38.1780 C   0  0  0  0  0  0  0  0  0  0  0  0
   40.5370   30.8030   37.7340 N   0  0  0  0  0  0  0  0  0  0  0  0
   41.5690   31.6310   37.9300 C   0  0  0  0  0  3  0  0  0  0  0  0
   41.4310   32.8010   38.6050 N   0  0  0  0  0  0  0  0  0  0  0  0
   40.2000   33.1320   39.0940 C   0  0  0  0  0  0  0  0  0  0  0  0
   39.9970   34.3060   39.7860 C   0  0  0  0  0  3  0  0  0  0  0  0
   38.7590   34.6500   40.2840 C   0  0  0  0  0  0  0  0  0  0  0  0
   38.7250   35.5950   40.8090 H   0  0  0  0  0  0  0  0  0  0  0  0
   37.7140   33.7480   40.0510 C   0  0  0  0  0  0  0  0  0  0  0  0
   36.7600   34.0550   40.4560 H   0  0  0  0  0  0  0  0  0  0  0  0
   37.9650   32.5890   39.3540 C   0  0  0  0  0  3  0  0  0  0  0  0
   39.1870   32.2350   38.8550 C   0  0  0  0  0  0  0  0  0  0  0  0
  1  6  1  0  0  0  0
  2  3  1  0  0  0  0
  2  1  2  0  0  0  0
  3  4  2  0  0  0  0
  4  5  1  0  0  0  0
  5  9  1  0  0  0  0
  6  5  2  0  0  0  0
  7  1  1  0  0  0  0
  8  2  1  0  0  0  0
  9 14  1  0  0  0  0
  9 10  1  0  0  0  0
  9 15  1  1  0  0  0
 10 11  1  0  0  0  0
 10 17  1  0  0  0  0
 11 19  1  0  0  0  0
 11 12  1  0  0  0  0
 12 20  1  0  0  0  0
 12 21  1  0  0  0  0
 13 12  1  0  0  0  0
 14 13  2  0  0  0  0
 16 10  1  0  0  0  0
 18 11  1  0  0  0  0
 22 13  1  0  0  0  0
 23 24  1  0  0  0  0
 23 14  1  0  0  0  0
 25 23  1  0  0  0  0
 26 31  1  0  0  0  0
 26  3  1  0  0  0  0
 27 26  2  0  0  0  0
 28 29  2  0  0  0  0
 28 27  1  0  0  0  0
 29 30  1  0  0  0  0
 30 35  1  0  0  0  0
 30 31  2  0  0  0  0
 32 27  1  0  0  0  0
 33 28  1  0  0  0  0
 34 29  1  0  0  0  0
 35 46  1  0  0  0  0
 36 37  1  0  0  0  0
 36 35  2  0  0  0  0
 37 38  2  0  0  0  0
 38 39  1  0  0  0  0
 39 40  1  0  0  0  0
 40 41  2  0  0  0  0
 41 42  1  0  0  0  0
 43 41  1  0  0  0  0
 43 44  1  0  0  0  0
 45 43  2  0  0  0  0
 46 39  2  0  0  0  0
 46 45  1  0  0  0  0
M  END
>  <minimizedAffinity>
-7.19157982

$$$$

 OpenBabel03252505093D

 46 50  0  0  1  0  0  0  0  0999 V2000
   40.1990   34.8330   39.8460 C   0  0  0  0  0  0  0  0  0  0  0  0
   39.1860   33.8940   40.1490 C   0  0  0  0  0  0  0  0  0  0  0  0
   39.4630   32.5210   39.9150 C   0  0  0  0  0  0  0  0  0  0  0  0
   40.6830   32.1880   39.4150 N   0  0  0  0  0  0  0  0  0  0  0  0
   41.6210   33.1070   39.1400 C   0  0  0  0  0  0  0  0  0  0  0  0
   41.3820   34.4400   39.3550 N   0  0  0  0  0  0  0  0  0  0  0  0
   39.9340   35.8550   40.0430 H   0  0  0  0  0  0  0  0  0  0  0  0
   38.2210   34.1450   40.5420 H   0  0  0  0  0  0  0  0  0  0  0  0
   42.9250   32.6810   38.5900 C   0  0  2  0  0  0  0  0  0  0  0  0
   43.7210   32.1790   39.7630 C   0  0  0  0  0  0  0  0  0  0  0  0
   44.7860   33.0940   40.2320 C   0  0  0  0  0  0  0  0  0  0  0  0
   45.6720   33.3440   39.0200 C   0  0  0  0  0  0  0  0  0  0  0  0
   44.9710   34.0840   37.9800 C   0  0  0  0  0  0  0  0  0  0  0  0
   43.5470   33.7100   37.7880 C   0  0  0  0  0  0  0  0  0  0  0  0
   42.6800   31.8020   37.9260 H   0  0  0  0  0  0  0  0  0  0  0  0
   43.0780   31.9100   40.6360 H   0  0  0  0  0  0  0  0  0  0  0  0
   44.2060   31.2260   39.4690 H   0  0  0  0  0  0  0  0  0  0  0  0
   44.4020   34.0810   40.5290 H   0  0  0  0  0  0  0  0  0  0  0  0
   45.3690   32.5650   41.0070 H   0  0  0  0  0  0  0  0  0  0  0  0
   46.4560   34.0450   39.4000 H   0  0  0  0  0  0  0  0  0  0  0  0
   46.2070   32.4370   38.6910 H   0  0  0  0  0  0  0  0  0  0  0  0
   45.1930   34.8520   37.2830 H   0  0  0  0  0  0  0  0  0  0  0  0
   42.7540   34.3550   36.8080 N   0  0  0  0  0  0  0  0  0  0  0  0
   42.4610   33.8920   35.9180 H   0  0  0  0  0  0  0  0  0  0  0  0
   42.4700   35.3430   37.0270 H   0  0  0  0  0  0  0  0  0  0  0  0
   38.4450   31.5280   40.2060 C   0  0  0  0  0  0  0  0  0  0  0  0
   37.1840   31.9460   40.4670 C   0  0  0  0  0  0  0  0  0  0  0  0
   36.2430   30.9280   40.7360 C   0  0  0  0  0  0  0  0  0  0  0  0
   36.7130   29.6350   40.7030 C   0  0  0  0  0  0  0  0  0  0  0  0
   37.9780   29.2080   40.4450 C   0  0  0  0  0  0  0  0  0  0  0  0
   38.7880   30.2640   40.2010 N   0  0  0  0  0  0  0  0  0  0  0  0
   36.9010   32.9760   40.4730 H   0  0  0  0  0  0  0  0  0  0  0  0
   35.2440   31.2160   40.9450 H   0  0  0  0  0  0  0  0  0  0  0  0
   35.9140   28.9210   40.9230 H   0  0  0  0  0  0  0  0  0  0  0  0
   38.2300   27.7870   40.4690 C   0  0  0  0  0  0  0  0  0  0  0  0
   37.9240   27.0450   39.3940 N   0  0  0  0  0  0  0  0  0  0  0  0
   38.1230   25.7240   39.3250 C   0  0  0  0  0  3  0  0  0  0  0  0
   38.6600   25.0250   40.3590 N   0  0  0  0  0  0  0  0  0  0  0  0
   39.0010   25.7000   41.4960 C   0  0  0  0  0  0  0  0  0  0  0  0
   39.5500   25.0460   42.5780 C   0  0  0  0  0  3  0  0  0  0  0  0
   39.8990   25.7170   43.7300 C   0  0  0  0  0  0  0  0  0  0  0  0
   40.3200   25.0960   44.5090 H   0  0  0  0  0  0  0  0  0  0  0  0
   39.6700   27.0970   43.7490 C   0  0  0  0  0  0  0  0  0  0  0  0
   39.9570   27.5860   44.6690 H   0  0  0  0  0  0  0  0  0  0  0  0
   39.1200   27.7060   42.6440 C   0  0  0  0  0  3  0  0  0  0  0  0
   38.7700   27.0540   41.4960 C   0  0  0  0  0  0  0  0  0  0  0  0
  1  7  1  0  0  0  0
  1  2  1  0  0  0  0
  2  8  1  0  0  0  0
  3  2  2  0  0  0  0
  3 26  1  0  0  0  0
  4  3  1  0  0  0  0
  5  6  1  0  0  0  0
  5  4  2  0  0  0  0
  6  1  2  0  0  0  0
  9 15  1  6  0  0  0
  9  5  1  0  0  0  0
  9 10  1  0  0  0  0
 10 11  1  0  0  0  0
 10 16  1  0  0  0  0
 11 18  1  0  0  0  0
 11 19  1  0  0  0  0
 12 20  1  0  0  0  0
 12 11  1  0  0  0  0
 13 12  1  0  0  0  0
 14 13  2  0  0  0  0
 14  9  1  0  0  0  0
 17 10  1  0  0  0  0
 21 12  1  0  0  0  0
 22 13  1  0  0  0  0
 23 25  1  0  0  0  0
 23 14  1  0  0  0  0
 24 23  1  0  0  0  0
 26 27  1  0  0  0  0
 27 32  1  0  0  0  0
 27 28  2  0  0  0  0
 28 33  1  0  0  0  0
 29 28  1  0  0  0  0
 29 34  1  0  0  0  0
 30 35  1  0  0  0  0
 30 29  2  0  0  0  0
 31 26  2  0  0  0  0
 31 30  1  0  0  0  0
 35 46  1  0  0  0  0
 36 35  2  0  0  0  0
 37 36  1  0  0  0  0
 37 38  2  0  0  0  0
 38 39  1  0  0  0  0
 39 46  2  0  0  0  0
 39 40  1  0  0  0  0
 40 41  2  0  0  0  0
 41 43  1  0  0  0  0
 41 42  1  0  0  0  0
 43 44  1  0  0  0  0
 45 43  2  0  0  0  0
 46 45  1  0  0  0  0
M  END
>  <minimizedAffinity>
-7.1421442

$$$$

 OpenBabel03252505093D

 46 50  0  0  1  0  0  0  0  0999 V2000
   41.3870   34.3250   40.1820 C   0  0  0  0  0  0  0  0  0  0  0  0
   41.9320   33.3480   41.0470 C   0  0  0  0  0  0  0  0  0  0  0  0
   41.2180   32.1300   41.2050 C   0  0  0  0  0  0  0  0  0  0  0  0
   40.0560   31.9730   40.5180 N   0  0  0  0  0  0  0  0  0  0  0  0
   39.5690   32.9230   39.7030 C   0  0  0  0  0  0  0  0  0  0  0  0
   40.2360   34.1080   39.5320 N   0  0  0  0  0  0  0  0  0  0  0  0
   41.9700   35.2240   40.1000 H   0  0  0  0  0  0  0  0  0  0  0  0
   42.8460   33.4610   41.5940 H   0  0  0  0  0  0  0  0  0  0  0  0
   38.2950   32.6940   38.9900 C   0  0  2  0  0  0  0  0  0  0  0  0
   37.3450   32.1390   40.0160 C   0  0  0  0  0  0  0  0  0  0  0  0
   37.0870   30.6860   39.9050 C   0  0  0  0  0  0  0  0  0  0  0  0
   36.5710   30.4700   38.4900 C   0  0  0  0  0  0  0  0  0  0  0  0
   37.5940   30.7480   37.4920 C   0  0  0  0  0  0  0  0  0  0  0  0
   38.4690   31.9110   37.7890 C   0  0  0  0  0  0  0  0  0  0  0  0
   37.9400   33.7270   38.7020 H   0  0  0  0  0  0  0  0  0  0  0  0
   37.6640   32.3610   41.0630 H   0  0  0  0  0  0  0  0  0  0  0  0
   36.3730   32.6610   39.9040 H   0  0  0  0  0  0  0  0  0  0  0  0
   38.0030   30.0810   39.9840 H   0  0  0  0  0  0  0  0  0  0  0  0
   36.2910   30.4280   40.6260 H   0  0  0  0  0  0  0  0  0  0  0  0
   36.3970   29.3670   38.4320 H   0  0  0  0  0  0  0  0  0  0  0  0
   35.5890   30.9430   38.3190 H   0  0  0  0  0  0  0  0  0  0  0  0
   37.9140   30.3400   36.5660 H   0  0  0  0  0  0  0  0  0  0  0  0
   39.5040   32.2860   36.8990 N   0  0  0  0  0  0  0  0  0  0  0  0
   39.4510   33.1350   36.2910 H   0  0  0  0  0  0  0  0  0  0  0  0
   40.3430   31.6530   36.8800 H   0  0  0  0  0  0  0  0  0  0  0  0
   41.7410   31.1070   42.0920 C   0  0  0  0  0  0  0  0  0  0  0  0
   42.7710   31.4210   42.9130 C   0  0  0  0  0  0  0  0  0  0  0  0
   43.2260   30.3810   43.7520 C   0  0  0  0  0  0  0  0  0  0  0  0
   42.5760   29.1730   43.6400 C   0  0  0  0  0  0  0  0  0  0  0  0
   41.5430   28.8500   42.8160 C   0  0  0  0  0  0  0  0  0  0  0  0
   41.1910   29.9190   42.0630 N   0  0  0  0  0  0  0  0  0  0  0  0
   43.2210   32.3890   42.9380 H   0  0  0  0  0  0  0  0  0  0  0  0
   44.0320   30.5890   44.4100 H   0  0  0  0  0  0  0  0  0  0  0  0
   42.9980   28.4340   44.3270 H   0  0  0  0  0  0  0  0  0  0  0  0
   41.0240   27.5040   42.8780 C   0  0  0  0  0  0  0  0  0  0  0  0
   41.8730   26.4790   43.0470 N   0  0  0  0  0  0  0  0  0  0  0  0
   41.4840   25.2000   43.1170 C   0  0  0  0  0  3  0  0  0  0  0  0
   40.1770   24.8430   43.0210 N   0  0  0  0  0  0  0  0  0  0  0  0
   39.2420   25.8230   42.8470 C   0  0  0  0  0  0  0  0  0  0  0  0
   37.9020   25.5220   42.7420 C   0  0  0  0  0  3  0  0  0  0  0  0
   36.9490   26.5030   42.5670 C   0  0  0  0  0  0  0  0  0  0  0  0
   35.9320   26.1430   42.4980 H   0  0  0  0  0  0  0  0  0  0  0  0
   37.4110   27.8220   42.5000 C   0  0  0  0  0  0  0  0  0  0  0  0
   36.6330   28.5610   42.3630 H   0  0  0  0  0  0  0  0  0  0  0  0
   38.7590   28.0740   42.6100 C   0  0  0  0  0  3  0  0  0  0  0  0
   39.7130   27.1110   42.7840 C   0  0  0  0  0  0  0  0  0  0  0  0
  1  2  1  0  0  0  0
  2  3  2  0  0  0  0
  2  8  1  0  0  0  0
  3 26  1  0  0  0  0
  4  3  1  0  0  0  0
  5  4  2  0  0  0  0
  6  5  1  0  0  0  0
  6  1  2  0  0  0  0
  7  1  1  0  0  0  0
  9 15  1  6  0  0  0
  9  5  1  0  0  0  0
  9 10  1  0  0  0  0
 10 16  1  0  0  0  0
 11 18  1  0  0  0  0
 11 10  1  0  0  0  0
 11 19  1  0  0  0  0
 12 11  1  0  0  0  0
 13 14  2  0  0  0  0
 13 12  1  0  0  0  0
 14  9  1  0  0  0  0
 17 10  1  0  0  0  0
 20 12  1  0  0  0  0
 21 12  1  0  0  0  0
 22 13  1  0  0  0  0
 23 14  1  0  0  0  0
 24 23  1  0  0  0  0
 25 23  1  0  0  0  0
 26 27  1  0  0  0  0
 27 32  1  0  0  0  0
 27 28  2  0  0  0  0
 28 33  1  0  0  0  0
 29 28  1  0  0  0  0
 29 34  1  0  0  0  0
 30 35  1  0  0  0  0
 30 29  2  0  0  0  0
 31 26  2  0  0  0  0
 31 30  1  0  0  0  0
 35 36  1  0  0  0  0
 36 37  2  0  0  0  0
 38 37  1  0  0  0  0
 39 38  2  0  0  0  0
 40 39  1  0  0  0  0
 41 40  2  0  0  0  0
 42 41  1  0  0  0  0
 43 41  1  0  0  0  0
 43 45  2  0  0  0  0
 44 43  1  0  0  0  0
 45 46  1  0  0  0  0
 46 39  1  0  0  0  0
 46 35  2  0  0  0  0
M  END
>  <minimizedAffinity>
-7.07994032

$$$$

 OpenBabel03252505093D

 46 50  0  0  1  0  0  0  0  0999 V2000
   35.6090   27.3690   37.9800 C   0  0  0  0  0  0  0  0  0  0  0  0
   36.2680   26.5940   38.9640 C   0  0  0  0  0  0  0  0  0  0  0  0
   37.0360   27.2800   39.9420 C   0  0  0  0  0  0  0  0  0  0  0  0
   37.0950   28.6360   39.8780 N   0  0  0  0  0  0  0  0  0  0  0  0
   36.4560   29.3390   38.9290 C   0  0  0  0  0  0  0  0  0  0  0  0
   35.7070   28.7050   37.9720 N   0  0  0  0  0  0  0  0  0  0  0  0
   35.0430   26.7980   37.2670 H   0  0  0  0  0  0  0  0  0  0  0  0
   36.2290   25.5250   39.0240 H   0  0  0  0  0  0  0  0  0  0  0  0
   36.5660   30.8130   38.9090 C   0  0  2  0  0  0  0  0  0  0  0  0
   37.6610   31.1280   37.9270 C   0  0  0  0  0  0  0  0  0  0  0  0
   38.9450   31.5420   38.5340 C   0  0  0  0  0  0  0  0  0  0  0  0
   38.6150   32.7440   39.4080 C   0  0  0  0  0  0  0  0  0  0  0  0
   37.7660   32.3770   40.5330 C   0  0  0  0  0  0  0  0  0  0  0  0
   36.7150   31.3720   40.2330 C   0  0  0  0  0  0  0  0  0  0  0  0
   35.5870   31.1660   38.4730 H   0  0  0  0  0  0  0  0  0  0  0  0
   37.8610   30.2860   37.2200 H   0  0  0  0  0  0  0  0  0  0  0  0
   37.3140   31.9590   37.2790 H   0  0  0  0  0  0  0  0  0  0  0  0
   39.3610   30.7840   39.2150 H   0  0  0  0  0  0  0  0  0  0  0  0
   39.6180   31.8590   37.7180 H   0  0  0  0  0  0  0  0  0  0  0  0
   39.5970   33.0250   39.8610 H   0  0  0  0  0  0  0  0  0  0  0  0
   38.2880   33.6190   38.8210 H   0  0  0  0  0  0  0  0  0  0  0  0
   37.6750   32.6330   41.5590 H   0  0  0  0  0  0  0  0  0  0  0  0
   35.8240   30.9300   41.2410 N   0  0  0  0  0  0  0  0  0  0  0  0
   34.8190   31.2140   41.2760 H   0  0  0  0  0  0  0  0  0  0  0  0
   36.2360   30.2910   41.9670 H   0  0  0  0  0  0  0  0  0  0  0  0
   37.7330   26.5190   40.9630 C   0  0  0  0  0  0  0  0  0  0  0  0
   37.2140   25.3320   41.3580 C   0  0  0  0  0  0  0  0  0  0  0  0
   37.9450   24.6430   42.3490 C   0  0  0  0  0  0  0  0  0  0  0  0
   39.0940   25.2530   42.8000 C   0  0  0  0  0  0  0  0  0  0  0  0
   39.6190   26.4450   42.4100 C   0  0  0  0  0  0  0  0  0  0  0  0
   38.8390   27.0120   41.4600 N   0  0  0  0  0  0  0  0  0  0  0  0
   36.3120   24.9280   40.9550 H   0  0  0  0  0  0  0  0  0  0  0  0
   37.5710   23.7080   42.6850 H   0  0  0  0  0  0  0  0  0  0  0  0
   39.5890   24.6440   43.5630 H   0  0  0  0  0  0  0  0  0  0  0  0
   40.8460   26.8800   43.0340 C   0  0  0  0  0  0  0  0  0  0  0  0
   41.6330   25.9780   43.6390 N   0  0  0  0  0  0  0  0  0  0  0  0
   42.7860   26.2880   44.2420 C   0  0  0  0  0  3  0  0  0  0  0  0
   43.2520   27.5620   44.2860 N   0  0  0  0  0  0  0  0  0  0  0  0
   42.5140   28.5480   43.6960 C   0  0  0  0  0  0  0  0  0  0  0  0
   42.9350   29.8610   43.7070 C   0  0  0  0  0  3  0  0  0  0  0  0
   42.1980   30.8640   43.1140 C   0  0  0  0  0  0  0  0  0  0  0  0
   42.6310   31.8520   43.1890 H   0  0  0  0  0  0  0  0  0  0  0  0
   41.0000   30.4840   42.4980 C   0  0  0  0  0  0  0  0  0  0  0  0
   40.4530   31.2990   42.0450 H   0  0  0  0  0  0  0  0  0  0  0  0
   40.6220   29.1620   42.5120 C   0  0  0  0  0  3  0  0  0  0  0  0
   41.3420   28.1580   43.0960 C   0  0  0  0  0  0  0  0  0  0  0  0
  1  2  1  0  0  0  0
  2  8  1  0  0  0  0
  2  3  2  0  0  0  0
  3 26  1  0  0  0  0
  4  3  1  0  0  0  0
  5  4  2  0  0  0  0
  6  1  2  0  0  0  0
  6  5  1  0  0  0  0
  7  1  1  0  0  0  0
  9 15  1  6  0  0  0
  9  5  1  0  0  0  0
  9 14  1  0  0  0  0
 10 11  1  0  0  0  0
 10  9  1  0  0  0  0
 11 18  1  0  0  0  0
 11 12  1  0  0  0  0
 12 20  1  0  0  0  0
 12 13  1  0  0  0  0
 13 22  1  0  0  0  0
 14 13  2  0  0  0  0
 14 23  1  0  0  0  0
 16 10  1  0  0  0  0
 17 10  1  0  0  0  0
 19 11  1  0  0  0  0
 21 12  1  0  0  0  0
 23 24  1  0  0  0  0
 23 25  1  0  0  0  0
 26 27  2  0  0  0  0
 26 31  1  0  0  0  0
 27 28  1  0  0  0  0
 28 33  1  0  0  0  0
 28 29  2  0  0  0  0
 29 34  1  0  0  0  0
 30 29  1  0  0  0  0
 30 35  1  0  0  0  0
 31 30  2  0  0  0  0
 32 27  1  0  0  0  0
 35 46  2  0  0  0  0
 35 36  1  0  0  0  0
 36 37  2  0  0  0  0
 37 38  1  0  0  0  0
 39 40  1  0  0  0  0
 39 38  2  0  0  0  0
 41 42  1  0  0  0  0
 41 40  2  0  0  0  0
 43 45  2  0  0  0  0
 43 41  1  0  0  0  0
 44 43  1  0  0  0  0
 45 46  1  0  0  0  0
 46 39  1  0  0  0  0
M  END
>  <minimizedAffinity>
-6.96650887

$$$$

 OpenBabel03252505093D

 46 50  0  0  1  0  0  0  0  0999 V2000
   39.5160   35.2860   40.2040 C   0  0  0  0  0  0  0  0  0  0  0  0
   38.6250   34.2060   40.4050 C   0  0  0  0  0  0  0  0  0  0  0  0
   39.1840   32.9250   40.6530 C   0  0  0  0  0  0  0  0  0  0  0  0
   40.5380   32.8080   40.6830 N   0  0  0  0  0  0  0  0  0  0  0  0
   41.3530   33.8570   40.4880 C   0  0  0  0  0  0  0  0  0  0  0  0
   40.8420   35.1060   40.2460 N   0  0  0  0  0  0  0  0  0  0  0  0
   39.0380   36.2310   40.0210 H   0  0  0  0  0  0  0  0  0  0  0  0
   37.5570   34.2860   40.3830 H   0  0  0  0  0  0  0  0  0  0  0  0
   42.8180   33.6630   40.5240 C   0  0  2  0  0  0  0  0  0  0  0  0
   43.2450   33.4940   39.0920 C   0  0  0  0  0  0  0  0  0  0  0  0
   43.5760   32.1070   38.6990 C   0  0  0  0  0  0  0  0  0  0  0  0
   44.6650   31.6580   39.6640 C   0  0  0  0  0  0  0  0  0  0  0  0
   44.1690   31.5540   41.0290 C   0  0  0  0  0  0  0  0  0  0  0  0
   43.2120   32.6150   41.4370 C   0  0  0  0  0  0  0  0  0  0  0  0
   43.2260   34.6450   40.9020 H   0  0  0  0  0  0  0  0  0  0  0  0
   42.4940   33.8950   38.3690 H   0  0  0  0  0  0  0  0  0  0  0  0
   44.1500   34.1140   38.9270 H   0  0  0  0  0  0  0  0  0  0  0  0
   42.7390   31.4080   38.8480 H   0  0  0  0  0  0  0  0  0  0  0  0
   43.9870   32.1340   37.6740 H   0  0  0  0  0  0  0  0  0  0  0  0
   44.8840   30.6070   39.3510 H   0  0  0  0  0  0  0  0  0  0  0  0
   45.6060   32.2180   39.5330 H   0  0  0  0  0  0  0  0  0  0  0  0
   44.2990   30.9080   41.8600 H   0  0  0  0  0  0  0  0  0  0  0  0
   42.6550   32.6270   42.7390 N   0  0  0  0  0  0  0  0  0  0  0  0
   42.9380   33.3180   43.4720 H   0  0  0  0  0  0  0  0  0  0  0  0
   41.9310   31.8910   42.9340 H   0  0  0  0  0  0  0  0  0  0  0  0
   38.3020   31.7890   40.8570 C   0  0  0  0  0  0  0  0  0  0  0  0
   37.0010   31.9050   40.5010 C   0  0  0  0  0  0  0  0  0  0  0  0
   36.2010   30.7620   40.7200 C   0  0  0  0  0  0  0  0  0  0  0  0
   36.8310   29.6680   41.2690 C   0  0  0  0  0  0  0  0  0  0  0  0
   38.1360   29.5470   41.6320 C   0  0  0  0  0  0  0  0  0  0  0  0
   38.8030   30.6970   41.3750 N   0  0  0  0  0  0  0  0  0  0  0  0
   36.5890   32.7950   40.0790 H   0  0  0  0  0  0  0  0  0  0  0  0
   35.1750   30.8130   40.4540 H   0  0  0  0  0  0  0  0  0  0  0  0
   36.1320   28.8370   41.4010 H   0  0  0  0  0  0  0  0  0  0  0  0
   38.5680   28.2890   42.1930 C   0  0  0  0  0  0  0  0  0  0  0  0
   37.7130   27.2550   42.2270 N   0  0  0  0  0  0  0  0  0  0  0  0
   38.0240   26.0540   42.7260 C   0  0  0  0  0  3  0  0  0  0  0  0
   39.2510   25.7890   43.2450 N   0  0  0  0  0  0  0  0  0  0  0  0
   40.1860   26.7850   43.2530 C   0  0  0  0  0  0  0  0  0  0  0  0
   41.4480   26.5770   43.7660 C   0  0  0  0  0  3  0  0  0  0  0  0
   42.3990   27.5740   43.7790 C   0  0  0  0  0  0  0  0  0  0  0  0
   43.3510   27.2910   44.2070 H   0  0  0  0  0  0  0  0  0  0  0  0
   42.0210   28.8110   43.2440 C   0  0  0  0  0  0  0  0  0  0  0  0
   42.7950   29.5660   43.2720 H   0  0  0  0  0  0  0  0  0  0  0  0
   40.7500   28.9710   42.7430 C   0  0  0  0  0  3  0  0  0  0  0  0
   39.7970   27.9910   42.7240 C   0  0  0  0  0  0  0  0  0  0  0  0
  1  6  2  0  0  0  0
  1  2  1  0  0  0  0
  2  3  2  0  0  0  0
  3  4  1  0  0  0  0
  3 26  1  0  0  0  0
  5  9  1  0  0  0  0
  5  4  2  0  0  0  0
  6  5  1  0  0  0  0
  7  1  1  0  0  0  0
  8  2  1  0  0  0  0
  9 15  1  1  0  0  0
  9 14  1  0  0  0  0
 10  9  1  0  0  0  0
 11 18  1  0  0  0  0
 11 10  1  0  0  0  0
 11 12  1  0  0  0  0
 12 13  1  0  0  0  0
 13 14  2  0  0  0  0
 13 22  1  0  0  0  0
 14 23  1  0  0  0  0
 16 10  1  0  0  0  0
 17 10  1  0  0  0  0
 19 11  1  0  0  0  0
 20 12  1  0  0  0  0
 21 12  1  0  0  0  0
 23 25  1  0  0  0  0
 23 24  1  0  0  0  0
 26 31  1  0  0  0  0
 27 28  1  0  0  0  0
 27 26  2  0  0  0  0
 28 29  2  0  0  0  0
 29 34  1  0  0  0  0
 29 30  1  0  0  0  0
 30 35  1  0  0  0  0
 31 30  2  0  0  0  0
 32 27  1  0  0  0  0
 33 28  1  0  0  0  0
 35 36  2  0  0  0  0
 35 46  1  0  0  0  0
 36 37  1  0  0  0  0
 37 38  2  0  0  0  0
 38 39  1  0  0  0  0
 39 40  1  0  0  0  0
 40 41  2  0  0  0  0
 41 42  1  0  0  0  0
 43 44  1  0  0  0  0
 43 41  1  0  0  0  0
 45 43  2  0  0  0  0
 46 45  1  0  0  0  0
 46 39  2  0  0  0  0
M  END
>  <minimizedAffinity>
-6.96322155

$$$$
