
     RDKit          3D

 44 49  0  0  0  0  0  0  0  0999 V2000
   47.2650   31.3928   45.1565 C   0  0  0  0  0  0  0  0  0  0  0  0
   46.8704   32.7157   45.1236 C   0  0  0  0  0  0  0  0  0  0  0  0
   46.2308   33.3231   46.1882 C   0  0  0  0  0  0  0  0  0  0  0  0
   45.9614   32.5916   47.3551 C   0  0  0  0  0  0  0  0  0  0  0  0
   45.3745   32.8426   48.5565 N   0  0  0  0  0  0  0  0  0  0  0  0
   45.4132   31.7031   49.2961 C   0  0  0  0  0  0  0  0  0  0  0  0
   46.0240   30.7673   48.5373 N   0  0  0  0  0  0  0  0  0  0  0  0
   46.3697   31.2801   47.3481 C   0  0  0  0  0  0  0  0  0  0  0  0
   46.9993   30.6557   46.3189 C   0  0  0  0  0  0  0  0  0  0  0  0
   46.4862   35.1932   42.4322 C   0  0  0  0  0  0  0  0  0  0  0  0
   47.6589   35.0273   41.7009 C   0  0  0  0  0  0  0  0  0  0  0  0
   48.5875   34.0598   42.1323 C   0  0  0  0  0  0  0  0  0  0  0  0
   48.2837   33.3328   43.2522 N   0  0  0  0  0  0  0  0  0  0  0  0
   47.1252   33.5238   43.9420 C   0  0  0  0  0  0  0  0  0  0  0  0
   46.2307   34.4469   43.5371 N   0  0  0  0  0  0  0  0  0  0  0  0
   47.3995   29.2427   46.4057 C   0  0  0  0  0  0  0  0  0  0  0  0
   48.6768   28.7900   46.6047 C   0  0  0  0  0  0  0  0  0  0  0  0
   48.5113   27.3957   46.6068 C   0  0  0  0  0  0  0  0  0  0  0  0
   47.1989   27.0749   46.4159 C   0  0  0  0  0  0  0  0  0  0  0  0
   46.6040   28.2380   46.3061 O   0  0  0  0  0  0  0  0  0  0  0  0
   47.7705   30.9124   44.3149 H   0  0  0  0  0  0  0  0  0  0  0  0
   45.9174   34.3537   46.1764 H   0  0  0  0  0  0  0  0  0  0  0  0
   45.0100   33.7897   48.7258 H   0  0  0  0  0  0  0  0  0  0  0  0
   45.0047   31.6677   50.2856 H   0  0  0  0  0  0  0  0  0  0  0  0
   45.8157   35.9460   42.0553 H   0  0  0  0  0  0  0  0  0  0  0  0
   47.9396   35.5674   40.8252 H   0  0  0  0  0  0  0  0  0  0  0  0
   49.5337   33.8187   41.6718 H   0  0  0  0  0  0  0  0  0  0  0  0
   49.5978   29.3374   46.7313 H   0  0  0  0  0  0  0  0  0  0  0  0
   49.3319   26.7645   46.7735 H   0  0  0  0  0  0  0  0  0  0  0  0
   46.3777   25.8856   46.3218 C   0  0  0  0  0  0  0  0  0  0  0  0
   46.9394   24.7034   45.9461 N   0  0  0  0  0  0  0  0  0  0  0  0
   46.2533   23.6002   45.7352 C   0  0  0  0  0  0  0  0  0  0  0  0
   44.9177   23.5250   45.8706 N   0  0  0  0  0  0  0  0  0  0  0  0
   44.2458   24.6526   46.2476 C   0  0  0  0  0  0  0  0  0  0  0  0
   42.9006   24.6388   46.4298 C   0  0  0  0  0  0  0  0  0  0  0  0
   42.2015   25.7555   46.8415 C   0  0  0  0  0  0  0  0  0  0  0  0
   41.1450   25.6140   46.9470 H   0  0  0  0  0  0  0  0  0  0  0  0
   42.9775   26.8963   47.0569 C   0  0  0  0  0  0  0  0  0  0  0  0
   42.3899   27.7622   47.3838 H   0  0  0  0  0  0  0  0  0  0  0  0
   44.3352   26.8685   46.8604 C   0  0  0  0  0  0  0  0  0  0  0  0
   45.0227   25.7639   46.4504 C   0  0  0  0  0  0  0  0  0  0  0  0
   46.8700   22.7464   45.4383 H   0  0  0  0  0  0  0  0  0  0  0  0
   42.3986   23.6950   46.2332 H   0  0  0  0  0  0  0  0  0  0  0  0
   44.7701   27.8044   47.1018 H   0  0  0  0  0  0  0  0  0  0  0  0
  1  9  2  0
  2  1  1  0
  2  3  2  0
  3  4  1  0
  4  5  1  0
  5  6  1  0
  7  6  2  0
  8  4  2  0
  8  7  1  0
  9 16  1  0
  9  8  1  0
 10 15  2  0
 11 12  2  0
 11 10  1  0
 12 13  1  0
 13 14  2  0
 14  2  1  0
 15 14  1  0
 16 17  2  0
 17 18  1  0
 19 18  2  0
 20 16  1  0
 20 19  1  0
  1 21  1  0
  3 22  1  0
  5 23  1  0
  6 24  1  0
 10 25  1  0
 11 26  1  0
 12 27  1  0
 17 28  1  0
 18 29  1  0
 30 31  2  0
 31 32  1  0
 32 33  2  0
 33 34  1  0
 34 35  2  0
 35 36  1  0
 36 37  1  0
 36 38  2  0
 38 39  1  0
 38 40  1  0
 40 41  2  0
 41 30  1  0
 41 34  1  0
 32 42  1  0
 35 43  1  0
 40 44  1  0
 19 30  1  0
M  ISO  8  21  14  22  14  23   9  24  14  25  14  26  14  27  14  28  14
M  ISO  3  29  14  37  16  39  16
M  END
>  <DihAtoms>  (1) 
17,18,29,30

>  <DihDeg>  (1) 
155.73821228610333

$$$$
