
 OpenBabel03252508173D

 50 55  0  0  1  0  0  0  0  0999 V2000
   46.5780   31.6010   48.1590 C   0  0  1  0  0  0  0  0  0  0  0  0
   46.2430   30.9310   49.4470 C   0  0  0  0  0  0  0  0  0  0  0  0
   47.6100   30.8910   48.9370 C   0  0  1  0  0  0  0  0  0  0  0  0
   46.3750   32.7090   48.2550 H   0  0  0  0  0  0  0  0  0  0  0  0
   45.6650   29.9760   49.4110 H   0  0  0  0  0  0  0  0  0  0  0  0
   46.0390   31.5000   50.3760 H   0  0  0  0  0  0  0  0  0  0  0  0
   48.3510   31.5370   49.4520 H   0  0  0  0  0  0  0  0  0  0  0  0
   48.2010   29.6470   48.3530 C   0  0  2  0  0  0  0  0  0  0  0  0
   49.6370   29.3680   48.8680 C   0  0  0  0  0  0  0  0  0  0  0  0
   49.4360   29.7970   47.4680 C   0  0  1  0  0  0  0  0  0  0  0  0
   47.6290   28.7040   48.3140 H   0  0  0  0  0  0  0  0  0  0  0  0
   50.1150   30.1210   49.5210 H   0  0  0  0  0  0  0  0  0  0  0  0
   49.9460   28.3530   49.1010 H   0  0  0  0  0  0  0  0  0  0  0  0
   49.6860   30.8410   47.1740 H   0  0  0  0  0  0  0  0  0  0  0  0
   49.6940   28.7410   46.4550 C   0  0  0  0  0  0  0  0  0  0  0  0
   50.3070   27.5780   46.7520 N   0  0  0  0  0  0  0  0  0  0  0  0
   50.5590   26.6020   45.8760 C   0  0  0  0  0  3  0  0  0  0  0  0
   50.1910   26.7460   44.5710 N   0  0  0  0  0  0  0  0  0  0  0  0
   49.5690   27.8990   44.2150 C   0  0  0  0  0  0  0  0  0  0  0  0
   49.2160   27.9970   42.8850 C   0  0  0  0  0  3  0  0  0  0  0  0
   48.5730   29.1760   42.4890 C   0  0  0  0  0  0  0  0  0  0  0  0
   48.3100   29.2180   41.4380 H   0  0  0  0  0  0  0  0  0  0  0  0
   48.3070   30.1890   43.3870 C   0  0  0  0  0  0  0  0  0  0  0  0
   47.8000   31.0860   43.0020 H   0  0  0  0  0  0  0  0  0  0  0  0
   48.6700   30.0720   44.7180 C   0  0  0  0  0  3  0  0  0  0  0  0
   49.3130   28.9010   45.1300 C   0  0  0  0  0  0  0  0  0  0  0  0
   45.9970   30.9700   46.9380 C   0  0  0  0  0  0  0  0  0  0  0  0
   46.5610   30.1790   46.4630 H   0  0  0  0  0  0  0  0  0  0  0  0
   44.9790   30.5310   47.1520 H   0  0  0  0  0  0  0  0  0  0  0  0
   45.7060   33.2010   46.2270 C   0  0  0  0  0  3  0  0  0  0  0  0
   45.8280   32.0010   45.8440 C   0  0  0  0  0  3  0  0  0  0  0  0
   44.5270   36.2050   44.4390 C   0  0  0  0  0  0  0  0  0  0  0  0
   45.1980   36.1250   43.2220 C   0  0  0  0  0  0  0  0  0  0  0  0
   46.0150   35.0620   43.0590 C   0  0  0  0  0  0  0  0  0  0  0  0
   46.1560   34.1320   44.0470 N   0  0  0  0  0  0  0  0  0  0  0  0
   45.4890   34.2410   45.2160 C   0  0  0  0  0  0  0  0  0  0  0  0
   44.6910   35.2780   45.3770 N   0  0  0  0  0  0  0  0  0  0  0  0
   43.8620   37.0510   44.5970 H   0  0  0  0  0  0  0  0  0  0  0  0
   45.0970   36.8450   42.4420 H   0  0  0  0  0  0  0  0  0  0  0  0
   46.7850   34.8420   41.8360 C   0  0  0  0  0  0  0  0  0  0  0  0
   48.0170   35.3840   41.5810 C   0  0  0  0  0  0  0  0  0  0  0  0
   48.7350   35.1690   40.4220 C   0  0  0  0  0  0  0  0  0  0  0  0
   48.2060   34.3590   39.4360 C   0  0  0  0  0  0  0  0  0  0  0  0
   46.9770   33.7900   39.6370 C   0  0  0  0  0  0  0  0  0  0  0  0
   46.2920   34.0350   40.8160 C   0  0  0  0  0  0  0  0  0  0  0  0
   48.4530   36.0300   42.3540 H   0  0  0  0  0  0  0  0  0  0  0  0
   49.7000   35.6430   40.3180 H   0  0  0  0  0  0  0  0  0  0  0  0
   48.7920   34.2110   38.5440 H   0  0  0  0  0  0  0  0  0  0  0  0
   46.5680   33.1590   38.8610 H   0  0  0  0  0  0  0  0  0  0  0  0
   45.3280   33.5510   40.8990 H   0  0  0  0  0  0  0  0  0  0  0  0
  1  4  1  1  0  0  0
  1  3  1  0  0  0  0
  1  2  1  0  0  0  0
  2  6  1  0  0  0  0
  3  2  1  0  0  0  0
  3  7  1  1  0  0  0
  5  2  1  0  0  0  0
  8 11  1  6  0  0  0
  8  9  1  0  0  0  0
  8  3  1  0  0  0  0
  9 13  1  0  0  0  0
  9 12  1  0  0  0  0
 10 14  1  6  0  0  0
 10  8  1  0  0  0  0
 10  9  1  0  0  0  0
 15 16  1  0  0  0  0
 15 10  1  0  0  0  0
 17 16  2  0  0  0  0
 18 17  1  0  0  0  0
 19 18  2  0  0  0  0
 19 26  1  0  0  0  0
 20 19  1  0  0  0  0
 21 20  2  0  0  0  0
 21 23  1  0  0  0  0
 22 21  1  0  0  0  0
 23 25  2  0  0  0  0
 24 23  1  0  0  0  0
 25 26  1  0  0  0  0
 26 15  2  0  0  0  0
 27 29  1  0  0  0  0
 27  1  1  0  0  0  0
 28 27  1  0  0  0  0
 31 30  2  0  0  0  0
 31 27  1  0  0  0  0
 32 38  1  0  0  0  0
 32 37  1  0  0  0  0
 33 32  2  0  0  0  0
 34 33  1  0  0  0  0
 34 35  2  0  0  0  0
 35 36  1  0  0  0  0
 36 37  2  0  0  0  0
 36 30  1  0  0  0  0
 39 33  1  0  0  0  0
 40 34  1  0  0  0  0
 41 40  1  0  0  0  0
 41 46  1  0  0  0  0
 42 41  2  0  0  0  0
 43 44  2  0  0  0  0
 43 42  1  0  0  0  0
 44 45  1  0  0  0  0
 45 50  1  0  0  0  0
 45 40  2  0  0  0  0
 47 42  1  0  0  0  0
 48 43  1  0  0  0  0
 49 44  1  0  0  0  0
M  END
>  <minimizedAffinity>
-5.97391224

>  <minimizedRMSD>
2.31134439

$$$$
