
 OpenBabel03252505073D

 46 50  0  0  1  0  0  0  0  0999 V2000
   44.5870   35.5740   44.5770 C   0  0  0  0  0  0  0  0  0  0  0  0
   45.2470   35.5730   43.3270 C   0  0  0  0  0  0  0  0  0  0  0  0
   46.3240   34.6640   43.1470 C   0  0  0  0  0  0  0  0  0  0  0  0
   46.6570   33.8490   44.1820 N   0  0  0  0  0  0  0  0  0  0  0  0
   46.0070   33.8780   45.3570 C   0  0  0  0  0  0  0  0  0  0  0  0
   44.9640   34.7450   45.5600 N   0  0  0  0  0  0  0  0  0  0  0  0
   43.7820   36.2810   44.6570 H   0  0  0  0  0  0  0  0  0  0  0  0
   44.9940   36.2110   42.5040 H   0  0  0  0  0  0  0  0  0  0  0  0
   46.4240   32.9720   46.4470 C   0  0  2  0  0  0  0  0  0  0  0  0
   46.9780   31.7470   45.7740 C   0  0  0  0  0  0  0  0  0  0  0  0
   46.0920   30.5620   45.8070 C   0  0  0  0  0  0  0  0  0  0  0  0
   45.8040   30.3080   47.2790 C   0  0  0  0  0  0  0  0  0  0  0  0
   45.0180   31.3820   47.8700 C   0  0  0  0  0  0  0  0  0  0  0  0
   45.3710   32.7510   47.4120 C   0  0  0  0  0  0  0  0  0  0  0  0
   47.2740   33.5110   46.9560 H   0  0  0  0  0  0  0  0  0  0  0  0
   47.2740   31.9350   44.7130 H   0  0  0  0  0  0  0  0  0  0  0  0
   47.9240   31.4710   46.2830 H   0  0  0  0  0  0  0  0  0  0  0  0
   45.1130   30.7460   45.3380 H   0  0  0  0  0  0  0  0  0  0  0  0
   46.6560   29.7070   45.3930 H   0  0  0  0  0  0  0  0  0  0  0  0
   45.1260   29.4190   47.2720 H   0  0  0  0  0  0  0  0  0  0  0  0
   46.7030   30.0020   47.8410 H   0  0  0  0  0  0  0  0  0  0  0  0
   44.2250   31.4770   48.5690 H   0  0  0  0  0  0  0  0  0  0  0  0
   44.6810   33.8820   47.9090 N   0  0  0  0  0  0  0  0  0  0  0  0
   45.1070   34.5560   48.5870 H   0  0  0  0  0  0  0  0  0  0  0  0
   43.6990   34.0120   47.5570 H   0  0  0  0  0  0  0  0  0  0  0  0
   47.0320   34.6390   41.8800 C   0  0  0  0  0  0  0  0  0  0  0  0
   48.1310   35.4160   41.7340 C   0  0  0  0  0  0  0  0  0  0  0  0
   48.7750   35.3390   40.4800 C   0  0  0  0  0  0  0  0  0  0  0  0
   48.2140   34.4890   39.5530 C   0  0  0  0  0  0  0  0  0  0  0  0
   47.1090   33.7080   39.6920 C   0  0  0  0  0  0  0  0  0  0  0  0
   46.5790   33.8620   40.9290 N   0  0  0  0  0  0  0  0  0  0  0  0
   48.5020   36.0520   42.5080 H   0  0  0  0  0  0  0  0  0  0  0  0
   49.6400   35.9330   40.3260 H   0  0  0  0  0  0  0  0  0  0  0  0
   48.7810   34.4980   38.6180 H   0  0  0  0  0  0  0  0  0  0  0  0
   46.7100   32.8950   38.5690 C   0  0  0  0  0  0  0  0  0  0  0  0
   46.0530   33.4620   37.5460 N   0  0  0  0  0  0  0  0  0  0  0  0
   45.6450   32.7890   36.4650 C   0  0  0  0  0  3  0  0  0  0  0  0
   45.8690   31.4570   36.3220 N   0  0  0  0  0  0  0  0  0  0  0  0
   46.5320   30.7960   37.3170 C   0  0  0  0  0  0  0  0  0  0  0  0
   46.7900   29.4460   37.2280 C   0  0  0  0  0  3  0  0  0  0  0  0
   47.4580   28.7680   38.2260 C   0  0  0  0  0  0  0  0  0  0  0  0
   47.6010   27.7110   38.0430 H   0  0  0  0  0  0  0  0  0  0  0  0
   47.8640   29.5200   39.3350 C   0  0  0  0  0  0  0  0  0  0  0  0
   48.3830   28.9520   40.0930 H   0  0  0  0  0  0  0  0  0  0  0  0
   47.5830   30.8660   39.3770 C   0  0  0  0  0  3  0  0  0  0  0  0
   46.9220   31.5500   38.3950 C   0  0  0  0  0  0  0  0  0  0  0  0
  1  7  1  0  0  0  0
  1  6  1  0  0  0  0
  2  1  2  0  0  0  0
  3  2  1  0  0  0  0
  3  4  2  0  0  0  0
  4  5  1  0  0  0  0
  5  6  2  0  0  0  0
  5  9  1  0  0  0  0
  8  2  1  0  0  0  0
  9 15  1  1  0  0  0
  9 14  1  0  0  0  0
 10 11  1  0  0  0  0
 10 17  1  0  0  0  0
 10  9  1  0  0  0  0
 11 12  1  0  0  0  0
 12 21  1  0  0  0  0
 12 13  1  0  0  0  0
 13 22  1  0  0  0  0
 14 13  2  0  0  0  0
 14 23  1  0  0  0  0
 16 10  1  0  0  0  0
 18 11  1  0  0  0  0
 19 11  1  0  0  0  0
 20 12  1  0  0  0  0
 23 24  1  0  0  0  0
 25 23  1  0  0  0  0
 26  3  1  0  0  0  0
 27 26  1  0  0  0  0
 27 32  1  0  0  0  0
 28 27  2  0  0  0  0
 29 30  2  0  0  0  0
 29 28  1  0  0  0  0
 30 31  1  0  0  0  0
 31 26  2  0  0  0  0
 33 28  1  0  0  0  0
 34 29  1  0  0  0  0
 35 30  1  0  0  0  0
 36 35  2  0  0  0  0
 37 36  1  0  0  0  0
 38 37  2  0  0  0  0
 38 39  1  0  0  0  0
 39 46  1  0  0  0  0
 40 39  2  0  0  0  0
 40 41  1  0  0  0  0
 41 43  2  0  0  0  0
 42 41  1  0  0  0  0
 43 45  1  0  0  0  0
 43 44  1  0  0  0  0
 46 35  1  0  0  0  0
 46 45  2  0  0  0  0
M  END
>  <minimizedAffinity>
-7.39595127

>  <minimizedRMSD>
0.484888762

$$$$
