REMARK  Name = 
REMARK  4 active torsions:
REMARK  status: ('A' for Active; 'I' for Inactive)
REMARK    1  A    between atoms: C_1  and  C_13
REMARK    2  A    between atoms: C_9  and  N_21
REMARK    3  A    between atoms: C_12  and  C_31
REMARK    4  A    between atoms: C_15  and  C_17
REMARK                            x       y       z     vdW  Elec       q    Type
REMARK                         _______ _______ _______ _____ _____    ______ ____
ROOT
ATOM      1  C   UNL     1      44.430  36.059  44.872  0.00  0.00    +0.000 A 
ATOM      2  C   UNL     1      45.056  36.027  43.626  0.00  0.00    +0.000 A 
ATOM      3  C   UNL     1      45.932  34.973  43.338  0.00  0.00    +0.000 A 
ATOM      4  N   UNL     1      46.097  34.046  44.333  0.00  0.00    +0.000 NA
ATOM      5  C   UNL     1      45.479  34.112  45.512  0.00  0.00    +0.000 A 
ATOM      6  N   UNL     1      44.655  35.117  45.762  0.00  0.00    +0.000 NA
ATOM      7  H   UNL     1      43.779  36.898  45.005  0.00  0.00    +0.000 HD
ENDROOT
BRANCH   3   8
ATOM      8  C   UNL     1      46.647  34.786  42.119  0.00  0.00    +0.000 A 
ATOM      9  C   UNL     1      47.881  35.418  42.028  0.00  0.00    +0.000 A 
ATOM     10  C   UNL     1      48.707  35.344  40.919  0.00  0.00    +0.000 A 
ATOM     11  C   UNL     1      48.323  34.614  39.822  0.00  0.00    +0.000 A 
ATOM     12  C   UNL     1      47.105  33.968  39.867  0.00  0.00    +0.000 A 
ATOM     13  C   UNL     1      46.656  33.218  38.811  0.00  0.00    +0.000 A 
ATOM     14  C   UNL     1      45.458  32.559  38.807  0.00  0.00    +0.000 A 
ATOM     15  C   UNL     1      44.683  32.678  39.951  0.00  0.00    +0.000 A 
ATOM     16  C   UNL     1      45.162  33.442  41.002  0.00  0.00    +0.000 A 
ATOM     17  C   UNL     1      46.342  34.084  40.992  0.00  0.00    +0.000 A 
ATOM     18  H   UNL     1      48.288  36.022  42.833  0.00  0.00    +0.000 HD
ATOM     19  H   UNL     1      49.664  35.846  40.873  0.00  0.00    +0.000 HD
ATOM     20  H   UNL     1      48.972  34.563  38.965  0.00  0.00    +0.000 HD
ATOM     21  H   UNL     1      47.320  33.168  37.941  0.00  0.00    +0.000 HD
ATOM     22  H   UNL     1      45.149  31.976  37.938  0.00  0.00    +0.000 HD
ATOM     23  H   UNL     1      43.736  32.145  39.922  0.00  0.00    +0.000 HD
BRANCH  16  24
ATOM     24  N   UNL     1      44.231  33.451  42.087  0.00  0.00    +0.000 N 
ATOM     25  H   UNL     1      43.432  34.066  42.353  0.00  0.00    +0.000 HD
ATOM     26  H   UNL     1      44.072  32.846  42.916  0.00  0.00    +0.000 HD
ENDBRANCH  16  24
ENDBRANCH   3   8
BRANCH   2  27
ATOM     27  C   UNL     1      44.926  36.981  42.526  0.00  0.00    +0.000 A 
ATOM     28  N   UNL     1      45.518  38.188  42.517  0.00  0.00    +0.000 NA
ATOM     29  C   UNL     1      45.431  39.091  41.544  0.00  0.00    +0.000 A 
ATOM     30  N   UNL     1      44.694  38.817  40.445  0.00  0.00    +0.000 NA
ATOM     31  C   UNL     1      44.083  37.619  40.412  0.00  0.00    +0.000 A 
ATOM     32  C   UNL     1      43.331  37.371  39.263  0.00  0.00    +0.000 A 
ATOM     33  C   UNL     1      42.676  36.162  39.160  0.00  0.00    +0.000 A 
ATOM     34  H   UNL     1      42.091  35.962  38.271  0.00  0.00    +0.000 HD
ATOM     35  C   UNL     1      42.753  35.203  40.165  0.00  0.00    +0.000 A 
ATOM     36  H   UNL     1      42.241  34.255  40.086  0.00  0.00    +0.000 HD
ATOM     37  C   UNL     1      43.503  35.454  41.307  0.00  0.00    +0.000 A 
ATOM     38  C   UNL     1      44.162  36.663  41.419  0.00  0.00    +0.000 A 
ENDBRANCH   2  27
BRANCH   5  39
ATOM     39  C   UNL     1      45.825  32.978  46.430  0.00  0.00    +0.000 C 
ATOM     40  F   UNL     1      44.988  32.921  47.508  0.00  0.00    +0.000 F 
ATOM     41  F   UNL     1      47.153  33.060  46.816  0.00  0.00    +0.000 F 
ATOM     42  F   UNL     1      45.765  31.772  45.686  0.00  0.00    +0.000 F 
ENDBRANCH   5  39
TORSDOF 4
