
     RDKit          3D

 37 40  0  0  0  0  0  0  0  0999 V2000
   44.1112   32.5558   42.6869 Cl  0  0  0  0  0  0  0  0  0  0  0  0
   45.5651   33.4801   42.4027 C   0  0  0  0  0  0  0  0  0  0  0  0
   46.3432   33.9416   43.4272 C   0  0  0  0  0  0  0  0  0  0  0  0
   47.4539   34.6486   43.0571 C   0  0  0  0  0  0  0  0  0  0  0  0
   47.8000   34.8999   41.7780 C   0  0  0  0  0  0  0  0  0  0  0  0
   47.0041   34.4278   40.7520 C   0  0  0  0  0  0  0  0  0  0  0  0
   45.8836   33.7154   41.0789 C   0  0  0  0  0  0  0  0  0  0  0  0
   44.7748   34.1229   46.8575 C   0  0  0  0  0  0  0  0  0  0  0  0
   45.1316   34.4696   45.5538 C   0  0  0  0  0  0  0  0  0  0  0  0
   45.9308   33.6588   44.7968 C   0  0  0  0  0  0  0  0  0  0  0  0
   46.3130   32.5481   45.4210 N   0  0  0  0  0  0  0  0  0  0  0  0
   46.0186   32.1505   46.6475 C   0  0  0  0  0  0  0  0  0  0  0  0
   45.2231   32.9787   47.3714 N   0  0  0  0  0  0  0  0  0  0  0  0
   49.0183   35.6729   41.4022 C   0  0  0  0  0  0  0  0  0  0  0  0
   50.1084   34.9230   41.7545 F   0  0  0  0  0  0  0  0  0  0  0  0
   49.0062   36.9219   41.9876 F   0  0  0  0  0  0  0  0  0  0  0  0
   48.9983   35.8464   40.0198 F   0  0  0  0  0  0  0  0  0  0  0  0
   48.0963   35.0305   43.8565 H   0  0  0  0  0  0  0  0  0  0  0  0
   47.2384   34.6029   39.7092 H   0  0  0  0  0  0  0  0  0  0  0  0
   45.2666   33.3496   40.2694 H   0  0  0  0  0  0  0  0  0  0  0  0
   44.1329   34.7946   47.4381 H   0  0  0  0  0  0  0  0  0  0  0  0
   44.7706   35.3959   45.1332 H   0  0  0  0  0  0  0  0  0  0  0  0
   46.4044   30.9548   47.3767 C   0  0  0  0  0  0  0  0  0  0  0  0
   47.0920   30.9982   48.5264 N   0  0  0  0  0  0  0  0  0  0  0  0
   47.4773   29.9371   49.2457 C   0  0  0  0  0  0  0  0  0  0  0  0
   47.1866   28.6875   48.8448 N   0  0  0  0  0  0  0  0  0  0  0  0
   46.5011   28.5398   47.7057 C   0  0  0  0  0  0  0  0  0  0  0  0
   46.2018   27.2591   47.2926 C   0  0  0  0  0  0  0  0  0  0  0  0
   45.4991   27.0372   46.1300 C   0  0  0  0  0  0  0  0  0  0  0  0
   45.2609   26.0451   45.7995 H   0  0  0  0  0  0  0  0  0  0  0  0
   45.1102   28.1654   45.4002 C   0  0  0  0  0  0  0  0  0  0  0  0
   44.5600   27.9505   44.4929 H   0  0  0  0  0  0  0  0  0  0  0  0
   45.4356   29.4224   45.8587 C   0  0  0  0  0  0  0  0  0  0  0  0
   46.1260   29.6604   46.9995 C   0  0  0  0  0  0  0  0  0  0  0  0
   48.0294   30.2038   50.1529 H   0  0  0  0  0  0  0  0  0  0  0  0
   46.5007   26.3820   47.8543 H   0  0  0  0  0  0  0  0  0  0  0  0
   45.0893   30.1870   45.2254 H   0  0  0  0  0  0  0  0  0  0  0  0
  2  1  1  0
  2  3  2  0
  3 10  1  0
  4  3  1  0
  5  4  2  0
  6  7  2  0
  6  5  1  0
  7  2  1  0
  8 13  2  0
  9  8  1  0
 10 11  1  0
 10  9  2  0
 11 12  2  0
 12 13  1  0
 14 15  1  0
 14  5  1  0
 14 16  1  0
 17 14  1  0
  4 18  1  0
  6 19  1  0
  7 20  1  0
  8 21  1  0
  9 22  1  0
 23 24  2  0
 24 25  1  0
 25 26  2  0
 26 27  1  0
 27 28  2  0
 28 29  1  0
 29 30  1  0
 29 31  2  0
 31 32  1  0
 31 33  1  0
 33 34  2  0
 34 23  1  0
 34 27  1  0
 25 35  1  0
 28 36  1  0
 33 37  1  0
 12 23  1  0
M  ISO  7  18  14  19  14  20  14  21  14  22  14  30  16  32  16
M  END
>  <DihAtoms>  (1) 
10,11,22,23

>  <DihDeg>  (1) 
179.99940105116488

$$$$
