
     RDKit          3D

 45 49  0  0  0  0  0  0  0  0999 V2000
   46.6472   34.7863   42.1194 C   0  0  0  0  0  0  0  0  0  0  0  0
   47.8810   35.4177   42.0276 C   0  0  0  0  0  0  0  0  0  0  0  0
   48.7067   35.3436   40.9189 C   0  0  0  0  0  0  0  0  0  0  0  0
   48.3232   34.6135   39.8224 C   0  0  0  0  0  0  0  0  0  0  0  0
   47.1053   33.9680   39.8671 C   0  0  0  0  0  0  0  0  0  0  0  0
   46.6563   33.2185   38.8106 C   0  0  0  0  0  0  0  0  0  0  0  0
   45.4581   32.5594   38.8074 C   0  0  0  0  0  0  0  0  0  0  0  0
   44.6828   32.6785   39.9508 C   0  0  0  0  0  0  0  0  0  0  0  0
   45.1622   33.4418   41.0016 C   0  0  0  0  0  0  0  0  0  0  0  0
   46.3418   34.0840   40.9917 C   0  0  0  0  0  0  0  0  0  0  0  0
   44.4296   36.0590   44.8719 C   0  0  0  0  0  0  0  0  0  0  0  0
   45.0564   36.0273   43.6257 C   0  0  0  0  0  0  0  0  0  0  0  0
   45.9316   34.9729   43.3383 C   0  0  0  0  0  0  0  0  0  0  0  0
   46.0968   34.0460   44.3326 N   0  0  0  0  0  0  0  0  0  0  0  0
   45.4788   34.1118   45.5118 C   0  0  0  0  0  0  0  0  0  0  0  0
   44.6551   35.1174   45.7622 N   0  0  0  0  0  0  0  0  0  0  0  0
   45.8252   32.9785   46.4302 C   0  0  0  0  0  0  0  0  0  0  0  0
   44.9880   32.9209   47.5083 F   0  0  0  0  0  0  0  0  0  0  0  0
   47.1528   33.0600   46.8157 F   0  0  0  0  0  0  0  0  0  0  0  0
   45.7651   31.7718   45.6860 F   0  0  0  0  0  0  0  0  0  0  0  0
   44.2308   33.4509   42.0867 N   0  0  0  0  0  0  0  0  0  0  0  0
   48.2882   36.0223   42.8330 H   0  0  0  0  0  0  0  0  0  0  0  0
   49.6636   35.8457   40.8730 H   0  0  0  0  0  0  0  0  0  0  0  0
   48.9725   34.5626   38.9647 H   0  0  0  0  0  0  0  0  0  0  0  0
   47.3197   33.1681   37.9406 H   0  0  0  0  0  0  0  0  0  0  0  0
   45.1490   31.9757   37.9375 H   0  0  0  0  0  0  0  0  0  0  0  0
   43.7360   32.1454   39.9215 H   0  0  0  0  0  0  0  0  0  0  0  0
   43.7793   36.8976   45.0051 H   0  0  0  0  0  0  0  0  0  0  0  0
   43.4321   34.0656   42.3527 H   0  0  0  0  0  0  0  0  0  0  0  0
   44.0718   32.8458   42.9155 H   0  0  0  0  0  0  0  0  0  0  0  0
   44.9261   36.9810   42.5255 C   0  0  0  0  0  0  0  0  0  0  0  0
   45.2621   38.2793   42.6256 N   0  0  0  0  0  0  0  0  0  0  0  0
   45.1625   39.1860   41.6579 C   0  0  0  0  0  0  0  0  0  0  0  0
   44.6868   38.8188   40.4475 N   0  0  0  0  0  0  0  0  0  0  0  0
   44.3383   37.5280   40.3033 C   0  0  0  0  0  0  0  0  0  0  0  0
   43.8514   37.1854   39.0405 C   0  0  0  0  0  0  0  0  0  0  0  0
   43.4743   35.8785   38.8192 C   0  0  0  0  0  0  0  0  0  0  0  0
   43.0957   35.6051   37.8426 H   0  0  0  0  0  0  0  0  0  0  0  0
   43.5697   34.9132   39.8169 C   0  0  0  0  0  0  0  0  0  0  0  0
   43.2745   33.8876   39.6451 H   0  0  0  0  0  0  0  0  0  0  0  0
   44.0547   35.2578   41.0716 C   0  0  0  0  0  0  0  0  0  0  0  0
   44.4350   36.5660   41.3022 C   0  0  0  0  0  0  0  0  0  0  0  0
   45.5075   40.1705   42.0136 H   0  0  0  0  0  0  0  0  0  0  0  0
   43.7643   37.9018   38.2511 H   0  0  0  0  0  0  0  0  0  0  0  0
   44.1617   34.5815   41.8950 H   0  0  0  0  0  0  0  0  0  0  0  0
  1 13  1  0
  2  1  2  0
  3  2  1  0
  4  5  1  0
  4  3  2  0
  5 10  2  0
  6  5  1  0
  7  6  2  0
  7  8  1  0
  8  9  2  0
  9 21  1  0
 10  9  1  0
 10  1  1  0
 11 16  2  0
 12 11  1  0
 13 12  2  0
 13 14  1  0
 14 15  2  0
 15 16  1  0
 15 17  1  0
 17 19  1  0
 17 18  1  0
 20 17  1  0
  2 22  1  0
  3 23  1  0
  4 24  1  0
  6 25  1  0
  7 26  1  0
  8 27  1  0
 11 28  1  0
 21 29  1  0
 21 30  1  0
 31 32  2  0
 32 33  1  0
 33 34  2  0
 34 35  1  0
 35 36  2  0
 36 37  1  0
 37 38  1  0
 37 39  2  0
 39 40  1  0
 39 41  1  0
 41 42  2  0
 42 31  1  0
 42 35  1  0
 33 43  1  0
 36 44  1  0
 41 45  1  0
 12 31  1  0
M  ISO  8  22  14  23  14  24  14  25  14  26  14  27  14  28  14  38  16
M  ISO  1  40  16
M  END
>  <DihAtoms>  (1) 
10,11,30,31

>  <DihDeg>  (1) 
-118.85228738635384

$$$$
