
 OpenBabel03252508193D

 50 55  0  0  1  0  0  0  0  0999 V2000
   35.8770   28.8380   38.1840 C   0  0  1  0  0  0  0  0  0  0  0  0
   35.6930   27.3600   38.1370 C   0  0  0  0  0  0  0  0  0  0  0  0
   34.9490   28.2180   37.2200 C   0  0  1  0  0  0  0  0  0  0  0  0
   36.9530   29.0850   37.9450 H   0  0  0  0  0  0  0  0  0  0  0  0
   35.1100   26.8740   38.9560 H   0  0  0  0  0  0  0  0  0  0  0  0
   36.4640   26.6800   37.7210 H   0  0  0  0  0  0  0  0  0  0  0  0
   35.2840   28.2220   36.1620 H   0  0  0  0  0  0  0  0  0  0  0  0
   33.4840   28.4730   37.3880 C   0  0  2  0  0  0  0  0  0  0  0  0
   32.6360   27.8690   36.2390 C   0  0  0  0  0  0  0  0  0  0  0  0
   32.7910   29.3360   36.3360 C   0  0  1  0  0  0  0  0  0  0  0  0
   32.9790   28.3020   38.3540 H   0  0  0  0  0  0  0  0  0  0  0  0
   33.1640   27.4020   35.3870 H   0  0  0  0  0  0  0  0  0  0  0  0
   31.6840   27.3930   36.4550 H   0  0  0  0  0  0  0  0  0  0  0  0
   33.4710   29.8630   35.6300 H   0  0  0  0  0  0  0  0  0  0  0  0
   31.5570   30.0610   36.7400 C   0  0  0  0  0  0  0  0  0  0  0  0
   30.9980   29.9320   37.9570 N   0  0  0  0  0  0  0  0  0  0  0  0
   29.8930   30.5620   38.3630 C   0  0  0  0  0  3  0  0  0  0  0  0
   29.2440   31.4110   37.5160 N   0  0  0  0  0  0  0  0  0  0  0  0
   29.7640   31.5800   36.2740 C   0  0  0  0  0  0  0  0  0  0  0  0
   29.0730   32.4490   35.4530 C   0  0  0  0  0  3  0  0  0  0  0  0
   29.5850   32.6430   34.1660 C   0  0  0  0  0  0  0  0  0  0  0  0
   29.0170   33.3320   33.5500 H   0  0  0  0  0  0  0  0  0  0  0  0
   30.7270   31.9950   33.7390 C   0  0  0  0  0  0  0  0  0  0  0  0
   31.0700   32.1980   32.7130 H   0  0  0  0  0  0  0  0  0  0  0  0
   31.4070   31.1280   34.5760 C   0  0  0  0  0  3  0  0  0  0  0  0
   30.9090   30.9220   35.8660 C   0  0  0  0  0  0  0  0  0  0  0  0
   35.3460   29.5120   39.4050 C   0  0  0  0  0  0  0  0  0  0  0  0
   34.3690   29.9720   39.3420 H   0  0  0  0  0  0  0  0  0  0  0  0
   35.2860   28.7920   40.2730 H   0  0  0  0  0  0  0  0  0  0  0  0
   37.0080   31.1120   38.9100 C   0  0  0  0  0  3  0  0  0  0  0  0
   36.2550   30.6480   39.8160 C   0  0  0  0  0  3  0  0  0  0  0  0
   38.5300   34.1600   40.3240 C   0  0  0  0  0  0  0  0  0  0  0  0
   39.8330   34.1090   39.8390 C   0  0  0  0  0  0  0  0  0  0  0  0
   40.1390   33.0520   39.0560 C   0  0  0  0  0  0  0  0  0  0  0  0
   39.2030   32.1010   38.7720 N   0  0  0  0  0  0  0  0  0  0  0  0
   37.9470   32.1820   39.2590 C   0  0  0  0  0  0  0  0  0  0  0  0
   37.6470   33.2130   40.0230 N   0  0  0  0  0  0  0  0  0  0  0  0
   38.2560   35.0010   40.9570 H   0  0  0  0  0  0  0  0  0  0  0  0
   40.5740   34.8460   40.0540 H   0  0  0  0  0  0  0  0  0  0  0  0
   41.4660   32.8630   38.4730 C   0  0  0  0  0  0  0  0  0  0  0  0
   42.5730   33.6020   38.7960 C   0  0  0  0  0  0  0  0  0  0  0  0
   43.8220   33.4140   38.2390 C   0  0  0  0  0  0  0  0  0  0  0  0
   44.0010   32.4240   37.2920 C   0  0  0  0  0  0  0  0  0  0  0  0
   42.9290   31.6540   36.9310 C   0  0  0  0  0  0  0  0  0  0  0  0
   41.6930   31.8790   37.5170 C   0  0  0  0  0  0  0  0  0  0  0  0
   42.4490   34.3940   39.5460 H   0  0  0  0  0  0  0  0  0  0  0  0
   44.6320   34.0520   38.5630 H   0  0  0  0  0  0  0  0  0  0  0  0
   44.9880   32.3030   36.8780 H   0  0  0  0  0  0  0  0  0  0  0  0
   43.0750   30.8820   36.1890 H   0  0  0  0  0  0  0  0  0  0  0  0
   40.8970   31.2300   37.1780 H   0  0  0  0  0  0  0  0  0  0  0  0
  1  4  1  6  0  0  0
  1 27  1  0  0  0  0
  2  1  1  0  0  0  0
  2  5  1  0  0  0  0
  3  7  1  6  0  0  0
  3  8  1  0  0  0  0
  3  2  1  0  0  0  0
  3  1  1  0  0  0  0
  6  2  1  0  0  0  0
  8 11  1  1  0  0  0
  9 10  1  0  0  0  0
  9 13  1  0  0  0  0
  9  8  1  0  0  0  0
 10 14  1  6  0  0  0
 10 15  1  0  0  0  0
 10  8  1  0  0  0  0
 12  9  1  0  0  0  0
 15 16  1  0  0  0  0
 16 17  2  0  0  0  0
 18 17  1  0  0  0  0
 19 18  2  0  0  0  0
 20 19  1  0  0  0  0
 21 20  2  0  0  0  0
 22 21  1  0  0  0  0
 23 21  1  0  0  0  0
 23 25  2  0  0  0  0
 24 23  1  0  0  0  0
 25 26  1  0  0  0  0
 26 19  1  0  0  0  0
 26 15  2  0  0  0  0
 27 31  1  0  0  0  0
 27 29  1  0  0  0  0
 28 27  1  0  0  0  0
 30 36  1  0  0  0  0
 30 31  2  0  0  0  0
 32 38  1  0  0  0  0
 33 39  1  0  0  0  0
 33 32  2  0  0  0  0
 34 33  1  0  0  0  0
 35 34  2  0  0  0  0
 35 36  1  0  0  0  0
 36 37  2  0  0  0  0
 37 32  1  0  0  0  0
 40 41  1  0  0  0  0
 40 34  1  0  0  0  0
 41 46  1  0  0  0  0
 42 47  1  0  0  0  0
 42 41  2  0  0  0  0
 43 42  1  0  0  0  0
 44 43  2  0  0  0  0
 44 45  1  0  0  0  0
 45 40  2  0  0  0  0
 48 43  1  0  0  0  0
 49 44  1  0  0  0  0
 50 45  1  0  0  0  0
M  END
>  <minimizedAffinity>
-6.47720003

$$$$

 OpenBabel03252508193D

 50 55  0  0  1  0  0  0  0  0999 V2000
   38.6630   33.0530   39.5580 C   0  0  1  0  0  0  0  0  0  0  0  0
   39.1880   34.1080   40.4690 C   0  0  0  0  0  0  0  0  0  0  0  0
   39.7700   32.7690   40.4890 C   0  0  1  0  0  0  0  0  0  0  0  0
   38.8150   33.3800   38.4870 H   0  0  0  0  0  0  0  0  0  0  0  0
   38.5690   34.3990   41.3510 H   0  0  0  0  0  0  0  0  0  0  0  0
   39.8080   34.9510   40.1050 H   0  0  0  0  0  0  0  0  0  0  0  0
   40.7720   32.6560   40.0230 H   0  0  0  0  0  0  0  0  0  0  0  0
   39.5200   31.8130   41.6130 C   0  0  2  0  0  0  0  0  0  0  0  0
   40.8290   31.2440   42.2170 C   0  0  0  0  0  0  0  0  0  0  0  0
   39.9520   30.3620   41.4170 C   0  0  1  0  0  0  0  0  0  0  0  0
   38.8080   32.0530   42.4210 H   0  0  0  0  0  0  0  0  0  0  0  0
   41.7880   31.5070   41.7340 H   0  0  0  0  0  0  0  0  0  0  0  0
   40.9230   31.1120   43.2910 H   0  0  0  0  0  0  0  0  0  0  0  0
   40.2490   30.0900   40.3800 H   0  0  0  0  0  0  0  0  0  0  0  0
   39.2450   29.3180   42.2040 C   0  0  0  0  0  0  0  0  0  0  0  0
   37.9730   29.4540   42.6240 N   0  0  0  0  0  0  0  0  0  0  0  0
   37.2990   28.5440   43.3320 C   0  0  0  0  0  3  0  0  0  0  0  0
   37.9000   27.3710   43.6800 N   0  0  0  0  0  0  0  0  0  0  0  0
   39.1830   27.1780   43.2820 C   0  0  0  0  0  0  0  0  0  0  0  0
   39.7490   25.9760   43.6570 C   0  0  0  0  0  3  0  0  0  0  0  0
   41.0720   25.7500   43.2610 C   0  0  0  0  0  0  0  0  0  0  0  0
   41.4820   24.7960   43.5740 H   0  0  0  0  0  0  0  0  0  0  0  0
   41.7750   26.6860   42.5300 C   0  0  0  0  0  0  0  0  0  0  0  0
   42.8110   26.4380   42.2540 H   0  0  0  0  0  0  0  0  0  0  0  0
   41.1910   27.8850   42.1620 C   0  0  0  0  0  3  0  0  0  0  0  0
   39.8710   28.1280   42.5500 C   0  0  0  0  0  0  0  0  0  0  0  0
   37.2860   32.5670   39.8650 C   0  0  0  0  0  0  0  0  0  0  0  0
   37.0350   32.3840   40.9010 H   0  0  0  0  0  0  0  0  0  0  0  0
   36.5050   33.2910   39.4880 H   0  0  0  0  0  0  0  0  0  0  0  0
   36.2700   30.4380   39.8090 C   0  0  0  0  0  3  0  0  0  0  0  0
   37.0360   31.2360   39.1930 C   0  0  0  0  0  3  0  0  0  0  0  0
   35.0280   27.6640   37.7180 C   0  0  0  0  0  0  0  0  0  0  0  0
   35.6890   26.5590   38.2460 C   0  0  0  0  0  0  0  0  0  0  0  0
   36.5210   26.7980   39.2820 C   0  0  0  0  0  0  0  0  0  0  0  0
   36.6860   28.0620   39.7670 N   0  0  0  0  0  0  0  0  0  0  0  0
   36.0280   29.1120   39.2320 C   0  0  0  0  0  0  0  0  0  0  0  0
   35.2150   28.8810   38.2190 N   0  0  0  0  0  0  0  0  0  0  0  0
   34.3510   27.5000   36.8830 H   0  0  0  0  0  0  0  0  0  0  0  0
   35.5690   25.5650   37.8750 H   0  0  0  0  0  0  0  0  0  0  0  0
   37.2830   25.7380   39.9400 C   0  0  0  0  0  0  0  0  0  0  0  0
   36.7900   24.9110   40.9130 C   0  0  0  0  0  0  0  0  0  0  0  0
   37.5190   23.9130   41.5270 C   0  0  0  0  0  0  0  0  0  0  0  0
   38.8350   23.7080   41.1590 C   0  0  0  0  0  0  0  0  0  0  0  0
   39.3810   24.5060   40.1890 C   0  0  0  0  0  0  0  0  0  0  0  0
   38.6100   25.4960   39.6010 C   0  0  0  0  0  0  0  0  0  0  0  0
   35.7460   25.0590   41.2190 H   0  0  0  0  0  0  0  0  0  0  0  0
   37.0360   23.3130   42.2850 H   0  0  0  0  0  0  0  0  0  0  0  0
   39.3760   22.9210   41.6560 H   0  0  0  0  0  0  0  0  0  0  0  0
   40.4110   24.3420   39.9060 H   0  0  0  0  0  0  0  0  0  0  0  0
   39.1140   26.0850   38.8450 H   0  0  0  0  0  0  0  0  0  0  0  0
  1  4  1  6  0  0  0
  1 27  1  0  0  0  0
  1  2  1  0  0  0  0
  1  3  1  0  0  0  0
  2  3  1  0  0  0  0
  2  5  1  0  0  0  0
  3  7  1  6  0  0  0
  3  8  1  0  0  0  0
  6  2  1  0  0  0  0
  8  9  1  0  0  0  0
  8 11  1  1  0  0  0
  9 13  1  0  0  0  0
 10 14  1  6  0  0  0
 10  8  1  0  0  0  0
 10 15  1  0  0  0  0
 10  9  1  0  0  0  0
 12  9  1  0  0  0  0
 15 26  2  0  0  0  0
 15 16  1  0  0  0  0
 16 17  2  0  0  0  0
 17 18  1  0  0  0  0
 19 20  1  0  0  0  0
 19 18  2  0  0  0  0
 21 22  1  0  0  0  0
 21 20  2  0  0  0  0
 23 21  1  0  0  0  0
 24 23  1  0  0  0  0
 25 23  2  0  0  0  0
 25 26  1  0  0  0  0
 26 19  1  0  0  0  0
 27 28  1  0  0  0  0
 29 27  1  0  0  0  0
 31 30  2  0  0  0  0
 31 27  1  0  0  0  0
 32 37  2  0  0  0  0
 32 33  1  0  0  0  0
 33 34  2  0  0  0  0
 34 35  1  0  0  0  0
 34 40  1  0  0  0  0
 36 35  2  0  0  0  0
 36 30  1  0  0  0  0
 37 36  1  0  0  0  0
 38 32  1  0  0  0  0
 39 33  1  0  0  0  0
 40 41  1  0  0  0  0
 41 46  1  0  0  0  0
 41 42  2  0  0  0  0
 42 47  1  0  0  0  0
 43 42  1  0  0  0  0
 43 48  1  0  0  0  0
 44 43  2  0  0  0  0
 45 40  2  0  0  0  0
 45 44  1  0  0  0  0
 49 44  1  0  0  0  0
 50 45  1  0  0  0  0
M  END
>  <minimizedAffinity>
-6.45484066

$$$$

 OpenBabel03252508193D

 50 55  0  0  1  0  0  0  0  0999 V2000
   36.9670   25.0920   40.8710 C   0  0  1  0  0  0  0  0  0  0  0  0
   37.2450   24.4600   42.1920 C   0  0  0  0  0  0  0  0  0  0  0  0
   36.7210   25.8210   42.1290 C   0  0  1  0  0  0  0  0  0  0  0  0
   36.1770   24.4900   40.3330 H   0  0  0  0  0  0  0  0  0  0  0  0
   38.3100   24.3460   42.5090 H   0  0  0  0  0  0  0  0  0  0  0  0
   36.6030   23.6620   42.6150 H   0  0  0  0  0  0  0  0  0  0  0  0
   35.6540   25.9550   42.4040 H   0  0  0  0  0  0  0  0  0  0  0  0
   37.5730   27.0130   42.4320 C   0  0  2  0  0  0  0  0  0  0  0  0
   37.0240   27.8580   43.6100 C   0  0  0  0  0  0  0  0  0  0  0  0
   36.9550   28.3950   42.2350 C   0  0  1  0  0  0  0  0  0  0  0  0
   38.6710   26.9270   42.5130 H   0  0  0  0  0  0  0  0  0  0  0  0
   36.0490   27.5750   44.0480 H   0  0  0  0  0  0  0  0  0  0  0  0
   37.7050   28.2830   44.3420 H   0  0  0  0  0  0  0  0  0  0  0  0
   35.9780   28.4060   41.7000 H   0  0  0  0  0  0  0  0  0  0  0  0
   37.8730   29.5330   41.9700 C   0  0  0  0  0  0  0  0  0  0  0  0
   38.8540   29.8940   42.8180 N   0  0  0  0  0  0  0  0  0  0  0  0
   39.7010   30.9080   42.6210 C   0  0  0  0  0  3  0  0  0  0  0  0
   39.6060   31.6640   41.4910 N   0  0  0  0  0  0  0  0  0  0  0  0
   38.6350   31.3450   40.5980 C   0  0  0  0  0  0  0  0  0  0  0  0
   38.5790   32.1380   39.4700 C   0  0  0  0  0  3  0  0  0  0  0  0
   37.5870   31.8310   38.5320 C   0  0  0  0  0  0  0  0  0  0  0  0
   37.5740   32.4750   37.6590 H   0  0  0  0  0  0  0  0  0  0  0  0
   36.7080   30.7860   38.7280 C   0  0  0  0  0  0  0  0  0  0  0  0
   35.9540   30.6050   37.9460 H   0  0  0  0  0  0  0  0  0  0  0  0
   36.7800   30.0010   39.8650 C   0  0  0  0  0  3  0  0  0  0  0  0
   37.7640   30.2930   40.8130 C   0  0  0  0  0  0  0  0  0  0  0  0
   38.1690   25.4100   40.0470 C   0  0  0  0  0  0  0  0  0  0  0  0
   39.0250   25.8400   40.5490 H   0  0  0  0  0  0  0  0  0  0  0  0
   38.5580   24.4890   39.5210 H   0  0  0  0  0  0  0  0  0  0  0  0
   36.6740   26.3220   38.4650 C   0  0  0  0  0  3  0  0  0  0  0  0
   37.8230   26.4300   38.9850 C   0  0  0  0  0  3  0  0  0  0  0  0
   36.7060   28.4230   35.4330 C   0  0  0  0  0  0  0  0  0  0  0  0
   35.4410   29.0040   35.4460 C   0  0  0  0  0  0  0  0  0  0  0  0
   34.6370   28.6630   36.4760 C   0  0  0  0  0  0  0  0  0  0  0  0
   35.0650   27.7960   37.4370 N   0  0  0  0  0  0  0  0  0  0  0  0
   36.2990   27.2510   37.3950 C   0  0  0  0  0  0  0  0  0  0  0  0
   37.0860   27.5830   36.3900 N   0  0  0  0  0  0  0  0  0  0  0  0
   37.3750   28.6800   34.6150 H   0  0  0  0  0  0  0  0  0  0  0  0
   35.0950   29.6830   34.7000 H   0  0  0  0  0  0  0  0  0  0  0  0
   33.2820   29.1920   36.6240 C   0  0  0  0  0  0  0  0  0  0  0  0
   32.5050   29.6480   35.5930 C   0  0  0  0  0  0  0  0  0  0  0  0
   31.2260   30.1450   35.7450 C   0  0  0  0  0  0  0  0  0  0  0  0
   30.6650   30.2000   37.0060 C   0  0  0  0  0  0  0  0  0  0  0  0
   31.3960   29.7570   38.0750 C   0  0  0  0  0  0  0  0  0  0  0  0
   32.6770   29.2660   37.8740 C   0  0  0  0  0  0  0  0  0  0  0  0
   32.9350   29.6130   34.5830 H   0  0  0  0  0  0  0  0  0  0  0  0
   30.6960   30.4800   34.8660 H   0  0  0  0  0  0  0  0  0  0  0  0
   29.6650   30.5930   37.0900 H   0  0  0  0  0  0  0  0  0  0  0  0
   30.9520   29.8030   39.0590 H   0  0  0  0  0  0  0  0  0  0  0  0
   33.1900   28.9370   38.7680 H   0  0  0  0  0  0  0  0  0  0  0  0
  1  4  1  6  0  0  0
  1  3  1  0  0  0  0
  1  2  1  0  0  0  0
  2  5  1  0  0  0  0
  2  6  1  0  0  0  0
  3  2  1  0  0  0  0
  3  7  1  1  0  0  0
  3  8  1  0  0  0  0
  8 11  1  6  0  0  0
  8  9  1  0  0  0  0
  9 12  1  0  0  0  0
  9 13  1  0  0  0  0
 10 14  1  6  0  0  0
 10  8  1  0  0  0  0
 10  9  1  0  0  0  0
 15 10  1  0  0  0  0
 15 16  1  0  0  0  0
 17 16  2  0  0  0  0
 18 17  1  0  0  0  0
 19 26  1  0  0  0  0
 19 18  2  0  0  0  0
 20 19  1  0  0  0  0
 21 23  1  0  0  0  0
 21 20  2  0  0  0  0
 22 21  1  0  0  0  0
 23 25  2  0  0  0  0
 24 23  1  0  0  0  0
 25 26  1  0  0  0  0
 26 15  2  0  0  0  0
 27 28  1  0  0  0  0
 27  1  1  0  0  0  0
 29 27  1  0  0  0  0
 30 31  2  0  0  0  0
 31 27  1  0  0  0  0
 32 33  2  0  0  0  0
 32 37  1  0  0  0  0
 33 34  1  0  0  0  0
 34 40  1  0  0  0  0
 34 35  2  0  0  0  0
 36 35  1  0  0  0  0
 36 30  1  0  0  0  0
 37 36  2  0  0  0  0
 38 32  1  0  0  0  0
 39 33  1  0  0  0  0
 40 45  1  0  0  0  0
 41 42  1  0  0  0  0
 41 40  2  0  0  0  0
 42 43  2  0  0  0  0
 43 48  1  0  0  0  0
 43 44  1  0  0  0  0
 44 49  1  0  0  0  0
 45 44  2  0  0  0  0
 45 50  1  0  0  0  0
 46 41  1  0  0  0  0
 47 42  1  0  0  0  0
M  END
>  <minimizedAffinity>
-6.35132027

$$$$

 OpenBabel03252508193D

 50 55  0  0  1  0  0  0  0  0999 V2000
   36.4030   29.2930   36.8360 C   0  0  1  0  0  0  0  0  0  0  0  0
   35.2660   28.4180   36.4360 C   0  0  0  0  0  0  0  0  0  0  0  0
   35.1950   29.1850   37.6750 C   0  0  1  0  0  0  0  0  0  0  0  0
   36.5490   30.0930   36.0510 H   0  0  0  0  0  0  0  0  0  0  0  0
   35.3900   27.3130   36.5350 H   0  0  0  0  0  0  0  0  0  0  0  0
   34.5770   28.6820   35.6080 H   0  0  0  0  0  0  0  0  0  0  0  0
   34.5290   30.0730   37.6730 H   0  0  0  0  0  0  0  0  0  0  0  0
   35.3250   28.5350   39.0170 C   0  0  2  0  0  0  0  0  0  0  0  0
   34.4990   29.2550   40.1140 C   0  0  0  0  0  0  0  0  0  0  0  0
   35.9740   29.3450   40.1370 C   0  0  1  0  0  0  0  0  0  0  0  0
   35.2300   27.4420   39.1360 H   0  0  0  0  0  0  0  0  0  0  0  0
   33.9810   30.1950   39.8470 H   0  0  0  0  0  0  0  0  0  0  0  0
   33.9630   28.6790   40.8620 H   0  0  0  0  0  0  0  0  0  0  0  0
   36.4710   30.2880   39.8150 H   0  0  0  0  0  0  0  0  0  0  0  0
   36.6200   28.5970   41.2470 C   0  0  0  0  0  0  0  0  0  0  0  0
   36.9690   29.1740   42.4120 N   0  0  0  0  0  0  0  0  0  0  0  0
   37.5500   28.5420   43.4350 C   0  0  0  0  0  3  0  0  0  0  0  0
   37.8320   27.2120   43.3420 N   0  0  0  0  0  0  0  0  0  0  0  0
   37.5010   26.5770   42.1890 C   0  0  0  0  0  0  0  0  0  0  0  0
   37.8060   25.2320   42.1420 C   0  0  0  0  0  3  0  0  0  0  0  0
   37.4760   24.5510   40.9640 C   0  0  0  0  0  0  0  0  0  0  0  0
   37.7300   23.4960   40.9640 H   0  0  0  0  0  0  0  0  0  0  0  0
   36.8750   25.1960   39.9020 C   0  0  0  0  0  0  0  0  0  0  0  0
   36.6460   24.5960   39.0090 H   0  0  0  0  0  0  0  0  0  0  0  0
   36.5770   26.5460   39.9680 C   0  0  0  0  0  3  0  0  0  0  0  0
   36.9000   27.2420   41.1360 C   0  0  0  0  0  0  0  0  0  0  0  0
   37.6530   28.5800   37.2310 C   0  0  0  0  0  0  0  0  0  0  0  0
   37.6740   28.0970   38.1990 H   0  0  0  0  0  0  0  0  0  0  0  0
   37.9140   27.7740   36.4850 H   0  0  0  0  0  0  0  0  0  0  0  0
   38.7850   30.4000   38.2180 C   0  0  0  0  0  3  0  0  0  0  0  0
   38.8150   29.5460   37.2840 C   0  0  0  0  0  3  0  0  0  0  0  0
   40.7680   33.4100   39.0010 C   0  0  0  0  0  0  0  0  0  0  0  0
   41.9750   33.1630   38.3540 C   0  0  0  0  0  0  0  0  0  0  0  0
   42.0650   31.9950   37.6830 C   0  0  0  0  0  0  0  0  0  0  0  0
   41.0160   31.1240   37.6550 N   0  0  0  0  0  0  0  0  0  0  0  0
   39.8580   31.3960   38.2930 C   0  0  0  0  0  0  0  0  0  0  0  0
   39.7690   32.5360   38.9500 N   0  0  0  0  0  0  0  0  0  0  0  0
   40.6670   34.3440   39.5500 H   0  0  0  0  0  0  0  0  0  0  0  0
   42.8030   33.8360   38.3690 H   0  0  0  0  0  0  0  0  0  0  0  0
   43.2690   31.5970   36.9550 C   0  0  0  0  0  0  0  0  0  0  0  0
   44.5050   32.1610   37.1230 C   0  0  0  0  0  0  0  0  0  0  0  0
   45.6350   31.7770   36.4300 C   0  0  0  0  0  0  0  0  0  0  0  0
   45.5490   30.7590   35.5000 C   0  0  0  0  0  0  0  0  0  0  0  0
   44.3370   30.1570   35.2910 C   0  0  0  0  0  0  0  0  0  0  0  0
   43.2290   30.5770   36.0100 C   0  0  0  0  0  0  0  0  0  0  0  0
   44.5930   32.9720   37.8580 H   0  0  0  0  0  0  0  0  0  0  0  0
   46.5650   32.2870   36.6370 H   0  0  0  0  0  0  0  0  0  0  0  0
   46.4490   30.4830   34.9770 H   0  0  0  0  0  0  0  0  0  0  0  0
   44.2750   29.3620   34.5620 H   0  0  0  0  0  0  0  0  0  0  0  0
   42.3080   30.0540   35.7870 H   0  0  0  0  0  0  0  0  0  0  0  0
  1  4  1  6  0  0  0
  1 27  1  0  0  0  0
  1  3  1  0  0  0  0
  2  5  1  0  0  0  0
  2  1  1  0  0  0  0
  2  3  1  0  0  0  0
  3  7  1  6  0  0  0
  3  8  1  0  0  0  0
  6  2  1  0  0  0  0
  8 11  1  1  0  0  0
  8  9  1  0  0  0  0
  8 10  1  0  0  0  0
  9 10  1  0  0  0  0
  9 13  1  0  0  0  0
 10 14  1  6  0  0  0
 10 15  1  0  0  0  0
 12  9  1  0  0  0  0
 15 16  1  0  0  0  0
 16 17  2  0  0  0  0
 18 17  1  0  0  0  0
 19 18  2  0  0  0  0
 20 19  1  0  0  0  0
 21 20  2  0  0  0  0
 22 21  1  0  0  0  0
 23 25  2  0  0  0  0
 23 21  1  0  0  0  0
 24 23  1  0  0  0  0
 25 26  1  0  0  0  0
 26 15  2  0  0  0  0
 26 19  1  0  0  0  0
 27 31  1  0  0  0  0
 27 28  1  0  0  0  0
 29 27  1  0  0  0  0
 30 36  1  0  0  0  0
 31 30  2  0  0  0  0
 32 38  1  0  0  0  0
 33 39  1  0  0  0  0
 33 32  2  0  0  0  0
 34 33  1  0  0  0  0
 35 34  2  0  0  0  0
 35 36  1  0  0  0  0
 36 37  2  0  0  0  0
 37 32  1  0  0  0  0
 40 41  1  0  0  0  0
 40 34  1  0  0  0  0
 41 46  1  0  0  0  0
 42 47  1  0  0  0  0
 42 41  2  0  0  0  0
 43 42  1  0  0  0  0
 44 43  2  0  0  0  0
 44 45  1  0  0  0  0
 45 40  2  0  0  0  0
 48 43  1  0  0  0  0
 49 44  1  0  0  0  0
 50 45  1  0  0  0  0
M  END
>  <minimizedAffinity>
-6.31310844

$$$$

 OpenBabel03252508193D

 50 55  0  0  1  0  0  0  0  0999 V2000
   36.4860   30.4180   38.8260 C   0  0  1  0  0  0  0  0  0  0  0  0
   36.8870   31.7090   39.4530 C   0  0  0  0  0  0  0  0  0  0  0  0
   37.8780   30.6570   39.2520 C   0  0  1  0  0  0  0  0  0  0  0  0
   36.1100   30.6160   37.7800 H   0  0  0  0  0  0  0  0  0  0  0  0
   36.5690   31.9060   40.5060 H   0  0  0  0  0  0  0  0  0  0  0  0
   36.9820   32.6470   38.8700 H   0  0  0  0  0  0  0  0  0  0  0  0
   38.6090   30.8140   38.4320 H   0  0  0  0  0  0  0  0  0  0  0  0
   38.4160   29.8480   40.3900 C   0  0  2  0  0  0  0  0  0  0  0  0
   39.9550   29.6700   40.3230 C   0  0  0  0  0  0  0  0  0  0  0  0
   39.0760   28.5110   40.0590 C   0  0  1  0  0  0  0  0  0  0  0  0
   38.1080   30.0470   41.4300 H   0  0  0  0  0  0  0  0  0  0  0  0
   40.4890   30.0590   39.4370 H   0  0  0  0  0  0  0  0  0  0  0  0
   40.5510   29.7230   41.2290 H   0  0  0  0  0  0  0  0  0  0  0  0
   38.9350   28.1580   39.0130 H   0  0  0  0  0  0  0  0  0  0  0  0
   39.0960   27.4680   41.1170 C   0  0  0  0  0  0  0  0  0  0  0  0
   39.9210   27.5190   42.1790 N   0  0  0  0  0  0  0  0  0  0  0  0
   39.9740   26.6070   43.1530 C   0  0  0  0  0  3  0  0  0  0  0  0
   39.1480   25.5220   43.1140 N   0  0  0  0  0  0  0  0  0  0  0  0
   38.2930   25.4180   42.0650 C   0  0  0  0  0  0  0  0  0  0  0  0
   37.4780   24.3050   42.0700 C   0  0  0  0  0  3  0  0  0  0  0  0
   36.5850   24.1720   41.0000 C   0  0  0  0  0  0  0  0  0  0  0  0
   35.9610   23.2850   41.0380 H   0  0  0  0  0  0  0  0  0  0  0  0
   36.5250   25.1110   39.9900 C   0  0  0  0  0  0  0  0  0  0  0  0
   35.7980   24.9380   39.1820 H   0  0  0  0  0  0  0  0  0  0  0  0
   37.3500   26.2210   40.0030 C   0  0  0  0  0  3  0  0  0  0  0  0
   38.2480   26.3700   41.0630 C   0  0  0  0  0  0  0  0  0  0  0  0
   35.5910   29.5560   39.6520 C   0  0  0  0  0  0  0  0  0  0  0  0
   36.0170   28.6670   40.0980 H   0  0  0  0  0  0  0  0  0  0  0  0
   35.1400   30.1380   40.5080 H   0  0  0  0  0  0  0  0  0  0  0  0
   34.7020   28.8500   37.5830 C   0  0  0  0  0  3  0  0  0  0  0  0
   34.4500   29.0260   38.8110 C   0  0  0  0  0  3  0  0  0  0  0  0
   32.2710   26.7410   35.7790 C   0  0  0  0  0  0  0  0  0  0  0  0
   31.5590   27.6670   35.0230 C   0  0  0  0  0  0  0  0  0  0  0  0
   31.9310   28.9580   35.1540 C   0  0  0  0  0  0  0  0  0  0  0  0
   32.9520   29.3090   35.9870 N   0  0  0  0  0  0  0  0  0  0  0  0
   33.6230   28.3850   36.7060 C   0  0  0  0  0  0  0  0  0  0  0  0
   33.2610   27.1230   36.5800 N   0  0  0  0  0  0  0  0  0  0  0  0
   31.9930   25.6930   35.6930 H   0  0  0  0  0  0  0  0  0  0  0  0
   30.7580   27.4050   34.3690 H   0  0  0  0  0  0  0  0  0  0  0  0
   31.2760   30.0430   34.4240 C   0  0  0  0  0  0  0  0  0  0  0  0
   30.4870   29.8750   33.3180 C   0  0  0  0  0  0  0  0  0  0  0  0
   29.8730   30.9060   32.6370 C   0  0  0  0  0  0  0  0  0  0  0  0
   30.0460   32.2050   33.0740 C   0  0  0  0  0  0  0  0  0  0  0  0
   30.8260   32.4340   34.1760 C   0  0  0  0  0  0  0  0  0  0  0  0
   31.4220   31.3660   34.8280 C   0  0  0  0  0  0  0  0  0  0  0  0
   30.3380   28.8490   32.9560 H   0  0  0  0  0  0  0  0  0  0  0  0
   29.2690   30.6670   31.7740 H   0  0  0  0  0  0  0  0  0  0  0  0
   29.5540   32.9880   32.5210 H   0  0  0  0  0  0  0  0  0  0  0  0
   30.9580   33.4520   34.5120 H   0  0  0  0  0  0  0  0  0  0  0  0
   32.0230   31.6280   35.6890 H   0  0  0  0  0  0  0  0  0  0  0  0
  1  4  1  6  0  0  0
  1  3  1  0  0  0  0
  1  2  1  0  0  0  0
  1 27  1  0  0  0  0
  2  5  1  0  0  0  0
  3  7  1  6  0  0  0
  3  2  1  0  0  0  0
  3  8  1  0  0  0  0
  6  2  1  0  0  0  0
  8 11  1  1  0  0  0
  9  8  1  0  0  0  0
  9 13  1  0  0  0  0
 10 14  1  6  0  0  0
 10  9  1  0  0  0  0
 10  8  1  0  0  0  0
 10 15  1  0  0  0  0
 12  9  1  0  0  0  0
 15 16  1  0  0  0  0
 16 17  2  0  0  0  0
 18 17  1  0  0  0  0
 19 20  1  0  0  0  0
 19 18  2  0  0  0  0
 21 22  1  0  0  0  0
 21 20  2  0  0  0  0
 23 25  2  0  0  0  0
 23 21  1  0  0  0  0
 24 23  1  0  0  0  0
 25 26  1  0  0  0  0
 26 15  2  0  0  0  0
 26 19  1  0  0  0  0
 27 28  1  0  0  0  0
 27 29  1  0  0  0  0
 30 31  2  0  0  0  0
 31 27  1  0  0  0  0
 32 37  1  0  0  0  0
 33 34  1  0  0  0  0
 33 32  2  0  0  0  0
 34 35  2  0  0  0  0
 35 36  1  0  0  0  0
 36 30  1  0  0  0  0
 37 36  2  0  0  0  0
 38 32  1  0  0  0  0
 39 33  1  0  0  0  0
 40 45  1  0  0  0  0
 40 34  1  0  0  0  0
 41 40  2  0  0  0  0
 42 43  2  0  0  0  0
 42 41  1  0  0  0  0
 43 44  1  0  0  0  0
 44 49  1  0  0  0  0
 44 45  2  0  0  0  0
 45 50  1  0  0  0  0
 46 41  1  0  0  0  0
 47 42  1  0  0  0  0
 48 43  1  0  0  0  0
M  END
>  <minimizedAffinity>
-6.17644215

$$$$

 OpenBabel03252508193D

 50 55  0  0  1  0  0  0  0  0999 V2000
   38.2350   23.7030   38.5370 C   0  0  1  0  0  0  0  0  0  0  0  0
   38.6470   22.5400   39.3720 C   0  0  0  0  0  0  0  0  0  0  0  0
   37.6520   23.4830   39.8730 C   0  0  1  0  0  0  0  0  0  0  0  0
   37.7680   23.3240   37.5810 H   0  0  0  0  0  0  0  0  0  0  0  0
   39.6530   22.5670   39.8560 H   0  0  0  0  0  0  0  0  0  0  0  0
   38.3290   21.5030   39.1430 H   0  0  0  0  0  0  0  0  0  0  0  0
   36.5980   23.1340   39.8840 H   0  0  0  0  0  0  0  0  0  0  0  0
   37.9680   24.4700   40.9520 C   0  0  2  0  0  0  0  0  0  0  0  0
   36.9460   24.4320   42.1170 C   0  0  0  0  0  0  0  0  0  0  0  0
   36.9640   25.5930   41.2020 C   0  0  1  0  0  0  0  0  0  0  0  0
   38.9910   24.5700   41.3550 H   0  0  0  0  0  0  0  0  0  0  0  0
   36.0620   23.7760   42.0170 H   0  0  0  0  0  0  0  0  0  0  0  0
   37.2850   24.5260   43.1450 H   0  0  0  0  0  0  0  0  0  0  0  0
   36.1660   25.6960   40.4330 H   0  0  0  0  0  0  0  0  0  0  0  0
   37.4700   26.8500   41.8110 C   0  0  0  0  0  0  0  0  0  0  0  0
   38.4670   26.8760   42.7160 N   0  0  0  0  0  0  0  0  0  0  0  0
   38.9530   27.9800   43.2880 C   0  0  0  0  0  3  0  0  0  0  0  0
   38.4330   29.1990   42.9660 N   0  0  0  0  0  0  0  0  0  0  0  0
   37.4250   29.2340   42.0580 C   0  0  0  0  0  0  0  0  0  0  0  0
   36.9320   30.4890   41.7640 C   0  0  0  0  0  3  0  0  0  0  0  0
   35.8920   30.5560   40.8310 C   0  0  0  0  0  0  0  0  0  0  0  0
   35.5310   31.5580   40.6240 H   0  0  0  0  0  0  0  0  0  0  0  0
   35.3840   29.4190   40.2340 C   0  0  0  0  0  0  0  0  0  0  0  0
   34.5660   29.5500   39.5100 H   0  0  0  0  0  0  0  0  0  0  0  0
   35.8910   28.1690   40.5410 C   0  0  0  0  0  3  0  0  0  0  0  0
   36.9310   28.0840   41.4720 C   0  0  0  0  0  0  0  0  0  0  0  0
   39.2780   24.7530   38.3410 C   0  0  0  0  0  0  0  0  0  0  0  0
   39.8160   25.0980   39.2130 H   0  0  0  0  0  0  0  0  0  0  0  0
   40.0700   24.4090   37.6130 H   0  0  0  0  0  0  0  0  0  0  0  0
   38.9850   27.0940   38.3460 C   0  0  0  0  0  3  0  0  0  0  0  0
   38.6570   26.0120   37.7780 C   0  0  0  0  0  3  0  0  0  0  0  0
   36.9850   29.5750   36.4880 C   0  0  0  0  0  0  0  0  0  0  0  0
   37.3080   30.7710   37.1220 C   0  0  0  0  0  0  0  0  0  0  0  0
   38.1870   30.6870   38.1440 C   0  0  0  0  0  0  0  0  0  0  0  0
   38.7140   29.4850   38.5140 N   0  0  0  0  0  0  0  0  0  0  0  0
   38.3780   28.3440   37.8770 C   0  0  0  0  0  0  0  0  0  0  0  0
   37.5200   28.4230   36.8790 N   0  0  0  0  0  0  0  0  0  0  0  0
   36.2790   29.6130   35.6610 H   0  0  0  0  0  0  0  0  0  0  0  0
   36.9030   31.7180   36.8420 H   0  0  0  0  0  0  0  0  0  0  0  0
   38.6230   31.8580   38.9040 C   0  0  0  0  0  0  0  0  0  0  0  0
   39.8850   32.0370   39.4060 C   0  0  0  0  0  0  0  0  0  0  0  0
   40.2860   33.1460   40.1220 C   0  0  0  0  0  0  0  0  0  0  0  0
   39.3810   34.1610   40.3650 C   0  0  0  0  0  0  0  0  0  0  0  0
   38.1040   34.0360   39.8860 C   0  0  0  0  0  0  0  0  0  0  0  0
   37.7460   32.9030   39.1720 C   0  0  0  0  0  0  0  0  0  0  0  0
   40.6180   31.2400   39.2230 H   0  0  0  0  0  0  0  0  0  0  0  0
   41.3060   33.1910   40.4750 H   0  0  0  0  0  0  0  0  0  0  0  0
   39.7250   35.0130   40.9260 H   0  0  0  0  0  0  0  0  0  0  0  0
   37.4000   34.8330   40.0800 H   0  0  0  0  0  0  0  0  0  0  0  0
   36.7210   32.8790   38.8280 H   0  0  0  0  0  0  0  0  0  0  0  0
  1  4  1  6  0  0  0
  1  2  1  0  0  0  0
  1  3  1  0  0  0  0
  2  5  1  0  0  0  0
  2  3  1  0  0  0  0
  3  7  1  6  0  0  0
  3  8  1  0  0  0  0
  6  2  1  0  0  0  0
  8 10  1  0  0  0  0
  8 11  1  1  0  0  0
  8  9  1  0  0  0  0
  9 13  1  0  0  0  0
 10 14  1  6  0  0  0
 10 15  1  0  0  0  0
 10  9  1  0  0  0  0
 12  9  1  0  0  0  0
 15 16  1  0  0  0  0
 16 17  2  0  0  0  0
 18 17  1  0  0  0  0
 19 18  2  0  0  0  0
 20 19  1  0  0  0  0
 21 20  2  0  0  0  0
 22 21  1  0  0  0  0
 23 25  2  0  0  0  0
 23 21  1  0  0  0  0
 24 23  1  0  0  0  0
 25 26  1  0  0  0  0
 26 15  2  0  0  0  0
 26 19  1  0  0  0  0
 27  1  1  0  0  0  0
 27 28  1  0  0  0  0
 29 27  1  0  0  0  0
 31 27  1  0  0  0  0
 31 30  2  0  0  0  0
 32 37  2  0  0  0  0
 32 33  1  0  0  0  0
 33 34  2  0  0  0  0
 34 35  1  0  0  0  0
 34 40  1  0  0  0  0
 36 30  1  0  0  0  0
 36 35  2  0  0  0  0
 37 36  1  0  0  0  0
 38 32  1  0  0  0  0
 39 33  1  0  0  0  0
 40 45  2  0  0  0  0
 40 41  1  0  0  0  0
 41 42  2  0  0  0  0
 42 43  1  0  0  0  0
 42 47  1  0  0  0  0
 43 48  1  0  0  0  0
 44 49  1  0  0  0  0
 44 43  2  0  0  0  0
 45 44  1  0  0  0  0
 46 41  1  0  0  0  0
 50 45  1  0  0  0  0
M  END
>  <minimizedAffinity>
-6.14135027

$$$$

 OpenBabel03252508193D

 50 55  0  0  1  0  0  0  0  0999 V2000
   38.1040   23.5420   38.9770 C   0  0  1  0  0  0  0  0  0  0  0  0
   38.5500   22.4090   39.8350 C   0  0  0  0  0  0  0  0  0  0  0  0
   37.5500   23.3490   40.3300 C   0  0  1  0  0  0  0  0  0  0  0  0
   37.6240   23.1310   38.0410 H   0  0  0  0  0  0  0  0  0  0  0  0
   39.5650   22.4650   40.2980 H   0  0  0  0  0  0  0  0  0  0  0  0
   38.2440   21.3610   39.6400 H   0  0  0  0  0  0  0  0  0  0  0  0
   36.5020   22.9840   40.3710 H   0  0  0  0  0  0  0  0  0  0  0  0
   37.8720   24.3700   41.3760 C   0  0  2  0  0  0  0  0  0  0  0  0
   36.6850   24.6370   42.3370 C   0  0  0  0  0  0  0  0  0  0  0  0
   37.0780   25.6740   41.3610 C   0  0  1  0  0  0  0  0  0  0  0  0
   38.8140   24.3260   41.9490 H   0  0  0  0  0  0  0  0  0  0  0  0
   35.7180   24.1430   42.1260 H   0  0  0  0  0  0  0  0  0  0  0  0
   36.8630   24.7740   43.4000 H   0  0  0  0  0  0  0  0  0  0  0  0
   36.4520   25.8390   40.4550 H   0  0  0  0  0  0  0  0  0  0  0  0
   37.7120   26.8770   41.9600 C   0  0  0  0  0  0  0  0  0  0  0  0
   37.0100   27.9570   42.3500 N   0  0  0  0  0  0  0  0  0  0  0  0
   37.5350   29.0580   42.8930 C   0  0  0  0  0  3  0  0  0  0  0  0
   38.8820   29.1440   43.0880 N   0  0  0  0  0  0  0  0  0  0  0  0
   39.6420   28.0830   42.7140 C   0  0  0  0  0  0  0  0  0  0  0  0
   40.9980   28.2160   42.9310 C   0  0  0  0  0  3  0  0  0  0  0  0
   41.8060   27.1370   42.5550 C   0  0  0  0  0  0  0  0  0  0  0  0
   42.8660   27.2780   42.7410 H   0  0  0  0  0  0  0  0  0  0  0  0
   41.2700   25.9960   41.9930 C   0  0  0  0  0  0  0  0  0  0  0  0
   41.9680   25.1890   41.7230 H   0  0  0  0  0  0  0  0  0  0  0  0
   39.9070   25.8810   41.7830 C   0  0  0  0  0  3  0  0  0  0  0  0
   39.0850   26.9490   42.1530 C   0  0  0  0  0  0  0  0  0  0  0  0
   39.1260   24.6020   38.7330 C   0  0  0  0  0  0  0  0  0  0  0  0
   39.6070   25.0470   39.5930 H   0  0  0  0  0  0  0  0  0  0  0  0
   39.9650   24.2170   38.0820 H   0  0  0  0  0  0  0  0  0  0  0  0
   38.8720   26.9260   38.4100 C   0  0  0  0  0  3  0  0  0  0  0  0
   38.5010   25.7810   38.0190 C   0  0  0  0  0  3  0  0  0  0  0  0
   37.0140   29.1750   36.1520 C   0  0  0  0  0  0  0  0  0  0  0  0
   37.1710   30.4190   36.7560 C   0  0  0  0  0  0  0  0  0  0  0  0
   37.8960   30.4430   37.8950 C   0  0  0  0  0  0  0  0  0  0  0  0
   38.4350   29.2980   38.4030 N   0  0  0  0  0  0  0  0  0  0  0  0
   38.2640   28.1080   37.7910 C   0  0  0  0  0  0  0  0  0  0  0  0
   37.5560   28.0820   36.6790 N   0  0  0  0  0  0  0  0  0  0  0  0
   36.4340   29.1260   35.2330 H   0  0  0  0  0  0  0  0  0  0  0  0
   36.7540   31.3220   36.3690 H   0  0  0  0  0  0  0  0  0  0  0  0
   38.1470   31.6750   38.6420 C   0  0  0  0  0  0  0  0  0  0  0  0
   37.1870   32.5920   38.9810 C   0  0  0  0  0  0  0  0  0  0  0  0
   37.4360   33.7510   39.6870 C   0  0  0  0  0  0  0  0  0  0  0  0
   38.7250   34.0360   40.0930 C   0  0  0  0  0  0  0  0  0  0  0  0
   39.7250   33.1550   39.7820 C   0  0  0  0  0  0  0  0  0  0  0  0
   39.4290   32.0030   39.0700 C   0  0  0  0  0  0  0  0  0  0  0  0
   36.1570   32.3820   38.6660 H   0  0  0  0  0  0  0  0  0  0  0  0
   36.6070   34.4090   39.9050 H   0  0  0  0  0  0  0  0  0  0  0  0
   38.8850   34.9490   40.6420 H   0  0  0  0  0  0  0  0  0  0  0  0
   40.7320   33.3830   40.1010 H   0  0  0  0  0  0  0  0  0  0  0  0
   40.2730   31.3580   38.8630 H   0  0  0  0  0  0  0  0  0  0  0  0
  1  4  1  6  0  0  0
  1  2  1  0  0  0  0
  1  3  1  0  0  0  0
  2  5  1  0  0  0  0
  2  3  1  0  0  0  0
  3  7  1  1  0  0  0
  3  8  1  0  0  0  0
  6  2  1  0  0  0  0
  8 11  1  1  0  0  0
  8  9  1  0  0  0  0
  9 13  1  0  0  0  0
 10 14  1  6  0  0  0
 10  8  1  0  0  0  0
 10 15  1  0  0  0  0
 10  9  1  0  0  0  0
 12  9  1  0  0  0  0
 15 26  2  0  0  0  0
 15 16  1  0  0  0  0
 16 17  2  0  0  0  0
 17 18  1  0  0  0  0
 19 20  1  0  0  0  0
 19 18  2  0  0  0  0
 21 22  1  0  0  0  0
 21 20  2  0  0  0  0
 23 21  1  0  0  0  0
 24 23  1  0  0  0  0
 25 23  2  0  0  0  0
 25 26  1  0  0  0  0
 26 19  1  0  0  0  0
 27  1  1  0  0  0  0
 27 28  1  0  0  0  0
 29 27  1  0  0  0  0
 31 30  2  0  0  0  0
 31 27  1  0  0  0  0
 32 37  2  0  0  0  0
 32 33  1  0  0  0  0
 33 34  2  0  0  0  0
 34 35  1  0  0  0  0
 34 40  1  0  0  0  0
 36 35  2  0  0  0  0
 36 30  1  0  0  0  0
 37 36  1  0  0  0  0
 38 32  1  0  0  0  0
 39 33  1  0  0  0  0
 40 41  2  0  0  0  0
 40 45  1  0  0  0  0
 41 42  1  0  0  0  0
 42 47  1  0  0  0  0
 42 43  2  0  0  0  0
 43 48  1  0  0  0  0
 44 43  1  0  0  0  0
 44 49  1  0  0  0  0
 45 44  2  0  0  0  0
 46 41  1  0  0  0  0
 50 45  1  0  0  0  0
M  END
>  <minimizedAffinity>
-6.02662134

$$$$

 OpenBabel03252508193D

 50 55  0  0  1  0  0  0  0  0999 V2000
   36.2340   25.4250   37.3260 C   0  0  1  0  0  0  0  0  0  0  0  0
   36.4740   24.0380   36.8380 C   0  0  0  0  0  0  0  0  0  0  0  0
   36.1950   24.2770   38.2500 C   0  0  1  0  0  0  0  0  0  0  0  0
   35.3190   25.8450   36.8120 H   0  0  0  0  0  0  0  0  0  0  0  0
   37.5180   23.7440   36.5750 H   0  0  0  0  0  0  0  0  0  0  0  0
   35.7260   23.4840   36.2350 H   0  0  0  0  0  0  0  0  0  0  0  0
   35.1860   23.9880   38.6130 H   0  0  0  0  0  0  0  0  0  0  0  0
   37.2600   24.1770   39.2960 C   0  0  2  0  0  0  0  0  0  0  0  0
   37.0550   22.9700   40.2470 C   0  0  0  0  0  0  0  0  0  0  0  0
   36.8390   24.3420   40.7540 C   0  0  1  0  0  0  0  0  0  0  0  0
   38.3290   24.2700   39.0360 H   0  0  0  0  0  0  0  0  0  0  0  0
   36.1350   22.3660   40.1370 H   0  0  0  0  0  0  0  0  0  0  0  0
   37.9060   22.3810   40.5750 H   0  0  0  0  0  0  0  0  0  0  0  0
   35.8010   24.7110   40.9110 H   0  0  0  0  0  0  0  0  0  0  0  0
   37.8660   24.8090   41.7220 C   0  0  0  0  0  0  0  0  0  0  0  0
   38.8590   24.0210   42.1740 N   0  0  0  0  0  0  0  0  0  0  0  0
   39.8010   24.3970   43.0420 C   0  0  0  0  0  3  0  0  0  0  0  0
   39.8010   25.6670   43.5380 N   0  0  0  0  0  0  0  0  0  0  0  0
   38.8220   26.5080   43.1170 C   0  0  0  0  0  0  0  0  0  0  0  0
   38.8630   27.7820   43.6470 C   0  0  0  0  0  3  0  0  0  0  0  0
   37.8660   28.6710   43.2300 C   0  0  0  0  0  0  0  0  0  0  0  0
   37.9300   29.6620   43.6660 H   0  0  0  0  0  0  0  0  0  0  0  0
   36.8880   28.2890   42.3330 C   0  0  0  0  0  0  0  0  0  0  0  0
   36.1370   29.0430   42.0530 H   0  0  0  0  0  0  0  0  0  0  0  0
   36.8630   27.0070   41.8130 C   0  0  0  0  0  3  0  0  0  0  0  0
   37.8520   26.1060   42.2180 C   0  0  0  0  0  0  0  0  0  0  0  0
   37.4230   26.3270   37.3050 C   0  0  0  0  0  0  0  0  0  0  0  0
   38.3720   25.9170   37.6230 H   0  0  0  0  0  0  0  0  0  0  0  0
   37.6030   26.7390   36.2690 H   0  0  0  0  0  0  0  0  0  0  0  0
   38.0270   28.4590   38.1140 C   0  0  0  0  0  3  0  0  0  0  0  0
   37.2080   27.5020   38.2320 C   0  0  0  0  0  3  0  0  0  0  0  0
   36.6980   31.2860   40.0760 C   0  0  0  0  0  0  0  0  0  0  0  0
   37.8190   31.7390   40.7660 C   0  0  0  0  0  0  0  0  0  0  0  0
   38.9710   31.0730   40.5360 C   0  0  0  0  0  0  0  0  0  0  0  0
   39.0070   30.0190   39.6720 N   0  0  0  0  0  0  0  0  0  0  0  0
   37.9010   29.6060   39.0190 C   0  0  0  0  0  0  0  0  0  0  0  0
   36.7750   30.2550   39.2420 N   0  0  0  0  0  0  0  0  0  0  0  0
   35.7560   31.8050   40.2420 H   0  0  0  0  0  0  0  0  0  0  0  0
   37.8040   32.5620   41.4440 H   0  0  0  0  0  0  0  0  0  0  0  0
   40.2300   31.4330   41.1860 C   0  0  0  0  0  0  0  0  0  0  0  0
   41.1240   32.3520   40.7030 C   0  0  0  0  0  0  0  0  0  0  0  0
   42.3090   32.6850   41.3260 C   0  0  0  0  0  0  0  0  0  0  0  0
   42.6480   32.0700   42.5150 C   0  0  0  0  0  0  0  0  0  0  0  0
   41.7910   31.1420   43.0460 C   0  0  0  0  0  0  0  0  0  0  0  0
   40.6110   30.8400   42.3850 C   0  0  0  0  0  0  0  0  0  0  0  0
   40.8720   32.8510   39.7580 H   0  0  0  0  0  0  0  0  0  0  0  0
   42.9460   33.4240   40.8610 H   0  0  0  0  0  0  0  0  0  0  0  0
   43.5800   32.3520   42.9760 H   0  0  0  0  0  0  0  0  0  0  0  0
   42.0620   30.6640   43.9760 H   0  0  0  0  0  0  0  0  0  0  0  0
   39.9890   30.0970   42.8670 H   0  0  0  0  0  0  0  0  0  0  0  0
  1  4  1  6  0  0  0
  1  3  1  0  0  0  0
  2  1  1  0  0  0  0
  2  3  1  0  0  0  0
  3  7  1  1  0  0  0
  3  8  1  0  0  0  0
  5  2  1  0  0  0  0
  6  2  1  0  0  0  0
  8 11  1  6  0  0  0
  8  9  1  0  0  0  0
  8 10  1  0  0  0  0
  9 13  1  0  0  0  0
  9 10  1  0  0  0  0
 10 14  1  1  0  0  0
 10 15  1  0  0  0  0
 12  9  1  0  0  0  0
 15 16  2  0  0  0  0
 15 26  1  0  0  0  0
 16 17  1  0  0  0  0
 17 18  2  0  0  0  0
 19 18  1  0  0  0  0
 19 20  1  0  0  0  0
 21 20  2  0  0  0  0
 21 22  1  0  0  0  0
 23 21  1  0  0  0  0
 24 23  1  0  0  0  0
 25 26  1  0  0  0  0
 25 23  2  0  0  0  0
 26 19  2  0  0  0  0
 27  1  1  0  0  0  0
 27 28  1  0  0  0  0
 27 31  1  0  0  0  0
 29 27  1  0  0  0  0
 30 31  2  0  0  0  0
 30 36  1  0  0  0  0
 32 38  1  0  0  0  0
 32 33  1  0  0  0  0
 33 39  1  0  0  0  0
 34 33  2  0  0  0  0
 34 40  1  0  0  0  0
 35 34  1  0  0  0  0
 36 37  1  0  0  0  0
 36 35  2  0  0  0  0
 37 32  2  0  0  0  0
 40 45  1  0  0  0  0
 41 40  2  0  0  0  0
 41 42  1  0  0  0  0
 42 43  2  0  0  0  0
 43 48  1  0  0  0  0
 43 44  1  0  0  0  0
 44 49  1  0  0  0  0
 45 50  1  0  0  0  0
 45 44  2  0  0  0  0
 46 41  1  0  0  0  0
 47 42  1  0  0  0  0
M  END
>  <minimizedAffinity>
-6.00546885

$$$$

 OpenBabel03252508193D

 50 55  0  0  1  0  0  0  0  0999 V2000
   37.6540   23.3730   39.0920 C   0  0  1  0  0  0  0  0  0  0  0  0
   38.0720   22.3030   40.0400 C   0  0  0  0  0  0  0  0  0  0  0  0
   37.2720   23.4270   40.5150 C   0  0  1  0  0  0  0  0  0  0  0  0
   37.0030   22.9200   38.2870 H   0  0  0  0  0  0  0  0  0  0  0  0
   39.1400   22.2720   40.3650 H   0  0  0  0  0  0  0  0  0  0  0  0
   37.6160   21.2920   40.0330 H   0  0  0  0  0  0  0  0  0  0  0  0
   36.2040   23.2200   40.7330 H   0  0  0  0  0  0  0  0  0  0  0  0
   37.8580   24.5140   41.3610 C   0  0  2  0  0  0  0  0  0  0  0  0
   37.0140   24.8080   42.6270 C   0  0  0  0  0  0  0  0  0  0  0  0
   37.0460   25.7960   41.5290 C   0  0  1  0  0  0  0  0  0  0  0  0
   38.9310   24.5260   41.6160 H   0  0  0  0  0  0  0  0  0  0  0  0
   36.0490   24.2800   42.7490 H   0  0  0  0  0  0  0  0  0  0  0  0
   37.5030   25.0110   43.5750 H   0  0  0  0  0  0  0  0  0  0  0  0
   36.1660   25.8940   40.8540 H   0  0  0  0  0  0  0  0  0  0  0  0
   37.7840   27.0460   41.8460 C   0  0  0  0  0  0  0  0  0  0  0  0
   38.9800   27.0530   42.4630 N   0  0  0  0  0  0  0  0  0  0  0  0
   39.6790   28.1500   42.7670 C   0  0  0  0  0  3  0  0  0  0  0  0
   39.1850   29.3810   42.4490 N   0  0  0  0  0  0  0  0  0  0  0  0
   37.9820   29.4350   41.8240 C   0  0  0  0  0  0  0  0  0  0  0  0
   37.5250   30.7020   41.5220 C   0  0  0  0  0  3  0  0  0  0  0  0
   36.2860   30.7880   40.8770 C   0  0  0  0  0  0  0  0  0  0  0  0
   35.9600   31.7990   40.6550 H   0  0  0  0  0  0  0  0  0  0  0  0
   35.5580   29.6590   40.5590 C   0  0  0  0  0  0  0  0  0  0  0  0
   34.5930   29.8060   40.0520 H   0  0  0  0  0  0  0  0  0  0  0  0
   36.0330   28.3970   40.8690 C   0  0  0  0  0  3  0  0  0  0  0  0
   37.2680   28.2920   41.5140 C   0  0  0  0  0  0  0  0  0  0  0  0
   38.7550   24.2410   38.5800 C   0  0  0  0  0  0  0  0  0  0  0  0
   39.5420   24.5160   39.2680 H   0  0  0  0  0  0  0  0  0  0  0  0
   39.2760   23.7620   37.7000 H   0  0  0  0  0  0  0  0  0  0  0  0
   38.8880   26.5910   38.4100 C   0  0  0  0  0  3  0  0  0  0  0  0
   38.2020   25.5700   38.1130 C   0  0  0  0  0  3  0  0  0  0  0  0
   38.5770   30.2100   37.7650 C   0  0  0  0  0  0  0  0  0  0  0  0
   37.2880   30.3240   37.2530 C   0  0  0  0  0  0  0  0  0  0  0  0
   36.5820   29.1770   37.1520 C   0  0  0  0  0  0  0  0  0  0  0  0
   37.1250   27.9870   37.5360 N   0  0  0  0  0  0  0  0  0  0  0  0
   38.3790   27.9120   38.0290 C   0  0  0  0  0  0  0  0  0  0  0  0
   39.0710   29.0310   38.1290 N   0  0  0  0  0  0  0  0  0  0  0  0
   39.1690   31.1180   37.8580 H   0  0  0  0  0  0  0  0  0  0  0  0
   36.8520   31.2480   36.9490 H   0  0  0  0  0  0  0  0  0  0  0  0
   35.2150   29.1380   36.6340 C   0  0  0  0  0  0  0  0  0  0  0  0
   34.8760   29.2740   35.3140 C   0  0  0  0  0  0  0  0  0  0  0  0
   33.5820   29.2350   34.8360 C   0  0  0  0  0  0  0  0  0  0  0  0
   32.5370   29.0490   35.7200 C   0  0  0  0  0  0  0  0  0  0  0  0
   32.8170   28.9060   37.0530 C   0  0  0  0  0  0  0  0  0  0  0  0
   34.1320   28.9520   37.4870 C   0  0  0  0  0  0  0  0  0  0  0  0
   35.6940   29.4240   34.5960 H   0  0  0  0  0  0  0  0  0  0  0  0
   33.4210   29.3530   33.7740 H   0  0  0  0  0  0  0  0  0  0  0  0
   31.5390   29.0230   35.3160 H   0  0  0  0  0  0  0  0  0  0  0  0
   31.9960   28.7610   37.7400 H   0  0  0  0  0  0  0  0  0  0  0  0
   34.2710   28.8330   38.5530 H   0  0  0  0  0  0  0  0  0  0  0  0
  1  4  1  6  0  0  0
  1  2  1  0  0  0  0
  1  3  1  0  0  0  0
  2  5  1  0  0  0  0
  2  3  1  0  0  0  0
  3  7  1  1  0  0  0
  3  8  1  0  0  0  0
  6  2  1  0  0  0  0
  8 10  1  0  0  0  0
  8 11  1  1  0  0  0
  8  9  1  0  0  0  0
  9 12  1  0  0  0  0
  9 13  1  0  0  0  0
 10 14  1  6  0  0  0
 10 15  1  0  0  0  0
 10  9  1  0  0  0  0
 15 16  1  0  0  0  0
 16 17  2  0  0  0  0
 18 17  1  0  0  0  0
 19 18  2  0  0  0  0
 20 19  1  0  0  0  0
 21 20  2  0  0  0  0
 22 21  1  0  0  0  0
 23 25  2  0  0  0  0
 23 21  1  0  0  0  0
 24 23  1  0  0  0  0
 25 26  1  0  0  0  0
 26 19  1  0  0  0  0
 26 15  2  0  0  0  0
 27  1  1  0  0  0  0
 27 28  1  0  0  0  0
 29 27  1  0  0  0  0
 31 30  2  0  0  0  0
 31 27  1  0  0  0  0
 32 38  1  0  0  0  0
 32 37  1  0  0  0  0
 33 32  2  0  0  0  0
 34 33  1  0  0  0  0
 34 35  2  0  0  0  0
 35 36  1  0  0  0  0
 36 37  2  0  0  0  0
 36 30  1  0  0  0  0
 39 33  1  0  0  0  0
 40 34  1  0  0  0  0
 40 45  1  0  0  0  0
 41 40  2  0  0  0  0
 42 41  1  0  0  0  0
 42 43  2  0  0  0  0
 43 44  1  0  0  0  0
 44 45  2  0  0  0  0
 44 49  1  0  0  0  0
 45 50  1  0  0  0  0
 46 41  1  0  0  0  0
 47 42  1  0  0  0  0
 48 43  1  0  0  0  0
M  END
>  <minimizedAffinity>
-5.92308187

$$$$
