
 OpenBabel03242516393D

 23 25  0  0  0  0  0  0  0  0999 V2000
   37.4900   30.5580   40.5130 C   0  0  0  0  0  0  0  0  0  0  0  0
   36.2810   30.5090   39.8940 N   0  0  0  0  0  0  0  0  0  0  0  0
   35.3350   29.6130   40.1450 C   0  0  0  0  0  3  0  0  0  0  0  0
   35.5310   28.6580   41.0700 N   0  0  0  0  0  0  0  0  0  0  0  0
   36.7050   28.6010   41.7590 C   0  0  0  0  0  0  0  0  0  0  0  0
   36.9130   27.6250   42.7080 C   0  0  0  0  0  3  0  0  0  0  0  0
   38.0900   27.5600   43.4060 C   0  0  0  0  0  0  0  0  0  0  0  0
   38.1400   26.7620   44.1160 H   0  0  0  0  0  0  0  0  0  0  0  0
   39.0590   28.5220   43.1110 C   0  0  0  0  0  0  0  0  0  0  0  0
   39.9680   28.4410   43.6760 H   0  0  0  0  0  0  0  0  0  0  0  0
   38.7970   29.4720   42.1550 C   0  0  0  0  0  3  0  0  0  0  0  0
   37.6290   29.5690   41.4340 C   0  0  0  0  0  0  0  0  0  0  0  0
   39.8550   32.4340   38.3320 C   0  0  0  0  0  0  0  0  0  0  0  0
   38.9070   31.5560   38.8620 C   0  0  0  0  0  0  0  0  0  0  0  0
   38.4830   31.5640   40.1920 C   0  0  0  0  0  0  0  0  0  0  0  0
   39.1040   32.5250   40.8980 N   0  0  0  0  0  0  0  0  0  0  0  0
   40.0100   33.3810   40.4390 C   0  0  0  0  0  0  0  0  0  0  0  0
   40.3780   33.3290   39.1610 N   0  0  0  0  0  0  0  0  0  0  0  0
   40.2050   32.3310   36.9730 N   0  0  0  0  0  0  0  0  0  0  0  0
   38.5040   30.8410   38.1540 H   0  0  0  0  0  0  0  0  0  0  0  0
   40.3900   34.0800   41.1700 H   0  0  0  0  0  0  0  0  0  0  0  0
   41.2100   32.1800   36.7570 H   0  0  0  0  0  0  0  0  0  0  0  0
   39.5680   32.3910   36.1430 H   0  0  0  0  0  0  0  0  0  0  0  0
  1 12  1  0  0  0  0
  2  3  1  0  0  0  0
  2  1  2  0  0  0  0
  3  4  2  0  0  0  0
  4  5  1  0  0  0  0
  5  6  1  0  0  0  0
  6  7  2  0  0  0  0
  7  8  1  0  0  0  0
  9  7  1  0  0  0  0
  9 10  1  0  0  0  0
 11  9  2  0  0  0  0
 12  5  2  0  0  0  0
 12 11  1  0  0  0  0
 13 14  2  0  0  0  0
 13 18  1  0  0  0  0
 14 15  1  0  0  0  0
 15  1  1  0  0  0  0
 15 16  2  0  0  0  0
 17 16  1  0  0  0  0
 17 21  1  0  0  0  0
 18 17  2  0  0  0  0
 19 13  1  0  0  0  0
 20 14  1  0  0  0  0
 22 19  1  0  0  0  0
 23 19  1  0  0  0  0
M  END
>  <minimizedAffinity>
-5.56682014

$$$$

 OpenBabel03242516393D

 23 25  0  0  0  0  0  0  0  0999 V2000
   38.0060   29.5670   40.1620 C   0  0  0  0  0  0  0  0  0  0  0  0
   37.8040   28.8910   39.0010 N   0  0  0  0  0  0  0  0  0  0  0  0
   37.3340   27.6530   38.9150 C   0  0  0  0  0  3  0  0  0  0  0  0
   37.0160   26.9670   40.0260 N   0  0  0  0  0  0  0  0  0  0  0  0
   37.1740   27.5390   41.2530 C   0  0  0  0  0  0  0  0  0  0  0  0
   36.8510   26.8410   42.3960 C   0  0  0  0  0  3  0  0  0  0  0  0
   37.0070   27.4070   43.6340 C   0  0  0  0  0  0  0  0  0  0  0  0
   36.7240   26.7750   44.4490 H   0  0  0  0  0  0  0  0  0  0  0  0
   37.5040   28.7120   43.6800 C   0  0  0  0  0  0  0  0  0  0  0  0
   37.6140   29.1230   44.6650 H   0  0  0  0  0  0  0  0  0  0  0  0
   37.8100   29.3590   42.5070 C   0  0  0  0  0  3  0  0  0  0  0  0
   37.6680   28.8240   41.2480 C   0  0  0  0  0  0  0  0  0  0  0  0
   37.9030   33.2610   39.7050 C   0  0  0  0  0  0  0  0  0  0  0  0
   37.6200   31.8960   39.7620 C   0  0  0  0  0  0  0  0  0  0  0  0
   38.5240   30.9210   40.1890 C   0  0  0  0  0  0  0  0  0  0  0  0
   39.7020   31.4660   40.5380 N   0  0  0  0  0  0  0  0  0  0  0  0
   40.0170   32.7560   40.5010 C   0  0  0  0  0  0  0  0  0  0  0  0
   39.1160   33.6430   40.0860 N   0  0  0  0  0  0  0  0  0  0  0  0
   36.9100   34.1530   39.2570 N   0  0  0  0  0  0  0  0  0  0  0  0
   36.6190   31.6250   39.4440 H   0  0  0  0  0  0  0  0  0  0  0  0
   41.0210   32.9910   40.8250 H   0  0  0  0  0  0  0  0  0  0  0  0
   37.1510   34.7520   38.4440 H   0  0  0  0  0  0  0  0  0  0  0  0
   35.9480   34.2870   39.6490 H   0  0  0  0  0  0  0  0  0  0  0  0
  1 15  1  0  0  0  0
  1 12  1  0  0  0  0
  2  1  2  0  0  0  0
  3  2  1  0  0  0  0
  3  4  2  0  0  0  0
  4  5  1  0  0  0  0
  5  6  1  0  0  0  0
  6  7  2  0  0  0  0
  7  9  1  0  0  0  0
  7  8  1  0  0  0  0
  9 10  1  0  0  0  0
 11  9  2  0  0  0  0
 12  5  2  0  0  0  0
 12 11  1  0  0  0  0
 13 14  2  0  0  0  0
 13 18  1  0  0  0  0
 14 15  1  0  0  0  0
 15 16  2  0  0  0  0
 17 16  1  0  0  0  0
 17 21  1  0  0  0  0
 18 17  2  0  0  0  0
 19 23  1  0  0  0  0
 19 13  1  0  0  0  0
 20 14  1  0  0  0  0
 22 19  1  0  0  0  0
M  END
>  <minimizedAffinity>
-5.31768847

$$$$

 OpenBabel03242516393D

 23 25  0  0  0  0  0  0  0  0999 V2000
   37.7010   29.5260   39.9800 C   0  0  0  0  0  0  0  0  0  0  0  0
   37.2190   28.8240   38.9220 N   0  0  0  0  0  0  0  0  0  0  0  0
   36.6860   27.6110   38.9950 C   0  0  0  0  0  3  0  0  0  0  0  0
   36.5890   26.9800   40.1780 N   0  0  0  0  0  0  0  0  0  0  0  0
   37.0390   27.5820   41.3150 C   0  0  0  0  0  0  0  0  0  0  0  0
   36.9430   26.9410   42.5290 C   0  0  0  0  0  3  0  0  0  0  0  0
   37.3930   27.5390   43.6780 C   0  0  0  0  0  0  0  0  0  0  0  0
   37.2670   26.9490   44.5620 H   0  0  0  0  0  0  0  0  0  0  0  0
   37.9460   28.8160   43.5570 C   0  0  0  0  0  0  0  0  0  0  0  0
   38.2880   29.2530   44.4760 H   0  0  0  0  0  0  0  0  0  0  0  0
   38.0160   29.4060   42.3190 C   0  0  0  0  0  3  0  0  0  0  0  0
   37.5770   28.8380   41.1450 C   0  0  0  0  0  0  0  0  0  0  0  0
   39.6110   32.2420   38.2950 C   0  0  0  0  0  0  0  0  0  0  0  0
   38.9780   31.0480   38.6450 C   0  0  0  0  0  0  0  0  0  0  0  0
   38.2730   30.8500   39.8340 C   0  0  0  0  0  0  0  0  0  0  0  0
   38.2810   31.9560   40.5980 N   0  0  0  0  0  0  0  0  0  0  0  0
   38.8680   33.1120   40.3070 C   0  0  0  0  0  0  0  0  0  0  0  0
   39.5270   33.2460   39.1590 N   0  0  0  0  0  0  0  0  0  0  0  0
   40.2940   32.3250   37.0670 N   0  0  0  0  0  0  0  0  0  0  0  0
   39.0700   30.2540   37.9140 H   0  0  0  0  0  0  0  0  0  0  0  0
   38.7570   33.8820   41.0570 H   0  0  0  0  0  0  0  0  0  0  0  0
   41.2990   32.5860   37.1060 H   0  0  0  0  0  0  0  0  0  0  0  0
   39.9080   32.1550   36.1080 H   0  0  0  0  0  0  0  0  0  0  0  0
  1 12  1  0  0  0  0
  2  3  1  0  0  0  0
  2  1  2  0  0  0  0
  3  4  2  0  0  0  0
  4  5  1  0  0  0  0
  5  6  1  0  0  0  0
  6  7  2  0  0  0  0
  7  8  1  0  0  0  0
  9  7  1  0  0  0  0
  9 10  1  0  0  0  0
 11  9  2  0  0  0  0
 12  5  2  0  0  0  0
 12 11  1  0  0  0  0
 13 14  2  0  0  0  0
 13 18  1  0  0  0  0
 14 15  1  0  0  0  0
 15  1  1  0  0  0  0
 15 16  2  0  0  0  0
 17 16  1  0  0  0  0
 17 21  1  0  0  0  0
 18 17  2  0  0  0  0
 19 22  1  0  0  0  0
 19 13  1  0  0  0  0
 20 14  1  0  0  0  0
 23 19  1  0  0  0  0
M  END
>  <minimizedAffinity>
-5.19364309

$$$$

 OpenBabel03242516393D

 23 25  0  0  0  0  0  0  0  0999 V2000
   39.5020   32.5370   40.2240 C   0  0  0  0  0  0  0  0  0  0  0  0
   38.3760   33.0600   39.6720 N   0  0  0  0  0  0  0  0  0  0  0  0
   37.1490   32.5930   39.8640 C   0  0  0  0  0  3  0  0  0  0  0  0
   36.9420   31.5260   40.6530 N   0  0  0  0  0  0  0  0  0  0  0  0
   37.9940   30.9120   41.2640 C   0  0  0  0  0  0  0  0  0  0  0  0
   37.7900   29.8170   42.0740 C   0  0  0  0  0  3  0  0  0  0  0  0
   38.8410   29.1930   42.6930 C   0  0  0  0  0  0  0  0  0  0  0  0
   38.5640   28.3550   43.2980 H   0  0  0  0  0  0  0  0  0  0  0  0
   40.1160   29.7160   42.4650 C   0  0  0  0  0  0  0  0  0  0  0  0
   40.9150   29.2030   42.9650 H   0  0  0  0  0  0  0  0  0  0  0  0
   40.2590   30.8100   41.6470 C   0  0  0  0  0  3  0  0  0  0  0  0
   39.2300   31.4620   41.0090 C   0  0  0  0  0  0  0  0  0  0  0  0
   42.2950   33.8770   38.1580 C   0  0  0  0  0  0  0  0  0  0  0  0
   41.0940   33.3440   38.6290 C   0  0  0  0  0  0  0  0  0  0  0  0
   40.8170   33.0940   39.9750 C   0  0  0  0  0  0  0  0  0  0  0  0
   41.8550   33.4320   40.7590 N   0  0  0  0  0  0  0  0  0  0  0  0
   43.0150   33.9410   40.3580 C   0  0  0  0  0  0  0  0  0  0  0  0
   43.2250   34.1600   39.0620 N   0  0  0  0  0  0  0  0  0  0  0  0
   42.4620   34.0860   36.7770 N   0  0  0  0  0  0  0  0  0  0  0  0
   40.3610   33.1270   37.8610 H   0  0  0  0  0  0  0  0  0  0  0  0
   43.7210   34.1460   41.1480 H   0  0  0  0  0  0  0  0  0  0  0  0
   43.2700   33.6150   36.3250 H   0  0  0  0  0  0  0  0  0  0  0  0
   41.8630   34.6650   36.1410 H   0  0  0  0  0  0  0  0  0  0  0  0
  1 12  1  0  0  0  0
  2  3  1  0  0  0  0
  2  1  2  0  0  0  0
  3  4  2  0  0  0  0
  4  5  1  0  0  0  0
  5  6  1  0  0  0  0
  6  7  2  0  0  0  0
  7  8  1  0  0  0  0
  9  7  1  0  0  0  0
  9 10  1  0  0  0  0
 11  9  2  0  0  0  0
 12  5  2  0  0  0  0
 12 11  1  0  0  0  0
 13 14  2  0  0  0  0
 13 18  1  0  0  0  0
 14 15  1  0  0  0  0
 15  1  1  0  0  0  0
 15 16  2  0  0  0  0
 17 16  1  0  0  0  0
 17 21  1  0  0  0  0
 18 17  2  0  0  0  0
 19 13  1  0  0  0  0
 20 14  1  0  0  0  0
 22 19  1  0  0  0  0
 23 19  1  0  0  0  0
M  END
>  <minimizedAffinity>
-5.13777876

$$$$

 OpenBabel03242516393D

 23 25  0  0  0  0  0  0  0  0999 V2000
   38.9710   27.7520   41.8790 C   0  0  0  0  0  0  0  0  0  0  0  0
   39.8740   27.8870   42.8860 N   0  0  0  0  0  0  0  0  0  0  0  0
   40.2790   26.9030   43.6790 C   0  0  0  0  0  3  0  0  0  0  0  0
   39.7950   25.6600   43.5220 N   0  0  0  0  0  0  0  0  0  0  0  0
   38.8820   25.3970   42.5440 C   0  0  0  0  0  0  0  0  0  0  0  0
   38.3820   24.1250   42.3780 C   0  0  0  0  0  3  0  0  0  0  0  0
   37.4640   23.8520   41.3980 C   0  0  0  0  0  0  0  0  0  0  0  0
   37.1470   22.8310   41.3620 H   0  0  0  0  0  0  0  0  0  0  0  0
   37.0650   24.9150   40.5850 C   0  0  0  0  0  0  0  0  0  0  0  0
   36.3450   24.6650   39.8290 H   0  0  0  0  0  0  0  0  0  0  0  0
   37.5970   26.1630   40.7980 C   0  0  0  0  0  3  0  0  0  0  0  0
   38.5190   26.4760   41.7700 C   0  0  0  0  0  0  0  0  0  0  0  0
   36.8340   30.6120   40.8190 C   0  0  0  0  0  0  0  0  0  0  0  0
   37.4050   29.5150   41.4680 C   0  0  0  0  0  0  0  0  0  0  0  0
   38.5690   28.8690   41.0470 C   0  0  0  0  0  0  0  0  0  0  0  0
   39.0690   29.4380   39.9360 N   0  0  0  0  0  0  0  0  0  0  0  0
   38.5630   30.4790   39.2860 C   0  0  0  0  0  0  0  0  0  0  0  0
   37.4510   31.0580   39.7320 N   0  0  0  0  0  0  0  0  0  0  0  0
   35.6570   31.1820   41.3370 N   0  0  0  0  0  0  0  0  0  0  0  0
   36.8720   29.1820   42.3510 H   0  0  0  0  0  0  0  0  0  0  0  0
   39.1180   30.7860   38.4110 H   0  0  0  0  0  0  0  0  0  0  0  0
   34.8380   31.2300   40.6990 H   0  0  0  0  0  0  0  0  0  0  0  0
   35.5030   31.5690   42.2990 H   0  0  0  0  0  0  0  0  0  0  0  0
  1  2  1  0  0  0  0
  2  3  2  0  0  0  0
  4  3  1  0  0  0  0
  5  4  2  0  0  0  0
  6  5  1  0  0  0  0
  7  6  2  0  0  0  0
  8  7  1  0  0  0  0
  9 11  2  0  0  0  0
  9  7  1  0  0  0  0
 10  9  1  0  0  0  0
 11 12  1  0  0  0  0
 12  1  2  0  0  0  0
 12  5  1  0  0  0  0
 13 19  1  0  0  0  0
 13 14  1  0  0  0  0
 14 20  1  0  0  0  0
 15 14  2  0  0  0  0
 15  1  1  0  0  0  0
 16 15  1  0  0  0  0
 17 18  1  0  0  0  0
 17 16  2  0  0  0  0
 18 13  2  0  0  0  0
 19 23  1  0  0  0  0
 21 17  1  0  0  0  0
 22 19  1  0  0  0  0
M  END
>  <minimizedAffinity>
-5.1150012

$$$$

 OpenBabel03242516393D

 23 25  0  0  0  0  0  0  0  0999 V2000
   38.3420   29.8650   41.4650 C   0  0  0  0  0  0  0  0  0  0  0  0
   37.0380   29.4960   41.3740 N   0  0  0  0  0  0  0  0  0  0  0  0
   36.5190   28.4020   41.9150 C   0  0  0  0  0  3  0  0  0  0  0  0
   37.2920   27.5570   42.6180 N   0  0  0  0  0  0  0  0  0  0  0  0
   38.6200   27.8180   42.7800 C   0  0  0  0  0  0  0  0  0  0  0  0
   39.4190   26.9560   43.4980 C   0  0  0  0  0  3  0  0  0  0  0  0
   40.7550   27.2100   43.6660 C   0  0  0  0  0  0  0  0  0  0  0  0
   41.2760   26.4740   44.2420 H   0  0  0  0  0  0  0  0  0  0  0  0
   41.2610   28.3730   43.0810 C   0  0  0  0  0  0  0  0  0  0  0  0
   42.3110   28.5390   43.2320 H   0  0  0  0  0  0  0  0  0  0  0  0
   40.4170   29.1950   42.3750 C   0  0  0  0  0  3  0  0  0  0  0  0
   39.0730   28.9740   42.1840 C   0  0  0  0  0  0  0  0  0  0  0  0
   39.3120   32.1050   38.6520 C   0  0  0  0  0  0  0  0  0  0  0  0
   38.8650   31.0520   39.4530 C   0  0  0  0  0  0  0  0  0  0  0  0
   38.8490   31.0750   40.8490 C   0  0  0  0  0  0  0  0  0  0  0  0
   39.3180   32.2430   41.3230 N   0  0  0  0  0  0  0  0  0  0  0  0
   39.7530   33.2700   40.6030 C   0  0  0  0  0  0  0  0  0  0  0  0
   39.7460   33.1940   39.2740 N   0  0  0  0  0  0  0  0  0  0  0  0
   39.2810   31.9670   37.2520 N   0  0  0  0  0  0  0  0  0  0  0  0
   38.5190   30.1810   38.9070 H   0  0  0  0  0  0  0  0  0  0  0  0
   40.0900   34.1210   41.1770 H   0  0  0  0  0  0  0  0  0  0  0  0
   40.1820   32.0890   36.7490 H   0  0  0  0  0  0  0  0  0  0  0  0
   38.4520   31.7530   36.6480 H   0  0  0  0  0  0  0  0  0  0  0  0
  1 12  1  0  0  0  0
  2  1  2  0  0  0  0
  2  3  1  0  0  0  0
  3  4  2  0  0  0  0
  4  5  1  0  0  0  0
  5  6  1  0  0  0  0
  6  7  2  0  0  0  0
  7  8  1  0  0  0  0
  9 10  1  0  0  0  0
  9  7  1  0  0  0  0
 11  9  2  0  0  0  0
 12 11  1  0  0  0  0
 12  5  2  0  0  0  0
 13 18  2  0  0  0  0
 13 14  1  0  0  0  0
 14 15  2  0  0  0  0
 15 16  1  0  0  0  0
 15  1  1  0  0  0  0
 17 21  1  0  0  0  0
 17 16  2  0  0  0  0
 18 17  1  0  0  0  0
 19 13  1  0  0  0  0
 20 14  1  0  0  0  0
 22 19  1  0  0  0  0
 23 19  1  0  0  0  0
M  END
>  <minimizedAffinity>
-4.97098064

$$$$

 OpenBabel03242516393D

 23 25  0  0  0  0  0  0  0  0999 V2000
   37.5840   29.3750   41.7620 C   0  0  0  0  0  0  0  0  0  0  0  0
   37.6200   29.1510   43.1010 N   0  0  0  0  0  0  0  0  0  0  0  0
   37.4540   27.9680   43.6780 C   0  0  0  0  0  3  0  0  0  0  0  0
   37.2290   26.8730   42.9330 N   0  0  0  0  0  0  0  0  0  0  0  0
   37.1700   26.9680   41.5750 C   0  0  0  0  0  0  0  0  0  0  0  0
   36.9390   25.8500   40.8050 C   0  0  0  0  0  3  0  0  0  0  0  0
   36.8780   25.9360   39.4390 C   0  0  0  0  0  0  0  0  0  0  0  0
   36.6950   25.0050   38.9450 H   0  0  0  0  0  0  0  0  0  0  0  0
   37.0590   27.2000   38.8720 C   0  0  0  0  0  0  0  0  0  0  0  0
   37.0040   27.2300   37.8000 H   0  0  0  0  0  0  0  0  0  0  0  0
   37.2850   28.2800   39.6890 C   0  0  0  0  0  3  0  0  0  0  0  0
   37.3530   28.2330   41.0630 C   0  0  0  0  0  0  0  0  0  0  0  0
   39.4360   32.5050   40.9640 C   0  0  0  0  0  0  0  0  0  0  0  0
   39.0340   31.2480   41.4190 C   0  0  0  0  0  0  0  0  0  0  0  0
   37.7730   30.6940   41.1920 C   0  0  0  0  0  0  0  0  0  0  0  0
   36.9950   31.5270   40.4790 N   0  0  0  0  0  0  0  0  0  0  0  0
   37.3320   32.7290   40.0260 C   0  0  0  0  0  0  0  0  0  0  0  0
   38.5490   33.2080   40.2710 N   0  0  0  0  0  0  0  0  0  0  0  0
   40.7360   32.9600   41.2550 N   0  0  0  0  0  0  0  0  0  0  0  0
   39.7870   30.7060   41.9800 H   0  0  0  0  0  0  0  0  0  0  0  0
   36.5600   33.2410   39.4710 H   0  0  0  0  0  0  0  0  0  0  0  0
   40.8150   33.8610   41.7640 H   0  0  0  0  0  0  0  0  0  0  0  0
   41.6440   32.4950   41.0170 H   0  0  0  0  0  0  0  0  0  0  0  0
  1  2  1  0  0  0  0
  2  3  2  0  0  0  0
  4  3  1  0  0  0  0
  5  4  2  0  0  0  0
  6  5  1  0  0  0  0
  7  6  2  0  0  0  0
  8  7  1  0  0  0  0
  9  7  1  0  0  0  0
  9 11  2  0  0  0  0
 10  9  1  0  0  0  0
 11 12  1  0  0  0  0
 12  5  1  0  0  0  0
 12  1  2  0  0  0  0
 13 19  1  0  0  0  0
 13 14  1  0  0  0  0
 14 20  1  0  0  0  0
 15 14  2  0  0  0  0
 15  1  1  0  0  0  0
 16 15  1  0  0  0  0
 17 18  1  0  0  0  0
 17 16  2  0  0  0  0
 18 13  2  0  0  0  0
 19 22  1  0  0  0  0
 21 17  1  0  0  0  0
 23 19  1  0  0  0  0
M  END
>  <minimizedAffinity>
-4.95502281

$$$$

 OpenBabel03242516393D

 23 25  0  0  0  0  0  0  0  0999 V2000
   37.4730   29.9550   39.8190 C   0  0  0  0  0  0  0  0  0  0  0  0
   38.3400   31.0010   39.7800 N   0  0  0  0  0  0  0  0  0  0  0  0
   39.0920   31.4020   40.7980 C   0  0  0  0  0  3  0  0  0  0  0  0
   39.0340   30.7660   41.9800 N   0  0  0  0  0  0  0  0  0  0  0  0
   38.2000   29.7000   42.1440 C   0  0  0  0  0  0  0  0  0  0  0  0
   38.1350   29.0440   43.3530 C   0  0  0  0  0  3  0  0  0  0  0  0
   37.3010   27.9710   43.5280 C   0  0  0  0  0  0  0  0  0  0  0  0
   37.3330   27.5400   44.5060 H   0  0  0  0  0  0  0  0  0  0  0  0
   36.5270   27.5810   42.4320 C   0  0  0  0  0  0  0  0  0  0  0  0
   35.8850   26.7380   42.6050 H   0  0  0  0  0  0  0  0  0  0  0  0
   36.6330   28.2730   41.2510 C   0  0  0  0  0  3  0  0  0  0  0  0
   37.4580   29.3540   41.0370 C   0  0  0  0  0  0  0  0  0  0  0  0
   36.8680   28.8290   36.3220 C   0  0  0  0  0  0  0  0  0  0  0  0
   37.4230   29.2320   37.5380 C   0  0  0  0  0  0  0  0  0  0  0  0
   36.6790   29.5660   38.6720 C   0  0  0  0  0  0  0  0  0  0  0  0
   35.3590   29.4500   38.4410 N   0  0  0  0  0  0  0  0  0  0  0  0
   34.7860   29.0720   37.3040 C   0  0  0  0  0  0  0  0  0  0  0  0
   35.5440   28.7640   36.2550 N   0  0  0  0  0  0  0  0  0  0  0  0
   37.7190   28.5170   35.2460 N   0  0  0  0  0  0  0  0  0  0  0  0
   38.5060   29.2720   37.5520 H   0  0  0  0  0  0  0  0  0  0  0  0
   33.7060   29.0420   37.3250 H   0  0  0  0  0  0  0  0  0  0  0  0
   37.5780   29.0510   34.3660 H   0  0  0  0  0  0  0  0  0  0  0  0
   38.4860   27.8040   35.2230 H   0  0  0  0  0  0  0  0  0  0  0  0
  1 12  1  0  0  0  0
  2  1  2  0  0  0  0
  2  3  1  0  0  0  0
  3  4  2  0  0  0  0
  4  5  1  0  0  0  0
  5  6  1  0  0  0  0
  6  7  2  0  0  0  0
  7  8  1  0  0  0  0
  9 10  1  0  0  0  0
  9  7  1  0  0  0  0
 11  9  2  0  0  0  0
 12 11  1  0  0  0  0
 12  5  2  0  0  0  0
 13 14  1  0  0  0  0
 14 20  1  0  0  0  0
 14 15  2  0  0  0  0
 15  1  1  0  0  0  0
 16 15  1  0  0  0  0
 17 21  1  0  0  0  0
 17 16  2  0  0  0  0
 18 13  2  0  0  0  0
 18 17  1  0  0  0  0
 19 13  1  0  0  0  0
 22 19  1  0  0  0  0
 23 19  1  0  0  0  0
M  END
>  <minimizedAffinity>
-4.94060421

$$$$

 OpenBabel03242516393D

 23 25  0  0  0  0  0  0  0  0999 V2000
   39.2450   30.1750   41.3850 C   0  0  0  0  0  0  0  0  0  0  0  0
   40.5650   30.2520   41.7000 N   0  0  0  0  0  0  0  0  0  0  0  0
   41.2030   29.4120   42.5060 C   0  0  0  0  0  3  0  0  0  0  0  0
   40.5470   28.3910   43.0820 N   0  0  0  0  0  0  0  0  0  0  0  0
   39.2180   28.2080   42.8440 C   0  0  0  0  0  0  0  0  0  0  0  0
   38.5400   27.1640   43.4320 C   0  0  0  0  0  3  0  0  0  0  0  0
   37.2040   26.9720   43.1990 C   0  0  0  0  0  0  0  0  0  0  0  0
   36.7820   26.1310   43.7070 H   0  0  0  0  0  0  0  0  0  0  0  0
   36.5700   27.8770   42.3440 C   0  0  0  0  0  0  0  0  0  0  0  0
   35.5240   27.6970   42.1850 H   0  0  0  0  0  0  0  0  0  0  0  0
   37.2970   28.9000   41.7870 C   0  0  0  0  0  3  0  0  0  0  0  0
   38.6380   29.1250   41.9970 C   0  0  0  0  0  0  0  0  0  0  0  0
   38.7320   32.0590   38.2140 C   0  0  0  0  0  0  0  0  0  0  0  0
   39.1820   31.2120   39.2280 C   0  0  0  0  0  0  0  0  0  0  0  0
   38.6050   31.1250   40.4970 C   0  0  0  0  0  0  0  0  0  0  0  0
   37.5590   31.9610   40.6160 N   0  0  0  0  0  0  0  0  0  0  0  0
   37.0950   32.7830   39.6820 C   0  0  0  0  0  0  0  0  0  0  0  0
   37.6840   32.8250   38.4890 N   0  0  0  0  0  0  0  0  0  0  0  0
   39.3950   32.0610   36.9730 N   0  0  0  0  0  0  0  0  0  0  0  0
   40.0390   30.6030   38.9640 H   0  0  0  0  0  0  0  0  0  0  0  0
   36.2410   33.3750   39.9770 H   0  0  0  0  0  0  0  0  0  0  0  0
   39.7730   32.9710   36.6440 H   0  0  0  0  0  0  0  0  0  0  0  0
   39.5550   31.2470   36.3320 H   0  0  0  0  0  0  0  0  0  0  0  0
  1  2  2  0  0  0  0
  1 12  1  0  0  0  0
  2  3  1  0  0  0  0
  3  4  2  0  0  0  0
  5  4  1  0  0  0  0
  5  6  1  0  0  0  0
  7  6  2  0  0  0  0
  7  8  1  0  0  0  0
  9  7  1  0  0  0  0
 10  9  1  0  0  0  0
 11 12  1  0  0  0  0
 11  9  2  0  0  0  0
 12  5  2  0  0  0  0
 13 18  2  0  0  0  0
 13 14  1  0  0  0  0
 14 15  2  0  0  0  0
 15 16  1  0  0  0  0
 15  1  1  0  0  0  0
 17 21  1  0  0  0  0
 17 16  2  0  0  0  0
 18 17  1  0  0  0  0
 19 13  1  0  0  0  0
 20 14  1  0  0  0  0
 22 19  1  0  0  0  0
 23 19  1  0  0  0  0
M  END
>  <minimizedAffinity>
-4.87737131

$$$$
