
 OpenBabel03252503483D

 47 51  0  0  1  0  0  0  0  0999 V2000
   37.1530   27.7960   39.3420 C   0  0  0  0  0  0  0  0  0  0  0  0
   37.5060   26.9300   38.7380 H   0  0  0  0  0  0  0  0  0  0  0  0
   36.1820   28.0790   38.8700 H   0  0  0  0  0  0  0  0  0  0  0  0
   37.0010   27.3850   40.7440 C   0  0  0  0  0  0  0  0  0  0  0  0
   36.4910   28.1660   41.7460 C   0  0  0  0  0  0  0  0  0  0  0  0
   36.3810   27.7340   43.0550 C   0  0  0  0  0  0  0  0  0  0  0  0
   36.8100   26.4470   43.3590 C   0  0  0  0  0  0  0  0  0  0  0  0
   37.3280   25.6460   42.3430 C   0  0  0  0  0  0  0  0  0  0  0  0
   37.4280   26.1060   41.0280 C   0  0  0  0  0  0  0  0  0  0  0  0
   36.1860   29.1470   41.4110 H   0  0  0  0  0  0  0  0  0  0  0  0
   35.9610   28.4710   43.7070 H   0  0  0  0  0  0  0  0  0  0  0  0
   36.6940   26.1870   44.3860 H   0  0  0  0  0  0  0  0  0  0  0  0
   37.6100   24.6850   42.7650 H   0  0  0  0  0  0  0  0  0  0  0  0
   37.9520   25.0180   40.2140 C   0  0  0  0  0  0  0  0  0  0  0  0
   39.2900   25.0620   40.0660 N   0  0  0  0  0  0  0  0  0  0  0  0
   39.9920   24.1600   39.3560 C   0  0  0  0  0  3  0  0  0  0  0  0
   39.3230   23.1490   38.7530 N   0  0  0  0  0  0  0  0  0  0  0  0
   37.9810   23.0600   38.8710 C   0  0  0  0  0  0  0  0  0  0  0  0
   37.2500   22.0440   38.2780 C   0  0  0  0  0  3  0  0  0  0  0  0
   35.8730   21.9850   38.4270 C   0  0  0  0  0  0  0  0  0  0  0  0
   35.3740   21.1680   37.9400 H   0  0  0  0  0  0  0  0  0  0  0  0
   35.2240   22.9510   39.1750 C   0  0  0  0  0  0  0  0  0  0  0  0
   34.1460   22.9090   39.2930 H   0  0  0  0  0  0  0  0  0  0  0  0
   35.9000   24.0050   39.8000 C   0  0  0  0  0  3  0  0  0  0  0  0
   37.2550   23.9960   39.6080 C   0  0  0  0  0  0  0  0  0  0  0  0
   37.7540   30.1460   38.8740 C   0  0  0  0  0  0  0  0  0  0  0  0
   38.1350   28.8560   39.2270 C   0  0  0  0  0  0  0  0  0  0  0  0
   39.4930   28.6410   39.4620 C   0  0  0  0  0  0  0  0  0  0  0  0
   40.3860   29.6580   39.3490 N   0  0  0  0  0  0  0  0  0  0  0  0
   39.9800   30.8880   39.0050 C   0  0  0  0  0  0  0  0  0  0  0  0
   38.6640   31.1470   38.7640 N   0  0  0  0  0  0  0  0  0  0  0  0
   36.7230   30.4150   38.6700 H   0  0  0  0  0  0  0  0  0  0  0  0
   39.9500   27.7220   39.7170 H   0  0  0  0  0  0  0  0  0  0  0  0
   41.3720   32.1870   37.4100 C   0  0  2  0  0  0  0  0  0  0  0  0
   40.9760   31.9530   38.8970 C   0  0  1  0  0  0  0  0  0  0  0  0
   40.5620   33.2040   39.2090 O   0  0  0  0  0  0  0  0  0  0  0  0
   41.4860   34.0890   38.7410 C   0  0  0  0  0  0  0  0  0  0  0  0
   42.2920   33.3990   37.6530 C   0  0  2  0  0  0  0  0  0  0  0  0
   41.9320   31.3220   37.0300 H   0  0  0  0  0  0  0  0  0  0  0  0
   41.8660   31.6750   39.4700 H   0  0  0  0  0  0  0  0  0  0  0  0
   42.1370   34.4960   39.5600 H   0  0  0  0  0  0  0  0  0  0  0  0
   40.9670   34.9730   38.3020 H   0  0  0  0  0  0  0  0  0  0  0  0
   43.2540   33.1170   38.0900 H   0  0  0  0  0  0  0  0  0  0  0  0
   40.3110   32.6160   36.7060 O   0  0  0  0  0  0  0  0  0  0  0  0
   40.5670   33.0080   35.8580 H   0  0  0  0  0  0  0  0  0  0  0  0
   42.4810   34.1570   36.5340 O   0  0  0  0  0  0  0  0  0  0  0  0
   42.0460   35.0660   36.6060 H   0  0  0  0  0  0  0  0  0  0  0  0
  1  4  1  0  0  0  0
  2  1  1  0  0  0  0
  3  1  1  0  0  0  0
  4  9  2  0  0  0  0
  4  5  1  0  0  0  0
  5  6  2  0  0  0  0
  6  7  1  0  0  0  0
  6 11  1  0  0  0  0
  7 12  1  0  0  0  0
  8 13  1  0  0  0  0
  8  7  2  0  0  0  0
  9  8  1  0  0  0  0
 10  5  1  0  0  0  0
 14  9  1  0  0  0  0
 15 14  1  0  0  0  0
 16 15  2  0  0  0  0
 17 18  2  0  0  0  0
 17 16  1  0  0  0  0
 18 25  1  0  0  0  0
 19 20  2  0  0  0  0
 19 18  1  0  0  0  0
 20 22  1  0  0  0  0
 21 20  1  0  0  0  0
 22 23  1  0  0  0  0
 22 24  2  0  0  0  0
 25 24  1  0  0  0  0
 25 14  2  0  0  0  0
 26 27  1  0  0  0  0
 27  1  1  0  0  0  0
 27 28  2  0  0  0  0
 28 33  1  0  0  0  0
 29 28  1  0  0  0  0
 30 29  2  0  0  0  0
 31 26  2  0  0  0  0
 31 30  1  0  0  0  0
 32 26  1  0  0  0  0
 34 39  1  6  0  0  0
 34 38  1  0  0  0  0
 34 35  1  0  0  0  0
 35 30  1  0  0  0  0
 35 36  1  0  0  0  0
 35 40  1  1  0  0  0
 37 36  1  0  0  0  0
 37 41  1  0  0  0  0
 38 43  1  1  0  0  0
 38 37  1  0  0  0  0
 42 37  1  0  0  0  0
 44 34  1  0  0  0  0
 45 44  1  0  0  0  0
 46 47  1  0  0  0  0
 46 38  1  0  0  0  0
M  END
>  <minimizedAffinity>
-6.94869423

$$$$

 OpenBabel03252503483D

 47 51  0  0  1  0  0  0  0  0999 V2000
   35.6090   29.6950   40.4350 C   0  0  0  0  0  0  0  0  0  0  0  0
   35.5840   30.7700   40.7240 H   0  0  0  0  0  0  0  0  0  0  0  0
   34.6140   29.3040   40.7550 H   0  0  0  0  0  0  0  0  0  0  0  0
   35.8200   29.5830   38.9860 C   0  0  0  0  0  0  0  0  0  0  0  0
   35.1500   28.7280   38.1530 C   0  0  0  0  0  0  0  0  0  0  0  0
   35.3960   28.6530   36.7940 C   0  0  0  0  0  0  0  0  0  0  0  0
   36.3700   29.4870   36.2580 C   0  0  0  0  0  0  0  0  0  0  0  0
   37.0550   30.3610   37.1000 C   0  0  0  0  0  0  0  0  0  0  0  0
   36.7870   30.4180   38.4700 C   0  0  0  0  0  0  0  0  0  0  0  0
   34.4140   28.1220   38.6630 H   0  0  0  0  0  0  0  0  0  0  0  0
   34.7830   27.9320   36.2950 H   0  0  0  0  0  0  0  0  0  0  0  0
   36.5040   29.3710   35.2070 H   0  0  0  0  0  0  0  0  0  0  0  0
   37.7720   30.9260   36.5090 H   0  0  0  0  0  0  0  0  0  0  0  0
   37.6240   31.4610   39.0450 C   0  0  0  0  0  0  0  0  0  0  0  0
   36.9900   32.6440   39.1690 N   0  0  0  0  0  0  0  0  0  0  0  0
   37.5660   33.7490   39.6750 C   0  0  0  0  0  3  0  0  0  0  0  0
   38.8550   33.6790   40.0830 N   0  0  0  0  0  0  0  0  0  0  0  0
   39.5350   32.5170   39.9790 C   0  0  0  0  0  0  0  0  0  0  0  0
   40.8530   32.3900   40.3870 C   0  0  0  0  0  3  0  0  0  0  0  0
   41.5150   31.1780   40.2680 C   0  0  0  0  0  0  0  0  0  0  0  0
   42.5340   31.1550   40.6050 H   0  0  0  0  0  0  0  0  0  0  0  0
   40.8520   30.0850   39.7380 C   0  0  0  0  0  0  0  0  0  0  0  0
   41.3680   29.1350   39.6430 H   0  0  0  0  0  0  0  0  0  0  0  0
   39.5210   30.1430   39.3070 C   0  0  0  0  0  3  0  0  0  0  0  0
   38.9360   31.3700   39.4550 C   0  0  0  0  0  0  0  0  0  0  0  0
   37.3470   29.7200   42.1900 C   0  0  0  0  0  0  0  0  0  0  0  0
   36.6920   29.0580   41.1570 C   0  0  0  0  0  0  0  0  0  0  0  0
   37.1270   27.7660   40.8590 C   0  0  0  0  0  0  0  0  0  0  0  0
   38.1440   27.1980   41.5590 N   0  0  0  0  0  0  0  0  0  0  0  0
   38.7510   27.8690   42.5470 C   0  0  0  0  0  0  0  0  0  0  0  0
   38.3620   29.1340   42.8740 N   0  0  0  0  0  0  0  0  0  0  0  0
   37.0840   30.7270   42.4980 H   0  0  0  0  0  0  0  0  0  0  0  0
   36.7550   27.1370   40.0950 H   0  0  0  0  0  0  0  0  0  0  0  0
   40.2490   25.8870   42.5770 C   0  0  2  0  0  0  0  0  0  0  0  0
   39.8390   27.2180   43.2740 C   0  0  1  0  0  0  0  0  0  0  0  0
   41.0390   27.8460   43.2590 O   0  0  0  0  0  0  0  0  0  0  0  0
   41.9880   26.9640   43.6800 C   0  0  0  0  0  0  0  0  0  0  0  0
   41.4410   25.5580   43.4940 C   0  0  2  0  0  0  0  0  0  0  0  0
   39.4430   25.1480   42.6770 H   0  0  0  0  0  0  0  0  0  0  0  0
   39.5150   27.0060   44.2980 H   0  0  0  0  0  0  0  0  0  0  0  0
   42.3110   27.1580   44.7370 H   0  0  0  0  0  0  0  0  0  0  0  0
   42.9060   27.0790   43.0580 H   0  0  0  0  0  0  0  0  0  0  0  0
   41.1300   25.1970   44.4780 H   0  0  0  0  0  0  0  0  0  0  0  0
   40.7350   26.1350   41.3480 O   0  0  0  0  0  0  0  0  0  0  0  0
   41.2260   25.3800   40.9900 H   0  0  0  0  0  0  0  0  0  0  0  0
   42.3250   24.6870   42.9260 O   0  0  0  0  0  0  0  0  0  0  0  0
   43.2120   25.1220   42.7130 H   0  0  0  0  0  0  0  0  0  0  0  0
  1  2  1  0  0  0  0
  1  3  1  0  0  0  0
  1 27  1  0  0  0  0
  4  1  1  0  0  0  0
  5 10  1  0  0  0  0
  5  4  2  0  0  0  0
  6  5  1  0  0  0  0
  7  6  2  0  0  0  0
  7  8  1  0  0  0  0
  8  9  2  0  0  0  0
  9  4  1  0  0  0  0
  9 14  1  0  0  0  0
 11  6  1  0  0  0  0
 12  7  1  0  0  0  0
 13  8  1  0  0  0  0
 14 15  2  0  0  0  0
 14 25  1  0  0  0  0
 15 16  1  0  0  0  0
 16 17  2  0  0  0  0
 18 17  1  0  0  0  0
 18 19  1  0  0  0  0
 20 19  2  0  0  0  0
 20 21  1  0  0  0  0
 22 20  1  0  0  0  0
 23 22  1  0  0  0  0
 24 25  1  0  0  0  0
 24 22  2  0  0  0  0
 25 18  2  0  0  0  0
 26 32  1  0  0  0  0
 26 31  1  0  0  0  0
 27 26  2  0  0  0  0
 28 27  1  0  0  0  0
 28 29  2  0  0  0  0
 29 30  1  0  0  0  0
 30 31  2  0  0  0  0
 30 35  1  0  0  0  0
 33 28  1  0  0  0  0
 34 39  1  1  0  0  0
 34 35  1  0  0  0  0
 34 38  1  0  0  0  0
 35 40  1  1  0  0  0
 36 35  1  0  0  0  0
 36 37  1  0  0  0  0
 37 41  1  0  0  0  0
 38 37  1  0  0  0  0
 38 43  1  1  0  0  0
 42 37  1  0  0  0  0
 44 34  1  0  0  0  0
 45 44  1  0  0  0  0
 46 38  1  0  0  0  0
 47 46  1  0  0  0  0
M  END
>  <minimizedAffinity>
-6.82352352

$$$$

 OpenBabel03252503483D

 47 51  0  0  1  0  0  0  0  0999 V2000
   36.9550   27.9840   39.3630 C   0  0  0  0  0  0  0  0  0  0  0  0
   37.2500   27.1460   38.6920 H   0  0  0  0  0  0  0  0  0  0  0  0
   35.9700   28.3200   38.9600 H   0  0  0  0  0  0  0  0  0  0  0  0
   36.8640   27.4950   40.7450 C   0  0  0  0  0  0  0  0  0  0  0  0
   36.6220   28.2730   41.8440 C   0  0  0  0  0  0  0  0  0  0  0  0
   36.5590   27.7640   43.1280 C   0  0  0  0  0  0  0  0  0  0  0  0
   36.7500   26.3980   43.3010 C   0  0  0  0  0  0  0  0  0  0  0  0
   36.9950   25.6000   42.1860 C   0  0  0  0  0  0  0  0  0  0  0  0
   37.0540   26.1390   40.8980 C   0  0  0  0  0  0  0  0  0  0  0  0
   36.4870   29.3200   41.6070 H   0  0  0  0  0  0  0  0  0  0  0  0
   36.3620   28.5110   43.8680 H   0  0  0  0  0  0  0  0  0  0  0  0
   36.6880   26.0810   44.3170 H   0  0  0  0  0  0  0  0  0  0  0  0
   37.1200   24.5700   42.5130 H   0  0  0  0  0  0  0  0  0  0  0  0
   37.2660   25.0420   39.9650 C   0  0  0  0  0  0  0  0  0  0  0  0
   36.1230   24.4430   39.5790 N   0  0  0  0  0  0  0  0  0  0  0  0
   36.0750   23.4080   38.7220 C   0  0  0  0  0  3  0  0  0  0  0  0
   37.2380   22.9340   38.2150 N   0  0  0  0  0  0  0  0  0  0  0  0
   38.4110   23.4990   38.5700 C   0  0  0  0  0  0  0  0  0  0  0  0
   39.6270   23.0560   38.0770 C   0  0  0  0  0  3  0  0  0  0  0  0
   40.8110   23.6660   38.4620 C   0  0  0  0  0  0  0  0  0  0  0  0
   41.7140   23.2690   38.0380 H   0  0  0  0  0  0  0  0  0  0  0  0
   40.7760   24.7280   39.3490 C   0  0  0  0  0  0  0  0  0  0  0  0
   41.7000   25.2080   39.6530 H   0  0  0  0  0  0  0  0  0  0  0  0
   39.5830   25.2270   39.8860 C   0  0  0  0  0  3  0  0  0  0  0  0
   38.4590   24.5740   39.4590 C   0  0  0  0  0  0  0  0  0  0  0  0
   39.3150   28.7120   39.2970 C   0  0  0  0  0  0  0  0  0  0  0  0
   37.9600   29.0230   39.2560 C   0  0  0  0  0  0  0  0  0  0  0  0
   37.6260   30.3700   39.1080 C   0  0  0  0  0  0  0  0  0  0  0  0
   38.5930   31.3180   39.0080 N   0  0  0  0  0  0  0  0  0  0  0  0
   39.8890   30.9770   39.0520 C   0  0  0  0  0  0  0  0  0  0  0  0
   40.2650   29.6760   39.1970 N   0  0  0  0  0  0  0  0  0  0  0  0
   39.6770   27.6960   39.4090 H   0  0  0  0  0  0  0  0  0  0  0  0
   36.6500   30.7770   39.0810 H   0  0  0  0  0  0  0  0  0  0  0  0
   41.3280   32.2230   37.4560 C   0  0  2  0  0  0  0  0  0  0  0  0
   40.8960   32.0310   38.9390 C   0  0  1  0  0  0  0  0  0  0  0  0
   40.4860   33.2930   39.2080 O   0  0  0  0  0  0  0  0  0  0  0  0
   41.4280   34.1580   38.7390 C   0  0  0  0  0  0  0  0  0  0  0  0
   42.2520   33.4330   37.6880 C   0  0  2  0  0  0  0  0  0  0  0  0
   41.8880   31.3440   37.1110 H   0  0  0  0  0  0  0  0  0  0  0  0
   41.7710   31.7610   39.5390 H   0  0  0  0  0  0  0  0  0  0  0  0
   42.0640   34.5810   39.5610 H   0  0  0  0  0  0  0  0  0  0  0  0
   40.9270   35.0340   38.2650 H   0  0  0  0  0  0  0  0  0  0  0  0
   43.2020   33.1550   38.1530 H   0  0  0  0  0  0  0  0  0  0  0  0
   40.2860   32.6420   36.7170 O   0  0  0  0  0  0  0  0  0  0  0  0
   40.5650   33.0090   35.8650 H   0  0  0  0  0  0  0  0  0  0  0  0
   42.4730   34.1600   36.5530 O   0  0  0  0  0  0  0  0  0  0  0  0
   42.0440   35.0740   36.5920 H   0  0  0  0  0  0  0  0  0  0  0  0
  1  4  1  0  0  0  0
  2  1  1  0  0  0  0
  3  1  1  0  0  0  0
  4  9  2  0  0  0  0
  4  5  1  0  0  0  0
  5  6  2  0  0  0  0
  6  7  1  0  0  0  0
  6 11  1  0  0  0  0
  7 12  1  0  0  0  0
  8 13  1  0  0  0  0
  8  7  2  0  0  0  0
  9  8  1  0  0  0  0
 10  5  1  0  0  0  0
 14  9  1  0  0  0  0
 15 14  1  0  0  0  0
 16 15  2  0  0  0  0
 17 18  2  0  0  0  0
 17 16  1  0  0  0  0
 18 25  1  0  0  0  0
 19 20  2  0  0  0  0
 19 18  1  0  0  0  0
 20 22  1  0  0  0  0
 21 20  1  0  0  0  0
 22 23  1  0  0  0  0
 22 24  2  0  0  0  0
 25 24  1  0  0  0  0
 25 14  2  0  0  0  0
 26 32  1  0  0  0  0
 27 26  1  0  0  0  0
 27  1  1  0  0  0  0
 28 27  2  0  0  0  0
 29 30  2  0  0  0  0
 29 28  1  0  0  0  0
 30 31  1  0  0  0  0
 31 26  2  0  0  0  0
 33 28  1  0  0  0  0
 34 39  1  6  0  0  0
 34 38  1  0  0  0  0
 34 35  1  0  0  0  0
 35 30  1  0  0  0  0
 35 36  1  0  0  0  0
 35 40  1  1  0  0  0
 37 36  1  0  0  0  0
 37 41  1  0  0  0  0
 38 43  1  1  0  0  0
 38 37  1  0  0  0  0
 42 37  1  0  0  0  0
 44 34  1  0  0  0  0
 45 44  1  0  0  0  0
 46 47  1  0  0  0  0
 46 38  1  0  0  0  0
M  END
>  <minimizedAffinity>
-6.76425743

$$$$

 OpenBabel03252503483D

 47 51  0  0  1  0  0  0  0  0999 V2000
   36.6290   30.6080   40.9930 C   0  0  0  0  0  0  0  0  0  0  0  0
   35.8480   30.6960   40.2040 H   0  0  0  0  0  0  0  0  0  0  0  0
   36.2420   31.2360   41.8300 H   0  0  0  0  0  0  0  0  0  0  0  0
   36.7850   29.1970   41.3700 C   0  0  0  0  0  0  0  0  0  0  0  0
   36.8790   28.7270   42.6520 C   0  0  0  0  0  0  0  0  0  0  0  0
   37.0380   27.3860   42.9530 C   0  0  0  0  0  0  0  0  0  0  0  0
   37.1060   26.4820   41.8990 C   0  0  0  0  0  0  0  0  0  0  0  0
   37.0090   26.9540   40.5920 C   0  0  0  0  0  0  0  0  0  0  0  0
   36.8480   28.3130   40.3140 C   0  0  0  0  0  0  0  0  0  0  0  0
   36.8160   29.5060   43.3990 H   0  0  0  0  0  0  0  0  0  0  0  0
   37.0940   27.1960   44.0040 H   0  0  0  0  0  0  0  0  0  0  0  0
   37.2300   25.4700   42.2100 H   0  0  0  0  0  0  0  0  0  0  0  0
   37.0840   26.1110   39.9100 H   0  0  0  0  0  0  0  0  0  0  0  0
   36.7260   28.4620   38.8710 C   0  0  0  0  0  0  0  0  0  0  0  0
   37.9050   28.3730   38.2260 N   0  0  0  0  0  0  0  0  0  0  0  0
   38.0350   28.4800   36.8910 C   0  0  0  0  0  3  0  0  0  0  0  0
   36.9230   28.6890   36.1470 N   0  0  0  0  0  0  0  0  0  0  0  0
   35.7170   28.7860   36.7460 C   0  0  0  0  0  0  0  0  0  0  0  0
   34.5490   28.9950   36.0310 C   0  0  0  0  0  3  0  0  0  0  0  0
   33.3290   29.0840   36.6830 C   0  0  0  0  0  0  0  0  0  0  0  0
   32.4670   29.2460   36.0630 H   0  0  0  0  0  0  0  0  0  0  0  0
   33.2780   28.9620   38.0600 C   0  0  0  0  0  0  0  0  0  0  0  0
   32.3250   29.0320   38.5740 H   0  0  0  0  0  0  0  0  0  0  0  0
   34.4190   28.7500   38.8440 C   0  0  0  0  0  3  0  0  0  0  0  0
   35.5840   28.6740   38.1310 C   0  0  0  0  0  0  0  0  0  0  0  0
   37.9050   31.7640   39.2210 C   0  0  0  0  0  0  0  0  0  0  0  0
   37.8700   31.1320   40.4600 C   0  0  0  0  0  0  0  0  0  0  0  0
   39.0780   31.0330   41.1510 C   0  0  0  0  0  0  0  0  0  0  0  0
   40.2230   31.5390   40.6230 N   0  0  0  0  0  0  0  0  0  0  0  0
   40.2150   32.1400   39.4260 C   0  0  0  0  0  0  0  0  0  0  0  0
   39.0610   32.2600   38.7120 N   0  0  0  0  0  0  0  0  0  0  0  0
   37.0200   31.8910   38.6060 H   0  0  0  0  0  0  0  0  0  0  0  0
   39.2300   30.5670   42.0890 H   0  0  0  0  0  0  0  0  0  0  0  0
   42.1540   31.6360   37.9560 C   0  0  2  0  0  0  0  0  0  0  0  0
   41.4710   32.6710   38.8980 C   0  0  1  0  0  0  0  0  0  0  0  0
   41.3740   33.7120   38.0380 O   0  0  0  0  0  0  0  0  0  0  0  0
   42.5710   33.8540   37.4020 C   0  0  0  0  0  0  0  0  0  0  0  0
   43.3200   32.5370   37.5080 C   0  0  2  0  0  0  0  0  0  0  0  0
   42.5060   30.7740   38.5380 H   0  0  0  0  0  0  0  0  0  0  0  0
   42.1440   32.9040   39.7290 H   0  0  0  0  0  0  0  0  0  0  0  0
   43.1670   34.7160   37.8050 H   0  0  0  0  0  0  0  0  0  0  0  0
   42.3960   34.0860   36.3260 H   0  0  0  0  0  0  0  0  0  0  0  0
   44.0830   32.6570   38.2830 H   0  0  0  0  0  0  0  0  0  0  0  0
   41.3820   31.4030   36.8810 O   0  0  0  0  0  0  0  0  0  0  0  0
   41.8720   30.9720   36.1640 H   0  0  0  0  0  0  0  0  0  0  0  0
   43.8920   32.1250   36.3390 O   0  0  0  0  0  0  0  0  0  0  0  0
   43.7200   32.7680   35.5780 H   0  0  0  0  0  0  0  0  0  0  0  0
  1  4  1  0  0  0  0
  1  3  1  0  0  0  0
  2  1  1  0  0  0  0
  4  5  1  0  0  0  0
  5  6  2  0  0  0  0
  5 10  1  0  0  0  0
  6 11  1  0  0  0  0
  7 12  1  0  0  0  0
  7  6  1  0  0  0  0
  8  7  2  0  0  0  0
  9  8  1  0  0  0  0
  9  4  2  0  0  0  0
 13  8  1  0  0  0  0
 14  9  1  0  0  0  0
 15 14  1  0  0  0  0
 16 15  2  0  0  0  0
 17 18  2  0  0  0  0
 17 16  1  0  0  0  0
 18 25  1  0  0  0  0
 19 20  2  0  0  0  0
 19 18  1  0  0  0  0
 20 22  1  0  0  0  0
 21 20  1  0  0  0  0
 22 23  1  0  0  0  0
 22 24  2  0  0  0  0
 25 24  1  0  0  0  0
 25 14  2  0  0  0  0
 26 27  1  0  0  0  0
 27  1  1  0  0  0  0
 27 28  2  0  0  0  0
 28 33  1  0  0  0  0
 29 28  1  0  0  0  0
 30 29  2  0  0  0  0
 31 26  2  0  0  0  0
 31 30  1  0  0  0  0
 32 26  1  0  0  0  0
 34 39  1  1  0  0  0
 34 35  1  0  0  0  0
 35 30  1  0  0  0  0
 35 40  1  1  0  0  0
 36 35  1  0  0  0  0
 37 38  1  0  0  0  0
 37 41  1  0  0  0  0
 37 36  1  0  0  0  0
 38 34  1  0  0  0  0
 38 43  1  1  0  0  0
 42 37  1  0  0  0  0
 44 34  1  0  0  0  0
 45 44  1  0  0  0  0
 46 38  1  0  0  0  0
 47 46  1  0  0  0  0
M  END
>  <minimizedAffinity>
-6.71607876

$$$$

 OpenBabel03252503483D

 47 51  0  0  1  0  0  0  0  0999 V2000
   37.1250   31.2430   39.9010 C   0  0  0  0  0  0  0  0  0  0  0  0
   36.5030   32.1050   39.5680 H   0  0  0  0  0  0  0  0  0  0  0  0
   36.8840   31.1360   40.9850 H   0  0  0  0  0  0  0  0  0  0  0  0
   36.7640   30.0510   39.1210 C   0  0  0  0  0  0  0  0  0  0  0  0
   36.2690   30.0610   37.8460 C   0  0  0  0  0  0  0  0  0  0  0  0
   35.9320   28.9090   37.1590 C   0  0  0  0  0  0  0  0  0  0  0  0
   36.1090   27.6880   37.8020 C   0  0  0  0  0  0  0  0  0  0  0  0
   36.6140   27.6710   39.1000 C   0  0  0  0  0  0  0  0  0  0  0  0
   36.9470   28.8500   39.7720 C   0  0  0  0  0  0  0  0  0  0  0  0
   36.1680   31.0550   37.4330 H   0  0  0  0  0  0  0  0  0  0  0  0
   35.5600   29.0990   36.1750 H   0  0  0  0  0  0  0  0  0  0  0  0
   35.8270   26.8470   37.2110 H   0  0  0  0  0  0  0  0  0  0  0  0
   36.6800   26.6390   39.4360 H   0  0  0  0  0  0  0  0  0  0  0  0
   37.4940   28.4830   41.0700 C   0  0  0  0  0  0  0  0  0  0  0  0
   36.5500   28.3280   42.0190 N   0  0  0  0  0  0  0  0  0  0  0  0
   36.8210   27.9910   43.2930 C   0  0  0  0  0  3  0  0  0  0  0  0
   38.1130   27.7950   43.6500 N   0  0  0  0  0  0  0  0  0  0  0  0
   39.0960   27.9390   42.7360 C   0  0  0  0  0  0  0  0  0  0  0  0
   40.4320   27.7460   43.0470 C   0  0  0  0  0  3  0  0  0  0  0  0
   41.4120   27.8980   42.0790 C   0  0  0  0  0  0  0  0  0  0  0  0
   42.4250   27.7320   42.3940 H   0  0  0  0  0  0  0  0  0  0  0  0
   41.0520   28.2470   40.7890 C   0  0  0  0  0  0  0  0  0  0  0  0
   41.8160   28.3670   40.0290 H   0  0  0  0  0  0  0  0  0  0  0  0
   39.7220   28.4560   40.4060 C   0  0  0  0  0  3  0  0  0  0  0  0
   38.8130   28.2880   41.4150 C   0  0  0  0  0  0  0  0  0  0  0  0
   39.0850   31.5260   38.4240 C   0  0  0  0  0  0  0  0  0  0  0  0
   38.5180   31.5840   39.6920 C   0  0  0  0  0  0  0  0  0  0  0  0
   39.3510   31.9850   40.7380 C   0  0  0  0  0  0  0  0  0  0  0  0
   40.6510   32.3010   40.5060 N   0  0  0  0  0  0  0  0  0  0  0  0
   41.1610   32.2320   39.2690 C   0  0  0  0  0  0  0  0  0  0  0  0
   40.3880   31.8450   38.2160 N   0  0  0  0  0  0  0  0  0  0  0  0
   38.5220   31.2260   37.5460 H   0  0  0  0  0  0  0  0  0  0  0  0
   39.0860   32.0610   41.7590 H   0  0  0  0  0  0  0  0  0  0  0  0
   42.9100   32.6250   37.5490 C   0  0  2  0  0  0  0  0  0  0  0  0
   42.5650   32.5830   39.0660 C   0  0  1  0  0  0  0  0  0  0  0  0
   42.9290   33.8430   39.4040 O   0  0  0  0  0  0  0  0  0  0  0  0
   44.1480   34.0990   38.8510 C   0  0  0  0  0  0  0  0  0  0  0  0
   44.3580   33.1270   37.7020 C   0  0  2  0  0  0  0  0  0  0  0  0
   42.8730   31.6110   37.1280 H   0  0  0  0  0  0  0  0  0  0  0  0
   43.1990   31.8410   39.5620 H   0  0  0  0  0  0  0  0  0  0  0  0
   44.9760   34.0500   39.6070 H   0  0  0  0  0  0  0  0  0  0  0  0
   44.1660   35.1400   38.4520 H   0  0  0  0  0  0  0  0  0  0  0  0
   45.0390   32.3470   38.0550 H   0  0  0  0  0  0  0  0  0  0  0  0
   42.2050   33.5930   36.9370 O   0  0  0  0  0  0  0  0  0  0  0  0
   42.5690   33.8160   36.0670 H   0  0  0  0  0  0  0  0  0  0  0  0
   44.8440   33.7040   36.5650 O   0  0  0  0  0  0  0  0  0  0  0  0
   44.9850   34.6990   36.6680 H   0  0  0  0  0  0  0  0  0  0  0  0
  1  3  1  0  0  0  0
  2  1  1  0  0  0  0
  4  9  1  0  0  0  0
  4  1  1  0  0  0  0
  5  4  2  0  0  0  0
  6  7  2  0  0  0  0
  6  5  1  0  0  0  0
  7  8  1  0  0  0  0
  8 13  1  0  0  0  0
  8  9  2  0  0  0  0
  9 14  1  0  0  0  0
 10  5  1  0  0  0  0
 11  6  1  0  0  0  0
 12  7  1  0  0  0  0
 14 25  2  0  0  0  0
 14 15  1  0  0  0  0
 15 16  2  0  0  0  0
 16 17  1  0  0  0  0
 18 19  1  0  0  0  0
 18 17  2  0  0  0  0
 20 21  1  0  0  0  0
 20 19  2  0  0  0  0
 22 20  1  0  0  0  0
 23 22  1  0  0  0  0
 24 22  2  0  0  0  0
 24 25  1  0  0  0  0
 25 18  1  0  0  0  0
 26 27  1  0  0  0  0
 27  1  1  0  0  0  0
 27 28  2  0  0  0  0
 28 33  1  0  0  0  0
 29 28  1  0  0  0  0
 30 29  2  0  0  0  0
 31 26  2  0  0  0  0
 31 30  1  0  0  0  0
 32 26  1  0  0  0  0
 34 39  1  6  0  0  0
 34 38  1  0  0  0  0
 34 35  1  0  0  0  0
 35 30  1  0  0  0  0
 35 36  1  0  0  0  0
 35 40  1  1  0  0  0
 37 36  1  0  0  0  0
 37 41  1  0  0  0  0
 38 43  1  1  0  0  0
 38 37  1  0  0  0  0
 42 37  1  0  0  0  0
 44 34  1  0  0  0  0
 45 44  1  0  0  0  0
 46 47  1  0  0  0  0
 46 38  1  0  0  0  0
M  END
>  <minimizedAffinity>
-6.53323174

$$$$

 OpenBabel03252503483D

 47 51  0  0  1  0  0  0  0  0999 V2000
   37.2470   28.7680   41.2010 C   0  0  0  0  0  0  0  0  0  0  0  0
   36.8210   29.2050   42.1330 H   0  0  0  0  0  0  0  0  0  0  0  0
   37.6330   27.7710   41.5200 H   0  0  0  0  0  0  0  0  0  0  0  0
   36.1930   28.6660   40.1830 C   0  0  0  0  0  0  0  0  0  0  0  0
   35.0780   29.4590   40.1170 C   0  0  0  0  0  0  0  0  0  0  0  0
   34.1080   29.3130   39.1430 C   0  0  0  0  0  0  0  0  0  0  0  0
   34.2780   28.3140   38.1920 C   0  0  0  0  0  0  0  0  0  0  0  0
   35.4110   27.5050   38.2530 C   0  0  0  0  0  0  0  0  0  0  0  0
   36.3780   27.6730   39.2470 C   0  0  0  0  0  0  0  0  0  0  0  0
   35.0360   30.2040   40.8990 H   0  0  0  0  0  0  0  0  0  0  0  0
   33.3060   30.0150   39.2410 H   0  0  0  0  0  0  0  0  0  0  0  0
   33.4900   28.2630   37.4770 H   0  0  0  0  0  0  0  0  0  0  0  0
   35.3720   26.7870   37.4380 H   0  0  0  0  0  0  0  0  0  0  0  0
   37.4470   26.7170   38.9950 C   0  0  0  0  0  0  0  0  0  0  0  0
   38.2500   27.0740   37.9740 N   0  0  0  0  0  0  0  0  0  0  0  0
   39.3020   26.3440   37.5620 C   0  0  0  0  0  3  0  0  0  0  0  0
   39.5760   25.1830   38.2040 N   0  0  0  0  0  0  0  0  0  0  0  0
   38.8010   24.7810   39.2330 C   0  0  0  0  0  0  0  0  0  0  0  0
   39.0410   23.6060   39.9260 C   0  0  0  0  0  3  0  0  0  0  0  0
   38.2250   23.2290   40.9810 C   0  0  0  0  0  0  0  0  0  0  0  0
   38.4720   22.3060   41.4710 H   0  0  0  0  0  0  0  0  0  0  0  0
   37.1610   24.0350   41.3460 C   0  0  0  0  0  0  0  0  0  0  0  0
   36.5190   23.7440   42.1710 H   0  0  0  0  0  0  0  0  0  0  0  0
   36.8620   25.2360   40.6890 C   0  0  0  0  0  3  0  0  0  0  0  0
   37.7100   25.5390   39.6600 C   0  0  0  0  0  0  0  0  0  0  0  0
   39.5890   29.1320   40.5060 C   0  0  0  0  0  0  0  0  0  0  0  0
   38.3140   29.6350   40.7430 C   0  0  0  0  0  0  0  0  0  0  0  0
   38.1210   30.9980   40.5190 C   0  0  0  0  0  0  0  0  0  0  0  0
   39.1430   31.7820   40.0860 N   0  0  0  0  0  0  0  0  0  0  0  0
   40.3580   31.2600   39.8690 C   0  0  0  0  0  0  0  0  0  0  0  0
   40.5960   29.9340   40.0750 N   0  0  0  0  0  0  0  0  0  0  0  0
   39.8410   28.0870   40.6500 H   0  0  0  0  0  0  0  0  0  0  0  0
   37.2250   31.5400   40.6710 H   0  0  0  0  0  0  0  0  0  0  0  0
   41.3700   32.3040   37.8550 C   0  0  2  0  0  0  0  0  0  0  0  0
   41.4270   32.1400   39.4020 C   0  0  1  0  0  0  0  0  0  0  0  0
   41.3390   33.4430   39.7590 O   0  0  0  0  0  0  0  0  0  0  0  0
   42.2000   34.1590   38.9830 C   0  0  0  0  0  0  0  0  0  0  0  0
   42.5020   33.3420   37.7370 C   0  0  2  0  0  0  0  0  0  0  0  0
   41.6350   31.3570   37.3670 H   0  0  0  0  0  0  0  0  0  0  0  0
   42.3960   31.7160   39.6860 H   0  0  0  0  0  0  0  0  0  0  0  0
   43.1320   34.4490   39.5370 H   0  0  0  0  0  0  0  0  0  0  0  0
   41.7190   35.1180   38.6790 H   0  0  0  0  0  0  0  0  0  0  0  0
   43.4940   32.9020   37.8690 H   0  0  0  0  0  0  0  0  0  0  0  0
   40.2250   32.9070   37.4920 O   0  0  0  0  0  0  0  0  0  0  0  0
   40.2620   33.2500   36.5860 H   0  0  0  0  0  0  0  0  0  0  0  0
   42.4500   34.0570   36.5760 O   0  0  0  0  0  0  0  0  0  0  0  0
   42.2120   35.0270   36.7310 H   0  0  0  0  0  0  0  0  0  0  0  0
  1  3  1  0  0  0  0
  1  2  1  0  0  0  0
  4  1  1  0  0  0  0
  5  4  1  0  0  0  0
  5 10  1  0  0  0  0
  6 11  1  0  0  0  0
  6  5  2  0  0  0  0
  7  8  2  0  0  0  0
  7  6  1  0  0  0  0
  8  9  1  0  0  0  0
  9  4  2  0  0  0  0
 12  7  1  0  0  0  0
 13  8  1  0  0  0  0
 14  9  1  0  0  0  0
 14 25  1  0  0  0  0
 15 14  2  0  0  0  0
 16 15  1  0  0  0  0
 16 17  2  0  0  0  0
 17 18  1  0  0  0  0
 18 25  2  0  0  0  0
 18 19  1  0  0  0  0
 19 20  2  0  0  0  0
 20 22  1  0  0  0  0
 20 21  1  0  0  0  0
 22 23  1  0  0  0  0
 24 22  2  0  0  0  0
 25 24  1  0  0  0  0
 26 32  1  0  0  0  0
 26 27  1  0  0  0  0
 27  1  1  0  0  0  0
 28 33  1  0  0  0  0
 28 27  2  0  0  0  0
 29 28  1  0  0  0  0
 30 31  1  0  0  0  0
 30 29  2  0  0  0  0
 31 26  2  0  0  0  0
 34 39  1  6  0  0  0
 34 35  1  0  0  0  0
 35 40  1  1  0  0  0
 35 36  1  0  0  0  0
 35 30  1  0  0  0  0
 37 41  1  0  0  0  0
 37 36  1  0  0  0  0
 38 34  1  0  0  0  0
 38 43  1  1  0  0  0
 38 37  1  0  0  0  0
 42 37  1  0  0  0  0
 44 34  1  0  0  0  0
 45 44  1  0  0  0  0
 46 47  1  0  0  0  0
 46 38  1  0  0  0  0
M  END
>  <minimizedAffinity>
-6.51933002

$$$$

 OpenBabel03252503483D

 47 51  0  0  1  0  0  0  0  0999 V2000
   35.6030   30.0000   39.4940 C   0  0  0  0  0  0  0  0  0  0  0  0
   34.7780   30.7420   39.3970 H   0  0  0  0  0  0  0  0  0  0  0  0
   35.6730   29.8120   40.5920 H   0  0  0  0  0  0  0  0  0  0  0  0
   35.2640   28.7900   38.7340 C   0  0  0  0  0  0  0  0  0  0  0  0
   34.1710   28.6470   37.9210 C   0  0  0  0  0  0  0  0  0  0  0  0
   33.8900   27.4790   37.2360 C   0  0  0  0  0  0  0  0  0  0  0  0
   34.7600   26.4060   37.3860 C   0  0  0  0  0  0  0  0  0  0  0  0
   35.8750   26.5450   38.2100 C   0  0  0  0  0  0  0  0  0  0  0  0
   36.1380   27.7360   38.8910 C   0  0  0  0  0  0  0  0  0  0  0  0
   33.5570   29.5350   37.8710 H   0  0  0  0  0  0  0  0  0  0  0  0
   32.9980   27.5420   36.6480 H   0  0  0  0  0  0  0  0  0  0  0  0
   34.4770   25.5420   36.8290 H   0  0  0  0  0  0  0  0  0  0  0  0
   36.4320   25.6110   38.2050 H   0  0  0  0  0  0  0  0  0  0  0  0
   37.3920   27.5700   39.6110 C   0  0  0  0  0  0  0  0  0  0  0  0
   38.4600   27.4520   38.7970 N   0  0  0  0  0  0  0  0  0  0  0  0
   39.7200   27.2900   39.2400 C   0  0  0  0  0  3  0  0  0  0  0  0
   39.9360   27.2420   40.5760 N   0  0  0  0  0  0  0  0  0  0  0  0
   38.9000   27.3550   41.4330 C   0  0  0  0  0  0  0  0  0  0  0  0
   39.0670   27.3160   42.8070 C   0  0  0  0  0  3  0  0  0  0  0  0
   37.9770   27.4410   43.6550 C   0  0  0  0  0  0  0  0  0  0  0  0
   38.1830   27.4030   44.7080 H   0  0  0  0  0  0  0  0  0  0  0  0
   36.7100   27.6060   43.1220 C   0  0  0  0  0  0  0  0  0  0  0  0
   35.8550   27.7030   43.7830 H   0  0  0  0  0  0  0  0  0  0  0  0
   36.4700   27.6540   41.7440 C   0  0  0  0  0  3  0  0  0  0  0  0
   37.5930   27.5230   40.9730 C   0  0  0  0  0  0  0  0  0  0  0  0
   37.1020   30.5690   37.6150 C   0  0  0  0  0  0  0  0  0  0  0  0
   36.8150   30.6030   38.9750 C   0  0  0  0  0  0  0  0  0  0  0  0
   37.7420   31.2400   39.8000 C   0  0  0  0  0  0  0  0  0  0  0  0
   38.8660   31.7980   39.2800 N   0  0  0  0  0  0  0  0  0  0  0  0
   39.1080   31.7440   37.9640 C   0  0  0  0  0  0  0  0  0  0  0  0
   38.2330   31.1320   37.1170 N   0  0  0  0  0  0  0  0  0  0  0  0
   36.4460   30.0980   36.8910 H   0  0  0  0  0  0  0  0  0  0  0  0
   37.6870   31.3340   40.8530 H   0  0  0  0  0  0  0  0  0  0  0  0
   41.0580   33.1600   38.5660 C   0  0  2  0  0  0  0  0  0  0  0  0
   40.3290   32.3590   37.4480 C   0  0  1  0  0  0  0  0  0  0  0  0
   41.3310   31.5180   37.0990 O   0  0  0  0  0  0  0  0  0  0  0  0
   42.4750   32.2460   36.9670 C   0  0  0  0  0  0  0  0  0  0  0  0
   42.3000   33.5430   37.7400 C   0  0  2  0  0  0  0  0  0  0  0  0
   40.4660   34.0430   38.8420 H   0  0  0  0  0  0  0  0  0  0  0  0
   40.0750   33.0350   36.6250 H   0  0  0  0  0  0  0  0  0  0  0  0
   42.7440   32.4240   35.8920 H   0  0  0  0  0  0  0  0  0  0  0  0
   43.3310   31.6790   37.4020 H   0  0  0  0  0  0  0  0  0  0  0  0
   42.0950   34.3320   37.0100 H   0  0  0  0  0  0  0  0  0  0  0  0
   41.4590   32.3330   39.5470 O   0  0  0  0  0  0  0  0  0  0  0  0
   42.1230   32.7420   40.1230 H   0  0  0  0  0  0  0  0  0  0  0  0
   43.3720   33.8790   38.5150 O   0  0  0  0  0  0  0  0  0  0  0  0
   44.1190   33.2010   38.4540 H   0  0  0  0  0  0  0  0  0  0  0  0
  1  3  1  0  0  0  0
  2  1  1  0  0  0  0
  4  9  1  0  0  0  0
  4  1  1  0  0  0  0
  5  4  2  0  0  0  0
  6  7  2  0  0  0  0
  6  5  1  0  0  0  0
  7  8  1  0  0  0  0
  8  9  2  0  0  0  0
  9 14  1  0  0  0  0
 10  5  1  0  0  0  0
 11  6  1  0  0  0  0
 12  7  1  0  0  0  0
 13  8  1  0  0  0  0
 14 25  1  0  0  0  0
 15 16  1  0  0  0  0
 15 14  2  0  0  0  0
 16 17  2  0  0  0  0
 17 18  1  0  0  0  0
 18 19  1  0  0  0  0
 19 20  2  0  0  0  0
 20 21  1  0  0  0  0
 22 20  1  0  0  0  0
 22 23  1  0  0  0  0
 24 22  2  0  0  0  0
 25 18  2  0  0  0  0
 25 24  1  0  0  0  0
 26 27  1  0  0  0  0
 27  1  1  0  0  0  0
 27 28  2  0  0  0  0
 28 33  1  0  0  0  0
 29 28  1  0  0  0  0
 30 29  2  0  0  0  0
 31 26  2  0  0  0  0
 31 30  1  0  0  0  0
 32 26  1  0  0  0  0
 34 39  1  1  0  0  0
 34 44  1  0  0  0  0
 35 40  1  6  0  0  0
 35 30  1  0  0  0  0
 35 34  1  0  0  0  0
 36 35  1  0  0  0  0
 37 36  1  0  0  0  0
 37 42  1  0  0  0  0
 37 38  1  0  0  0  0
 38 43  1  6  0  0  0
 38 46  1  0  0  0  0
 38 34  1  0  0  0  0
 41 37  1  0  0  0  0
 44 45  1  0  0  0  0
 47 46  1  0  0  0  0
M  END
>  <minimizedAffinity>
-6.47270203

$$$$

 OpenBabel03252503483D

 47 51  0  0  1  0  0  0  0  0999 V2000
   35.3260   29.7300   39.8600 C   0  0  0  0  0  0  0  0  0  0  0  0
   34.4350   30.2180   39.4020 H   0  0  0  0  0  0  0  0  0  0  0  0
   35.0570   29.6290   40.9380 H   0  0  0  0  0  0  0  0  0  0  0  0
   35.5600   28.4330   39.2110 C   0  0  0  0  0  0  0  0  0  0  0  0
   35.0310   28.0430   38.0110 C   0  0  0  0  0  0  0  0  0  0  0  0
   35.2730   26.8030   37.4490 C   0  0  0  0  0  0  0  0  0  0  0  0
   36.0910   25.9180   38.1420 C   0  0  0  0  0  0  0  0  0  0  0  0
   36.6330   26.3090   39.3640 C   0  0  0  0  0  0  0  0  0  0  0  0
   36.3740   27.5690   39.9100 C   0  0  0  0  0  0  0  0  0  0  0  0
   34.4100   28.7990   37.5500 H   0  0  0  0  0  0  0  0  0  0  0  0
   34.7820   26.6640   36.5090 H   0  0  0  0  0  0  0  0  0  0  0  0
   36.2290   24.9840   37.6480 H   0  0  0  0  0  0  0  0  0  0  0  0
   37.2370   25.4940   39.7560 H   0  0  0  0  0  0  0  0  0  0  0  0
   37.1280   27.6800   41.1510 C   0  0  0  0  0  0  0  0  0  0  0  0
   36.3940   27.4010   42.2460 N   0  0  0  0  0  0  0  0  0  0  0  0
   36.8800   27.4400   43.4990 C   0  0  0  0  0  3  0  0  0  0  0  0
   38.1790   27.7770   43.6800 N   0  0  0  0  0  0  0  0  0  0  0  0
   38.9570   28.0660   42.6150 C   0  0  0  0  0  0  0  0  0  0  0  0
   40.2920   28.4120   42.7440 C   0  0  0  0  0  3  0  0  0  0  0  0
   41.0590   28.6970   41.6250 C   0  0  0  0  0  0  0  0  0  0  0  0
   42.0860   28.9570   41.8030 H   0  0  0  0  0  0  0  0  0  0  0  0
   40.4850   28.6350   40.3670 C   0  0  0  0  0  0  0  0  0  0  0  0
   41.0820   28.8580   39.4890 H   0  0  0  0  0  0  0  0  0  0  0  0
   39.1430   28.2920   40.1650 C   0  0  0  0  0  3  0  0  0  0  0  0
   38.4510   28.0250   41.3140 C   0  0  0  0  0  0  0  0  0  0  0  0
   36.9630   31.3650   40.7240 C   0  0  0  0  0  0  0  0  0  0  0  0
   36.4650   30.6060   39.6710 C   0  0  0  0  0  0  0  0  0  0  0  0
   37.1130   30.7290   38.4420 C   0  0  0  0  0  0  0  0  0  0  0  0
   38.1810   31.5570   38.3000 N   0  0  0  0  0  0  0  0  0  0  0  0
   38.6310   32.2730   39.3390 C   0  0  0  0  0  0  0  0  0  0  0  0
   38.0310   32.1870   40.5600 N   0  0  0  0  0  0  0  0  0  0  0  0
   36.5300   31.3400   41.7180 H   0  0  0  0  0  0  0  0  0  0  0  0
   36.8500   30.2430   37.5400 H   0  0  0  0  0  0  0  0  0  0  0  0
   40.5760   33.3270   40.4710 C   0  0  2  0  0  0  0  0  0  0  0  0
   39.7850   33.1500   39.1420 C   0  0  1  0  0  0  0  0  0  0  0  0
   40.7820   32.6720   38.3610 O   0  0  0  0  0  0  0  0  0  0  0  0
   41.8860   33.4460   38.5550 C   0  0  0  0  0  0  0  0  0  0  0  0
   41.7320   34.1610   39.8870 C   0  0  2  0  0  0  0  0  0  0  0  0
   39.9790   33.9060   41.1880 H   0  0  0  0  0  0  0  0  0  0  0  0
   39.4400   34.1280   38.7910 H   0  0  0  0  0  0  0  0  0  0  0  0
   42.0590   34.1600   37.7060 H   0  0  0  0  0  0  0  0  0  0  0  0
   42.7930   32.7990   38.5940 H   0  0  0  0  0  0  0  0  0  0  0  0
   41.4410   35.1930   39.6710 H   0  0  0  0  0  0  0  0  0  0  0  0
   41.0840   32.1500   40.8720 O   0  0  0  0  0  0  0  0  0  0  0  0
   41.7790   32.2590   41.5390 H   0  0  0  0  0  0  0  0  0  0  0  0
   42.8530   34.1360   40.6660 O   0  0  0  0  0  0  0  0  0  0  0  0
   43.6140   33.6360   40.2290 H   0  0  0  0  0  0  0  0  0  0  0  0
  1  3  1  0  0  0  0
  2  1  1  0  0  0  0
  4  1  1  0  0  0  0
  4  9  1  0  0  0  0
  5  4  2  0  0  0  0
  6  5  1  0  0  0  0
  6  7  2  0  0  0  0
  7  8  1  0  0  0  0
  8 13  1  0  0  0  0
  8  9  2  0  0  0  0
  9 14  1  0  0  0  0
 10  5  1  0  0  0  0
 11  6  1  0  0  0  0
 12  7  1  0  0  0  0
 14 25  2  0  0  0  0
 14 15  1  0  0  0  0
 15 16  2  0  0  0  0
 16 17  1  0  0  0  0
 18 19  1  0  0  0  0
 18 17  2  0  0  0  0
 20 21  1  0  0  0  0
 20 19  2  0  0  0  0
 22 20  1  0  0  0  0
 23 22  1  0  0  0  0
 24 22  2  0  0  0  0
 24 25  1  0  0  0  0
 25 18  1  0  0  0  0
 26 32  1  0  0  0  0
 27  1  1  0  0  0  0
 27 26  2  0  0  0  0
 28 27  1  0  0  0  0
 29 28  2  0  0  0  0
 29 30  1  0  0  0  0
 30 31  2  0  0  0  0
 31 26  1  0  0  0  0
 33 28  1  0  0  0  0
 34 44  1  0  0  0  0
 34 39  1  1  0  0  0
 35 40  1  6  0  0  0
 35 30  1  0  0  0  0
 35 34  1  0  0  0  0
 36 37  1  0  0  0  0
 36 35  1  0  0  0  0
 37 42  1  0  0  0  0
 37 38  1  0  0  0  0
 38 43  1  6  0  0  0
 38 34  1  0  0  0  0
 38 46  1  0  0  0  0
 41 37  1  0  0  0  0
 44 45  1  0  0  0  0
 47 46  1  0  0  0  0
M  END
>  <minimizedAffinity>
-6.3616395

$$$$

 OpenBabel03252503483D

 47 51  0  0  1  0  0  0  0  0999 V2000
   37.3980   26.2680   42.9260 C   0  0  0  0  0  0  0  0  0  0  0  0
   36.4620   26.0770   43.4990 H   0  0  0  0  0  0  0  0  0  0  0  0
   38.2040   26.2110   43.6950 H   0  0  0  0  0  0  0  0  0  0  0  0
   37.5450   25.2510   41.8760 C   0  0  0  0  0  0  0  0  0  0  0  0
   36.5190   24.5350   41.3200 C   0  0  0  0  0  0  0  0  0  0  0  0
   36.7130   23.5780   40.3410 C   0  0  0  0  0  0  0  0  0  0  0  0
   38.0120   23.3370   39.9090 C   0  0  0  0  0  0  0  0  0  0  0  0
   39.0600   24.0620   40.4710 C   0  0  0  0  0  0  0  0  0  0  0  0
   38.8380   25.0260   41.4580 C   0  0  0  0  0  0  0  0  0  0  0  0
   35.5490   24.7950   41.7210 H   0  0  0  0  0  0  0  0  0  0  0  0
   35.8030   23.1160   40.0190 H   0  0  0  0  0  0  0  0  0  0  0  0
   38.0820   22.5850   39.1560 H   0  0  0  0  0  0  0  0  0  0  0  0
   39.9930   23.7390   40.0150 H   0  0  0  0  0  0  0  0  0  0  0  0
   40.1200   25.6320   41.7850 C   0  0  0  0  0  0  0  0  0  0  0  0
   40.7440   25.0330   42.8180 N   0  0  0  0  0  0  0  0  0  0  0  0
   41.9400   25.4220   43.2950 C   0  0  0  0  0  3  0  0  0  0  0  0
   42.5580   26.4760   42.7110 N   0  0  0  0  0  0  0  0  0  0  0  0
   41.9740   27.1120   41.6730 C   0  0  0  0  0  0  0  0  0  0  0  0
   42.5660   28.1910   41.0370 C   0  0  0  0  0  3  0  0  0  0  0  0
   41.9370   28.8140   39.9710 C   0  0  0  0  0  0  0  0  0  0  0  0
   42.4560   29.6430   39.5280 H   0  0  0  0  0  0  0  0  0  0  0  0
   40.7060   28.3530   39.5370 C   0  0  0  0  0  0  0  0  0  0  0  0
   40.2100   28.8380   38.7030 H   0  0  0  0  0  0  0  0  0  0  0  0
   40.0520   27.2680   40.1330 C   0  0  0  0  0  3  0  0  0  0  0  0
   40.7340   26.7060   41.1780 C   0  0  0  0  0  0  0  0  0  0  0  0
   36.4600   27.8400   41.2670 C   0  0  0  0  0  0  0  0  0  0  0  0
   37.3070   27.5920   42.3420 C   0  0  0  0  0  0  0  0  0  0  0  0
   38.0520   28.6700   42.8210 C   0  0  0  0  0  0  0  0  0  0  0  0
   37.9400   29.8980   42.2520 N   0  0  0  0  0  0  0  0  0  0  0  0
   37.1130   30.0970   41.2170 C   0  0  0  0  0  0  0  0  0  0  0  0
   36.3660   29.0760   40.7130 N   0  0  0  0  0  0  0  0  0  0  0  0
   35.8400   27.0700   40.8220 H   0  0  0  0  0  0  0  0  0  0  0  0
   38.7540   28.6470   43.6120 H   0  0  0  0  0  0  0  0  0  0  0  0
   38.3740   32.1950   40.7890 C   0  0  2  0  0  0  0  0  0  0  0  0
   37.0230   31.4370   40.6370 C   0  0  1  0  0  0  0  0  0  0  0  0
   36.8870   31.5070   39.2920 O   0  0  0  0  0  0  0  0  0  0  0  0
   37.1540   32.7840   38.9010 C   0  0  0  0  0  0  0  0  0  0  0  0
   37.9710   33.4510   39.9950 C   0  0  2  0  0  0  0  0  0  0  0  0
   38.5590   32.4240   41.8460 H   0  0  0  0  0  0  0  0  0  0  0  0
   36.2330   31.9990   41.1450 H   0  0  0  0  0  0  0  0  0  0  0  0
   36.2200   33.3580   38.6580 H   0  0  0  0  0  0  0  0  0  0  0  0
   37.7520   32.7700   37.9610 H   0  0  0  0  0  0  0  0  0  0  0  0
   37.2950   34.1050   40.5540 H   0  0  0  0  0  0  0  0  0  0  0  0
   39.3410   31.5680   40.0960 O   0  0  0  0  0  0  0  0  0  0  0  0
   40.1170   32.1320   39.9580 H   0  0  0  0  0  0  0  0  0  0  0  0
   39.0440   34.1590   39.5360 O   0  0  0  0  0  0  0  0  0  0  0  0
   39.1280   34.1220   38.5300 H   0  0  0  0  0  0  0  0  0  0  0  0
  1  2  1  0  0  0  0
  1  3  1  0  0  0  0
  4  1  1  0  0  0  0
  5 10  1  0  0  0  0
  5  4  2  0  0  0  0
  6  5  1  0  0  0  0
  7  6  2  0  0  0  0
  7  8  1  0  0  0  0
  8  9  2  0  0  0  0
  9 14  1  0  0  0  0
  9  4  1  0  0  0  0
 11  6  1  0  0  0  0
 12  7  1  0  0  0  0
 13  8  1  0  0  0  0
 14 15  1  0  0  0  0
 15 16  2  0  0  0  0
 17 16  1  0  0  0  0
 18 17  2  0  0  0  0
 19 18  1  0  0  0  0
 20 19  2  0  0  0  0
 21 20  1  0  0  0  0
 22 20  1  0  0  0  0
 22 24  2  0  0  0  0
 23 22  1  0  0  0  0
 24 25  1  0  0  0  0
 25 18  1  0  0  0  0
 25 14  2  0  0  0  0
 26 27  1  0  0  0  0
 27 28  2  0  0  0  0
 27  1  1  0  0  0  0
 28 33  1  0  0  0  0
 29 28  1  0  0  0  0
 30 29  2  0  0  0  0
 31 30  1  0  0  0  0
 31 26  2  0  0  0  0
 32 26  1  0  0  0  0
 34 39  1  1  0  0  0
 35 34  1  0  0  0  0
 35 40  1  1  0  0  0
 35 30  1  0  0  0  0
 36 35  1  0  0  0  0
 37 36  1  0  0  0  0
 37 38  1  0  0  0  0
 38 43  1  1  0  0  0
 38 34  1  0  0  0  0
 41 37  1  0  0  0  0
 42 37  1  0  0  0  0
 44 34  1  0  0  0  0
 45 44  1  0  0  0  0
 46 38  1  0  0  0  0
 47 46  1  0  0  0  0
M  END
>  <minimizedAffinity>
-6.34503365

$$$$
