
 OpenBabel03242516383D

 23 25  0  0  0  0  0  0  0  0999 V2000
   46.1260   34.9060   43.3980 C   0  0  0  0  0  0  0  0  0  0  0  0
   45.2280   35.8940   43.6490 N   0  0  0  0  0  0  0  0  0  0  0  0
   44.4980   35.9950   44.7530 C   0  0  0  0  0  0  0  0  0  0  0  0
   44.6130   35.0820   45.7310 N   0  0  0  0  0  0  0  0  0  0  0  0
   45.4820   34.0400   45.5970 C   0  0  0  0  0  0  0  0  0  0  0  0
   45.6050   33.1000   46.5960 C   0  0  0  0  0  0  0  0  0  0  0  0
   46.4760   32.0500   46.4710 C   0  0  0  0  0  0  0  0  0  0  0  0
   46.4880   31.3830   47.3070 H   0  0  0  0  0  0  0  0  0  0  0  0
   47.2250   31.9800   45.2930 C   0  0  0  0  0  0  0  0  0  0  0  0
   47.8960   31.1450   45.2290 H   0  0  0  0  0  0  0  0  0  0  0  0
   47.0600   32.9470   44.3320 C   0  0  0  0  0  0  0  0  0  0  0  0
   46.1970   34.0140   44.4210 C   0  0  0  0  0  0  0  0  0  0  0  0
   46.7990   34.0320   39.8420 C   0  0  0  0  0  0  0  0  0  0  0  0
   46.2490   34.2030   41.1140 C   0  0  0  0  0  0  0  0  0  0  0  0
   46.8930   34.8500   42.1700 C   0  0  0  0  0  0  0  0  0  0  0  0
   48.1100   35.2890   41.8050 N   0  0  0  0  0  0  0  0  0  0  0  0
   48.6740   35.1510   40.6100 C   0  0  0  0  0  0  0  0  0  0  0  0
   48.0150   34.5240   39.6390 N   0  0  0  0  0  0  0  0  0  0  0  0
   46.0550   33.3610   38.8540 N   0  0  0  0  0  0  0  0  0  0  0  0
   45.2560   33.7870   41.2390 H   0  0  0  0  0  0  0  0  0  0  0  0
   49.6630   35.5760   40.5200 H   0  0  0  0  0  0  0  0  0  0  0  0
   46.4950   32.5240   38.4230 H   0  0  0  0  0  0  0  0  0  0  0  0
   45.1010   33.6040   38.4960 H   0  0  0  0  0  0  0  0  0  0  0  0
  1  2  2  0  0  0  0
  1 12  1  0  0  0  0
  2  3  1  0  0  0  0
  3  4  2  0  0  0  0
  5  4  1  0  0  0  0
  5  6  1  0  0  0  0
  7  6  2  0  0  0  0
  7  8  1  0  0  0  0
  9  7  1  0  0  0  0
 10  9  1  0  0  0  0
 11 12  1  0  0  0  0
 11  9  2  0  0  0  0
 12  5  2  0  0  0  0
 13 14  1  0  0  0  0
 14 20  1  0  0  0  0
 14 15  2  0  0  0  0
 15  1  1  0  0  0  0
 16 15  1  0  0  0  0
 17 16  2  0  0  0  0
 18 13  2  0  0  0  0
 18 17  1  0  0  0  0
 19 13  1  0  0  0  0
 21 17  1  0  0  0  0
 22 19  1  0  0  0  0
 23 19  1  0  0  0  0
M  END
>  <minimizedAffinity>
-5.60063028

>  <minimizedRMSD>
5.4232955

$$$$
