
 OpenBabel03242523393D

 22 24  0  0  1  0  0  0  0  0999 V2000
   36.8260   31.0870   40.0630 C   0  0  2  0  0  3  0  0  0  0  0  0
   35.9680   30.2160   39.9820 N   0  0  0  0  0  2  0  0  0  0  0  0
   35.0380   29.4530   39.7510 C   0  0  0  0  0  2  0  0  0  0  0  0
   35.4810   28.6710   40.7460 N   0  0  0  0  0  2  0  0  0  0  0  0
   36.5840   29.0000   41.4640 C   0  0  0  0  0  0  0  0  0  0  0  0
   36.8990   28.0540   42.4750 C   0  0  0  0  0  3  0  0  0  0  0  0
   37.9970   28.3350   43.2270 C   0  0  0  0  0  0  0  0  0  0  0  0
   38.2020   27.5990   43.9800 H   0  0  0  0  0  0  0  0  0  0  0  0
   38.8050   29.4380   43.0860 C   0  0  0  0  0  0  0  0  0  0  0  0
   39.6650   29.6700   43.6680 H   0  0  0  0  0  0  0  0  0  0  0  0
   38.3590   30.2630   42.0560 C   0  0  0  0  0  3  0  0  0  0  0  0
   37.2790   30.2110   41.1410 C   0  0  0  0  0  0  0  0  0  0  0  0
   39.2860   33.8420   40.5090 C   0  0  0  0  0  0  0  0  0  0  0  0
   40.1240   33.4260   39.4690 C   0  0  0  0  0  0  0  0  0  0  0  0
   39.7610   32.2820   38.7570 C   0  0  0  0  0  0  0  0  0  0  0  0
   38.6130   31.6770   39.1490 N   0  0  0  0  0  0  0  0  0  0  0  0
   37.8190   32.0990   40.1580 C   0  0  0  0  0  0  0  0  0  0  0  0
   38.2030   33.1580   40.7790 N   0  0  0  0  0  0  0  0  0  0  0  0
   39.4310   34.7020   41.1470 H   0  0  0  0  0  0  0  0  0  0  0  0
   40.9870   34.0060   39.2810 H   0  0  0  0  0  0  0  0  0  0  0  0
   40.8180   31.7400   37.4320 S   0  0  0  0  0  0  0  0  0  0  0  0
   40.5510   30.4360   37.0250 H   0  0  0  0  0  0  0  0  0  0  0  0
  1 17  1  1  0  0  0
  1 12  1  0  0  0  0
  2  1  1  0  0  0  0
  3  2  1  0  0  0  0
  3  4  1  0  0  0  0
  4  5  1  0  0  0  0
  5  6  1  0  0  0  0
  6  7  2  0  0  0  0
  7  8  1  0  0  0  0
  9  7  1  0  0  0  0
  9 10  1  0  0  0  0
 11  9  2  0  0  0  0
 12  5  2  0  0  0  0
 12 11  1  0  0  0  0
 13 18  1  0  0  0  0
 13 19  1  0  0  0  0
 14 13  2  0  0  0  0
 15 16  2  0  0  0  0
 15 14  1  0  0  0  0
 16 17  1  0  0  0  0
 17 18  2  0  0  0  0
 20 14  1  0  0  0  0
 21 15  1  0  0  0  0
 22 21  1  0  0  0  0
M  END
>  <minimizedAffinity>
-4.95303345

$$$$

 OpenBabel03242523393D

 22 24  0  0  1  0  0  0  0  0999 V2000
   39.4010   29.7330   42.6020 C   0  0  2  0  0  3  0  0  0  0  0  0
   40.2840   30.5540   42.3830 N   0  0  0  0  0  2  0  0  0  0  0  0
   41.2780   31.2630   42.2840 C   0  0  0  0  0  2  0  0  0  0  0  0
   40.5820   32.0590   41.4580 N   0  0  0  0  0  2  0  0  0  0  0  0
   39.2930   31.7870   41.1370 C   0  0  0  0  0  0  0  0  0  0  0  0
   38.7220   32.7410   40.2520 C   0  0  0  0  0  3  0  0  0  0  0  0
   37.4280   32.5170   39.8970 C   0  0  0  0  0  0  0  0  0  0  0  0
   37.0310   33.2570   39.2300 H   0  0  0  0  0  0  0  0  0  0  0  0
   36.6510   31.4640   40.3190 C   0  0  0  0  0  0  0  0  0  0  0  0
   35.6380   31.2790   40.0490 H   0  0  0  0  0  0  0  0  0  0  0  0
   37.3570   30.6270   41.1780 C   0  0  0  0  0  3  0  0  0  0  0  0
   38.6750   30.6230   41.6990 C   0  0  0  0  0  0  0  0  0  0  0  0
   36.6220   27.4110   43.4490 C   0  0  0  0  0  0  0  0  0  0  0  0
   37.0350   26.4010   42.5740 C   0  0  0  0  0  0  0  0  0  0  0  0
   38.1840   26.6270   41.8140 C   0  0  0  0  0  0  0  0  0  0  0  0
   38.7960   27.8220   42.0040 N   0  0  0  0  0  0  0  0  0  0  0  0
   38.3770   28.7810   42.8580 C   0  0  0  0  0  0  0  0  0  0  0  0
   37.3130   28.5200   43.5310 N   0  0  0  0  0  0  0  0  0  0  0  0
   35.7580   27.3850   44.0990 H   0  0  0  0  0  0  0  0  0  0  0  0
   36.4500   25.5210   42.5380 H   0  0  0  0  0  0  0  0  0  0  0  0
   38.7210   25.3530   40.6950 S   0  0  0  0  0  0  0  0  0  0  0  0
   39.6540   25.8060   39.7660 H   0  0  0  0  0  0  0  0  0  0  0  0
  1 17  1  1  0  0  0
  2  1  1  0  0  0  0
  3  2  1  0  0  0  0
  4  3  1  0  0  0  0
  5  4  1  0  0  0  0
  5 12  1  0  0  0  0
  6  5  2  0  0  0  0
  7  6  1  0  0  0  0
  7  9  2  0  0  0  0
  8  7  1  0  0  0  0
  9 11  1  0  0  0  0
 10  9  1  0  0  0  0
 11 12  2  0  0  0  0
 12  1  1  0  0  0  0
 13 18  1  0  0  0  0
 13 19  1  0  0  0  0
 14 13  2  0  0  0  0
 15 16  2  0  0  0  0
 15 14  1  0  0  0  0
 16 17  1  0  0  0  0
 17 18  2  0  0  0  0
 20 14  1  0  0  0  0
 21 15  1  0  0  0  0
 22 21  1  0  0  0  0
M  END
>  <minimizedAffinity>
-4.9096117

$$$$

 OpenBabel03242523393D

 22 24  0  0  1  0  0  0  0  0999 V2000
   37.0120   29.4390   41.7140 C   0  0  2  0  0  3  0  0  0  0  0  0
   36.8980   28.4510   42.4300 N   0  0  0  0  0  2  0  0  0  0  0  0
   36.5890   27.4790   43.1080 C   0  0  0  0  0  2  0  0  0  0  0  0
   37.8890   27.3110   43.3910 N   0  0  0  0  0  2  0  0  0  0  0  0
   38.8340   28.1460   42.8900 C   0  0  0  0  0  0  0  0  0  0  0  0
   40.1530   27.8100   43.2980 C   0  0  0  0  0  3  0  0  0  0  0  0
   41.1410   28.6160   42.8250 C   0  0  0  0  0  0  0  0  0  0  0  0
   42.1210   28.3330   43.1550 H   0  0  0  0  0  0  0  0  0  0  0  0
   40.9640   29.7030   42.0010 C   0  0  0  0  0  0  0  0  0  0  0  0
   41.7280   30.3410   41.6250 H   0  0  0  0  0  0  0  0  0  0  0  0
   39.6190   29.8940   41.6980 C   0  0  0  0  0  3  0  0  0  0  0  0
   38.4190   29.2240   42.0440 C   0  0  0  0  0  0  0  0  0  0  0  0
   37.3810   32.5850   39.7640 C   0  0  0  0  0  0  0  0  0  0  0  0
   37.2350   31.9730   38.5150 C   0  0  0  0  0  0  0  0  0  0  0  0
   37.0350   30.5910   38.4860 C   0  0  0  0  0  0  0  0  0  0  0  0
   37.0000   29.9710   39.6900 N   0  0  0  0  0  0  0  0  0  0  0  0
   37.1430   30.5860   40.8850 C   0  0  0  0  0  0  0  0  0  0  0  0
   37.3260   31.8580   40.8520 N   0  0  0  0  0  0  0  0  0  0  0  0
   37.5420   33.6380   39.9490 H   0  0  0  0  0  0  0  0  0  0  0  0
   37.2850   32.5940   37.6620 H   0  0  0  0  0  0  0  0  0  0  0  0
   36.8490   29.7980   36.9040 S   0  0  0  0  0  0  0  0  0  0  0  0
   36.9920   28.4140   36.9730 H   0  0  0  0  0  0  0  0  0  0  0  0
  1 17  1  1  0  0  0
  1 12  1  0  0  0  0
  1  2  1  0  0  0  0
  2  3  1  0  0  0  0
  3  4  1  0  0  0  0
  5  6  1  0  0  0  0
  5  4  1  0  0  0  0
  7  8  1  0  0  0  0
  7  6  2  0  0  0  0
  9  7  1  0  0  0  0
 10  9  1  0  0  0  0
 11  9  2  0  0  0  0
 11 12  1  0  0  0  0
 12  5  2  0  0  0  0
 13 19  1  0  0  0  0
 13 18  1  0  0  0  0
 14 13  2  0  0  0  0
 15 14  1  0  0  0  0
 15 16  2  0  0  0  0
 16 17  1  0  0  0  0
 18 17  2  0  0  0  0
 20 14  1  0  0  0  0
 21 22  1  0  0  0  0
 21 15  1  0  0  0  0
M  END
>  <minimizedAffinity>
-4.85056114

$$$$

 OpenBabel03242523393D

 22 24  0  0  1  0  0  0  0  0999 V2000
   36.9230   28.9520   41.2170 C   0  0  2  0  0  3  0  0  0  0  0  0
   37.1720   28.6500   42.3780 N   0  0  0  0  0  2  0  0  0  0  0  0
   37.4280   28.5440   43.5710 C   0  0  0  0  0  2  0  0  0  0  0  0
   37.3870   27.2120   43.4240 N   0  0  0  0  0  2  0  0  0  0  0  0
   37.1230   26.6430   42.2200 C   0  0  0  0  0  0  0  0  0  0  0  0
   37.1230   25.2230   42.2590 C   0  0  0  0  0  3  0  0  0  0  0  0
   36.8640   24.6000   41.0780 C   0  0  0  0  0  0  0  0  0  0  0  0
   36.8740   23.5300   41.1450 H   0  0  0  0  0  0  0  0  0  0  0  0
   36.6110   25.2250   39.8800 C   0  0  0  0  0  0  0  0  0  0  0  0
   36.4080   24.7500   38.9500 H   0  0  0  0  0  0  0  0  0  0  0  0
   36.6490   26.6100   40.0140 C   0  0  0  0  0  3  0  0  0  0  0  0
   36.8870   27.4960   41.0940 C   0  0  0  0  0  0  0  0  0  0  0  0
   35.9340   29.7600   37.7240 C   0  0  0  0  0  0  0  0  0  0  0  0
   37.1570   30.3470   37.3830 C   0  0  0  0  0  0  0  0  0  0  0  0
   38.1510   30.3980   38.3620 C   0  0  0  0  0  0  0  0  0  0  0  0
   37.8270   29.8650   39.5650 N   0  0  0  0  0  0  0  0  0  0  0  0
   36.6360   29.3020   39.8700 C   0  0  0  0  0  0  0  0  0  0  0  0
   35.7590   29.2830   38.9300 N   0  0  0  0  0  0  0  0  0  0  0  0
   35.0730   29.6470   37.0790 H   0  0  0  0  0  0  0  0  0  0  0  0
   37.2590   30.7180   36.3990 H   0  0  0  0  0  0  0  0  0  0  0  0
   39.7110   31.1420   37.9430 S   0  0  0  0  0  0  0  0  0  0  0  0
   40.4870   31.4390   39.0610 H   0  0  0  0  0  0  0  0  0  0  0  0
  1 17  1  6  0  0  0
  1  2  1  0  0  0  0
  2  3  1  0  0  0  0
  4  3  1  0  0  0  0
  5  6  1  0  0  0  0
  5  4  1  0  0  0  0
  7  8  1  0  0  0  0
  7  6  2  0  0  0  0
  9 11  2  0  0  0  0
  9  7  1  0  0  0  0
 10  9  1  0  0  0  0
 11 12  1  0  0  0  0
 12  1  1  0  0  0  0
 12  5  2  0  0  0  0
 13 18  1  0  0  0  0
 14 13  2  0  0  0  0
 14 15  1  0  0  0  0
 15 16  2  0  0  0  0
 16 17  1  0  0  0  0
 18 17  2  0  0  0  0
 19 13  1  0  0  0  0
 20 14  1  0  0  0  0
 21 15  1  0  0  0  0
 21 22  1  0  0  0  0
M  END
>  <minimizedAffinity>
-4.824646

$$$$

 OpenBabel03242523393D

 22 24  0  0  1  0  0  0  0  0999 V2000
   36.9250   28.9940   39.5600 C   0  0  2  0  0  3  0  0  0  0  0  0
   36.7170   27.7930   39.4420 N   0  0  0  0  0  2  0  0  0  0  0  0
   36.4770   26.6320   39.1330 C   0  0  0  0  0  2  0  0  0  0  0  0
   36.6960   26.2860   40.4100 N   0  0  0  0  0  2  0  0  0  0  0  0
   37.0340   27.2110   41.3430 C   0  0  0  0  0  0  0  0  0  0  0  0
   37.2240   26.6570   42.6380 C   0  0  0  0  0  3  0  0  0  0  0  0
   37.5650   27.5410   43.6140 C   0  0  0  0  0  0  0  0  0  0  0  0
   37.6990   27.0880   44.5770 H   0  0  0  0  0  0  0  0  0  0  0  0
   37.7350   28.8950   43.4470 C   0  0  0  0  0  0  0  0  0  0  0  0
   37.9990   29.5970   44.2010 H   0  0  0  0  0  0  0  0  0  0  0  0
   37.5110   29.2740   42.1260 C   0  0  0  0  0  3  0  0  0  0  0  0
   37.1560   28.5800   40.9420 C   0  0  0  0  0  0  0  0  0  0  0  0
   37.3290   32.6590   40.0580 C   0  0  0  0  0  0  0  0  0  0  0  0
   38.5040   32.7560   39.3060 C   0  0  0  0  0  0  0  0  0  0  0  0
   39.0100   31.5870   38.7340 C   0  0  0  0  0  0  0  0  0  0  0  0
   38.2990   30.4560   38.9660 N   0  0  0  0  0  0  0  0  0  0  0  0
   37.1640   30.3890   39.6960 C   0  0  0  0  0  0  0  0  0  0  0  0
   36.7450   31.4950   40.2000 N   0  0  0  0  0  0  0  0  0  0  0  0
   36.8180   33.4680   40.5600 H   0  0  0  0  0  0  0  0  0  0  0  0
   38.9430   33.7120   39.2150 H   0  0  0  0  0  0  0  0  0  0  0  0
   40.5050   31.6940   37.7760 S   0  0  0  0  0  0  0  0  0  0  0  0
   41.0900   30.4520   37.5440 H   0  0  0  0  0  0  0  0  0  0  0  0
  1 17  1  1  0  0  0
  1 12  1  0  0  0  0
  2  1  1  0  0  0  0
  3  2  1  0  0  0  0
  3  4  1  0  0  0  0
  4  5  1  0  0  0  0
  5  6  1  0  0  0  0
  6  7  2  0  0  0  0
  7  8  1  0  0  0  0
  9  7  1  0  0  0  0
  9 10  1  0  0  0  0
 11  9  2  0  0  0  0
 12  5  2  0  0  0  0
 12 11  1  0  0  0  0
 13 18  1  0  0  0  0
 13 19  1  0  0  0  0
 14 13  2  0  0  0  0
 15 16  2  0  0  0  0
 15 14  1  0  0  0  0
 16 17  1  0  0  0  0
 17 18  2  0  0  0  0
 20 14  1  0  0  0  0
 21 15  1  0  0  0  0
 22 21  1  0  0  0  0
M  END
>  <minimizedAffinity>
-4.82385492

$$$$

 OpenBabel03242523393D

 22 24  0  0  1  0  0  0  0  0999 V2000
   36.9580   26.4530   40.9710 C   0  0  2  0  0  3  0  0  0  0  0  0
   37.0080   25.2310   40.8980 N   0  0  0  0  0  2  0  0  0  0  0  0
   36.9080   24.0280   40.6960 C   0  0  0  0  0  2  0  0  0  0  0  0
   37.9260   23.8380   41.5480 N   0  0  0  0  0  2  0  0  0  0  0  0
   38.5320   24.8820   42.1670 C   0  0  0  0  0  0  0  0  0  0  0  0
   39.5870   24.4860   43.0320 C   0  0  0  0  0  3  0  0  0  0  0  0
   40.2300   25.4950   43.6800 C   0  0  0  0  0  0  0  0  0  0  0  0
   41.0180   25.1590   44.3240 H   0  0  0  0  0  0  0  0  0  0  0  0
   39.9430   26.8350   43.5630 C   0  0  0  0  0  0  0  0  0  0  0  0
   40.4370   27.6320   44.0640 H   0  0  0  0  0  0  0  0  0  0  0  0
   38.8870   27.0510   42.6810 C   0  0  0  0  0  3  0  0  0  0  0  0
   38.0640   26.2080   41.8940 C   0  0  0  0  0  0  0  0  0  0  0  0
   36.7040   30.1350   41.4400 C   0  0  0  0  0  0  0  0  0  0  0  0
   37.1740   30.4540   40.1620 C   0  0  0  0  0  0  0  0  0  0  0  0
   37.5160   29.4000   39.3120 C   0  0  0  0  0  0  0  0  0  0  0  0
   37.3550   28.1530   39.8170 N   0  0  0  0  0  0  0  0  0  0  0  0
   36.8980   27.8710   41.0570 C   0  0  0  0  0  0  0  0  0  0  0  0
   36.5990   28.8790   41.7970 N   0  0  0  0  0  0  0  0  0  0  0  0
   36.4020   30.8340   42.2070 H   0  0  0  0  0  0  0  0  0  0  0  0
   37.2430   31.4780   39.9120 H   0  0  0  0  0  0  0  0  0  0  0  0
   38.1160   29.7900   37.6830 S   0  0  0  0  0  0  0  0  0  0  0  0
   38.7320   28.7080   37.0600 H   0  0  0  0  0  0  0  0  0  0  0  0
  1 17  1  1  0  0  0
  1 12  1  0  0  0  0
  2  1  1  0  0  0  0
  3  2  1  0  0  0  0
  3  4  1  0  0  0  0
  4  5  1  0  0  0  0
  5  6  1  0  0  0  0
  6  7  2  0  0  0  0
  7  8  1  0  0  0  0
  9  7  1  0  0  0  0
  9 10  1  0  0  0  0
 11  9  2  0  0  0  0
 12  5  2  0  0  0  0
 12 11  1  0  0  0  0
 13 18  1  0  0  0  0
 13 19  1  0  0  0  0
 14 13  2  0  0  0  0
 15 16  2  0  0  0  0
 15 14  1  0  0  0  0
 16 17  1  0  0  0  0
 17 18  2  0  0  0  0
 20 14  1  0  0  0  0
 21 15  1  0  0  0  0
 22 21  1  0  0  0  0
M  END
>  <minimizedAffinity>
-4.80680561

$$$$

 OpenBabel03242523393D

 22 24  0  0  1  0  0  0  0  0999 V2000
   37.6460   32.0550   40.5600 C   0  0  2  0  0  3  0  0  0  0  0  0
   38.3270   33.0740   40.5590 N   0  0  0  0  0  2  0  0  0  0  0  0
   38.8800   34.1580   40.6950 C   0  0  0  0  0  2  0  0  0  0  0  0
   39.7770   33.7740   39.7750 N   0  0  0  0  0  2  0  0  0  0  0  0
   39.7040   32.5550   39.1840 C   0  0  0  0  0  0  0  0  0  0  0  0
   40.7380   32.3280   38.2370 C   0  0  0  0  0  3  0  0  0  0  0  0
   40.7120   31.1190   37.6130 C   0  0  0  0  0  0  0  0  0  0  0  0
   41.5060   30.9840   36.9050 H   0  0  0  0  0  0  0  0  0  0  0  0
   39.7850   30.1260   37.8250 C   0  0  0  0  0  0  0  0  0  0  0  0
   39.7540   29.1780   37.3430 H   0  0  0  0  0  0  0  0  0  0  0  0
   38.8450   30.5080   38.7780 C   0  0  0  0  0  3  0  0  0  0  0  0
   38.6420   31.6710   39.5610 C   0  0  0  0  0  0  0  0  0  0  0  0
   35.4420   29.0650   40.3610 C   0  0  0  0  0  0  0  0  0  0  0  0
   36.0370   28.4020   41.4390 C   0  0  0  0  0  0  0  0  0  0  0  0
   37.0960   29.0380   42.0910 C   0  0  0  0  0  0  0  0  0  0  0  0
   37.4480   30.2530   41.6060 N   0  0  0  0  0  0  0  0  0  0  0  0
   36.8560   30.8730   40.5610 C   0  0  0  0  0  0  0  0  0  0  0  0
   35.8870   30.2420   39.9990 N   0  0  0  0  0  0  0  0  0  0  0  0
   34.6190   28.7050   39.7600 H   0  0  0  0  0  0  0  0  0  0  0  0
   35.6480   27.4550   41.7010 H   0  0  0  0  0  0  0  0  0  0  0  0
   37.8630   28.2070   43.4640 S   0  0  0  0  0  0  0  0  0  0  0  0
   39.0930   28.7590   43.8130 H   0  0  0  0  0  0  0  0  0  0  0  0
  1 17  1  6  0  0  0
  2  1  1  0  0  0  0
  2  3  1  0  0  0  0
  4  3  1  0  0  0  0
  5 12  1  0  0  0  0
  5  4  1  0  0  0  0
  6  5  2  0  0  0  0
  7  9  2  0  0  0  0
  7  6  1  0  0  0  0
  8  7  1  0  0  0  0
  9 11  1  0  0  0  0
 10  9  1  0  0  0  0
 11 12  2  0  0  0  0
 12  1  1  0  0  0  0
 13 14  1  0  0  0  0
 14 20  1  0  0  0  0
 14 15  2  0  0  0  0
 15 21  1  0  0  0  0
 16 15  1  0  0  0  0
 17 16  2  0  0  0  0
 18 13  2  0  0  0  0
 18 17  1  0  0  0  0
 19 13  1  0  0  0  0
 21 22  1  0  0  0  0
M  END
>  <minimizedAffinity>
-4.75591278

$$$$

 OpenBabel03242523393D

 22 24  0  0  1  0  0  0  0  0999 V2000
   37.6260   31.5810   37.8640 C   0  0  2  0  0  3  0  0  0  0  0  0
   37.1980   30.7610   37.0600 N   0  0  0  0  0  2  0  0  0  0  0  0
   36.8750   30.0430   36.1230 C   0  0  0  0  0  2  0  0  0  0  0  0
   36.1500   29.3110   36.9810 N   0  0  0  0  0  2  0  0  0  0  0  0
   36.0920   29.6230   38.3000 C   0  0  0  0  0  0  0  0  0  0  0  0
   35.2760   28.7350   39.0510 C   0  0  0  0  0  3  0  0  0  0  0  0
   35.1810   29.0020   40.3810 C   0  0  0  0  0  0  0  0  0  0  0  0
   34.5560   28.3130   40.9150 H   0  0  0  0  0  0  0  0  0  0  0  0
   35.8010   30.0400   41.0370 C   0  0  0  0  0  0  0  0  0  0  0  0
   35.7340   30.2590   42.0760 H   0  0  0  0  0  0  0  0  0  0  0  0
   36.5580   30.8120   40.1610 C   0  0  0  0  0  3  0  0  0  0  0  0
   36.8250   30.7600   38.7700 C   0  0  0  0  0  0  0  0  0  0  0  0
   38.6750   34.1610   40.3300 C   0  0  0  0  0  0  0  0  0  0  0  0
   40.0340   33.8350   40.2770 C   0  0  0  0  0  0  0  0  0  0  0  0
   40.4230   32.7970   39.4280 C   0  0  0  0  0  0  0  0  0  0  0  0
   39.4290   32.1990   38.7280 N   0  0  0  0  0  0  0  0  0  0  0  0
   38.1210   32.5330   38.7960 C   0  0  0  0  0  0  0  0  0  0  0  0
   37.8210   33.4950   39.5950 N   0  0  0  0  0  0  0  0  0  0  0  0
   38.2230   34.9340   40.9350 H   0  0  0  0  0  0  0  0  0  0  0  0
   40.6920   34.3960   40.8850 H   0  0  0  0  0  0  0  0  0  0  0  0
   42.1490   32.3700   39.3510 S   0  0  0  0  0  0  0  0  0  0  0  0
   42.3740   31.1340   38.7500 H   0  0  0  0  0  0  0  0  0  0  0  0
  1 12  1  0  0  0  0
  1 17  1  6  0  0  0
  2  1  1  0  0  0  0
  3  4  1  0  0  0  0
  3  2  1  0  0  0  0
  4  5  1  0  0  0  0
  5 12  2  0  0  0  0
  5  6  1  0  0  0  0
  6  7  2  0  0  0  0
  7  8  1  0  0  0  0
  7  9  1  0  0  0  0
  9 10  1  0  0  0  0
 11  9  2  0  0  0  0
 12 11  1  0  0  0  0
 13 19  1  0  0  0  0
 14 13  1  0  0  0  0
 14 20  1  0  0  0  0
 15 14  2  0  0  0  0
 16 17  2  0  0  0  0
 16 15  1  0  0  0  0
 17 18  1  0  0  0  0
 18 13  2  0  0  0  0
 21 15  1  0  0  0  0
 22 21  1  0  0  0  0
M  END
>  <minimizedAffinity>
-4.70300579

$$$$

 OpenBabel03242523393D

 22 24  0  0  1  0  0  0  0  0999 V2000
   39.3830   30.8040   41.8250 C   0  0  2  0  0  3  0  0  0  0  0  0
   39.8700   31.7550   41.2260 N   0  0  0  0  0  2  0  0  0  0  0  0
   40.4840   32.7160   40.7790 C   0  0  0  0  0  2  0  0  0  0  0  0
   39.6690   32.6940   39.7140 N   0  0  0  0  0  2  0  0  0  0  0  0
   38.6790   31.7730   39.6020 C   0  0  0  0  0  0  0  0  0  0  0  0
   37.9200   31.9070   38.4090 C   0  0  0  0  0  3  0  0  0  0  0  0
   36.9130   31.0080   38.2450 C   0  0  0  0  0  0  0  0  0  0  0  0
   36.3620   31.1410   37.3350 H   0  0  0  0  0  0  0  0  0  0  0  0
   36.5820   30.0050   39.1250 C   0  0  0  0  0  0  0  0  0  0  0  0
   35.7960   29.2970   39.0090 H   0  0  0  0  0  0  0  0  0  0  0  0
   37.4180   30.0120   40.2380 C   0  0  0  0  0  3  0  0  0  0  0  0
   38.5140   30.8110   40.6500 C   0  0  0  0  0  0  0  0  0  0  0  0
   37.6820   28.0640   43.6800 C   0  0  0  0  0  0  0  0  0  0  0  0
   38.7710   27.1880   43.6290 C   0  0  0  0  0  0  0  0  0  0  0  0
   39.9300   27.6240   42.9830 C   0  0  0  0  0  0  0  0  0  0  0  0
   39.8830   28.8730   42.4600 N   0  0  0  0  0  0  0  0  0  0  0  0
   38.8170   29.7020   42.5220 C   0  0  0  0  0  0  0  0  0  0  0  0
   37.7780   29.2480   43.1290 N   0  0  0  0  0  0  0  0  0  0  0  0
   36.7240   27.8720   44.1410 H   0  0  0  0  0  0  0  0  0  0  0  0
   38.6550   26.2430   44.0870 H   0  0  0  0  0  0  0  0  0  0  0  0
   41.3230   26.5200   42.9100 S   0  0  0  0  0  0  0  0  0  0  0  0
   42.2760   26.9130   41.9730 H   0  0  0  0  0  0  0  0  0  0  0  0
  1 17  1  1  0  0  0
  2  1  1  0  0  0  0
  3  2  1  0  0  0  0
  4  3  1  0  0  0  0
  5  4  1  0  0  0  0
  5 12  1  0  0  0  0
  6  5  2  0  0  0  0
  7  6  1  0  0  0  0
  7  9  2  0  0  0  0
  8  7  1  0  0  0  0
  9 11  1  0  0  0  0
 10  9  1  0  0  0  0
 11 12  2  0  0  0  0
 12  1  1  0  0  0  0
 13 19  1  0  0  0  0
 14 13  1  0  0  0  0
 14 20  1  0  0  0  0
 15 14  2  0  0  0  0
 16 17  2  0  0  0  0
 16 15  1  0  0  0  0
 17 18  1  0  0  0  0
 18 13  2  0  0  0  0
 21 15  1  0  0  0  0
 22 21  1  0  0  0  0
M  END
>  <minimizedAffinity>
-4.70039988

$$$$
