
     RDKit          3D

 55 59  0  0  0  0  0  0  0  0999 V2000
   47.5573   31.9656   46.4122 C   0  0  2  0  0  0  0  0  0  0  0  0
   47.2966   30.4954   45.9593 C   0  0  0  0  0  0  0  0  0  0  0  0
   48.1081   29.5702   46.7971 C   0  0  0  0  0  0  0  0  0  0  0  0
   48.1124   29.8448   48.2624 C   0  0  0  0  0  0  0  0  0  0  0  0
   48.1237   31.2459   48.6073 C   0  0  0  0  0  0  0  0  0  0  0  0
   47.1286   32.0979   47.7908 C   0  0  2  0  0  0  0  0  0  0  0  0
   46.9115   32.9145   45.5275 C   0  0  0  0  0  0  0  0  0  0  0  0
   45.7971   33.5843   46.0126 C   0  0  0  0  0  0  0  0  0  0  0  0
   45.1164   34.5040   45.1806 C   0  0  0  0  0  0  0  0  0  0  0  0
   45.6344   34.6749   43.8986 N   0  0  0  0  0  0  0  0  0  0  0  0
   46.7268   33.9911   43.4911 C   0  0  0  0  0  0  0  0  0  0  0  0
   47.3470   33.1326   44.2873 N   0  0  0  0  0  0  0  0  0  0  0  0
   47.2335   34.2500   42.1468 C   0  0  0  0  0  0  0  0  0  0  0  0
   48.1908   35.1709   41.8935 C   0  0  0  0  0  0  0  0  0  0  0  0
   48.6837   35.4352   40.6317 C   0  0  0  0  0  0  0  0  0  0  0  0
   48.1374   34.6929   39.6082 C   0  0  0  0  0  0  0  0  0  0  0  0
   47.1484   33.7338   39.8309 C   0  0  0  0  0  0  0  0  0  0  0  0
   46.7603   33.5791   41.1115 N   0  0  0  0  0  0  0  0  0  0  0  0
   45.7885   31.5300   47.9536 N   0  0  0  0  0  0  0  0  0  0  0  0
   45.1866   30.8478   49.0251 C   0  0  0  0  0  0  0  0  0  0  0  0
   44.7562   31.4427   50.0780 O   0  0  0  0  0  0  0  0  0  0  0  0
   45.0828   29.4337   48.8468 N   0  0  0  0  0  0  0  0  0  0  0  0
   48.6644   32.0429   46.2889 H   0  0  0  0  0  0  0  0  0  0  0  0
   46.2245   30.2911   45.9346 H   0  0  0  0  0  0  0  0  0  0  0  0
   47.6513   30.4832   44.9081 H   0  0  0  0  0  0  0  0  0  0  0  0
   47.6528   28.5457   46.6706 H   0  0  0  0  0  0  0  0  0  0  0  0
   49.0949   29.4836   46.3025 H   0  0  0  0  0  0  0  0  0  0  0  0
   49.2246   29.5908   48.4895 H   0  0  0  0  0  0  0  0  0  0  0  0
   47.7389   29.0711   48.9349 H   0  0  0  0  0  0  0  0  0  0  0  0
   47.8107   31.3698   49.6846 H   0  0  0  0  0  0  0  0  0  0  0  0
   49.0824   31.8120   48.5406 H   0  0  0  0  0  0  0  0  0  0  0  0
   47.2567   33.0765   48.2547 H   0  0  0  0  0  0  0  0  0  0  0  0
   45.2659   33.6357   46.9376 H   0  0  0  0  0  0  0  0  0  0  0  0
   44.2615   35.0964   45.3719 H   0  0  0  0  0  0  0  0  0  0  0  0
   48.6065   35.7429   42.7109 H   0  0  0  0  0  0  0  0  0  0  0  0
   49.4490   36.1717   40.4307 H   0  0  0  0  0  0  0  0  0  0  0  0
   48.5198   34.8972   38.6242 H   0  0  0  0  0  0  0  0  0  0  0  0
   45.0623   31.5224   47.1415 H   0  0  0  0  0  0  0  0  0  0  0  0
   44.4971   29.0375   48.0651 H   0  0  0  0  0  0  0  0  0  0  0  0
   45.3468   28.4737   49.1656 H   0  0  0  0  0  0  0  0  0  0  0  0
   46.6900   33.0486   38.6378 C   0  0  0  0  0  0  0  0  0  0  0  0
   46.6947   33.6531   37.4376 N   0  0  0  0  0  0  0  0  0  0  0  0
   46.3041   33.1335   36.2899 C   0  0  0  0  0  0  0  0  0  0  0  0
   45.8415   31.8711   36.2446 N   0  0  0  0  0  0  0  0  0  0  0  0
   45.7863   31.1485   37.4001 C   0  0  0  0  0  0  0  0  0  0  0  0
   45.3162   29.8535   37.3786 C   0  0  0  0  0  0  0  0  0  0  0  0
   45.2506   29.0949   38.5486 C   0  0  0  0  0  0  0  0  0  0  0  0
   44.8652   28.0973   38.4007 H   0  0  0  0  0  0  0  0  0  0  0  0
   45.6852   29.7241   39.7214 C   0  0  0  0  0  0  0  0  0  0  0  0
   45.6107   29.0861   40.5962 H   0  0  0  0  0  0  0  0  0  0  0  0
   46.1415   31.0152   39.6731 C   0  0  0  0  0  0  0  0  0  0  0  0
   46.2120   31.7662   38.5462 C   0  0  0  0  0  0  0  0  0  0  0  0
   46.3827   33.7801   35.4203 H   0  0  0  0  0  0  0  0  0  0  0  0
   45.0037   29.4693   36.3968 H   0  0  0  0  0  0  0  0  0  0  0  0
   46.4384   31.3752   40.6159 H   0  0  0  0  0  0  0  0  0  0  0  0
  1  6  1  0
  2  1  1  0
  2  3  1  0
  3  4  1  0
  4  5  1  0
  6 19  1  0
  6  5  1  0
  7  8  2  0
  7  1  1  0
  9  8  1  0
 10  9  2  0
 11 10  1  0
 11 12  2  0
 12  7  1  0
 13 11  1  0
 14 13  2  0
 15 14  1  0
 16 17  1  0
 16 15  2  0
 17 18  2  0
 18 13  1  0
 19 20  1  0
 20 21  2  0
 22 20  1  0
  1 23  1  1
  2 24  1  0
  2 25  1  0
  3 26  1  0
  3 27  1  0
  4 28  1  0
  4 29  1  0
  5 30  1  0
  5 31  1  0
  6 32  1  1
  8 33  1  0
  9 34  1  0
 14 35  1  0
 15 36  1  0
 16 37  1  0
 19 38  1  0
 22 39  1  0
 22 40  1  0
 41 42  2  0
 42 43  1  0
 43 44  2  0
 44 45  1  0
 45 46  2  0
 46 47  1  0
 47 48  1  0
 47 49  2  0
 49 50  1  0
 49 51  1  0
 51 52  2  0
 52 41  1  0
 52 45  1  0
 43 53  1  0
 46 54  1  0
 51 55  1  0
 17 41  1  0
M  ISO  8  23  13  24  13  25  13  26  13  27  13  28  13  29  13  30  13
M  ISO  8  31  13  32  13  33  14  34  14  35  14  36  14  37  14  48  16
M  ISO  1  50  16
M  END
>  <DihAtoms>  (1) 
15,16,40,41

>  <DihDeg>  (1) 
0.00436925186778928

$$$$
