
 OpenBabel03242516153D

 44 48  0  0  0  0  0  0  0  0999 V2000
   36.1710   28.8410   39.9710 C   0  0  0  0  0  0  0  0  0  0  0  0
   35.7100   30.1360   40.6490 C   0  0  0  0  0  0  0  0  0  0  0  0
   34.7930   29.0480   40.3990 C   0  0  0  0  0  0  0  0  0  0  0  0
   35.7430   31.0280   39.9760 H   0  0  0  0  0  0  0  0  0  0  0  0
   36.0700   30.3850   41.6550 H   0  0  0  0  0  0  0  0  0  0  0  0
   33.9590   29.3000   39.6780 H   0  0  0  0  0  0  0  0  0  0  0  0
   34.3680   28.5000   41.2920 H   0  0  0  0  0  0  0  0  0  0  0  0
   37.0960   28.0360   40.8070 C   0  0  0  0  0  0  0  0  0  0  0  0
   37.3890   26.6320   40.2910 C   0  0  0  0  0  0  0  0  0  0  0  0
   38.5020   26.1110   41.2210 C   0  0  0  0  0  0  0  0  0  0  0  0
   37.8690   25.7860   42.4250 O   0  0  0  0  0  0  0  0  0  0  0  0
   37.6010   27.0560   43.0050 C   0  0  0  0  0  0  0  0  0  0  0  0
   36.4880   27.7210   42.1920 C   0  0  0  0  0  0  0  0  0  0  0  0
   38.0700   28.5130   40.9870 H   0  0  0  0  0  0  0  0  0  0  0  0
   36.4970   26.0140   40.4040 H   0  0  0  0  0  0  0  0  0  0  0  0
   37.8560   26.6270   39.2880 H   0  0  0  0  0  0  0  0  0  0  0  0
   38.8990   25.1620   40.8190 H   0  0  0  0  0  0  0  0  0  0  0  0
   39.2430   26.8900   41.4080 H   0  0  0  0  0  0  0  0  0  0  0  0
   38.5140   27.6720   42.8460 H   0  0  0  0  0  0  0  0  0  0  0  0
   37.3220   26.9590   44.0580 H   0  0  0  0  0  0  0  0  0  0  0  0
   35.6910   26.9580   42.0280 H   0  0  0  0  0  0  0  0  0  0  0  0
   36.1030   28.5980   42.6980 H   0  0  0  0  0  0  0  0  0  0  0  0
   35.5830   28.3510   37.5880 C   0  0  0  0  0  0  0  0  0  0  0  0
   36.4930   28.9330   38.5010 C   0  0  0  0  0  0  0  0  0  0  0  0
   37.6470   29.5340   37.9870 C   0  0  0  0  0  0  0  0  0  0  0  0
   37.7810   29.4970   36.6320 N   0  0  0  0  0  0  0  0  0  0  0  0
   36.9120   28.9460   35.8110 C   0  0  0  0  0  0  0  0  0  0  0  0
   35.8170   28.3730   36.2580 N   0  0  0  0  0  0  0  0  0  0  0  0
   37.1310   28.9760   34.4180 N   0  0  0  0  0  0  0  0  0  0  0  0
   34.6740   27.8740   37.9530 H   0  0  0  0  0  0  0  0  0  0  0  0
   38.0780   28.6200   34.1500 H   0  0  0  0  0  0  0  0  0  0  0  0
   36.3330   29.3430   33.8440 H   0  0  0  0  0  0  0  0  0  0  0  0
   38.5810   30.1640   38.9090 C   0  0  0  0  0  0  0  0  0  0  0  0
   39.6470   29.5980   39.4690 N   0  0  0  0  0  0  0  0  0  0  0  0
   40.5300   30.0950   40.2980 C   0  0  0  0  0  3  0  0  0  0  0  0
   40.4050   31.3730   40.6900 N   0  0  0  0  0  0  0  0  0  0  0  0
   39.3690   32.0870   40.2060 C   0  0  0  0  0  0  0  0  0  0  0  0
   39.2630   33.3910   40.6160 C   0  0  0  0  0  3  0  0  0  0  0  0
   38.2270   34.1610   40.1490 C   0  0  0  0  0  0  0  0  0  0  0  0
   38.1850   35.1810   40.5010 H   0  0  0  0  0  0  0  0  0  0  0  0
   37.3110   33.6040   39.2720 C   0  0  0  0  0  0  0  0  0  0  0  0
   36.5320   34.2510   38.9470 H   0  0  0  0  0  0  0  0  0  0  0  0
   37.4990   32.2910   38.9190 C   0  0  0  0  0  3  0  0  0  0  0  0
   38.4950   31.4670   39.3370 C   0  0  0  0  0  0  0  0  0  0  0  0
  1  3  1  0  0  0  0
  1  2  1  0  0  0  0
  1  8  1  0  0  0  0
  2  5  1  0  0  0  0
  3  2  1  0  0  0  0
  3  7  1  0  0  0  0
  4  2  1  0  0  0  0
  6  3  1  0  0  0  0
  8 14  1  0  0  0  0
  8 13  1  0  0  0  0
  9 15  1  0  0  0  0
  9  8  1  0  0  0  0
  9 10  1  0  0  0  0
 10 18  1  0  0  0  0
 10 11  1  0  0  0  0
 11 12  1  0  0  0  0
 12 20  1  0  0  0  0
 13 22  1  0  0  0  0
 13 12  1  0  0  0  0
 16  9  1  0  0  0  0
 17 10  1  0  0  0  0
 19 12  1  0  0  0  0
 21 13  1  0  0  0  0
 23 30  1  0  0  0  0
 23 24  1  0  0  0  0
 24  1  1  0  0  0  0
 25 24  2  0  0  0  0
 25 33  1  0  0  0  0
 26 25  1  0  0  0  0
 27 28  1  0  0  0  0
 27 26  2  0  0  0  0
 28 23  2  0  0  0  0
 29 27  1  0  0  0  0
 31 29  1  0  0  0  0
 32 29  1  0  0  0  0
 33 44  2  0  0  0  0
 33 34  1  0  0  0  0
 34 35  2  0  0  0  0
 35 36  1  0  0  0  0
 37 38  1  0  0  0  0
 37 36  2  0  0  0  0
 39 40  1  0  0  0  0
 39 38  2  0  0  0  0
 41 39  1  0  0  0  0
 42 41  1  0  0  0  0
 43 41  2  0  0  0  0
 43 44  1  0  0  0  0
 44 37  1  0  0  0  0
M  END
>  <minimizedAffinity>
-6.3416996

$$$$

 OpenBabel03242516153D

 44 48  0  0  0  0  0  0  0  0999 V2000
   38.5320   29.1940   38.7020 C   0  0  0  0  0  0  0  0  0  0  0  0
   39.7360   28.8990   37.8000 C   0  0  0  0  0  0  0  0  0  0  0  0
   39.5030   28.1520   39.0140 C   0  0  0  0  0  0  0  0  0  0  0  0
   40.4830   29.7300   37.7690 H   0  0  0  0  0  0  0  0  0  0  0  0
   39.5800   28.4700   36.8030 H   0  0  0  0  0  0  0  0  0  0  0  0
   40.3070   28.2790   39.7990 H   0  0  0  0  0  0  0  0  0  0  0  0
   39.2380   27.0570   38.9180 H   0  0  0  0  0  0  0  0  0  0  0  0
   37.2310   28.8370   38.0830 C   0  0  0  0  0  0  0  0  0  0  0  0
   36.0690   29.7610   38.4250 C   0  0  0  0  0  0  0  0  0  0  0  0
   34.9230   29.2830   37.5110 C   0  0  0  0  0  0  0  0  0  0  0  0
   34.4510   28.0980   38.0850 O   0  0  0  0  0  0  0  0  0  0  0  0
   35.4660   27.1550   37.7660 C   0  0  0  0  0  0  0  0  0  0  0  0
   36.6990   27.4860   38.6090 C   0  0  0  0  0  0  0  0  0  0  0  0
   37.2610   28.7630   36.9860 H   0  0  0  0  0  0  0  0  0  0  0  0
   35.7900   29.6170   39.4700 H   0  0  0  0  0  0  0  0  0  0  0  0
   36.2400   30.8080   38.1110 H   0  0  0  0  0  0  0  0  0  0  0  0
   34.0880   30.0030   37.5670 H   0  0  0  0  0  0  0  0  0  0  0  0
   35.2950   29.0690   36.5080 H   0  0  0  0  0  0  0  0  0  0  0  0
   35.7510   27.3480   36.7070 H   0  0  0  0  0  0  0  0  0  0  0  0
   35.1250   26.1310   37.9420 H   0  0  0  0  0  0  0  0  0  0  0  0
   36.3540   27.6600   39.6550 H   0  0  0  0  0  0  0  0  0  0  0  0
   37.4330   26.6900   38.5590 H   0  0  0  0  0  0  0  0  0  0  0  0
   38.8410   31.6770   38.7700 C   0  0  0  0  0  0  0  0  0  0  0  0
   38.5790   30.4840   39.4820 C   0  0  0  0  0  0  0  0  0  0  0  0
   38.4050   30.5690   40.8680 C   0  0  0  0  0  0  0  0  0  0  0  0
   38.5080   31.8170   41.4020 N   0  0  0  0  0  0  0  0  0  0  0  0
   38.7530   32.9080   40.7070 C   0  0  0  0  0  0  0  0  0  0  0  0
   38.9210   32.8670   39.4040 N   0  0  0  0  0  0  0  0  0  0  0  0
   38.8220   34.1610   41.3520 N   0  0  0  0  0  0  0  0  0  0  0  0
   38.9820   31.6490   37.6900 H   0  0  0  0  0  0  0  0  0  0  0  0
   39.4770   34.1610   42.1670 H   0  0  0  0  0  0  0  0  0  0  0  0
   38.2200   34.9150   40.9380 H   0  0  0  0  0  0  0  0  0  0  0  0
   38.1070   29.3550   41.6140 C   0  0  0  0  0  0  0  0  0  0  0  0
   36.9150   28.7780   41.7480 N   0  0  0  0  0  0  0  0  0  0  0  0
   36.5710   27.6930   42.3950 C   0  0  0  0  0  3  0  0  0  0  0  0
   37.5160   26.9980   43.0490 N   0  0  0  0  0  0  0  0  0  0  0  0
   38.7830   27.4570   43.0080 C   0  0  0  0  0  0  0  0  0  0  0  0
   39.7320   26.7300   43.6800 C   0  0  0  0  0  3  0  0  0  0  0  0
   41.0380   27.1540   43.6650 C   0  0  0  0  0  0  0  0  0  0  0  0
   41.7490   26.5510   44.2090 H   0  0  0  0  0  0  0  0  0  0  0  0
   41.3690   28.3070   42.9700 C   0  0  0  0  0  0  0  0  0  0  0  0
   42.3960   28.5810   42.9980 H   0  0  0  0  0  0  0  0  0  0  0  0
   40.3510   28.9660   42.3290 C   0  0  0  0  0  3  0  0  0  0  0  0
   39.0390   28.6110   42.2980 C   0  0  0  0  0  0  0  0  0  0  0  0
  1  3  1  0  0  0  0
  1 24  1  0  0  0  0
  2  1  1  0  0  0  0
  2  3  1  0  0  0  0
  3  6  1  0  0  0  0
  4  2  1  0  0  0  0
  5  2  1  0  0  0  0
  7  3  1  0  0  0  0
  8  9  1  0  0  0  0
  8 13  1  0  0  0  0
  8  1  1  0  0  0  0
  9 15  1  0  0  0  0
 10 17  1  0  0  0  0
 10 11  1  0  0  0  0
 10  9  1  0  0  0  0
 12 20  1  0  0  0  0
 12 11  1  0  0  0  0
 12 13  1  0  0  0  0
 13 21  1  0  0  0  0
 14  8  1  0  0  0  0
 16  9  1  0  0  0  0
 18 10  1  0  0  0  0
 19 12  1  0  0  0  0
 22 13  1  0  0  0  0
 23 28  2  0  0  0  0
 23 24  1  0  0  0  0
 24 25  2  0  0  0  0
 25 26  1  0  0  0  0
 25 33  1  0  0  0  0
 27 29  1  0  0  0  0
 27 26  2  0  0  0  0
 28 27  1  0  0  0  0
 29 31  1  0  0  0  0
 30 23  1  0  0  0  0
 32 29  1  0  0  0  0
 33 34  2  0  0  0  0
 33 44  1  0  0  0  0
 34 35  1  0  0  0  0
 35 36  2  0  0  0  0
 37 36  1  0  0  0  0
 37 38  1  0  0  0  0
 39 38  2  0  0  0  0
 39 40  1  0  0  0  0
 41 42  1  0  0  0  0
 41 39  1  0  0  0  0
 43 41  2  0  0  0  0
 44 43  1  0  0  0  0
 44 37  2  0  0  0  0
M  END
>  <minimizedAffinity>
-6.11658955

$$$$

 OpenBabel03242516153D

 44 48  0  0  0  0  0  0  0  0999 V2000
   38.0320   27.7280   42.6790 C   0  0  0  0  0  0  0  0  0  0  0  0
   36.8940   27.9630   43.6790 C   0  0  0  0  0  0  0  0  0  0  0  0
   36.6590   27.3210   42.4060 C   0  0  0  0  0  0  0  0  0  0  0  0
   36.6520   29.0440   43.8320 H   0  0  0  0  0  0  0  0  0  0  0  0
   36.8780   27.4150   44.6290 H   0  0  0  0  0  0  0  0  0  0  0  0
   35.9750   27.8970   41.7140 H   0  0  0  0  0  0  0  0  0  0  0  0
   36.3580   26.2310   42.4120 H   0  0  0  0  0  0  0  0  0  0  0  0
   39.0250   26.7270   43.1430 C   0  0  0  0  0  0  0  0  0  0  0  0
   40.4720   27.0160   42.7610 C   0  0  0  0  0  0  0  0  0  0  0  0
   41.2850   25.9510   43.5230 C   0  0  0  0  0  0  0  0  0  0  0  0
   41.0960   24.7560   42.8220 O   0  0  0  0  0  0  0  0  0  0  0  0
   39.7680   24.3830   43.1660 C   0  0  0  0  0  0  0  0  0  0  0  0
   38.8100   25.3530   42.4710 C   0  0  0  0  0  0  0  0  0  0  0  0
   39.0160   26.5550   44.2290 H   0  0  0  0  0  0  0  0  0  0  0  0
   40.5950   26.8730   41.6870 H   0  0  0  0  0  0  0  0  0  0  0  0
   40.8440   27.9760   43.1660 H   0  0  0  0  0  0  0  0  0  0  0  0
   42.3610   26.1860   43.4410 H   0  0  0  0  0  0  0  0  0  0  0  0
   40.9050   25.8310   44.5390 H   0  0  0  0  0  0  0  0  0  0  0  0
   39.6630   24.5700   44.2580 H   0  0  0  0  0  0  0  0  0  0  0  0
   39.5620   23.3470   42.8820 H   0  0  0  0  0  0  0  0  0  0  0  0
   39.1470   25.4560   41.4120 H   0  0  0  0  0  0  0  0  0  0  0  0
   37.7860   25.0040   42.5310 H   0  0  0  0  0  0  0  0  0  0  0  0
   39.0500   30.0110   42.7880 C   0  0  0  0  0  0  0  0  0  0  0  0
   38.5760   28.9500   41.9830 C   0  0  0  0  0  0  0  0  0  0  0  0
   38.6180   29.1070   40.5940 C   0  0  0  0  0  0  0  0  0  0  0  0
   39.1200   30.2920   40.1470 N   0  0  0  0  0  0  0  0  0  0  0  0
   39.5540   31.2600   40.9270 C   0  0  0  0  0  0  0  0  0  0  0  0
   39.5310   31.1470   42.2360 N   0  0  0  0  0  0  0  0  0  0  0  0
   40.0750   32.4450   40.3670 N   0  0  0  0  0  0  0  0  0  0  0  0
   39.0330   29.9230   43.8740 H   0  0  0  0  0  0  0  0  0  0  0  0
   39.4310   32.8780   39.6650 H   0  0  0  0  0  0  0  0  0  0  0  0
   41.0210   32.7320   40.7190 H   0  0  0  0  0  0  0  0  0  0  0  0
   38.1610   28.0140   39.7490 C   0  0  0  0  0  0  0  0  0  0  0  0
   38.8330   26.9040   39.4540 N   0  0  0  0  0  0  0  0  0  0  0  0
   38.4900   25.8820   38.7100 C   0  0  0  0  0  3  0  0  0  0  0  0
   37.2840   25.8830   38.1200 N   0  0  0  0  0  0  0  0  0  0  0  0
   36.4790   26.9450   38.3240 C   0  0  0  0  0  0  0  0  0  0  0  0
   35.2510   26.9230   37.7150 C   0  0  0  0  0  3  0  0  0  0  0  0
   34.3930   27.9800   37.8940 C   0  0  0  0  0  0  0  0  0  0  0  0
   33.4380   27.9180   37.3940 H   0  0  0  0  0  0  0  0  0  0  0  0
   34.7860   29.0450   38.6880 C   0  0  0  0  0  0  0  0  0  0  0  0
   34.0770   29.8310   38.7860 H   0  0  0  0  0  0  0  0  0  0  0  0
   36.0340   28.9770   39.2550 C   0  0  0  0  0  3  0  0  0  0  0  0
   36.9370   27.9700   39.1250 C   0  0  0  0  0  0  0  0  0  0  0  0
  1  8  1  0  0  0  0
  1  2  1  0  0  0  0
  2  4  1  0  0  0  0
  2  5  1  0  0  0  0
  3  7  1  0  0  0  0
  3  1  1  0  0  0  0
  3  2  1  0  0  0  0
  6  3  1  0  0  0  0
  8 14  1  0  0  0  0
  9  8  1  0  0  0  0
  9 16  1  0  0  0  0
  9 10  1  0  0  0  0
 10 18  1  0  0  0  0
 11 12  1  0  0  0  0
 11 10  1  0  0  0  0
 12 19  1  0  0  0  0
 13 22  1  0  0  0  0
 13  8  1  0  0  0  0
 13 12  1  0  0  0  0
 15  9  1  0  0  0  0
 17 10  1  0  0  0  0
 20 12  1  0  0  0  0
 21 13  1  0  0  0  0
 23 30  1  0  0  0  0
 24  1  1  0  0  0  0
 24 23  2  0  0  0  0
 25 24  1  0  0  0  0
 26 25  2  0  0  0  0
 26 27  1  0  0  0  0
 27 28  2  0  0  0  0
 28 23  1  0  0  0  0
 29 32  1  0  0  0  0
 29 27  1  0  0  0  0
 31 29  1  0  0  0  0
 33 25  1  0  0  0  0
 34 33  1  0  0  0  0
 35 34  2  0  0  0  0
 36 37  2  0  0  0  0
 36 35  1  0  0  0  0
 37 44  1  0  0  0  0
 38 39  2  0  0  0  0
 38 37  1  0  0  0  0
 39 41  1  0  0  0  0
 40 39  1  0  0  0  0
 41 42  1  0  0  0  0
 41 43  2  0  0  0  0
 44 43  1  0  0  0  0
 44 33  2  0  0  0  0
M  END
>  <minimizedAffinity>
-6.0071106

$$$$

 OpenBabel03242516153D

 44 48  0  0  0  0  0  0  0  0999 V2000
   37.5380   26.9990   42.1570 C   0  0  0  0  0  0  0  0  0  0  0  0
   36.5700   27.3820   43.2810 C   0  0  0  0  0  0  0  0  0  0  0  0
   36.4730   27.9750   41.9670 C   0  0  0  0  0  0  0  0  0  0  0  0
   37.0600   27.9280   44.1240 H   0  0  0  0  0  0  0  0  0  0  0  0
   35.8450   26.6480   43.6530 H   0  0  0  0  0  0  0  0  0  0  0  0
   36.6600   29.0900   41.9460 H   0  0  0  0  0  0  0  0  0  0  0  0
   35.5600   27.7340   41.3450 H   0  0  0  0  0  0  0  0  0  0  0  0
   37.3630   25.6050   41.6780 C   0  0  0  0  0  0  0  0  0  0  0  0
   38.6500   24.8640   41.3360 C   0  0  0  0  0  0  0  0  0  0  0  0
   38.1940   23.4160   41.0680 C   0  0  0  0  0  0  0  0  0  0  0  0
   37.5970   23.4350   39.8040 O   0  0  0  0  0  0  0  0  0  0  0  0
   36.3500   24.0750   40.0420 C   0  0  0  0  0  0  0  0  0  0  0  0
   36.6240   25.5530   40.3230 C   0  0  0  0  0  0  0  0  0  0  0  0
   36.8040   24.9590   42.3710 H   0  0  0  0  0  0  0  0  0  0  0  0
   39.0790   25.2880   40.4280 H   0  0  0  0  0  0  0  0  0  0  0  0
   39.3390   24.7710   42.1980 H   0  0  0  0  0  0  0  0  0  0  0  0
   39.0820   22.7660   40.9770 H   0  0  0  0  0  0  0  0  0  0  0  0
   37.4540   23.1030   41.8060 H   0  0  0  0  0  0  0  0  0  0  0  0
   35.9540   23.6450   40.9890 H   0  0  0  0  0  0  0  0  0  0  0  0
   35.6720   23.9490   39.1930 H   0  0  0  0  0  0  0  0  0  0  0  0
   37.3420   25.9150   39.5500 H   0  0  0  0  0  0  0  0  0  0  0  0
   35.7070   26.1310   40.3150 H   0  0  0  0  0  0  0  0  0  0  0  0
   39.6600   27.1570   43.4740 C   0  0  0  0  0  0  0  0  0  0  0  0
   38.9560   27.4940   42.2950 C   0  0  0  0  0  0  0  0  0  0  0  0
   39.6080   28.2840   41.3420 C   0  0  0  0  0  0  0  0  0  0  0  0
   40.8800   28.6590   41.6530 N   0  0  0  0  0  0  0  0  0  0  0  0
   41.5060   28.3260   42.7630 C   0  0  0  0  0  0  0  0  0  0  0  0
   40.9260   27.5840   43.6800 N   0  0  0  0  0  0  0  0  0  0  0  0
   42.8320   28.7480   42.9850 N   0  0  0  0  0  0  0  0  0  0  0  0
   39.1840   26.5430   44.2380 H   0  0  0  0  0  0  0  0  0  0  0  0
   42.9560   29.7790   42.8580 H   0  0  0  0  0  0  0  0  0  0  0  0
   43.5100   27.9890   43.2420 H   0  0  0  0  0  0  0  0  0  0  0  0
   38.9090   28.6170   40.1100 C   0  0  0  0  0  0  0  0  0  0  0  0
   38.7310   27.8220   39.0580 N   0  0  0  0  0  0  0  0  0  0  0  0
   38.1160   28.0460   37.9240 C   0  0  0  0  0  3  0  0  0  0  0  0
   37.5490   29.2460   37.7180 N   0  0  0  0  0  0  0  0  0  0  0  0
   37.6430   30.1680   38.6970 C   0  0  0  0  0  0  0  0  0  0  0  0
   37.0550   31.3850   38.4670 C   0  0  0  0  0  3  0  0  0  0  0  0
   37.1200   32.3570   39.4350 C   0  0  0  0  0  0  0  0  0  0  0  0
   36.6430   33.2990   39.2080 H   0  0  0  0  0  0  0  0  0  0  0  0
   37.7780   32.0870   40.6240 C   0  0  0  0  0  0  0  0  0  0  0  0
   37.7930   32.8800   41.3320 H   0  0  0  0  0  0  0  0  0  0  0  0
   38.3360   30.8410   40.7620 C   0  0  0  0  0  3  0  0  0  0  0  0
   38.3140   29.8300   39.8540 C   0  0  0  0  0  0  0  0  0  0  0  0
  1 24  1  0  0  0  0
  1  2  1  0  0  0  0
  2  5  1  0  0  0  0
  2  4  1  0  0  0  0
  3  1  1  0  0  0  0
  3  2  1  0  0  0  0
  6  3  1  0  0  0  0
  7  3  1  0  0  0  0
  8  1  1  0  0  0  0
  8 14  1  0  0  0  0
  9  8  1  0  0  0  0
  9 16  1  0  0  0  0
 10  9  1  0  0  0  0
 10 18  1  0  0  0  0
 11 12  1  0  0  0  0
 11 10  1  0  0  0  0
 12 13  1  0  0  0  0
 12 19  1  0  0  0  0
 13  8  1  0  0  0  0
 15  9  1  0  0  0  0
 17 10  1  0  0  0  0
 20 12  1  0  0  0  0
 21 13  1  0  0  0  0
 22 13  1  0  0  0  0
 23 28  1  0  0  0  0
 23 30  1  0  0  0  0
 24 23  2  0  0  0  0
 25 26  2  0  0  0  0
 25 24  1  0  0  0  0
 26 27  1  0  0  0  0
 27 29  1  0  0  0  0
 27 28  2  0  0  0  0
 29 32  1  0  0  0  0
 31 29  1  0  0  0  0
 33 25  1  0  0  0  0
 34 33  2  0  0  0  0
 35 34  1  0  0  0  0
 36 35  2  0  0  0  0
 36 37  1  0  0  0  0
 37 44  1  0  0  0  0
 38 37  2  0  0  0  0
 38 39  1  0  0  0  0
 39 41  2  0  0  0  0
 40 39  1  0  0  0  0
 41 43  1  0  0  0  0
 41 42  1  0  0  0  0
 44 33  1  0  0  0  0
 44 43  2  0  0  0  0
M  END
>  <minimizedAffinity>
-5.94764042

$$$$

 OpenBabel03242516153D

 44 48  0  0  0  0  0  0  0  0999 V2000
   38.2320   29.6680   38.3530 C   0  0  0  0  0  0  0  0  0  0  0  0
   39.1750   28.4990   38.6570 C   0  0  0  0  0  0  0  0  0  0  0  0
   39.2010   29.1760   37.3810 C   0  0  0  0  0  0  0  0  0  0  0  0
   38.6460   27.5210   38.7790 H   0  0  0  0  0  0  0  0  0  0  0  0
   39.9680   28.6160   39.4050 H   0  0  0  0  0  0  0  0  0  0  0  0
   38.9110   28.5250   36.5040 H   0  0  0  0  0  0  0  0  0  0  0  0
   40.1240   29.7740   37.1200 H   0  0  0  0  0  0  0  0  0  0  0  0
   38.5300   30.8860   39.1480 C   0  0  0  0  0  0  0  0  0  0  0  0
   37.4520   31.9630   39.1220 C   0  0  0  0  0  0  0  0  0  0  0  0
   37.9240   32.9970   40.1650 C   0  0  0  0  0  0  0  0  0  0  0  0
   38.9670   33.7000   39.5550 O   0  0  0  0  0  0  0  0  0  0  0  0
   40.0450   32.7730   39.5820 C   0  0  0  0  0  0  0  0  0  0  0  0
   39.7370   31.6620   38.5770 C   0  0  0  0  0  0  0  0  0  0  0  0
   38.7500   30.6880   40.2070 H   0  0  0  0  0  0  0  0  0  0  0  0
   37.4270   32.4240   38.1340 H   0  0  0  0  0  0  0  0  0  0  0  0
   36.4790   31.6130   39.5160 H   0  0  0  0  0  0  0  0  0  0  0  0
   37.1190   33.7330   40.3380 H   0  0  0  0  0  0  0  0  0  0  0  0
   38.3060   32.4960   41.0560 H   0  0  0  0  0  0  0  0  0  0  0  0
   40.0240   32.2990   40.5890 H   0  0  0  0  0  0  0  0  0  0  0  0
   40.9960   33.2650   39.3550 H   0  0  0  0  0  0  0  0  0  0  0  0
   39.3910   32.1480   37.6350 H   0  0  0  0  0  0  0  0  0  0  0  0
   40.6040   31.0360   38.4060 H   0  0  0  0  0  0  0  0  0  0  0  0
   36.2020   29.5700   36.8940 C   0  0  0  0  0  0  0  0  0  0  0  0
   36.7760   29.3240   38.1620 C   0  0  0  0  0  0  0  0  0  0  0  0
   35.9550   28.8020   39.1670 C   0  0  0  0  0  0  0  0  0  0  0  0
   34.6580   28.5790   38.8160 N   0  0  0  0  0  0  0  0  0  0  0  0
   34.1560   28.8190   37.6220 C   0  0  0  0  0  0  0  0  0  0  0  0
   34.8980   29.3090   36.6540 N   0  0  0  0  0  0  0  0  0  0  0  0
   32.8020   28.5360   37.3500 N   0  0  0  0  0  0  0  0  0  0  0  0
   36.8110   29.9770   36.0870 H   0  0  0  0  0  0  0  0  0  0  0  0
   32.1510   28.9610   38.0510 H   0  0  0  0  0  0  0  0  0  0  0  0
   32.6270   27.9480   36.4990 H   0  0  0  0  0  0  0  0  0  0  0  0
   36.5360   28.5160   40.4700 C   0  0  0  0  0  0  0  0  0  0  0  0
   36.8090   29.3970   41.4290 N   0  0  0  0  0  0  0  0  0  0  0  0
   37.3240   29.2180   42.6190 C   0  0  0  0  0  3  0  0  0  0  0  0
   37.6530   27.9740   43.0050 N   0  0  0  0  0  0  0  0  0  0  0  0
   37.4350   26.9640   42.1390 C   0  0  0  0  0  0  0  0  0  0  0  0
   37.7760   25.7020   42.5550 C   0  0  0  0  0  3  0  0  0  0  0  0
   37.5700   24.6390   41.7120 C   0  0  0  0  0  0  0  0  0  0  0  0
   37.8540   23.6650   42.0820 H   0  0  0  0  0  0  0  0  0  0  0  0
   37.0220   24.8630   40.4580 C   0  0  0  0  0  0  0  0  0  0  0  0
   36.8890   23.9980   39.8540 H   0  0  0  0  0  0  0  0  0  0  0  0
   36.7150   26.1590   40.1320 C   0  0  0  0  0  3  0  0  0  0  0  0
   36.8880   27.2610   40.9090 C   0  0  0  0  0  0  0  0  0  0  0  0
  1  2  1  0  0  0  0
  1  8  1  0  0  0  0
  2  4  1  0  0  0  0
  2  5  1  0  0  0  0
  3  1  1  0  0  0  0
  3  2  1  0  0  0  0
  6  3  1  0  0  0  0
  7  3  1  0  0  0  0
  8 14  1  0  0  0  0
  9  8  1  0  0  0  0
  9 16  1  0  0  0  0
  9 10  1  0  0  0  0
 10 17  1  0  0  0  0
 10 18  1  0  0  0  0
 11 12  1  0  0  0  0
 11 10  1  0  0  0  0
 12 19  1  0  0  0  0
 13  8  1  0  0  0  0
 13 12  1  0  0  0  0
 15  9  1  0  0  0  0
 20 12  1  0  0  0  0
 21 13  1  0  0  0  0
 22 13  1  0  0  0  0
 23 24  1  0  0  0  0
 24  1  1  0  0  0  0
 24 25  2  0  0  0  0
 25 33  1  0  0  0  0
 26 25  1  0  0  0  0
 27 26  2  0  0  0  0
 28 23  2  0  0  0  0
 28 27  1  0  0  0  0
 29 27  1  0  0  0  0
 29 31  1  0  0  0  0
 30 23  1  0  0  0  0
 32 29  1  0  0  0  0
 33 44  2  0  0  0  0
 33 34  1  0  0  0  0
 34 35  2  0  0  0  0
 35 36  1  0  0  0  0
 37 38  1  0  0  0  0
 37 36  2  0  0  0  0
 39 40  1  0  0  0  0
 39 38  2  0  0  0  0
 41 39  1  0  0  0  0
 42 41  1  0  0  0  0
 43 41  2  0  0  0  0
 43 44  1  0  0  0  0
 44 37  1  0  0  0  0
M  END
>  <minimizedAffinity>
-5.94632149

$$$$

 OpenBabel03242516153D

 44 48  0  0  0  0  0  0  0  0999 V2000
   37.5820   27.9020   42.3010 C   0  0  0  0  0  0  0  0  0  0  0  0
   38.5570   27.7810   43.4770 C   0  0  0  0  0  0  0  0  0  0  0  0
   37.1270   27.7700   43.6800 C   0  0  0  0  0  0  0  0  0  0  0  0
   39.1570   28.7070   43.6550 H   0  0  0  0  0  0  0  0  0  0  0  0
   39.1760   26.8820   43.5850 H   0  0  0  0  0  0  0  0  0  0  0  0
   36.7370   28.6430   44.2820 H   0  0  0  0  0  0  0  0  0  0  0  0
   36.6540   26.8130   44.0520 H   0  0  0  0  0  0  0  0  0  0  0  0
   37.5910   26.7180   41.4050 C   0  0  0  0  0  0  0  0  0  0  0  0
   36.7260   26.8380   40.1560 C   0  0  0  0  0  0  0  0  0  0  0  0
   37.0740   25.5820   39.3320 C   0  0  0  0  0  0  0  0  0  0  0  0
   36.4180   24.5210   39.9650 O   0  0  0  0  0  0  0  0  0  0  0  0
   37.1990   24.3070   41.1340 C   0  0  0  0  0  0  0  0  0  0  0  0
   36.9600   25.4820   42.0830 C   0  0  0  0  0  0  0  0  0  0  0  0
   38.5930   26.4200   41.0650 H   0  0  0  0  0  0  0  0  0  0  0  0
   35.6740   26.8100   40.4430 H   0  0  0  0  0  0  0  0  0  0  0  0
   37.0250   27.6780   39.5000 H   0  0  0  0  0  0  0  0  0  0  0  0
   36.6200   25.6670   38.3290 H   0  0  0  0  0  0  0  0  0  0  0  0
   38.1490   25.3970   39.3500 H   0  0  0  0  0  0  0  0  0  0  0  0
   38.2630   24.3730   40.8150 H   0  0  0  0  0  0  0  0  0  0  0  0
   36.9480   23.3530   41.6080 H   0  0  0  0  0  0  0  0  0  0  0  0
   35.8610   25.6620   42.1250 H   0  0  0  0  0  0  0  0  0  0  0  0
   37.3680   25.2810   43.0670 H   0  0  0  0  0  0  0  0  0  0  0  0
   36.2630   29.9410   41.6970 C   0  0  0  0  0  0  0  0  0  0  0  0
   37.4960   29.2530   41.6370 C   0  0  0  0  0  0  0  0  0  0  0  0
   38.5530   29.8560   40.9450 C   0  0  0  0  0  0  0  0  0  0  0  0
   38.2810   31.0670   40.3870 N   0  0  0  0  0  0  0  0  0  0  0  0
   37.1180   31.6800   40.4640 C   0  0  0  0  0  0  0  0  0  0  0  0
   36.1030   31.1450   41.1060 N   0  0  0  0  0  0  0  0  0  0  0  0
   36.9400   32.9450   39.8670 N   0  0  0  0  0  0  0  0  0  0  0  0
   35.4180   29.5020   42.2280 H   0  0  0  0  0  0  0  0  0  0  0  0
   37.2340   32.9640   38.8630 H   0  0  0  0  0  0  0  0  0  0  0  0
   36.5450   33.6880   40.4950 H   0  0  0  0  0  0  0  0  0  0  0  0
   39.8390   29.1750   40.8970 C   0  0  0  0  0  0  0  0  0  0  0  0
   40.1560   28.1280   40.1390 N   0  0  0  0  0  0  0  0  0  0  0  0
   41.2820   27.4690   40.0390 C   0  0  0  0  0  3  0  0  0  0  0  0
   42.3300   27.8530   40.7870 N   0  0  0  0  0  0  0  0  0  0  0  0
   42.1670   28.9070   41.6110 C   0  0  0  0  0  0  0  0  0  0  0  0
   43.2500   29.2840   42.3640 C   0  0  0  0  0  3  0  0  0  0  0  0
   43.1370   30.3530   43.2160 C   0  0  0  0  0  0  0  0  0  0  0  0
   44.0150   30.6120   43.7880 H   0  0  0  0  0  0  0  0  0  0  0  0
   41.9300   31.0300   43.2990 C   0  0  0  0  0  0  0  0  0  0  0  0
   41.9080   31.8480   43.9770 H   0  0  0  0  0  0  0  0  0  0  0  0
   40.9040   30.5790   42.5080 C   0  0  0  0  0  3  0  0  0  0  0  0
   40.9380   29.5310   41.6420 C   0  0  0  0  0  0  0  0  0  0  0  0
  1  2  1  0  0  0  0
  1  3  1  0  0  0  0
  2  5  1  0  0  0  0
  2  4  1  0  0  0  0
  2  3  1  0  0  0  0
  3  7  1  0  0  0  0
  3  6  1  0  0  0  0
  8 13  1  0  0  0  0
  8  1  1  0  0  0  0
  9 15  1  0  0  0  0
  9  8  1  0  0  0  0
 10 18  1  0  0  0  0
 10 11  1  0  0  0  0
 10  9  1  0  0  0  0
 11 12  1  0  0  0  0
 12 20  1  0  0  0  0
 12 13  1  0  0  0  0
 13 21  1  0  0  0  0
 13 22  1  0  0  0  0
 14  8  1  0  0  0  0
 16  9  1  0  0  0  0
 17 10  1  0  0  0  0
 19 12  1  0  0  0  0
 23 30  1  0  0  0  0
 24 23  1  0  0  0  0
 24  1  1  0  0  0  0
 25 24  2  0  0  0  0
 26 27  2  0  0  0  0
 26 25  1  0  0  0  0
 27 28  1  0  0  0  0
 28 23  2  0  0  0  0
 29 27  1  0  0  0  0
 29 32  1  0  0  0  0
 31 29  1  0  0  0  0
 33 25  1  0  0  0  0
 33 44  1  0  0  0  0
 34 33  2  0  0  0  0
 35 34  1  0  0  0  0
 35 36  2  0  0  0  0
 36 37  1  0  0  0  0
 37 44  2  0  0  0  0
 37 38  1  0  0  0  0
 38 39  2  0  0  0  0
 39 41  1  0  0  0  0
 39 40  1  0  0  0  0
 41 42  1  0  0  0  0
 43 41  2  0  0  0  0
 44 43  1  0  0  0  0
M  END
>  <minimizedAffinity>
-5.92655182

$$$$

 OpenBabel03242516153D

 44 48  0  0  0  0  0  0  0  0999 V2000
   36.2220   29.5080   39.5550 C   0  0  0  0  0  0  0  0  0  0  0  0
   35.9440   28.3350   40.5020 C   0  0  0  0  0  0  0  0  0  0  0  0
   35.0070   29.4250   40.3580 C   0  0  0  0  0  0  0  0  0  0  0  0
   36.6450   28.2900   41.3720 H   0  0  0  0  0  0  0  0  0  0  0  0
   35.7550   27.3350   40.0940 H   0  0  0  0  0  0  0  0  0  0  0  0
   34.8520   30.0320   41.2990 H   0  0  0  0  0  0  0  0  0  0  0  0
   34.0050   29.2010   39.8840 H   0  0  0  0  0  0  0  0  0  0  0  0
   36.1920   29.1260   38.1210 C   0  0  0  0  0  0  0  0  0  0  0  0
   36.8750   30.1020   37.1700 C   0  0  0  0  0  0  0  0  0  0  0  0
   36.8680   29.3750   35.8110 C   0  0  0  0  0  0  0  0  0  0  0  0
   35.5560   29.4710   35.3370 O   0  0  0  0  0  0  0  0  0  0  0  0
   34.8480   28.5430   36.1470 C   0  0  0  0  0  0  0  0  0  0  0  0
   34.7540   29.1240   37.5590 C   0  0  0  0  0  0  0  0  0  0  0  0
   36.6180   28.1340   37.9110 H   0  0  0  0  0  0  0  0  0  0  0  0
   36.2800   31.0140   37.1020 H   0  0  0  0  0  0  0  0  0  0  0  0
   37.9500   30.2430   37.3920 H   0  0  0  0  0  0  0  0  0  0  0  0
   37.4950   29.9350   35.0950 H   0  0  0  0  0  0  0  0  0  0  0  0
   37.1240   28.3220   35.9380 H   0  0  0  0  0  0  0  0  0  0  0  0
   35.4930   27.6390   36.2230 H   0  0  0  0  0  0  0  0  0  0  0  0
   33.8560   28.3330   35.7340 H   0  0  0  0  0  0  0  0  0  0  0  0
   34.4430   30.1910   37.4620 H   0  0  0  0  0  0  0  0  0  0  0  0
   34.0580   28.5610   38.1690 H   0  0  0  0  0  0  0  0  0  0  0  0
   36.9500   31.8280   40.1470 C   0  0  0  0  0  0  0  0  0  0  0  0
   37.3040   30.4700   39.9770 C   0  0  0  0  0  0  0  0  0  0  0  0
   38.6380   30.1060   40.1870 C   0  0  0  0  0  0  0  0  0  0  0  0
   39.4800   31.1170   40.5380 N   0  0  0  0  0  0  0  0  0  0  0  0
   39.1150   32.3730   40.6890 C   0  0  0  0  0  0  0  0  0  0  0  0
   37.8700   32.7510   40.5010 N   0  0  0  0  0  0  0  0  0  0  0  0
   40.0590   33.3460   41.0750 N   0  0  0  0  0  0  0  0  0  0  0  0
   35.9200   32.1470   39.9930 H   0  0  0  0  0  0  0  0  0  0  0  0
   40.9140   33.3430   40.4720 H   0  0  0  0  0  0  0  0  0  0  0  0
   39.7870   33.9360   41.9000 H   0  0  0  0  0  0  0  0  0  0  0  0
   39.0160   28.7070   40.0440 C   0  0  0  0  0  0  0  0  0  0  0  0
   39.2680   28.0640   38.9060 N   0  0  0  0  0  0  0  0  0  0  0  0
   39.6130   26.8190   38.6990 C   0  0  0  0  0  3  0  0  0  0  0  0
   39.7560   25.9990   39.7530 N   0  0  0  0  0  0  0  0  0  0  0  0
   39.5350   26.5050   40.9830 C   0  0  0  0  0  0  0  0  0  0  0  0
   39.6900   25.6510   42.0460 C   0  0  0  0  0  3  0  0  0  0  0  0
   39.4790   26.1190   43.3190 C   0  0  0  0  0  0  0  0  0  0  0  0
   39.6110   25.4100   44.1230 H   0  0  0  0  0  0  0  0  0  0  0  0
   39.1140   27.4430   43.5040 C   0  0  0  0  0  0  0  0  0  0  0  0
   38.9660   27.7420   44.5130 H   0  0  0  0  0  0  0  0  0  0  0  0
   38.9830   28.2190   42.3800 C   0  0  0  0  0  3  0  0  0  0  0  0
   39.1740   27.8310   41.0920 C   0  0  0  0  0  0  0  0  0  0  0  0
  1 24  1  0  0  0  0
  1  3  1  0  0  0  0
  1  2  1  0  0  0  0
  2  4  1  0  0  0  0
  3  2  1  0  0  0  0
  3  6  1  0  0  0  0
  5  2  1  0  0  0  0
  7  3  1  0  0  0  0
  8  1  1  0  0  0  0
  9 16  1  0  0  0  0
  9  8  1  0  0  0  0
 10 18  1  0  0  0  0
 10  9  1  0  0  0  0
 11 10  1  0  0  0  0
 11 12  1  0  0  0  0
 12 19  1  0  0  0  0
 12 13  1  0  0  0  0
 13  8  1  0  0  0  0
 13 22  1  0  0  0  0
 14  8  1  0  0  0  0
 15  9  1  0  0  0  0
 17 10  1  0  0  0  0
 20 12  1  0  0  0  0
 21 13  1  0  0  0  0
 23 28  1  0  0  0  0
 24 23  2  0  0  0  0
 24 25  1  0  0  0  0
 25 26  2  0  0  0  0
 26 27  1  0  0  0  0
 27 29  1  0  0  0  0
 28 27  2  0  0  0  0
 29 32  1  0  0  0  0
 30 23  1  0  0  0  0
 31 29  1  0  0  0  0
 33 25  1  0  0  0  0
 33 44  1  0  0  0  0
 34 33  2  0  0  0  0
 35 34  1  0  0  0  0
 35 36  2  0  0  0  0
 36 37  1  0  0  0  0
 37 44  2  0  0  0  0
 37 38  1  0  0  0  0
 38 39  2  0  0  0  0
 39 41  1  0  0  0  0
 39 40  1  0  0  0  0
 41 42  1  0  0  0  0
 43 41  2  0  0  0  0
 44 43  1  0  0  0  0
M  END
>  <minimizedAffinity>
-5.89046144

$$$$

 OpenBabel03242516153D

 44 48  0  0  0  0  0  0  0  0999 V2000
   37.9070   28.2370   42.2670 C   0  0  0  0  0  0  0  0  0  0  0  0
   36.5050   27.6320   42.3960 C   0  0  0  0  0  0  0  0  0  0  0  0
   37.0780   28.4390   43.4480 C   0  0  0  0  0  0  0  0  0  0  0  0
   36.5060   26.5160   42.4610 H   0  0  0  0  0  0  0  0  0  0  0  0
   35.6930   27.9900   41.7510 H   0  0  0  0  0  0  0  0  0  0  0  0
   37.2470   27.8840   44.4180 H   0  0  0  0  0  0  0  0  0  0  0  0
   36.5990   29.4410   43.6650 H   0  0  0  0  0  0  0  0  0  0  0  0
   37.9980   29.2980   41.2320 C   0  0  0  0  0  0  0  0  0  0  0  0
   39.3060   30.0780   41.2090 C   0  0  0  0  0  0  0  0  0  0  0  0
   39.2040   30.9520   39.9430 C   0  0  0  0  0  0  0  0  0  0  0  0
   38.3240   31.9890   40.2690 O   0  0  0  0  0  0  0  0  0  0  0  0
   37.0540   31.3500   40.2630 C   0  0  0  0  0  0  0  0  0  0  0  0
   36.9810   30.4320   41.4850 C   0  0  0  0  0  0  0  0  0  0  0  0
   37.8280   28.9400   40.2060 H   0  0  0  0  0  0  0  0  0  0  0  0
   39.3600   30.7160   42.0930 H   0  0  0  0  0  0  0  0  0  0  0  0
   40.1900   29.4390   41.0210 H   0  0  0  0  0  0  0  0  0  0  0  0
   40.1810   31.4300   39.7510 H   0  0  0  0  0  0  0  0  0  0  0  0
   38.7880   30.3790   39.1140 H   0  0  0  0  0  0  0  0  0  0  0  0
   37.0420   30.6850   39.3710 H   0  0  0  0  0  0  0  0  0  0  0  0
   36.2420   32.0840   40.2670 H   0  0  0  0  0  0  0  0  0  0  0  0
   37.3550   31.0110   42.3620 H   0  0  0  0  0  0  0  0  0  0  0  0
   35.9720   30.0730   41.6460 H   0  0  0  0  0  0  0  0  0  0  0  0
   39.8290   27.2630   43.5400 C   0  0  0  0  0  0  0  0  0  0  0  0
   39.0640   27.2730   42.3510 C   0  0  0  0  0  0  0  0  0  0  0  0
   39.4400   26.4070   41.3190 C   0  0  0  0  0  0  0  0  0  0  0  0
   40.5290   25.6280   41.5670 N   0  0  0  0  0  0  0  0  0  0  0  0
   41.2190   25.6450   42.6880 C   0  0  0  0  0  0  0  0  0  0  0  0
   40.8940   26.4440   43.6800 N   0  0  0  0  0  0  0  0  0  0  0  0
   42.3230   24.7840   42.8570 N   0  0  0  0  0  0  0  0  0  0  0  0
   39.5650   27.9240   44.3650 H   0  0  0  0  0  0  0  0  0  0  0  0
   43.0100   24.8470   42.0700 H   0  0  0  0  0  0  0  0  0  0  0  0
   42.3120   24.2030   43.7310 H   0  0  0  0  0  0  0  0  0  0  0  0
   38.6470   26.3830   40.0980 C   0  0  0  0  0  0  0  0  0  0  0  0
   38.7960   27.1730   39.0390 N   0  0  0  0  0  0  0  0  0  0  0  0
   38.1290   27.2100   37.9120 C   0  0  0  0  0  3  0  0  0  0  0  0
   37.1230   26.3400   37.7240 N   0  0  0  0  0  0  0  0  0  0  0  0
   36.8470   25.4660   38.7120 C   0  0  0  0  0  0  0  0  0  0  0  0
   35.8180   24.5850   38.4970 C   0  0  0  0  0  3  0  0  0  0  0  0
   35.5000   23.6730   39.4720 C   0  0  0  0  0  0  0  0  0  0  0  0
   34.6820   23.0010   39.2580 H   0  0  0  0  0  0  0  0  0  0  0  0
   36.2250   23.6610   40.6530 C   0  0  0  0  0  0  0  0  0  0  0  0
   35.9290   22.9310   41.3670 H   0  0  0  0  0  0  0  0  0  0  0  0
   37.2360   24.5810   40.7770 C   0  0  0  0  0  3  0  0  0  0  0  0
   37.6100   25.5130   39.8600 C   0  0  0  0  0  0  0  0  0  0  0  0
  1 24  1  0  0  0  0
  1  2  1  0  0  0  0
  1  3  1  0  0  0  0
  2  4  1  0  0  0  0
  2  3  1  0  0  0  0
  3  7  1  0  0  0  0
  3  6  1  0  0  0  0
  5  2  1  0  0  0  0
  8 13  1  0  0  0  0
  8  1  1  0  0  0  0
  9  8  1  0  0  0  0
  9 15  1  0  0  0  0
 10 11  1  0  0  0  0
 10  9  1  0  0  0  0
 12 20  1  0  0  0  0
 12 11  1  0  0  0  0
 12 13  1  0  0  0  0
 13 22  1  0  0  0  0
 13 21  1  0  0  0  0
 14  8  1  0  0  0  0
 16  9  1  0  0  0  0
 17 10  1  0  0  0  0
 18 10  1  0  0  0  0
 19 12  1  0  0  0  0
 23 28  1  0  0  0  0
 23 30  1  0  0  0  0
 24 23  2  0  0  0  0
 25 26  2  0  0  0  0
 25 24  1  0  0  0  0
 26 27  1  0  0  0  0
 27 29  1  0  0  0  0
 27 28  2  0  0  0  0
 29 32  1  0  0  0  0
 31 29  1  0  0  0  0
 33 25  1  0  0  0  0
 34 33  2  0  0  0  0
 35 34  1  0  0  0  0
 36 35  2  0  0  0  0
 36 37  1  0  0  0  0
 37 44  1  0  0  0  0
 38 37  2  0  0  0  0
 38 39  1  0  0  0  0
 39 41  2  0  0  0  0
 40 39  1  0  0  0  0
 41 43  1  0  0  0  0
 41 42  1  0  0  0  0
 44 33  1  0  0  0  0
 44 43  2  0  0  0  0
M  END
>  <minimizedAffinity>
-5.84245682

$$$$

 OpenBabel03242516153D

 44 48  0  0  0  0  0  0  0  0999 V2000
   37.3520   27.6930   42.2830 C   0  0  0  0  0  0  0  0  0  0  0  0
   37.9620   27.5180   43.6780 C   0  0  0  0  0  0  0  0  0  0  0  0
   36.5360   27.4310   43.4630 C   0  0  0  0  0  0  0  0  0  0  0  0
   38.4270   28.4520   44.0810 H   0  0  0  0  0  0  0  0  0  0  0  0
   38.5810   26.6410   43.8990 H   0  0  0  0  0  0  0  0  0  0  0  0
   35.9370   28.2350   43.9850 H   0  0  0  0  0  0  0  0  0  0  0  0
   36.0390   26.4270   43.6210 H   0  0  0  0  0  0  0  0  0  0  0  0
   37.6870   26.5870   41.3510 C   0  0  0  0  0  0  0  0  0  0  0  0
   37.0390   26.6730   39.9750 C   0  0  0  0  0  0  0  0  0  0  0  0
   37.7030   25.5380   39.1710 C   0  0  0  0  0  0  0  0  0  0  0  0
   37.1150   24.3550   39.6300 O   0  0  0  0  0  0  0  0  0  0  0  0
   37.7090   24.1690   40.9070 C   0  0  0  0  0  0  0  0  0  0  0  0
   37.1410   25.2320   41.8510 C   0  0  0  0  0  0  0  0  0  0  0  0
   38.7660   26.4550   41.1820 H   0  0  0  0  0  0  0  0  0  0  0  0
   35.9700   26.4800   40.0680 H   0  0  0  0  0  0  0  0  0  0  0  0
   37.3170   27.5900   39.4200 H   0  0  0  0  0  0  0  0  0  0  0  0
   37.4190   25.6290   38.1080 H   0  0  0  0  0  0  0  0  0  0  0  0
   38.7750   25.5020   39.3710 H   0  0  0  0  0  0  0  0  0  0  0  0
   38.7900   24.4040   40.7870 H   0  0  0  0  0  0  0  0  0  0  0  0
   37.5250   23.1600   41.2870 H   0  0  0  0  0  0  0  0  0  0  0  0
   36.0360   25.2550   41.7040 H   0  0  0  0  0  0  0  0  0  0  0  0
   37.4020   25.0210   42.8810 H   0  0  0  0  0  0  0  0  0  0  0  0
   36.1300   29.7370   41.5120 C   0  0  0  0  0  0  0  0  0  0  0  0
   37.3710   29.0890   41.7130 C   0  0  0  0  0  0  0  0  0  0  0  0
   38.5370   29.7710   41.3470 C   0  0  0  0  0  0  0  0  0  0  0  0
   38.3560   31.0140   40.8230 N   0  0  0  0  0  0  0  0  0  0  0  0
   37.1830   31.5880   40.6510 C   0  0  0  0  0  0  0  0  0  0  0  0
   36.0670   30.9780   40.9830 N   0  0  0  0  0  0  0  0  0  0  0  0
   37.1000   32.8900   40.1170 N   0  0  0  0  0  0  0  0  0  0  0  0
   35.2020   29.2360   41.7850 H   0  0  0  0  0  0  0  0  0  0  0  0
   37.6300   32.9950   39.2210 H   0  0  0  0  0  0  0  0  0  0  0  0
   36.5300   33.5720   40.6760 H   0  0  0  0  0  0  0  0  0  0  0  0
   39.8240   29.1310   41.5730 C   0  0  0  0  0  0  0  0  0  0  0  0
   40.4850   29.0600   42.7260 N   0  0  0  0  0  0  0  0  0  0  0  0
   41.6370   28.5040   43.0060 C   0  0  0  0  0  3  0  0  0  0  0  0
   42.3170   27.8870   42.0270 N   0  0  0  0  0  0  0  0  0  0  0  0
   41.7750   27.8710   40.7920 C   0  0  0  0  0  0  0  0  0  0  0  0
   42.4850   27.2330   39.8070 C   0  0  0  0  0  3  0  0  0  0  0  0
   41.9740   27.1860   38.5340 C   0  0  0  0  0  0  0  0  0  0  0  0
   42.5690   26.6740   37.7920 H   0  0  0  0  0  0  0  0  0  0  0  0
   40.7530   27.7850   38.2700 C   0  0  0  0  0  0  0  0  0  0  0  0
   40.4130   27.7140   37.2650 H   0  0  0  0  0  0  0  0  0  0  0  0
   40.1170   28.4000   39.3200 C   0  0  0  0  0  3  0  0  0  0  0  0
   40.5560   28.4880   40.6030 C   0  0  0  0  0  0  0  0  0  0  0  0
  1  3  1  0  0  0  0
  1  2  1  0  0  0  0
  2  5  1  0  0  0  0
  2  4  1  0  0  0  0
  3  7  1  0  0  0  0
  3  2  1  0  0  0  0
  3  6  1  0  0  0  0
  8 13  1  0  0  0  0
  8  1  1  0  0  0  0
  9 15  1  0  0  0  0
  9  8  1  0  0  0  0
 10 18  1  0  0  0  0
 10 11  1  0  0  0  0
 10  9  1  0  0  0  0
 11 12  1  0  0  0  0
 12 20  1  0  0  0  0
 12 13  1  0  0  0  0
 13 22  1  0  0  0  0
 14  8  1  0  0  0  0
 16  9  1  0  0  0  0
 17 10  1  0  0  0  0
 19 12  1  0  0  0  0
 21 13  1  0  0  0  0
 23 24  1  0  0  0  0
 23 30  1  0  0  0  0
 24  1  1  0  0  0  0
 25 33  1  0  0  0  0
 25 24  2  0  0  0  0
 26 25  1  0  0  0  0
 27 26  2  0  0  0  0
 27 28  1  0  0  0  0
 28 23  2  0  0  0  0
 29 27  1  0  0  0  0
 29 32  1  0  0  0  0
 31 29  1  0  0  0  0
 33 34  1  0  0  0  0
 34 35  2  0  0  0  0
 36 35  1  0  0  0  0
 37 36  2  0  0  0  0
 38 37  1  0  0  0  0
 39 38  2  0  0  0  0
 40 39  1  0  0  0  0
 41 39  1  0  0  0  0
 41 43  2  0  0  0  0
 42 41  1  0  0  0  0
 43 44  1  0  0  0  0
 44 37  1  0  0  0  0
 44 33  2  0  0  0  0
M  END
>  <minimizedAffinity>
-5.83161163

$$$$
