
 OpenBabel03252507343D

 52 56  0  0  1  0  0  0  0  0999 V2000
   38.3210   30.1980   42.0350 C   0  0  0  0  0  0  0  0  0  0  0  0
   37.0270   30.0720   41.5500 C   0  0  0  0  0  0  0  0  0  0  0  0
   36.4850   31.0890   40.7290 C   0  0  0  0  0  0  0  0  0  0  0  0
   37.3160   32.1760   40.4650 N   0  0  0  0  0  0  0  0  0  0  0  0
   38.5680   32.2370   40.9740 C   0  0  0  0  0  0  0  0  0  0  0  0
   39.0550   31.2710   41.7380 N   0  0  0  0  0  0  0  0  0  0  0  0
   36.2260   29.3730   41.6500 H   0  0  0  0  0  0  0  0  0  0  0  0
   35.5340   31.1650   40.2720 H   0  0  0  0  0  0  0  0  0  0  0  0
   38.8360   29.1180   42.8510 C   0  0  2  0  0  0  0  0  0  0  0  0
   40.3110   28.7740   42.4760 C   0  0  0  0  0  0  0  0  0  0  0  0
   40.8460   27.7760   43.4430 C   0  0  0  0  0  0  0  0  0  0  0  0
   39.9420   26.6400   43.7800 C   0  0  0  0  0  0  0  0  0  0  0  0
   38.5480   26.9970   43.8870 C   0  0  0  0  0  0  0  0  0  0  0  0
   38.0470   27.9060   42.7460 C   0  0  2  0  0  0  0  0  0  0  0  0
   38.9510   29.4740   43.9030 H   0  0  0  0  0  0  0  0  0  0  0  0
   40.3780   28.4930   41.4230 H   0  0  0  0  0  0  0  0  0  0  0  0
   40.8370   29.7450   42.5850 H   0  0  0  0  0  0  0  0  0  0  0  0
   41.7560   27.3200   42.9580 H   0  0  0  0  0  0  0  0  0  0  0  0
   41.2600   28.3530   44.2920 H   0  0  0  0  0  0  0  0  0  0  0  0
   40.1940   26.5400   44.9120 H   0  0  0  0  0  0  0  0  0  0  0  0
   40.2800   25.6260   43.5570 H   0  0  0  0  0  0  0  0  0  0  0  0
   37.9160   26.0630   43.8270 H   0  0  0  0  0  0  0  0  0  0  0  0
   38.1890   27.5020   44.8130 H   0  0  0  0  0  0  0  0  0  0  0  0
   36.9860   27.9860   42.9880 H   0  0  0  0  0  0  0  0  0  0  0  0
   38.3200   27.2420   41.4680 N   0  0  0  0  0  0  0  0  0  0  0  0
   37.5600   26.3440   40.7020 C   0  0  0  0  0  0  0  0  0  0  0  0
   36.5670   26.7120   39.9750 O   0  0  0  0  0  0  0  0  0  0  0  0
   37.9840   24.9820   40.7850 N   0  0  0  0  0  0  0  0  0  0  0  0
   39.2790   27.3390   40.9610 H   0  0  0  0  0  0  0  0  0  0  0  0
   38.9420   24.7010   40.4450 H   0  0  0  0  0  0  0  0  0  0  0  0
   37.7680   23.9970   41.0610 H   0  0  0  0  0  0  0  0  0  0  0  0
   39.3660   33.4230   40.6840 C   0  0  0  0  0  0  0  0  0  0  0  0
   38.8120   34.6080   40.3380 C   0  0  0  0  0  0  0  0  0  0  0  0
   39.5460   35.7430   40.0580 C   0  0  0  0  0  0  0  0  0  0  0  0
   40.9140   35.6090   40.1490 C   0  0  0  0  0  0  0  0  0  0  0  0
   41.5210   34.4030   40.5030 C   0  0  0  0  0  0  0  0  0  0  0  0
   40.6850   33.3770   40.7510 N   0  0  0  0  0  0  0  0  0  0  0  0
   37.7370   34.6910   40.2710 H   0  0  0  0  0  0  0  0  0  0  0  0
   39.1020   36.6890   39.7800 H   0  0  0  0  0  0  0  0  0  0  0  0
   41.4880   36.4920   39.9310 H   0  0  0  0  0  0  0  0  0  0  0  0
   42.9700   34.4470   40.5510 C   0  0  0  0  0  0  0  0  0  0  0  0
   43.7200   33.8400   39.6150 N   0  0  0  0  0  0  0  0  0  0  0  0
   45.0360   33.8110   39.5540 C   0  0  0  0  0  3  0  0  0  0  0  0
   45.7690   34.4340   40.4950 N   0  0  0  0  0  0  0  0  0  0  0  0
   45.1240   35.0880   41.5040 C   0  0  0  0  0  0  0  0  0  0  0  0
   45.8520   35.7340   42.4800 C   0  0  0  0  0  3  0  0  0  0  0  0
   45.2140   36.4100   43.5210 C   0  0  0  0  0  0  0  0  0  0  0  0
   45.8930   36.8730   44.2210 H   0  0  0  0  0  0  0  0  0  0  0  0
   43.8140   36.3900   43.5090 C   0  0  0  0  0  0  0  0  0  0  0  0
   43.3760   36.9300   44.3410 H   0  0  0  0  0  0  0  0  0  0  0  0
   43.1510   35.7290   42.5080 C   0  0  0  0  0  3  0  0  0  0  0  0
   43.7540   35.0670   41.4890 C   0  0  0  0  0  0  0  0  0  0  0  0
  1  9  1  0  0  0  0
  2  7  1  0  0  0  0
  2  1  2  0  0  0  0
  3  2  1  0  0  0  0
  4  3  2  0  0  0  0
  4  5  1  0  0  0  0
  5  6  2  0  0  0  0
  6  1  1  0  0  0  0
  8  3  1  0  0  0  0
  9 15  1  1  0  0  0
 10 17  1  0  0  0  0
 10  9  1  0  0  0  0
 10 11  1  0  0  0  0
 11 12  1  0  0  0  0
 11 19  1  0  0  0  0
 12 13  1  0  0  0  0
 12 20  1  0  0  0  0
 13 23  1  0  0  0  0
 14  9  1  0  0  0  0
 14 24  1  1  0  0  0
 14 13  1  0  0  0  0
 16 10  1  0  0  0  0
 18 11  1  0  0  0  0
 21 12  1  0  0  0  0
 22 13  1  0  0  0  0
 25 14  1  0  0  0  0
 26 28  1  0  0  0  0
 26 25  1  0  0  0  0
 27 26  2  0  0  0  0
 28 31  1  0  0  0  0
 29 25  1  0  0  0  0
 30 28  1  0  0  0  0
 32 37  1  0  0  0  0
 32  5  1  0  0  0  0
 33 32  2  0  0  0  0
 34 35  2  0  0  0  0
 34 33  1  0  0  0  0
 35 36  1  0  0  0  0
 36 41  1  0  0  0  0
 36 37  2  0  0  0  0
 38 33  1  0  0  0  0
 39 34  1  0  0  0  0
 40 35  1  0  0  0  0
 41 52  1  0  0  0  0
 42 41  2  0  0  0  0
 43 42  1  0  0  0  0
 43 44  2  0  0  0  0
 44 45  1  0  0  0  0
 45 46  1  0  0  0  0
 46 47  2  0  0  0  0
 47 48  1  0  0  0  0
 49 47  1  0  0  0  0
 49 50  1  0  0  0  0
 51 49  2  0  0  0  0
 52 45  2  0  0  0  0
 52 51  1  0  0  0  0
M  END
>  <minimizedAffinity>
-8.58445072

$$$$

 OpenBabel03252507343D

 52 56  0  0  1  0  0  0  0  0999 V2000
   38.6420   32.7120   40.5150 C   0  0  0  0  0  0  0  0  0  0  0  0
   37.6410   32.6790   39.5540 C   0  0  0  0  0  0  0  0  0  0  0  0
   36.8100   31.5390   39.4480 C   0  0  0  0  0  0  0  0  0  0  0  0
   37.0690   30.5030   40.3430 N   0  0  0  0  0  0  0  0  0  0  0  0
   38.0640   30.6000   41.2540 C   0  0  0  0  0  0  0  0  0  0  0  0
   38.8290   31.6780   41.3350 N   0  0  0  0  0  0  0  0  0  0  0  0
   37.3000   33.3170   38.7690 H   0  0  0  0  0  0  0  0  0  0  0  0
   36.0070   31.3370   38.7910 H   0  0  0  0  0  0  0  0  0  0  0  0
   39.4490   33.9120   40.5960 C   0  0  2  0  0  0  0  0  0  0  0  0
   38.7640   35.1110   39.8700 C   0  0  0  0  0  0  0  0  0  0  0  0
   39.5480   36.3520   40.1180 C   0  0  0  0  0  0  0  0  0  0  0  0
   41.0280   36.2290   39.9900 C   0  0  0  0  0  0  0  0  0  0  0  0
   41.5690   34.9850   40.4810 C   0  0  0  0  0  0  0  0  0  0  0  0
   40.7750   33.7400   40.0350 C   0  0  2  0  0  0  0  0  0  0  0  0
   39.4660   34.2740   41.6520 H   0  0  0  0  0  0  0  0  0  0  0  0
   38.5880   34.8670   38.8200 H   0  0  0  0  0  0  0  0  0  0  0  0
   37.7690   35.1730   40.3570 H   0  0  0  0  0  0  0  0  0  0  0  0
   39.2250   37.0940   39.3320 H   0  0  0  0  0  0  0  0  0  0  0  0
   39.1630   36.7820   41.0620 H   0  0  0  0  0  0  0  0  0  0  0  0
   41.3420   36.9250   40.8680 H   0  0  0  0  0  0  0  0  0  0  0  0
   41.5360   36.8450   39.2450 H   0  0  0  0  0  0  0  0  0  0  0  0
   42.6110   34.8400   40.0700 H   0  0  0  0  0  0  0  0  0  0  0  0
   41.6950   34.8460   41.5800 H   0  0  0  0  0  0  0  0  0  0  0  0
   41.3860   32.9370   40.4510 H   0  0  0  0  0  0  0  0  0  0  0  0
   40.7000   33.7360   38.5710 N   0  0  0  0  0  0  0  0  0  0  0  0
   41.5550   33.1990   37.5940 C   0  0  0  0  0  0  0  0  0  0  0  0
   41.5960   31.9470   37.3140 O   0  0  0  0  0  0  0  0  0  0  0  0
   42.3740   34.1610   36.9260 N   0  0  0  0  0  0  0  0  0  0  0  0
   39.9180   34.2680   38.0320 H   0  0  0  0  0  0  0  0  0  0  0  0
   41.9330   34.9210   36.3430 H   0  0  0  0  0  0  0  0  0  0  0  0
   43.3320   34.5190   36.7100 H   0  0  0  0  0  0  0  0  0  0  0  0
   38.3000   29.4590   42.1330 C   0  0  0  0  0  0  0  0  0  0  0  0
   37.3240   28.9120   42.8940 C   0  0  0  0  0  0  0  0  0  0  0  0
   37.5230   27.8350   43.7340 C   0  0  0  0  0  0  0  0  0  0  0  0
   38.8030   27.3260   43.7630 C   0  0  0  0  0  0  0  0  0  0  0  0
   39.8340   27.8630   42.9910 C   0  0  0  0  0  0  0  0  0  0  0  0
   39.5000   28.9120   42.2160 N   0  0  0  0  0  0  0  0  0  0  0  0
   36.3270   29.3270   42.8570 H   0  0  0  0  0  0  0  0  0  0  0  0
   36.7420   27.3990   44.3420 H   0  0  0  0  0  0  0  0  0  0  0  0
   38.9590   26.4860   44.4160 H   0  0  0  0  0  0  0  0  0  0  0  0
   41.1140   27.2010   43.1470 C   0  0  0  0  0  0  0  0  0  0  0  0
   41.2370   25.8700   43.0010 N   0  0  0  0  0  0  0  0  0  0  0  0
   42.3420   25.1610   43.1180 C   0  0  0  0  0  3  0  0  0  0  0  0
   43.5050   25.7690   43.4130 N   0  0  0  0  0  0  0  0  0  0  0  0
   43.5140   27.1220   43.5870 C   0  0  0  0  0  0  0  0  0  0  0  0
   44.6930   27.7680   43.8900 C   0  0  0  0  0  3  0  0  0  0  0  0
   44.7270   29.1510   44.0730 C   0  0  0  0  0  0  0  0  0  0  0  0
   45.7080   29.5370   44.3060 H   0  0  0  0  0  0  0  0  0  0  0  0
   43.5080   29.8260   43.9300 C   0  0  0  0  0  0  0  0  0  0  0  0
   43.5970   30.8970   44.0840 H   0  0  0  0  0  0  0  0  0  0  0  0
   42.3710   29.1220   43.6280 C   0  0  0  0  0  3  0  0  0  0  0  0
   42.3210   27.7790   43.4470 C   0  0  0  0  0  0  0  0  0  0  0  0
  1  9  1  0  0  0  0
  1  6  1  0  0  0  0
  2  1  2  0  0  0  0
  3  2  1  0  0  0  0
  3  4  2  0  0  0  0
  4  5  1  0  0  0  0
  5  6  2  0  0  0  0
  5 32  1  0  0  0  0
  7  2  1  0  0  0  0
  8  3  1  0  0  0  0
  9 15  1  1  0  0  0
 10 11  1  0  0  0  0
 10 17  1  0  0  0  0
 10  9  1  0  0  0  0
 11 19  1  0  0  0  0
 12 11  1  0  0  0  0
 12 13  1  0  0  0  0
 12 20  1  0  0  0  0
 13 23  1  0  0  0  0
 14 24  1  1  0  0  0
 14 13  1  0  0  0  0
 14  9  1  0  0  0  0
 16 10  1  0  0  0  0
 18 11  1  0  0  0  0
 21 12  1  0  0  0  0
 22 13  1  0  0  0  0
 25 14  1  0  0  0  0
 26 25  1  0  0  0  0
 27 26  2  0  0  0  0
 28 26  1  0  0  0  0
 29 25  1  0  0  0  0
 30 28  1  0  0  0  0
 31 28  1  0  0  0  0
 32 37  2  0  0  0  0
 32 33  1  0  0  0  0
 33 34  2  0  0  0  0
 34 35  1  0  0  0  0
 34 39  1  0  0  0  0
 35 40  1  0  0  0  0
 36 41  1  0  0  0  0
 36 35  2  0  0  0  0
 37 36  1  0  0  0  0
 38 33  1  0  0  0  0
 41 52  1  0  0  0  0
 42 43  1  0  0  0  0
 42 41  2  0  0  0  0
 43 44  2  0  0  0  0
 44 45  1  0  0  0  0
 45 46  1  0  0  0  0
 46 47  2  0  0  0  0
 47 48  1  0  0  0  0
 49 47  1  0  0  0  0
 49 50  1  0  0  0  0
 51 49  2  0  0  0  0
 52 45  2  0  0  0  0
 52 51  1  0  0  0  0
M  END
>  <minimizedAffinity>
-8.25594711

$$$$

 OpenBabel03252507343D

 52 56  0  0  1  0  0  0  0  0999 V2000
   38.6970   32.6530   40.2980 C   0  0  0  0  0  0  0  0  0  0  0  0
   37.8340   32.8290   39.2260 C   0  0  0  0  0  0  0  0  0  0  0  0
   36.8990   31.8170   38.9060 C   0  0  0  0  0  0  0  0  0  0  0  0
   36.9180   30.6830   39.7160 N   0  0  0  0  0  0  0  0  0  0  0  0
   37.7890   30.5750   40.7440 C   0  0  0  0  0  0  0  0  0  0  0  0
   38.6550   31.5370   41.0260 N   0  0  0  0  0  0  0  0  0  0  0  0
   37.6740   33.5700   38.4740 H   0  0  0  0  0  0  0  0  0  0  0  0
   36.1710   31.7750   38.1400 H   0  0  0  0  0  0  0  0  0  0  0  0
   39.6190   33.7300   40.5970 C   0  0  2  0  0  0  0  0  0  0  0  0
   39.0660   35.1060   40.1100 C   0  0  0  0  0  0  0  0  0  0  0  0
   39.9660   36.1940   40.5800 C   0  0  0  0  0  0  0  0  0  0  0  0
   41.4280   35.9490   40.4230 C   0  0  0  0  0  0  0  0  0  0  0  0
   41.8360   34.5870   40.6720 C   0  0  0  0  0  0  0  0  0  0  0  0
   40.9280   33.5320   40.0060 C   0  0  2  0  0  0  0  0  0  0  0  0
   39.6570   33.8850   41.7020 H   0  0  0  0  0  0  0  0  0  0  0  0
   38.8810   35.0790   39.0330 H   0  0  0  0  0  0  0  0  0  0  0  0
   38.0760   35.1750   40.6050 H   0  0  0  0  0  0  0  0  0  0  0  0
   39.7300   37.0970   39.9470 H   0  0  0  0  0  0  0  0  0  0  0  0
   39.6130   36.4780   41.5900 H   0  0  0  0  0  0  0  0  0  0  0  0
   41.7980   36.4350   41.4140 H   0  0  0  0  0  0  0  0  0  0  0  0
   42.0050   36.6370   39.8040 H   0  0  0  0  0  0  0  0  0  0  0  0
   42.8640   34.4170   40.2360 H   0  0  0  0  0  0  0  0  0  0  0  0
   41.9330   34.2350   41.7250 H   0  0  0  0  0  0  0  0  0  0  0  0
   41.4500   32.6090   40.2630 H   0  0  0  0  0  0  0  0  0  0  0  0
   40.8730   33.8080   38.5680 N   0  0  0  0  0  0  0  0  0  0  0  0
   41.7190   33.4290   37.5120 C   0  0  0  0  0  0  0  0  0  0  0  0
   41.7130   32.2510   37.0000 O   0  0  0  0  0  0  0  0  0  0  0  0
   42.5850   34.4640   37.0420 N   0  0  0  0  0  0  0  0  0  0  0  0
   40.1200   34.4640   38.1340 H   0  0  0  0  0  0  0  0  0  0  0  0
   42.1830   35.3380   36.6110 H   0  0  0  0  0  0  0  0  0  0  0  0
   43.5600   34.8150   36.9030 H   0  0  0  0  0  0  0  0  0  0  0  0
   37.7750   29.3420   41.5250 C   0  0  0  0  0  0  0  0  0  0  0  0
   37.9270   29.3290   42.8700 C   0  0  0  0  0  0  0  0  0  0  0  0
   37.9180   28.1770   43.6290 C   0  0  0  0  0  0  0  0  0  0  0  0
   37.7440   27.0010   42.9320 C   0  0  0  0  0  0  0  0  0  0  0  0
   37.5840   26.9750   41.5460 C   0  0  0  0  0  0  0  0  0  0  0  0
   37.6120   28.1730   40.9310 N   0  0  0  0  0  0  0  0  0  0  0  0
   38.0630   30.2620   43.3970 H   0  0  0  0  0  0  0  0  0  0  0  0
   38.0410   28.1680   44.7030 H   0  0  0  0  0  0  0  0  0  0  0  0
   37.7370   26.1020   43.5220 H   0  0  0  0  0  0  0  0  0  0  0  0
   37.4110   25.6510   40.9820 C   0  0  0  0  0  0  0  0  0  0  0  0
   37.9140   24.5610   41.5860 N   0  0  0  0  0  0  0  0  0  0  0  0
   37.8210   23.3130   41.1690 C   0  0  0  0  0  3  0  0  0  0  0  0
   37.1680   23.0300   40.0280 N   0  0  0  0  0  0  0  0  0  0  0  0
   36.6100   24.0530   39.3190 C   0  0  0  0  0  0  0  0  0  0  0  0
   35.9350   23.7890   38.1460 C   0  0  0  0  0  3  0  0  0  0  0  0
   35.3560   24.8190   37.4040 C   0  0  0  0  0  0  0  0  0  0  0  0
   34.8580   24.4840   36.5070 H   0  0  0  0  0  0  0  0  0  0  0  0
   35.5030   26.1130   37.9180 C   0  0  0  0  0  0  0  0  0  0  0  0
   35.0330   26.8700   37.2990 H   0  0  0  0  0  0  0  0  0  0  0  0
   36.1860   26.3070   39.0900 C   0  0  0  0  0  3  0  0  0  0  0  0
   36.7550   25.3180   39.8240 C   0  0  0  0  0  0  0  0  0  0  0  0
  1  9  1  0  0  0  0
  1  6  1  0  0  0  0
  2  1  2  0  0  0  0
  3  2  1  0  0  0  0
  3  4  2  0  0  0  0
  4  5  1  0  0  0  0
  5  6  2  0  0  0  0
  5 32  1  0  0  0  0
  7  2  1  0  0  0  0
  8  3  1  0  0  0  0
  9 15  1  1  0  0  0
 10 11  1  0  0  0  0
 10  9  1  0  0  0  0
 10 17  1  0  0  0  0
 11 19  1  0  0  0  0
 12 11  1  0  0  0  0
 12 13  1  0  0  0  0
 12 20  1  0  0  0  0
 13 23  1  0  0  0  0
 14 24  1  1  0  0  0
 14  9  1  0  0  0  0
 14 13  1  0  0  0  0
 16 10  1  0  0  0  0
 18 11  1  0  0  0  0
 21 12  1  0  0  0  0
 22 13  1  0  0  0  0
 25 14  1  0  0  0  0
 26 25  1  0  0  0  0
 27 26  2  0  0  0  0
 28 26  1  0  0  0  0
 29 25  1  0  0  0  0
 30 28  1  0  0  0  0
 31 28  1  0  0  0  0
 32 33  1  0  0  0  0
 33 38  1  0  0  0  0
 33 34  2  0  0  0  0
 34 39  1  0  0  0  0
 35 40  1  0  0  0  0
 35 34  1  0  0  0  0
 36 35  2  0  0  0  0
 37 32  2  0  0  0  0
 37 36  1  0  0  0  0
 41 36  1  0  0  0  0
 41 42  1  0  0  0  0
 43 42  2  0  0  0  0
 44 43  1  0  0  0  0
 45 52  1  0  0  0  0
 45 44  2  0  0  0  0
 46 45  1  0  0  0  0
 47 49  1  0  0  0  0
 47 46  2  0  0  0  0
 48 47  1  0  0  0  0
 49 51  2  0  0  0  0
 50 49  1  0  0  0  0
 51 52  1  0  0  0  0
 52 41  2  0  0  0  0
M  END
>  <minimizedAffinity>
-8.2004776

$$$$

 OpenBabel03252507343D

 52 56  0  0  1  0  0  0  0  0999 V2000
   38.1650   29.8080   41.3880 C   0  0  0  0  0  0  0  0  0  0  0  0
   36.8140   29.8060   41.0720 C   0  0  0  0  0  0  0  0  0  0  0  0
   36.2170   30.9740   40.5410 C   0  0  0  0  0  0  0  0  0  0  0  0
   37.0580   32.0720   40.3720 N   0  0  0  0  0  0  0  0  0  0  0  0
   38.3670   32.0060   40.7040 C   0  0  0  0  0  0  0  0  0  0  0  0
   38.9040   30.9010   41.1980 N   0  0  0  0  0  0  0  0  0  0  0  0
   36.0010   29.1180   41.1500 H   0  0  0  0  0  0  0  0  0  0  0  0
   35.2200   31.1570   40.2430 H   0  0  0  0  0  0  0  0  0  0  0  0
   38.7310   28.5790   41.9060 C   0  0  2  0  0  0  0  0  0  0  0  0
   38.3950   28.3900   43.4190 C   0  0  0  0  0  0  0  0  0  0  0  0
   38.8560   27.0470   43.8630 C   0  0  0  0  0  0  0  0  0  0  0  0
   40.2140   26.6360   43.4070 C   0  0  0  0  0  0  0  0  0  0  0  0
   40.5440   27.0470   42.0630 C   0  0  0  0  0  0  0  0  0  0  0  0
   40.1710   28.5120   41.7500 C   0  0  2  0  0  0  0  0  0  0  0  0
   38.2010   27.7090   41.4510 H   0  0  0  0  0  0  0  0  0  0  0  0
   38.7740   29.2350   43.9990 H   0  0  0  0  0  0  0  0  0  0  0  0
   37.2880   28.4530   43.4460 H   0  0  0  0  0  0  0  0  0  0  0  0
   38.9000   27.0820   44.9890 H   0  0  0  0  0  0  0  0  0  0  0  0
   38.0260   26.3450   43.6520 H   0  0  0  0  0  0  0  0  0  0  0  0
   40.0030   25.5090   43.2070 H   0  0  0  0  0  0  0  0  0  0  0  0
   40.9710   26.4180   44.1630 H   0  0  0  0  0  0  0  0  0  0  0  0
   41.6610   26.9840   41.9140 H   0  0  0  0  0  0  0  0  0  0  0  0
   40.1270   26.4730   41.2040 H   0  0  0  0  0  0  0  0  0  0  0  0
   40.5620   28.6190   40.7380 H   0  0  0  0  0  0  0  0  0  0  0  0
   40.8210   29.3780   42.7370 N   0  0  0  0  0  0  0  0  0  0  0  0
   42.1290   29.8840   42.8170 C   0  0  0  0  0  0  0  0  0  0  0  0
   42.5430   30.8660   42.1000 O   0  0  0  0  0  0  0  0  0  0  0  0
   42.9660   29.2250   43.7700 N   0  0  0  0  0  0  0  0  0  0  0  0
   40.3150   29.6980   43.6470 H   0  0  0  0  0  0  0  0  0  0  0  0
   42.7280   29.2540   44.7960 H   0  0  0  0  0  0  0  0  0  0  0  0
   43.8180   28.6500   43.9600 H   0  0  0  0  0  0  0  0  0  0  0  0
   39.1760   33.2090   40.5340 C   0  0  0  0  0  0  0  0  0  0  0  0
   38.6340   34.4230   40.2860 C   0  0  0  0  0  0  0  0  0  0  0  0
   39.3780   35.5740   40.1200 C   0  0  0  0  0  0  0  0  0  0  0  0
   40.7440   35.4230   40.2200 C   0  0  0  0  0  0  0  0  0  0  0  0
   41.3390   34.1870   40.4750 C   0  0  0  0  0  0  0  0  0  0  0  0
   40.4940   33.1480   40.6160 N   0  0  0  0  0  0  0  0  0  0  0  0
   37.5610   34.5190   40.2100 H   0  0  0  0  0  0  0  0  0  0  0  0
   38.9440   36.5430   39.9210 H   0  0  0  0  0  0  0  0  0  0  0  0
   41.3260   36.3180   40.0900 H   0  0  0  0  0  0  0  0  0  0  0  0
   42.7870   34.2160   40.5480 C   0  0  0  0  0  0  0  0  0  0  0  0
   43.5470   33.5180   39.6860 N   0  0  0  0  0  0  0  0  0  0  0  0
   44.8640   33.4670   39.6560 C   0  0  0  0  0  3  0  0  0  0  0  0
   45.5860   34.1630   40.5520 N   0  0  0  0  0  0  0  0  0  0  0  0
   44.9310   34.9140   41.4840 C   0  0  0  0  0  0  0  0  0  0  0  0
   45.6490   35.6360   42.4130 C   0  0  0  0  0  3  0  0  0  0  0  0
   45.0010   36.4110   43.3750 C   0  0  0  0  0  0  0  0  0  0  0  0
   45.6720   36.9280   44.0440 H   0  0  0  0  0  0  0  0  0  0  0  0
   43.6010   36.4080   43.3360 C   0  0  0  0  0  0  0  0  0  0  0  0
   43.1550   37.0270   44.1070 H   0  0  0  0  0  0  0  0  0  0  0  0
   42.9480   35.6670   42.3850 C   0  0  0  0  0  3  0  0  0  0  0  0
   43.5620   34.9080   41.4430 C   0  0  0  0  0  0  0  0  0  0  0  0
  1  9  1  0  0  0  0
  2  7  1  0  0  0  0
  2  1  2  0  0  0  0
  3  2  1  0  0  0  0
  4  3  2  0  0  0  0
  4  5  1  0  0  0  0
  5  6  2  0  0  0  0
  6  1  1  0  0  0  0
  8  3  1  0  0  0  0
  9 15  1  6  0  0  0
  9 10  1  0  0  0  0
 10 17  1  0  0  0  0
 10 11  1  0  0  0  0
 10 16  1  0  0  0  0
 11 18  1  0  0  0  0
 12 11  1  0  0  0  0
 12 21  1  0  0  0  0
 13 12  1  0  0  0  0
 14 24  1  6  0  0  0
 14  9  1  0  0  0  0
 14 13  1  0  0  0  0
 14 25  1  0  0  0  0
 19 11  1  0  0  0  0
 20 12  1  0  0  0  0
 22 13  1  0  0  0  0
 23 13  1  0  0  0  0
 25 26  1  0  0  0  0
 25 29  1  0  0  0  0
 26 28  1  0  0  0  0
 27 26  2  0  0  0  0
 28 31  1  0  0  0  0
 28 30  1  0  0  0  0
 32 37  1  0  0  0  0
 32  5  1  0  0  0  0
 33 32  2  0  0  0  0
 34 35  2  0  0  0  0
 34 33  1  0  0  0  0
 35 36  1  0  0  0  0
 36 41  1  0  0  0  0
 36 37  2  0  0  0  0
 38 33  1  0  0  0  0
 39 34  1  0  0  0  0
 40 35  1  0  0  0  0
 41 52  1  0  0  0  0
 42 41  2  0  0  0  0
 43 42  1  0  0  0  0
 43 44  2  0  0  0  0
 44 45  1  0  0  0  0
 45 46  1  0  0  0  0
 46 47  2  0  0  0  0
 47 48  1  0  0  0  0
 49 47  1  0  0  0  0
 49 50  1  0  0  0  0
 51 49  2  0  0  0  0
 52 45  2  0  0  0  0
 52 51  1  0  0  0  0
M  END
>  <minimizedAffinity>
-7.93846464

$$$$

 OpenBabel03252507343D

 52 56  0  0  1  0  0  0  0  0999 V2000
   39.8890   27.7220   40.8140 C   0  0  0  0  0  0  0  0  0  0  0  0
   40.5110   26.5940   40.2980 C   0  0  0  0  0  0  0  0  0  0  0  0
   41.4660   26.7320   39.2630 C   0  0  0  0  0  0  0  0  0  0  0  0
   41.7140   28.0310   38.8240 N   0  0  0  0  0  0  0  0  0  0  0  0
   41.0700   29.0870   39.3700 C   0  0  0  0  0  0  0  0  0  0  0  0
   40.1810   28.9330   40.3400 N   0  0  0  0  0  0  0  0  0  0  0  0
   40.4500   25.5380   40.4500 H   0  0  0  0  0  0  0  0  0  0  0  0
   42.0350   26.0000   38.7560 H   0  0  0  0  0  0  0  0  0  0  0  0
   38.9380   27.5270   41.8890 C   0  0  2  0  0  0  0  0  0  0  0  0
   37.8320   26.4990   41.4920 C   0  0  0  0  0  0  0  0  0  0  0  0
   36.9770   26.2130   42.6760 C   0  0  0  0  0  0  0  0  0  0  0  0
   36.5570   27.3940   43.4830 C   0  0  0  0  0  0  0  0  0  0  0  0
   37.5670   28.4150   43.6180 C   0  0  0  0  0  0  0  0  0  0  0  0
   38.2880   28.7570   42.2970 C   0  0  2  0  0  0  0  0  0  0  0  0
   39.4400   26.9970   42.7330 H   0  0  0  0  0  0  0  0  0  0  0  0
   37.3020   26.8400   40.5990 H   0  0  0  0  0  0  0  0  0  0  0  0
   38.4100   25.5990   41.1990 H   0  0  0  0  0  0  0  0  0  0  0  0
   36.0280   25.7510   42.2780 H   0  0  0  0  0  0  0  0  0  0  0  0
   37.4670   25.3840   43.2220 H   0  0  0  0  0  0  0  0  0  0  0  0
   36.6320   26.9210   44.5440 H   0  0  0  0  0  0  0  0  0  0  0  0
   35.4900   27.5960   43.5870 H   0  0  0  0  0  0  0  0  0  0  0  0
   37.0840   29.3790   43.9540 H   0  0  0  0  0  0  0  0  0  0  0  0
   38.3960   28.2650   44.3470 H   0  0  0  0  0  0  0  0  0  0  0  0
   38.9370   29.5750   42.6140 H   0  0  0  0  0  0  0  0  0  0  0  0
   37.2820   29.1430   41.3040 N   0  0  0  0  0  0  0  0  0  0  0  0
   36.9380   30.3920   40.7600 C   0  0  0  0  0  0  0  0  0  0  0  0
   37.6420   30.9790   39.8600 O   0  0  0  0  0  0  0  0  0  0  0  0
   35.7340   30.9580   41.2800 N   0  0  0  0  0  0  0  0  0  0  0  0
   36.5740   28.4260   40.8910 H   0  0  0  0  0  0  0  0  0  0  0  0
   34.8110   30.4690   41.1360 H   0  0  0  0  0  0  0  0  0  0  0  0
   35.2680   31.7310   41.8080 H   0  0  0  0  0  0  0  0  0  0  0  0
   41.3560   30.4140   38.8330 C   0  0  0  0  0  0  0  0  0  0  0  0
   41.9000   30.6030   37.6090 C   0  0  0  0  0  0  0  0  0  0  0  0
   42.1810   31.8470   37.0810 C   0  0  0  0  0  0  0  0  0  0  0  0
   41.8730   32.9220   37.8850 C   0  0  0  0  0  0  0  0  0  0  0  0
   41.3100   32.7660   39.1530 C   0  0  0  0  0  0  0  0  0  0  0  0
   41.0880   31.4960   39.5430 N   0  0  0  0  0  0  0  0  0  0  0  0
   42.1350   29.7460   36.9950 H   0  0  0  0  0  0  0  0  0  0  0  0
   42.6160   31.9970   36.1030 H   0  0  0  0  0  0  0  0  0  0  0  0
   42.0910   33.8920   37.4760 H   0  0  0  0  0  0  0  0  0  0  0  0
   41.0510   34.0070   39.8570 C   0  0  0  0  0  0  0  0  0  0  0  0
   39.9030   34.6850   39.6830 N   0  0  0  0  0  0  0  0  0  0  0  0
   39.5590   35.8160   40.2650 C   0  0  0  0  0  3  0  0  0  0  0  0
   40.3960   36.4100   41.1340 N   0  0  0  0  0  0  0  0  0  0  0  0
   41.5970   35.8200   41.3980 C   0  0  0  0  0  0  0  0  0  0  0  0
   42.4720   36.4080   42.2850 C   0  0  0  0  0  3  0  0  0  0  0  0
   43.7070   35.8230   42.5710 C   0  0  0  0  0  0  0  0  0  0  0  0
   44.3000   36.3800   43.2800 H   0  0  0  0  0  0  0  0  0  0  0  0
   43.9920   34.6230   41.9090 C   0  0  0  0  0  0  0  0  0  0  0  0
   44.9640   34.2170   42.1700 H   0  0  0  0  0  0  0  0  0  0  0  0
   43.0770   34.0910   41.0380 C   0  0  0  0  0  3  0  0  0  0  0  0
   41.8740   34.6460   40.7490 C   0  0  0  0  0  0  0  0  0  0  0  0
  1  9  1  0  0  0  0
  2  7  1  0  0  0  0
  2  1  2  0  0  0  0
  3  2  1  0  0  0  0
  4  3  2  0  0  0  0
  4  5  1  0  0  0  0
  5  6  2  0  0  0  0
  6  1  1  0  0  0  0
  8  3  1  0  0  0  0
  9 14  1  0  0  0  0
  9 15  1  1  0  0  0
 10  9  1  0  0  0  0
 10 11  1  0  0  0  0
 11 19  1  0  0  0  0
 11 12  1  0  0  0  0
 12 21  1  0  0  0  0
 12 13  1  0  0  0  0
 12 20  1  0  0  0  0
 13 22  1  0  0  0  0
 13 23  1  0  0  0  0
 14 24  1  1  0  0  0
 14 13  1  0  0  0  0
 16 10  1  0  0  0  0
 17 10  1  0  0  0  0
 18 11  1  0  0  0  0
 25 14  1  0  0  0  0
 26 28  1  0  0  0  0
 26 25  1  0  0  0  0
 27 26  2  0  0  0  0
 28 31  1  0  0  0  0
 29 25  1  0  0  0  0
 30 28  1  0  0  0  0
 32  5  1  0  0  0  0
 32 37  1  0  0  0  0
 33 32  2  0  0  0  0
 34 33  1  0  0  0  0
 34 35  2  0  0  0  0
 35 36  1  0  0  0  0
 36 37  2  0  0  0  0
 36 41  1  0  0  0  0
 38 33  1  0  0  0  0
 39 34  1  0  0  0  0
 40 35  1  0  0  0  0
 41 52  1  0  0  0  0
 42 41  2  0  0  0  0
 42 43  1  0  0  0  0
 43 44  2  0  0  0  0
 44 45  1  0  0  0  0
 45 46  1  0  0  0  0
 46 47  2  0  0  0  0
 47 48  1  0  0  0  0
 49 50  1  0  0  0  0
 49 47  1  0  0  0  0
 51 49  2  0  0  0  0
 52 51  1  0  0  0  0
 52 45  2  0  0  0  0
M  END
>  <minimizedAffinity>
-7.86811066

$$$$

 OpenBabel03252507343D

 52 56  0  0  1  0  0  0  0  0999 V2000
   38.7410   32.6430   40.3140 C   0  0  0  0  0  0  0  0  0  0  0  0
   37.8030   32.8070   39.3060 C   0  0  0  0  0  0  0  0  0  0  0  0
   36.8970   31.7590   39.0150 C   0  0  0  0  0  0  0  0  0  0  0  0
   37.0230   30.6050   39.7850 N   0  0  0  0  0  0  0  0  0  0  0  0
   37.9640   30.5110   40.7520 C   0  0  0  0  0  0  0  0  0  0  0  0
   38.8000   31.5060   41.0080 N   0  0  0  0  0  0  0  0  0  0  0  0
   37.5580   33.5600   38.5890 H   0  0  0  0  0  0  0  0  0  0  0  0
   36.1240   31.7030   38.2960 H   0  0  0  0  0  0  0  0  0  0  0  0
   39.6290   33.7550   40.5870 C   0  0  2  0  0  0  0  0  0  0  0  0
   39.0330   35.1010   40.0680 C   0  0  0  0  0  0  0  0  0  0  0  0
   39.8990   36.2270   40.5120 C   0  0  0  0  0  0  0  0  0  0  0  0
   41.3680   36.0250   40.3600 C   0  0  0  0  0  0  0  0  0  0  0  0
   41.8180   34.6830   40.6410 C   0  0  0  0  0  0  0  0  0  0  0  0
   40.9430   33.5850   40.0000 C   0  0  2  0  0  0  0  0  0  0  0  0
   39.6620   33.9380   41.6880 H   0  0  0  0  0  0  0  0  0  0  0  0
   38.8490   35.0430   38.9930 H   0  0  0  0  0  0  0  0  0  0  0  0
   38.0410   35.1510   40.5620 H   0  0  0  0  0  0  0  0  0  0  0  0
   39.6340   37.1080   39.8580 H   0  0  0  0  0  0  0  0  0  0  0  0
   39.5370   36.5240   41.5150 H   0  0  0  0  0  0  0  0  0  0  0  0
   41.7220   36.5450   41.3390 H   0  0  0  0  0  0  0  0  0  0  0  0
   41.9230   36.7160   39.7240 H   0  0  0  0  0  0  0  0  0  0  0  0
   42.8500   34.5350   40.2080 H   0  0  0  0  0  0  0  0  0  0  0  0
   41.9250   34.3580   41.7020 H   0  0  0  0  0  0  0  0  0  0  0  0
   41.4940   32.6850   40.2780 H   0  0  0  0  0  0  0  0  0  0  0  0
   40.8800   33.8240   38.5560 N   0  0  0  0  0  0  0  0  0  0  0  0
   41.7380   33.4480   37.5090 C   0  0  0  0  0  0  0  0  0  0  0  0
   41.7690   32.2590   37.0250 O   0  0  0  0  0  0  0  0  0  0  0  0
   42.5700   34.4990   37.0140 N   0  0  0  0  0  0  0  0  0  0  0  0
   40.1060   34.4460   38.1070 H   0  0  0  0  0  0  0  0  0  0  0  0
   42.1410   35.3500   36.5630 H   0  0  0  0  0  0  0  0  0  0  0  0
   43.5330   34.8780   36.8670 H   0  0  0  0  0  0  0  0  0  0  0  0
   38.0590   29.2570   41.4930 C   0  0  0  0  0  0  0  0  0  0  0  0
   38.2680   29.2150   42.8290 C   0  0  0  0  0  0  0  0  0  0  0  0
   38.3630   28.0420   43.5510 C   0  0  0  0  0  0  0  0  0  0  0  0
   38.2320   26.8790   42.8250 C   0  0  0  0  0  0  0  0  0  0  0  0
   38.0160   26.8840   41.4460 C   0  0  0  0  0  0  0  0  0  0  0  0
   37.9430   28.0980   40.8690 N   0  0  0  0  0  0  0  0  0  0  0  0
   38.3690   30.1380   43.3800 H   0  0  0  0  0  0  0  0  0  0  0  0
   38.5310   28.0090   44.6190 H   0  0  0  0  0  0  0  0  0  0  0  0
   38.3060   25.9640   43.3860 H   0  0  0  0  0  0  0  0  0  0  0  0
   37.9010   25.5680   40.8470 C   0  0  0  0  0  0  0  0  0  0  0  0
   36.8030   24.8120   41.0200 N   0  0  0  0  0  0  0  0  0  0  0  0
   36.5870   23.6090   40.5280 C   0  0  0  0  0  3  0  0  0  0  0  0
   37.5220   23.0150   39.7640 N   0  0  0  0  0  0  0  0  0  0  0  0
   38.6860   23.6800   39.5130 C   0  0  0  0  0  0  0  0  0  0  0  0
   39.6590   23.0930   38.7330 C   0  0  0  0  0  3  0  0  0  0  0  0
   40.8580   23.7540   38.4620 C   0  0  0  0  0  0  0  0  0  0  0  0
   41.5370   23.1910   37.8410 H   0  0  0  0  0  0  0  0  0  0  0  0
   41.0040   25.0290   39.0250 C   0  0  0  0  0  0  0  0  0  0  0  0
   41.9540   25.4920   38.7810 H   0  0  0  0  0  0  0  0  0  0  0  0
   39.9970   25.5550   39.7920 C   0  0  0  0  0  3  0  0  0  0  0  0
   38.8260   24.9260   40.0640 C   0  0  0  0  0  0  0  0  0  0  0  0
  1  9  1  0  0  0  0
  1  6  1  0  0  0  0
  2  1  2  0  0  0  0
  3  2  1  0  0  0  0
  3  4  2  0  0  0  0
  4  5  1  0  0  0  0
  5  6  2  0  0  0  0
  5 32  1  0  0  0  0
  7  2  1  0  0  0  0
  8  3  1  0  0  0  0
  9 15  1  1  0  0  0
 10 11  1  0  0  0  0
 10 17  1  0  0  0  0
 10  9  1  0  0  0  0
 11 19  1  0  0  0  0
 12 11  1  0  0  0  0
 12 13  1  0  0  0  0
 12 20  1  0  0  0  0
 13 23  1  0  0  0  0
 14 24  1  1  0  0  0
 14  9  1  0  0  0  0
 14 13  1  0  0  0  0
 16 10  1  0  0  0  0
 18 11  1  0  0  0  0
 21 12  1  0  0  0  0
 22 13  1  0  0  0  0
 25 14  1  0  0  0  0
 26 25  1  0  0  0  0
 27 26  2  0  0  0  0
 28 26  1  0  0  0  0
 29 25  1  0  0  0  0
 30 28  1  0  0  0  0
 31 28  1  0  0  0  0
 32 33  1  0  0  0  0
 33 38  1  0  0  0  0
 33 34  2  0  0  0  0
 34 39  1  0  0  0  0
 35 40  1  0  0  0  0
 35 34  1  0  0  0  0
 36 35  2  0  0  0  0
 37 36  1  0  0  0  0
 37 32  2  0  0  0  0
 41 42  1  0  0  0  0
 41 36  1  0  0  0  0
 43 42  2  0  0  0  0
 44 43  1  0  0  0  0
 45 44  2  0  0  0  0
 45 52  1  0  0  0  0
 46 45  1  0  0  0  0
 47 46  2  0  0  0  0
 47 49  1  0  0  0  0
 48 47  1  0  0  0  0
 49 51  2  0  0  0  0
 50 49  1  0  0  0  0
 51 52  1  0  0  0  0
 52 41  2  0  0  0  0
M  END
>  <minimizedAffinity>
-7.81892157

$$$$

 OpenBabel03252507343D

 52 56  0  0  1  0  0  0  0  0999 V2000
   40.6510   33.4910   40.8520 C   0  0  0  0  0  0  0  0  0  0  0  0
   40.0610   34.6640   40.4030 C   0  0  0  0  0  0  0  0  0  0  0  0
   38.6730   34.6880   40.1250 C   0  0  0  0  0  0  0  0  0  0  0  0
   37.9840   33.4940   40.3280 N   0  0  0  0  0  0  0  0  0  0  0  0
   38.6230   32.3850   40.7650 C   0  0  0  0  0  0  0  0  0  0  0  0
   39.9220   32.3870   41.0200 N   0  0  0  0  0  0  0  0  0  0  0  0
   40.3880   35.6480   40.1500 H   0  0  0  0  0  0  0  0  0  0  0  0
   38.0580   35.4770   39.7840 H   0  0  0  0  0  0  0  0  0  0  0  0
   42.0690   33.5270   41.1430 C   0  0  2  0  0  0  0  0  0  0  0  0
   42.5810   34.9920   41.3070 C   0  0  0  0  0  0  0  0  0  0  0  0
   43.9980   34.9710   41.7620 C   0  0  0  0  0  0  0  0  0  0  0  0
   44.8960   34.0050   41.0680 C   0  0  0  0  0  0  0  0  0  0  0  0
   44.2790   32.7420   40.7430 C   0  0  0  0  0  0  0  0  0  0  0  0
   42.8710   32.8770   40.1250 C   0  0  2  0  0  0  0  0  0  0  0  0
   42.2450   33.1150   42.1660 H   0  0  0  0  0  0  0  0  0  0  0  0
   42.3860   35.5640   40.3970 H   0  0  0  0  0  0  0  0  0  0  0  0
   41.9230   35.4080   42.0970 H   0  0  0  0  0  0  0  0  0  0  0  0
   44.4150   35.9970   41.5490 H   0  0  0  0  0  0  0  0  0  0  0  0
   43.9710   34.9210   42.8680 H   0  0  0  0  0  0  0  0  0  0  0  0
   45.5350   33.6670   41.9800 H   0  0  0  0  0  0  0  0  0  0  0  0
   45.7630   34.3970   40.5330 H   0  0  0  0  0  0  0  0  0  0  0  0
   44.8990   32.2110   39.9630 H   0  0  0  0  0  0  0  0  0  0  0  0
   44.1490   31.9800   41.5460 H   0  0  0  0  0  0  0  0  0  0  0  0
   42.6360   31.8350   39.9030 H   0  0  0  0  0  0  0  0  0  0  0  0
   42.9630   33.7350   38.9400 N   0  0  0  0  0  0  0  0  0  0  0  0
   43.1120   33.4310   37.5770 C   0  0  0  0  0  0  0  0  0  0  0  0
   42.1450   33.0060   36.8470 O   0  0  0  0  0  0  0  0  0  0  0  0
   44.4280   33.6400   37.0600 N   0  0  0  0  0  0  0  0  0  0  0  0
   42.9960   34.8210   39.0150 H   0  0  0  0  0  0  0  0  0  0  0  0
   44.8460   34.6080   37.0480 H   0  0  0  0  0  0  0  0  0  0  0  0
   45.2910   33.2370   36.6300 H   0  0  0  0  0  0  0  0  0  0  0  0
   37.8410   31.1620   40.9180 C   0  0  0  0  0  0  0  0  0  0  0  0
   36.5410   31.0780   40.5550 C   0  0  0  0  0  0  0  0  0  0  0  0
   35.7810   29.9340   40.6920 C   0  0  0  0  0  0  0  0  0  0  0  0
   36.4290   28.8460   41.2340 C   0  0  0  0  0  0  0  0  0  0  0  0
   37.7690   28.8950   41.6200 C   0  0  0  0  0  0  0  0  0  0  0  0
   38.3910   30.0750   41.4300 N   0  0  0  0  0  0  0  0  0  0  0  0
   36.0510   31.9430   40.1330 H   0  0  0  0  0  0  0  0  0  0  0  0
   34.7420   29.8680   40.4020 H   0  0  0  0  0  0  0  0  0  0  0  0
   35.8390   27.9530   41.3420 H   0  0  0  0  0  0  0  0  0  0  0  0
   38.2870   27.6570   42.1700 C   0  0  0  0  0  0  0  0  0  0  0  0
   39.1640   27.6550   43.1880 N   0  0  0  0  0  0  0  0  0  0  0  0
   39.6990   26.5990   43.7670 C   0  0  0  0  0  3  0  0  0  0  0  0
   39.3790   25.3630   43.3440 N   0  0  0  0  0  0  0  0  0  0  0  0
   38.4960   25.2290   42.3130 C   0  0  0  0  0  0  0  0  0  0  0  0
   38.1510   23.9730   41.8610 C   0  0  0  0  0  3  0  0  0  0  0  0
   37.2500   23.8120   40.8080 C   0  0  0  0  0  0  0  0  0  0  0  0
   37.0630   22.7810   40.5480 H   0  0  0  0  0  0  0  0  0  0  0  0
   36.7290   24.9860   40.2510 C   0  0  0  0  0  0  0  0  0  0  0  0
   36.0360   24.7980   39.4380 H   0  0  0  0  0  0  0  0  0  0  0  0
   37.1140   26.2050   40.7480 C   0  0  0  0  0  3  0  0  0  0  0  0
   37.9880   26.3800   41.7700 C   0  0  0  0  0  0  0  0  0  0  0  0
  1  6  1  0  0  0  0
  1  9  1  0  0  0  0
  2  1  2  0  0  0  0
  3  4  2  0  0  0  0
  3  2  1  0  0  0  0
  4  5  1  0  0  0  0
  5 32  1  0  0  0  0
  5  6  2  0  0  0  0
  7  2  1  0  0  0  0
  8  3  1  0  0  0  0
  9 10  1  0  0  0  0
  9 15  1  1  0  0  0
 10 11  1  0  0  0  0
 10 17  1  0  0  0  0
 11 19  1  0  0  0  0
 12 11  1  0  0  0  0
 12 20  1  0  0  0  0
 13 12  1  0  0  0  0
 13 23  1  0  0  0  0
 14 24  1  6  0  0  0
 14 13  1  0  0  0  0
 14  9  1  0  0  0  0
 16 10  1  0  0  0  0
 18 11  1  0  0  0  0
 21 12  1  0  0  0  0
 22 13  1  0  0  0  0
 25 29  1  0  0  0  0
 25 14  1  0  0  0  0
 26 25  1  0  0  0  0
 27 26  2  0  0  0  0
 28 26  1  0  0  0  0
 30 28  1  0  0  0  0
 31 28  1  0  0  0  0
 32 37  1  0  0  0  0
 33 34  1  0  0  0  0
 33 32  2  0  0  0  0
 34 35  2  0  0  0  0
 35 40  1  0  0  0  0
 35 36  1  0  0  0  0
 36 41  1  0  0  0  0
 37 36  2  0  0  0  0
 38 33  1  0  0  0  0
 39 34  1  0  0  0  0
 41 42  1  0  0  0  0
 42 43  2  0  0  0  0
 44 43  1  0  0  0  0
 45 44  2  0  0  0  0
 46 45  1  0  0  0  0
 47 46  2  0  0  0  0
 48 47  1  0  0  0  0
 49 51  2  0  0  0  0
 49 47  1  0  0  0  0
 50 49  1  0  0  0  0
 51 52  1  0  0  0  0
 52 41  2  0  0  0  0
 52 45  1  0  0  0  0
M  END
>  <minimizedAffinity>
-7.80663252

$$$$

 OpenBabel03252507343D

 52 56  0  0  1  0  0  0  0  0999 V2000
   37.7640   27.0260   41.5600 C   0  0  0  0  0  0  0  0  0  0  0  0
   37.4930   27.0750   42.9200 C   0  0  0  0  0  0  0  0  0  0  0  0
   37.2820   28.3260   43.5470 C   0  0  0  0  0  0  0  0  0  0  0  0
   37.3680   29.4480   42.7260 N   0  0  0  0  0  0  0  0  0  0  0  0
   37.6380   29.3290   41.4070 C   0  0  0  0  0  0  0  0  0  0  0  0
   37.8300   28.1470   40.8410 N   0  0  0  0  0  0  0  0  0  0  0  0
   37.4210   26.3730   43.7210 H   0  0  0  0  0  0  0  0  0  0  0  0
   37.0650   28.5570   44.5560 H   0  0  0  0  0  0  0  0  0  0  0  0
   37.9480   25.7200   40.9620 C   0  0  2  0  0  0  0  0  0  0  0  0
   37.2090   24.6110   41.7760 C   0  0  0  0  0  0  0  0  0  0  0  0
   37.2920   23.3200   41.0390 C   0  0  0  0  0  0  0  0  0  0  0  0
   38.6250   22.9760   40.4670 C   0  0  0  0  0  0  0  0  0  0  0  0
   39.3540   24.1010   39.9330 C   0  0  0  0  0  0  0  0  0  0  0  0
   39.3440   25.3430   40.8480 C   0  0  2  0  0  0  0  0  0  0  0  0
   37.4040   25.6800   39.9880 H   0  0  0  0  0  0  0  0  0  0  0  0
   37.5730   24.5910   42.8050 H   0  0  0  0  0  0  0  0  0  0  0  0
   36.1610   24.9740   41.8120 H   0  0  0  0  0  0  0  0  0  0  0  0
   37.0530   22.5120   41.7880 H   0  0  0  0  0  0  0  0  0  0  0  0
   36.4310   23.3000   40.3440 H   0  0  0  0  0  0  0  0  0  0  0  0
   38.2720   22.4950   39.4680 H   0  0  0  0  0  0  0  0  0  0  0  0
   39.1110   22.0590   40.8030 H   0  0  0  0  0  0  0  0  0  0  0  0
   40.4430   23.8220   39.8180 H   0  0  0  0  0  0  0  0  0  0  0  0
   39.0750   24.5010   38.9310 H   0  0  0  0  0  0  0  0  0  0  0  0
   39.9930   26.0220   40.2940 H   0  0  0  0  0  0  0  0  0  0  0  0
   39.8650   24.9570   42.1620 N   0  0  0  0  0  0  0  0  0  0  0  0
   40.9010   25.4890   42.9480 C   0  0  0  0  0  0  0  0  0  0  0  0
   40.7760   26.5700   43.6290 O   0  0  0  0  0  0  0  0  0  0  0  0
   42.1080   24.7240   42.9400 N   0  0  0  0  0  0  0  0  0  0  0  0
   39.5030   24.0760   42.6910 H   0  0  0  0  0  0  0  0  0  0  0  0
   42.1170   23.7400   43.3190 H   0  0  0  0  0  0  0  0  0  0  0  0
   43.1250   24.6670   42.7040 H   0  0  0  0  0  0  0  0  0  0  0  0
   37.7480   30.5520   40.6180 C   0  0  0  0  0  0  0  0  0  0  0  0
   36.9490   30.8100   39.5580 C   0  0  0  0  0  0  0  0  0  0  0  0
   37.0350   31.9580   38.7960 C   0  0  0  0  0  0  0  0  0  0  0  0
   38.0050   32.8590   39.1780 C   0  0  0  0  0  0  0  0  0  0  0  0
   38.8480   32.6270   40.2670 C   0  0  0  0  0  0  0  0  0  0  0  0
   38.6540   31.4670   40.9210 N   0  0  0  0  0  0  0  0  0  0  0  0
   36.1950   30.0900   39.2750 H   0  0  0  0  0  0  0  0  0  0  0  0
   36.3960   32.1630   37.9490 H   0  0  0  0  0  0  0  0  0  0  0  0
   38.0740   33.7540   38.5860 H   0  0  0  0  0  0  0  0  0  0  0  0
   39.8080   33.6830   40.5240 C   0  0  0  0  0  0  0  0  0  0  0  0
   39.4150   34.9500   40.7420 N   0  0  0  0  0  0  0  0  0  0  0  0
   40.1910   35.9870   40.9840 C   0  0  0  0  0  3  0  0  0  0  0  0
   41.5270   35.8330   41.0330 N   0  0  0  0  0  0  0  0  0  0  0  0
   42.0530   34.5910   40.8280 C   0  0  0  0  0  0  0  0  0  0  0  0
   43.4180   34.4080   40.8730 C   0  0  0  0  0  3  0  0  0  0  0  0
   43.9800   33.1470   40.6660 C   0  0  0  0  0  0  0  0  0  0  0  0
   45.0570   33.1340   40.7260 H   0  0  0  0  0  0  0  0  0  0  0  0
   43.0830   32.1010   40.4140 C   0  0  0  0  0  0  0  0  0  0  0  0
   43.5770   31.1480   40.2610 H   0  0  0  0  0  0  0  0  0  0  0  0
   41.7360   32.3530   40.3830 C   0  0  0  0  0  3  0  0  0  0  0  0
   41.1730   33.5710   40.5820 C   0  0  0  0  0  0  0  0  0  0  0  0
  1  2  1  0  0  0  0
  2  3  2  0  0  0  0
  2  7  1  0  0  0  0
  3  8  1  0  0  0  0
  4  3  1  0  0  0  0
  5  4  2  0  0  0  0
  6  5  1  0  0  0  0
  6  1  2  0  0  0  0
  9 15  1  6  0  0  0
  9  1  1  0  0  0  0
  9 10  1  0  0  0  0
 10 17  1  0  0  0  0
 10 16  1  0  0  0  0
 11 10  1  0  0  0  0
 11 18  1  0  0  0  0
 12 21  1  0  0  0  0
 12 11  1  0  0  0  0
 13 12  1  0  0  0  0
 13 14  1  0  0  0  0
 14 24  1  6  0  0  0
 14  9  1  0  0  0  0
 14 25  1  0  0  0  0
 19 11  1  0  0  0  0
 20 12  1  0  0  0  0
 22 13  1  0  0  0  0
 23 13  1  0  0  0  0
 25 29  1  0  0  0  0
 25 26  1  0  0  0  0
 26 27  2  0  0  0  0
 28 26  1  0  0  0  0
 28 30  1  0  0  0  0
 31 28  1  0  0  0  0
 32 37  1  0  0  0  0
 32  5  1  0  0  0  0
 33 32  2  0  0  0  0
 34 35  2  0  0  0  0
 34 33  1  0  0  0  0
 35 36  1  0  0  0  0
 36 41  1  0  0  0  0
 36 37  2  0  0  0  0
 38 33  1  0  0  0  0
 39 34  1  0  0  0  0
 40 35  1  0  0  0  0
 41 52  2  0  0  0  0
 41 42  1  0  0  0  0
 42 43  2  0  0  0  0
 43 44  1  0  0  0  0
 45 46  1  0  0  0  0
 45 44  2  0  0  0  0
 47 48  1  0  0  0  0
 47 46  2  0  0  0  0
 49 47  1  0  0  0  0
 50 49  1  0  0  0  0
 51 49  2  0  0  0  0
 51 52  1  0  0  0  0
 52 45  1  0  0  0  0
M  END
>  <minimizedAffinity>
-7.66552448

$$$$

 OpenBabel03252507343D

 52 56  0  0  1  0  0  0  0  0999 V2000
   38.2580   29.9870   41.9770 C   0  0  0  0  0  0  0  0  0  0  0  0
   36.9440   29.8550   41.5500 C   0  0  0  0  0  0  0  0  0  0  0  0
   36.3480   30.8870   40.7870 C   0  0  0  0  0  0  0  0  0  0  0  0
   37.1500   31.9940   40.5170 N   0  0  0  0  0  0  0  0  0  0  0  0
   38.4230   32.0600   40.9670 C   0  0  0  0  0  0  0  0  0  0  0  0
   38.9610   31.0800   41.6780 N   0  0  0  0  0  0  0  0  0  0  0  0
   36.1600   29.1390   41.6670 H   0  0  0  0  0  0  0  0  0  0  0  0
   35.3760   30.9600   40.3770 H   0  0  0  0  0  0  0  0  0  0  0  0
   38.8270   28.8920   42.7340 C   0  0  2  0  0  0  0  0  0  0  0  0
   40.3740   28.8080   42.5410 C   0  0  0  0  0  0  0  0  0  0  0  0
   40.9310   27.7770   43.4580 C   0  0  0  0  0  0  0  0  0  0  0  0
   40.1790   26.4920   43.5340 C   0  0  0  0  0  0  0  0  0  0  0  0
   38.7440   26.6350   43.4790 C   0  0  0  0  0  0  0  0  0  0  0  0
   38.2560   27.6060   42.3840 C   0  0  2  0  0  0  0  0  0  0  0  0
   38.7530   29.1210   43.8250 H   0  0  0  0  0  0  0  0  0  0  0  0
   40.6160   28.6790   41.4830 H   0  0  0  0  0  0  0  0  0  0  0  0
   40.7240   29.8200   42.8300 H   0  0  0  0  0  0  0  0  0  0  0  0
   41.9540   27.5190   43.0620 H   0  0  0  0  0  0  0  0  0  0  0  0
   41.1390   28.2900   44.4170 H   0  0  0  0  0  0  0  0  0  0  0  0
   40.2980   26.2820   44.6730 H   0  0  0  0  0  0  0  0  0  0  0  0
   40.6960   25.5730   43.2530 H   0  0  0  0  0  0  0  0  0  0  0  0
   38.2780   25.6380   43.2250 H   0  0  0  0  0  0  0  0  0  0  0  0
   38.1960   26.9600   44.3930 H   0  0  0  0  0  0  0  0  0  0  0  0
   37.1740   27.5060   42.4780 H   0  0  0  0  0  0  0  0  0  0  0  0
   38.7880   27.1590   41.0940 N   0  0  0  0  0  0  0  0  0  0  0  0
   38.1660   26.5700   39.9810 C   0  0  0  0  0  0  0  0  0  0  0  0
   37.4620   27.2380   39.1390 O   0  0  0  0  0  0  0  0  0  0  0  0
   38.3840   25.1640   39.8510 N   0  0  0  0  0  0  0  0  0  0  0  0
   39.8540   27.1810   40.8700 H   0  0  0  0  0  0  0  0  0  0  0  0
   39.3580   24.7890   39.6980 H   0  0  0  0  0  0  0  0  0  0  0  0
   37.9850   24.1980   39.8320 H   0  0  0  0  0  0  0  0  0  0  0  0
   39.1890   33.2670   40.6760 C   0  0  0  0  0  0  0  0  0  0  0  0
   38.6050   34.4270   40.2950 C   0  0  0  0  0  0  0  0  0  0  0  0
   39.3080   35.5810   40.0120 C   0  0  0  0  0  0  0  0  0  0  0  0
   40.6770   35.4940   40.1390 C   0  0  0  0  0  0  0  0  0  0  0  0
   41.3140   34.3160   40.5300 C   0  0  0  0  0  0  0  0  0  0  0  0
   40.5070   33.2660   40.7750 N   0  0  0  0  0  0  0  0  0  0  0  0
   37.5300   34.4730   40.2000 H   0  0  0  0  0  0  0  0  0  0  0  0
   38.8400   36.5060   39.7070 H   0  0  0  0  0  0  0  0  0  0  0  0
   41.2270   36.3920   39.9200 H   0  0  0  0  0  0  0  0  0  0  0  0
   42.7590   34.4080   40.6120 C   0  0  0  0  0  0  0  0  0  0  0  0
   43.3680   34.9360   41.6880 N   0  0  0  0  0  0  0  0  0  0  0  0
   44.6660   35.0720   41.8740 C   0  0  0  0  0  3  0  0  0  0  0  0
   45.5290   34.6600   40.9290 N   0  0  0  0  0  0  0  0  0  0  0  0
   45.0360   34.1050   39.7850 C   0  0  0  0  0  0  0  0  0  0  0  0
   45.9000   33.6750   38.8010 C   0  0  0  0  0  3  0  0  0  0  0  0
   45.4190   33.1030   37.6230 C   0  0  0  0  0  0  0  0  0  0  0  0
   46.1940   32.8080   36.9320 H   0  0  0  0  0  0  0  0  0  0  0  0
   44.0270   32.9970   37.5070 C   0  0  0  0  0  0  0  0  0  0  0  0
   43.7130   32.5470   36.5720 H   0  0  0  0  0  0  0  0  0  0  0  0
   43.2240   33.4450   38.5240 C   0  0  0  0  0  3  0  0  0  0  0  0
   43.6740   34.0030   39.6750 C   0  0  0  0  0  0  0  0  0  0  0  0
  1  9  1  0  0  0  0
  2  7  1  0  0  0  0
  2  1  2  0  0  0  0
  3  2  1  0  0  0  0
  4  3  2  0  0  0  0
  4  5  1  0  0  0  0
  5  6  2  0  0  0  0
  6  1  1  0  0  0  0
  8  3  1  0  0  0  0
  9 15  1  1  0  0  0
 10  9  1  0  0  0  0
 10 17  1  0  0  0  0
 10 11  1  0  0  0  0
 11 12  1  0  0  0  0
 11 19  1  0  0  0  0
 12 20  1  0  0  0  0
 13 12  1  0  0  0  0
 13 23  1  0  0  0  0
 14 24  1  6  0  0  0
 14  9  1  0  0  0  0
 14 13  1  0  0  0  0
 16 10  1  0  0  0  0
 18 11  1  0  0  0  0
 21 12  1  0  0  0  0
 22 13  1  0  0  0  0
 25 14  1  0  0  0  0
 26 25  1  0  0  0  0
 27 26  2  0  0  0  0
 28 26  1  0  0  0  0
 29 25  1  0  0  0  0
 30 28  1  0  0  0  0
 31 28  1  0  0  0  0
 32 37  1  0  0  0  0
 32  5  1  0  0  0  0
 33 32  2  0  0  0  0
 34 35  2  0  0  0  0
 34 33  1  0  0  0  0
 35 36  1  0  0  0  0
 36 41  1  0  0  0  0
 36 37  2  0  0  0  0
 38 33  1  0  0  0  0
 39 34  1  0  0  0  0
 40 35  1  0  0  0  0
 41 42  1  0  0  0  0
 42 43  2  0  0  0  0
 44 43  1  0  0  0  0
 45 44  2  0  0  0  0
 46 45  1  0  0  0  0
 47 46  2  0  0  0  0
 48 47  1  0  0  0  0
 49 47  1  0  0  0  0
 49 51  2  0  0  0  0
 50 49  1  0  0  0  0
 51 52  1  0  0  0  0
 52 45  1  0  0  0  0
 52 41  2  0  0  0  0
M  END
>  <minimizedAffinity>
-7.5670352

$$$$
