REMARK  Name = 
REMARK  4 active torsions:
REMARK  status: ('A' for Active; 'I' for Inactive)
REMARK    1  A    between atoms: C_1  and  C_11
REMARK    2  A    between atoms: C_3  and  S_13
REMARK    3  A    between atoms: S_13  and  C_14
REMARK    4  A    between atoms: C_22  and  C_35
REMARK                            x       y       z     vdW  Elec       q    Type
REMARK                         _______ _______ _______ _____ _____    ______ ____
ROOT
ATOM      1  C   UNL     1      49.909  30.518  49.615  0.00  0.00    +0.000 A 
ATOM      2  N   UNL     1      50.126  31.801  50.026  0.00  0.00    +0.000 NA
ATOM      3  C   UNL     1      50.847  32.110  51.107  0.00  0.00    +0.000 A 
ATOM      4  N   UNL     1      51.381  31.107  51.823  0.00  0.00    +0.000 NA
ATOM      5  C   UNL     1      51.222  29.818  51.497  0.00  0.00    +0.000 A 
ATOM      6  C   UNL     1      51.779  28.774  52.210  0.00  0.00    +0.000 A 
ATOM      7  C   UNL     1      51.595  27.462  51.810  0.00  0.00    +0.000 A 
ATOM      8  C   UNL     1      50.843  27.130  50.677  0.00  0.00    +0.000 A 
ATOM      9  C   UNL     1      50.302  28.205  49.993  0.00  0.00    +0.000 A 
ATOM     10  C   UNL     1      50.473  29.512  50.372  0.00  0.00    +0.000 A 
ATOM     11  H   UNL     1      50.991  33.130  51.387  0.00  0.00    +0.000 HD
ATOM     12  H   UNL     1      52.350  29.047  53.074  0.00  0.00    +0.000 HD
ATOM     13  H   UNL     1      52.098  26.746  52.465  0.00  0.00    +0.000 HD
ATOM     14  H   UNL     1      50.810  26.079  50.520  0.00  0.00    +0.000 HD
ENDROOT
BRANCH   9  15
ATOM     15  C   UNL     1      49.471  27.641  48.938  0.00  0.00    +0.000 A 
ATOM     16  N   UNL     1      48.119  27.526  48.765  0.00  0.00    +0.000 NA
ATOM     17  C   UNL     1      47.636  26.944  47.637  0.00  0.00    +0.000 A 
ATOM     18  N   UNL     1      48.403  26.451  46.634  0.00  0.00    +0.000 NA
ATOM     19  C   UNL     1      49.740  26.543  46.759  0.00  0.00    +0.000 A 
ATOM     20  C   UNL     1      50.489  26.057  45.724  0.00  0.00    +0.000 A 
ATOM     21  C   UNL     1      51.849  26.138  45.776  0.00  0.00    +0.000 A 
ATOM     22  H   UNL     1      52.474  25.773  44.986  0.00  0.00    +0.000 HD
ATOM     23  C   UNL     1      52.477  26.709  46.871  0.00  0.00    +0.000 A 
ATOM     24  H   UNL     1      53.544  26.793  46.950  0.00  0.00    +0.000 HD
ATOM     25  C   UNL     1      51.652  27.172  47.869  0.00  0.00    +0.000 A 
ATOM     26  C   UNL     1      50.267  27.133  47.901  0.00  0.00    +0.000 A 
ENDBRANCH   9  15
BRANCH   1  27
ATOM     27  S   UNL     1      48.968  30.080  48.184  0.00  0.00    +0.000 S 
BRANCH  27  30
ATOM     28  C   UNL     1      46.142  32.667  46.942  0.00  0.00    +0.000 A 
ATOM     29  C   UNL     1      47.253  31.886  47.060  0.00  0.00    +0.000 A 
ATOM     30  C   UNL     1      47.462  31.050  48.136  0.00  0.00    +0.000 A 
ATOM     31  C   UNL     1      46.513  30.980  49.165  0.00  0.00    +0.000 A 
ATOM     32  C   UNL     1      45.399  31.742  49.075  0.00  0.00    +0.000 A 
ATOM     33  C   UNL     1      45.223  32.571  47.979  0.00  0.00    +0.000 A 
ATOM     34  H   UNL     1      48.004  31.925  46.258  0.00  0.00    +0.000 HD
ATOM     35  H   UNL     1      46.666  30.338  49.998  0.00  0.00    +0.000 HD
ATOM     36  H   UNL     1      44.622  31.736  49.839  0.00  0.00    +0.000 HD
ATOM     37  H   UNL     1      44.328  33.175  47.919  0.00  0.00    +0.000 HD
BRANCH  28  42
ATOM     38  C   UNL     1      44.730  35.333  44.889  0.00  0.00    +0.000 A 
ATOM     39  C   UNL     1      45.455  35.256  43.700  0.00  0.00    +0.000 A 
ATOM     40  C   UNL     1      46.449  34.274  43.601  0.00  0.00    +0.000 A 
ATOM     41  N   UNL     1      46.669  33.437  44.656  0.00  0.00    +0.000 NA
ATOM     42  C   UNL     1      45.928  33.550  45.808  0.00  0.00    +0.000 A 
ATOM     43  N   UNL     1      44.976  34.491  45.905  0.00  0.00    +0.000 NA
ATOM     44  H   UNL     1      43.979  36.118  44.900  0.00  0.00    +0.000 HD
ATOM     45  H   UNL     1      45.358  35.867  42.807  0.00  0.00    +0.000 HD
ATOM     46  H   UNL     1      47.087  34.097  42.735  0.00  0.00    +0.000 HD
ENDBRANCH  28  42
ENDBRANCH  27  30
ENDBRANCH   1  27
TORSDOF 4
