REMARK  Name = 
REMARK  4 active torsions:
REMARK  status: ('A' for Active; 'I' for Inactive)
REMARK    1  A    between atoms: C_1  and  C_7
REMARK    2  A    between atoms: C_6  and  N_19
REMARK    3  A    between atoms: C_11  and  C_13
REMARK    4  A    between atoms: C_17  and  C_41
REMARK                            x       y       z     vdW  Elec       q    Type
REMARK                         _______ _______ _______ _____ _____    ______ ____
ROOT
ATOM      1  C   UNL     1      46.911  32.914  45.528  0.00  0.00    +0.000 A 
ATOM      2  C   UNL     1      45.797  33.584  46.013  0.00  0.00    +0.000 A 
ATOM      3  C   UNL     1      45.116  34.504  45.181  0.00  0.00    +0.000 A 
ATOM      4  N   UNL     1      45.634  34.675  43.899  0.00  0.00    +0.000 NA
ATOM      5  C   UNL     1      46.727  33.991  43.491  0.00  0.00    +0.000 A 
ATOM      6  N   UNL     1      47.347  33.133  44.287  0.00  0.00    +0.000 NA
ATOM      7  H   UNL     1      45.266  33.636  46.938  0.00  0.00    +0.000 HD
ATOM      8  H   UNL     1      44.261  35.096  45.372  0.00  0.00    +0.000 HD
ENDROOT
BRANCH   1   9
ATOM      9  C   UNL     1      47.557  31.966  46.412  0.00  0.00    +0.000 C 
ATOM     10  C   UNL     1      47.297  30.495  45.959  0.00  0.00    +0.000 C 
ATOM     11  C   UNL     1      48.108  29.570  46.797  0.00  0.00    +0.000 C 
ATOM     12  C   UNL     1      48.112  29.845  48.262  0.00  0.00    +0.000 C 
ATOM     13  C   UNL     1      48.124  31.246  48.607  0.00  0.00    +0.000 C 
ATOM     14  C   UNL     1      47.129  32.098  47.791  0.00  0.00    +0.000 C 
ATOM     15  H   UNL     1      48.664  32.043  46.289  0.00  0.00    +0.000 HD
ATOM     16  H   UNL     1      46.224  30.291  45.935  0.00  0.00    +0.000 HD
ATOM     17  H   UNL     1      47.651  30.483  44.908  0.00  0.00    +0.000 HD
ATOM     18  H   UNL     1      47.653  28.546  46.671  0.00  0.00    +0.000 HD
ATOM     19  H   UNL     1      49.095  29.484  46.303  0.00  0.00    +0.000 HD
ATOM     20  H   UNL     1      49.225  29.591  48.489  0.00  0.00    +0.000 HD
ATOM     21  H   UNL     1      47.739  29.071  48.935  0.00  0.00    +0.000 HD
ATOM     22  H   UNL     1      47.811  31.370  49.685  0.00  0.00    +0.000 HD
ATOM     23  H   UNL     1      49.082  31.812  48.541  0.00  0.00    +0.000 HD
ATOM     24  H   UNL     1      47.257  33.077  48.255  0.00  0.00    +0.000 HD
BRANCH  14  25
ATOM     25  N   UNL     1      45.788  31.530  47.954  0.00  0.00    +0.000 N 
ATOM     26  C   UNL     1      45.187  30.848  49.025  0.00  0.00    +0.000 C 
ATOM     27  O   UNL     1      44.756  31.443  50.078  0.00  0.00    +0.000 OA
ATOM     28  N   UNL     1      45.083  29.434  48.847  0.00  0.00    +0.000 N 
ATOM     29  H   UNL     1      45.062  31.522  47.142  0.00  0.00    +0.000 HD
ATOM     30  H   UNL     1      44.497  29.038  48.065  0.00  0.00    +0.000 HD
ATOM     31  H   UNL     1      45.347  28.474  49.166  0.00  0.00    +0.000 HD
ENDBRANCH  14  25
ENDBRANCH   1   9
BRANCH   5  32
ATOM     32  C   UNL     1      47.233  34.250  42.147  0.00  0.00    +0.000 A 
ATOM     33  C   UNL     1      48.191  35.171  41.894  0.00  0.00    +0.000 A 
ATOM     34  C   UNL     1      48.684  35.435  40.632  0.00  0.00    +0.000 A 
ATOM     35  C   UNL     1      48.137  34.693  39.608  0.00  0.00    +0.000 A 
ATOM     36  C   UNL     1      47.148  33.734  39.831  0.00  0.00    +0.000 A 
ATOM     37  N   UNL     1      46.760  33.579  41.111  0.00  0.00    +0.000 NA
ATOM     38  H   UNL     1      48.606  35.743  42.711  0.00  0.00    +0.000 HD
ATOM     39  H   UNL     1      49.449  36.172  40.431  0.00  0.00    +0.000 HD
ATOM     40  H   UNL     1      48.520  34.897  38.624  0.00  0.00    +0.000 HD
BRANCH  36  41
ATOM     41  C   UNL     1      46.690  33.049  38.638  0.00  0.00    +0.000 A 
ATOM     42  N   UNL     1      46.695  33.653  37.438  0.00  0.00    +0.000 NA
ATOM     43  C   UNL     1      46.304  33.133  36.290  0.00  0.00    +0.000 A 
ATOM     44  N   UNL     1      45.842  31.871  36.245  0.00  0.00    +0.000 NA
ATOM     45  C   UNL     1      45.786  31.148  37.400  0.00  0.00    +0.000 A 
ATOM     46  C   UNL     1      45.316  29.854  37.379  0.00  0.00    +0.000 A 
ATOM     47  C   UNL     1      45.251  29.095  38.549  0.00  0.00    +0.000 A 
ATOM     48  H   UNL     1      44.865  28.097  38.401  0.00  0.00    +0.000 HD
ATOM     49  C   UNL     1      45.685  29.724  39.721  0.00  0.00    +0.000 A 
ATOM     50  H   UNL     1      45.611  29.086  40.596  0.00  0.00    +0.000 HD
ATOM     51  C   UNL     1      46.142  31.015  39.673  0.00  0.00    +0.000 A 
ATOM     52  C   UNL     1      46.212  31.766  38.546  0.00  0.00    +0.000 A 
ENDBRANCH  36  41
ENDBRANCH   5  32
TORSDOF 4
