
 OpenBabel03252506573D

 41 46  0  0  0  0  0  0  0  0999 V2000
   47.3250   31.3930   45.2730 C   0  0  0  0  0  0  0  0  0  0  0  0
   46.8640   32.6930   45.2050 C   0  0  0  0  0  0  0  0  0  0  0  0
   46.1870   33.2920   46.2500 C   0  0  0  0  0  0  0  0  0  0  0  0
   45.9450   32.5770   47.4320 C   0  0  0  0  0  0  0  0  0  0  0  0
   45.3370   32.8270   48.6230 N   0  0  0  0  0  0  0  0  0  0  0  0
   45.4270   31.7080   49.3910 C   0  0  0  0  0  0  0  0  0  0  0  0
   46.0910   30.7860   48.6590 N   0  0  0  0  0  0  0  0  0  0  0  0
   46.4200   31.2870   47.4600 C   0  0  0  0  0  0  0  0  0  0  0  0
   47.0870   30.6720   46.4500 C   0  0  0  0  0  0  0  0  0  0  0  0
   47.8600   30.9180   44.4460 H   0  0  0  0  0  0  0  0  0  0  0  0
   45.8210   34.3060   46.2100 H   0  0  0  0  0  0  0  0  0  0  0  0
   44.9240   33.7580   48.7670 H   0  0  0  0  0  0  0  0  0  0  0  0
   45.0140   31.6760   50.3790 H   0  0  0  0  0  0  0  0  0  0  0  0
   46.4220   35.1540   42.5070 C   0  0  0  0  0  0  0  0  0  0  0  0
   47.5590   34.9540   41.7290 C   0  0  0  0  0  0  0  0  0  0  0  0
   48.4830   33.9700   42.1300 C   0  0  0  0  0  0  0  0  0  0  0  0
   48.2110   33.2600   43.2690 N   0  0  0  0  0  0  0  0  0  0  0  0
   47.0870   33.4840   44.0050 C   0  0  0  0  0  0  0  0  0  0  0  0
   46.1980   34.4240   43.6290 N   0  0  0  0  0  0  0  0  0  0  0  0
   45.7540   35.9190   42.1510 H   0  0  0  0  0  0  0  0  0  0  0  0
   47.8150   35.4800   40.8360 H   0  0  0  0  0  0  0  0  0  0  0  0
   49.4040   33.7030   41.6330 H   0  0  0  0  0  0  0  0  0  0  0  0
   47.5580   29.2830   46.5750 C   0  0  0  0  0  0  0  0  0  0  0  0
   48.8110   28.8360   46.2460 C   0  0  0  0  0  0  0  0  0  0  0  0
   48.7370   27.4670   46.5490 C   0  0  0  0  0  0  0  0  0  0  0  0
   47.4970   27.1540   47.0250 C   0  0  0  0  0  0  0  0  0  0  0  0
   46.8560   28.2970   47.0080 O   0  0  0  0  0  0  0  0  0  0  0  0
   49.6600   29.3720   45.8530 H   0  0  0  0  0  0  0  0  0  0  0  0
   49.5770   26.8520   46.4260 H   0  0  0  0  0  0  0  0  0  0  0  0
   46.7850   25.9880   47.5050 C   0  0  0  0  0  0  0  0  0  0  0  0
   47.0120   25.5270   48.7670 N   0  0  0  0  0  0  0  0  0  0  0  0
   46.4890   24.4200   49.2470 C   0  0  0  0  0  3  0  0  0  0  0  0
   45.6700   23.6220   48.5390 N   0  0  0  0  0  0  0  0  0  0  0  0
   45.3680   23.9870   47.2590 C   0  0  0  0  0  0  0  0  0  0  0  0
   44.5260   23.2420   46.4990 C   0  0  0  0  0  3  0  0  0  0  0  0
   44.1780   23.6040   45.2130 C   0  0  0  0  0  0  0  0  0  0  0  0
   43.5070   22.9310   44.7190 H   0  0  0  0  0  0  0  0  0  0  0  0
   44.7560   24.7900   44.7530 C   0  0  0  0  0  0  0  0  0  0  0  0
   44.4570   25.0470   43.7300 H   0  0  0  0  0  0  0  0  0  0  0  0
   45.6040   25.5140   45.5530 C   0  0  0  0  0  3  0  0  0  0  0  0
   45.9470   25.1510   46.8240 C   0  0  0  0  0  0  0  0  0  0  0  0
  1  9  1  0  0  0  0
  2  1  2  0  0  0  0
  2  3  1  0  0  0  0
  3  4  2  0  0  0  0
  4  8  1  0  0  0  0
  4  5  1  0  0  0  0
  5 12  1  0  0  0  0
  5  6  1  0  0  0  0
  6 13  1  0  0  0  0
  7  6  2  0  0  0  0
  8  7  1  0  0  0  0
  9 23  1  0  0  0  0
  9  8  2  0  0  0  0
 10  1  1  0  0  0  0
 11  3  1  0  0  0  0
 14 19  1  0  0  0  0
 15 16  1  0  0  0  0
 15 14  2  0  0  0  0
 16 17  2  0  0  0  0
 17 18  1  0  0  0  0
 18  2  1  0  0  0  0
 19 18  2  0  0  0  0
 20 14  1  0  0  0  0
 21 15  1  0  0  0  0
 22 16  1  0  0  0  0
 23 27  1  0  0  0  0
 24 25  1  0  0  0  0
 24 23  2  0  0  0  0
 25 26  2  0  0  0  0
 26 30  1  0  0  0  0
 27 26  1  0  0  0  0
 28 24  1  0  0  0  0
 29 25  1  0  0  0  0
 30 31  1  0  0  0  0
 31 32  2  0  0  0  0
 33 32  1  0  0  0  0
 34 33  2  0  0  0  0
 35 34  1  0  0  0  0
 36 35  2  0  0  0  0
 37 36  1  0  0  0  0
 38 36  1  0  0  0  0
 38 40  2  0  0  0  0
 39 38  1  0  0  0  0
 40 41  1  0  0  0  0
 41 34  1  0  0  0  0
 41 30  2  0  0  0  0
M  END
>  <minimizedAffinity>
-6.11431646

>  <minimizedRMSD>
1.36023569

$$$$
