
 OpenBabel03252502023D

 37 41  0  0  0  0  0  0  0  0999 V2000
   46.7720   32.4440   48.0560 C   0  0  0  0  0  0  0  0  0  0  0  0
   46.7810   31.0450   47.9530 C   0  0  0  0  0  0  0  0  0  0  0  0
   46.5620   30.4770   46.7060 C   0  0  0  0  0  0  0  0  0  0  0  0
   46.3640   31.3380   45.7200 N   0  0  0  0  0  0  0  0  0  0  0  0
   46.3470   32.6440   45.7660 C   0  0  0  0  0  0  0  0  0  0  0  0
   46.5570   33.1610   46.9650 N   0  0  0  0  0  0  0  0  0  0  0  0
   46.9460   32.8820   49.0570 H   0  0  0  0  0  0  0  0  0  0  0  0
   46.1320   33.6740   44.7560 C   0  0  0  0  0  0  0  0  0  0  0  0
   45.0820   34.5350   44.7570 N   0  0  0  0  0  0  0  0  0  0  0  0
   44.8420   35.4880   43.8660 C   0  0  0  0  0  0  0  0  0  0  0  0
   45.7040   35.6560   42.8350 N   0  0  0  0  0  0  0  0  0  0  0  0
   46.7890   34.8670   42.7150 C   0  0  0  0  0  0  0  0  0  0  0  0
   47.6640   35.0450   41.6560 C   0  0  0  0  0  0  0  0  0  0  0  0
   48.7710   34.2480   41.5260 C   0  0  0  0  0  0  0  0  0  0  0  0
   48.9680   33.2840   42.4730 C   0  0  0  0  0  0  0  0  0  0  0  0
   48.0810   33.1340   43.5080 C   0  0  0  0  0  0  0  0  0  0  0  0
   46.9630   33.9010   43.6860 C   0  0  0  0  0  0  0  0  0  0  0  0
   44.0030   36.1660   43.8810 H   0  0  0  0  0  0  0  0  0  0  0  0
   47.4460   35.8260   40.9440 H   0  0  0  0  0  0  0  0  0  0  0  0
   49.4690   34.3570   40.7230 H   0  0  0  0  0  0  0  0  0  0  0  0
   49.8540   32.6500   42.3650 H   0  0  0  0  0  0  0  0  0  0  0  0
   48.2920   32.3450   44.2400 H   0  0  0  0  0  0  0  0  0  0  0  0
   46.5400   29.0490   46.7250 C   0  0  0  0  0  0  0  0  0  0  0  0
   47.5380   28.4010   47.0540 N   0  0  0  0  0  0  0  0  0  0  0  0
   47.9470   27.1690   47.3400 C   0  0  0  0  0  3  0  0  0  0  0  0
   46.8320   26.4220   47.1900 N   0  0  0  0  0  0  0  0  0  0  0  0
   45.6420   26.8890   46.8370 C   0  0  0  0  0  0  0  0  0  0  0  0
   44.5020   26.0860   46.6780 C   0  0  0  0  0  3  0  0  0  0  0  0
   43.3000   26.6560   46.2970 C   0  0  0  0  0  0  0  0  0  0  0  0
   42.5340   25.8910   46.2200 H   0  0  0  0  0  0  0  0  0  0  0  0
   43.0950   28.0190   46.0410 C   0  0  0  0  0  0  0  0  0  0  0  0
   42.1360   28.3550   45.7590 H   0  0  0  0  0  0  0  0  0  0  0  0
   44.2410   28.7580   46.2130 C   0  0  0  0  0  3  0  0  0  0  0  0
   45.4320   28.2490   46.5820 C   0  0  0  0  0  0  0  0  0  0  0  0
   47.0290   30.2970   49.1510 N   0  0  0  0  0  0  0  0  0  0  0  0
   46.3860   30.1500   49.9630 H   0  0  0  0  0  0  0  0  0  0  0  0
   48.0020   29.8950   49.1030 H   0  0  0  0  0  0  0  0  0  0  0  0
  1  7  1  0  0  0  0
  2  1  1  0  0  0  0
  2 35  1  0  0  0  0
  3 23  1  0  0  0  0
  3  2  2  0  0  0  0
  4  5  2  0  0  0  0
  4  3  1  0  0  0  0
  5  6  1  0  0  0  0
  6  1  2  0  0  0  0
  8  9  1  0  0  0  0
  8  5  1  0  0  0  0
 10 18  1  0  0  0  0
 10  9  2  0  0  0  0
 11 10  1  0  0  0  0
 12 11  2  0  0  0  0
 12 17  1  0  0  0  0
 13 12  1  0  0  0  0
 14 13  2  0  0  0  0
 14 15  1  0  0  0  0
 15 16  2  0  0  0  0
 16 17  1  0  0  0  0
 16 22  1  0  0  0  0
 17  8  2  0  0  0  0
 19 13  1  0  0  0  0
 20 14  1  0  0  0  0
 21 15  1  0  0  0  0
 23 24  1  0  0  0  0
 24 25  2  0  0  0  0
 26 25  1  0  0  0  0
 27 26  2  0  0  0  0
 28 27  1  0  0  0  0
 29 28  2  0  0  0  0
 30 29  1  0  0  0  0
 31 33  2  0  0  0  0
 31 29  1  0  0  0  0
 32 31  1  0  0  0  0
 33 34  1  0  0  0  0
 34 23  2  0  0  0  0
 34 27  1  0  0  0  0
 35 36  1  0  0  0  0
 37 35  1  0  0  0  0
M  END
>  <minimizedAffinity>
-6.60698128

>  <minimizedRMSD>
1.16990471

$$$$
