REMARK  Name = 
REMARK  3 active torsions:
REMARK  status: ('A' for Active; 'I' for Inactive)
REMARK    1  A    between atoms: C_3  and  C_10
REMARK    2  A    between atoms: C_5  and  C_14
REMARK    3  A    between atoms: C_12  and  C_23
REMARK                            x       y       z     vdW  Elec       q    Type
REMARK                         _______ _______ _______ _____ _____    ______ ____
ROOT
ATOM      1  C   UNL     1      44.775  34.123  46.858  0.00  0.00    +0.000 A 
ATOM      2  C   UNL     1      45.132  34.470  45.554  0.00  0.00    +0.000 A 
ATOM      3  C   UNL     1      45.931  33.659  44.797  0.00  0.00    +0.000 A 
ATOM      4  N   UNL     1      46.313  32.548  45.421  0.00  0.00    +0.000 NA
ATOM      5  C   UNL     1      46.019  32.151  46.648  0.00  0.00    +0.000 A 
ATOM      6  N   UNL     1      45.223  32.979  47.371  0.00  0.00    +0.000 NA
ATOM      7  H   UNL     1      44.133  34.795  47.438  0.00  0.00    +0.000 HD
ATOM      8  H   UNL     1      44.771  35.396  45.133  0.00  0.00    +0.000 HD
ENDROOT
BRANCH   5   9
ATOM      9  C   UNL     1      46.404  30.955  47.377  0.00  0.00    +0.000 A 
ATOM     10  N   UNL     1      47.092  30.998  48.526  0.00  0.00    +0.000 NA
ATOM     11  C   UNL     1      47.477  29.937  49.246  0.00  0.00    +0.000 A 
ATOM     12  N   UNL     1      47.187  28.688  48.845  0.00  0.00    +0.000 NA
ATOM     13  C   UNL     1      46.501  28.540  47.706  0.00  0.00    +0.000 A 
ATOM     14  C   UNL     1      46.202  27.259  47.293  0.00  0.00    +0.000 A 
ATOM     15  C   UNL     1      45.499  27.037  46.130  0.00  0.00    +0.000 A 
ATOM     16  H   UNL     1      45.261  26.045  45.800  0.00  0.00    +0.000 HD
ATOM     17  C   UNL     1      45.110  28.165  45.400  0.00  0.00    +0.000 A 
ATOM     18  H   UNL     1      44.560  27.951  44.493  0.00  0.00    +0.000 HD
ATOM     19  C   UNL     1      45.436  29.422  45.859  0.00  0.00    +0.000 A 
ATOM     20  C   UNL     1      46.126  29.660  46.999  0.00  0.00    +0.000 A 
ENDBRANCH   5   9
BRANCH   3  23
ATOM     21 CL   UNL     1      44.111  32.556  42.687  0.00  0.00    +0.000 Cl
ATOM     22  C   UNL     1      45.565  33.480  42.403  0.00  0.00    +0.000 A 
ATOM     23  C   UNL     1      46.343  33.942  43.427  0.00  0.00    +0.000 A 
ATOM     24  C   UNL     1      47.454  34.649  43.057  0.00  0.00    +0.000 A 
ATOM     25  C   UNL     1      47.800  34.900  41.778  0.00  0.00    +0.000 A 
ATOM     26  C   UNL     1      47.004  34.428  40.752  0.00  0.00    +0.000 A 
ATOM     27  C   UNL     1      45.884  33.715  41.079  0.00  0.00    +0.000 A 
ATOM     28  H   UNL     1      48.096  35.031  43.856  0.00  0.00    +0.000 HD
ATOM     29  H   UNL     1      47.238  34.603  39.709  0.00  0.00    +0.000 HD
ATOM     30  H   UNL     1      45.267  33.350  40.269  0.00  0.00    +0.000 HD
BRANCH  25  31
ATOM     31  C   UNL     1      49.018  35.673  41.402  0.00  0.00    +0.000 C 
ATOM     32  F   UNL     1      50.108  34.923  41.755  0.00  0.00    +0.000 F 
ATOM     33  F   UNL     1      49.006  36.922  41.988  0.00  0.00    +0.000 F 
ATOM     34  F   UNL     1      48.998  35.846  40.020  0.00  0.00    +0.000 F 
ENDBRANCH  25  31
ENDBRANCH   3  23
TORSDOF 3
