
 OpenBabel03252501513D

 48 52  0  0  1  0  0  0  0  0999 V2000
   46.9840   30.5100   43.2510 C   0  0  0  0  0  0  0  0  0  0  0  0
   47.5210   31.2850   42.6470 H   0  0  0  0  0  0  0  0  0  0  0  0
   46.7270   30.9360   44.2440 H   0  0  0  0  0  0  0  0  0  0  0  0
   47.8250   29.3730   43.4230 N   0  0  0  0  0  0  0  0  0  0  0  0
   47.6830   28.4090   42.3920 C   0  0  0  0  0  0  0  0  0  0  0  0
   49.0240   27.7550   42.1880 C   0  0  0  0  0  0  0  0  0  0  0  0
   49.9780   28.8180   42.6280 C   0  0  0  0  0  0  0  0  0  0  0  0
   49.2180   29.7260   43.5560 C   0  0  2  0  0  0  0  0  0  0  0  0
   46.9730   27.6230   42.7260 H   0  0  0  0  0  0  0  0  0  0  0  0
   47.2660   28.8090   41.4450 H   0  0  0  0  0  0  0  0  0  0  0  0
   49.1260   26.8900   42.8820 H   0  0  0  0  0  0  0  0  0  0  0  0
   49.1740   27.4240   41.1460 H   0  0  0  0  0  0  0  0  0  0  0  0
   50.2560   29.4390   41.7390 H   0  0  0  0  0  0  0  0  0  0  0  0
   50.9160   28.4360   43.0770 H   0  0  0  0  0  0  0  0  0  0  0  0
   49.3380   30.7910   43.3210 H   0  0  0  0  0  0  0  0  0  0  0  0
   49.5870   29.3550   44.9470 C   0  0  0  0  0  0  0  0  0  0  0  0
   48.6580   29.0580   45.8860 N   0  0  0  0  0  0  0  0  0  0  0  0
   48.9700   28.7200   47.1510 C   0  0  0  0  0  3  0  0  0  0  0  0
   50.2390   28.6500   47.5900 N   0  0  0  0  0  0  0  0  0  0  0  0
   51.2130   28.9330   46.7060 C   0  0  0  0  0  0  0  0  0  0  0  0
   52.5260   28.8680   47.1360 C   0  0  0  0  0  3  0  0  0  0  0  0
   53.5440   29.1530   46.2520 C   0  0  0  0  0  0  0  0  0  0  0  0
   54.5460   29.0730   46.6830 H   0  0  0  0  0  0  0  0  0  0  0  0
   53.2470   29.5060   44.9320 C   0  0  0  0  0  0  0  0  0  0  0  0
   54.1050   29.7070   44.3310 H   0  0  0  0  0  0  0  0  0  0  0  0
   51.9130   29.5600   44.5430 C   0  0  0  0  0  3  0  0  0  0  0  0
   50.8810   29.2780   45.4120 C   0  0  0  0  0  0  0  0  0  0  0  0
   44.5590   30.8030   43.0390 C   0  0  0  0  0  3  0  0  0  0  0  0
   45.6640   30.1720   42.6180 C   0  0  0  0  0  3  0  0  0  0  0  0
   42.7730   29.1960   42.2270 C   0  0  0  0  0  0  0  0  0  0  0  0
   43.2320   30.5260   42.4680 C   0  0  0  0  0  0  0  0  0  0  0  0
   42.3900   31.6000   42.1480 C   0  0  0  0  0  0  0  0  0  0  0  0
   41.1670   31.3190   41.6210 N   0  0  0  0  0  0  0  0  0  0  0  0
   40.7670   30.0720   41.4090 C   0  0  0  0  0  0  0  0  0  0  0  0
   41.5670   29.0270   41.7110 N   0  0  0  0  0  0  0  0  0  0  0  0
   43.4410   28.3830   42.4810 H   0  0  0  0  0  0  0  0  0  0  0  0
   42.6900   32.6200   42.3110 H   0  0  0  0  0  0  0  0  0  0  0  0
   38.6440   29.2430   43.0030 F   0  0  0  0  0  0  0  0  0  0  0  0
   38.3980   29.4010   41.6730 C   0  0  0  0  0  0  0  0  0  0  0  0
   39.4450   29.8180   40.8420 C   0  0  0  0  0  0  0  0  0  0  0  0
   39.2700   29.9980   39.4890 C   0  0  0  0  0  0  0  0  0  0  0  0
   38.0010   29.7480   38.9700 C   0  0  0  0  0  0  0  0  0  0  0  0
   36.9290   29.3270   39.7910 C   0  0  0  0  0  0  0  0  0  0  0  0
   37.1510   29.1580   41.1500 C   0  0  0  0  0  0  0  0  0  0  0  0
   40.0540   30.3150   38.8280 H   0  0  0  0  0  0  0  0  0  0  0  0
   37.7510   29.8570   37.9250 H   0  0  0  0  0  0  0  0  0  0  0  0
   35.9540   29.1340   39.3990 H   0  0  0  0  0  0  0  0  0  0  0  0
   36.3740   28.8390   41.8280 H   0  0  0  0  0  0  0  0  0  0  0  0
  1  4  1  0  0  0  0
  1  3  1  0  0  0  0
  2  1  1  0  0  0  0
  4  8  1  0  0  0  0
  5  9  1  0  0  0  0
  5  4  1  0  0  0  0
  6  5  1  0  0  0  0
  6  7  1  0  0  0  0
  6 11  1  0  0  0  0
  7 14  1  0  0  0  0
  7  8  1  0  0  0  0
  8 15  1  6  0  0  0
  8 16  1  0  0  0  0
 10  5  1  0  0  0  0
 12  6  1  0  0  0  0
 13  7  1  0  0  0  0
 16 27  2  0  0  0  0
 16 17  1  0  0  0  0
 17 18  2  0  0  0  0
 18 19  1  0  0  0  0
 20 21  1  0  0  0  0
 20 19  2  0  0  0  0
 22 23  1  0  0  0  0
 22 21  2  0  0  0  0
 24 22  1  0  0  0  0
 25 24  1  0  0  0  0
 26 24  2  0  0  0  0
 26 27  1  0  0  0  0
 27 20  1  0  0  0  0
 29 28  2  0  0  0  0
 29  1  1  0  0  0  0
 30 31  1  0  0  0  0
 30 36  1  0  0  0  0
 31 28  1  0  0  0  0
 32 37  1  0  0  0  0
 32 31  2  0  0  0  0
 33 32  1  0  0  0  0
 34 33  2  0  0  0  0
 34 35  1  0  0  0  0
 35 30  2  0  0  0  0
 39 38  1  0  0  0  0
 40 34  1  0  0  0  0
 40 39  2  0  0  0  0
 41 40  1  0  0  0  0
 42 41  2  0  0  0  0
 42 43  1  0  0  0  0
 43 44  2  0  0  0  0
 44 39  1  0  0  0  0
 44 48  1  0  0  0  0
 45 41  1  0  0  0  0
 46 42  1  0  0  0  0
 47 43  1  0  0  0  0
M  END
>  <minimizedAffinity>
-3.17206192

>  <minimizedRMSD>
7.10609245

$$$$
