
 OpenBabel03252500103D

 34 37  0  0  0  0  0  0  0  0999 V2000
   45.2570   32.1870   39.6690 Cl  0  0  0  0  0  0  0  0  0  0  0  0
   46.5100   33.1290   38.9460 C   0  0  0  0  0  0  0  0  0  0  0  0
   47.3260   33.9130   39.7160 C   0  0  0  0  0  0  0  0  0  0  0  0
   48.3520   34.6920   39.1670 C   0  0  0  0  0  0  0  0  0  0  0  0
   48.4880   34.6200   37.7930 C   0  0  0  0  0  0  0  0  0  0  0  0
   47.6720   33.8360   37.0230 C   0  0  0  0  0  0  0  0  0  0  0  0
   46.6790   33.0840   37.5760 C   0  0  0  0  0  0  0  0  0  0  0  0
   48.9410   35.2770   39.8580 H   0  0  0  0  0  0  0  0  0  0  0  0
   49.3120   35.2550   37.4340 H   0  0  0  0  0  0  0  0  0  0  0  0
   47.8940   33.8860   35.9740 H   0  0  0  0  0  0  0  0  0  0  0  0
   45.8150   32.2620   36.7310 C   0  0  0  0  0  0  0  0  0  0  0  0
   44.5410   32.1480   37.2070 N   0  0  0  0  0  0  0  0  0  0  0  0
   43.6080   31.4330   36.5610 C   0  0  0  0  0  0  0  0  0  0  0  0
   43.8840   30.7890   35.4090 N   0  0  0  0  0  0  0  0  0  0  0  0
   45.1280   30.8790   34.9120 C   0  0  0  0  0  0  0  0  0  0  0  0
   45.5290   30.2580   33.7350 C   0  0  0  0  0  0  0  0  0  0  0  0
   46.8370   30.3810   33.2620 C   0  0  0  0  0  0  0  0  0  0  0  0
   47.0210   29.8480   32.3320 H   0  0  0  0  0  0  0  0  0  0  0  0
   47.7820   31.1340   33.9610 C   0  0  0  0  0  0  0  0  0  0  0  0
   48.7660   31.1780   33.5290 H   0  0  0  0  0  0  0  0  0  0  0  0
   47.4060   31.7650   35.1410 C   0  0  0  0  0  0  0  0  0  0  0  0
   46.1130   31.6030   35.5460 C   0  0  0  0  0  0  0  0  0  0  0  0
   47.6400   33.1660   43.3210 C   0  0  0  0  0  0  0  0  0  0  0  0
   46.7050   34.0580   43.8940 C   0  0  0  0  0  0  0  0  0  0  0  0
   45.9890   34.8890   43.0440 C   0  0  0  0  0  0  0  0  0  0  0  0
   46.2170   34.8130   41.7050 N   0  0  0  0  0  0  0  0  0  0  0  0
   47.1270   33.9440   41.1760 C   0  0  0  0  0  0  0  0  0  0  0  0
   47.8250   33.1340   41.9820 N   0  0  0  0  0  0  0  0  0  0  0  0
   48.1720   32.5380   44.0140 H   0  0  0  0  0  0  0  0  0  0  0  0
   46.5370   34.1070   44.9440 H   0  0  0  0  0  0  0  0  0  0  0  0
   44.9710   35.8700   43.5400 C   0  0  0  0  0  0  0  0  0  0  0  0
   45.3100   37.1500   43.1640 F   0  0  0  0  0  0  0  0  0  0  0  0
   43.7380   35.5440   42.9800 F   0  0  0  0  0  0  0  0  0  0  0  0
   44.9120   35.7470   44.9020 F   0  0  0  0  0  0  0  0  0  0  0  0
  2  1  1  0  0  0  0
  2  3  1  0  0  0  0
  3 27  1  0  0  0  0
  4  3  2  0  0  0  0
  4  8  1  0  0  0  0
  5  4  1  0  0  0  0
  6  7  1  0  0  0  0
  6  5  2  0  0  0  0
  7  2  2  0  0  0  0
  9  5  1  0  0  0  0
 10  6  1  0  0  0  0
 11 12  1  0  0  0  0
 11  7  1  0  0  0  0
 13 12  2  0  0  0  0
 14 13  1  0  0  0  0
 15 14  2  0  0  0  0
 15 22  1  0  0  0  0
 16 15  1  0  0  0  0
 17 16  2  0  0  0  0
 17 19  1  0  0  0  0
 18 17  1  0  0  0  0
 19 21  2  0  0  0  0
 20 19  1  0  0  0  0
 21 22  1  0  0  0  0
 22 11  2  0  0  0  0
 23 24  1  0  0  0  0
 23 29  1  0  0  0  0
 24 30  1  0  0  0  0
 25 31  1  0  0  0  0
 25 24  2  0  0  0  0
 26 25  1  0  0  0  0
 27 26  2  0  0  0  0
 27 28  1  0  0  0  0
 28 23  2  0  0  0  0
 31 34  1  0  0  0  0
 32 31  1  0  0  0  0
 33 31  1  0  0  0  0
M  END
>  <minimizedAffinity>
-6.11070585

>  <minimizedRMSD>
0.252687335

$$$$
