
 OpenBabel03252506323D

 35 38  0  0  1  0  0  0  0  0999 V2000
   39.4410   32.5110   39.6250 C   0  0  0  0  0  0  0  0  0  0  0  0
   40.0980   32.5470   40.8500 C   0  0  0  0  0  0  0  0  0  0  0  0
   39.7600   31.6000   41.7830 C   0  0  0  0  0  0  0  0  0  0  0  0
   38.7980   30.6760   41.4620 N   0  0  0  0  0  0  0  0  0  0  0  0
   38.1940   30.6790   40.2760 C   0  0  0  0  0  0  0  0  0  0  0  0
   38.5040   31.5880   39.3480 N   0  0  0  0  0  0  0  0  0  0  0  0
   37.2090   29.6860   40.0130 N   0  0  0  0  0  0  0  0  0  0  0  0
   36.6830   29.3610   38.6860 C   0  0  0  0  0  0  0  0  0  0  0  0
   35.2520   29.0490   39.0070 C   0  0  0  0  0  0  0  0  0  0  0  0
   35.1250   28.9600   40.5000 C   0  0  0  0  0  0  0  0  0  0  0  0
   36.5370   28.8190   40.9820 C   0  0  1  0  0  0  0  0  0  0  0  0
   39.6400   33.2130   38.8320 H   0  0  0  0  0  0  0  0  0  0  0  0
   40.2750   31.6350   42.7320 H   0  0  0  0  0  0  0  0  0  0  0  0
   37.2140   28.5300   38.2020 H   0  0  0  0  0  0  0  0  0  0  0  0
   36.7620   30.2800   38.0330 H   0  0  0  0  0  0  0  0  0  0  0  0
   34.8930   28.1330   38.4950 H   0  0  0  0  0  0  0  0  0  0  0  0
   34.6190   29.8920   38.6180 H   0  0  0  0  0  0  0  0  0  0  0  0
   34.4960   28.0600   40.7560 H   0  0  0  0  0  0  0  0  0  0  0  0
   34.6050   29.8350   40.9410 H   0  0  0  0  0  0  0  0  0  0  0  0
   36.5690   29.2570   41.9960 H   0  0  0  0  0  0  0  0  0  0  0  0
   36.9310   27.4160   40.8820 C   0  0  0  0  0  0  0  0  0  0  0  0
   36.4800   26.5480   39.9620 N   0  0  0  0  0  0  0  0  0  0  0  0
   36.8490   25.2630   39.8690 C   0  0  0  0  0  3  0  0  0  0  0  0
   37.7390   24.7300   40.7330 N   0  0  0  0  0  0  0  0  0  0  0  0
   38.2430   25.5280   41.6890 C   0  0  0  0  0  0  0  0  0  0  0  0
   39.1440   24.9640   42.5550 C   0  0  0  0  0  3  0  0  0  0  0  0
   39.6940   25.7320   43.5570 C   0  0  0  0  0  0  0  0  0  0  0  0
   40.3940   25.2620   44.2170 H   0  0  0  0  0  0  0  0  0  0  0  0
   39.3310   27.0610   43.6750 C   0  0  0  0  0  0  0  0  0  0  0  0
   39.7510   27.6830   44.4570 H   0  0  0  0  0  0  0  0  0  0  0  0
   38.4130   27.5690   42.7650 C   0  0  0  0  0  3  0  0  0  0  0  0
   37.8250   26.8640   41.7430 C   0  0  0  0  0  0  0  0  0  0  0  0
   41.0790   33.5780   41.0140 N   0  0  0  0  0  0  0  0  0  0  0  0
   41.7800   33.6640   40.2620 H   0  0  0  0  0  0  0  0  0  0  0  0
   40.9670   34.1270   41.8810 H   0  0  0  0  0  0  0  0  0  0  0  0
  1  2  1  0  0  0  0
  2 33  1  0  0  0  0
  2  3  2  0  0  0  0
  3 13  1  0  0  0  0
  4  3  1  0  0  0  0
  5  4  2  0  0  0  0
  6  1  2  0  0  0  0
  6  5  1  0  0  0  0
  7  5  1  0  0  0  0
  7 11  1  0  0  0  0
  8  9  1  0  0  0  0
  8  7  1  0  0  0  0
  9 10  1  0  0  0  0
 10 18  1  0  0  0  0
 10 19  1  0  0  0  0
 10 11  1  0  0  0  0
 11 20  1  1  0  0  0
 12  1  1  0  0  0  0
 14  8  1  0  0  0  0
 15  8  1  0  0  0  0
 16  9  1  0  0  0  0
 17  9  1  0  0  0  0
 21 11  1  0  0  0  0
 21 32  1  0  0  0  0
 22 21  2  0  0  0  0
 23 22  1  0  0  0  0
 23 24  2  0  0  0  0
 24 25  1  0  0  0  0
 25 32  2  0  0  0  0
 25 26  1  0  0  0  0
 26 27  2  0  0  0  0
 27 29  1  0  0  0  0
 27 28  1  0  0  0  0
 29 30  1  0  0  0  0
 31 29  2  0  0  0  0
 32 31  1  0  0  0  0
 33 35  1  0  0  0  0
 34 33  1  0  0  0  0
M  END
>  <minimizedAffinity>
-6.09771109

$$$$

 OpenBabel03252506323D

 35 38  0  0  1  0  0  0  0  0999 V2000
   40.0410   32.8810   39.0580 C   0  0  0  0  0  0  0  0  0  0  0  0
   39.8280   33.2810   40.3720 C   0  0  0  0  0  0  0  0  0  0  0  0
   38.8610   32.6250   41.0890 C   0  0  0  0  0  0  0  0  0  0  0  0
   38.1600   31.6170   40.4770 N   0  0  0  0  0  0  0  0  0  0  0  0
   38.3970   31.2670   39.2150 C   0  0  0  0  0  0  0  0  0  0  0  0
   39.3320   31.8890   38.4930 N   0  0  0  0  0  0  0  0  0  0  0  0
   37.6320   30.2100   38.6480 N   0  0  0  0  0  0  0  0  0  0  0  0
   37.9660   29.5080   37.4080 C   0  0  0  0  0  0  0  0  0  0  0  0
   36.6010   29.2530   36.8400 C   0  0  0  0  0  0  0  0  0  0  0  0
   35.5930   29.5830   37.9010 C   0  0  0  0  0  0  0  0  0  0  0  0
   36.3930   29.6280   39.1680 C   0  0  1  0  0  0  0  0  0  0  0  0
   40.7780   33.3380   38.4170 H   0  0  0  0  0  0  0  0  0  0  0  0
   38.7030   32.9410   42.1100 H   0  0  0  0  0  0  0  0  0  0  0  0
   38.5490   28.5920   37.5730 H   0  0  0  0  0  0  0  0  0  0  0  0
   38.5560   30.2080   36.7460 H   0  0  0  0  0  0  0  0  0  0  0  0
   36.4890   28.2190   36.4550 H   0  0  0  0  0  0  0  0  0  0  0  0
   36.4630   29.9320   35.9550 H   0  0  0  0  0  0  0  0  0  0  0  0
   34.8100   28.7710   37.9210 H   0  0  0  0  0  0  0  0  0  0  0  0
   35.0510   30.5300   37.7010 H   0  0  0  0  0  0  0  0  0  0  0  0
   35.8750   30.3340   39.8420 H   0  0  0  0  0  0  0  0  0  0  0  0
   36.5530   28.2680   39.6730 C   0  0  0  0  0  0  0  0  0  0  0  0
   36.3840   27.1480   38.9510 N   0  0  0  0  0  0  0  0  0  0  0  0
   36.5390   25.9000   39.4160 C   0  0  0  0  0  3  0  0  0  0  0  0
   36.8910   25.6750   40.7000 N   0  0  0  0  0  0  0  0  0  0  0  0
   37.0800   26.7400   41.4960 C   0  0  0  0  0  0  0  0  0  0  0  0
   37.4360   26.4850   42.7970 C   0  0  0  0  0  3  0  0  0  0  0  0
   37.6420   27.5360   43.6610 C   0  0  0  0  0  0  0  0  0  0  0  0
   37.9190   27.3040   44.6700 H   0  0  0  0  0  0  0  0  0  0  0  0
   37.4900   28.8340   43.2070 C   0  0  0  0  0  0  0  0  0  0  0  0
   37.6470   29.6760   43.8710 H   0  0  0  0  0  0  0  0  0  0  0  0
   37.1290   29.0210   41.8790 C   0  0  0  0  0  3  0  0  0  0  0  0
   36.9060   28.0220   40.9620 C   0  0  0  0  0  0  0  0  0  0  0  0
   40.6550   34.3480   40.8520 N   0  0  0  0  0  0  0  0  0  0  0  0
   41.6690   34.2420   40.7010 H   0  0  0  0  0  0  0  0  0  0  0  0
   40.1290   35.1140   41.3020 H   0  0  0  0  0  0  0  0  0  0  0  0
  1  2  1  0  0  0  0
  2 33  1  0  0  0  0
  2  3  2  0  0  0  0
  3 13  1  0  0  0  0
  4  3  1  0  0  0  0
  5  4  2  0  0  0  0
  6  1  2  0  0  0  0
  6  5  1  0  0  0  0
  7 11  1  0  0  0  0
  7  5  1  0  0  0  0
  8 14  1  0  0  0  0
  8  7  1  0  0  0  0
  9  8  1  0  0  0  0
  9 10  1  0  0  0  0
 10 18  1  0  0  0  0
 10 11  1  0  0  0  0
 11 21  1  0  0  0  0
 11 20  1  1  0  0  0
 12  1  1  0  0  0  0
 15  8  1  0  0  0  0
 16  9  1  0  0  0  0
 17  9  1  0  0  0  0
 19 10  1  0  0  0  0
 21 32  1  0  0  0  0
 22 23  1  0  0  0  0
 22 21  2  0  0  0  0
 23 24  2  0  0  0  0
 24 25  1  0  0  0  0
 25 26  1  0  0  0  0
 26 27  2  0  0  0  0
 27 28  1  0  0  0  0
 29 27  1  0  0  0  0
 29 30  1  0  0  0  0
 31 29  2  0  0  0  0
 32 25  2  0  0  0  0
 32 31  1  0  0  0  0
 33 35  1  0  0  0  0
 34 33  1  0  0  0  0
M  END
>  <minimizedAffinity>
-6.06846523

$$$$

 OpenBabel03252506323D

 35 38  0  0  1  0  0  0  0  0999 V2000
   39.7940   32.0510   37.2380 C   0  0  0  0  0  0  0  0  0  0  0  0
   40.8870   32.5680   37.9230 C   0  0  0  0  0  0  0  0  0  0  0  0
   40.9450   32.3650   39.2780 C   0  0  0  0  0  0  0  0  0  0  0  0
   39.9290   31.6680   39.8810 N   0  0  0  0  0  0  0  0  0  0  0  0
   38.9000   31.1900   39.1850 C   0  0  0  0  0  0  0  0  0  0  0  0
   38.8180   31.3730   37.8650 N   0  0  0  0  0  0  0  0  0  0  0  0
   37.8850   30.4730   39.8790 N   0  0  0  0  0  0  0  0  0  0  0  0
   36.8690   29.6350   39.2410 C   0  0  0  0  0  0  0  0  0  0  0  0
   35.6840   29.8880   40.1260 C   0  0  0  0  0  0  0  0  0  0  0  0
   36.1660   30.6280   41.3380 C   0  0  0  0  0  0  0  0  0  0  0  0
   37.6520   30.4320   41.3240 C   0  0  1  0  0  0  0  0  0  0  0  0
   39.6620   32.1610   36.1730 H   0  0  0  0  0  0  0  0  0  0  0  0
   41.7990   32.7700   39.8020 H   0  0  0  0  0  0  0  0  0  0  0  0
   37.1550   28.5760   39.1850 H   0  0  0  0  0  0  0  0  0  0  0  0
   36.6850   30.0250   38.1970 H   0  0  0  0  0  0  0  0  0  0  0  0
   35.1430   28.9540   40.3860 H   0  0  0  0  0  0  0  0  0  0  0  0
   34.9540   30.5220   39.5540 H   0  0  0  0  0  0  0  0  0  0  0  0
   35.6860   30.1760   42.2530 H   0  0  0  0  0  0  0  0  0  0  0  0
   35.8740   31.6990   41.3340 H   0  0  0  0  0  0  0  0  0  0  0  0
   38.0910   31.3150   41.8220 H   0  0  0  0  0  0  0  0  0  0  0  0
   37.9630   29.1400   41.9290 C   0  0  0  0  0  0  0  0  0  0  0  0
   37.0930   28.1290   42.0880 N   0  0  0  0  0  0  0  0  0  0  0  0
   37.3830   26.9420   42.6380 C   0  0  0  0  0  3  0  0  0  0  0  0
   38.6260   26.6690   43.0890 N   0  0  0  0  0  0  0  0  0  0  0  0
   39.5620   27.6250   42.9700 C   0  0  0  0  0  0  0  0  0  0  0  0
   40.8160   27.3250   43.4370 C   0  0  0  0  0  3  0  0  0  0  0  0
   41.8170   28.2660   43.3440 C   0  0  0  0  0  0  0  0  0  0  0  0
   42.7860   28.0010   43.7170 H   0  0  0  0  0  0  0  0  0  0  0  0
   41.5450   29.5000   42.7800 C   0  0  0  0  0  0  0  0  0  0  0  0
   42.3180   30.2540   42.6980 H   0  0  0  0  0  0  0  0  0  0  0  0
   40.2540   29.7380   42.3280 C   0  0  0  0  0  3  0  0  0  0  0  0
   39.2080   28.8490   42.3890 C   0  0  0  0  0  0  0  0  0  0  0  0
   41.8590   33.2650   37.1330 N   0  0  0  0  0  0  0  0  0  0  0  0
   42.2000   32.7750   36.2930 H   0  0  0  0  0  0  0  0  0  0  0  0
   42.1090   34.1950   37.5050 H   0  0  0  0  0  0  0  0  0  0  0  0
  1  6  2  0  0  0  0
  1  2  1  0  0  0  0
  2  3  2  0  0  0  0
  3 13  1  0  0  0  0
  3  4  1  0  0  0  0
  5  7  1  0  0  0  0
  5  4  2  0  0  0  0
  6  5  1  0  0  0  0
  7 11  1  0  0  0  0
  8  7  1  0  0  0  0
  8  9  1  0  0  0  0
  9 16  1  0  0  0  0
  9 10  1  0  0  0  0
 10 18  1  0  0  0  0
 11 10  1  0  0  0  0
 11 20  1  1  0  0  0
 11 21  1  0  0  0  0
 12  1  1  0  0  0  0
 14  8  1  0  0  0  0
 15  8  1  0  0  0  0
 17  9  1  0  0  0  0
 19 10  1  0  0  0  0
 21 22  2  0  0  0  0
 21 32  1  0  0  0  0
 22 23  1  0  0  0  0
 23 24  2  0  0  0  0
 25 24  1  0  0  0  0
 25 26  1  0  0  0  0
 27 26  2  0  0  0  0
 27 28  1  0  0  0  0
 29 27  1  0  0  0  0
 30 29  1  0  0  0  0
 31 32  1  0  0  0  0
 31 29  2  0  0  0  0
 32 25  2  0  0  0  0
 33 35  1  0  0  0  0
 33  2  1  0  0  0  0
 34 33  1  0  0  0  0
M  END
>  <minimizedAffinity>
-5.91376972

$$$$

 OpenBabel03252506323D

 35 38  0  0  1  0  0  0  0  0999 V2000
   38.1980   30.5560   37.9400 C   0  0  0  0  0  0  0  0  0  0  0  0
   39.2680   31.4390   38.0320 C   0  0  0  0  0  0  0  0  0  0  0  0
   39.9830   31.4540   39.2020 C   0  0  0  0  0  0  0  0  0  0  0  0
   39.6070   30.6060   40.2130 N   0  0  0  0  0  0  0  0  0  0  0  0
   38.5750   29.7760   40.0810 C   0  0  0  0  0  0  0  0  0  0  0  0
   37.8610   29.7400   38.9530 N   0  0  0  0  0  0  0  0  0  0  0  0
   38.2460   28.9220   41.1710 N   0  0  0  0  0  0  0  0  0  0  0  0
   37.3590   27.7610   41.0850 C   0  0  0  0  0  0  0  0  0  0  0  0
   36.6790   27.8130   42.4220 C   0  0  0  0  0  0  0  0  0  0  0  0
   37.4020   28.8210   43.2650 C   0  0  0  0  0  0  0  0  0  0  0  0
   38.7070   29.0280   42.5570 C   0  0  1  0  0  0  0  0  0  0  0  0
   37.5790   30.4730   37.0610 H   0  0  0  0  0  0  0  0  0  0  0  0
   40.8140   32.1430   39.2650 H   0  0  0  0  0  0  0  0  0  0  0  0
   37.8950   26.8200   40.9030 H   0  0  0  0  0  0  0  0  0  0  0  0
   36.6200   27.9340   40.2480 H   0  0  0  0  0  0  0  0  0  0  0  0
   36.6220   26.8170   42.9060 H   0  0  0  0  0  0  0  0  0  0  0  0
   35.6170   28.1410   42.2570 H   0  0  0  0  0  0  0  0  0  0  0  0
   37.5430   28.3930   44.2990 H   0  0  0  0  0  0  0  0  0  0  0  0
   36.8300   29.7630   43.3960 H   0  0  0  0  0  0  0  0  0  0  0  0
   39.0320   30.0580   42.7890 H   0  0  0  0  0  0  0  0  0  0  0  0
   39.6300   27.9660   42.9470 C   0  0  0  0  0  0  0  0  0  0  0  0
   39.2750   26.7100   43.2660 N   0  0  0  0  0  0  0  0  0  0  0  0
   40.1260   25.7350   43.6180 C   0  0  0  0  0  3  0  0  0  0  0  0
   41.4550   25.9600   43.6790 N   0  0  0  0  0  0  0  0  0  0  0  0
   41.8990   27.1920   43.3770 C   0  0  0  0  0  0  0  0  0  0  0  0
   43.2540   27.3960   43.4490 C   0  0  0  0  0  3  0  0  0  0  0  0
   43.7680   28.6380   43.1520 C   0  0  0  0  0  0  0  0  0  0  0  0
   44.8300   28.7650   43.2160 H   0  0  0  0  0  0  0  0  0  0  0  0
   42.9130   29.6620   42.7850 C   0  0  0  0  0  0  0  0  0  0  0  0
   43.2970   30.6470   42.5480 H   0  0  0  0  0  0  0  0  0  0  0  0
   41.5530   29.3870   42.7330 C   0  0  0  0  0  3  0  0  0  0  0  0
   40.9700   28.1750   43.0150 C   0  0  0  0  0  0  0  0  0  0  0  0
   39.5240   32.2480   36.8780 N   0  0  0  0  0  0  0  0  0  0  0  0
   39.5840   31.7520   35.9770 H   0  0  0  0  0  0  0  0  0  0  0  0
   39.6180   33.2550   37.0880 H   0  0  0  0  0  0  0  0  0  0  0  0
  1  2  2  0  0  0  0
  1  6  1  0  0  0  0
  2  3  1  0  0  0  0
  3 13  1  0  0  0  0
  3  4  2  0  0  0  0
  5  4  1  0  0  0  0
  5  7  1  0  0  0  0
  6  5  2  0  0  0  0
  7 11  1  0  0  0  0
  8  7  1  0  0  0  0
  8  9  1  0  0  0  0
  9 16  1  0  0  0  0
  9 10  1  0  0  0  0
 10 19  1  0  0  0  0
 10 18  1  0  0  0  0
 11 20  1  1  0  0  0
 11 21  1  0  0  0  0
 11 10  1  0  0  0  0
 12  1  1  0  0  0  0
 14  8  1  0  0  0  0
 15  8  1  0  0  0  0
 17  9  1  0  0  0  0
 21 32  2  0  0  0  0
 21 22  1  0  0  0  0
 22 23  2  0  0  0  0
 23 24  1  0  0  0  0
 25 26  1  0  0  0  0
 25 24  2  0  0  0  0
 27 28  1  0  0  0  0
 27 26  2  0  0  0  0
 29 27  1  0  0  0  0
 30 29  1  0  0  0  0
 31 29  2  0  0  0  0
 31 32  1  0  0  0  0
 32 25  1  0  0  0  0
 33 35  1  0  0  0  0
 33  2  1  0  0  0  0
 34 33  1  0  0  0  0
M  END
>  <minimizedAffinity>
-5.88274813

$$$$

 OpenBabel03252506323D

 35 38  0  0  1  0  0  0  0  0999 V2000
   42.1250   34.0150   38.8930 C   0  0  0  0  0  0  0  0  0  0  0  0
   43.0080   33.6810   39.9140 C   0  0  0  0  0  0  0  0  0  0  0  0
   42.5960   32.7510   40.8340 C   0  0  0  0  0  0  0  0  0  0  0  0
   41.3440   32.2050   40.7010 N   0  0  0  0  0  0  0  0  0  0  0  0
   40.5310   32.5560   39.7070 C   0  0  0  0  0  0  0  0  0  0  0  0
   40.9060   33.4580   38.7970 N   0  0  0  0  0  0  0  0  0  0  0  0
   39.2480   31.9440   39.6310 N   0  0  0  0  0  0  0  0  0  0  0  0
   38.3720   31.9820   38.4590 C   0  0  0  0  0  0  0  0  0  0  0  0
   37.0210   32.0610   39.1060 C   0  0  0  0  0  0  0  0  0  0  0  0
   37.1990   31.7990   40.5730 C   0  0  0  0  0  0  0  0  0  0  0  0
   38.5610   31.1820   40.6750 C   0  0  1  0  0  0  0  0  0  0  0  0
   42.3610   34.7340   38.1260 H   0  0  0  0  0  0  0  0  0  0  0  0
   43.2880   32.4960   41.6240 H   0  0  0  0  0  0  0  0  0  0  0  0
   38.4920   31.1100   37.8020 H   0  0  0  0  0  0  0  0  0  0  0  0
   38.5960   32.9210   37.8730 H   0  0  0  0  0  0  0  0  0  0  0  0
   36.2870   31.3740   38.6380 H   0  0  0  0  0  0  0  0  0  0  0  0
   36.6220   33.0990   38.9470 H   0  0  0  0  0  0  0  0  0  0  0  0
   36.3860   31.0970   40.9160 H   0  0  0  0  0  0  0  0  0  0  0  0
   37.0950   32.7150   41.1900 H   0  0  0  0  0  0  0  0  0  0  0  0
   38.9500   31.4410   41.6770 H   0  0  0  0  0  0  0  0  0  0  0  0
   38.4560   29.7550   40.3830 C   0  0  0  0  0  0  0  0  0  0  0  0
   38.7880   29.1770   39.2170 N   0  0  0  0  0  0  0  0  0  0  0  0
   38.6960   27.8650   38.9540 C   0  0  0  0  0  3  0  0  0  0  0  0
   38.2430   26.9990   39.8850 N   0  0  0  0  0  0  0  0  0  0  0  0
   37.8860   27.4920   41.0820 C   0  0  0  0  0  0  0  0  0  0  0  0
   37.4260   26.5930   42.0100 C   0  0  0  0  0  3  0  0  0  0  0  0
   37.0440   27.0400   43.2550 C   0  0  0  0  0  0  0  0  0  0  0  0
   36.6910   26.3120   43.9580 H   0  0  0  0  0  0  0  0  0  0  0  0
   37.1290   28.3870   43.5530 C   0  0  0  0  0  0  0  0  0  0  0  0
   36.8330   28.7600   44.5270 H   0  0  0  0  0  0  0  0  0  0  0  0
   37.6030   29.2430   42.5680 C   0  0  0  0  0  3  0  0  0  0  0  0
   38.0000   28.8700   41.3070 C   0  0  0  0  0  0  0  0  0  0  0  0
   44.2780   34.3440   39.8980 N   0  0  0  0  0  0  0  0  0  0  0  0
   44.7890   34.3280   39.0030 H   0  0  0  0  0  0  0  0  0  0  0  0
   44.5370   34.7700   40.8010 H   0  0  0  0  0  0  0  0  0  0  0  0
  1  2  1  0  0  0  0
  2  3  2  0  0  0  0
  3 13  1  0  0  0  0
  4  3  1  0  0  0  0
  5  4  2  0  0  0  0
  6  1  2  0  0  0  0
  6  5  1  0  0  0  0
  7  5  1  0  0  0  0
  7 11  1  0  0  0  0
  8  9  1  0  0  0  0
  8  7  1  0  0  0  0
  9 10  1  0  0  0  0
 10 11  1  0  0  0  0
 10 18  1  0  0  0  0
 10 19  1  0  0  0  0
 11 20  1  1  0  0  0
 12  1  1  0  0  0  0
 14  8  1  0  0  0  0
 15  8  1  0  0  0  0
 16  9  1  0  0  0  0
 17  9  1  0  0  0  0
 21 11  1  0  0  0  0
 21 32  1  0  0  0  0
 22 21  2  0  0  0  0
 23 22  1  0  0  0  0
 23 24  2  0  0  0  0
 24 25  1  0  0  0  0
 25 32  2  0  0  0  0
 25 26  1  0  0  0  0
 26 27  2  0  0  0  0
 27 29  1  0  0  0  0
 27 28  1  0  0  0  0
 29 30  1  0  0  0  0
 31 29  2  0  0  0  0
 32 31  1  0  0  0  0
 33  2  1  0  0  0  0
 33 35  1  0  0  0  0
 34 33  1  0  0  0  0
M  END
>  <minimizedAffinity>
-5.87173557

$$$$

 OpenBabel03252506323D

 35 38  0  0  1  0  0  0  0  0999 V2000
   37.1660   27.5050   35.7270 C   0  0  0  0  0  0  0  0  0  0  0  0
   36.7410   28.6810   35.1210 C   0  0  0  0  0  0  0  0  0  0  0  0
   36.4720   29.7540   35.9320 C   0  0  0  0  0  0  0  0  0  0  0  0
   36.6330   29.6110   37.2860 N   0  0  0  0  0  0  0  0  0  0  0  0
   37.0420   28.4640   37.8240 C   0  0  0  0  0  0  0  0  0  0  0  0
   37.3120   27.4030   37.0590 N   0  0  0  0  0  0  0  0  0  0  0  0
   37.1900   28.3910   39.2380 N   0  0  0  0  0  0  0  0  0  0  0  0
   37.9080   27.3330   39.9500 C   0  0  0  0  0  0  0  0  0  0  0  0
   37.0720   27.1940   41.1870 C   0  0  0  0  0  0  0  0  0  0  0  0
   36.1070   28.3420   41.2200 C   0  0  0  0  0  0  0  0  0  0  0  0
   36.6690   29.3250   40.2380 C   0  0  1  0  0  0  0  0  0  0  0  0
   37.4010   26.6100   35.1730 H   0  0  0  0  0  0  0  0  0  0  0  0
   36.1430   30.6650   35.4530 H   0  0  0  0  0  0  0  0  0  0  0  0
   38.9570   27.5850   40.1560 H   0  0  0  0  0  0  0  0  0  0  0  0
   37.8700   26.3910   39.3270 H   0  0  0  0  0  0  0  0  0  0  0  0
   37.6870   27.1280   42.1080 H   0  0  0  0  0  0  0  0  0  0  0  0
   36.5100   26.2230   41.1170 H   0  0  0  0  0  0  0  0  0  0  0  0
   36.0770   28.7580   42.2680 H   0  0  0  0  0  0  0  0  0  0  0  0
   35.0680   28.0390   40.9790 H   0  0  0  0  0  0  0  0  0  0  0  0
   35.8120   29.8960   39.8390 H   0  0  0  0  0  0  0  0  0  0  0  0
   37.7060   30.1120   40.8980 C   0  0  0  0  0  0  0  0  0  0  0  0
   38.5670   29.6440   41.8170 N   0  0  0  0  0  0  0  0  0  0  0  0
   39.5220   30.3680   42.4170 C   0  0  0  0  0  3  0  0  0  0  0  0
   39.6920   31.6750   42.1250 N   0  0  0  0  0  0  0  0  0  0  0  0
   38.8720   32.2270   41.2150 C   0  0  0  0  0  0  0  0  0  0  0  0
   39.0630   33.5570   40.9370 C   0  0  0  0  0  3  0  0  0  0  0  0
   38.2520   34.1790   40.0140 C   0  0  0  0  0  0  0  0  0  0  0  0
   38.4270   35.2180   39.8190 H   0  0  0  0  0  0  0  0  0  0  0  0
   37.2580   33.4550   39.3800 C   0  0  0  0  0  0  0  0  0  0  0  0
   36.6090   33.9260   38.6510 H   0  0  0  0  0  0  0  0  0  0  0  0
   37.1200   32.1130   39.7080 C   0  0  0  0  0  3  0  0  0  0  0  0
   37.8900   31.4290   40.6170 C   0  0  0  0  0  0  0  0  0  0  0  0
   36.6330   28.6560   33.6930 N   0  0  0  0  0  0  0  0  0  0  0  0
   37.4530   28.3000   33.1800 H   0  0  0  0  0  0  0  0  0  0  0  0
   35.7290   29.0040   33.3370 H   0  0  0  0  0  0  0  0  0  0  0  0
  1  6  1  0  0  0  0
  2  1  2  0  0  0  0
  2  3  1  0  0  0  0
  3  4  2  0  0  0  0
  4  5  1  0  0  0  0
  5  7  1  0  0  0  0
  6  5  2  0  0  0  0
  7  8  1  0  0  0  0
  7 11  1  0  0  0  0
  8 14  1  0  0  0  0
  8  9  1  0  0  0  0
  9 10  1  0  0  0  0
  9 16  1  0  0  0  0
 10 18  1  0  0  0  0
 11 20  1  6  0  0  0
 11 21  1  0  0  0  0
 11 10  1  0  0  0  0
 12  1  1  0  0  0  0
 13  3  1  0  0  0  0
 15  8  1  0  0  0  0
 17  9  1  0  0  0  0
 19 10  1  0  0  0  0
 21 22  1  0  0  0  0
 22 23  2  0  0  0  0
 24 23  1  0  0  0  0
 25 24  2  0  0  0  0
 26 25  1  0  0  0  0
 27 26  2  0  0  0  0
 28 27  1  0  0  0  0
 29 31  2  0  0  0  0
 29 27  1  0  0  0  0
 30 29  1  0  0  0  0
 31 32  1  0  0  0  0
 32 21  2  0  0  0  0
 32 25  1  0  0  0  0
 33  2  1  0  0  0  0
 34 33  1  0  0  0  0
 35 33  1  0  0  0  0
M  END
>  <minimizedAffinity>
-5.77950525

$$$$

 OpenBabel03252506323D

 35 38  0  0  1  0  0  0  0  0999 V2000
   36.3130   25.5960   38.8100 C   0  0  0  0  0  0  0  0  0  0  0  0
   35.5200   26.4720   38.0780 C   0  0  0  0  0  0  0  0  0  0  0  0
   35.4320   27.7690   38.5140 C   0  0  0  0  0  0  0  0  0  0  0  0
   36.1250   28.1310   39.6410 N   0  0  0  0  0  0  0  0  0  0  0  0
   36.8730   27.2580   40.3120 C   0  0  0  0  0  0  0  0  0  0  0  0
   36.9770   25.9890   39.9110 N   0  0  0  0  0  0  0  0  0  0  0  0
   37.5670   27.7070   41.4710 N   0  0  0  0  0  0  0  0  0  0  0  0
   38.6510   26.9790   42.1320 C   0  0  0  0  0  0  0  0  0  0  0  0
   38.3900   27.3080   43.5720 C   0  0  0  0  0  0  0  0  0  0  0  0
   37.3570   28.3960   43.6130 C   0  0  0  0  0  0  0  0  0  0  0  0
   37.3440   28.9460   42.2190 C   0  0  1  0  0  0  0  0  0  0  0  0
   36.4420   24.5590   38.5450 H   0  0  0  0  0  0  0  0  0  0  0  0
   34.8140   28.4430   37.9390 H   0  0  0  0  0  0  0  0  0  0  0  0
   39.6490   27.2820   41.7870 H   0  0  0  0  0  0  0  0  0  0  0  0
   38.5120   25.8740   41.9370 H   0  0  0  0  0  0  0  0  0  0  0  0
   39.3160   27.5810   44.1180 H   0  0  0  0  0  0  0  0  0  0  0  0
   37.9930   26.3840   44.0720 H   0  0  0  0  0  0  0  0  0  0  0  0
   37.6750   29.1670   44.3720 H   0  0  0  0  0  0  0  0  0  0  0  0
   36.3620   28.0330   43.9420 H   0  0  0  0  0  0  0  0  0  0  0  0
   36.3250   29.3370   42.0440 H   0  0  0  0  0  0  0  0  0  0  0  0
   38.4290   29.9130   42.0830 C   0  0  0  0  0  0  0  0  0  0  0  0
   39.6280   29.8220   42.6820 N   0  0  0  0  0  0  0  0  0  0  0  0
   40.6250   30.7090   42.5500 C   0  0  0  0  0  3  0  0  0  0  0  0
   40.4840   31.8020   41.7710 N   0  0  0  0  0  0  0  0  0  0  0  0
   39.3150   31.9750   41.1340 C   0  0  0  0  0  0  0  0  0  0  0  0
   39.1960   33.0940   40.3500 C   0  0  0  0  0  3  0  0  0  0  0  0
   38.0200   33.3250   39.6720 C   0  0  0  0  0  0  0  0  0  0  0  0
   37.9590   34.2080   39.0690 H   0  0  0  0  0  0  0  0  0  0  0  0
   36.9750   32.4260   39.7910 C   0  0  0  0  0  0  0  0  0  0  0  0
   36.0410   32.5900   39.2670 H   0  0  0  0  0  0  0  0  0  0  0  0
   37.1630   31.3140   40.6000 C   0  0  0  0  0  3  0  0  0  0  0  0
   38.3050   31.0200   41.3040 C   0  0  0  0  0  0  0  0  0  0  0  0
   34.8710   25.9260   36.9230 N   0  0  0  0  0  0  0  0  0  0  0  0
   35.4700   25.4000   36.2690 H   0  0  0  0  0  0  0  0  0  0  0  0
   33.8590   26.1250   36.8800 H   0  0  0  0  0  0  0  0  0  0  0  0
  1  6  1  0  0  0  0
  2  3  1  0  0  0  0
  2  1  2  0  0  0  0
  3  4  2  0  0  0  0
  4  5  1  0  0  0  0
  5  7  1  0  0  0  0
  6  5  2  0  0  0  0
  7  8  1  0  0  0  0
  7 11  1  0  0  0  0
  8  9  1  0  0  0  0
  9 10  1  0  0  0  0
  9 17  1  0  0  0  0
  9 16  1  0  0  0  0
 10 19  1  0  0  0  0
 10 18  1  0  0  0  0
 11 20  1  6  0  0  0
 11 10  1  0  0  0  0
 12  1  1  0  0  0  0
 13  3  1  0  0  0  0
 14  8  1  0  0  0  0
 15  8  1  0  0  0  0
 21 11  1  0  0  0  0
 21 22  1  0  0  0  0
 23 22  2  0  0  0  0
 24 23  1  0  0  0  0
 25 32  1  0  0  0  0
 25 24  2  0  0  0  0
 26 25  1  0  0  0  0
 27 29  1  0  0  0  0
 27 26  2  0  0  0  0
 28 27  1  0  0  0  0
 29 31  2  0  0  0  0
 30 29  1  0  0  0  0
 31 32  1  0  0  0  0
 32 21  2  0  0  0  0
 33  2  1  0  0  0  0
 34 33  1  0  0  0  0
 35 33  1  0  0  0  0
M  END
>  <minimizedAffinity>
-5.77217484

$$$$

 OpenBabel03252506323D

 35 38  0  0  1  0  0  0  0  0999 V2000
   39.3190   26.1890   42.9920 C   0  0  0  0  0  0  0  0  0  0  0  0
   39.0070   24.9030   42.5650 C   0  0  0  0  0  0  0  0  0  0  0  0
   38.0950   24.7720   41.5490 C   0  0  0  0  0  0  0  0  0  0  0  0
   37.5420   25.9070   41.0140 N   0  0  0  0  0  0  0  0  0  0  0  0
   37.8700   27.1200   41.4540 C   0  0  0  0  0  0  0  0  0  0  0  0
   38.7550   27.2770   42.4410 N   0  0  0  0  0  0  0  0  0  0  0  0
   37.2570   28.2520   40.8470 N   0  0  0  0  0  0  0  0  0  0  0  0
   37.7220   29.6330   40.9920 C   0  0  0  0  0  0  0  0  0  0  0  0
   36.4200   30.3790   41.0030 C   0  0  0  0  0  0  0  0  0  0  0  0
   35.3380   29.4200   40.6020 C   0  0  0  0  0  0  0  0  0  0  0  0
   36.0740   28.2700   39.9840 C   0  0  1  0  0  0  0  0  0  0  0  0
   40.0240   26.3900   43.7820 H   0  0  0  0  0  0  0  0  0  0  0  0
   37.8590   23.7700   41.2230 H   0  0  0  0  0  0  0  0  0  0  0  0
   38.4000   29.9480   40.1880 H   0  0  0  0  0  0  0  0  0  0  0  0
   38.2530   29.7300   41.9850 H   0  0  0  0  0  0  0  0  0  0  0  0
   36.4460   31.2830   40.3600 H   0  0  0  0  0  0  0  0  0  0  0  0
   36.2400   30.7450   42.0490 H   0  0  0  0  0  0  0  0  0  0  0  0
   34.6550   29.9330   39.8660 H   0  0  0  0  0  0  0  0  0  0  0  0
   34.6980   29.1130   41.4540 H   0  0  0  0  0  0  0  0  0  0  0  0
   35.4500   27.3720   40.1480 H   0  0  0  0  0  0  0  0  0  0  0  0
   36.3710   28.5930   38.5920 C   0  0  0  0  0  0  0  0  0  0  0  0
   37.6030   28.7580   38.0800 N   0  0  0  0  0  0  0  0  0  0  0  0
   37.8720   29.0480   36.7990 C   0  0  0  0  0  3  0  0  0  0  0  0
   36.8800   29.2020   35.8970 N   0  0  0  0  0  0  0  0  0  0  0  0
   35.6140   29.0560   36.3230 C   0  0  0  0  0  0  0  0  0  0  0  0
   34.6240   29.2190   35.3880 C   0  0  0  0  0  3  0  0  0  0  0  0
   33.3070   29.0820   35.7650 C   0  0  0  0  0  0  0  0  0  0  0  0
   32.5570   29.2150   35.0110 H   0  0  0  0  0  0  0  0  0  0  0  0
   33.0010   28.7820   37.0800 C   0  0  0  0  0  0  0  0  0  0  0  0
   31.9710   28.6720   37.3980 H   0  0  0  0  0  0  0  0  0  0  0  0
   34.0520   28.6310   37.9750 C   0  0  0  0  0  3  0  0  0  0  0  0
   35.3860   28.7530   37.6700 C   0  0  0  0  0  0  0  0  0  0  0  0
   39.6840   23.8320   43.2330 N   0  0  0  0  0  0  0  0  0  0  0  0
   40.7090   23.9140   43.3050 H   0  0  0  0  0  0  0  0  0  0  0  0
   39.0540   23.0870   43.5720 H   0  0  0  0  0  0  0  0  0  0  0  0
  1 12  1  0  0  0  0
  2  1  1  0  0  0  0
  2 33  1  0  0  0  0
  3  2  2  0  0  0  0
  4  5  2  0  0  0  0
  4  3  1  0  0  0  0
  5  6  1  0  0  0  0
  6  1  2  0  0  0  0
  7  8  1  0  0  0  0
  7  5  1  0  0  0  0
  8  9  1  0  0  0  0
  8 15  1  0  0  0  0
  9 17  1  0  0  0  0
 10  9  1  0  0  0  0
 10 19  1  0  0  0  0
 11 20  1  1  0  0  0
 11 10  1  0  0  0  0
 11  7  1  0  0  0  0
 13  3  1  0  0  0  0
 14  8  1  0  0  0  0
 16  9  1  0  0  0  0
 18 10  1  0  0  0  0
 21 11  1  0  0  0  0
 22 21  1  0  0  0  0
 23 22  2  0  0  0  0
 24 25  2  0  0  0  0
 24 23  1  0  0  0  0
 25 32  1  0  0  0  0
 26 27  2  0  0  0  0
 26 25  1  0  0  0  0
 27 29  1  0  0  0  0
 28 27  1  0  0  0  0
 29 30  1  0  0  0  0
 29 31  2  0  0  0  0
 32 31  1  0  0  0  0
 32 21  2  0  0  0  0
 33 34  1  0  0  0  0
 33 35  1  0  0  0  0
M  END
>  <minimizedAffinity>
-5.76201677

$$$$

 OpenBabel03252506323D

 35 38  0  0  1  0  0  0  0  0999 V2000
   42.0590   31.0950   37.1770 C   0  0  0  0  0  0  0  0  0  0  0  0
   42.9140   30.4970   38.0950 C   0  0  0  0  0  0  0  0  0  0  0  0
   42.4250   30.2450   39.3510 C   0  0  0  0  0  0  0  0  0  0  0  0
   41.1290   30.5950   39.6340 N   0  0  0  0  0  0  0  0  0  0  0  0
   40.3450   31.1670   38.7230 C   0  0  0  0  0  0  0  0  0  0  0  0
   40.7940   31.4240   37.4920 N   0  0  0  0  0  0  0  0  0  0  0  0
   39.0100   31.5000   39.0880 N   0  0  0  0  0  0  0  0  0  0  0  0
   37.9450   31.8400   38.1440 C   0  0  0  0  0  0  0  0  0  0  0  0
   37.1900   32.8800   38.9170 C   0  0  0  0  0  0  0  0  0  0  0  0
   37.7070   32.8700   40.3250 C   0  0  0  0  0  0  0  0  0  0  0  0
   38.4470   31.5710   40.4380 C   0  0  1  0  0  0  0  0  0  0  0  0
   42.3540   31.3310   36.1670 H   0  0  0  0  0  0  0  0  0  0  0  0
   43.0960   29.7790   40.0590 H   0  0  0  0  0  0  0  0  0  0  0  0
   37.3300   30.9770   37.8550 H   0  0  0  0  0  0  0  0  0  0  0  0
   38.4150   32.2850   37.2170 H   0  0  0  0  0  0  0  0  0  0  0  0
   36.0920   32.7310   38.8660 H   0  0  0  0  0  0  0  0  0  0  0  0
   37.3910   33.8780   38.4410 H   0  0  0  0  0  0  0  0  0  0  0  0
   36.8300   32.9230   41.0320 H   0  0  0  0  0  0  0  0  0  0  0  0
   38.3430   33.7490   40.5570 H   0  0  0  0  0  0  0  0  0  0  0  0
   39.2400   31.7250   41.1910 H   0  0  0  0  0  0  0  0  0  0  0  0
   37.4900   30.5070   40.7280 C   0  0  0  0  0  0  0  0  0  0  0  0
   36.2550   30.4130   40.2090 N   0  0  0  0  0  0  0  0  0  0  0  0
   35.3810   29.4310   40.4730 C   0  0  0  0  0  3  0  0  0  0  0  0
   35.6980   28.4260   41.3160 N   0  0  0  0  0  0  0  0  0  0  0  0
   36.9160   28.4400   41.8830 C   0  0  0  0  0  0  0  0  0  0  0  0
   37.2140   27.4090   42.7380 C   0  0  0  0  0  3  0  0  0  0  0  0
   38.4470   27.3720   43.3500 C   0  0  0  0  0  0  0  0  0  0  0  0
   38.6490   26.5530   44.0110 H   0  0  0  0  0  0  0  0  0  0  0  0
   39.3670   28.3720   43.0950 C   0  0  0  0  0  0  0  0  0  0  0  0
   40.3420   28.3610   43.5670 H   0  0  0  0  0  0  0  0  0  0  0  0
   39.0010   29.3860   42.2200 C   0  0  0  0  0  3  0  0  0  0  0  0
   37.7920   29.4880   41.5750 C   0  0  0  0  0  0  0  0  0  0  0  0
   44.2340   30.1940   37.6280 N   0  0  0  0  0  0  0  0  0  0  0  0
   44.2950   29.6780   36.7380 H   0  0  0  0  0  0  0  0  0  0  0  0
   44.9850   30.5340   38.2500 H   0  0  0  0  0  0  0  0  0  0  0  0
  1  6  2  0  0  0  0
  1  2  1  0  0  0  0
  2  3  2  0  0  0  0
  3  4  1  0  0  0  0
  3 13  1  0  0  0  0
  5  7  1  0  0  0  0
  5  4  2  0  0  0  0
  6  5  1  0  0  0  0
  7 11  1  0  0  0  0
  8  9  1  0  0  0  0
  8  7  1  0  0  0  0
  9 10  1  0  0  0  0
 10 11  1  0  0  0  0
 10 19  1  0  0  0  0
 10 18  1  0  0  0  0
 11 21  1  0  0  0  0
 11 20  1  1  0  0  0
 12  1  1  0  0  0  0
 14  8  1  0  0  0  0
 15  8  1  0  0  0  0
 16  9  1  0  0  0  0
 17  9  1  0  0  0  0
 21 32  1  0  0  0  0
 22 23  1  0  0  0  0
 22 21  2  0  0  0  0
 23 24  2  0  0  0  0
 24 25  1  0  0  0  0
 25 26  1  0  0  0  0
 26 27  2  0  0  0  0
 27 28  1  0  0  0  0
 29 27  1  0  0  0  0
 29 30  1  0  0  0  0
 31 29  2  0  0  0  0
 32 25  2  0  0  0  0
 32 31  1  0  0  0  0
 33  2  1  0  0  0  0
 33 35  1  0  0  0  0
 34 33  1  0  0  0  0
M  END
>  <minimizedAffinity>
-5.70346165

$$$$
