
 OpenBabel03252508363D

 34 37  0  0  0  0  0  0  0  0999 V2000
   44.1650   33.6270   39.8990 C   0  0  0  0  0  0  0  0  0  0  0  0
   45.4040   33.1190   40.2470 C   0  0  0  0  0  0  0  0  0  0  0  0
   46.1130   32.4830   39.2790 C   0  0  0  0  0  0  0  0  0  0  0  0
   45.6720   32.3190   37.9850 C   0  0  0  0  0  0  0  0  0  0  0  0
   44.4390   32.8340   37.6690 C   0  0  0  0  0  0  0  0  0  0  0  0
   43.6830   33.4840   38.6090 C   0  0  0  0  0  0  0  0  0  0  0  0
   47.0890   32.0930   39.5870 H   0  0  0  0  0  0  0  0  0  0  0  0
   46.3220   31.7950   37.2960 H   0  0  0  0  0  0  0  0  0  0  0  0
   44.1230   32.6990   36.6500 H   0  0  0  0  0  0  0  0  0  0  0  0
   42.3840   34.0430   38.2930 C   0  0  0  0  0  0  0  0  0  0  0  0
   42.4460   35.3670   38.0380 N   0  0  0  0  0  0  0  0  0  0  0  0
   41.3220   36.0470   37.7240 C   0  0  0  0  0  0  0  0  0  0  0  0
   40.1540   35.4190   37.6650 N   0  0  0  0  0  0  0  0  0  0  0  0
   40.0090   34.0960   37.9070 C   0  0  0  0  0  0  0  0  0  0  0  0
   38.8180   33.3970   37.8610 C   0  0  0  0  0  0  0  0  0  0  0  0
   38.8110   32.0280   38.1360 C   0  0  0  0  0  0  0  0  0  0  0  0
   37.8280   31.5770   38.0710 H   0  0  0  0  0  0  0  0  0  0  0  0
   39.9910   31.3770   38.4530 C   0  0  0  0  0  0  0  0  0  0  0  0
   39.8790   30.3210   38.6470 H   0  0  0  0  0  0  0  0  0  0  0  0
   41.1860   32.0780   38.5000 C   0  0  0  0  0  0  0  0  0  0  0  0
   41.1590   33.4180   38.2250 C   0  0  0  0  0  0  0  0  0  0  0  0
   45.8420   32.6930   43.9710 C   0  0  0  0  0  0  0  0  0  0  0  0
   45.4100   32.4710   42.6520 C   0  0  0  0  0  0  0  0  0  0  0  0
   45.8310   33.3140   41.6240 C   0  0  0  0  0  0  0  0  0  0  0  0
   46.6620   34.3280   41.9990 N   0  0  0  0  0  0  0  0  0  0  0  0
   47.0680   34.5310   43.2520 C   0  0  0  0  0  0  0  0  0  0  0  0
   46.6600   33.7160   44.2350 N   0  0  0  0  0  0  0  0  0  0  0  0
   45.3810   31.8020   44.9680 N   0  0  0  0  0  0  0  0  0  0  0  0
   44.7540   31.6480   42.4520 H   0  0  0  0  0  0  0  0  0  0  0  0
   47.7320   35.3730   43.4270 H   0  0  0  0  0  0  0  0  0  0  0  0
   45.8350   30.8610   44.7820 H   0  0  0  0  0  0  0  0  0  0  0  0
   44.7300   32.3490   45.5820 H   0  0  0  0  0  0  0  0  0  0  0  0
   42.6740   34.8860   41.6360 N   0  0  0  0  0  0  0  0  0  0  0  0
   43.3440   34.3190   40.8650 C   0  0  0  0  0  0  0  0  0  0  0  0
  1  2  1  0  0  0  0
  1 34  1  0  0  0  0
  2 24  1  0  0  0  0
  3  7  1  0  0  0  0
  3  2  2  0  0  0  0
  4  3  1  0  0  0  0
  5  4  2  0  0  0  0
  5  6  1  0  0  0  0
  6  1  2  0  0  0  0
  8  4  1  0  0  0  0
  9  5  1  0  0  0  0
 10  6  1  0  0  0  0
 11 10  2  0  0  0  0
 12 11  1  0  0  0  0
 13 12  2  0  0  0  0
 13 14  1  0  0  0  0
 14 21  1  0  0  0  0
 15 14  2  0  0  0  0
 15 16  1  0  0  0  0
 16 18  2  0  0  0  0
 17 16  1  0  0  0  0
 18 20  1  0  0  0  0
 18 19  1  0  0  0  0
 21 10  1  0  0  0  0
 21 20  2  0  0  0  0
 22 27  1  0  0  0  0
 22 28  1  0  0  0  0
 23 22  2  0  0  0  0
 24 25  2  0  0  0  0
 24 23  1  0  0  0  0
 25 26  1  0  0  0  0
 26 30  1  0  0  0  0
 26 27  2  0  0  0  0
 28 32  1  0  0  0  0
 29 23  1  0  0  0  0
 31 28  1  0  0  0  0
 34 33  3  0  0  0  0
M  END
>  <minimizedAffinity>
-5.40890598

>  <minimizedRMSD>
7.46059752

$$$$
