
     RDKit          3D

 36 39  0  0  0  0  0  0  0  0999 V2000
   45.4613   34.0126   45.3648 C   0  0  0  0  0  0  0  0  0  0  0  0
   44.6496   35.1389   45.5945 C   0  0  0  0  0  0  0  0  0  0  0  0
   44.5586   36.1408   44.5918 C   0  0  0  0  0  0  0  0  0  0  0  0
   45.2804   35.9343   43.4533 N   0  0  0  0  0  0  0  0  0  0  0  0
   46.0400   34.8611   43.2609 C   0  0  0  0  0  0  0  0  0  0  0  0
   46.1257   33.9158   44.2075 N   0  0  0  0  0  0  0  0  0  0  0  0
   45.5514   33.0213   46.3585 N   0  0  0  0  0  0  0  0  0  0  0  0
   45.0744   33.3560   41.1444 F   0  0  0  0  0  0  0  0  0  0  0  0
   46.2531   33.9631   40.9735 C   0  0  0  0  0  0  0  0  0  0  0  0
   46.7839   34.7262   41.9935 C   0  0  0  0  0  0  0  0  0  0  0  0
   47.9971   35.3889   41.9010 C   0  0  0  0  0  0  0  0  0  0  0  0
   48.7321   35.2889   40.7212 C   0  0  0  0  0  0  0  0  0  0  0  0
   48.1677   34.5151   39.7199 C   0  0  0  0  0  0  0  0  0  0  0  0
   46.9677   33.8530   39.7962 C   0  0  0  0  0  0  0  0  0  0  0  0
   44.1035   35.2382   46.5223 H   0  0  0  0  0  0  0  0  0  0  0  0
   43.9518   37.0077   44.7368 H   0  0  0  0  0  0  0  0  0  0  0  0
   46.3847   32.4580   46.6511 H   0  0  0  0  0  0  0  0  0  0  0  0
   44.8089   32.6550   46.9943 H   0  0  0  0  0  0  0  0  0  0  0  0
   48.3544   35.9721   42.7403 H   0  0  0  0  0  0  0  0  0  0  0  0
   49.6835   35.7917   40.6129 H   0  0  0  0  0  0  0  0  0  0  0  0
   48.7925   34.4715   38.8217 H   0  0  0  0  0  0  0  0  0  0  0  0
   46.4551   33.0487   38.6859 C   0  0  0  0  0  0  0  0  0  0  0  0
   45.2827   33.5110   38.1690 N   0  0  0  0  0  0  0  0  0  0  0  0
   44.6999   32.8553   37.1317 C   0  0  0  0  0  0  0  0  0  0  0  0
   45.2836   31.7405   36.6101 N   0  0  0  0  0  0  0  0  0  0  0  0
   46.4382   31.2585   37.0955 C   0  0  0  0  0  0  0  0  0  0  0  0
   47.0603   30.1335   36.5878 C   0  0  0  0  0  0  0  0  0  0  0  0
   48.2538   29.6690   37.1116 C   0  0  0  0  0  0  0  0  0  0  0  0
   48.7802   28.8101   36.7646 H   0  0  0  0  0  0  0  0  0  0  0  0
   48.7967   30.3804   38.1656 C   0  0  0  0  0  0  0  0  0  0  0  0
   49.7413   30.0378   38.6037 H   0  0  0  0  0  0  0  0  0  0  0  0
   48.2311   31.5222   38.7326 C   0  0  0  0  0  0  0  0  0  0  0  0
   47.0483   31.9052   38.1457 C   0  0  0  0  0  0  0  0  0  0  0  0
   43.7825   33.1070   36.6284 H   0  0  0  0  0  0  0  0  0  0  0  0
   46.6080   29.5962   35.7571 H   0  0  0  0  0  0  0  0  0  0  0  0
   48.7040   32.0354   39.5494 H   0  0  0  0  0  0  0  0  0  0  0  0
  1  2  2  0
  1  7  1  0
  3  2  1  0
  4  3  2  0
  5  4  1  0
  5  6  2  0
  6  1  1  0
  9  8  1  0
  9 10  2  0
 10  5  1  0
 11 10  1  0
 12 11  2  0
 13 14  2  0
 13 12  1  0
 14  9  1  0
  2 15  1  0
  3 16  1  0
  7 17  1  0
  7 18  1  0
 11 19  1  0
 12 20  1  0
 13 21  1  0
 22 23  2  0
 23 24  1  0
 24 25  2  0
 25 26  1  0
 26 27  2  0
 27 28  1  0
 28 29  1  0
 28 30  2  0
 30 31  1  0
 30 32  1  0
 32 33  2  0
 33 22  1  0
 33 26  1  0
 24 34  1  0
 27 35  1  0
 32 36  1  0
 14 22  1  0
M  ISO  7  15  14  16  14  19  14  20  14  21  14  29  16  31  16
M  END
>  <DihAtoms>  (1) 
12,13,21,22

>  <DihDeg>  (1) 
122.84177325622653

$$$$
