
 OpenBabel03252509233D

 30 33  0  0  1  0  0  0  0  0999 V2000
   46.4390   34.7350   42.0240 C   0  0  1  0  0  0  0  0  0  0  0  0
   47.9010   35.2530   41.9950 C   0  0  0  0  0  0  0  0  0  0  0  0
   47.4370   33.7970   41.6680 C   0  0  2  0  0  0  0  0  0  0  0  0
   45.7810   35.2510   41.3020 H   0  0  0  0  0  0  0  0  0  0  0  0
   48.4380   35.4000   42.9260 H   0  0  0  0  0  0  0  0  0  0  0  0
   48.1420   35.8860   41.1450 H   0  0  0  0  0  0  0  0  0  0  0  0
   47.7720   33.0550   42.4500 H   0  0  0  0  0  0  0  0  0  0  0  0
   47.7920   33.3760   40.3110 C   0  0  0  0  0  0  0  0  0  0  0  0
   46.9360   33.6780   39.3070 N   0  0  0  0  0  0  0  0  0  0  0  0
   47.2490   33.2950   38.0510 C   0  0  0  0  0  3  0  0  0  0  0  0
   48.3780   32.6190   37.7180 N   0  0  0  0  0  0  0  0  0  0  0  0
   49.2610   32.2970   38.6950 C   0  0  0  0  0  0  0  0  0  0  0  0
   50.4370   31.6140   38.4640 C   0  0  0  0  0  3  0  0  0  0  0  0
   51.3200   31.2980   39.4740 C   0  0  0  0  0  0  0  0  0  0  0  0
   52.2420   30.7640   39.3000 H   0  0  0  0  0  0  0  0  0  0  0  0
   51.0090   31.6870   40.7690 C   0  0  0  0  0  0  0  0  0  0  0  0
   51.6980   31.4410   41.5580 H   0  0  0  0  0  0  0  0  0  0  0  0
   49.8330   32.3660   40.9690 C   0  0  0  0  0  3  0  0  0  0  0  0
   48.9380   32.6890   39.9700 C   0  0  0  0  0  0  0  0  0  0  0  0
   44.5130   35.6220   45.1310 C   0  0  0  0  0  0  0  0  0  0  0  0
   45.0100   35.7190   43.8050 C   0  0  0  0  0  0  0  0  0  0  0  0
   45.9140   34.7510   43.4420 C   0  0  0  0  0  0  0  0  0  0  0  0
   46.2960   33.7580   44.3360 N   0  0  0  0  0  0  0  0  0  0  0  0
   45.7980   33.7080   45.5780 C   0  0  0  0  0  0  0  0  0  0  0  0
   44.8990   34.6510   45.9720 N   0  0  0  0  0  0  0  0  0  0  0  0
   43.7950   36.3740   45.4450 H   0  0  0  0  0  0  0  0  0  0  0  0
   46.1720   32.8990   46.1620 H   0  0  0  0  0  0  0  0  0  0  0  0
   44.6340   36.7600   42.8990 N   0  0  0  0  0  0  0  0  0  0  0  0
   45.4250   37.4180   43.1070 H   0  0  0  0  0  0  0  0  0  0  0  0
   43.8060   36.7740   42.2620 H   0  0  0  0  0  0  0  0  0  0  0  0
  1  4  1  6  0  0  0
  1 22  1  0  0  0  0
  2  1  1  0  0  0  0
  2  5  1  0  0  0  0
  3  2  1  0  0  0  0
  3  1  1  0  0  0  0
  3  7  1  1  0  0  0
  6  2  1  0  0  0  0
  8  3  1  0  0  0  0
  9  8  2  0  0  0  0
 10  9  1  0  0  0  0
 11 10  2  0  0  0  0
 11 12  1  0  0  0  0
 12 19  1  0  0  0  0
 13 12  2  0  0  0  0
 13 14  1  0  0  0  0
 14 16  2  0  0  0  0
 15 14  1  0  0  0  0
 16 18  1  0  0  0  0
 16 17  1  0  0  0  0
 19  8  1  0  0  0  0
 19 18  2  0  0  0  0
 20 26  1  0  0  0  0
 20 25  1  0  0  0  0
 21 20  2  0  0  0  0
 22 21  1  0  0  0  0
 22 23  2  0  0  0  0
 23 24  1  0  0  0  0
 24 25  2  0  0  0  0
 24 27  1  0  0  0  0
 28 29  1  0  0  0  0
 28 21  1  0  0  0  0
 30 28  1  0  0  0  0
M  END
>  <minimizedAffinity>
-5.51761866

>  <minimizedRMSD>
0.679993868

$$$$
