REMARK  Name = 
REMARK  3 active torsions:
REMARK  status: ('A' for Active; 'I' for Inactive)
REMARK    1  A    between atoms: C_2  and  N_10
REMARK    2  A    between atoms: C_3  and  C_7
REMARK    3  A    between atoms: C_9  and  C_19
REMARK                            x       y       z     vdW  Elec       q    Type
REMARK                         _______ _______ _______ _____ _____    ______ ____
ROOT
ATOM      1  C   UNL     1      46.542  34.972  41.933  0.00  0.00    +0.000 C 
ATOM      2  C   UNL     1      48.062  35.278  41.937  0.00  0.00    +0.000 C 
ATOM      3  C   UNL     1      47.391  33.974  41.397  0.00  0.00    +0.000 C 
ATOM      4  H   UNL     1      45.956  35.685  41.327  0.00  0.00    +0.000 HD
ATOM      5  H   UNL     1      48.626  35.194  42.860  0.00  0.00    +0.000 HD
ATOM      6  H   UNL     1      48.382  36.002  41.192  0.00  0.00    +0.000 HD
ATOM      7  H   UNL     1      47.625  33.075  42.038  0.00  0.00    +0.000 HD
ENDROOT
BRANCH   3   8
ATOM      8  C   UNL     1      47.666  33.736  39.979  0.00  0.00    +0.000 A 
ATOM      9  N   UNL     1      46.917  32.811  39.332  0.00  0.00    +0.000 NA
ATOM     10  C   UNL     1      47.162  32.579  38.025  0.00  0.00    +0.000 A 
ATOM     11  N   UNL     1      48.118  33.216  37.302  0.00  0.00    +0.000 NA
ATOM     12  C   UNL     1      48.889  34.149  37.913  0.00  0.00    +0.000 A 
ATOM     13  C   UNL     1      49.887  34.853  37.270  0.00  0.00    +0.000 A 
ATOM     14  C   UNL     1      50.657  35.797  37.914  0.00  0.00    +0.000 A 
ATOM     15  H   UNL     1      51.439  36.351  37.416  0.00  0.00    +0.000 HD
ATOM     16  C   UNL     1      50.415  36.044  39.256  0.00  0.00    +0.000 A 
ATOM     17  H   UNL     1      51.018  36.782  39.759  0.00  0.00    +0.000 HD
ATOM     18  C   UNL     1      49.417  35.329  39.870  0.00  0.00    +0.000 A 
ATOM     19  C   UNL     1      48.637  34.381  39.243  0.00  0.00    +0.000 A 
ENDBRANCH   3   8
BRANCH   1  22
ATOM     20  C   UNL     1      44.626  35.464  45.133  0.00  0.00    +0.000 A 
ATOM     21  C   UNL     1      45.095  35.710  43.816  0.00  0.00    +0.000 A 
ATOM     22  C   UNL     1      46.041  34.828  43.353  0.00  0.00    +0.000 A 
ATOM     23  N   UNL     1      46.488  33.778  44.145  0.00  0.00    +0.000 NA
ATOM     24  C   UNL     1      46.014  33.587  45.383  0.00  0.00    +0.000 A 
ATOM     25  N   UNL     1      45.075  34.441  45.875  0.00  0.00    +0.000 NA
ATOM     26  H   UNL     1      43.876  36.146  45.524  0.00  0.00    +0.000 HD
ATOM     27  H   UNL     1      46.438  32.748  45.884  0.00  0.00    +0.000 HD
BRANCH  21  28
ATOM     28  N   UNL     1      44.651  36.809  43.016  0.00  0.00    +0.000 N 
ATOM     29  H   UNL     1      45.411  37.486  43.275  0.00  0.00    +0.000 HD
ATOM     30  H   UNL     1      43.813  36.839  42.393  0.00  0.00    +0.000 HD
ENDBRANCH  21  28
ENDBRANCH   1  22
TORSDOF 3
