
 OpenBabel03242518033D

 40 43  0  0  0  0  0  0  0  0999 V2000
   33.2940   28.5500   36.0670 C   0  0  0  0  0  0  0  0  0  0  0  0
   33.4410   27.5580   35.6190 H   0  0  0  0  0  0  0  0  0  0  0  0
   33.5530   29.2580   35.2240 H   0  0  0  0  0  0  0  0  0  0  0  0
   35.4950   29.2180   36.9960 C   0  0  0  0  0  0  0  0  0  0  0  0
   34.1450   28.8980   37.1910 C   0  0  0  0  0  0  0  0  0  0  0  0
   33.7000   28.9370   38.5000 C   0  0  0  0  0  0  0  0  0  0  0  0
   34.5520   29.2660   39.4840 N   0  0  0  0  0  0  0  0  0  0  0  0
   35.8270   29.5670   39.2950 C   0  0  0  0  0  0  0  0  0  0  0  0
   36.2580   29.5330   38.0510 N   0  0  0  0  0  0  0  0  0  0  0  0
   35.9220   29.2080   35.9900 H   0  0  0  0  0  0  0  0  0  0  0  0
   32.6910   28.7090   38.7500 H   0  0  0  0  0  0  0  0  0  0  0  0
   36.9140   29.9500   40.2290 C   0  0  0  0  0  0  0  0  0  0  0  0
   37.7460   30.9840   40.0150 N   0  0  0  0  0  0  0  0  0  0  0  0
   38.7140   31.3040   40.8720 C   0  0  0  0  0  3  0  0  0  0  0  0
   38.9310   30.6180   42.0160 N   0  0  0  0  0  0  0  0  0  0  0  0
   38.1330   29.5510   42.3180 C   0  0  0  0  0  0  0  0  0  0  0  0
   38.3670   28.8680   43.4810 C   0  0  0  0  0  3  0  0  0  0  0  0
   37.5730   27.7900   43.8020 C   0  0  0  0  0  0  0  0  0  0  0  0
   37.8320   27.3160   44.7350 H   0  0  0  0  0  0  0  0  0  0  0  0
   36.5630   27.4410   42.9240 C   0  0  0  0  0  0  0  0  0  0  0  0
   35.9780   26.5990   43.2220 H   0  0  0  0  0  0  0  0  0  0  0  0
   36.3960   28.1820   41.7760 C   0  0  0  0  0  3  0  0  0  0  0  0
   37.1530   29.2660   41.4000 C   0  0  0  0  0  0  0  0  0  0  0  0
   31.8620   28.8480   36.4630 C   0  0  0  0  0  0  0  0  0  0  0  0
   31.7140   28.7010   37.5570 H   0  0  0  0  0  0  0  0  0  0  0  0
   31.1480   28.0940   36.0140 H   0  0  0  0  0  0  0  0  0  0  0  0
   30.4640   30.8670   36.7360 C   0  0  0  0  0  0  0  0  0  0  0  0
   31.3670   30.1510   35.9670 C   0  0  0  0  0  0  0  0  0  0  0  0
   31.8250   30.5980   34.7520 C   0  0  0  0  0  0  0  0  0  0  0  0
   31.3630   31.8090   34.2800 C   0  0  0  0  0  0  0  0  0  0  0  0
   30.4780   32.5740   34.9690 C   0  0  0  0  0  0  0  0  0  0  0  0
   30.0560   32.0650   36.1900 C   0  0  0  0  0  0  0  0  0  0  0  0
   32.5110   30.1180   34.1070 H   0  0  0  0  0  0  0  0  0  0  0  0
   31.6840   32.2270   33.3200 H   0  0  0  0  0  0  0  0  0  0  0  0
   30.1110   33.5270   34.6060 H   0  0  0  0  0  0  0  0  0  0  0  0
   29.3420   32.6550   36.7730 H   0  0  0  0  0  0  0  0  0  0  0  0
   29.8600   30.3300   38.2860 S   0  0  0  0  0  0  0  0  0  0  0  0
   28.9120   29.1560   38.1460 O   0  0  0  0  0  0  0  0  0  0  0  0
   28.9850   31.4290   38.8530 O   0  0  0  0  0  0  0  0  0  0  0  0
   30.8230   30.1270   39.2140 H   0  0  0  0  0  0  0  0  0  0  0  0
  1 24  1  0  0  0  0
  1  5  1  0  0  0  0
  2  1  1  0  0  0  0
  3  1  1  0  0  0  0
  4  5  2  0  0  0  0
  4  9  1  0  0  0  0
  5  6  1  0  0  0  0
  6 11  1  0  0  0  0
  6  7  2  0  0  0  0
  8  7  1  0  0  0  0
  8 12  1  0  0  0  0
  9  8  2  0  0  0  0
 10  4  1  0  0  0  0
 12 23  1  0  0  0  0
 13 12  2  0  0  0  0
 13 14  1  0  0  0  0
 14 15  2  0  0  0  0
 15 16  1  0  0  0  0
 16 17  1  0  0  0  0
 17 18  2  0  0  0  0
 18 19  1  0  0  0  0
 20 21  1  0  0  0  0
 20 18  1  0  0  0  0
 22 20  2  0  0  0  0
 23 22  1  0  0  0  0
 23 16  2  0  0  0  0
 24 25  1  0  0  0  0
 26 24  1  0  0  0  0
 27 37  1  0  0  0  0
 28 24  1  0  0  0  0
 28 27  2  0  0  0  0
 29 28  1  0  0  0  0
 30 29  2  0  0  0  0
 30 31  1  0  0  0  0
 31 32  2  0  0  0  0
 32 27  1  0  0  0  0
 32 36  1  0  0  0  0
 33 29  1  0  0  0  0
 34 30  1  0  0  0  0
 35 31  1  0  0  0  0
 37 39  2  0  0  0  0
 37 40  1  0  0  0  0
 38 37  2  0  0  0  0
M  END
>  <minimizedAffinity>
-6.64632845

$$$$

 OpenBabel03242518033D

 40 43  0  0  0  0  0  0  0  0999 V2000
   32.7290   28.5390   36.7950 C   0  0  0  0  0  0  0  0  0  0  0  0
   31.9160   28.0270   37.3260 H   0  0  0  0  0  0  0  0  0  0  0  0
   33.0590   27.7760   36.0270 H   0  0  0  0  0  0  0  0  0  0  0  0
   33.8080   29.1180   38.9520 C   0  0  0  0  0  0  0  0  0  0  0  0
   33.9030   28.8960   37.5720 C   0  0  0  0  0  0  0  0  0  0  0  0
   35.1640   29.0410   37.0240 C   0  0  0  0  0  0  0  0  0  0  0  0
   36.1990   29.3750   37.8110 N   0  0  0  0  0  0  0  0  0  0  0  0
   36.1050   29.5850   39.1140 C   0  0  0  0  0  0  0  0  0  0  0  0
   34.9060   29.4480   39.6440 N   0  0  0  0  0  0  0  0  0  0  0  0
   32.8450   29.0240   39.4590 H   0  0  0  0  0  0  0  0  0  0  0  0
   35.3370   28.8930   35.9840 H   0  0  0  0  0  0  0  0  0  0  0  0
   37.1070   29.9560   40.1430 C   0  0  0  0  0  0  0  0  0  0  0  0
   37.9180   31.0230   40.0390 N   0  0  0  0  0  0  0  0  0  0  0  0
   38.8090   31.3300   40.9790 C   0  0  0  0  0  3  0  0  0  0  0  0
   38.9640   30.5980   42.1040 N   0  0  0  0  0  0  0  0  0  0  0  0
   38.1820   29.4950   42.2970 C   0  0  0  0  0  0  0  0  0  0  0  0
   38.3520   28.7640   43.4420 C   0  0  0  0  0  3  0  0  0  0  0  0
   37.5730   27.6490   43.6540 C   0  0  0  0  0  0  0  0  0  0  0  0
   37.7790   27.1390   44.5820 H   0  0  0  0  0  0  0  0  0  0  0  0
   36.6430   27.3120   42.6880 C   0  0  0  0  0  0  0  0  0  0  0  0
   36.0660   26.4400   42.9030 H   0  0  0  0  0  0  0  0  0  0  0  0
   36.5360   28.1020   41.5660 C   0  0  0  0  0  3  0  0  0  0  0  0
   37.2820   29.2250   41.2970 C   0  0  0  0  0  0  0  0  0  0  0  0
   32.2920   29.7700   36.0280 C   0  0  0  0  0  0  0  0  0  0  0  0
   32.2200   29.5530   34.9380 H   0  0  0  0  0  0  0  0  0  0  0  0
   33.0840   30.5780   36.0660 H   0  0  0  0  0  0  0  0  0  0  0  0
   30.4080   31.3550   35.8170 C   0  0  0  0  0  0  0  0  0  0  0  0
   31.0860   30.4220   36.5850 C   0  0  0  0  0  0  0  0  0  0  0  0
   30.6890   30.0740   37.8520 C   0  0  0  0  0  0  0  0  0  0  0  0
   29.5690   30.6810   38.3800 C   0  0  0  0  0  0  0  0  0  0  0  0
   28.8460   31.6050   37.6970 C   0  0  0  0  0  0  0  0  0  0  0  0
   29.3020   31.9110   36.4220 C   0  0  0  0  0  0  0  0  0  0  0  0
   31.1450   29.3740   38.5000 H   0  0  0  0  0  0  0  0  0  0  0  0
   29.1950   30.4530   39.3840 H   0  0  0  0  0  0  0  0  0  0  0  0
   27.9650   32.0870   38.1040 H   0  0  0  0  0  0  0  0  0  0  0  0
   28.7430   32.6530   35.8410 H   0  0  0  0  0  0  0  0  0  0  0  0
   30.8850   31.8220   34.2010 S   0  0  0  0  0  0  0  0  0  0  0  0
   31.8680   32.9750   34.2150 O   0  0  0  0  0  0  0  0  0  0  0  0
   29.6700   32.3990   33.5040 O   0  0  0  0  0  0  0  0  0  0  0  0
   31.2860   30.7910   33.4230 H   0  0  0  0  0  0  0  0  0  0  0  0
  1  2  1  0  0  0  0
  1  5  1  0  0  0  0
  3  1  1  0  0  0  0
  4 10  1  0  0  0  0
  4  9  1  0  0  0  0
  5  4  2  0  0  0  0
  6  5  1  0  0  0  0
  6  7  2  0  0  0  0
  7  8  1  0  0  0  0
  8  9  2  0  0  0  0
  8 12  1  0  0  0  0
 11  6  1  0  0  0  0
 12 23  1  0  0  0  0
 13 12  2  0  0  0  0
 13 14  1  0  0  0  0
 14 15  2  0  0  0  0
 15 16  1  0  0  0  0
 16 17  1  0  0  0  0
 17 18  2  0  0  0  0
 18 19  1  0  0  0  0
 20 21  1  0  0  0  0
 20 18  1  0  0  0  0
 22 20  2  0  0  0  0
 23 22  1  0  0  0  0
 23 16  2  0  0  0  0
 24 26  1  0  0  0  0
 24 28  1  0  0  0  0
 24  1  1  0  0  0  0
 25 24  1  0  0  0  0
 27 32  2  0  0  0  0
 27 28  1  0  0  0  0
 28 29  2  0  0  0  0
 29 30  1  0  0  0  0
 29 33  1  0  0  0  0
 30 34  1  0  0  0  0
 31 35  1  0  0  0  0
 31 30  2  0  0  0  0
 32 31  1  0  0  0  0
 36 32  1  0  0  0  0
 37 38  2  0  0  0  0
 37 27  1  0  0  0  0
 39 37  2  0  0  0  0
 40 37  1  0  0  0  0
M  END
>  <minimizedAffinity>
-6.31512594

$$$$

 OpenBabel03242518033D

 40 43  0  0  0  0  0  0  0  0999 V2000
   33.5230   28.6300   36.5500 C   0  0  0  0  0  0  0  0  0  0  0  0
   33.6830   27.7530   35.9090 H   0  0  0  0  0  0  0  0  0  0  0  0
   33.9110   29.4870   35.9220 H   0  0  0  0  0  0  0  0  0  0  0  0
   35.5310   28.1180   37.9140 C   0  0  0  0  0  0  0  0  0  0  0  0
   34.2460   28.6660   37.8090 C   0  0  0  0  0  0  0  0  0  0  0  0
   33.7340   29.2250   38.9660 C   0  0  0  0  0  0  0  0  0  0  0  0
   34.4660   29.2160   40.0920 N   0  0  0  0  0  0  0  0  0  0  0  0
   35.6790   28.6970   40.1860 C   0  0  0  0  0  0  0  0  0  0  0  0
   36.1740   28.1630   39.0880 N   0  0  0  0  0  0  0  0  0  0  0  0
   36.0050   27.6570   37.0440 H   0  0  0  0  0  0  0  0  0  0  0  0
   32.7650   29.6650   38.9870 H   0  0  0  0  0  0  0  0  0  0  0  0
   36.6360   28.5880   41.3140 C   0  0  0  0  0  0  0  0  0  0  0  0
   36.6160   27.5860   42.2110 N   0  0  0  0  0  0  0  0  0  0  0  0
   37.4880   27.5140   43.2130 C   0  0  0  0  0  3  0  0  0  0  0  0
   38.4550   28.4380   43.4060 N   0  0  0  0  0  0  0  0  0  0  0  0
   38.5530   29.4930   42.5440 C   0  0  0  0  0  0  0  0  0  0  0  0
   39.5390   30.4200   42.7530 C   0  0  0  0  0  3  0  0  0  0  0  0
   39.6540   31.4890   41.8940 C   0  0  0  0  0  0  0  0  0  0  0  0
   40.4580   32.1650   42.1390 H   0  0  0  0  0  0  0  0  0  0  0  0
   38.7570   31.5820   40.8470 C   0  0  0  0  0  0  0  0  0  0  0  0
   38.8900   32.4300   40.2120 H   0  0  0  0  0  0  0  0  0  0  0  0
   37.7950   30.6070   40.7080 C   0  0  0  0  0  3  0  0  0  0  0  0
   37.6290   29.5160   41.5290 C   0  0  0  0  0  0  0  0  0  0  0  0
   32.0680   28.9270   36.8460 C   0  0  0  0  0  0  0  0  0  0  0  0
   31.8820   28.9490   37.9430 H   0  0  0  0  0  0  0  0  0  0  0  0
   31.3990   28.0830   36.4990 H   0  0  0  0  0  0  0  0  0  0  0  0
   30.5640   30.8850   36.7330 C   0  0  0  0  0  0  0  0  0  0  0  0
   31.5460   30.1140   36.1320 C   0  0  0  0  0  0  0  0  0  0  0  0
   32.0600   30.4010   34.8910 C   0  0  0  0  0  0  0  0  0  0  0  0
   31.5740   31.5020   34.2170 C   0  0  0  0  0  0  0  0  0  0  0  0
   30.6130   32.3110   34.7330 C   0  0  0  0  0  0  0  0  0  0  0  0
   30.1380   31.9650   35.9900 C   0  0  0  0  0  0  0  0  0  0  0  0
   32.8070   29.8690   34.3660 H   0  0  0  0  0  0  0  0  0  0  0  0
   31.9370   31.7910   33.2250 H   0  0  0  0  0  0  0  0  0  0  0  0
   30.2270   33.1780   34.2100 H   0  0  0  0  0  0  0  0  0  0  0  0
   29.3620   32.5950   36.4370 H   0  0  0  0  0  0  0  0  0  0  0  0
   29.8880   30.5500   38.3100 S   0  0  0  0  0  0  0  0  0  0  0  0
   28.9140   29.3900   38.2700 O   0  0  0  0  0  0  0  0  0  0  0  0
   29.0230   31.7280   38.7070 O   0  0  0  0  0  0  0  0  0  0  0  0
   30.8090   30.4370   39.2940 H   0  0  0  0  0  0  0  0  0  0  0  0
  1 24  1  0  0  0  0
  1  5  1  0  0  0  0
  2  1  1  0  0  0  0
  3  1  1  0  0  0  0
  4  9  1  0  0  0  0
  5  4  2  0  0  0  0
  5  6  1  0  0  0  0
  6 11  1  0  0  0  0
  6  7  2  0  0  0  0
  7  8  1  0  0  0  0
  8 12  1  0  0  0  0
  9  8  2  0  0  0  0
 10  4  1  0  0  0  0
 12 23  2  0  0  0  0
 12 13  1  0  0  0  0
 13 14  2  0  0  0  0
 14 15  1  0  0  0  0
 16 17  1  0  0  0  0
 16 15  2  0  0  0  0
 18 19  1  0  0  0  0
 18 17  2  0  0  0  0
 20 18  1  0  0  0  0
 21 20  1  0  0  0  0
 22 20  2  0  0  0  0
 22 23  1  0  0  0  0
 23 16  1  0  0  0  0
 24 25  1  0  0  0  0
 26 24  1  0  0  0  0
 27 37  1  0  0  0  0
 28 27  1  0  0  0  0
 28 24  1  0  0  0  0
 29 28  2  0  0  0  0
 30 31  2  0  0  0  0
 30 29  1  0  0  0  0
 31 32  1  0  0  0  0
 32 36  1  0  0  0  0
 32 27  2  0  0  0  0
 33 29  1  0  0  0  0
 34 30  1  0  0  0  0
 35 31  1  0  0  0  0
 37 39  2  0  0  0  0
 37 40  1  0  0  0  0
 38 37  2  0  0  0  0
M  END
>  <minimizedAffinity>
-6.27138233

$$$$

 OpenBabel03242518033D

 40 43  0  0  0  0  0  0  0  0999 V2000
   37.3050   28.4430   43.4970 C   0  0  0  0  0  0  0  0  0  0  0  0
   36.3340   28.0080   43.2270 H   0  0  0  0  0  0  0  0  0  0  0  0
   37.0940   28.9620   44.4800 H   0  0  0  0  0  0  0  0  0  0  0  0
   39.1550   29.9260   42.7680 C   0  0  0  0  0  0  0  0  0  0  0  0
   37.8520   29.4440   42.5970 C   0  0  0  0  0  0  0  0  0  0  0  0
   37.1440   29.9830   41.5370 C   0  0  0  0  0  0  0  0  0  0  0  0
   37.7210   30.9070   40.7520 N   0  0  0  0  0  0  0  0  0  0  0  0
   38.9530   31.3590   40.9180 C   0  0  0  0  0  0  0  0  0  0  0  0
   39.6330   30.8510   41.9250 N   0  0  0  0  0  0  0  0  0  0  0  0
   39.7780   29.5510   43.5840 H   0  0  0  0  0  0  0  0  0  0  0  0
   36.1460   29.6810   41.3270 H   0  0  0  0  0  0  0  0  0  0  0  0
   39.7600   32.3590   40.1750 C   0  0  0  0  0  0  0  0  0  0  0  0
   39.8110   33.6620   40.5010 N   0  0  0  0  0  0  0  0  0  0  0  0
   40.5440   34.5360   39.8160 C   0  0  0  0  0  3  0  0  0  0  0  0
   41.2900   34.1810   38.7470 N   0  0  0  0  0  0  0  0  0  0  0  0
   41.3020   32.8770   38.3420 C   0  0  0  0  0  0  0  0  0  0  0  0
   42.0630   32.5350   37.2570 C   0  0  0  0  0  3  0  0  0  0  0  0
   42.0870   31.2250   36.8350 C   0  0  0  0  0  0  0  0  0  0  0  0
   42.7130   31.0520   35.9740 H   0  0  0  0  0  0  0  0  0  0  0  0
   41.3310   30.3020   37.5330 C   0  0  0  0  0  0  0  0  0  0  0  0
   41.3850   29.3020   37.1630 H   0  0  0  0  0  0  0  0  0  0  0  0
   40.5930   30.7300   38.6130 C   0  0  0  0  0  3  0  0  0  0  0  0
   40.5280   32.0210   39.0840 C   0  0  0  0  0  0  0  0  0  0  0  0
   38.3920   27.4230   43.7660 C   0  0  0  0  0  0  0  0  0  0  0  0
   38.4510   27.1830   44.8520 H   0  0  0  0  0  0  0  0  0  0  0  0
   39.4170   27.8510   43.5530 H   0  0  0  0  0  0  0  0  0  0  0  0
   39.4850   25.5770   42.5390 C   0  0  0  0  0  0  0  0  0  0  0  0
   38.3150   26.2280   42.8970 C   0  0  0  0  0  0  0  0  0  0  0  0
   37.0760   25.8130   42.4750 C   0  0  0  0  0  0  0  0  0  0  0  0
   36.9960   24.7030   41.6610 C   0  0  0  0  0  0  0  0  0  0  0  0
   38.0920   24.0060   41.2630 C   0  0  0  0  0  0  0  0  0  0  0  0
   39.3130   24.4790   41.7250 C   0  0  0  0  0  0  0  0  0  0  0  0
   36.1400   26.2480   42.7030 H   0  0  0  0  0  0  0  0  0  0  0  0
   36.0430   24.3150   41.2870 H   0  0  0  0  0  0  0  0  0  0  0  0
   38.0380   23.1330   40.6240 H   0  0  0  0  0  0  0  0  0  0  0  0
   40.2180   23.9420   41.4230 H   0  0  0  0  0  0  0  0  0  0  0  0
   41.0780   26.0770   43.0570 S   0  0  0  0  0  0  0  0  0  0  0  0
   41.6190   27.2060   42.2040 O   0  0  0  0  0  0  0  0  0  0  0  0
   42.0360   24.9350   42.7860 O   0  0  0  0  0  0  0  0  0  0  0  0
   41.1770   26.3180   44.3840 H   0  0  0  0  0  0  0  0  0  0  0  0
  1 24  1  0  0  0  0
  1  3  1  0  0  0  0
  2  1  1  0  0  0  0
  4 10  1  0  0  0  0
  5  4  1  0  0  0  0
  5  1  1  0  0  0  0
  6  5  2  0  0  0  0
  7  8  2  0  0  0  0
  7  6  1  0  0  0  0
  8  9  1  0  0  0  0
  9  4  2  0  0  0  0
 11  6  1  0  0  0  0
 12 13  1  0  0  0  0
 12  8  1  0  0  0  0
 14 13  2  0  0  0  0
 15 14  1  0  0  0  0
 16 15  2  0  0  0  0
 16 23  1  0  0  0  0
 17 16  1  0  0  0  0
 18 17  2  0  0  0  0
 18 20  1  0  0  0  0
 19 18  1  0  0  0  0
 20 22  2  0  0  0  0
 21 20  1  0  0  0  0
 22 23  1  0  0  0  0
 23 12  2  0  0  0  0
 24 25  1  0  0  0  0
 26 24  1  0  0  0  0
 27 28  1  0  0  0  0
 27 37  1  0  0  0  0
 28 24  1  0  0  0  0
 29 33  1  0  0  0  0
 29 28  2  0  0  0  0
 30 29  1  0  0  0  0
 31 30  2  0  0  0  0
 31 32  1  0  0  0  0
 32 27  2  0  0  0  0
 34 30  1  0  0  0  0
 35 31  1  0  0  0  0
 36 32  1  0  0  0  0
 37 40  1  0  0  0  0
 38 37  2  0  0  0  0
 39 37  2  0  0  0  0
M  END
>  <minimizedAffinity>
-6.20392561

$$$$

 OpenBabel03242518033D

 40 43  0  0  0  0  0  0  0  0999 V2000
   33.2340   28.4330   36.1020 C   0  0  0  0  0  0  0  0  0  0  0  0
   33.1620   27.3640   35.8620 H   0  0  0  0  0  0  0  0  0  0  0  0
   33.2950   28.9240   35.0840 H   0  0  0  0  0  0  0  0  0  0  0  0
   34.3820   28.8920   38.2520 C   0  0  0  0  0  0  0  0  0  0  0  0
   34.4010   28.8640   36.8520 C   0  0  0  0  0  0  0  0  0  0  0  0
   35.5820   29.2680   36.2570 C   0  0  0  0  0  0  0  0  0  0  0  0
   36.6160   29.6550   37.0220 N   0  0  0  0  0  0  0  0  0  0  0  0
   36.5930   29.6800   38.3440 C   0  0  0  0  0  0  0  0  0  0  0  0
   35.4710   29.2960   38.9180 N   0  0  0  0  0  0  0  0  0  0  0  0
   33.4840   28.5880   38.7960 H   0  0  0  0  0  0  0  0  0  0  0  0
   35.6930   29.2820   35.1990 H   0  0  0  0  0  0  0  0  0  0  0  0
   37.6080   30.0660   39.3560 C   0  0  0  0  0  0  0  0  0  0  0  0
   38.3710   29.1790   40.0180 N   0  0  0  0  0  0  0  0  0  0  0  0
   39.2740   29.5550   40.9200 C   0  0  0  0  0  3  0  0  0  0  0  0
   39.4920   30.8510   41.2370 N   0  0  0  0  0  0  0  0  0  0  0  0
   38.7640   31.8230   40.6140 C   0  0  0  0  0  0  0  0  0  0  0  0
   38.9980   33.1310   40.9460 C   0  0  0  0  0  3  0  0  0  0  0  0
   38.2740   34.1250   40.3290 C   0  0  0  0  0  0  0  0  0  0  0  0
   38.5270   35.1210   40.6550 H   0  0  0  0  0  0  0  0  0  0  0  0
   37.3300   33.7540   39.3880 C   0  0  0  0  0  0  0  0  0  0  0  0
   36.7980   34.5640   38.9400 H   0  0  0  0  0  0  0  0  0  0  0  0
   37.1580   32.4170   39.1130 C   0  0  0  0  0  3  0  0  0  0  0  0
   37.8480   31.3790   39.6940 C   0  0  0  0  0  0  0  0  0  0  0  0
   32.0090   29.0010   36.7880 C   0  0  0  0  0  0  0  0  0  0  0  0
   32.1940   29.1420   37.8770 H   0  0  0  0  0  0  0  0  0  0  0  0
   31.1540   28.2610   36.7770 H   0  0  0  0  0  0  0  0  0  0  0  0
   30.4730   30.9370   36.7630 C   0  0  0  0  0  0  0  0  0  0  0  0
   31.4540   30.2000   36.1200 C   0  0  0  0  0  0  0  0  0  0  0  0
   31.9390   30.5310   34.8780 C   0  0  0  0  0  0  0  0  0  0  0  0
   31.4230   31.6430   34.2470 C   0  0  0  0  0  0  0  0  0  0  0  0
   30.4600   32.4220   34.8050 C   0  0  0  0  0  0  0  0  0  0  0  0
   30.0160   32.0310   36.0610 C   0  0  0  0  0  0  0  0  0  0  0  0
   32.6830   30.0270   34.3230 H   0  0  0  0  0  0  0  0  0  0  0  0
   31.7600   31.9670   33.2570 H   0  0  0  0  0  0  0  0  0  0  0  0
   30.0500   33.2980   34.3160 H   0  0  0  0  0  0  0  0  0  0  0  0
   29.2390   32.6360   36.5410 H   0  0  0  0  0  0  0  0  0  0  0  0
   29.8340   30.5450   38.3420 S   0  0  0  0  0  0  0  0  0  0  0  0
   28.9010   29.3530   38.2920 O   0  0  0  0  0  0  0  0  0  0  0  0
   28.9350   31.6840   38.7780 O   0  0  0  0  0  0  0  0  0  0  0  0
   30.7740   30.4440   39.3090 H   0  0  0  0  0  0  0  0  0  0  0  0
  1 24  1  0  0  0  0
  1  5  1  0  0  0  0
  2  1  1  0  0  0  0
  3  1  1  0  0  0  0
  4 10  1  0  0  0  0
  4  9  1  0  0  0  0
  5  4  2  0  0  0  0
  6  5  1  0  0  0  0
  6  7  2  0  0  0  0
  7  8  1  0  0  0  0
  8  9  2  0  0  0  0
  8 12  1  0  0  0  0
 11  6  1  0  0  0  0
 12 23  2  0  0  0  0
 12 13  1  0  0  0  0
 13 14  2  0  0  0  0
 14 15  1  0  0  0  0
 16 17  1  0  0  0  0
 16 15  2  0  0  0  0
 18 19  1  0  0  0  0
 18 17  2  0  0  0  0
 20 18  1  0  0  0  0
 21 20  1  0  0  0  0
 22 20  2  0  0  0  0
 22 23  1  0  0  0  0
 23 16  1  0  0  0  0
 24 25  1  0  0  0  0
 26 24  1  0  0  0  0
 27 37  1  0  0  0  0
 28 27  1  0  0  0  0
 28 24  1  0  0  0  0
 29 28  2  0  0  0  0
 30 31  2  0  0  0  0
 30 29  1  0  0  0  0
 31 32  1  0  0  0  0
 32 36  1  0  0  0  0
 32 27  2  0  0  0  0
 33 29  1  0  0  0  0
 34 30  1  0  0  0  0
 35 31  1  0  0  0  0
 37 39  2  0  0  0  0
 37 40  1  0  0  0  0
 38 37  2  0  0  0  0
M  END
>  <minimizedAffinity>
-6.19304562

$$$$

 OpenBabel03242518033D

 40 43  0  0  0  0  0  0  0  0999 V2000
   32.8280   28.4460   36.5660 C   0  0  0  0  0  0  0  0  0  0  0  0
   32.0880   27.9760   37.2270 H   0  0  0  0  0  0  0  0  0  0  0  0
   33.0660   27.6300   35.8190 H   0  0  0  0  0  0  0  0  0  0  0  0
   34.2520   28.8440   38.5580 C   0  0  0  0  0  0  0  0  0  0  0  0
   34.0870   28.8510   37.1670 C   0  0  0  0  0  0  0  0  0  0  0  0
   35.1840   29.2650   36.4330 C   0  0  0  0  0  0  0  0  0  0  0  0
   36.3120   29.6260   37.0650 N   0  0  0  0  0  0  0  0  0  0  0  0
   36.4630   29.6180   38.3790 C   0  0  0  0  0  0  0  0  0  0  0  0
   35.4220   29.2240   39.0860 N   0  0  0  0  0  0  0  0  0  0  0  0
   33.4310   28.5300   39.2070 H   0  0  0  0  0  0  0  0  0  0  0  0
   35.1550   29.3050   35.3700 H   0  0  0  0  0  0  0  0  0  0  0  0
   37.6050   29.9720   39.2580 C   0  0  0  0  0  0  0  0  0  0  0  0
   38.4530   29.0660   39.7740 N   0  0  0  0  0  0  0  0  0  0  0  0
   39.4690   29.4140   40.5600 C   0  0  0  0  0  3  0  0  0  0  0  0
   39.7240   30.6980   40.8960 N   0  0  0  0  0  0  0  0  0  0  0  0
   38.9150   31.6880   40.4170 C   0  0  0  0  0  0  0  0  0  0  0  0
   39.1870   32.9840   40.7680 C   0  0  0  0  0  3  0  0  0  0  0  0
   38.3820   33.9950   40.2950 C   0  0  0  0  0  0  0  0  0  0  0  0
   38.6740   34.9800   40.6240 H   0  0  0  0  0  0  0  0  0  0  0  0
   37.3210   33.6530   39.4770 C   0  0  0  0  0  0  0  0  0  0  0  0
   36.7290   34.4760   39.1390 H   0  0  0  0  0  0  0  0  0  0  0  0
   37.1170   32.3260   39.1740 C   0  0  0  0  0  3  0  0  0  0  0  0
   37.8830   31.2730   39.6130 C   0  0  0  0  0  0  0  0  0  0  0  0
   32.2970   29.6220   35.7730 C   0  0  0  0  0  0  0  0  0  0  0  0
   32.0240   29.3120   34.7390 H   0  0  0  0  0  0  0  0  0  0  0  0
   33.1040   30.3940   35.5950 H   0  0  0  0  0  0  0  0  0  0  0  0
   30.5980   31.4160   35.8080 C   0  0  0  0  0  0  0  0  0  0  0  0
   31.2290   30.3750   36.4690 C   0  0  0  0  0  0  0  0  0  0  0  0
   30.9080   30.0070   37.7520 C   0  0  0  0  0  0  0  0  0  0  0  0
   29.9180   30.7070   38.4080 C   0  0  0  0  0  0  0  0  0  0  0  0
   29.2490   31.7410   37.8360 C   0  0  0  0  0  0  0  0  0  0  0  0
   29.6220   32.0600   36.5370 C   0  0  0  0  0  0  0  0  0  0  0  0
   31.3360   29.2280   38.3240 H   0  0  0  0  0  0  0  0  0  0  0  0
   29.6110   30.4700   39.4320 H   0  0  0  0  0  0  0  0  0  0  0  0
   28.4700   32.2950   38.3440 H   0  0  0  0  0  0  0  0  0  0  0  0
   29.1040   32.8890   36.0440 H   0  0  0  0  0  0  0  0  0  0  0  0
   30.9800   31.9110   34.1750 S   0  0  0  0  0  0  0  0  0  0  0  0
   31.9990   33.0320   34.1500 O   0  0  0  0  0  0  0  0  0  0  0  0
   29.7400   32.5430   33.5770 O   0  0  0  0  0  0  0  0  0  0  0  0
   31.2930   30.8890   33.3470 H   0  0  0  0  0  0  0  0  0  0  0  0
  1  5  1  0  0  0  0
  1  2  1  0  0  0  0
  3  1  1  0  0  0  0
  4  9  1  0  0  0  0
  4 10  1  0  0  0  0
  5  4  2  0  0  0  0
  6  7  2  0  0  0  0
  6  5  1  0  0  0  0
  7  8  1  0  0  0  0
  8  9  2  0  0  0  0
  8 12  1  0  0  0  0
 11  6  1  0  0  0  0
 12 23  2  0  0  0  0
 12 13  1  0  0  0  0
 13 14  2  0  0  0  0
 14 15  1  0  0  0  0
 16 17  1  0  0  0  0
 16 15  2  0  0  0  0
 18 19  1  0  0  0  0
 18 17  2  0  0  0  0
 20 18  1  0  0  0  0
 21 20  1  0  0  0  0
 22 20  2  0  0  0  0
 22 23  1  0  0  0  0
 23 16  1  0  0  0  0
 24 28  1  0  0  0  0
 24  1  1  0  0  0  0
 25 24  1  0  0  0  0
 26 24  1  0  0  0  0
 27 28  2  0  0  0  0
 27 32  1  0  0  0  0
 28 29  1  0  0  0  0
 29 33  1  0  0  0  0
 29 30  2  0  0  0  0
 30 34  1  0  0  0  0
 31 35  1  0  0  0  0
 31 30  1  0  0  0  0
 32 31  2  0  0  0  0
 36 32  1  0  0  0  0
 37 27  1  0  0  0  0
 38 37  2  0  0  0  0
 39 37  2  0  0  0  0
 40 37  1  0  0  0  0
M  END
>  <minimizedAffinity>
-6.13213634

$$$$

 OpenBabel03242518033D

 40 43  0  0  0  0  0  0  0  0999 V2000
   36.0480   26.7880   37.7220 C   0  0  0  0  0  0  0  0  0  0  0  0
   36.6710   26.6540   36.8280 H   0  0  0  0  0  0  0  0  0  0  0  0
   35.7720   25.7290   38.0090 H   0  0  0  0  0  0  0  0  0  0  0  0
   34.5110   28.6260   38.3650 C   0  0  0  0  0  0  0  0  0  0  0  0
   34.8060   27.5220   37.5560 C   0  0  0  0  0  0  0  0  0  0  0  0
   33.8470   27.1920   36.6150 C   0  0  0  0  0  0  0  0  0  0  0  0
   32.7220   27.9190   36.5250 N   0  0  0  0  0  0  0  0  0  0  0  0
   32.4480   28.9620   37.2930 C   0  0  0  0  0  0  0  0  0  0  0  0
   33.3570   29.2830   38.1910 N   0  0  0  0  0  0  0  0  0  0  0  0
   35.2180   28.9490   39.1330 H   0  0  0  0  0  0  0  0  0  0  0  0
   33.9790   26.3680   35.9540 H   0  0  0  0  0  0  0  0  0  0  0  0
   31.2860   29.8820   37.3530 C   0  0  0  0  0  0  0  0  0  0  0  0
   30.4650   29.9710   38.4140 N   0  0  0  0  0  0  0  0  0  0  0  0
   29.4290   30.8060   38.4400 C   0  0  0  0  0  3  0  0  0  0  0  0
   29.1250   31.6240   37.4070 N   0  0  0  0  0  0  0  0  0  0  0  0
   29.9050   31.6030   36.2860 C   0  0  0  0  0  0  0  0  0  0  0  0
   29.5840   32.4380   35.2490 C   0  0  0  0  0  3  0  0  0  0  0  0
   30.3580   32.4300   34.1120 C   0  0  0  0  0  0  0  0  0  0  0  0
   30.0280   33.1200   33.3510 H   0  0  0  0  0  0  0  0  0  0  0  0
   31.4390   31.5690   34.0650 C   0  0  0  0  0  0  0  0  0  0  0  0
   32.0050   31.6030   33.1610 H   0  0  0  0  0  0  0  0  0  0  0  0
   31.6920   30.7620   35.1520 C   0  0  0  0  0  3  0  0  0  0  0  0
   30.9580   30.7230   36.3140 C   0  0  0  0  0  0  0  0  0  0  0  0
   36.7800   27.3840   38.9070 C   0  0  0  0  0  0  0  0  0  0  0  0
   36.3950   28.4030   39.1390 H   0  0  0  0  0  0  0  0  0  0  0  0
   37.8660   27.5820   38.6590 H   0  0  0  0  0  0  0  0  0  0  0  0
   37.1210   27.0270   41.3280 C   0  0  0  0  0  0  0  0  0  0  0  0
   36.8370   26.4880   40.0830 C   0  0  0  0  0  0  0  0  0  0  0  0
   36.6080   25.1480   39.8890 C   0  0  0  0  0  0  0  0  0  0  0  0
   36.6650   24.3070   40.9790 C   0  0  0  0  0  0  0  0  0  0  0  0
   36.9360   24.7500   42.2340 C   0  0  0  0  0  0  0  0  0  0  0  0
   37.1580   26.1150   42.3610 C   0  0  0  0  0  0  0  0  0  0  0  0
   36.3840   24.6600   38.9790 H   0  0  0  0  0  0  0  0  0  0  0  0
   36.4930   23.2280   40.8990 H   0  0  0  0  0  0  0  0  0  0  0  0
   36.9820   24.0950   43.0960 H   0  0  0  0  0  0  0  0  0  0  0  0
   37.3800   26.5080   43.3580 H   0  0  0  0  0  0  0  0  0  0  0  0
   37.4180   28.7260   41.6130 S   0  0  0  0  0  0  0  0  0  0  0  0
   37.7720   29.0010   43.0600 O   0  0  0  0  0  0  0  0  0  0  0  0
   36.1120   29.4670   41.4170 O   0  0  0  0  0  0  0  0  0  0  0  0
   38.2820   29.2890   40.7380 H   0  0  0  0  0  0  0  0  0  0  0  0
  1  3  1  0  0  0  0
  1 24  1  0  0  0  0
  2  1  1  0  0  0  0
  4 10  1  0  0  0  0
  5  1  1  0  0  0  0
  5  4  2  0  0  0  0
  6  5  1  0  0  0  0
  7  6  2  0  0  0  0
  7  8  1  0  0  0  0
  8 12  1  0  0  0  0
  8  9  2  0  0  0  0
  9  4  1  0  0  0  0
 11  6  1  0  0  0  0
 12 13  1  0  0  0  0
 13 14  2  0  0  0  0
 15 14  1  0  0  0  0
 16 23  1  0  0  0  0
 16 15  2  0  0  0  0
 17 16  1  0  0  0  0
 18 17  2  0  0  0  0
 19 18  1  0  0  0  0
 20 18  1  0  0  0  0
 20 22  2  0  0  0  0
 21 20  1  0  0  0  0
 22 23  1  0  0  0  0
 23 12  2  0  0  0  0
 24 25  1  0  0  0  0
 24 28  1  0  0  0  0
 26 24  1  0  0  0  0
 27 37  1  0  0  0  0
 27 32  1  0  0  0  0
 28 27  2  0  0  0  0
 29 28  1  0  0  0  0
 29 30  2  0  0  0  0
 30 31  1  0  0  0  0
 31 32  2  0  0  0  0
 31 35  1  0  0  0  0
 32 36  1  0  0  0  0
 33 29  1  0  0  0  0
 34 30  1  0  0  0  0
 37 38  2  0  0  0  0
 39 37  2  0  0  0  0
 40 37  1  0  0  0  0
M  END
>  <minimizedAffinity>
-6.05162001

$$$$

 OpenBabel03242518033D

 40 43  0  0  0  0  0  0  0  0999 V2000
   35.9900   28.8610   38.5220 C   0  0  0  0  0  0  0  0  0  0  0  0
   36.9710   29.1520   38.1220 H   0  0  0  0  0  0  0  0  0  0  0  0
   36.1460   27.7850   38.8360 H   0  0  0  0  0  0  0  0  0  0  0  0
   35.0830   28.8660   36.2130 C   0  0  0  0  0  0  0  0  0  0  0  0
   34.8700   28.8760   37.5970 C   0  0  0  0  0  0  0  0  0  0  0  0
   33.5480   28.9050   38.0030 C   0  0  0  0  0  0  0  0  0  0  0  0
   32.5690   28.9200   37.0850 N   0  0  0  0  0  0  0  0  0  0  0  0
   32.7750   28.9110   35.7780 C   0  0  0  0  0  0  0  0  0  0  0  0
   34.0320   28.8830   35.3840 N   0  0  0  0  0  0  0  0  0  0  0  0
   36.1000   28.8440   35.8140 H   0  0  0  0  0  0  0  0  0  0  0  0
   33.2850   28.9160   39.0340 H   0  0  0  0  0  0  0  0  0  0  0  0
   31.8500   28.9240   34.6180 C   0  0  0  0  0  0  0  0  0  0  0  0
   31.5130   27.8220   33.9250 N   0  0  0  0  0  0  0  0  0  0  0  0
   30.6800   27.8650   32.8880 C   0  0  0  0  0  3  0  0  0  0  0  0
   30.1110   29.0120   32.4570 N   0  0  0  0  0  0  0  0  0  0  0  0
   30.3940   30.1830   33.1010 C   0  0  0  0  0  0  0  0  0  0  0  0
   29.8090   31.3360   32.6510 C   0  0  0  0  0  3  0  0  0  0  0  0
   30.0830   32.5250   33.2880 C   0  0  0  0  0  0  0  0  0  0  0  0
   29.5770   33.3780   32.8630 H   0  0  0  0  0  0  0  0  0  0  0  0
   30.9470   32.5020   34.3670 C   0  0  0  0  0  0  0  0  0  0  0  0
   31.1240   33.4500   34.8240 H   0  0  0  0  0  0  0  0  0  0  0  0
   31.4920   31.2990   34.7550 C   0  0  0  0  0  3  0  0  0  0  0  0
   31.2590   30.0800   34.1620 C   0  0  0  0  0  0  0  0  0  0  0  0
   35.5740   29.6220   39.7630 C   0  0  0  0  0  0  0  0  0  0  0  0
   34.4820   29.5120   39.9490 H   0  0  0  0  0  0  0  0  0  0  0  0
   35.6870   30.7380   39.6160 H   0  0  0  0  0  0  0  0  0  0  0  0
   37.4220   30.2120   41.2940 C   0  0  0  0  0  0  0  0  0  0  0  0
   36.4100   29.3310   40.9490 C   0  0  0  0  0  0  0  0  0  0  0  0
   36.1470   28.1870   41.6610 C   0  0  0  0  0  0  0  0  0  0  0  0
   36.9250   27.9050   42.7640 C   0  0  0  0  0  0  0  0  0  0  0  0
   37.9370   28.7150   43.1730 C   0  0  0  0  0  0  0  0  0  0  0  0
   38.1490   29.8540   42.4090 C   0  0  0  0  0  0  0  0  0  0  0  0
   35.3980   27.4670   41.4680 H   0  0  0  0  0  0  0  0  0  0  0  0
   36.7740   27.0120   43.3790 H   0  0  0  0  0  0  0  0  0  0  0  0
   38.5530   28.5010   44.0380 H   0  0  0  0  0  0  0  0  0  0  0  0
   38.9570   30.5300   42.7090 H   0  0  0  0  0  0  0  0  0  0  0  0
   37.7850   31.6770   40.4110 S   0  0  0  0  0  0  0  0  0  0  0  0
   38.5170   31.3880   39.1170 O   0  0  0  0  0  0  0  0  0  0  0  0
   38.7900   32.4720   41.2190 O   0  0  0  0  0  0  0  0  0  0  0  0
   36.7250   32.5020   40.2500 H   0  0  0  0  0  0  0  0  0  0  0  0
  1  3  1  0  0  0  0
  1 24  1  0  0  0  0
  2  1  1  0  0  0  0
  4  5  1  0  0  0  0
  5  6  2  0  0  0  0
  5  1  1  0  0  0  0
  6 11  1  0  0  0  0
  7  6  1  0  0  0  0
  8  7  2  0  0  0  0
  9  8  1  0  0  0  0
  9  4  2  0  0  0  0
 10  4  1  0  0  0  0
 12  8  1  0  0  0  0
 13 12  2  0  0  0  0
 14 13  1  0  0  0  0
 15 14  2  0  0  0  0
 15 16  1  0  0  0  0
 16 23  1  0  0  0  0
 17 16  2  0  0  0  0
 17 18  1  0  0  0  0
 18 20  2  0  0  0  0
 19 18  1  0  0  0  0
 20 22  1  0  0  0  0
 20 21  1  0  0  0  0
 23 12  1  0  0  0  0
 23 22  2  0  0  0  0
 24 25  1  0  0  0  0
 24 28  1  0  0  0  0
 26 24  1  0  0  0  0
 27 32  1  0  0  0  0
 28 27  2  0  0  0  0
 28 29  1  0  0  0  0
 29 30  2  0  0  0  0
 30 31  1  0  0  0  0
 30 34  1  0  0  0  0
 31 35  1  0  0  0  0
 32 36  1  0  0  0  0
 32 31  2  0  0  0  0
 33 29  1  0  0  0  0
 37 39  2  0  0  0  0
 37 27  1  0  0  0  0
 38 37  2  0  0  0  0
 40 37  1  0  0  0  0
M  END
>  <minimizedAffinity>
-5.91960907

$$$$

 OpenBabel03242518033D

 40 43  0  0  0  0  0  0  0  0999 V2000
   37.1530   27.6620   43.4610 C   0  0  0  0  0  0  0  0  0  0  0  0
   36.1820   27.7300   43.9700 H   0  0  0  0  0  0  0  0  0  0  0  0
   37.8880   27.5650   44.3160 H   0  0  0  0  0  0  0  0  0  0  0  0
   38.7490   29.4960   42.9710 C   0  0  0  0  0  0  0  0  0  0  0  0
   37.5660   28.8090   42.6730 C   0  0  0  0  0  0  0  0  0  0  0  0
   36.8410   29.2970   41.6000 C   0  0  0  0  0  0  0  0  0  0  0  0
   37.2900   30.3650   40.9230 N   0  0  0  0  0  0  0  0  0  0  0  0
   38.4080   31.0110   41.2090 C   0  0  0  0  0  0  0  0  0  0  0  0
   39.1050   30.5520   42.2290 N   0  0  0  0  0  0  0  0  0  0  0  0
   39.3770   29.1720   43.8050 H   0  0  0  0  0  0  0  0  0  0  0  0
   35.9270   28.8430   41.2970 H   0  0  0  0  0  0  0  0  0  0  0  0
   39.0680   32.1910   40.5960 C   0  0  0  0  0  0  0  0  0  0  0  0
   38.9300   33.4440   41.0620 N   0  0  0  0  0  0  0  0  0  0  0  0
   39.5340   34.4830   40.4910 C   0  0  0  0  0  3  0  0  0  0  0  0
   40.3290   34.3580   39.4060 N   0  0  0  0  0  0  0  0  0  0  0  0
   40.5290   33.1210   38.8620 C   0  0  0  0  0  0  0  0  0  0  0  0
   41.3380   33.0110   37.7630 C   0  0  0  0  0  3  0  0  0  0  0  0
   41.5510   31.7730   37.2020 C   0  0  0  0  0  0  0  0  0  0  0  0
   42.2010   31.7860   36.3410 H   0  0  0  0  0  0  0  0  0  0  0  0
   40.9310   30.6810   37.7810 C   0  0  0  0  0  0  0  0  0  0  0  0
   41.1300   29.7450   37.3060 H   0  0  0  0  0  0  0  0  0  0  0  0
   40.1340   30.8780   38.8850 C   0  0  0  0  0  3  0  0  0  0  0  0
   39.8820   32.0870   39.4910 C   0  0  0  0  0  0  0  0  0  0  0  0
   37.3180   26.4270   42.6000 C   0  0  0  0  0  0  0  0  0  0  0  0
   36.7420   26.5240   41.6520 H   0  0  0  0  0  0  0  0  0  0  0  0
   36.8420   25.5230   43.0870 H   0  0  0  0  0  0  0  0  0  0  0  0
   39.2230   25.9220   41.1100 C   0  0  0  0  0  0  0  0  0  0  0  0
   38.7280   26.0250   42.4000 C   0  0  0  0  0  0  0  0  0  0  0  0
   39.4920   25.7670   43.5110 C   0  0  0  0  0  0  0  0  0  0  0  0
   40.8050   25.3870   43.3330 C   0  0  0  0  0  0  0  0  0  0  0  0
   41.3710   25.2610   42.1040 C   0  0  0  0  0  0  0  0  0  0  0  0
   40.5440   25.5380   41.0240 C   0  0  0  0  0  0  0  0  0  0  0  0
   39.1940   25.8240   44.5240 H   0  0  0  0  0  0  0  0  0  0  0  0
   41.4730   25.1650   44.1720 H   0  0  0  0  0  0  0  0  0  0  0  0
   42.4020   24.9640   41.9550 H   0  0  0  0  0  0  0  0  0  0  0  0
   40.9670   25.4460   40.0180 H   0  0  0  0  0  0  0  0  0  0  0  0
   38.2810   26.2430   39.6730 S   0  0  0  0  0  0  0  0  0  0  0  0
   38.6510   25.3130   38.5370 O   0  0  0  0  0  0  0  0  0  0  0  0
   38.6710   27.6120   39.1550 O   0  0  0  0  0  0  0  0  0  0  0  0
   36.9480   26.3120   39.8910 H   0  0  0  0  0  0  0  0  0  0  0  0
  1  2  1  0  0  0  0
  1  3  1  0  0  0  0
  4 10  1  0  0  0  0
  5  4  1  0  0  0  0
  5  1  1  0  0  0  0
  6  5  2  0  0  0  0
  7  8  2  0  0  0  0
  7  6  1  0  0  0  0
  8  9  1  0  0  0  0
  9  4  2  0  0  0  0
 11  6  1  0  0  0  0
 12 13  1  0  0  0  0
 12  8  1  0  0  0  0
 14 13  2  0  0  0  0
 15 14  1  0  0  0  0
 16 15  2  0  0  0  0
 16 23  1  0  0  0  0
 17 16  1  0  0  0  0
 18 17  2  0  0  0  0
 18 20  1  0  0  0  0
 19 18  1  0  0  0  0
 20 22  2  0  0  0  0
 21 20  1  0  0  0  0
 22 23  1  0  0  0  0
 23 12  2  0  0  0  0
 24 26  1  0  0  0  0
 24  1  1  0  0  0  0
 25 24  1  0  0  0  0
 27 28  1  0  0  0  0
 28 24  1  0  0  0  0
 28 29  2  0  0  0  0
 29 33  1  0  0  0  0
 30 29  1  0  0  0  0
 30 34  1  0  0  0  0
 31 30  2  0  0  0  0
 32 27  2  0  0  0  0
 32 31  1  0  0  0  0
 35 31  1  0  0  0  0
 36 32  1  0  0  0  0
 37 40  1  0  0  0  0
 37 27  1  0  0  0  0
 38 37  2  0  0  0  0
 39 37  2  0  0  0  0
M  END
>  <minimizedAffinity>
-5.83485174

$$$$
