
 OpenBabel03252506573D

 41 46  0  0  0  0  0  0  0  0999 V2000
   47.3050   31.4470   45.1870 C   0  0  0  0  0  0  0  0  0  0  0  0
   46.8800   32.7600   45.1240 C   0  0  0  0  0  0  0  0  0  0  0  0
   46.2200   33.3740   46.1710 C   0  0  0  0  0  0  0  0  0  0  0  0
   45.9590   32.6610   47.3510 C   0  0  0  0  0  0  0  0  0  0  0  0
   45.3580   32.9240   48.5430 N   0  0  0  0  0  0  0  0  0  0  0  0
   45.4180   31.8000   49.3070 C   0  0  0  0  0  0  0  0  0  0  0  0
   46.0550   30.8630   48.5710 N   0  0  0  0  0  0  0  0  0  0  0  0
   46.3970   31.3590   47.3740 C   0  0  0  0  0  0  0  0  0  0  0  0
   47.0470   30.7280   46.3620 C   0  0  0  0  0  0  0  0  0  0  0  0
   47.8260   30.9600   44.3580 H   0  0  0  0  0  0  0  0  0  0  0  0
   45.8830   34.3970   46.1360 H   0  0  0  0  0  0  0  0  0  0  0  0
   44.9720   33.8660   48.6910 H   0  0  0  0  0  0  0  0  0  0  0  0
   45.0040   31.7770   50.2950 H   0  0  0  0  0  0  0  0  0  0  0  0
   46.4700   35.1890   42.3930 C   0  0  0  0  0  0  0  0  0  0  0  0
   47.6400   35.0160   41.6580 C   0  0  0  0  0  0  0  0  0  0  0  0
   48.5750   34.0610   42.1000 C   0  0  0  0  0  0  0  0  0  0  0  0
   48.2810   33.3520   43.2340 N   0  0  0  0  0  0  0  0  0  0  0  0
   47.1250   33.5490   43.9270 C   0  0  0  0  0  0  0  0  0  0  0  0
   46.2250   34.4610   43.5110 N   0  0  0  0  0  0  0  0  0  0  0  0
   45.7950   35.9320   42.0060 H   0  0  0  0  0  0  0  0  0  0  0  0
   47.9140   35.5430   40.7720 H   0  0  0  0  0  0  0  0  0  0  0  0
   49.5210   33.8170   41.6400 H   0  0  0  0  0  0  0  0  0  0  0  0
   47.4790   29.3270   46.4810 C   0  0  0  0  0  0  0  0  0  0  0  0
   48.7460   28.8630   46.2450 C   0  0  0  0  0  0  0  0  0  0  0  0
   48.6210   27.4880   46.4960 C   0  0  0  0  0  0  0  0  0  0  0  0
   47.3400   27.1870   46.8570 C   0  0  0  0  0  0  0  0  0  0  0  0
   46.7240   28.3440   46.8230 O   0  0  0  0  0  0  0  0  0  0  0  0
   49.6360   29.3920   45.9420 H   0  0  0  0  0  0  0  0  0  0  0  0
   49.4560   26.8580   46.4250 H   0  0  0  0  0  0  0  0  0  0  0  0
   46.5670   26.0230   47.2380 C   0  0  0  0  0  0  0  0  0  0  0  0
   47.0690   25.1480   48.1530 N   0  0  0  0  0  0  0  0  0  0  0  0
   46.4840   24.0150   48.4810 C   0  0  0  0  0  3  0  0  0  0  0  0
   45.3230   23.6010   47.9430 N   0  0  0  0  0  0  0  0  0  0  0  0
   44.7250   24.4030   47.0140 C   0  0  0  0  0  0  0  0  0  0  0  0
   43.5370   24.0580   46.4530 C   0  0  0  0  0  3  0  0  0  0  0  0
   42.8950   24.8640   45.5350 C   0  0  0  0  0  0  0  0  0  0  0  0
   41.9660   24.4790   45.1670 H   0  0  0  0  0  0  0  0  0  0  0  0
   43.5540   26.0570   45.2270 C   0  0  0  0  0  0  0  0  0  0  0  0
   43.0150   26.6710   44.4970 H   0  0  0  0  0  0  0  0  0  0  0  0
   44.7540   26.3670   45.8160 C   0  0  0  0  0  3  0  0  0  0  0  0
   45.3870   25.5660   46.7210 C   0  0  0  0  0  0  0  0  0  0  0  0
  1  9  1  0  0  0  0
  2  1  2  0  0  0  0
  2  3  1  0  0  0  0
  3  4  2  0  0  0  0
  4  8  1  0  0  0  0
  4  5  1  0  0  0  0
  5 12  1  0  0  0  0
  5  6  1  0  0  0  0
  6 13  1  0  0  0  0
  7  6  2  0  0  0  0
  8  7  1  0  0  0  0
  9 23  1  0  0  0  0
  9  8  2  0  0  0  0
 10  1  1  0  0  0  0
 11  3  1  0  0  0  0
 14 19  1  0  0  0  0
 15 16  1  0  0  0  0
 15 14  2  0  0  0  0
 16 17  2  0  0  0  0
 17 18  1  0  0  0  0
 18  2  1  0  0  0  0
 19 18  2  0  0  0  0
 20 14  1  0  0  0  0
 21 15  1  0  0  0  0
 22 16  1  0  0  0  0
 23 27  1  0  0  0  0
 24 23  2  0  0  0  0
 24 25  1  0  0  0  0
 25 26  2  0  0  0  0
 26 30  1  0  0  0  0
 27 26  1  0  0  0  0
 28 24  1  0  0  0  0
 29 25  1  0  0  0  0
 30 31  1  0  0  0  0
 31 32  2  0  0  0  0
 33 32  1  0  0  0  0
 34 33  2  0  0  0  0
 35 34  1  0  0  0  0
 36 35  2  0  0  0  0
 37 36  1  0  0  0  0
 38 36  1  0  0  0  0
 38 40  2  0  0  0  0
 39 38  1  0  0  0  0
 40 41  1  0  0  0  0
 41 34  1  0  0  0  0
 41 30  2  0  0  0  0
M  END
>  <minimizedAffinity>
-6.11051512

>  <minimizedRMSD>
0.928271651

$$$$
