
 OpenBabel03252509243D

 30 33  0  0  1  0  0  0  0  0999 V2000
   46.4630   35.0550   41.8870 C   0  0  1  0  0  0  0  0  0  0  0  0
   48.0100   35.0560   41.7930 C   0  0  0  0  0  0  0  0  0  0  0  0
   47.0550   33.9920   41.1620 C   0  0  2  0  0  0  0  0  0  0  0  0
   45.9980   35.9430   41.4250 H   0  0  0  0  0  0  0  0  0  0  0  0
   48.6020   34.7390   42.6460 H   0  0  0  0  0  0  0  0  0  0  0  0
   48.4250   35.7980   41.1150 H   0  0  0  0  0  0  0  0  0  0  0  0
   47.1400   32.9870   41.6670 H   0  0  0  0  0  0  0  0  0  0  0  0
   47.1860   33.9000   39.7070 C   0  0  0  0  0  0  0  0  0  0  0  0
   48.2570   34.4930   39.1260 N   0  0  0  0  0  0  0  0  0  0  0  0
   48.3910   34.4170   37.7850 C   0  0  0  0  0  0  0  0  0  0  0  0
   47.5180   33.7790   36.9650 N   0  0  0  0  0  0  0  0  0  0  0  0
   46.4330   33.1730   37.5070 C   0  0  0  0  0  0  0  0  0  0  0  0
   45.4870   32.4990   36.7640 C   0  0  0  0  0  0  0  0  0  0  0  0
   44.3920   31.8880   37.3390 C   0  0  0  0  0  0  0  0  0  0  0  0
   43.6470   31.3590   36.7630 H   0  0  0  0  0  0  0  0  0  0  0  0
   44.2440   31.9600   38.7160 C   0  0  0  0  0  0  0  0  0  0  0  0
   43.3880   31.4840   39.1650 H   0  0  0  0  0  0  0  0  0  0  0  0
   45.2000   32.6370   39.4290 C   0  0  0  0  0  0  0  0  0  0  0  0
   46.3010   33.2530   38.8710 C   0  0  0  0  0  0  0  0  0  0  0  0
   44.7080   35.3390   45.2020 C   0  0  0  0  0  0  0  0  0  0  0  0
   45.1120   35.6690   43.8820 C   0  0  0  0  0  0  0  0  0  0  0  0
   46.0320   34.8200   43.3180 C   0  0  0  0  0  0  0  0  0  0  0  0
   46.5160   33.7220   44.0180 N   0  0  0  0  0  0  0  0  0  0  0  0
   46.1040   33.4520   45.2630 C   0  0  0  0  0  0  0  0  0  0  0  0
   45.1920   34.2710   45.8550 N   0  0  0  0  0  0  0  0  0  0  0  0
   43.9800   35.9930   45.6730 H   0  0  0  0  0  0  0  0  0  0  0  0
   46.5510   32.5830   45.6880 H   0  0  0  0  0  0  0  0  0  0  0  0
   44.6310   36.8160   43.1770 N   0  0  0  0  0  0  0  0  0  0  0  0
   45.4040   37.4760   43.4400 H   0  0  0  0  0  0  0  0  0  0  0  0
   43.7630   36.8840   42.5990 H   0  0  0  0  0  0  0  0  0  0  0  0
  1  4  1  6  0  0  0
  1 22  1  0  0  0  0
  2  1  1  0  0  0  0
  2  5  1  0  0  0  0
  3  7  1  1  0  0  0
  3  2  1  0  0  0  0
  3  1  1  0  0  0  0
  6  2  1  0  0  0  0
  8  3  1  0  0  0  0
  9  8  1  0  0  0  0
 10  9  2  0  0  0  0
 11 12  2  0  0  0  0
 11 10  1  0  0  0  0
 12 19  1  0  0  0  0
 13 14  2  0  0  0  0
 13 12  1  0  0  0  0
 14 16  1  0  0  0  0
 15 14  1  0  0  0  0
 16 17  1  0  0  0  0
 16 18  2  0  0  0  0
 19 18  1  0  0  0  0
 19  8  2  0  0  0  0
 20 26  1  0  0  0  0
 20 25  1  0  0  0  0
 21 20  2  0  0  0  0
 22 21  1  0  0  0  0
 22 23  2  0  0  0  0
 23 24  1  0  0  0  0
 24 27  1  0  0  0  0
 24 25  2  0  0  0  0
 28 29  1  0  0  0  0
 28 21  1  0  0  0  0
 30 28  1  0  0  0  0
M  END
>  <minimizedAffinity>
-5.7487812

>  <minimizedRMSD>
0.74300313

$$$$
