REMARK  Name = 
REMARK  4 active torsions:
REMARK  status: ('A' for Active; 'I' for Inactive)
REMARK    1  A    between atoms: C_1  and  C_11
REMARK    2  A    between atoms: C_6  and  N_19
REMARK    3  A    between atoms: C_9  and  C_13
REMARK    4  A    between atoms: C_17  and  C_35
REMARK                            x       y       z     vdW  Elec       q    Type
REMARK                         _______ _______ _______ _____ _____    ______ ____
ROOT
ATOM      1  C   UNL     1      44.568  35.565  44.616  0.00  0.00    +0.000 A 
ATOM      2  C   UNL     1      45.221  35.575  43.362  0.00  0.00    +0.000 A 
ATOM      3  C   UNL     1      46.301  34.673  43.170  0.00  0.00    +0.000 A 
ATOM      4  N   UNL     1      46.645  33.854  44.199  0.00  0.00    +0.000 NA
ATOM      5  C   UNL     1      46.001  33.872  45.377  0.00  0.00    +0.000 A 
ATOM      6  N   UNL     1      44.955  34.732  45.591  0.00  0.00    +0.000 NA
ATOM      7  H   UNL     1      43.759  36.267  44.704  0.00  0.00    +0.000 HD
ATOM      8  H   UNL     1      44.959  36.216  42.544  0.00  0.00    +0.000 HD
ENDROOT
BRANCH   5   9
ATOM      9  C   UNL     1      46.429  32.962  46.460  0.00  0.00    +0.000 C 
ATOM     10  C   UNL     1      46.980  31.741  45.776  0.00  0.00    +0.000 C 
ATOM     11  C   UNL     1      46.097  30.554  45.811  0.00  0.00    +0.000 C 
ATOM     12  C   UNL     1      45.822  30.293  47.285  0.00  0.00    +0.000 C 
ATOM     13  C   UNL     1      45.039  31.363  47.887  0.00  0.00    +0.000 C 
ATOM     14  C   UNL     1      45.385  32.734  47.432  0.00  0.00    +0.000 C 
ATOM     15  H   UNL     1      47.283  33.501  46.964  0.00  0.00    +0.000 HD
ATOM     16  H   UNL     1      47.267  31.935  44.714  0.00  0.00    +0.000 HD
ATOM     17  H   UNL     1      47.931  31.465  46.276  0.00  0.00    +0.000 HD
ATOM     18  H   UNL     1      45.114  30.738  45.352  0.00  0.00    +0.000 HD
ATOM     19  H   UNL     1      46.659  29.702  45.389  0.00  0.00    +0.000 HD
ATOM     20  H   UNL     1      45.146  29.403  47.279  0.00  0.00    +0.000 HD
ATOM     21  H   UNL     1      46.726  29.986  47.838  0.00  0.00    +0.000 HD
ATOM     22  H   UNL     1      44.252  31.453  48.593  0.00  0.00    +0.000 HD
BRANCH  14  23
ATOM     23  N   UNL     1      44.697  33.862  47.941  0.00  0.00    +0.000 N 
ATOM     24  H   UNL     1      45.127  34.533  48.618  0.00  0.00    +0.000 HD
ATOM     25  H   UNL     1      43.712  33.991  47.597  0.00  0.00    +0.000 HD
ENDBRANCH  14  23
ENDBRANCH   5   9
BRANCH   3  26
ATOM     26  C   UNL     1      47.002  34.659  41.899  0.00  0.00    +0.000 A 
ATOM     27  C   UNL     1      48.138  35.386  41.775  0.00  0.00    +0.000 A 
ATOM     28  C   UNL     1      48.772  35.323  40.515  0.00  0.00    +0.000 A 
ATOM     29  C   UNL     1      48.166  34.536  39.562  0.00  0.00    +0.000 A 
ATOM     30  C   UNL     1      47.025  33.806  39.679  0.00  0.00    +0.000 A 
ATOM     31  N   UNL     1      46.508  33.940  40.923  0.00  0.00    +0.000 NA
ATOM     32  H   UNL     1      48.543  35.974  42.569  0.00  0.00    +0.000 HD
ATOM     33  H   UNL     1      49.665  35.879  40.378  0.00  0.00    +0.000 HD
ATOM     34  H   UNL     1      48.729  34.551  38.624  0.00  0.00    +0.000 HD
BRANCH  30  35
ATOM     35  C   UNL     1      46.582  33.054  38.529  0.00  0.00    +0.000 A 
ATOM     36  N   UNL     1      45.377  33.314  37.998  0.00  0.00    +0.000 NA
ATOM     37  C   UNL     1      44.884  32.670  36.934  0.00  0.00    +0.000 A 
ATOM     38  N   UNL     1      45.579  31.688  36.304  0.00  0.00    +0.000 NA
ATOM     39  C   UNL     1      46.816  31.357  36.778  0.00  0.00    +0.000 A 
ATOM     40  C   UNL     1      47.570  30.370  36.181  0.00  0.00    +0.000 A 
ATOM     41  C   UNL     1      48.820  30.027  36.650  0.00  0.00    +0.000 A 
ATOM     42  H   UNL     1      49.313  29.238  36.099  0.00  0.00    +0.000 HD
ATOM     43  C   UNL     1      49.289  30.732  37.765  0.00  0.00    +0.000 A 
ATOM     44  H   UNL     1      50.271  30.433  38.101  0.00  0.00    +0.000 HD
ATOM     45  C   UNL     1      48.500  31.709  38.327  0.00  0.00    +0.000 A 
ATOM     46  C   UNL     1      47.259  32.059  37.872  0.00  0.00    +0.000 A 
ENDBRANCH  30  35
ENDBRANCH   3  26
TORSDOF 4
