
 OpenBabel03242522153D

 35 38  0  0  0  0  0  0  0  0999 V2000
   46.6960   34.8890   42.7320 C   0  0  0  0  0  0  0  0  0  0  0  0
   46.4710   35.7260   43.4490 H   0  0  0  0  0  0  0  0  0  0  0  0
   46.0830   34.9920   41.8240 H   0  0  0  0  0  0  0  0  0  0  0  0
   46.0860   32.1330   45.1120 C   0  0  0  0  0  0  0  0  0  0  0  0
   45.5010   31.2530   44.2710 C   0  0  0  0  0  0  0  0  0  0  0  0
   45.5120   32.1830   42.6650 S   0  0  0  0  0  0  0  0  0  0  0  0
   46.3410   33.6390   43.4880 C   0  0  0  0  0  0  0  0  0  0  0  0
   46.4310   33.2500   44.5510 N   0  0  0  0  0  0  0  0  0  0  0  0
   45.1150   30.2110   44.5290 H   0  0  0  0  0  0  0  0  0  0  0  0
   45.9310   32.2810   48.8840 C   0  0  0  0  0  0  0  0  0  0  0  0
   45.6800   32.5990   47.5310 C   0  0  0  0  0  0  0  0  0  0  0  0
   46.3100   31.8490   46.5460 C   0  0  0  0  0  0  0  0  0  0  0  0
   47.1450   30.8420   46.9720 N   0  0  0  0  0  0  0  0  0  0  0  0
   47.3590   30.5700   48.2560 C   0  0  0  0  0  0  0  0  0  0  0  0
   46.7600   31.2820   49.2160 N   0  0  0  0  0  0  0  0  0  0  0  0
   45.4630   32.8370   49.6870 H   0  0  0  0  0  0  0  0  0  0  0  0
   48.0220   29.7700   48.5670 H   0  0  0  0  0  0  0  0  0  0  0  0
   44.7880   33.6780   47.2960 N   0  0  0  0  0  0  0  0  0  0  0  0
   44.7920   34.6710   47.5950 H   0  0  0  0  0  0  0  0  0  0  0  0
   43.9500   33.4550   46.7070 H   0  0  0  0  0  0  0  0  0  0  0  0
   48.1870   34.9510   42.4970 C   0  0  0  0  0  0  0  0  0  0  0  0
   48.6790   35.1190   43.4770 H   0  0  0  0  0  0  0  0  0  0  0  0
   48.4730   35.8210   41.8730 H   0  0  0  0  0  0  0  0  0  0  0  0
   48.7410   33.7410   41.8570 C   0  0  0  0  0  0  0  0  0  0  0  0
   49.3080   32.7870   42.6490 N   0  0  0  0  0  0  0  0  0  0  0  0
   49.8150   31.6520   42.0960 C   0  0  0  0  0  0  0  0  0  0  0  0
   49.7670   31.4520   40.7630 N   0  0  0  0  0  0  0  0  0  0  0  0
   49.2290   32.3360   39.9140 C   0  0  0  0  0  0  0  0  0  0  0  0
   49.1620   32.1760   38.5430 C   0  0  0  0  0  0  0  0  0  0  0  0
   48.5990   33.1340   37.7250 C   0  0  0  0  0  0  0  0  0  0  0  0
   48.5400   33.0220   36.6510 H   0  0  0  0  0  0  0  0  0  0  0  0
   48.0850   34.2850   38.2830 C   0  0  0  0  0  0  0  0  0  0  0  0
   47.6400   35.0420   37.6510 H   0  0  0  0  0  0  0  0  0  0  0  0
   48.1630   34.4240   39.6560 C   0  0  0  0  0  0  0  0  0  0  0  0
   48.7160   33.4930   40.5060 C   0  0  0  0  0  0  0  0  0  0  0  0
  1  2  1  0  0  0  0
  1  7  1  0  0  0  0
  3  1  1  0  0  0  0
  4 12  1  0  0  0  0
  5  9  1  0  0  0  0
  5  4  2  0  0  0  0
  6  7  1  0  0  0  0
  6  5  1  0  0  0  0
  7  8  2  0  0  0  0
  8  4  1  0  0  0  0
 10 15  1  0  0  0  0
 10 16  1  0  0  0  0
 11 10  2  0  0  0  0
 12 13  2  0  0  0  0
 12 11  1  0  0  0  0
 13 14  1  0  0  0  0
 14 17  1  0  0  0  0
 14 15  2  0  0  0  0
 18 11  1  0  0  0  0
 18 19  1  0  0  0  0
 20 18  1  0  0  0  0
 21  1  1  0  0  0  0
 21 22  1  0  0  0  0
 23 21  1  0  0  0  0
 24 21  1  0  0  0  0
 24 25  1  0  0  0  0
 26 25  2  0  0  0  0
 27 26  1  0  0  0  0
 28 35  1  0  0  0  0
 28 27  2  0  0  0  0
 29 28  1  0  0  0  0
 30 32  1  0  0  0  0
 30 29  2  0  0  0  0
 31 30  1  0  0  0  0
 32 34  2  0  0  0  0
 33 32  1  0  0  0  0
 34 35  1  0  0  0  0
 35 24  2  0  0  0  0
M  END
>  <minimizedAffinity>
-5.67133665

>  <minimizedRMSD>
3.82150912

$$$$
