
     RDKit          3D

 33 36  0  0  0  0  0  0  0  0999 V2000
   44.6255   35.4635   45.1330 C   0  0  0  0  0  0  0  0  0  0  0  0
   45.0946   35.7103   43.8165 C   0  0  0  0  0  0  0  0  0  0  0  0
   46.0406   34.8283   43.3534 C   0  0  0  0  0  0  0  0  0  0  0  0
   46.4883   33.7779   44.1449 N   0  0  0  0  0  0  0  0  0  0  0  0
   46.0141   33.5875   45.3825 C   0  0  0  0  0  0  0  0  0  0  0  0
   45.0746   34.4406   45.8754 N   0  0  0  0  0  0  0  0  0  0  0  0
   46.5417   34.9717   41.9327 C   0  0  1  0  0  0  0  0  0  0  0  0
   48.0618   35.2783   41.9368 C   0  0  0  0  0  0  0  0  0  0  0  0
   47.3907   33.9738   41.3965 C   0  0  2  0  0  0  0  0  0  0  0  0
   44.6510   36.8089   43.0163 N   0  0  0  0  0  0  0  0  0  0  0  0
   43.8760   36.1458   45.5242 H   0  0  0  0  0  0  0  0  0  0  0  0
   46.4382   32.7475   45.8842 H   0  0  0  0  0  0  0  0  0  0  0  0
   45.9563   35.6850   41.3272 H   0  0  0  0  0  0  0  0  0  0  0  0
   48.6260   35.1943   42.8601 H   0  0  0  0  0  0  0  0  0  0  0  0
   48.3820   36.0024   41.1920 H   0  0  0  0  0  0  0  0  0  0  0  0
   47.6248   33.0751   42.0384 H   0  0  0  0  0  0  0  0  0  0  0  0
   45.4106   37.4855   43.2748 H   0  0  0  0  0  0  0  0  0  0  0  0
   43.8127   36.8394   42.3932 H   0  0  0  0  0  0  0  0  0  0  0  0
   47.6664   33.7356   39.9791 C   0  0  0  0  0  0  0  0  0  0  0  0
   47.5361   34.7764   39.1222 N   0  0  0  0  0  0  0  0  0  0  0  0
   47.7853   34.5712   37.8113 C   0  0  0  0  0  0  0  0  0  0  0  0
   48.1624   33.3792   37.2834 N   0  0  0  0  0  0  0  0  0  0  0  0
   48.3041   32.3124   38.1082 C   0  0  0  0  0  0  0  0  0  0  0  0
   48.6832   31.0583   37.6734 C   0  0  0  0  0  0  0  0  0  0  0  0
   48.8209   29.9889   38.5328 C   0  0  0  0  0  0  0  0  0  0  0  0
   49.1170   29.0061   38.1988 H   0  0  0  0  0  0  0  0  0  0  0  0
   48.5677   30.1883   39.8811 C   0  0  0  0  0  0  0  0  0  0  0  0
   48.6754   29.3524   40.5525 H   0  0  0  0  0  0  0  0  0  0  0  0
   48.1925   31.4452   40.2844 C   0  0  0  0  0  0  0  0  0  0  0  0
   48.0497   32.5255   39.4402 C   0  0  0  0  0  0  0  0  0  0  0  0
   47.7207   35.3160   37.0083 H   0  0  0  0  0  0  0  0  0  0  0  0
   48.8808   30.9051   36.6179 H   0  0  0  0  0  0  0  0  0  0  0  0
   48.0095   31.5402   41.3453 H   0  0  0  0  0  0  0  0  0  0  0  0
  1  6  2  0
  2  1  1  0
  3  2  2  0
  3  4  1  0
  4  5  2  0
  5  6  1  0
  7  3  1  0
  8  7  1  0
  9  8  1  0
  9  7  1  0
 10  2  1  0
  1 11  1  0
  5 12  1  0
  7 13  1  6
  8 14  1  0
  8 15  1  0
  9 16  1  1
 10 17  1  0
 10 18  1  0
 19 20  2  0
 20 21  1  0
 21 22  2  0
 22 23  1  0
 23 24  2  0
 24 25  1  0
 25 26  1  0
 25 27  2  0
 27 28  1  0
 27 29  1  0
 29 30  2  0
 30 19  1  0
 30 23  1  0
 21 31  1  0
 24 32  1  0
 29 33  1  0
  9 19  1  0
M  ISO  8  11  14  12  14  13  13  14  13  15  13  16  13  26  16  28  16
M  END
>  <DihAtoms>  (1) 
7,8,18,19

>  <DihDeg>  (1) 
-91.06179748788401

$$$$
