REMARK  Name = 
REMARK  3 active torsions:
REMARK  status: ('A' for Active; 'I' for Inactive)
REMARK    1  A    between atoms: C_1  and  N_7
REMARK    2  A    between atoms: C_5  and  C_10
REMARK    3  A    between atoms: C_14  and  C_22
REMARK                            x       y       z     vdW  Elec       q    Type
REMARK                         _______ _______ _______ _____ _____    ______ ____
ROOT
ATOM      1  F   UNL     1      45.074  33.356  41.144  0.00  0.00    +0.000 F 
ATOM      2  C   UNL     1      46.253  33.963  40.974  0.00  0.00    +0.000 A 
ATOM      3  C   UNL     1      46.784  34.726  41.993  0.00  0.00    +0.000 A 
ATOM      4  C   UNL     1      47.997  35.389  41.901  0.00  0.00    +0.000 A 
ATOM      5  C   UNL     1      48.732  35.289  40.721  0.00  0.00    +0.000 A 
ATOM      6  C   UNL     1      48.168  34.515  39.720  0.00  0.00    +0.000 A 
ATOM      7  C   UNL     1      46.968  33.853  39.796  0.00  0.00    +0.000 A 
ATOM      8  H   UNL     1      48.354  35.972  42.740  0.00  0.00    +0.000 HD
ATOM      9  H   UNL     1      49.684  35.792  40.613  0.00  0.00    +0.000 HD
ATOM     10  H   UNL     1      48.792  34.471  38.822  0.00  0.00    +0.000 HD
ENDROOT
BRANCH   7  11
ATOM     11  C   UNL     1      46.455  33.049  38.686  0.00  0.00    +0.000 A 
ATOM     12  N   UNL     1      45.152  33.302  38.381  0.00  0.00    +0.000 NA
ATOM     13  C   UNL     1      44.554  32.623  37.368  0.00  0.00    +0.000 A 
ATOM     14  N   UNL     1      45.253  31.693  36.659  0.00  0.00    +0.000 NA
ATOM     15  C   UNL     1      46.538  31.419  36.933  0.00  0.00    +0.000 A 
ATOM     16  C   UNL     1      47.278  30.486  36.232  0.00  0.00    +0.000 A 
ATOM     17  C   UNL     1      48.603  30.235  36.541  0.00  0.00    +0.000 A 
ATOM     18  H   UNL     1      49.224  29.529  36.038  0.00  0.00    +0.000 HD
ATOM     19  C   UNL     1      49.154  30.959  37.581  0.00  0.00    +0.000 A 
ATOM     20  H   UNL     1      50.202  30.782  37.852  0.00  0.00    +0.000 HD
ATOM     21  C   UNL     1      48.475  31.915  38.335  0.00  0.00    +0.000 A 
ATOM     22  C   UNL     1      47.166  32.094  37.955  0.00  0.00    +0.000 A 
ENDBRANCH   7  11
BRANCH   3  27
ATOM     23  C   UNL     1      45.461  34.013  45.365  0.00  0.00    +0.000 A 
ATOM     24  C   UNL     1      44.650  35.139  45.594  0.00  0.00    +0.000 A 
ATOM     25  C   UNL     1      44.559  36.141  44.592  0.00  0.00    +0.000 A 
ATOM     26  N   UNL     1      45.280  35.934  43.453  0.00  0.00    +0.000 NA
ATOM     27  C   UNL     1      46.040  34.861  43.261  0.00  0.00    +0.000 A 
ATOM     28  N   UNL     1      46.126  33.916  44.208  0.00  0.00    +0.000 NA
ATOM     29  H   UNL     1      44.103  35.238  46.522  0.00  0.00    +0.000 HD
ATOM     30  H   UNL     1      43.952  37.008  44.737  0.00  0.00    +0.000 HD
BRANCH  23  31
ATOM     31  N   UNL     1      45.551  33.021  46.358  0.00  0.00    +0.000 N 
ATOM     32  H   UNL     1      46.385  32.458  46.651  0.00  0.00    +0.000 HD
ATOM     33  H   UNL     1      44.809  32.655  46.994  0.00  0.00    +0.000 HD
ENDBRANCH  23  31
ENDBRANCH   3  27
TORSDOF 3
