
 OpenBabel03252508173D

 50 55  0  0  1  0  0  0  0  0999 V2000
   46.6740   31.5310   48.1960 C   0  0  1  0  0  0  0  0  0  0  0  0
   46.3460   30.4590   49.1780 C   0  0  0  0  0  0  0  0  0  0  0  0
   47.5200   31.3010   49.3810 C   0  0  1  0  0  0  0  0  0  0  0  0
   45.8270   32.2790   48.1690 H   0  0  0  0  0  0  0  0  0  0  0  0
   46.5320   29.3990   48.8830 H   0  0  0  0  0  0  0  0  0  0  0  0
   45.5010   30.5460   49.8900 H   0  0  0  0  0  0  0  0  0  0  0  0
   47.4490   32.0700   50.1780 H   0  0  0  0  0  0  0  0  0  0  0  0
   48.9100   30.7870   49.1660 C   0  0  2  0  0  0  0  0  0  0  0  0
   49.5120   30.1400   50.4390 C   0  0  0  0  0  0  0  0  0  0  0  0
   50.0370   31.4370   49.9640 C   0  0  1  0  0  0  0  0  0  0  0  0
   49.1650   30.1790   48.2810 H   0  0  0  0  0  0  0  0  0  0  0  0
   48.9310   30.1900   51.3780 H   0  0  0  0  0  0  0  0  0  0  0  0
   50.1080   29.2350   50.3630 H   0  0  0  0  0  0  0  0  0  0  0  0
   49.7600   32.3710   50.5040 H   0  0  0  0  0  0  0  0  0  0  0  0
   51.4090   31.3770   49.3980 C   0  0  0  0  0  0  0  0  0  0  0  0
   51.7980   30.4330   48.5210 N   0  0  0  0  0  0  0  0  0  0  0  0
   53.0190   30.3390   47.9870 C   0  0  0  0  0  3  0  0  0  0  0  0
   53.9800   31.2480   48.3230 N   0  0  0  0  0  0  0  0  0  0  0  0
   53.6430   32.2240   49.2030 C   0  0  0  0  0  0  0  0  0  0  0  0
   54.6470   33.1190   49.5120 C   0  0  0  0  0  3  0  0  0  0  0  0
   54.3300   34.1360   50.4180 C   0  0  0  0  0  0  0  0  0  0  0  0
   55.1420   34.8200   50.6370 H   0  0  0  0  0  0  0  0  0  0  0  0
   53.0710   34.2400   50.9750 C   0  0  0  0  0  0  0  0  0  0  0  0
   52.8940   35.0660   51.6780 H   0  0  0  0  0  0  0  0  0  0  0  0
   52.0760   33.3330   50.6520 C   0  0  0  0  0  3  0  0  0  0  0  0
   52.3770   32.3090   49.7490 C   0  0  0  0  0  0  0  0  0  0  0  0
   47.1220   31.0560   46.8540 C   0  0  0  0  0  0  0  0  0  0  0  0
   48.1680   30.8150   46.7280 H   0  0  0  0  0  0  0  0  0  0  0  0
   46.5580   30.1280   46.5420 H   0  0  0  0  0  0  0  0  0  0  0  0
   46.0380   33.0210   46.1250 C   0  0  0  0  0  3  0  0  0  0  0  0
   46.8670   32.1180   45.8080 C   0  0  0  0  0  3  0  0  0  0  0  0
   44.5820   35.9470   44.4150 C   0  0  0  0  0  0  0  0  0  0  0  0
   45.2160   35.9290   43.1760 C   0  0  0  0  0  0  0  0  0  0  0  0
   46.1030   34.9320   42.9730 C   0  0  0  0  0  0  0  0  0  0  0  0
   46.3450   34.0050   43.9440 N   0  0  0  0  0  0  0  0  0  0  0  0
   45.7120   34.0520   45.1350 C   0  0  0  0  0  0  0  0  0  0  0  0
   44.8450   35.0250   45.3350 N   0  0  0  0  0  0  0  0  0  0  0  0
   43.8620   36.7400   44.6050 H   0  0  0  0  0  0  0  0  0  0  0  0
   45.0360   36.6480   42.4080 H   0  0  0  0  0  0  0  0  0  0  0  0
   46.8460   34.7820   41.7230 C   0  0  0  0  0  0  0  0  0  0  0  0
   48.0580   35.3630   41.4600 C   0  0  0  0  0  0  0  0  0  0  0  0
   48.7510   35.2140   40.2760 C   0  0  0  0  0  0  0  0  0  0  0  0
   48.2150   34.4350   39.2690 C   0  0  0  0  0  0  0  0  0  0  0  0
   47.0050   33.8290   39.4760 C   0  0  0  0  0  0  0  0  0  0  0  0
   46.3450   34.0070   40.6820 C   0  0  0  0  0  0  0  0  0  0  0  0
   48.4990   35.9860   42.2490 H   0  0  0  0  0  0  0  0  0  0  0  0
   49.7020   35.7150   40.1690 H   0  0  0  0  0  0  0  0  0  0  0  0
   48.7810   34.3390   38.3580 H   0  0  0  0  0  0  0  0  0  0  0  0
   46.5900   33.2210   38.6850 H   0  0  0  0  0  0  0  0  0  0  0  0
   45.3950   33.4970   40.7680 H   0  0  0  0  0  0  0  0  0  0  0  0
  1  4  1  1  0  0  0
  1  2  1  0  0  0  0
  1  3  1  0  0  0  0
  2  3  1  0  0  0  0
  2  6  1  0  0  0  0
  3  7  1  1  0  0  0
  5  2  1  0  0  0  0
  8 11  1  6  0  0  0
  8  3  1  0  0  0  0
  8 10  1  0  0  0  0
  8  9  1  0  0  0  0
  9 12  1  0  0  0  0
 10  9  1  0  0  0  0
 10 14  1  1  0  0  0
 13  9  1  0  0  0  0
 15 26  1  0  0  0  0
 15 10  1  0  0  0  0
 16 15  2  0  0  0  0
 17 18  2  0  0  0  0
 17 16  1  0  0  0  0
 18 19  1  0  0  0  0
 19 20  2  0  0  0  0
 19 26  1  0  0  0  0
 20 21  1  0  0  0  0
 21 22  1  0  0  0  0
 21 23  2  0  0  0  0
 23 24  1  0  0  0  0
 25 23  1  0  0  0  0
 26 25  2  0  0  0  0
 27  1  1  0  0  0  0
 28 27  1  0  0  0  0
 29 27  1  0  0  0  0
 31 30  2  0  0  0  0
 31 27  1  0  0  0  0
 32 38  1  0  0  0  0
 32 37  1  0  0  0  0
 33 32  2  0  0  0  0
 34 33  1  0  0  0  0
 34 35  2  0  0  0  0
 35 36  1  0  0  0  0
 36 37  2  0  0  0  0
 36 30  1  0  0  0  0
 39 33  1  0  0  0  0
 40 34  1  0  0  0  0
 41 40  1  0  0  0  0
 41 46  1  0  0  0  0
 42 41  2  0  0  0  0
 43 44  2  0  0  0  0
 43 42  1  0  0  0  0
 44 45  1  0  0  0  0
 45 50  1  0  0  0  0
 45 40  2  0  0  0  0
 47 42  1  0  0  0  0
 48 43  1  0  0  0  0
 49 44  1  0  0  0  0
M  END
>  <minimizedAffinity>
-7.07329035

>  <minimizedRMSD>
1.003016

$$$$
