
 OpenBabel03252507433D

 34 37  0  0  0  0  0  0  0  0999 V2000
   44.2380   34.4870   41.1360 C   0  0  0  0  0  0  0  0  0  0  0  0
   43.7820   35.7340   41.6630 C   0  0  0  0  0  0  0  0  0  0  0  0
   41.9400   35.4760   41.7050 S   0  0  0  0  0  0  0  0  0  0  0  0
   42.1350   33.7380   41.0040 C   0  0  0  0  0  0  0  0  0  0  0  0
   43.2640   33.6580   40.8840 N   0  0  0  0  0  0  0  0  0  0  0  0
   44.3880   36.5800   41.9490 H   0  0  0  0  0  0  0  0  0  0  0  0
   40.8430   33.0560   40.8350 C   0  0  0  0  0  0  0  0  0  0  0  0
   40.3000   32.1510   41.6680 N   0  0  0  0  0  0  0  0  0  0  0  0
   39.1200   31.5690   41.4540 C   0  0  0  0  0  3  0  0  0  0  0  0
   38.3770   31.8500   40.3720 N   0  0  0  0  0  0  0  0  0  0  0  0
   38.8290   32.7350   39.4840 C   0  0  0  0  0  0  0  0  0  0  0  0
   38.0710   33.0290   38.3710 C   0  0  0  0  0  3  0  0  0  0  0  0
   38.5490   33.9560   37.4450 C   0  0  0  0  0  0  0  0  0  0  0  0
   37.9200   34.1550   36.5880 H   0  0  0  0  0  0  0  0  0  0  0  0
   39.7800   34.5370   37.7070 C   0  0  0  0  0  0  0  0  0  0  0  0
   40.0410   35.2410   36.9120 H   0  0  0  0  0  0  0  0  0  0  0  0
   40.5180   34.2280   38.8250 C   0  0  0  0  0  3  0  0  0  0  0  0
   40.0530   33.3140   39.7420 C   0  0  0  0  0  0  0  0  0  0  0  0
   45.6820   34.2430   40.9320 C   0  0  0  0  0  0  0  0  0  0  0  0
   46.0550   33.7270   41.8640 H   0  0  0  0  0  0  0  0  0  0  0  0
   46.2470   35.1980   40.8910 H   0  0  0  0  0  0  0  0  0  0  0  0
   46.0320   33.3930   39.7700 C   0  0  0  0  0  0  0  0  0  0  0  0
   45.2820   32.6320   39.5750 H   0  0  0  0  0  0  0  0  0  0  0  0
   46.0040   34.0700   38.8630 H   0  0  0  0  0  0  0  0  0  0  0  0
   47.4080   32.8520   39.8080 C   0  0  0  0  0  0  0  0  0  0  0  0
   48.0380   32.6840   38.5550 C   0  0  0  0  0  0  0  0  0  0  0  0
   49.3280   32.1850   38.5050 C   0  0  0  0  0  0  0  0  0  0  0  0
   49.9380   31.8750   39.6930 N   0  0  0  0  0  0  0  0  0  0  0  0
   49.2960   32.0510   40.8690 C   0  0  0  0  0  0  0  0  0  0  0  0
   48.0580   32.5300   40.9170 N   0  0  0  0  0  0  0  0  0  0  0  0
   49.8140   32.0540   37.5600 H   0  0  0  0  0  0  0  0  0  0  0  0
   49.8410   31.7830   41.7800 H   0  0  0  0  0  0  0  0  0  0  0  0
   47.1760   33.1090   37.0420 S   0  0  0  0  0  0  0  0  0  0  0  0
   46.2920   32.0250   36.7640 H   0  0  0  0  0  0  0  0  0  0  0  0
  1  2  2  0  0  0  0
  2  3  1  0  0  0  0
  2  6  1  0  0  0  0
  4  3  1  0  0  0  0
  5  4  2  0  0  0  0
  5  1  1  0  0  0  0
  7  4  1  0  0  0  0
  7  8  1  0  0  0  0
  9  8  2  0  0  0  0
 10  9  1  0  0  0  0
 11 18  1  0  0  0  0
 11 10  2  0  0  0  0
 12 11  1  0  0  0  0
 13 15  1  0  0  0  0
 13 12  2  0  0  0  0
 14 13  1  0  0  0  0
 15 17  2  0  0  0  0
 16 15  1  0  0  0  0
 17 18  1  0  0  0  0
 18  7  2  0  0  0  0
 19  1  1  0  0  0  0
 19 20  1  0  0  0  0
 21 19  1  0  0  0  0
 22 25  1  0  0  0  0
 22 19  1  0  0  0  0
 23 22  1  0  0  0  0
 24 22  1  0  0  0  0
 25 30  1  0  0  0  0
 26 25  2  0  0  0  0
 27 26  1  0  0  0  0
 27 28  2  0  0  0  0
 28 29  1  0  0  0  0
 29 30  2  0  0  0  0
 29 32  1  0  0  0  0
 31 27  1  0  0  0  0
 33 26  1  0  0  0  0
 34 33  1  0  0  0  0
M  END
>  <minimizedAffinity>
-5.41680431

>  <minimizedRMSD>
3.02968812

$$$$
