
 OpenBabel03242518373D

 38 42  0  0  1  0  0  0  0  0999 V2000
   39.0680   30.9030   40.9040 C   0  0  0  0  0  0  0  0  0  0  0  0
   40.2040   30.2180   41.3310 C   0  0  0  0  0  0  0  0  0  0  0  0
   39.8530   29.3720   42.3670 C   0  0  0  0  0  0  0  0  0  0  0  0
   38.5080   29.5820   42.5250 C   0  0  0  0  0  0  0  0  0  0  0  0
   38.0680   30.4800   41.6640 O   0  0  0  0  0  0  0  0  0  0  0  0
   41.1720   30.3810   40.8690 H   0  0  0  0  0  0  0  0  0  0  0  0
   40.5330   28.7120   42.8960 H   0  0  0  0  0  0  0  0  0  0  0  0
   37.6640   28.8990   43.5180 C   0  0  2  0  0  0  0  0  0  0  0  0
   37.9590   27.5010   43.8870 C   0  0  0  0  0  0  0  0  0  0  0  0
   36.8310   27.7380   42.9270 C   0  0  2  0  0  0  0  0  0  0  0  0
   37.0680   29.5690   44.1820 H   0  0  0  0  0  0  0  0  0  0  0  0
   38.8980   27.0960   43.4040 H   0  0  0  0  0  0  0  0  0  0  0  0
   37.7680   27.1840   44.9110 H   0  0  0  0  0  0  0  0  0  0  0  0
   35.8390   27.5820   43.3940 H   0  0  0  0  0  0  0  0  0  0  0  0
   37.0060   27.4130   41.5000 C   0  0  0  0  0  0  0  0  0  0  0  0
   38.0040   26.4960   41.3250 N   0  0  0  0  0  0  0  0  0  0  0  0
   38.3090   26.0190   40.1010 C   0  0  0  0  0  3  0  0  0  0  0  0
   37.6140   26.4520   39.0090 N   0  0  0  0  0  0  0  0  0  0  0  0
   36.6240   27.3540   39.1370 C   0  0  0  0  0  0  0  0  0  0  0  0
   35.8710   27.8640   38.1020 C   0  0  0  0  0  3  0  0  0  0  0  0
   34.8730   28.8090   38.3370 C   0  0  0  0  0  0  0  0  0  0  0  0
   34.2920   29.1970   37.5070 H   0  0  0  0  0  0  0  0  0  0  0  0
   34.5970   29.2740   39.6220 C   0  0  0  0  0  0  0  0  0  0  0  0
   33.8190   30.0050   39.7640 H   0  0  0  0  0  0  0  0  0  0  0  0
   35.3590   28.7540   40.6560 C   0  0  0  0  0  3  0  0  0  0  0  0
   36.3320   27.8270   40.3970 C   0  0  0  0  0  0  0  0  0  0  0  0
   38.8810   31.8680   39.8920 O   0  0  0  0  0  0  0  0  0  0  0  0
   39.4890   33.1370   40.0240 C   0  0  0  0  0  0  0  0  0  0  0  0
   39.0430   33.8720   40.9400 O   0  0  0  0  0  0  0  0  0  0  0  0
   40.5360   33.4270   39.0990 C   0  0  0  0  0  0  0  0  0  0  0  0
   40.7420   32.4630   38.1520 C   0  0  0  0  0  0  0  0  0  0  0  0
   41.7500   32.6730   37.2110 C   0  0  0  0  0  0  0  0  0  0  0  0
   42.4700   33.8190   37.2850 N   0  0  0  0  0  0  0  0  0  0  0  0
   42.2350   34.7340   38.2280 C   0  0  0  0  0  0  0  0  0  0  0  0
   41.2640   34.5260   39.1310 N   0  0  0  0  0  0  0  0  0  0  0  0
   40.2190   31.5060   38.0050 H   0  0  0  0  0  0  0  0  0  0  0  0
   41.9790   31.9630   36.4280 H   0  0  0  0  0  0  0  0  0  0  0  0
   42.8390   35.6430   38.2510 H   0  0  0  0  0  0  0  0  0  0  0  0
  1  2  2  0  0  0  0
  1  5  1  0  0  0  0
  2  3  1  0  0  0  0
  3  4  2  0  0  0  0
  3  7  1  0  0  0  0
  4  8  1  0  0  0  0
  5  4  1  0  0  0  0
  6  2  1  0  0  0  0
  8  9  1  0  0  0  0
  8 11  1  1  0  0  0
  9 13  1  0  0  0  0
 10 14  1  1  0  0  0
 10  8  1  0  0  0  0
 10  9  1  0  0  0  0
 12  9  1  0  0  0  0
 15 10  1  0  0  0  0
 16 15  1  0  0  0  0
 17 16  2  0  0  0  0
 18 19  2  0  0  0  0
 18 17  1  0  0  0  0
 19 26  1  0  0  0  0
 20 21  2  0  0  0  0
 20 19  1  0  0  0  0
 21 23  1  0  0  0  0
 22 21  1  0  0  0  0
 23 24  1  0  0  0  0
 23 25  2  0  0  0  0
 26 25  1  0  0  0  0
 26 15  2  0  0  0  0
 27 28  1  0  0  0  0
 27  1  1  0  0  0  0
 28 29  2  0  0  0  0
 30 35  1  0  0  0  0
 30 28  1  0  0  0  0
 31 30  2  0  0  0  0
 32 33  2  0  0  0  0
 32 31  1  0  0  0  0
 33 34  1  0  0  0  0
 34 38  1  0  0  0  0
 34 35  2  0  0  0  0
 36 31  1  0  0  0  0
 37 32  1  0  0  0  0
M  END
>  <minimizedAffinity>
-6.34631538

$$$$

 OpenBabel03242518373D

 38 42  0  0  1  0  0  0  0  0999 V2000
   36.5010   27.9290   40.7310 C   0  0  0  0  0  0  0  0  0  0  0  0
   35.6940   29.0280   41.0220 C   0  0  0  0  0  0  0  0  0  0  0  0
   35.3990   29.6910   39.8450 C   0  0  0  0  0  0  0  0  0  0  0  0
   36.0450   28.9600   38.8820 C   0  0  0  0  0  0  0  0  0  0  0  0
   36.6840   27.9380   39.4180 O   0  0  0  0  0  0  0  0  0  0  0  0
   35.3900   29.2540   42.0380 H   0  0  0  0  0  0  0  0  0  0  0  0
   34.7870   30.5840   39.7640 H   0  0  0  0  0  0  0  0  0  0  0  0
   36.0300   29.2700   37.4440 C   0  0  2  0  0  0  0  0  0  0  0  0
   37.0760   28.7100   36.5670 C   0  0  0  0  0  0  0  0  0  0  0  0
   37.2200   30.1420   36.9860 C   0  0  2  0  0  0  0  0  0  0  0  0
   35.0500   29.6210   37.0420 H   0  0  0  0  0  0  0  0  0  0  0  0
   37.7780   28.0010   37.0980 H   0  0  0  0  0  0  0  0  0  0  0  0
   36.8080   28.4480   35.5440 H   0  0  0  0  0  0  0  0  0  0  0  0
   37.0000   30.8490   36.1620 H   0  0  0  0  0  0  0  0  0  0  0  0
   38.2370   30.5110   37.9870 C   0  0  0  0  0  0  0  0  0  0  0  0
   39.2380   29.5810   38.0350 N   0  0  0  0  0  0  0  0  0  0  0  0
   40.3000   29.7370   38.8510 C   0  0  0  0  0  3  0  0  0  0  0  0
   40.3880   30.8410   39.6500 N   0  0  0  0  0  0  0  0  0  0  0  0
   39.4250   31.7800   39.6340 C   0  0  0  0  0  0  0  0  0  0  0  0
   39.4120   32.9220   40.4060 C   0  0  0  0  0  3  0  0  0  0  0  0
   38.3570   33.8310   40.3270 C   0  0  0  0  0  0  0  0  0  0  0  0
   38.3680   34.7220   40.9430 H   0  0  0  0  0  0  0  0  0  0  0  0
   37.2790   33.6230   39.4680 C   0  0  0  0  0  0  0  0  0  0  0  0
   36.4830   34.3470   39.4350 H   0  0  0  0  0  0  0  0  0  0  0  0
   37.3020   32.4720   38.6950 C   0  0  0  0  0  3  0  0  0  0  0  0
   38.3510   31.5980   38.7930 C   0  0  0  0  0  0  0  0  0  0  0  0
   37.0710   26.9400   41.5590 O   0  0  0  0  0  0  0  0  0  0  0  0
   37.4710   27.2810   42.8710 C   0  0  0  0  0  0  0  0  0  0  0  0
   36.5610   27.3120   43.7360 O   0  0  0  0  0  0  0  0  0  0  0  0
   38.8610   27.5480   43.0510 C   0  0  0  0  0  0  0  0  0  0  0  0
   39.5260   26.6200   43.8040 C   0  0  0  0  0  0  0  0  0  0  0  0
   40.8890   26.8110   44.0250 C   0  0  0  0  0  0  0  0  0  0  0  0
   41.4820   27.9030   43.4840 N   0  0  0  0  0  0  0  0  0  0  0  0
   40.7940   28.7850   42.7550 C   0  0  0  0  0  0  0  0  0  0  0  0
   39.4810   28.5960   42.5460 N   0  0  0  0  0  0  0  0  0  0  0  0
   39.1430   25.7070   44.2840 H   0  0  0  0  0  0  0  0  0  0  0  0
   41.4910   26.1270   44.6080 H   0  0  0  0  0  0  0  0  0  0  0  0
   41.3110   29.6520   42.3380 H   0  0  0  0  0  0  0  0  0  0  0  0
  1  2  2  0  0  0  0
  1 27  1  0  0  0  0
  2  6  1  0  0  0  0
  3  2  1  0  0  0  0
  4  5  1  0  0  0  0
  4  3  2  0  0  0  0
  5  1  1  0  0  0  0
  7  3  1  0  0  0  0
  8 11  1  6  0  0  0
  8  4  1  0  0  0  0
  9 10  1  0  0  0  0
  9 12  1  0  0  0  0
  9  8  1  0  0  0  0
 10 14  1  6  0  0  0
 10  8  1  0  0  0  0
 10 15  1  0  0  0  0
 13  9  1  0  0  0  0
 15 16  2  0  0  0  0
 15 26  1  0  0  0  0
 16 17  1  0  0  0  0
 17 18  2  0  0  0  0
 19 18  1  0  0  0  0
 19 20  1  0  0  0  0
 21 20  2  0  0  0  0
 21 22  1  0  0  0  0
 23 21  1  0  0  0  0
 24 23  1  0  0  0  0
 25 26  1  0  0  0  0
 25 23  2  0  0  0  0
 26 19  2  0  0  0  0
 27 28  1  0  0  0  0
 28 30  1  0  0  0  0
 28 29  2  0  0  0  0
 30 31  1  0  0  0  0
 31 32  2  0  0  0  0
 31 36  1  0  0  0  0
 32 37  1  0  0  0  0
 33 32  1  0  0  0  0
 34 33  2  0  0  0  0
 35 34  1  0  0  0  0
 35 30  2  0  0  0  0
 38 34  1  0  0  0  0
M  END
>  <minimizedAffinity>
-6.14757395

$$$$

 OpenBabel03242518373D

 38 42  0  0  1  0  0  0  0  0999 V2000
   37.3940   29.2020   39.2100 C   0  0  0  0  0  0  0  0  0  0  0  0
   36.1700   28.5570   39.3760 C   0  0  0  0  0  0  0  0  0  0  0  0
   35.9510   28.3520   40.7260 C   0  0  0  0  0  0  0  0  0  0  0  0
   37.0620   28.8860   41.3260 C   0  0  0  0  0  0  0  0  0  0  0  0
   37.8930   29.3760   40.4260 O   0  0  0  0  0  0  0  0  0  0  0  0
   35.5480   28.2940   38.5270 H   0  0  0  0  0  0  0  0  0  0  0  0
   35.0780   27.8710   41.1540 H   0  0  0  0  0  0  0  0  0  0  0  0
   37.2980   28.9150   42.7780 C   0  0  2  0  0  0  0  0  0  0  0  0
   38.6300   29.2870   43.2930 C   0  0  0  0  0  0  0  0  0  0  0  0
   38.2840   27.8280   43.2650 C   0  0  2  0  0  0  0  0  0  0  0  0
   36.3810   28.9880   43.4100 H   0  0  0  0  0  0  0  0  0  0  0  0
   39.3530   29.6040   42.4840 H   0  0  0  0  0  0  0  0  0  0  0  0
   38.6880   29.8330   44.2330 H   0  0  0  0  0  0  0  0  0  0  0  0
   38.0800   27.4230   44.2750 H   0  0  0  0  0  0  0  0  0  0  0  0
   38.9030   26.9500   42.2570 C   0  0  0  0  0  0  0  0  0  0  0  0
   40.1240   27.4290   41.8730 N   0  0  0  0  0  0  0  0  0  0  0  0
   40.8920   26.7600   40.9890 C   0  0  0  0  0  3  0  0  0  0  0  0
   40.4520   25.5800   40.4610 N   0  0  0  0  0  0  0  0  0  0  0  0
   39.2560   25.0730   40.8110 C   0  0  0  0  0  0  0  0  0  0  0  0
   38.7150   23.9010   40.3300 C   0  0  0  0  0  3  0  0  0  0  0  0
   37.4570   23.4660   40.7470 C   0  0  0  0  0  0  0  0  0  0  0  0
   37.0510   22.5400   40.3550 H   0  0  0  0  0  0  0  0  0  0  0  0
   36.7000   24.1950   41.6620 C   0  0  0  0  0  0  0  0  0  0  0  0
   35.7330   23.8280   41.9590 H   0  0  0  0  0  0  0  0  0  0  0  0
   37.2530   25.3720   42.1410 C   0  0  0  0  0  3  0  0  0  0  0  0
   38.4910   25.7750   41.7150 C   0  0  0  0  0  0  0  0  0  0  0  0
   38.0750   29.6350   38.0530 O   0  0  0  0  0  0  0  0  0  0  0  0
   37.8580   30.9460   37.5710 C   0  0  0  0  0  0  0  0  0  0  0  0
   37.3030   31.0370   36.4480 O   0  0  0  0  0  0  0  0  0  0  0  0
   38.2950   32.0050   38.4210 C   0  0  0  0  0  0  0  0  0  0  0  0
   37.2870   32.7440   38.9750 C   0  0  0  0  0  0  0  0  0  0  0  0
   37.6350   33.7980   39.8190 C   0  0  0  0  0  0  0  0  0  0  0  0
   38.9500   34.0340   40.0450 N   0  0  0  0  0  0  0  0  0  0  0  0
   39.9030   33.2880   39.4820 C   0  0  0  0  0  0  0  0  0  0  0  0
   39.5620   32.2740   38.6700 N   0  0  0  0  0  0  0  0  0  0  0  0
   36.1980   32.6360   38.8590 H   0  0  0  0  0  0  0  0  0  0  0  0
   36.9010   34.4320   40.2990 H   0  0  0  0  0  0  0  0  0  0  0  0
   40.9500   33.5130   39.6910 H   0  0  0  0  0  0  0  0  0  0  0  0
  1  2  2  0  0  0  0
  1  5  1  0  0  0  0
  2  3  1  0  0  0  0
  3  7  1  0  0  0  0
  3  4  2  0  0  0  0
  4  8  1  0  0  0  0
  5  4  1  0  0  0  0
  6  2  1  0  0  0  0
  8 10  1  0  0  0  0
  8  9  1  0  0  0  0
  8 11  1  1  0  0  0
  9 13  1  0  0  0  0
 10  9  1  0  0  0  0
 10 14  1  1  0  0  0
 12  9  1  0  0  0  0
 15 10  1  0  0  0  0
 16 15  1  0  0  0  0
 17 16  2  0  0  0  0
 18 19  2  0  0  0  0
 18 17  1  0  0  0  0
 19 26  1  0  0  0  0
 20 21  2  0  0  0  0
 20 19  1  0  0  0  0
 21 23  1  0  0  0  0
 22 21  1  0  0  0  0
 23 24  1  0  0  0  0
 23 25  2  0  0  0  0
 26 25  1  0  0  0  0
 26 15  2  0  0  0  0
 27  1  1  0  0  0  0
 28 27  1  0  0  0  0
 28 30  1  0  0  0  0
 29 28  2  0  0  0  0
 30 35  2  0  0  0  0
 30 31  1  0  0  0  0
 31 32  2  0  0  0  0
 32 33  1  0  0  0  0
 32 37  1  0  0  0  0
 34 38  1  0  0  0  0
 34 33  2  0  0  0  0
 35 34  1  0  0  0  0
 36 31  1  0  0  0  0
M  END
>  <minimizedAffinity>
-6.02170658

$$$$

 OpenBabel03242518373D

 38 42  0  0  1  0  0  0  0  0999 V2000
   38.1960   28.6720   41.5290 C   0  0  0  0  0  0  0  0  0  0  0  0
   37.4000   29.6350   42.1470 C   0  0  0  0  0  0  0  0  0  0  0  0
   36.4880   30.1200   41.2280 C   0  0  0  0  0  0  0  0  0  0  0  0
   36.7730   29.4240   40.0810 C   0  0  0  0  0  0  0  0  0  0  0  0
   37.7730   28.5860   40.2760 O   0  0  0  0  0  0  0  0  0  0  0  0
   37.5390   29.9010   43.1900 H   0  0  0  0  0  0  0  0  0  0  0  0
   35.7390   30.8790   41.4270 H   0  0  0  0  0  0  0  0  0  0  0  0
   36.0610   29.5860   38.8050 C   0  0  2  0  0  0  0  0  0  0  0  0
   36.6320   29.0080   37.5730 C   0  0  0  0  0  0  0  0  0  0  0  0
   36.8070   30.4820   37.7890 C   0  0  2  0  0  0  0  0  0  0  0  0
   34.9760   29.8330   38.8900 H   0  0  0  0  0  0  0  0  0  0  0  0
   37.5690   28.4010   37.7520 H   0  0  0  0  0  0  0  0  0  0  0  0
   35.9490   28.6290   36.8140 H   0  0  0  0  0  0  0  0  0  0  0  0
   36.1580   31.0860   37.1260 H   0  0  0  0  0  0  0  0  0  0  0  0
   38.1280   31.0120   38.1700 C   0  0  0  0  0  0  0  0  0  0  0  0
   39.1290   30.1860   37.7430 N   0  0  0  0  0  0  0  0  0  0  0  0
   40.4260   30.4970   37.9430 C   0  0  0  0  0  3  0  0  0  0  0  0
   40.7570   31.6560   38.5830 N   0  0  0  0  0  0  0  0  0  0  0  0
   39.8030   32.4970   39.0200 C   0  0  0  0  0  0  0  0  0  0  0  0
   40.0280   33.6830   39.6850 C   0  0  0  0  0  3  0  0  0  0  0  0
   38.9670   34.4820   40.1110 C   0  0  0  0  0  0  0  0  0  0  0  0
   39.1670   35.4100   40.6330 H   0  0  0  0  0  0  0  0  0  0  0  0
   37.6410   34.1150   39.8820 C   0  0  0  0  0  0  0  0  0  0  0  0
   36.8490   34.7570   40.2260 H   0  0  0  0  0  0  0  0  0  0  0  0
   37.4250   32.9210   39.2120 C   0  0  0  0  0  3  0  0  0  0  0  0
   38.4860   32.1570   38.8040 C   0  0  0  0  0  0  0  0  0  0  0  0
   39.2590   27.8830   42.0160 O   0  0  0  0  0  0  0  0  0  0  0  0
   38.9730   26.7390   42.7940 C   0  0  0  0  0  0  0  0  0  0  0  0
   39.1340   26.8580   44.0340 O   0  0  0  0  0  0  0  0  0  0  0  0
   38.5350   25.5870   42.0740 C   0  0  0  0  0  0  0  0  0  0  0  0
   37.2000   25.3160   42.1920 C   0  0  0  0  0  0  0  0  0  0  0  0
   36.6950   24.2050   41.5170 C   0  0  0  0  0  0  0  0  0  0  0  0
   37.5510   23.4550   40.7810 N   0  0  0  0  0  0  0  0  0  0  0  0
   38.8490   23.7570   40.6940 C   0  0  0  0  0  0  0  0  0  0  0  0
   39.3290   24.8270   41.3460 N   0  0  0  0  0  0  0  0  0  0  0  0
   36.4260   25.8550   42.7580 H   0  0  0  0  0  0  0  0  0  0  0  0
   35.6530   23.9190   41.5560 H   0  0  0  0  0  0  0  0  0  0  0  0
   39.5040   23.1250   40.0900 H   0  0  0  0  0  0  0  0  0  0  0  0
  1 27  1  0  0  0  0
  1  2  2  0  0  0  0
  2  6  1  0  0  0  0
  3  7  1  0  0  0  0
  3  2  1  0  0  0  0
  4  5  1  0  0  0  0
  4  3  2  0  0  0  0
  5  1  1  0  0  0  0
  8 11  1  1  0  0  0
  8  4  1  0  0  0  0
  9 12  1  0  0  0  0
  9 10  1  0  0  0  0
  9  8  1  0  0  0  0
 10 14  1  6  0  0  0
 10 15  1  0  0  0  0
 10  8  1  0  0  0  0
 13  9  1  0  0  0  0
 15 26  1  0  0  0  0
 16 17  1  0  0  0  0
 16 15  2  0  0  0  0
 17 18  2  0  0  0  0
 18 19  1  0  0  0  0
 19 20  1  0  0  0  0
 20 21  2  0  0  0  0
 21 22  1  0  0  0  0
 23 21  1  0  0  0  0
 23 24  1  0  0  0  0
 25 23  2  0  0  0  0
 26 19  2  0  0  0  0
 26 25  1  0  0  0  0
 27 28  1  0  0  0  0
 28 29  2  0  0  0  0
 30 31  1  0  0  0  0
 30 28  1  0  0  0  0
 31 36  1  0  0  0  0
 32 37  1  0  0  0  0
 32 31  2  0  0  0  0
 33 32  1  0  0  0  0
 34 33  2  0  0  0  0
 34 35  1  0  0  0  0
 35 30  2  0  0  0  0
 38 34  1  0  0  0  0
M  END
>  <minimizedAffinity>
-5.99773645

$$$$

 OpenBabel03242518373D

 38 42  0  0  1  0  0  0  0  0999 V2000
   39.1520   29.9230   40.6780 C   0  0  0  0  0  0  0  0  0  0  0  0
   39.7650   30.2350   41.8900 C   0  0  0  0  0  0  0  0  0  0  0  0
   38.9740   29.7690   42.9240 C   0  0  0  0  0  0  0  0  0  0  0  0
   37.9060   29.1890   42.2890 C   0  0  0  0  0  0  0  0  0  0  0  0
   38.0270   29.2900   40.9790 O   0  0  0  0  0  0  0  0  0  0  0  0
   40.7130   30.7610   41.9280 H   0  0  0  0  0  0  0  0  0  0  0  0
   39.2000   29.8670   43.9810 H   0  0  0  0  0  0  0  0  0  0  0  0
   36.7780   28.5380   42.9720 C   0  0  2  0  0  0  0  0  0  0  0  0
   36.9760   27.9520   44.3110 C   0  0  0  0  0  0  0  0  0  0  0  0
   36.9550   27.0130   43.1430 C   0  0  2  0  0  0  0  0  0  0  0  0
   35.7650   28.8210   42.5970 H   0  0  0  0  0  0  0  0  0  0  0  0
   38.0070   28.1370   44.7360 H   0  0  0  0  0  0  0  0  0  0  0  0
   36.1490   27.9870   45.0190 H   0  0  0  0  0  0  0  0  0  0  0  0
   36.0210   26.4190   43.0940 H   0  0  0  0  0  0  0  0  0  0  0  0
   38.2120   26.4020   42.6740 C   0  0  0  0  0  0  0  0  0  0  0  0
   39.1580   26.4100   43.6600 N   0  0  0  0  0  0  0  0  0  0  0  0
   40.3750   25.8610   43.4660 C   0  0  0  0  0  3  0  0  0  0  0  0
   40.6780   25.2830   42.2680 N   0  0  0  0  0  0  0  0  0  0  0  0
   39.7760   25.2540   41.2700 C   0  0  0  0  0  0  0  0  0  0  0  0
   39.9840   24.7070   40.0220 C   0  0  0  0  0  3  0  0  0  0  0  0
   38.9860   24.7390   39.0480 C   0  0  0  0  0  0  0  0  0  0  0  0
   39.1710   24.3030   38.0730 H   0  0  0  0  0  0  0  0  0  0  0  0
   37.7430   25.3210   39.2970 C   0  0  0  0  0  0  0  0  0  0  0  0
   36.9980   25.3280   38.5190 H   0  0  0  0  0  0  0  0  0  0  0  0
   37.5440   25.8670   40.5550 C   0  0  0  0  0  3  0  0  0  0  0  0
   38.5410   25.8210   41.4920 C   0  0  0  0  0  0  0  0  0  0  0  0
   39.5380   30.1700   39.3430 O   0  0  0  0  0  0  0  0  0  0  0  0
   38.9430   31.2390   38.6360 C   0  0  0  0  0  0  0  0  0  0  0  0
   38.2530   30.9240   37.6350 O   0  0  0  0  0  0  0  0  0  0  0  0
   39.2000   32.5460   39.1490 C   0  0  0  0  0  0  0  0  0  0  0  0
   40.4760   32.9950   38.9480 C   0  0  0  0  0  0  0  0  0  0  0  0
   40.8050   34.2650   39.4210 C   0  0  0  0  0  0  0  0  0  0  0  0
   39.8470   34.9840   40.0530 N   0  0  0  0  0  0  0  0  0  0  0  0
   38.6130   34.5070   40.2280 C   0  0  0  0  0  0  0  0  0  0  0  0
   38.3010   33.2830   39.7710 N   0  0  0  0  0  0  0  0  0  0  0  0
   41.3210   32.4950   38.4520 H   0  0  0  0  0  0  0  0  0  0  0  0
   41.7900   34.6970   39.3050 H   0  0  0  0  0  0  0  0  0  0  0  0
   37.8710   35.1200   40.7430 H   0  0  0  0  0  0  0  0  0  0  0  0
  1  5  1  0  0  0  0
  1  2  2  0  0  0  0
  2  6  1  0  0  0  0
  2  3  1  0  0  0  0
  3  7  1  0  0  0  0
  4  3  2  0  0  0  0
  4  8  1  0  0  0  0
  5  4  1  0  0  0  0
  8 11  1  6  0  0  0
  8 10  1  0  0  0  0
  8  9  1  0  0  0  0
  9 12  1  0  0  0  0
  9 13  1  0  0  0  0
 10 14  1  6  0  0  0
 10  9  1  0  0  0  0
 15 10  1  0  0  0  0
 15 16  1  0  0  0  0
 17 16  2  0  0  0  0
 18 17  1  0  0  0  0
 19 26  1  0  0  0  0
 19 18  2  0  0  0  0
 20 19  1  0  0  0  0
 21 23  1  0  0  0  0
 21 20  2  0  0  0  0
 22 21  1  0  0  0  0
 23 25  2  0  0  0  0
 24 23  1  0  0  0  0
 25 26  1  0  0  0  0
 26 15  2  0  0  0  0
 27  1  1  0  0  0  0
 28 30  1  0  0  0  0
 28 27  1  0  0  0  0
 29 28  2  0  0  0  0
 30 35  1  0  0  0  0
 31 30  2  0  0  0  0
 31 32  1  0  0  0  0
 32 33  2  0  0  0  0
 33 34  1  0  0  0  0
 34 38  1  0  0  0  0
 35 34  2  0  0  0  0
 36 31  1  0  0  0  0
 37 32  1  0  0  0  0
M  END
>  <minimizedAffinity>
-5.93004274

$$$$

 OpenBabel03242518373D

 38 42  0  0  1  0  0  0  0  0999 V2000
   40.2560   29.5990   42.3220 C   0  0  0  0  0  0  0  0  0  0  0  0
   40.6660   28.3320   42.7350 C   0  0  0  0  0  0  0  0  0  0  0  0
   39.5890   27.6740   43.2990 C   0  0  0  0  0  0  0  0  0  0  0  0
   38.5620   28.5780   43.2040 C   0  0  0  0  0  0  0  0  0  0  0  0
   38.9710   29.6940   42.6320 O   0  0  0  0  0  0  0  0  0  0  0  0
   41.6880   27.9940   42.5960 H   0  0  0  0  0  0  0  0  0  0  0  0
   39.6120   26.6690   43.7080 H   0  0  0  0  0  0  0  0  0  0  0  0
   37.1890   28.3370   43.6710 C   0  0  2  0  0  0  0  0  0  0  0  0
   36.6260   26.9740   43.6120 C   0  0  0  0  0  0  0  0  0  0  0  0
   36.2120   27.9390   42.5420 C   0  0  2  0  0  0  0  0  0  0  0  0
   36.7730   29.1160   44.3540 H   0  0  0  0  0  0  0  0  0  0  0  0
   37.3690   26.1950   43.2670 H   0  0  0  0  0  0  0  0  0  0  0  0
   35.9310   26.6660   44.3910 H   0  0  0  0  0  0  0  0  0  0  0  0
   35.1700   28.2920   42.6700 H   0  0  0  0  0  0  0  0  0  0  0  0
   36.7500   27.7930   41.1770 C   0  0  0  0  0  0  0  0  0  0  0  0
   37.1660   26.5100   40.9500 N   0  0  0  0  0  0  0  0  0  0  0  0
   37.6540   26.1360   39.7500 C   0  0  0  0  0  3  0  0  0  0  0  0
   37.7390   27.0450   38.7350 N   0  0  0  0  0  0  0  0  0  0  0  0
   37.3410   28.3180   38.9170 C   0  0  0  0  0  0  0  0  0  0  0  0
   37.3950   29.3140   37.9660 C   0  0  0  0  0  3  0  0  0  0  0  0
   36.9700   30.6090   38.2570 C   0  0  0  0  0  0  0  0  0  0  0  0
   37.0210   31.3770   37.4940 H   0  0  0  0  0  0  0  0  0  0  0  0
   36.4740   30.9480   39.5160 C   0  0  0  0  0  0  0  0  0  0  0  0
   36.1550   31.9590   39.7040 H   0  0  0  0  0  0  0  0  0  0  0  0
   36.4230   29.9390   40.4650 C   0  0  0  0  0  3  0  0  0  0  0  0
   36.8470   28.6760   40.1510 C   0  0  0  0  0  0  0  0  0  0  0  0
   40.9550   30.6520   41.6950 O   0  0  0  0  0  0  0  0  0  0  0  0
   40.5510   31.0840   40.4120 C   0  0  0  0  0  0  0  0  0  0  0  0
   40.4340   30.1890   39.5380 O   0  0  0  0  0  0  0  0  0  0  0  0
   40.3250   32.4860   40.2670 C   0  0  0  0  0  0  0  0  0  0  0  0
   39.1320   32.9240   40.7710 C   0  0  0  0  0  0  0  0  0  0  0  0
   38.8370   34.2830   40.6680 C   0  0  0  0  0  0  0  0  0  0  0  0
   39.7460   35.0950   40.0750 N   0  0  0  0  0  0  0  0  0  0  0  0
   40.8990   34.6240   39.5960 C   0  0  0  0  0  0  0  0  0  0  0  0
   41.1770   33.3150   39.6980 N   0  0  0  0  0  0  0  0  0  0  0  0
   38.3320   32.3540   41.2670 H   0  0  0  0  0  0  0  0  0  0  0  0
   37.9170   34.7140   41.0400 H   0  0  0  0  0  0  0  0  0  0  0  0
   41.6030   35.3130   39.1250 H   0  0  0  0  0  0  0  0  0  0  0  0
  1  5  1  0  0  0  0
  1  2  2  0  0  0  0
  2  3  1  0  0  0  0
  3  7  1  0  0  0  0
  4  3  2  0  0  0  0
  4  8  1  0  0  0  0
  5  4  1  0  0  0  0
  6  2  1  0  0  0  0
  8 11  1  1  0  0  0
  9  8  1  0  0  0  0
  9 13  1  0  0  0  0
 10 14  1  1  0  0  0
 10  9  1  0  0  0  0
 10  8  1  0  0  0  0
 12  9  1  0  0  0  0
 15 10  1  0  0  0  0
 16 15  1  0  0  0  0
 17 16  2  0  0  0  0
 18 19  2  0  0  0  0
 18 17  1  0  0  0  0
 19 26  1  0  0  0  0
 20 21  2  0  0  0  0
 20 19  1  0  0  0  0
 21 23  1  0  0  0  0
 22 21  1  0  0  0  0
 23 24  1  0  0  0  0
 23 25  2  0  0  0  0
 26 25  1  0  0  0  0
 26 15  2  0  0  0  0
 27  1  1  0  0  0  0
 28 27  1  0  0  0  0
 29 28  2  0  0  0  0
 30 28  1  0  0  0  0
 30 31  1  0  0  0  0
 31 36  1  0  0  0  0
 32 31  2  0  0  0  0
 32 37  1  0  0  0  0
 33 32  1  0  0  0  0
 34 35  1  0  0  0  0
 34 33  2  0  0  0  0
 35 30  2  0  0  0  0
 38 34  1  0  0  0  0
M  END
>  <minimizedAffinity>
-5.92746449

$$$$

 OpenBabel03242518373D

 38 42  0  0  1  0  0  0  0  0999 V2000
   40.7090   29.1360   42.4060 C   0  0  0  0  0  0  0  0  0  0  0  0
   40.8170   27.9010   43.0450 C   0  0  0  0  0  0  0  0  0  0  0  0
   39.5660   27.5190   43.4930 C   0  0  0  0  0  0  0  0  0  0  0  0
   38.7460   28.5460   43.1030 C   0  0  0  0  0  0  0  0  0  0  0  0
   39.4310   29.4810   42.4730 O   0  0  0  0  0  0  0  0  0  0  0  0
   41.7690   27.3890   43.1320 H   0  0  0  0  0  0  0  0  0  0  0  0
   39.3440   26.5990   44.0260 H   0  0  0  0  0  0  0  0  0  0  0  0
   37.2970   28.6020   43.3510 C   0  0  2  0  0  0  0  0  0  0  0  0
   36.5450   27.3500   43.5640 C   0  0  0  0  0  0  0  0  0  0  0  0
   36.4510   27.9900   42.2110 C   0  0  2  0  0  0  0  0  0  0  0  0
   36.9100   29.5880   43.7020 H   0  0  0  0  0  0  0  0  0  0  0  0
   37.2020   26.4300   43.5940 H   0  0  0  0  0  0  0  0  0  0  0  0
   35.7020   27.3630   44.2520 H   0  0  0  0  0  0  0  0  0  0  0  0
   35.4690   28.4720   42.0390 H   0  0  0  0  0  0  0  0  0  0  0  0
   37.1580   27.3880   41.0680 C   0  0  0  0  0  0  0  0  0  0  0  0
   37.4860   28.3360   40.1390 N   0  0  0  0  0  0  0  0  0  0  0  0
   38.1790   28.0160   39.0270 C   0  0  0  0  0  3  0  0  0  0  0  0
   38.5660   26.7250   38.8140 N   0  0  0  0  0  0  0  0  0  0  0  0
   38.2640   25.7610   39.7010 C   0  0  0  0  0  0  0  0  0  0  0  0
   38.5960   24.4290   39.5760 C   0  0  0  0  0  3  0  0  0  0  0  0
   38.2240   23.5010   40.5480 C   0  0  0  0  0  0  0  0  0  0  0  0
   38.4950   22.4580   40.4300 H   0  0  0  0  0  0  0  0  0  0  0  0
   37.5050   23.8810   41.6810 C   0  0  0  0  0  0  0  0  0  0  0  0
   37.2340   23.1360   42.4100 H   0  0  0  0  0  0  0  0  0  0  0  0
   37.1760   25.2220   41.7980 C   0  0  0  0  0  3  0  0  0  0  0  0
   37.5560   26.1120   40.8290 C   0  0  0  0  0  0  0  0  0  0  0  0
   41.6740   29.9530   41.7810 O   0  0  0  0  0  0  0  0  0  0  0  0
   41.8280   31.2920   42.2060 C   0  0  0  0  0  0  0  0  0  0  0  0
   42.2770   31.4550   43.3680 O   0  0  0  0  0  0  0  0  0  0  0  0
   41.4550   32.2940   41.2610 C   0  0  0  0  0  0  0  0  0  0  0  0
   42.4020   33.2570   41.0490 C   0  0  0  0  0  0  0  0  0  0  0  0
   42.1110   34.2730   40.1390 C   0  0  0  0  0  0  0  0  0  0  0  0
   40.9090   34.2520   39.5150 N   0  0  0  0  0  0  0  0  0  0  0  0
   40.0120   33.2920   39.7520 C   0  0  0  0  0  0  0  0  0  0  0  0
   40.2970   32.3170   40.6300 N   0  0  0  0  0  0  0  0  0  0  0  0
   43.4000   33.3650   41.4990 H   0  0  0  0  0  0  0  0  0  0  0  0
   42.8030   35.0730   39.9120 H   0  0  0  0  0  0  0  0  0  0  0  0
   39.0550   33.3140   39.2280 H   0  0  0  0  0  0  0  0  0  0  0  0
  1  5  1  0  0  0  0
  1  2  2  0  0  0  0
  2  6  1  0  0  0  0
  2  3  1  0  0  0  0
  3  7  1  0  0  0  0
  4  8  1  0  0  0  0
  4  3  2  0  0  0  0
  5  4  1  0  0  0  0
  8  9  1  0  0  0  0
  8 11  1  1  0  0  0
  9 12  1  0  0  0  0
  9 13  1  0  0  0  0
 10 14  1  6  0  0  0
 10  8  1  0  0  0  0
 10  9  1  0  0  0  0
 15 10  1  0  0  0  0
 16 15  2  0  0  0  0
 17 16  1  0  0  0  0
 18 17  2  0  0  0  0
 18 19  1  0  0  0  0
 19 26  1  0  0  0  0
 20 19  2  0  0  0  0
 20 21  1  0  0  0  0
 21 23  2  0  0  0  0
 22 21  1  0  0  0  0
 23 25  1  0  0  0  0
 23 24  1  0  0  0  0
 26 15  1  0  0  0  0
 26 25  2  0  0  0  0
 27 28  1  0  0  0  0
 27  1  1  0  0  0  0
 28 29  2  0  0  0  0
 30 28  1  0  0  0  0
 31 30  1  0  0  0  0
 31 36  1  0  0  0  0
 32 31  2  0  0  0  0
 33 34  2  0  0  0  0
 33 32  1  0  0  0  0
 34 35  1  0  0  0  0
 35 30  2  0  0  0  0
 37 32  1  0  0  0  0
 38 34  1  0  0  0  0
M  END
>  <minimizedAffinity>
-5.92615604

$$$$

 OpenBabel03242518373D

 38 42  0  0  1  0  0  0  0  0999 V2000
   39.8460   29.7600   40.5470 C   0  0  0  0  0  0  0  0  0  0  0  0
   40.7190   29.0700   41.3860 C   0  0  0  0  0  0  0  0  0  0  0  0
   40.0410   28.7040   42.5350 C   0  0  0  0  0  0  0  0  0  0  0  0
   38.7750   29.1930   42.3410 C   0  0  0  0  0  0  0  0  0  0  0  0
   38.6810   29.8070   41.1770 O   0  0  0  0  0  0  0  0  0  0  0  0
   41.7510   28.8900   41.1060 H   0  0  0  0  0  0  0  0  0  0  0  0
   40.4680   28.1540   43.3670 H   0  0  0  0  0  0  0  0  0  0  0  0
   37.6670   29.0510   43.2980 C   0  0  2  0  0  0  0  0  0  0  0  0
   37.5790   27.8420   44.1390 C   0  0  0  0  0  0  0  0  0  0  0  0
   36.6820   27.9160   42.9400 C   0  0  2  0  0  0  0  0  0  0  0  0
   37.1540   30.0020   43.5800 H   0  0  0  0  0  0  0  0  0  0  0  0
   38.4590   27.1420   44.0140 H   0  0  0  0  0  0  0  0  0  0  0  0
   37.1800   27.9400   45.1470 H   0  0  0  0  0  0  0  0  0  0  0  0
   35.6250   28.1010   43.2140 H   0  0  0  0  0  0  0  0  0  0  0  0
   36.9750   27.0890   41.7560 C   0  0  0  0  0  0  0  0  0  0  0  0
   37.7350   26.0040   42.0920 N   0  0  0  0  0  0  0  0  0  0  0  0
   38.0870   25.0840   41.1700 C   0  0  0  0  0  3  0  0  0  0  0  0
   37.6820   25.2280   39.8750 N   0  0  0  0  0  0  0  0  0  0  0  0
   36.9340   26.2820   39.5020 C   0  0  0  0  0  0  0  0  0  0  0  0
   36.4840   26.5270   38.2220 C   0  0  0  0  0  3  0  0  0  0  0  0
   35.7220   27.6590   37.9330 C   0  0  0  0  0  0  0  0  0  0  0  0
   35.3780   27.8330   36.9200 H   0  0  0  0  0  0  0  0  0  0  0  0
   35.3860   28.5830   38.9220 C   0  0  0  0  0  0  0  0  0  0  0  0
   34.7970   29.4460   38.6600 H   0  0  0  0  0  0  0  0  0  0  0  0
   35.8420   28.3270   40.2050 C   0  0  0  0  0  3  0  0  0  0  0  0
   36.5880   27.2080   40.4610 C   0  0  0  0  0  0  0  0  0  0  0  0
   40.0320   30.3390   39.2740 O   0  0  0  0  0  0  0  0  0  0  0  0
   39.1490   31.3520   38.8380 C   0  0  0  0  0  0  0  0  0  0  0  0
   38.2520   30.9950   38.0340 O   0  0  0  0  0  0  0  0  0  0  0  0
   39.3840   32.6560   39.3660 C   0  0  0  0  0  0  0  0  0  0  0  0
   40.6250   33.1640   39.0980 C   0  0  0  0  0  0  0  0  0  0  0  0
   40.9320   34.4350   39.5810 C   0  0  0  0  0  0  0  0  0  0  0  0
   39.9870   35.0990   40.2910 N   0  0  0  0  0  0  0  0  0  0  0  0
   38.7870   34.5650   40.5310 C   0  0  0  0  0  0  0  0  0  0  0  0
   38.4980   33.3400   40.0630 N   0  0  0  0  0  0  0  0  0  0  0  0
   41.4570   32.7120   38.5360 H   0  0  0  0  0  0  0  0  0  0  0  0
   41.8890   34.9110   39.4150 H   0  0  0  0  0  0  0  0  0  0  0  0
   38.0550   35.1340   41.1070 H   0  0  0  0  0  0  0  0  0  0  0  0
  1  5  1  0  0  0  0
  1  2  2  0  0  0  0
  2  3  1  0  0  0  0
  3  7  1  0  0  0  0
  4  3  2  0  0  0  0
  4  8  1  0  0  0  0
  5  4  1  0  0  0  0
  6  2  1  0  0  0  0
  8 11  1  1  0  0  0
  8  9  1  0  0  0  0
  9 13  1  0  0  0  0
 10 14  1  1  0  0  0
 10  8  1  0  0  0  0
 10  9  1  0  0  0  0
 12  9  1  0  0  0  0
 15 16  1  0  0  0  0
 15 10  1  0  0  0  0
 17 16  2  0  0  0  0
 18 17  1  0  0  0  0
 19 18  2  0  0  0  0
 19 26  1  0  0  0  0
 20 19  1  0  0  0  0
 21 20  2  0  0  0  0
 21 23  1  0  0  0  0
 22 21  1  0  0  0  0
 23 25  2  0  0  0  0
 24 23  1  0  0  0  0
 25 26  1  0  0  0  0
 26 15  2  0  0  0  0
 27  1  1  0  0  0  0
 28 27  1  0  0  0  0
 28 30  1  0  0  0  0
 29 28  2  0  0  0  0
 30 35  1  0  0  0  0
 31 30  2  0  0  0  0
 31 32  1  0  0  0  0
 32 33  2  0  0  0  0
 33 34  1  0  0  0  0
 34 38  1  0  0  0  0
 35 34  2  0  0  0  0
 36 31  1  0  0  0  0
 37 32  1  0  0  0  0
M  END
>  <minimizedAffinity>
-5.92355871

$$$$

 OpenBabel03242518373D

 38 42  0  0  1  0  0  0  0  0999 V2000
   37.4860   29.0200   42.2210 C   0  0  0  0  0  0  0  0  0  0  0  0
   36.5560   27.9870   42.3270 C   0  0  0  0  0  0  0  0  0  0  0  0
   37.1240   26.9460   43.0380 C   0  0  0  0  0  0  0  0  0  0  0  0
   38.3840   27.3960   43.3360 C   0  0  0  0  0  0  0  0  0  0  0  0
   38.5770   28.6070   42.8500 O   0  0  0  0  0  0  0  0  0  0  0  0
   35.5660   28.0680   41.8930 H   0  0  0  0  0  0  0  0  0  0  0  0
   36.6330   26.0080   43.2770 H   0  0  0  0  0  0  0  0  0  0  0  0
   39.3880   26.6360   44.0960 C   0  0  2  0  0  0  0  0  0  0  0  0
   40.8200   26.9560   43.9370 C   0  0  0  0  0  0  0  0  0  0  0  0
   40.2960   25.7530   43.2110 C   0  0  2  0  0  0  0  0  0  0  0  0
   39.0010   26.1000   44.9960 H   0  0  0  0  0  0  0  0  0  0  0  0
   41.0100   27.8490   43.2710 H   0  0  0  0  0  0  0  0  0  0  0  0
   41.4730   26.8500   44.8010 H   0  0  0  0  0  0  0  0  0  0  0  0
   40.6280   24.8030   43.6720 H   0  0  0  0  0  0  0  0  0  0  0  0
   40.1070   25.8070   41.7500 C   0  0  0  0  0  0  0  0  0  0  0  0
   40.8580   26.8050   41.1950 N   0  0  0  0  0  0  0  0  0  0  0  0
   40.8740   27.0090   39.8620 C   0  0  0  0  0  3  0  0  0  0  0  0
   40.1310   26.2100   39.0410 N   0  0  0  0  0  0  0  0  0  0  0  0
   39.3780   25.2170   39.5470 C   0  0  0  0  0  0  0  0  0  0  0  0
   38.5840   24.3640   38.8100 C   0  0  0  0  0  3  0  0  0  0  0  0
   37.8270   23.3710   39.4310 C   0  0  0  0  0  0  0  0  0  0  0  0
   37.2100   22.7100   38.8320 H   0  0  0  0  0  0  0  0  0  0  0  0
   37.8430   23.2010   40.8150 C   0  0  0  0  0  0  0  0  0  0  0  0
   37.2440   22.4230   41.2580 H   0  0  0  0  0  0  0  0  0  0  0  0
   38.6440   24.0630   41.5460 C   0  0  0  0  0  3  0  0  0  0  0  0
   39.3770   25.0290   40.9110 C   0  0  0  0  0  0  0  0  0  0  0  0
   37.4110   30.2870   41.6050 O   0  0  0  0  0  0  0  0  0  0  0  0
   38.2250   30.5610   40.4830 C   0  0  0  0  0  0  0  0  0  0  0  0
   38.4300   29.5990   39.7010 O   0  0  0  0  0  0  0  0  0  0  0  0
   38.7120   31.8970   40.3760 C   0  0  0  0  0  0  0  0  0  0  0  0
   37.7470   32.8390   40.1480 C   0  0  0  0  0  0  0  0  0  0  0  0
   38.1460   34.1700   40.0310 C   0  0  0  0  0  0  0  0  0  0  0  0
   39.4640   34.4600   40.1480 N   0  0  0  0  0  0  0  0  0  0  0  0
   40.3740   33.5080   40.3700 C   0  0  0  0  0  0  0  0  0  0  0  0
   39.9840   32.2280   40.4820 N   0  0  0  0  0  0  0  0  0  0  0  0
   36.6600   32.7110   40.0370 H   0  0  0  0  0  0  0  0  0  0  0  0
   37.4490   34.9770   39.8510 H   0  0  0  0  0  0  0  0  0  0  0  0
   41.4260   33.7850   40.4580 H   0  0  0  0  0  0  0  0  0  0  0  0
  1  2  2  0  0  0  0
  1  5  1  0  0  0  0
  2  3  1  0  0  0  0
  3  7  1  0  0  0  0
  3  4  2  0  0  0  0
  4  8  1  0  0  0  0
  5  4  1  0  0  0  0
  6  2  1  0  0  0  0
  8 11  1  1  0  0  0
  9  8  1  0  0  0  0
  9 13  1  0  0  0  0
 10 14  1  1  0  0  0
 10  9  1  0  0  0  0
 10  8  1  0  0  0  0
 12  9  1  0  0  0  0
 15 10  1  0  0  0  0
 16 15  1  0  0  0  0
 17 16  2  0  0  0  0
 18 19  2  0  0  0  0
 18 17  1  0  0  0  0
 19 26  1  0  0  0  0
 20 21  2  0  0  0  0
 20 19  1  0  0  0  0
 21 23  1  0  0  0  0
 22 21  1  0  0  0  0
 23 24  1  0  0  0  0
 23 25  2  0  0  0  0
 26 25  1  0  0  0  0
 26 15  2  0  0  0  0
 27  1  1  0  0  0  0
 28 27  1  0  0  0  0
 29 28  2  0  0  0  0
 30 35  1  0  0  0  0
 30 28  1  0  0  0  0
 31 30  2  0  0  0  0
 32 33  2  0  0  0  0
 32 31  1  0  0  0  0
 33 34  1  0  0  0  0
 34 38  1  0  0  0  0
 34 35  2  0  0  0  0
 36 31  1  0  0  0  0
 37 32  1  0  0  0  0
M  END
>  <minimizedAffinity>
-5.92045927

$$$$
