
     RDKit          3D

 53 57  0  0  0  0  0  0  0  0999 V2000
   44.1103   33.5565   40.7168 C   0  0  0  0  0  0  0  0  0  0  0  0
   44.4064   34.7282   41.4763 C   0  0  0  0  0  0  0  0  0  0  0  0
   43.4239   35.7205   41.5971 C   0  0  0  0  0  0  0  0  0  0  0  0
   42.2280   35.5167   40.9803 N   0  0  0  0  0  0  0  0  0  0  0  0
   41.9815   34.4173   40.2811 C   0  0  0  0  0  0  0  0  0  0  0  0
   42.9167   33.4517   40.1546 N   0  0  0  0  0  0  0  0  0  0  0  0
   39.7410   33.6334   41.7301 F   0  0  0  0  0  0  0  0  0  0  0  0
   39.5753   33.8442   40.3949 C   0  0  0  0  0  0  0  0  0  0  0  0
   40.6831   34.2398   39.6356 C   0  0  0  0  0  0  0  0  0  0  0  0
   40.5905   34.4708   38.2817 C   0  0  0  0  0  0  0  0  0  0  0  0
   39.3411   34.2947   37.6885 C   0  0  0  0  0  0  0  0  0  0  0  0
   38.2092   33.8957   38.4362 C   0  0  0  0  0  0  0  0  0  0  0  0
   38.3490   33.6739   39.7988 C   0  0  0  0  0  0  0  0  0  0  0  0
   45.7057   34.9251   42.1344 C   0  0  0  0  0  0  0  0  0  0  0  0
   46.8673   34.6984   41.5043 C   0  0  0  0  0  0  0  0  0  0  0  0
   48.1555   34.9219   42.2438 C   0  0  0  0  0  0  0  0  0  0  0  0
   49.2778   34.3299   41.5965 N   0  0  0  0  0  0  0  0  0  0  0  0
   50.3271   33.9903   42.4887 C   0  0  0  0  0  0  0  0  0  0  0  0
   51.0031   32.7553   41.9526 C   0  0  0  0  0  0  0  0  0  0  0  0
   49.9103   32.0929   41.1780 C   0  0  0  0  0  0  0  0  0  0  0  0
   48.9211   33.1680   40.8166 C   0  0  2  0  0  0  0  0  0  0  0  0
   44.8829   32.8042   40.6370 H   0  0  0  0  0  0  0  0  0  0  0  0
   43.5995   36.6216   42.1591 H   0  0  0  0  0  0  0  0  0  0  0  0
   41.4208   34.7744   37.6745 H   0  0  0  0  0  0  0  0  0  0  0  0
   39.1541   34.4479   36.6359 H   0  0  0  0  0  0  0  0  0  0  0  0
   37.2492   33.7591   37.9872 H   0  0  0  0  0  0  0  0  0  0  0  0
   37.5229   33.3682   40.4228 H   0  0  0  0  0  0  0  0  0  0  0  0
   45.6549   35.2709   43.1785 H   0  0  0  0  0  0  0  0  0  0  0  0
   46.5855   34.3687   40.4925 H   0  0  0  0  0  0  0  0  0  0  0  0
   48.3401   36.0167   42.3858 H   0  0  0  0  0  0  0  0  0  0  0  0
   48.0054   34.4458   43.2363 H   0  0  0  0  0  0  0  0  0  0  0  0
   51.0778   34.8080   42.4940 H   0  0  0  0  0  0  0  0  0  0  0  0
   50.0094   33.8667   43.5443 H   0  0  0  0  0  0  0  0  0  0  0  0
   51.8046   33.0494   41.2389 H   0  0  0  0  0  0  0  0  0  0  0  0
   51.4229   32.1266   42.7570 H   0  0  0  0  0  0  0  0  0  0  0  0
   49.3695   31.3843   41.8545 H   0  0  0  0  0  0  0  0  0  0  0  0
   50.2563   31.5166   40.2967 H   0  0  0  0  0  0  0  0  0  0  0  0
   47.8814   32.8979   41.0387 H   0  0  0  0  0  0  0  0  0  0  0  0
   49.1722   33.5513   39.4027 C   0  0  0  0  0  0  0  0  0  0  0  0
   49.3802   32.6324   38.4313 N   0  0  0  0  0  0  0  0  0  0  0  0
   49.6099   32.9572   37.1459 C   0  0  0  0  0  0  0  0  0  0  0  0
   49.6521   34.2311   36.7168 N   0  0  0  0  0  0  0  0  0  0  0  0
   49.4528   35.1959   37.6331 C   0  0  0  0  0  0  0  0  0  0  0  0
   49.4915   36.5135   37.2148 C   0  0  0  0  0  0  0  0  0  0  0  0
   49.2905   37.5227   38.1319 C   0  0  0  0  0  0  0  0  0  0  0  0
   49.3395   38.5295   37.7073 H   0  0  0  0  0  0  0  0  0  0  0  0
   49.0498   37.2117   39.4737 C   0  0  0  0  0  0  0  0  0  0  0  0
   48.9077   38.0641   40.0999 H   0  0  0  0  0  0  0  0  0  0  0  0
   49.0196   35.8740   39.8505 C   0  0  0  0  0  0  0  0  0  0  0  0
   49.2182   34.8503   38.9482 C   0  0  0  0  0  0  0  0  0  0  0  0
   49.7461   32.0405   36.5603 H   0  0  0  0  0  0  0  0  0  0  0  0
   49.6803   36.7189   36.1679 H   0  0  0  0  0  0  0  0  0  0  0  0
   48.8310   35.6727   40.8931 H   0  0  0  0  0  0  0  0  0  0  0  0
  1  2  2  0
  2  3  1  0
  2 14  1  0
  4  3  2  0
  5  4  1  0
  6  5  2  0
  6  1  1  0
  8  7  1  0
  9  5  1  0
  9  8  2  0
 10  9  1  0
 11 10  2  0
 11 12  1  0
 12 13  2  0
 13  8  1  0
 15 14  2  0
 15 16  1  0
 17 16  1  0
 17 18  1  0
 19 18  1  0
 20 19  1  0
 21 20  1  0
 21 17  1  0
  1 22  1  0
  3 23  1  0
 10 24  1  0
 11 25  1  0
 12 26  1  0
 13 27  1  0
 14 28  1  0
 15 29  1  0
 16 30  1  0
 16 31  1  0
 18 32  1  0
 18 33  1  0
 19 34  1  0
 19 35  1  0
 20 36  1  0
 20 37  1  0
 21 38  1  6
 39 40  2  0
 40 41  1  0
 41 42  2  0
 42 43  1  0
 43 44  2  0
 44 45  1  0
 45 46  1  0
 45 47  2  0
 47 48  1  0
 47 49  1  0
 49 50  2  0
 50 39  1  0
 50 43  1  0
 41 51  1  0
 44 52  1  0
 49 53  1  0
 21 39  1  0
M  ISO  8  22  14  23  14  24  14  25  14  26  14  27  14  30   8  31   8
M  ISO  8  32  13  33  13  34  13  35  13  36  13  37  13  38  13  46  16
M  ISO  1  48  16
M  END
>  <DihAtoms>  (1) 
19,20,38,39

>  <DihDeg>  (1) 
-90.4626464409482

$$$$
