REMARK  Name = 
REMARK  5 active torsions:
REMARK  status: ('A' for Active; 'I' for Inactive)
REMARK    1  A    between atoms: C_2  and  C_14
REMARK    2  A    between atoms: C_5  and  C_9
REMARK    3  A    between atoms: C_15  and  C_16
REMARK    4  A    between atoms: C_16  and  N_17
REMARK    5  A    between atoms: C_21  and  C_39
REMARK                            x       y       z     vdW  Elec       q    Type
REMARK                         _______ _______ _______ _____ _____    ______ ____
ROOT
ATOM      1  C   UNL     1      48.156  34.922  42.244  0.00  0.00    +0.000 C 
ATOM      2  H   UNL     1      48.340  36.017  42.386  0.00  0.00    +0.000 HD
ATOM      3  H   UNL     1      48.005  34.446  43.236  0.00  0.00    +0.000 HD
ENDROOT
BRANCH   1   4
ATOM      4  N   UNL     1      49.278  34.330  41.596  0.00  0.00    +0.000 NA
ATOM      5  C   UNL     1      50.327  33.990  42.489  0.00  0.00    +0.000 C 
ATOM      6  C   UNL     1      51.003  32.755  41.953  0.00  0.00    +0.000 C 
ATOM      7  C   UNL     1      49.910  32.093  41.178  0.00  0.00    +0.000 C 
ATOM      8  C   UNL     1      48.921  33.168  40.817  0.00  0.00    +0.000 C 
ATOM      9  H   UNL     1      51.078  34.808  42.494  0.00  0.00    +0.000 HD
ATOM     10  H   UNL     1      50.009  33.867  43.544  0.00  0.00    +0.000 HD
ATOM     11  H   UNL     1      51.805  33.049  41.239  0.00  0.00    +0.000 HD
ATOM     12  H   UNL     1      51.423  32.127  42.757  0.00  0.00    +0.000 HD
ATOM     13  H   UNL     1      49.370  31.384  41.855  0.00  0.00    +0.000 HD
ATOM     14  H   UNL     1      50.256  31.517  40.297  0.00  0.00    +0.000 HD
ATOM     15  H   UNL     1      47.881  32.898  41.039  0.00  0.00    +0.000 HD
BRANCH   8  16
ATOM     16  C   UNL     1      49.172  33.551  39.403  0.00  0.00    +0.000 A 
ATOM     17  N   UNL     1      49.380  32.632  38.431  0.00  0.00    +0.000 NA
ATOM     18  C   UNL     1      49.610  32.957  37.146  0.00  0.00    +0.000 A 
ATOM     19  N   UNL     1      49.652  34.231  36.717  0.00  0.00    +0.000 NA
ATOM     20  C   UNL     1      49.453  35.196  37.633  0.00  0.00    +0.000 A 
ATOM     21  C   UNL     1      49.492  36.514  37.215  0.00  0.00    +0.000 A 
ATOM     22  C   UNL     1      49.291  37.523  38.132  0.00  0.00    +0.000 A 
ATOM     23  H   UNL     1      49.340  38.529  37.707  0.00  0.00    +0.000 HD
ATOM     24  C   UNL     1      49.050  37.212  39.474  0.00  0.00    +0.000 A 
ATOM     25  H   UNL     1      48.908  38.064  40.100  0.00  0.00    +0.000 HD
ATOM     26  C   UNL     1      49.020  35.874  39.850  0.00  0.00    +0.000 A 
ATOM     27  C   UNL     1      49.218  34.850  38.948  0.00  0.00    +0.000 A 
ENDBRANCH   8  16
ENDBRANCH   1   4
BRANCH   1  29
ATOM     28  C   UNL     1      45.706  34.925  42.134  0.00  0.00    +0.000 C 
ATOM     29  C   UNL     1      46.867  34.698  41.504  0.00  0.00    +0.000 C 
BRANCH  28  31
ATOM     30  C   UNL     1      44.110  33.556  40.717  0.00  0.00    +0.000 A 
ATOM     31  C   UNL     1      44.406  34.728  41.476  0.00  0.00    +0.000 A 
ATOM     32  C   UNL     1      43.424  35.721  41.597  0.00  0.00    +0.000 A 
ATOM     33  N   UNL     1      42.228  35.517  40.980  0.00  0.00    +0.000 NA
ATOM     34  C   UNL     1      41.981  34.417  40.281  0.00  0.00    +0.000 A 
ATOM     35  N   UNL     1      42.917  33.452  40.155  0.00  0.00    +0.000 NA
ATOM     36  H   UNL     1      44.883  32.804  40.637  0.00  0.00    +0.000 HD
ATOM     37  H   UNL     1      43.599  36.622  42.159  0.00  0.00    +0.000 HD
BRANCH  34  40
ATOM     38  F   UNL     1      39.741  33.633  41.730  0.00  0.00    +0.000 F 
ATOM     39  C   UNL     1      39.575  33.844  40.395  0.00  0.00    +0.000 A 
ATOM     40  C   UNL     1      40.683  34.240  39.636  0.00  0.00    +0.000 A 
ATOM     41  C   UNL     1      40.590  34.471  38.282  0.00  0.00    +0.000 A 
ATOM     42  C   UNL     1      39.341  34.295  37.688  0.00  0.00    +0.000 A 
ATOM     43  C   UNL     1      38.209  33.896  38.436  0.00  0.00    +0.000 A 
ATOM     44  C   UNL     1      38.349  33.674  39.799  0.00  0.00    +0.000 A 
ATOM     45  H   UNL     1      41.421  34.774  37.675  0.00  0.00    +0.000 HD
ATOM     46  H   UNL     1      39.154  34.448  36.636  0.00  0.00    +0.000 HD
ATOM     47  H   UNL     1      37.249  33.759  37.987  0.00  0.00    +0.000 HD
ATOM     48  H   UNL     1      37.523  33.368  40.423  0.00  0.00    +0.000 HD
ENDBRANCH  34  40
ENDBRANCH  28  31
ENDBRANCH   1  29
TORSDOF 5
