
     RDKit          3D

 43 47  0  0  0  0  0  0  0  0999 V2000
   46.5612   31.7036   46.0594 S   0  0  0  0  0  0  0  0  0  0  0  0
   47.6188   31.0693   47.3390 C   0  0  0  0  0  0  0  0  0  0  0  0
   47.9529   31.9211   48.3629 C   0  0  0  0  0  0  0  0  0  0  0  0
   48.7613   31.4443   49.3715 C   0  0  0  0  0  0  0  0  0  0  0  0
   49.2398   30.1303   49.3712 C   0  0  0  0  0  0  0  0  0  0  0  0
   50.0200   29.6962   50.3731 N   0  0  0  0  0  0  0  0  0  0  0  0
   50.4890   28.4380   50.4032 C   0  0  0  0  0  0  0  0  0  0  0  0
   50.1587   27.5824   49.3819 C   0  0  0  0  0  0  0  0  0  0  0  0
   49.3508   28.0263   48.3411 C   0  0  0  0  0  0  0  0  0  0  0  0
   48.8549   29.3305   48.2951 C   0  0  0  0  0  0  0  0  0  0  0  0
   48.0510   29.7729   47.2736 C   0  0  0  0  0  0  0  0  0  0  0  0
   45.6542   33.1444   46.6358 C   0  0  0  0  0  0  0  0  0  0  0  0
   44.5588   35.9639   44.4911 C   0  0  0  0  0  0  0  0  0  0  0  0
   45.3136   35.7196   43.3519 C   0  0  0  0  0  0  0  0  0  0  0  0
   46.1947   34.6057   43.3015 C   0  0  0  0  0  0  0  0  0  0  0  0
   46.2412   33.8192   44.4219 N   0  0  0  0  0  0  0  0  0  0  0  0
   45.4940   34.0854   45.5117 C   0  0  0  0  0  0  0  0  0  0  0  0
   44.6791   35.1399   45.5211 N   0  0  0  0  0  0  0  0  0  0  0  0
   47.6795   32.9508   48.5203 H   0  0  0  0  0  0  0  0  0  0  0  0
   49.0818   32.0426   50.2273 H   0  0  0  0  0  0  0  0  0  0  0  0
   51.1166   28.0953   51.2135 H   0  0  0  0  0  0  0  0  0  0  0  0
   50.5462   26.5743   49.4245 H   0  0  0  0  0  0  0  0  0  0  0  0
   49.0941   27.3404   47.5349 H   0  0  0  0  0  0  0  0  0  0  0  0
   47.7836   29.1271   46.4736 H   0  0  0  0  0  0  0  0  0  0  0  0
   44.6635   32.8769   47.0719 H   0  0  0  0  0  0  0  0  0  0  0  0
   46.1893   33.6879   47.4361 H   0  0  0  0  0  0  0  0  0  0  0  0
   43.8923   36.7976   44.5434 H   0  0  0  0  0  0  0  0  0  0  0  0
   45.1755   36.4130   42.5590 H   0  0  0  0  0  0  0  0  0  0  0  0
   46.8904   34.5311   42.0381 C   0  0  0  0  0  0  0  0  0  0  0  0
   46.2725   34.6790   40.8534 N   0  0  0  0  0  0  0  0  0  0  0  0
   46.8169   34.6294   39.6578 C   0  0  0  0  0  0  0  0  0  0  0  0
   48.1229   34.4116   39.5336 N   0  0  0  0  0  0  0  0  0  0  0  0
   48.9048   34.2388   40.6399 C   0  0  0  0  0  0  0  0  0  0  0  0
   50.2588   34.0142   40.5420 C   0  0  0  0  0  0  0  0  0  0  0  0
   51.0297   33.8450   41.6727 C   0  0  0  0  0  0  0  0  0  0  0  0
   52.0832   33.6732   41.5094 H   0  0  0  0  0  0  0  0  0  0  0  0
   50.3917   33.9095   42.9093 C   0  0  0  0  0  0  0  0  0  0  0  0
   51.0029   33.7762   43.7853 H   0  0  0  0  0  0  0  0  0  0  0  0
   49.0364   34.1370   42.9313 C   0  0  0  0  0  0  0  0  0  0  0  0
   48.2300   34.3107   41.8343 C   0  0  0  0  0  0  0  0  0  0  0  0
   46.1159   34.7785   38.8311 H   0  0  0  0  0  0  0  0  0  0  0  0
   50.6531   33.9831   39.5249 H   0  0  0  0  0  0  0  0  0  0  0  0
   48.6394   34.1723   43.9197 H   0  0  0  0  0  0  0  0  0  0  0  0
  1 12  1  0
  1  2  1  0
  2  3  2  0
  3  4  1  0
  4  5  2  0
  5  6  1  0
  6  7  2  0
  8  7  1  0
  9  8  2  0
 10  9  1  0
 10  5  1  0
 11  2  1  0
 11 10  2  0
 13 18  2  0
 14 13  1  0
 15 14  2  0
 15 16  1  0
 16 17  2  0
 17 18  1  0
 17 12  1  0
  3 19  1  0
  4 20  1  0
  7 21  1  0
  8 22  1  0
  9 23  1  0
 11 24  1  0
 12 25  1  0
 12 26  1  0
 13 27  1  0
 14 28  1  0
 29 30  2  0
 30 31  1  0
 31 32  2  0
 32 33  1  0
 33 34  2  0
 34 35  1  0
 35 36  1  0
 35 37  2  0
 37 38  1  0
 37 39  1  0
 39 40  2  0
 40 29  1  0
 40 33  1  0
 31 41  1  0
 34 42  1  0
 39 43  1  0
 15 29  1  0
M  ISO  8  19  14  20  14  21  14  22  14  23  14  24  14  25   8  26   8
M  ISO  4  27  14  28  14  36  16  38  16
M  END
>  <DihAtoms>  (1) 
13,14,28,29

>  <DihDeg>  (1) 
-1.0267324943608214

$$$$
