REMARK  Name = 
REMARK  4 active torsions:
REMARK  status: ('A' for Active; 'I' for Inactive)
REMARK    1  A    between atoms: S_1  and  C_2
REMARK    2  A    between atoms: S_1  and  C_12
REMARK    3  A    between atoms: C_12  and  C_17
REMARK    4  A    between atoms: C_15  and  C_29
REMARK                            x       y       z     vdW  Elec       q    Type
REMARK                         _______ _______ _______ _____ _____    ______ ____
ROOT
ATOM      1  C   UNL     1      45.654  33.144  46.636  0.00  0.00    +0.000 C 
ATOM      2  H   UNL     1      44.663  32.877  47.072  0.00  0.00    +0.000 HD
ATOM      3  H   UNL     1      46.189  33.688  47.436  0.00  0.00    +0.000 HD
ENDROOT
BRANCH   1   8
ATOM      4  C   UNL     1      44.559  35.964  44.491  0.00  0.00    +0.000 A 
ATOM      5  C   UNL     1      45.314  35.720  43.352  0.00  0.00    +0.000 A 
ATOM      6  C   UNL     1      46.195  34.606  43.301  0.00  0.00    +0.000 A 
ATOM      7  N   UNL     1      46.241  33.819  44.422  0.00  0.00    +0.000 NA
ATOM      8  C   UNL     1      45.494  34.085  45.512  0.00  0.00    +0.000 A 
ATOM      9  N   UNL     1      44.679  35.140  45.521  0.00  0.00    +0.000 NA
ATOM     10  H   UNL     1      43.892  36.798  44.543  0.00  0.00    +0.000 HD
ATOM     11  H   UNL     1      45.175  36.413  42.559  0.00  0.00    +0.000 HD
BRANCH   6  12
ATOM     12  C   UNL     1      46.890  34.531  42.038  0.00  0.00    +0.000 A 
ATOM     13  N   UNL     1      46.422  33.839  40.985  0.00  0.00    +0.000 NA
ATOM     14  C   UNL     1      46.979  33.714  39.801  0.00  0.00    +0.000 A 
ATOM     15  N   UNL     1      48.138  34.314  39.548  0.00  0.00    +0.000 NA
ATOM     16  C   UNL     1      48.756  35.061  40.510  0.00  0.00    +0.000 A 
ATOM     17  C   UNL     1      49.955  35.695  40.275  0.00  0.00    +0.000 A 
ATOM     18  C   UNL     1      50.560  36.446  41.260  0.00  0.00    +0.000 A 
ATOM     19  H   UNL     1      51.498  36.911  40.996  0.00  0.00    +0.000 HD
ATOM     20  C   UNL     1      49.917  36.540  42.493  0.00  0.00    +0.000 A 
ATOM     21  H   UNL     1      50.398  37.129  43.255  0.00  0.00    +0.000 HD
ATOM     22  C   UNL     1      48.723  35.880  42.656  0.00  0.00    +0.000 A 
ATOM     23  C   UNL     1      48.084  35.122  41.706  0.00  0.00    +0.000 A 
ENDBRANCH   6  12
ENDBRANCH   1   8
BRANCH   1  24
ATOM     24  S   UNL     1      46.561  31.704  46.059  0.00  0.00    +0.000 S 
BRANCH  24  25
ATOM     25  C   UNL     1      47.619  31.069  47.339  0.00  0.00    +0.000 A 
ATOM     26  C   UNL     1      47.953  31.921  48.363  0.00  0.00    +0.000 A 
ATOM     27  C   UNL     1      48.761  31.444  49.371  0.00  0.00    +0.000 A 
ATOM     28  C   UNL     1      49.240  30.130  49.371  0.00  0.00    +0.000 A 
ATOM     29  N   UNL     1      50.020  29.696  50.373  0.00  0.00    +0.000 NA
ATOM     30  C   UNL     1      50.489  28.438  50.403  0.00  0.00    +0.000 A 
ATOM     31  C   UNL     1      50.159  27.582  49.382  0.00  0.00    +0.000 A 
ATOM     32  C   UNL     1      49.351  28.026  48.341  0.00  0.00    +0.000 A 
ATOM     33  C   UNL     1      48.855  29.331  48.295  0.00  0.00    +0.000 A 
ATOM     34  C   UNL     1      48.051  29.773  47.274  0.00  0.00    +0.000 A 
ATOM     35  H   UNL     1      47.679  32.951  48.520  0.00  0.00    +0.000 HD
ATOM     36  H   UNL     1      49.082  32.043  50.227  0.00  0.00    +0.000 HD
ATOM     37  H   UNL     1      51.117  28.095  51.214  0.00  0.00    +0.000 HD
ATOM     38  H   UNL     1      50.546  26.574  49.425  0.00  0.00    +0.000 HD
ATOM     39  H   UNL     1      49.094  27.340  47.535  0.00  0.00    +0.000 HD
ATOM     40  H   UNL     1      47.784  29.127  46.474  0.00  0.00    +0.000 HD
ENDBRANCH  24  25
ENDBRANCH   1  24
TORSDOF 4
