
 OpenBabel03252500033D

 42 46  0  0  0  0  0  0  0  0999 V2000
   45.4180   33.9760   44.9970 C   0  0  0  0  0  0  0  0  0  0  0  0
   46.1410   33.3220   44.0000 C   0  0  0  0  0  0  0  0  0  0  0  0
   47.0730   32.3450   44.3730 C   0  0  0  0  0  0  0  0  0  0  0  0
   47.1910   32.1160   45.7180 N   0  0  0  0  0  0  0  0  0  0  0  0
   46.4800   32.7630   46.6410 C   0  0  0  0  0  0  0  0  0  0  0  0
   45.6050   33.6820   46.2660 N   0  0  0  0  0  0  0  0  0  0  0  0
   44.7300   34.7050   44.6220 H   0  0  0  0  0  0  0  0  0  0  0  0
   47.8870   31.5810   43.4870 C   0  0  0  0  0  0  0  0  0  0  0  0
   49.0610   32.1870   43.0570 C   0  0  0  0  0  0  0  0  0  0  0  0
   49.9680   31.5910   42.1960 C   0  0  0  0  0  0  0  0  0  0  0  0
   49.7320   30.3270   41.7150 C   0  0  0  0  0  0  0  0  0  0  0  0
   48.5790   29.6860   42.1150 C   0  0  0  0  0  0  0  0  0  0  0  0
   48.2770   28.4220   41.6790 C   0  0  0  0  0  0  0  0  0  0  0  0
   47.1480   27.7440   42.0470 C   0  0  0  0  0  0  0  0  0  0  0  0
   46.2860   28.4020   42.9110 C   0  0  0  0  0  0  0  0  0  0  0  0
   46.6160   29.6790   43.3350 C   0  0  0  0  0  0  0  0  0  0  0  0
   47.7300   30.3320   42.9650 C   0  0  0  0  0  0  0  0  0  0  0  0
   49.3520   33.1840   43.3710 H   0  0  0  0  0  0  0  0  0  0  0  0
   50.8760   32.0850   41.8760 H   0  0  0  0  0  0  0  0  0  0  0  0
   50.4430   29.8730   41.0470 H   0  0  0  0  0  0  0  0  0  0  0  0
   49.0040   27.9630   40.9990 H   0  0  0  0  0  0  0  0  0  0  0  0
   46.9570   26.7390   41.6680 H   0  0  0  0  0  0  0  0  0  0  0  0
   45.3960   27.8420   43.1870 H   0  0  0  0  0  0  0  0  0  0  0  0
   45.6130   30.1960   44.2130 N   0  0  0  0  0  0  0  0  0  0  0  0
   44.7440   30.7550   44.0720 H   0  0  0  0  0  0  0  0  0  0  0  0
   45.4510   30.1570   45.2380 H   0  0  0  0  0  0  0  0  0  0  0  0
   46.0650   33.5190   42.5540 C   0  0  0  0  0  0  0  0  0  0  0  0
   47.0030   34.1700   41.8440 N   0  0  0  0  0  0  0  0  0  0  0  0
   46.9810   34.3770   40.5300 C   0  0  0  0  0  3  0  0  0  0  0  0
   45.9450   33.9100   39.7990 N   0  0  0  0  0  0  0  0  0  0  0  0
   44.9820   33.2520   40.4700 C   0  0  0  0  0  0  0  0  0  0  0  0
   43.9290   32.7840   39.6830 C   0  0  0  0  0  3  0  0  0  0  0  0
   42.9050   32.1000   40.3040 C   0  0  0  0  0  0  0  0  0  0  0  0
   42.0840   31.7340   39.7000 H   0  0  0  0  0  0  0  0  0  0  0  0
   42.9070   31.8720   41.6760 C   0  0  0  0  0  0  0  0  0  0  0  0
   42.1060   31.3350   42.1640 H   0  0  0  0  0  0  0  0  0  0  0  0
   43.9580   32.3390   42.4550 C   0  0  0  0  0  3  0  0  0  0  0  0
   44.9880   33.0260   41.8420 C   0  0  0  0  0  0  0  0  0  0  0  0
   46.7910   32.3320   48.0430 C   0  0  0  0  0  0  0  0  0  0  0  0
   45.8790   32.8120   48.9390 F   0  0  0  0  0  0  0  0  0  0  0  0
   48.0840   32.6970   48.3830 F   0  0  0  0  0  0  0  0  0  0  0  0
   46.8240   30.9140   48.0740 F   0  0  0  0  0  0  0  0  0  0  0  0
  1  6  1  0  0  0  0
  2  3  1  0  0  0  0
  2  1  2  0  0  0  0
  3  4  2  0  0  0  0
  4  5  1  0  0  0  0
  5 39  1  0  0  0  0
  6  5  2  0  0  0  0
  7  1  1  0  0  0  0
  8  3  1  0  0  0  0
  9 18  1  0  0  0  0
  9  8  1  0  0  0  0
 10  9  2  0  0  0  0
 11 12  2  0  0  0  0
 11 10  1  0  0  0  0
 12 17  1  0  0  0  0
 13 14  2  0  0  0  0
 13 12  1  0  0  0  0
 14 15  1  0  0  0  0
 15 23  1  0  0  0  0
 15 16  2  0  0  0  0
 16 24  1  0  0  0  0
 17 16  1  0  0  0  0
 17  8  2  0  0  0  0
 19 10  1  0  0  0  0
 20 11  1  0  0  0  0
 21 13  1  0  0  0  0
 22 14  1  0  0  0  0
 24 26  1  0  0  0  0
 25 24  1  0  0  0  0
 27  2  1  0  0  0  0
 28 27  1  0  0  0  0
 29 28  2  0  0  0  0
 30 31  2  0  0  0  0
 30 29  1  0  0  0  0
 31 38  1  0  0  0  0
 32 33  2  0  0  0  0
 32 31  1  0  0  0  0
 33 35  1  0  0  0  0
 34 33  1  0  0  0  0
 35 36  1  0  0  0  0
 35 37  2  0  0  0  0
 38 37  1  0  0  0  0
 38 27  2  0  0  0  0
 39 42  1  0  0  0  0
 39 41  1  0  0  0  0
 39 40  1  0  0  0  0
M  END
>  <minimizedAffinity>
-5.0275774

>  <minimizedRMSD>
3.97202444

$$$$
