
 OpenBabel03242512263D

 23 25  0  0  0  0  0  0  0  0999 V2000
   37.5080   30.6000   40.4440 C   0  0  0  0  0  0  0  0  0  0  0  0
   36.3200   30.5420   39.7950 N   0  0  0  0  0  0  0  0  0  0  0  0
   35.3780   29.6350   40.0640 C   0  0  0  0  0  3  0  0  0  0  0  0
   35.5190   28.6900   41.0050 N   0  0  0  0  0  0  0  0  0  0  0  0
   36.6700   28.6780   41.6950 C   0  0  0  0  0  0  0  0  0  0  0  0
   36.8100   27.7060   42.6610 C   0  0  0  0  0  3  0  0  0  0  0  0
   37.9680   27.6350   43.4080 C   0  0  0  0  0  0  0  0  0  0  0  0
   38.0370   26.8640   44.1490 H   0  0  0  0  0  0  0  0  0  0  0  0
   38.9460   28.5750   43.1320 C   0  0  0  0  0  0  0  0  0  0  0  0
   39.8390   28.4760   43.7480 H   0  0  0  0  0  0  0  0  0  0  0  0
   38.7640   29.5290   42.1570 C   0  0  0  0  0  3  0  0  0  0  0  0
   37.6270   29.6210   41.4030 C   0  0  0  0  0  0  0  0  0  0  0  0
   39.8190   32.3780   38.3460 C   0  0  0  0  0  0  0  0  0  0  0  0
   40.4750   33.3100   39.1590 C   0  0  0  0  0  0  0  0  0  0  0  0
   40.1110   33.3390   40.5080 C   0  0  0  0  0  0  0  0  0  0  0  0
   39.1660   32.4770   40.9180 N   0  0  0  0  0  0  0  0  0  0  0  0
   38.5420   31.5920   40.1520 C   0  0  0  0  0  0  0  0  0  0  0  0
   38.9090   31.5900   38.8820 N   0  0  0  0  0  0  0  0  0  0  0  0
   40.1440   32.2920   36.9490 N   0  0  0  0  0  0  0  0  0  0  0  0
   41.2210   33.9750   38.7850 H   0  0  0  0  0  0  0  0  0  0  0  0
   40.5390   34.0040   41.2190 H   0  0  0  0  0  0  0  0  0  0  0  0
   41.1160   32.0400   36.6970 H   0  0  0  0  0  0  0  0  0  0  0  0
   39.4670   32.4670   36.1580 H   0  0  0  0  0  0  0  0  0  0  0  0
  1 12  1  0  0  0  0
  2  3  1  0  0  0  0
  2  1  2  0  0  0  0
  3  4  2  0  0  0  0
  4  5  1  0  0  0  0
  5  6  1  0  0  0  0
  6  7  2  0  0  0  0
  7  8  1  0  0  0  0
  9  7  1  0  0  0  0
  9 10  1  0  0  0  0
 11  9  2  0  0  0  0
 12  5  2  0  0  0  0
 12 11  1  0  0  0  0
 13 18  2  0  0  0  0
 13 14  1  0  0  0  0
 14 15  2  0  0  0  0
 15 16  1  0  0  0  0
 15 21  1  0  0  0  0
 17  1  1  0  0  0  0
 17 16  2  0  0  0  0
 18 17  1  0  0  0  0
 19 13  1  0  0  0  0
 20 14  1  0  0  0  0
 22 19  1  0  0  0  0
 23 19  1  0  0  0  0
M  END
>  <minimizedAffinity>
-5.56475925

$$$$

 OpenBabel03242512263D

 23 25  0  0  0  0  0  0  0  0999 V2000
   39.1670   27.9510   41.9600 C   0  0  0  0  0  0  0  0  0  0  0  0
   40.1240   28.0660   42.9120 N   0  0  0  0  0  0  0  0  0  0  0  0
   40.5240   27.0500   43.6800 C   0  0  0  0  0  3  0  0  0  0  0  0
   40.0140   25.8130   43.5810 N   0  0  0  0  0  0  0  0  0  0  0  0
   39.0590   25.6140   42.6610 C   0  0  0  0  0  0  0  0  0  0  0  0
   38.5390   24.3430   42.5630 C   0  0  0  0  0  3  0  0  0  0  0  0
   37.5530   24.0680   41.6380 C   0  0  0  0  0  0  0  0  0  0  0  0
   37.1750   23.0660   41.5950 H   0  0  0  0  0  0  0  0  0  0  0  0
   37.1360   25.1200   40.8410 C   0  0  0  0  0  0  0  0  0  0  0  0
   36.3570   24.8510   40.1280 H   0  0  0  0  0  0  0  0  0  0  0  0
   37.6840   26.3750   40.9720 C   0  0  0  0  0  3  0  0  0  0  0  0
   38.6610   26.6740   41.8800 C   0  0  0  0  0  0  0  0  0  0  0  0
   36.9250   30.5550   40.9120 C   0  0  0  0  0  0  0  0  0  0  0  0
   37.5110   31.1750   39.8020 C   0  0  0  0  0  0  0  0  0  0  0  0
   38.7470   30.6800   39.3790 C   0  0  0  0  0  0  0  0  0  0  0  0
   39.2760   29.6540   40.0660 N   0  0  0  0  0  0  0  0  0  0  0  0
   38.7250   29.0620   41.1180 C   0  0  0  0  0  0  0  0  0  0  0  0
   37.5560   29.5540   41.4920 N   0  0  0  0  0  0  0  0  0  0  0  0
   35.6540   31.0120   41.4000 N   0  0  0  0  0  0  0  0  0  0  0  0
   37.0500   31.9900   39.2890 H   0  0  0  0  0  0  0  0  0  0  0  0
   39.2860   31.0710   38.5510 H   0  0  0  0  0  0  0  0  0  0  0  0
   34.8430   30.9490   40.7600 H   0  0  0  0  0  0  0  0  0  0  0  0
   35.4810   31.4090   42.3630 H   0  0  0  0  0  0  0  0  0  0  0  0
  1  2  1  0  0  0  0
  2  3  2  0  0  0  0
  4  3  1  0  0  0  0
  5  4  2  0  0  0  0
  6  5  1  0  0  0  0
  7  6  2  0  0  0  0
  8  7  1  0  0  0  0
  9 11  2  0  0  0  0
  9  7  1  0  0  0  0
 10  9  1  0  0  0  0
 11 12  1  0  0  0  0
 12  1  2  0  0  0  0
 12  5  1  0  0  0  0
 13 19  1  0  0  0  0
 13 18  1  0  0  0  0
 14 13  2  0  0  0  0
 15 14  1  0  0  0  0
 15 16  2  0  0  0  0
 16 17  1  0  0  0  0
 17 18  2  0  0  0  0
 17  1  1  0  0  0  0
 19 23  1  0  0  0  0
 20 14  1  0  0  0  0
 21 15  1  0  0  0  0
 22 19  1  0  0  0  0
M  END
>  <minimizedAffinity>
-5.24878931

$$$$

 OpenBabel03242512263D

 23 25  0  0  0  0  0  0  0  0999 V2000
   38.4380   29.4030   40.2790 C   0  0  0  0  0  0  0  0  0  0  0  0
   38.4660   28.6850   39.1310 N   0  0  0  0  0  0  0  0  0  0  0  0
   38.0660   27.4150   39.0470 C   0  0  0  0  0  3  0  0  0  0  0  0
   37.5950   26.7260   40.0970 N   0  0  0  0  0  0  0  0  0  0  0  0
   37.5340   27.3650   41.2740 C   0  0  0  0  0  0  0  0  0  0  0  0
   37.0500   26.6530   42.3490 C   0  0  0  0  0  3  0  0  0  0  0  0
   36.9600   27.2490   43.5900 C   0  0  0  0  0  0  0  0  0  0  0  0
   36.5780   26.6600   44.4000 H   0  0  0  0  0  0  0  0  0  0  0  0
   37.3750   28.5670   43.6790 C   0  0  0  0  0  0  0  0  0  0  0  0
   37.2840   28.9910   44.6790 H   0  0  0  0  0  0  0  0  0  0  0  0
   37.8530   29.2410   42.5790 C   0  0  0  0  0  3  0  0  0  0  0  0
   37.9520   28.6730   41.3390 C   0  0  0  0  0  0  0  0  0  0  0  0
   38.0420   32.9680   40.0620 C   0  0  0  0  0  0  0  0  0  0  0  0
   39.2700   33.5370   40.4210 C   0  0  0  0  0  0  0  0  0  0  0  0
   40.3010   32.6570   40.7590 C   0  0  0  0  0  0  0  0  0  0  0  0
   40.0370   31.3400   40.7150 N   0  0  0  0  0  0  0  0  0  0  0  0
   38.8770   30.7950   40.3750 C   0  0  0  0  0  0  0  0  0  0  0  0
   37.9230   31.6550   40.0600 N   0  0  0  0  0  0  0  0  0  0  0  0
   36.9380   33.8130   39.7010 N   0  0  0  0  0  0  0  0  0  0  0  0
   39.4300   34.5920   40.4410 H   0  0  0  0  0  0  0  0  0  0  0  0
   41.2740   32.9730   41.0480 H   0  0  0  0  0  0  0  0  0  0  0  0
   37.0550   34.4280   38.8760 H   0  0  0  0  0  0  0  0  0  0  0  0
   36.0160   33.8560   40.2120 H   0  0  0  0  0  0  0  0  0  0  0  0
  1 17  1  0  0  0  0
  1 12  1  0  0  0  0
  2  1  2  0  0  0  0
  3  2  1  0  0  0  0
  3  4  2  0  0  0  0
  4  5  1  0  0  0  0
  5 12  2  0  0  0  0
  5  6  1  0  0  0  0
  6  7  2  0  0  0  0
  7  9  1  0  0  0  0
  7  8  1  0  0  0  0
  9 10  1  0  0  0  0
 11  9  2  0  0  0  0
 12 11  1  0  0  0  0
 13 14  1  0  0  0  0
 14 20  1  0  0  0  0
 14 15  2  0  0  0  0
 15 21  1  0  0  0  0
 16 15  1  0  0  0  0
 17 16  2  0  0  0  0
 18 13  2  0  0  0  0
 18 17  1  0  0  0  0
 19 13  1  0  0  0  0
 19 23  1  0  0  0  0
 22 19  1  0  0  0  0
M  END
>  <minimizedAffinity>
-5.18726444

$$$$

 OpenBabel03242512263D

 23 25  0  0  0  0  0  0  0  0999 V2000
   39.1760   29.7330   41.0070 C   0  0  0  0  0  0  0  0  0  0  0  0
   40.4730   29.8370   41.3840 N   0  0  0  0  0  0  0  0  0  0  0  0
   40.9930   29.1780   42.4220 C   0  0  0  0  0  3  0  0  0  0  0  0
   40.2770   28.3460   43.1920 N   0  0  0  0  0  0  0  0  0  0  0  0
   38.9810   28.1860   42.8850 C   0  0  0  0  0  0  0  0  0  0  0  0
   38.2500   27.3300   43.6800 C   0  0  0  0  0  3  0  0  0  0  0  0
   36.9120   27.1190   43.4210 C   0  0  0  0  0  0  0  0  0  0  0  0
   36.3800   26.4460   44.0630 H   0  0  0  0  0  0  0  0  0  0  0  0
   36.3710   27.8020   42.3450 C   0  0  0  0  0  0  0  0  0  0  0  0
   35.3120   27.6010   42.1830 H   0  0  0  0  0  0  0  0  0  0  0  0
   37.1380   28.6480   41.5770 C   0  0  0  0  0  3  0  0  0  0  0  0
   38.4660   28.8740   41.8130 C   0  0  0  0  0  0  0  0  0  0  0  0
   37.5570   32.4990   39.3840 C   0  0  0  0  0  0  0  0  0  0  0  0
   37.4270   32.1600   38.0320 C   0  0  0  0  0  0  0  0  0  0  0  0
   37.9210   30.9120   37.6420 C   0  0  0  0  0  0  0  0  0  0  0  0
   38.4780   30.1380   38.5880 N   0  0  0  0  0  0  0  0  0  0  0  0
   38.6030   30.4540   39.8710 C   0  0  0  0  0  0  0  0  0  0  0  0
   38.1260   31.6410   40.2060 N   0  0  0  0  0  0  0  0  0  0  0  0
   37.0710   33.7660   39.8550 N   0  0  0  0  0  0  0  0  0  0  0  0
   36.9750   32.8100   37.3160 H   0  0  0  0  0  0  0  0  0  0  0  0
   37.8790   30.5470   36.6440 H   0  0  0  0  0  0  0  0  0  0  0  0
   36.0580   33.9570   39.7580 H   0  0  0  0  0  0  0  0  0  0  0  0
   37.6670   34.5200   40.2920 H   0  0  0  0  0  0  0  0  0  0  0  0
  1  2  2  0  0  0  0
  1 12  1  0  0  0  0
  2  3  1  0  0  0  0
  3  4  2  0  0  0  0
  5  4  1  0  0  0  0
  5  6  1  0  0  0  0
  7  6  2  0  0  0  0
  7  8  1  0  0  0  0
  9  7  1  0  0  0  0
 10  9  1  0  0  0  0
 11 12  1  0  0  0  0
 11  9  2  0  0  0  0
 12  5  2  0  0  0  0
 13 19  1  0  0  0  0
 13 18  1  0  0  0  0
 14 13  2  0  0  0  0
 15 14  1  0  0  0  0
 15 16  2  0  0  0  0
 16 17  1  0  0  0  0
 17 18  2  0  0  0  0
 17  1  1  0  0  0  0
 19 23  1  0  0  0  0
 20 14  1  0  0  0  0
 21 15  1  0  0  0  0
 22 19  1  0  0  0  0
M  END
>  <minimizedAffinity>
-5.10068321

$$$$

 OpenBabel03242512263D

 23 25  0  0  0  0  0  0  0  0999 V2000
   38.5930   31.0090   41.2450 C   0  0  0  0  0  0  0  0  0  0  0  0
   37.4230   31.3900   40.6790 N   0  0  0  0  0  0  0  0  0  0  0  0
   37.2710   32.5280   39.9970 C   0  0  0  0  0  3  0  0  0  0  0  0
   38.2670   33.4060   39.8080 N   0  0  0  0  0  0  0  0  0  0  0  0
   39.4620   33.1030   40.3380 C   0  0  0  0  0  0  0  0  0  0  0  0
   40.4820   34.0080   40.1400 C   0  0  0  0  0  3  0  0  0  0  0  0
   41.7360   33.7600   40.6580 C   0  0  0  0  0  0  0  0  0  0  0  0
   42.5010   34.4890   40.4820 H   0  0  0  0  0  0  0  0  0  0  0  0
   41.8960   32.5810   41.3640 C   0  0  0  0  0  0  0  0  0  0  0  0
   42.9040   32.4320   41.7520 H   0  0  0  0  0  0  0  0  0  0  0  0
   40.8490   31.7040   41.5380 C   0  0  0  0  0  3  0  0  0  0  0  0
   39.5970   31.9270   41.0360 C   0  0  0  0  0  0  0  0  0  0  0  0
   37.4880   28.2010   43.1940 C   0  0  0  0  0  0  0  0  0  0  0  0
   38.6220   27.4290   43.4760 C   0  0  0  0  0  0  0  0  0  0  0  0
   39.8420   27.8880   42.9730 C   0  0  0  0  0  0  0  0  0  0  0  0
   39.8340   29.0280   42.2620 N   0  0  0  0  0  0  0  0  0  0  0  0
   38.7640   29.7640   41.9920 C   0  0  0  0  0  0  0  0  0  0  0  0
   37.6260   29.3020   42.4820 N   0  0  0  0  0  0  0  0  0  0  0  0
   36.2010   27.7880   43.6800 N   0  0  0  0  0  0  0  0  0  0  0  0
   38.5760   26.5280   44.0460 H   0  0  0  0  0  0  0  0  0  0  0  0
   40.7670   27.3860   43.1220 H   0  0  0  0  0  0  0  0  0  0  0  0
   36.0740   27.7220   44.7050 H   0  0  0  0  0  0  0  0  0  0  0  0
   35.3720   27.5470   43.0720 H   0  0  0  0  0  0  0  0  0  0  0  0
  1 17  1  0  0  0  0
  2  1  2  0  0  0  0
  3  2  1  0  0  0  0
  4  3  2  0  0  0  0
  4  5  1  0  0  0  0
  5 12  1  0  0  0  0
  6  5  2  0  0  0  0
  6  7  1  0  0  0  0
  7  9  2  0  0  0  0
  8  7  1  0  0  0  0
  9 11  1  0  0  0  0
  9 10  1  0  0  0  0
 12  1  1  0  0  0  0
 12 11  2  0  0  0  0
 13 14  1  0  0  0  0
 13 19  1  0  0  0  0
 14 20  1  0  0  0  0
 15 21  1  0  0  0  0
 15 14  2  0  0  0  0
 16 15  1  0  0  0  0
 17 16  2  0  0  0  0
 17 18  1  0  0  0  0
 18 13  2  0  0  0  0
 19 22  1  0  0  0  0
 23 19  1  0  0  0  0
M  END
>  <minimizedAffinity>
-5.01528788

$$$$

 OpenBabel03242512263D

 23 25  0  0  0  0  0  0  0  0999 V2000
   38.1320   29.3640   41.7300 C   0  0  0  0  0  0  0  0  0  0  0  0
   37.8830   29.3150   43.0600 N   0  0  0  0  0  0  0  0  0  0  0  0
   37.3800   28.2430   43.6770 C   0  0  0  0  0  3  0  0  0  0  0  0
   37.0730   27.1070   43.0340 N   0  0  0  0  0  0  0  0  0  0  0  0
   37.2890   27.0730   41.7100 C   0  0  0  0  0  0  0  0  0  0  0  0
   36.9720   25.9030   41.0540 C   0  0  0  0  0  3  0  0  0  0  0  0
   37.1680   25.7990   39.6930 C   0  0  0  0  0  0  0  0  0  0  0  0
   36.9080   24.8720   39.2210 H   0  0  0  0  0  0  0  0  0  0  0  0
   37.6900   26.9090   39.0520 C   0  0  0  0  0  0  0  0  0  0  0  0
   37.8260   26.7750   37.9790 H   0  0  0  0  0  0  0  0  0  0  0  0
   37.9930   28.0580   39.7460 C   0  0  0  0  0  3  0  0  0  0  0  0
   37.8070   28.1870   41.0950 C   0  0  0  0  0  0  0  0  0  0  0  0
   37.9780   32.5930   40.1630 C   0  0  0  0  0  0  0  0  0  0  0  0
   39.2810   32.9170   39.7670 C   0  0  0  0  0  0  0  0  0  0  0  0
   40.2790   31.9810   40.0490 C   0  0  0  0  0  0  0  0  0  0  0  0
   39.9140   30.8500   40.6740 N   0  0  0  0  0  0  0  0  0  0  0  0
   38.6820   30.5370   41.0510 C   0  0  0  0  0  0  0  0  0  0  0  0
   37.7610   31.4430   40.7690 N   0  0  0  0  0  0  0  0  0  0  0  0
   36.9020   33.5090   39.9040 N   0  0  0  0  0  0  0  0  0  0  0  0
   39.5210   33.8320   39.2720 H   0  0  0  0  0  0  0  0  0  0  0  0
   41.3030   32.1180   39.7970 H   0  0  0  0  0  0  0  0  0  0  0  0
   36.6950   33.7400   38.9160 H   0  0  0  0  0  0  0  0  0  0  0  0
   36.3030   33.9660   40.6440 H   0  0  0  0  0  0  0  0  0  0  0  0
  1  2  1  0  0  0  0
  2  3  2  0  0  0  0
  4  3  1  0  0  0  0
  5  4  2  0  0  0  0
  6  5  1  0  0  0  0
  7  6  2  0  0  0  0
  8  7  1  0  0  0  0
  9  7  1  0  0  0  0
  9 11  2  0  0  0  0
 10  9  1  0  0  0  0
 11 12  1  0  0  0  0
 12  5  1  0  0  0  0
 12  1  2  0  0  0  0
 13 18  1  0  0  0  0
 14 15  1  0  0  0  0
 14 13  2  0  0  0  0
 15 16  2  0  0  0  0
 16 17  1  0  0  0  0
 17  1  1  0  0  0  0
 18 17  2  0  0  0  0
 19 13  1  0  0  0  0
 19 23  1  0  0  0  0
 20 14  1  0  0  0  0
 21 15  1  0  0  0  0
 22 19  1  0  0  0  0
M  END
>  <minimizedAffinity>
-4.91250801

$$$$

 OpenBabel03242512263D

 23 25  0  0  0  0  0  0  0  0999 V2000
   39.5320   29.6340   40.4150 C   0  0  0  0  0  0  0  0  0  0  0  0
   40.6630   29.2420   39.7820 N   0  0  0  0  0  0  0  0  0  0  0  0
   41.3830   28.1800   40.1500 C   0  0  0  0  0  3  0  0  0  0  0  0
   41.0530   27.3970   41.1870 N   0  0  0  0  0  0  0  0  0  0  0  0
   39.9430   27.7160   41.8700 C   0  0  0  0  0  0  0  0  0  0  0  0
   39.6080   26.9080   42.9330 C   0  0  0  0  0  3  0  0  0  0  0  0
   38.4800   27.1790   43.6790 C   0  0  0  0  0  0  0  0  0  0  0  0
   38.2550   26.5260   44.4990 H   0  0  0  0  0  0  0  0  0  0  0  0
   37.7310   28.2800   43.2990 C   0  0  0  0  0  0  0  0  0  0  0  0
   36.8510   28.4500   43.9190 H   0  0  0  0  0  0  0  0  0  0  0  0
   38.1030   29.0600   42.2290 C   0  0  0  0  0  3  0  0  0  0  0  0
   39.2160   28.8140   41.4740 C   0  0  0  0  0  0  0  0  0  0  0  0
   38.4500   33.0550   40.5880 C   0  0  0  0  0  0  0  0  0  0  0  0
   37.4740   33.2250   39.5980 C   0  0  0  0  0  0  0  0  0  0  0  0
   37.1620   32.1080   38.8190 C   0  0  0  0  0  0  0  0  0  0  0  0
   37.8160   30.9640   39.0780 N   0  0  0  0  0  0  0  0  0  0  0  0
   38.7400   30.7970   40.0150 C   0  0  0  0  0  0  0  0  0  0  0  0
   39.0130   31.8720   40.7340 N   0  0  0  0  0  0  0  0  0  0  0  0
   38.8210   34.1610   41.4260 N   0  0  0  0  0  0  0  0  0  0  0  0
   36.9820   34.1570   39.4300 H   0  0  0  0  0  0  0  0  0  0  0  0
   36.4390   32.1170   38.0390 H   0  0  0  0  0  0  0  0  0  0  0  0
   38.0850   34.5780   42.0230 H   0  0  0  0  0  0  0  0  0  0  0  0
   39.7870   34.5840   41.4800 H   0  0  0  0  0  0  0  0  0  0  0  0
  1 12  1  0  0  0  0
  2  3  1  0  0  0  0
  2  1  2  0  0  0  0
  3  4  2  0  0  0  0
  4  5  1  0  0  0  0
  5  6  1  0  0  0  0
  6  7  2  0  0  0  0
  7  8  1  0  0  0  0
  9  7  1  0  0  0  0
  9 10  1  0  0  0  0
 11  9  2  0  0  0  0
 12  5  2  0  0  0  0
 12 11  1  0  0  0  0
 13 18  1  0  0  0  0
 13 19  1  0  0  0  0
 14 13  2  0  0  0  0
 15 16  2  0  0  0  0
 15 14  1  0  0  0  0
 16 17  1  0  0  0  0
 17  1  1  0  0  0  0
 17 18  2  0  0  0  0
 19 23  1  0  0  0  0
 19 22  1  0  0  0  0
 20 14  1  0  0  0  0
 21 15  1  0  0  0  0
M  END
>  <minimizedAffinity>
-4.90979481

$$$$

 OpenBabel03242512263D

 23 25  0  0  0  0  0  0  0  0999 V2000
   37.0540   28.3290   40.6770 C   0  0  0  0  0  0  0  0  0  0  0  0
   37.2680   29.0320   41.8150 N   0  0  0  0  0  0  0  0  0  0  0  0
   37.3760   28.4680   43.0200 C   0  0  0  0  0  3  0  0  0  0  0  0
   37.2820   27.1450   43.2190 N   0  0  0  0  0  0  0  0  0  0  0  0
   37.0690   26.3750   42.1410 C   0  0  0  0  0  0  0  0  0  0  0  0
   36.9740   25.0170   42.3510 C   0  0  0  0  0  3  0  0  0  0  0  0
   36.7550   24.1660   41.2880 C   0  0  0  0  0  0  0  0  0  0  0  0
   36.6860   23.1170   41.4930 H   0  0  0  0  0  0  0  0  0  0  0  0
   36.6430   24.7490   40.0370 C   0  0  0  0  0  0  0  0  0  0  0  0
   36.4710   24.0350   39.2310 H   0  0  0  0  0  0  0  0  0  0  0  0
   36.7450   26.1120   39.8720 C   0  0  0  0  0  3  0  0  0  0  0  0
   36.9610   26.9760   40.9100 C   0  0  0  0  0  0  0  0  0  0  0  0
   38.2780   29.9590   37.7190 C   0  0  0  0  0  0  0  0  0  0  0  0
   37.1740   30.1710   36.8840 C   0  0  0  0  0  0  0  0  0  0  0  0
   35.9320   29.7340   37.3530 C   0  0  0  0  0  0  0  0  0  0  0  0
   35.8930   29.1470   38.5600 N   0  0  0  0  0  0  0  0  0  0  0  0
   36.9350   28.9430   39.3560 C   0  0  0  0  0  0  0  0  0  0  0  0
   38.0940   29.3690   38.8830 N   0  0  0  0  0  0  0  0  0  0  0  0
   39.5850   30.3840   37.3010 N   0  0  0  0  0  0  0  0  0  0  0  0
   37.2570   30.6440   35.9310 H   0  0  0  0  0  0  0  0  0  0  0  0
   35.0260   29.8400   36.8070 H   0  0  0  0  0  0  0  0  0  0  0  0
   39.7290   31.3950   37.1320 H   0  0  0  0  0  0  0  0  0  0  0  0
   40.4110   29.7440   37.1520 H   0  0  0  0  0  0  0  0  0  0  0  0
  1 12  2  0  0  0  0
  1  2  1  0  0  0  0
  2  3  2  0  0  0  0
  3  4  1  0  0  0  0
  5  6  1  0  0  0  0
  5  4  2  0  0  0  0
  7  8  1  0  0  0  0
  7  6  2  0  0  0  0
  9  7  1  0  0  0  0
 10  9  1  0  0  0  0
 11  9  2  0  0  0  0
 11 12  1  0  0  0  0
 12  5  1  0  0  0  0
 13 18  1  0  0  0  0
 14 15  1  0  0  0  0
 14 13  2  0  0  0  0
 15 16  2  0  0  0  0
 16 17  1  0  0  0  0
 17  1  1  0  0  0  0
 18 17  2  0  0  0  0
 19 13  1  0  0  0  0
 20 14  1  0  0  0  0
 21 15  1  0  0  0  0
 22 19  1  0  0  0  0
 23 19  1  0  0  0  0
M  END
>  <minimizedAffinity>
-4.85058212

$$$$

 OpenBabel03242512263D

 23 25  0  0  0  0  0  0  0  0999 V2000
   36.3600   27.8020   39.2030 C   0  0  0  0  0  0  0  0  0  0  0  0
   35.9710   27.3730   37.9780 N   0  0  0  0  0  0  0  0  0  0  0  0
   35.8360   26.0850   37.6580 C   0  0  0  0  0  3  0  0  0  0  0  0
   36.0740   25.0870   38.5220 N   0  0  0  0  0  0  0  0  0  0  0  0
   36.4640   25.4270   39.7600 C   0  0  0  0  0  0  0  0  0  0  0  0
   36.7060   24.3990   40.6440 C   0  0  0  0  0  3  0  0  0  0  0  0
   37.1110   24.6760   41.9330 C   0  0  0  0  0  0  0  0  0  0  0  0
   37.2890   23.8480   42.5900 H   0  0  0  0  0  0  0  0  0  0  0  0
   37.2510   26.0120   42.2680 C   0  0  0  0  0  0  0  0  0  0  0  0
   37.5720   26.1780   43.2970 H   0  0  0  0  0  0  0  0  0  0  0  0
   36.9980   27.0080   41.3530 C   0  0  0  0  0  3  0  0  0  0  0  0
   36.5970   26.7600   40.0690 C   0  0  0  0  0  0  0  0  0  0  0  0
   37.3000   31.2230   38.6380 C   0  0  0  0  0  0  0  0  0  0  0  0
   36.9760   31.9330   39.8000 C   0  0  0  0  0  0  0  0  0  0  0  0
   36.4000   31.2060   40.8450 C   0  0  0  0  0  0  0  0  0  0  0  0
   36.2030   29.8910   40.6560 N   0  0  0  0  0  0  0  0  0  0  0  0
   36.5090   29.2130   39.5580 C   0  0  0  0  0  0  0  0  0  0  0  0
   37.0520   29.9290   38.5890 N   0  0  0  0  0  0  0  0  0  0  0  0
   37.8960   31.9060   37.5230 N   0  0  0  0  0  0  0  0  0  0  0  0
   37.1520   32.9800   39.9020 H   0  0  0  0  0  0  0  0  0  0  0  0
   36.1110   31.6370   41.7730 H   0  0  0  0  0  0  0  0  0  0  0  0
   38.8150   32.3580   37.6730 H   0  0  0  0  0  0  0  0  0  0  0  0
   37.4680   31.9840   36.5610 H   0  0  0  0  0  0  0  0  0  0  0  0
  1 17  1  0  0  0  0
  1 12  1  0  0  0  0
  2  1  2  0  0  0  0
  3  2  1  0  0  0  0
  3  4  2  0  0  0  0
  4  5  1  0  0  0  0
  5 12  2  0  0  0  0
  5  6  1  0  0  0  0
  6  7  2  0  0  0  0
  7  9  1  0  0  0  0
  7  8  1  0  0  0  0
  9 10  1  0  0  0  0
 11  9  2  0  0  0  0
 12 11  1  0  0  0  0
 13 14  1  0  0  0  0
 14 20  1  0  0  0  0
 14 15  2  0  0  0  0
 15 21  1  0  0  0  0
 16 15  1  0  0  0  0
 17 16  2  0  0  0  0
 18 13  2  0  0  0  0
 18 17  1  0  0  0  0
 19 22  1  0  0  0  0
 19 13  1  0  0  0  0
 23 19  1  0  0  0  0
M  END
>  <minimizedAffinity>
-4.83141899

$$$$
