
 OpenBabel03252509243D

 30 33  0  0  1  0  0  0  0  0999 V2000
   46.7160   34.8260   41.9710 C   0  0  1  0  0  0  0  0  0  0  0  0
   48.1630   35.3770   42.0430 C   0  0  0  0  0  0  0  0  0  0  0  0
   47.7560   33.9220   41.6460 C   0  0  2  0  0  0  0  0  0  0  0  0
   46.0870   35.3480   41.2290 H   0  0  0  0  0  0  0  0  0  0  0  0
   48.6430   35.5070   43.0070 H   0  0  0  0  0  0  0  0  0  0  0  0
   48.4370   36.0420   41.2280 H   0  0  0  0  0  0  0  0  0  0  0  0
   48.0630   33.1640   42.4240 H   0  0  0  0  0  0  0  0  0  0  0  0
   48.1980   33.5520   40.3000 C   0  0  0  0  0  0  0  0  0  0  0  0
   47.6970   34.2480   39.2520 N   0  0  0  0  0  0  0  0  0  0  0  0
   48.0940   33.9170   38.0050 C   0  0  0  0  0  3  0  0  0  0  0  0
   48.9730   32.9230   37.7240 N   0  0  0  0  0  0  0  0  0  0  0  0
   49.4980   32.2020   38.7450 C   0  0  0  0  0  0  0  0  0  0  0  0
   50.4000   31.1720   38.5660 C   0  0  0  0  0  3  0  0  0  0  0  0
   50.9200   30.4550   39.6230 C   0  0  0  0  0  0  0  0  0  0  0  0
   51.6250   29.6490   39.4900 H   0  0  0  0  0  0  0  0  0  0  0  0
   50.5180   30.7860   40.9080 C   0  0  0  0  0  0  0  0  0  0  0  0
   50.9250   30.2250   41.7330 H   0  0  0  0  0  0  0  0  0  0  0  0
   49.6220   31.8140   41.0550 C   0  0  0  0  0  3  0  0  0  0  0  0
   49.0910   32.5420   40.0110 C   0  0  0  0  0  0  0  0  0  0  0  0
   44.5670   35.5440   44.9740 C   0  0  0  0  0  0  0  0  0  0  0  0
   45.1330   35.6950   43.6810 C   0  0  0  0  0  0  0  0  0  0  0  0
   46.1100   34.7850   43.3570 C   0  0  0  0  0  0  0  0  0  0  0  0
   46.4960   33.7980   44.2550 N   0  0  0  0  0  0  0  0  0  0  0  0
   45.9300   33.6970   45.4650 C   0  0  0  0  0  0  0  0  0  0  0  0
   44.9580   34.5810   45.8210 N   0  0  0  0  0  0  0  0  0  0  0  0
   43.7910   36.2500   45.2570 H   0  0  0  0  0  0  0  0  0  0  0  0
   46.3150   32.8990   46.0570 H   0  0  0  0  0  0  0  0  0  0  0  0
   44.7520   36.7300   42.7720 N   0  0  0  0  0  0  0  0  0  0  0  0
   45.4910   37.4270   43.0360 H   0  0  0  0  0  0  0  0  0  0  0  0
   43.9630   36.7100   42.0880 H   0  0  0  0  0  0  0  0  0  0  0  0
  1  4  1  6  0  0  0
  1  2  1  0  0  0  0
  1 22  1  0  0  0  0
  2  5  1  0  0  0  0
  3  1  1  0  0  0  0
  3  2  1  0  0  0  0
  3  7  1  1  0  0  0
  6  2  1  0  0  0  0
  8  3  1  0  0  0  0
  9  8  2  0  0  0  0
 10  9  1  0  0  0  0
 11 10  2  0  0  0  0
 11 12  1  0  0  0  0
 12 19  1  0  0  0  0
 13 12  2  0  0  0  0
 13 14  1  0  0  0  0
 14 16  2  0  0  0  0
 15 14  1  0  0  0  0
 16 18  1  0  0  0  0
 16 17  1  0  0  0  0
 19  8  1  0  0  0  0
 19 18  2  0  0  0  0
 20 26  1  0  0  0  0
 20 25  1  0  0  0  0
 21 20  2  0  0  0  0
 22 21  1  0  0  0  0
 22 23  2  0  0  0  0
 23 24  1  0  0  0  0
 24 25  2  0  0  0  0
 24 27  1  0  0  0  0
 28 29  1  0  0  0  0
 28 21  1  0  0  0  0
 30 28  1  0  0  0  0
M  END
>  <minimizedAffinity>
-5.39775276

>  <minimizedRMSD>
0.811309218

$$$$
