
 OpenBabel03242515443D

 41 46  0  0  1  0  0  0  0  0999 V2000
   38.7400   29.0580   40.1990 C   0  0  0  0  0  0  0  0  0  0  0  0
   38.4440   28.5900   41.4310 C   0  0  0  0  0  0  0  0  0  0  0  0
   37.4670   29.2990   42.1700 C   0  0  0  0  0  0  0  0  0  0  0  0
   36.8810   30.3870   41.6350 N   0  0  0  0  0  0  0  0  0  0  0  0
   37.2100   30.8110   40.4110 C   0  0  0  0  0  0  0  0  0  0  0  0
   38.1210   30.1240   39.7610 N   0  0  0  0  0  0  0  0  0  0  0  0
   38.9270   27.4840   42.1800 C   0  0  2  0  0  3  0  0  0  0  0  0
   39.3630   26.5220   42.8290 N   0  0  0  0  0  0  0  0  0  0  0  0
   40.0200   25.8590   43.6240 C   0  0  0  0  0  3  0  0  0  0  0  0
   39.3030   24.8170   43.1770 N   0  0  0  0  0  0  0  0  0  0  0  0
   38.3490   24.9260   42.2210 C   0  0  0  0  0  0  0  0  0  0  0  0
   37.6810   23.7760   41.7160 C   0  0  0  0  0  3  0  0  0  0  0  0
   36.8210   23.9870   40.6780 C   0  0  0  0  0  0  0  0  0  0  0  0
   36.3860   23.0490   40.3950 H   0  0  0  0  0  0  0  0  0  0  0  0
   36.5290   25.1810   40.0640 C   0  0  0  0  0  0  0  0  0  0  0  0
   35.8610   25.2780   39.2670 H   0  0  0  0  0  0  0  0  0  0  0  0
   37.2560   26.2170   40.6670 C   0  0  0  0  0  2  0  0  0  0  0  0
   38.2090   26.2590   41.7660 C   0  0  1  0  0  0  0  0  0  0  0  0
   37.1520   28.9250   43.5240 N   0  0  0  0  0  0  0  0  0  0  0  0
   37.7140   28.4380   44.2500 H   0  0  0  0  0  0  0  0  0  0  0  0
   36.1820   29.1820   43.8680 H   0  0  0  0  0  0  0  0  0  0  0  0
   39.9770   28.1030   39.2870 S   0  0  0  0  0  0  0  0  0  0  0  0
   41.4710   28.8030   37.2060 C   0  0  0  0  0  0  0  0  0  0  0  0
   41.1440   29.1880   38.4950 C   0  0  0  0  0  0  0  0  0  0  0  0
   41.6870   30.3220   39.0330 C   0  0  0  0  0  0  0  0  0  0  0  0
   42.5650   31.1260   38.3440 C   0  0  0  0  0  0  0  0  0  0  0  0
   42.8960   30.7390   37.0430 C   0  0  0  0  0  0  0  0  0  0  0  0
   42.3690   29.5990   36.4630 C   0  0  0  0  0  0  0  0  0  0  0  0
   43.8030   31.7010   36.5300 O   0  0  0  0  0  0  0  0  0  0  0  0
   44.2420   32.4390   37.6230 C   0  0  0  0  0  0  0  0  0  0  0  0
   43.2520   32.2990   38.6220 O   0  0  0  0  0  0  0  0  0  0  0  0
   41.0980   27.9210   36.6840 H   0  0  0  0  0  0  0  0  0  0  0  0
   41.3950   30.5590   40.0280 H   0  0  0  0  0  0  0  0  0  0  0  0
   42.6450   29.3140   35.4390 H   0  0  0  0  0  0  0  0  0  0  0  0
   44.2600   33.5150   37.3320 H   0  0  0  0  0  0  0  0  0  0  0  0
   45.2490   32.1530   37.9860 H   0  0  0  0  0  0  0  0  0  0  0  0
   36.6680   31.9090   39.7920 O   0  0  0  0  0  0  0  0  0  0  0  0
   37.4800   33.0460   39.6040 C   0  0  0  0  0  0  0  0  0  0  0  0
   36.7440   34.1610   39.2880 F   0  0  0  0  0  0  0  0  0  0  0  0
   38.2040   33.2210   40.7880 F   0  0  0  0  0  0  0  0  0  0  0  0
   38.3380   32.7800   38.5420 F   0  0  0  0  0  0  0  0  0  0  0  0
  1  2  1  0  0  0  0
  2  3  2  0  0  0  0
  3 19  1  0  0  0  0
  4  3  1  0  0  0  0
  5  4  2  0  0  0  0
  6  1  2  0  0  0  0
  6  5  1  0  0  0  0
  7  2  1  6  0  0  0
  7  8  1  0  0  0  0
  8  9  1  0  0  0  0
 10  9  2  0  0  0  0
 11 10  1  0  0  0  0
 12 11  2  0  0  0  0
 13 12  1  0  0  0  0
 14 13  1  0  0  0  0
 15 17  1  0  0  0  0
 15 13  2  0  0  0  0
 16 15  1  0  0  0  0
 18 17  1  6  0  0  0
 18  7  1  0  0  0  0
 18 11  1  0  0  0  0
 18  8  1  0  0  0  0
 19 21  1  0  0  0  0
 19 20  1  0  0  0  0
 22  1  1  0  0  0  0
 23 24  1  0  0  0  0
 24 25  2  0  0  0  0
 24 22  1  0  0  0  0
 25 33  1  0  0  0  0
 26 31  1  0  0  0  0
 26 25  1  0  0  0  0
 27 26  2  0  0  0  0
 28 27  1  0  0  0  0
 28 23  2  0  0  0  0
 29 27  1  0  0  0  0
 29 30  1  0  0  0  0
 30 36  1  0  0  0  0
 30 31  1  0  0  0  0
 32 23  1  0  0  0  0
 34 28  1  0  0  0  0
 35 30  1  0  0  0  0
 37  5  1  0  0  0  0
 38 37  1  0  0  0  0
 38 40  1  0  0  0  0
 39 38  1  0  0  0  0
 41 38  1  0  0  0  0
M  END
>  <minimizedAffinity>
-6.78479767

$$$$

 OpenBabel03242515443D

 41 46  0  0  1  0  0  0  0  0999 V2000
   37.5280   28.9800   38.0700 C   0  0  0  0  0  0  0  0  0  0  0  0
   36.7060   28.9890   39.1410 C   0  0  0  0  0  0  0  0  0  0  0  0
   35.3220   29.1370   38.8880 C   0  0  0  0  0  0  0  0  0  0  0  0
   34.8810   29.2620   37.6220 N   0  0  0  0  0  0  0  0  0  0  0  0
   35.7350   29.2490   36.5940 C   0  0  0  0  0  0  0  0  0  0  0  0
   37.0110   29.1090   36.8750 N   0  0  0  0  0  0  0  0  0  0  0  0
   36.9460   28.8740   40.5360 C   0  0  2  0  0  3  0  0  0  0  0  0
   37.1690   28.7820   41.7520 N   0  0  0  0  0  0  0  0  0  0  0  0
   37.4190   29.0850   42.9140 C   0  0  0  0  0  3  0  0  0  0  0  0
   37.3350   27.7690   43.1590 N   0  0  0  0  0  0  0  0  0  0  0  0
   37.0670   26.8490   42.2000 C   0  0  0  0  0  0  0  0  0  0  0  0
   37.0790   25.4580   42.4930 C   0  0  0  0  0  3  0  0  0  0  0  0
   36.9070   24.6170   41.4310 C   0  0  0  0  0  0  0  0  0  0  0  0
   36.9350   23.6060   41.7840 H   0  0  0  0  0  0  0  0  0  0  0  0
   36.7250   24.9620   40.1130 C   0  0  0  0  0  0  0  0  0  0  0  0
   36.6020   24.2690   39.3420 H   0  0  0  0  0  0  0  0  0  0  0  0
   36.7330   26.3580   39.9800 C   0  0  0  0  0  2  0  0  0  0  0  0
   36.8870   27.4500   40.9300 C   0  0  1  0  0  0  0  0  0  0  0  0
   34.3810   29.2440   39.9730 N   0  0  0  0  0  0  0  0  0  0  0  0
   34.4970   29.5770   40.9510 H   0  0  0  0  0  0  0  0  0  0  0  0
   33.3870   28.9390   39.7640 H   0  0  0  0  0  0  0  0  0  0  0  0
   39.2850   28.7650   38.4440 S   0  0  0  0  0  0  0  0  0  0  0  0
   39.8140   31.0650   39.6610 C   0  0  0  0  0  0  0  0  0  0  0  0
   40.1050   30.3420   38.5180 C   0  0  0  0  0  0  0  0  0  0  0  0
   40.9720   30.8450   37.5880 C   0  0  0  0  0  0  0  0  0  0  0  0
   41.5910   32.0660   37.7300 C   0  0  0  0  0  0  0  0  0  0  0  0
   41.2970   32.7980   38.8830 C   0  0  0  0  0  0  0  0  0  0  0  0
   40.4250   32.3240   39.8470 C   0  0  0  0  0  0  0  0  0  0  0  0
   42.0350   34.0060   38.8210 O   0  0  0  0  0  0  0  0  0  0  0  0
   42.4830   34.1180   37.5100 C   0  0  0  0  0  0  0  0  0  0  0  0
   42.4890   32.8090   36.9780 O   0  0  0  0  0  0  0  0  0  0  0  0
   39.1390   30.7590   40.4620 H   0  0  0  0  0  0  0  0  0  0  0  0
   41.1510   30.2390   36.7320 H   0  0  0  0  0  0  0  0  0  0  0  0
   40.2090   32.9170   40.7460 H   0  0  0  0  0  0  0  0  0  0  0  0
   43.5420   34.4660   37.5310 H   0  0  0  0  0  0  0  0  0  0  0  0
   41.8910   34.8210   36.8890 H   0  0  0  0  0  0  0  0  0  0  0  0
   35.3760   29.3730   35.2760 O   0  0  0  0  0  0  0  0  0  0  0  0
   36.0960   30.2720   34.4630 C   0  0  0  0  0  0  0  0  0  0  0  0
   36.8090   31.1820   35.2040 F   0  0  0  0  0  0  0  0  0  0  0  0
   36.9290   29.4970   33.6500 F   0  0  0  0  0  0  0  0  0  0  0  0
   35.1740   30.9720   33.6920 F   0  0  0  0  0  0  0  0  0  0  0  0
  1 22  1  0  0  0  0
  1  2  1  0  0  0  0
  3  2  2  0  0  0  0
  3 19  1  0  0  0  0
  4  3  1  0  0  0  0
  5  6  1  0  0  0  0
  5  4  2  0  0  0  0
  6  1  2  0  0  0  0
  7  2  1  6  0  0  0
  7 18  1  0  0  0  0
  7  8  1  0  0  0  0
  8  9  1  0  0  0  0
  9 10  2  0  0  0  0
 11 12  2  0  0  0  0
 11 10  1  0  0  0  0
 13 14  1  0  0  0  0
 13 12  1  0  0  0  0
 15 13  2  0  0  0  0
 16 15  1  0  0  0  0
 17 15  1  0  0  0  0
 18 17  1  6  0  0  0
 18  8  1  0  0  0  0
 18 11  1  0  0  0  0
 19 20  1  0  0  0  0
 21 19  1  0  0  0  0
 22 24  1  0  0  0  0
 23 28  1  0  0  0  0
 23 32  1  0  0  0  0
 24 23  2  0  0  0  0
 25 26  2  0  0  0  0
 25 24  1  0  0  0  0
 26 27  1  0  0  0  0
 27 28  2  0  0  0  0
 28 34  1  0  0  0  0
 29 27  1  0  0  0  0
 30 35  1  0  0  0  0
 30 29  1  0  0  0  0
 31 30  1  0  0  0  0
 31 26  1  0  0  0  0
 33 25  1  0  0  0  0
 36 30  1  0  0  0  0
 37  5  1  0  0  0  0
 38 39  1  0  0  0  0
 38 37  1  0  0  0  0
 40 38  1  0  0  0  0
 41 38  1  0  0  0  0
M  END
>  <minimizedAffinity>
-6.70334101

$$$$

 OpenBabel03242515443D

 41 46  0  0  1  0  0  0  0  0999 V2000
   36.2060   30.0350   38.8730 C   0  0  0  0  0  0  0  0  0  0  0  0
   37.0220   31.0290   38.4620 C   0  0  0  0  0  0  0  0  0  0  0  0
   37.3380   31.0740   37.0840 C   0  0  0  0  0  0  0  0  0  0  0  0
   36.8300   30.1470   36.2490 N   0  0  0  0  0  0  0  0  0  0  0  0
   36.0280   29.1800   36.7050 C   0  0  0  0  0  0  0  0  0  0  0  0
   35.7600   29.1770   37.9910 N   0  0  0  0  0  0  0  0  0  0  0  0
   37.6600   32.0940   39.1530 C   0  0  2  0  0  3  0  0  0  0  0  0
   38.2150   33.0330   39.7430 N   0  0  0  0  0  0  0  0  0  0  0  0
   38.4400   34.1500   40.1960 C   0  0  0  0  0  3  0  0  0  0  0  0
   39.5630   33.6040   40.6850 N   0  0  0  0  0  0  0  0  0  0  0  0
   39.9010   32.3040   40.4980 C   0  0  0  0  0  0  0  0  0  0  0  0
   41.1470   31.7970   40.9580 C   0  0  0  0  0  3  0  0  0  0  0  0
   41.4340   30.5060   40.6190 C   0  0  0  0  0  0  0  0  0  0  0  0
   42.3920   30.2480   41.0250 H   0  0  0  0  0  0  0  0  0  0  0  0
   40.6580   29.6440   39.8830 C   0  0  0  0  0  0  0  0  0  0  0  0
   40.9350   28.6630   39.6520 H   0  0  0  0  0  0  0  0  0  0  0  0
   39.4680   30.2790   39.5040 C   0  0  0  0  0  2  0  0  0  0  0  0
   38.9300   31.6120   39.7360 C   0  0  1  0  0  0  0  0  0  0  0  0
   38.2690   32.0460   36.5720 N   0  0  0  0  0  0  0  0  0  0  0  0
   39.0550   32.5500   37.0280 H   0  0  0  0  0  0  0  0  0  0  0  0
   38.1570   32.3100   35.5510 H   0  0  0  0  0  0  0  0  0  0  0  0
   35.8130   30.0360   40.6390 S   0  0  0  0  0  0  0  0  0  0  0  0
   37.6670   29.5400   42.4730 C   0  0  0  0  0  0  0  0  0  0  0  0
   36.8820   28.9190   41.5180 C   0  0  0  0  0  0  0  0  0  0  0  0
   36.9570   27.5650   41.3390 C   0  0  0  0  0  0  0  0  0  0  0  0
   37.7940   26.7620   42.0800 C   0  0  0  0  0  0  0  0  0  0  0  0
   38.5860   27.3870   43.0450 C   0  0  0  0  0  0  0  0  0  0  0  0
   38.5400   28.7540   43.2560 C   0  0  0  0  0  0  0  0  0  0  0  0
   39.3590   26.3810   43.6800 O   0  0  0  0  0  0  0  0  0  0  0  0
   39.2590   25.2530   42.8750 C   0  0  0  0  0  0  0  0  0  0  0  0
   38.0720   25.4040   42.1220 O   0  0  0  0  0  0  0  0  0  0  0  0
   37.6850   30.6070   42.6960 H   0  0  0  0  0  0  0  0  0  0  0  0
   36.3290   27.1520   40.5870 H   0  0  0  0  0  0  0  0  0  0  0  0
   39.1740   29.2240   44.0200 H   0  0  0  0  0  0  0  0  0  0  0  0
   39.1170   24.3650   43.5340 H   0  0  0  0  0  0  0  0  0  0  0  0
   40.1450   25.0780   42.2310 H   0  0  0  0  0  0  0  0  0  0  0  0
   35.4700   28.1960   35.9290 O   0  0  0  0  0  0  0  0  0  0  0  0
   34.1020   28.2920   35.5990 C   0  0  0  0  0  0  0  0  0  0  0  0
   33.6630   29.5930   35.5890 F   0  0  0  0  0  0  0  0  0  0  0  0
   33.9480   27.6820   34.3500 F   0  0  0  0  0  0  0  0  0  0  0  0
   33.3860   27.6030   36.5720 F   0  0  0  0  0  0  0  0  0  0  0  0
  1 22  1  0  0  0  0
  2  1  1  0  0  0  0
  3  2  2  0  0  0  0
  4  5  2  0  0  0  0
  4  3  1  0  0  0  0
  5  6  1  0  0  0  0
  6  1  2  0  0  0  0
  7  2  1  6  0  0  0
  7 18  1  0  0  0  0
  7  8  1  0  0  0  0
  8  9  1  0  0  0  0
  9 10  2  0  0  0  0
 11 10  1  0  0  0  0
 11 12  2  0  0  0  0
 13 12  1  0  0  0  0
 13 14  1  0  0  0  0
 15 13  2  0  0  0  0
 16 15  1  0  0  0  0
 17 15  1  0  0  0  0
 18 17  1  6  0  0  0
 18  8  1  0  0  0  0
 18 11  1  0  0  0  0
 19 20  1  0  0  0  0
 19  3  1  0  0  0  0
 21 19  1  0  0  0  0
 22 24  1  0  0  0  0
 23 32  1  0  0  0  0
 23 28  1  0  0  0  0
 24 23  2  0  0  0  0
 25 24  1  0  0  0  0
 25 26  2  0  0  0  0
 26 31  1  0  0  0  0
 26 27  1  0  0  0  0
 27 28  2  0  0  0  0
 27 29  1  0  0  0  0
 28 34  1  0  0  0  0
 30 35  1  0  0  0  0
 30 29  1  0  0  0  0
 31 30  1  0  0  0  0
 33 25  1  0  0  0  0
 36 30  1  0  0  0  0
 37  5  1  0  0  0  0
 38 37  1  0  0  0  0
 38 41  1  0  0  0  0
 39 38  1  0  0  0  0
 40 38  1  0  0  0  0
M  END
>  <minimizedAffinity>
-6.61058283

$$$$

 OpenBabel03242515443D

 41 46  0  0  1  0  0  0  0  0999 V2000
   37.6280   29.8460   41.7660 C   0  0  0  0  0  0  0  0  0  0  0  0
   38.7870   30.5390   41.7600 C   0  0  0  0  0  0  0  0  0  0  0  0
   39.9090   29.9200   42.3600 C   0  0  0  0  0  0  0  0  0  0  0  0
   39.7870   28.6940   42.9040 N   0  0  0  0  0  0  0  0  0  0  0  0
   38.6160   28.0490   42.8860 C   0  0  0  0  0  0  0  0  0  0  0  0
   37.6020   28.6610   42.3180 N   0  0  0  0  0  0  0  0  0  0  0  0
   39.1380   31.8180   41.2530 C   0  0  2  0  0  3  0  0  0  0  0  0
   39.4300   32.9400   40.8140 N   0  0  0  0  0  0  0  0  0  0  0  0
   39.5570   34.1570   40.7260 C   0  0  0  0  0  3  0  0  0  0  0  0
   40.1250   33.9000   39.5380 N   0  0  0  0  0  0  0  0  0  0  0  0
   40.2780   32.6480   39.0410 C   0  0  0  0  0  0  0  0  0  0  0  0
   40.8020   32.4350   37.7370 C   0  0  0  0  0  3  0  0  0  0  0  0
   40.8090   31.1440   37.2940 C   0  0  0  0  0  0  0  0  0  0  0  0
   41.2260   31.1200   36.3070 H   0  0  0  0  0  0  0  0  0  0  0  0
   40.3650   30.0290   37.9640 C   0  0  0  0  0  0  0  0  0  0  0  0
   40.3940   29.0620   37.5690 H   0  0  0  0  0  0  0  0  0  0  0  0
   39.8830   30.3930   39.2280 C   0  0  0  0  0  2  0  0  0  0  0  0
   39.7730   31.6650   39.9270 C   0  0  1  0  0  0  0  0  0  0  0  0
   41.1620   30.6180   42.4780 N   0  0  0  0  0  0  0  0  0  0  0  0
   41.3800   31.6340   42.5210 H   0  0  0  0  0  0  0  0  0  0  0  0
   42.0320   30.0150   42.5340 H   0  0  0  0  0  0  0  0  0  0  0  0
   36.2310   30.6710   40.9650 S   0  0  0  0  0  0  0  0  0  0  0  0
   34.7560   29.1310   39.3830 C   0  0  0  0  0  0  0  0  0  0  0  0
   35.8870   29.9280   39.3860 C   0  0  0  0  0  0  0  0  0  0  0  0
   36.6100   30.1010   38.2380 C   0  0  0  0  0  0  0  0  0  0  0  0
   36.2630   29.5110   37.0440 C   0  0  0  0  0  0  0  0  0  0  0  0
   35.1210   28.7070   37.0400 C   0  0  0  0  0  0  0  0  0  0  0  0
   34.3640   28.5060   38.1800 C   0  0  0  0  0  0  0  0  0  0  0  0
   34.9560   28.2090   35.7230 O   0  0  0  0  0  0  0  0  0  0  0  0
   36.1560   28.4490   35.0650 C   0  0  0  0  0  0  0  0  0  0  0  0
   36.7850   29.5080   35.7590 O   0  0  0  0  0  0  0  0  0  0  0  0
   34.1110   28.9260   40.2390 H   0  0  0  0  0  0  0  0  0  0  0  0
   37.4690   30.7240   38.3100 H   0  0  0  0  0  0  0  0  0  0  0  0
   33.4700   27.8680   38.1520 H   0  0  0  0  0  0  0  0  0  0  0  0
   35.9250   28.8240   34.0410 H   0  0  0  0  0  0  0  0  0  0  0  0
   36.8100   27.5580   34.9770 H   0  0  0  0  0  0  0  0  0  0  0  0
   38.4010   26.8030   43.4180 O   0  0  0  0  0  0  0  0  0  0  0  0
   38.2820   25.7070   42.5380 C   0  0  0  0  0  0  0  0  0  0  0  0
   38.7070   26.0140   41.2700 F   0  0  0  0  0  0  0  0  0  0  0  0
   39.0260   24.6630   43.0970 F   0  0  0  0  0  0  0  0  0  0  0  0
   36.9350   25.3660   42.4720 F   0  0  0  0  0  0  0  0  0  0  0  0
  1  6  1  0  0  0  0
  2  1  2  0  0  0  0
  2  3  1  0  0  0  0
  3 19  1  0  0  0  0
  3  4  2  0  0  0  0
  5  4  1  0  0  0  0
  5 37  1  0  0  0  0
  6  5  2  0  0  0  0
  7  2  1  6  0  0  0
  8  7  1  0  0  0  0
  9  8  1  0  0  0  0
 10  9  2  0  0  0  0
 11 10  1  0  0  0  0
 11 18  1  0  0  0  0
 12 11  2  0  0  0  0
 13 12  1  0  0  0  0
 13 15  2  0  0  0  0
 14 13  1  0  0  0  0
 15 17  1  0  0  0  0
 16 15  1  0  0  0  0
 18 17  1  6  0  0  0
 18  8  1  0  0  0  0
 18  7  1  0  0  0  0
 19 20  1  0  0  0  0
 19 21  1  0  0  0  0
 22  1  1  0  0  0  0
 23 24  1  0  0  0  0
 23 32  1  0  0  0  0
 24 22  1  0  0  0  0
 25 33  1  0  0  0  0
 25 24  2  0  0  0  0
 26 25  1  0  0  0  0
 27 26  2  0  0  0  0
 27 28  1  0  0  0  0
 28 23  2  0  0  0  0
 29 27  1  0  0  0  0
 30 29  1  0  0  0  0
 30 31  1  0  0  0  0
 31 26  1  0  0  0  0
 34 28  1  0  0  0  0
 35 30  1  0  0  0  0
 36 30  1  0  0  0  0
 38 40  1  0  0  0  0
 38 37  1  0  0  0  0
 39 38  1  0  0  0  0
 41 38  1  0  0  0  0
M  END
>  <minimizedAffinity>
-6.48154259

$$$$

 OpenBabel03242515443D

 41 46  0  0  1  0  0  0  0  0999 V2000
   38.0630   28.6370   39.9370 C   0  0  0  0  0  0  0  0  0  0  0  0
   37.7870   28.0450   41.1190 C   0  0  0  0  0  0  0  0  0  0  0  0
   37.0220   28.7890   42.0480 C   0  0  0  0  0  0  0  0  0  0  0  0
   36.6070   30.0310   41.7320 N   0  0  0  0  0  0  0  0  0  0  0  0
   36.9080   30.5750   40.5490 C   0  0  0  0  0  0  0  0  0  0  0  0
   37.6200   29.8480   39.7170 N   0  0  0  0  0  0  0  0  0  0  0  0
   38.1150   26.7710   41.6530 C   0  0  2  0  0  3  0  0  0  0  0  0
   38.3870   25.6580   42.1270 N   0  0  0  0  0  0  0  0  0  0  0  0
   38.3010   24.4740   42.4390 C   0  0  0  0  0  3  0  0  0  0  0  0
   39.5090   24.6480   42.9960 N   0  0  0  0  0  0  0  0  0  0  0  0
   40.1730   25.8300   42.9800 C   0  0  0  0  0  0  0  0  0  0  0  0
   41.4090   25.9860   43.6630 C   0  0  0  0  0  3  0  0  0  0  0  0
   41.9360   27.2450   43.6770 C   0  0  0  0  0  0  0  0  0  0  0  0
   42.8610   27.2260   44.2180 H   0  0  0  0  0  0  0  0  0  0  0  0
   41.4060   28.3780   43.1070 C   0  0  0  0  0  0  0  0  0  0  0  0
   41.8560   29.3190   43.1550 H   0  0  0  0  0  0  0  0  0  0  0  0
   40.1960   28.0700   42.4710 C   0  0  0  0  0  2  0  0  0  0  0  0
   39.4390   26.8370   42.3080 C   0  0  1  0  0  0  0  0  0  0  0  0
   36.7530   28.2720   43.3640 N   0  0  0  0  0  0  0  0  0  0  0  0
   37.2730   27.5900   43.9530 H   0  0  0  0  0  0  0  0  0  0  0  0
   35.8800   28.6360   43.8420 H   0  0  0  0  0  0  0  0  0  0  0  0
   39.0240   27.6360   38.7760 S   0  0  0  0  0  0  0  0  0  0  0  0
   41.0200   29.3380   39.1870 C   0  0  0  0  0  0  0  0  0  0  0  0
   40.4560   28.5300   38.2160 C   0  0  0  0  0  0  0  0  0  0  0  0
   41.0170   28.4570   36.9710 C   0  0  0  0  0  0  0  0  0  0  0  0
   42.1460   29.1620   36.6210 C   0  0  0  0  0  0  0  0  0  0  0  0
   42.7170   29.9770   37.6010 C   0  0  0  0  0  0  0  0  0  0  0  0
   42.1780   30.0790   38.8710 C   0  0  0  0  0  0  0  0  0  0  0  0
   43.8540   30.6000   37.0280 O   0  0  0  0  0  0  0  0  0  0  0  0
   43.7490   30.4080   35.6560 C   0  0  0  0  0  0  0  0  0  0  0  0
   42.9170   29.2810   35.4740 O   0  0  0  0  0  0  0  0  0  0  0  0
   40.6540   29.4690   40.2070 H   0  0  0  0  0  0  0  0  0  0  0  0
   40.5330   27.8190   36.2710 H   0  0  0  0  0  0  0  0  0  0  0  0
   42.6440   30.7280   39.6260 H   0  0  0  0  0  0  0  0  0  0  0  0
   44.7570   30.1360   35.2630 H   0  0  0  0  0  0  0  0  0  0  0  0
   43.3820   31.2960   35.1020 H   0  0  0  0  0  0  0  0  0  0  0  0
   36.5310   31.8300   40.1470 O   0  0  0  0  0  0  0  0  0  0  0  0
   37.4030   32.5620   39.3140 C   0  0  0  0  0  0  0  0  0  0  0  0
   38.7120   32.4510   39.7120 F   0  0  0  0  0  0  0  0  0  0  0  0
   37.2140   32.0790   38.0150 F   0  0  0  0  0  0  0  0  0  0  0  0
   37.0380   33.9010   39.3960 F   0  0  0  0  0  0  0  0  0  0  0  0
  1  2  1  0  0  0  0
  2  3  2  0  0  0  0
  3 19  1  0  0  0  0
  4  3  1  0  0  0  0
  5  4  2  0  0  0  0
  6  1  2  0  0  0  0
  6  5  1  0  0  0  0
  7  2  1  1  0  0  0
  7  8  1  0  0  0  0
  7 18  1  0  0  0  0
  8 18  1  0  0  0  0
  8  9  1  0  0  0  0
  9 10  2  0  0  0  0
 11 10  1  0  0  0  0
 11 12  2  0  0  0  0
 12 13  1  0  0  0  0
 13 14  1  0  0  0  0
 15 16  1  0  0  0  0
 15 13  2  0  0  0  0
 17 15  1  0  0  0  0
 18 17  1  1  0  0  0
 18 11  1  0  0  0  0
 19 21  1  0  0  0  0
 19 20  1  0  0  0  0
 22  1  1  0  0  0  0
 23 32  1  0  0  0  0
 24 22  1  0  0  0  0
 24 23  2  0  0  0  0
 25 24  1  0  0  0  0
 26 25  2  0  0  0  0
 26 27  1  0  0  0  0
 27 28  2  0  0  0  0
 28 23  1  0  0  0  0
 28 34  1  0  0  0  0
 29 27  1  0  0  0  0
 30 29  1  0  0  0  0
 31 30  1  0  0  0  0
 31 26  1  0  0  0  0
 33 25  1  0  0  0  0
 35 30  1  0  0  0  0
 36 30  1  0  0  0  0
 37  5  1  0  0  0  0
 38 41  1  0  0  0  0
 38 39  1  0  0  0  0
 38 37  1  0  0  0  0
 40 38  1  0  0  0  0
M  END
>  <minimizedAffinity>
-6.4117384

$$$$

 OpenBabel03242515443D

 41 46  0  0  1  0  0  0  0  0999 V2000
   38.0260   31.1120   40.4990 C   0  0  0  0  0  0  0  0  0  0  0  0
   39.2950   31.5310   40.6920 C   0  0  0  0  0  0  0  0  0  0  0  0
   39.9610   31.0540   41.8460 C   0  0  0  0  0  0  0  0  0  0  0  0
   39.3240   30.2220   42.6920 N   0  0  0  0  0  0  0  0  0  0  0  0
   38.0660   29.8380   42.4570 C   0  0  0  0  0  0  0  0  0  0  0  0
   37.4860   30.3040   41.3750 N   0  0  0  0  0  0  0  0  0  0  0  0
   40.1470   32.3880   39.9460 C   0  0  2  0  0  3  0  0  0  0  0  0
   40.8790   33.1470   39.2920 N   0  0  0  0  0  0  0  0  0  0  0  0
   41.4510   34.1590   38.9030 C   0  0  0  0  0  3  0  0  0  0  0  0
   42.0230   33.3530   37.9960 N   0  0  0  0  0  0  0  0  0  0  0  0
   41.7680   32.0240   37.9150 C   0  0  0  0  0  0  0  0  0  0  0  0
   42.3300   31.2310   36.8780 C   0  0  0  0  0  3  0  0  0  0  0  0
   41.9180   29.9300   36.8240 C   0  0  0  0  0  0  0  0  0  0  0  0
   42.4130   29.4460   36.0070 H   0  0  0  0  0  0  0  0  0  0  0  0
   41.0210   29.3030   37.6560 C   0  0  0  0  0  0  0  0  0  0  0  0
   40.7420   28.3010   37.5610 H   0  0  0  0  0  0  0  0  0  0  0  0
   40.5570   30.2040   38.6230 C   0  0  0  0  0  2  0  0  0  0  0  0
   40.8360   31.6060   38.8970 C   0  0  1  0  0  0  0  0  0  0  0  0
   41.2840   31.5150   42.1770 N   0  0  0  0  0  0  0  0  0  0  0  0
   41.7810   32.3980   41.9450 H   0  0  0  0  0  0  0  0  0  0  0  0
   41.8760   30.8600   42.7640 H   0  0  0  0  0  0  0  0  0  0  0  0
   37.2270   31.7310   38.9980 S   0  0  0  0  0  0  0  0  0  0  0  0
   37.3260   30.1720   36.8520 C   0  0  0  0  0  0  0  0  0  0  0  0
   36.6100   30.3830   38.0170 C   0  0  0  0  0  0  0  0  0  0  0  0
   35.5530   29.5740   38.3300 C   0  0  0  0  0  0  0  0  0  0  0  0
   35.1510   28.5290   37.5290 C   0  0  0  0  0  0  0  0  0  0  0  0
   35.8740   28.3150   36.3530 C   0  0  0  0  0  0  0  0  0  0  0  0
   36.9480   29.1120   36.0000 C   0  0  0  0  0  0  0  0  0  0  0  0
   35.2930   27.2030   35.6920 O   0  0  0  0  0  0  0  0  0  0  0  0
   34.0630   26.9910   36.3030 C   0  0  0  0  0  0  0  0  0  0  0  0
   34.1510   27.5700   37.5890 O   0  0  0  0  0  0  0  0  0  0  0  0
   38.1810   30.7560   36.5080 H   0  0  0  0  0  0  0  0  0  0  0  0
   35.0440   29.7920   39.2390 H   0  0  0  0  0  0  0  0  0  0  0  0
   37.5010   28.9250   35.0690 H   0  0  0  0  0  0  0  0  0  0  0  0
   33.9300   25.8940   36.4480 H   0  0  0  0  0  0  0  0  0  0  0  0
   33.1990   27.3790   35.7260 H   0  0  0  0  0  0  0  0  0  0  0  0
   37.3410   28.9980   43.2640 O   0  0  0  0  0  0  0  0  0  0  0  0
   36.8380   27.8020   42.7130 C   0  0  0  0  0  0  0  0  0  0  0  0
   36.3780   26.9410   43.6780 F   0  0  0  0  0  0  0  0  0  0  0  0
   35.8260   28.1680   41.8190 F   0  0  0  0  0  0  0  0  0  0  0  0
   37.8820   27.1770   42.0390 F   0  0  0  0  0  0  0  0  0  0  0  0
  1  2  2  0  0  0  0
  1  6  1  0  0  0  0
  2  3  1  0  0  0  0
  3 19  1  0  0  0  0
  3  4  2  0  0  0  0
  5  4  1  0  0  0  0
  5 37  1  0  0  0  0
  6  5  2  0  0  0  0
  7  2  1  6  0  0  0
  8  7  1  0  0  0  0
  9  8  1  0  0  0  0
 10  9  2  0  0  0  0
 11 10  1  0  0  0  0
 11 18  1  0  0  0  0
 12 11  2  0  0  0  0
 13 12  1  0  0  0  0
 13 15  2  0  0  0  0
 14 13  1  0  0  0  0
 15 17  1  0  0  0  0
 16 15  1  0  0  0  0
 18 17  1  6  0  0  0
 18  8  1  0  0  0  0
 18  7  1  0  0  0  0
 19 21  1  0  0  0  0
 20 19  1  0  0  0  0
 22  1  1  0  0  0  0
 23 24  1  0  0  0  0
 24 25  2  0  0  0  0
 24 22  1  0  0  0  0
 25 33  1  0  0  0  0
 26 31  1  0  0  0  0
 26 25  1  0  0  0  0
 27 26  2  0  0  0  0
 28 27  1  0  0  0  0
 28 23  2  0  0  0  0
 29 30  1  0  0  0  0
 29 27  1  0  0  0  0
 30 35  1  0  0  0  0
 30 31  1  0  0  0  0
 32 23  1  0  0  0  0
 34 28  1  0  0  0  0
 36 30  1  0  0  0  0
 38 37  1  0  0  0  0
 38 39  1  0  0  0  0
 40 38  1  0  0  0  0
 41 38  1  0  0  0  0
M  END
>  <minimizedAffinity>
-6.34276056

$$$$

 OpenBabel03242515443D

 41 46  0  0  1  0  0  0  0  0999 V2000
   38.3120   29.2460   38.7290 C   0  0  0  0  0  0  0  0  0  0  0  0
   37.3310   29.1640   39.6530 C   0  0  0  0  0  0  0  0  0  0  0  0
   36.0160   29.4610   39.2230 C   0  0  0  0  0  0  0  0  0  0  0  0
   35.7920   29.8070   37.9410 N   0  0  0  0  0  0  0  0  0  0  0  0
   36.7990   29.8760   37.0640 C   0  0  0  0  0  0  0  0  0  0  0  0
   38.0030   29.5920   37.5060 N   0  0  0  0  0  0  0  0  0  0  0  0
   37.3370   28.8250   41.0320 C   0  0  2  0  0  3  0  0  0  0  0  0
   37.3570   28.5360   42.2380 N   0  0  0  0  0  0  0  0  0  0  0  0
   37.4370   28.6420   43.4580 C   0  0  0  0  0  3  0  0  0  0  0  0
   37.2290   27.3170   43.4750 N   0  0  0  0  0  0  0  0  0  0  0  0
   37.0570   26.5760   42.3530 C   0  0  0  0  0  0  0  0  0  0  0  0
   36.9320   25.1610   42.4200 C   0  0  0  0  0  3  0  0  0  0  0  0
   36.8760   24.5040   41.2260 C   0  0  0  0  0  0  0  0  0  0  0  0
   36.7810   23.4530   41.4140 H   0  0  0  0  0  0  0  0  0  0  0  0
   36.9310   25.0530   39.9670 C   0  0  0  0  0  0  0  0  0  0  0  0
   36.8870   24.4940   39.0850 H   0  0  0  0  0  0  0  0  0  0  0  0
   37.0510   26.4460   40.0590 C   0  0  0  0  0  2  0  0  0  0  0  0
   37.1230   27.3700   41.1820 C   0  0  1  0  0  0  0  0  0  0  0  0
   34.9220   29.4840   40.1580 N   0  0  0  0  0  0  0  0  0  0  0  0
   34.8980   29.6580   41.1830 H   0  0  0  0  0  0  0  0  0  0  0  0
   33.9580   29.2960   39.7570 H   0  0  0  0  0  0  0  0  0  0  0  0
   39.9710   28.8340   39.3240 S   0  0  0  0  0  0  0  0  0  0  0  0
   40.8020   31.3330   38.9890 C   0  0  0  0  0  0  0  0  0  0  0  0
   40.8080   30.2930   39.9020 C   0  0  0  0  0  0  0  0  0  0  0  0
   41.4000   30.4540   41.1240 C   0  0  0  0  0  0  0  0  0  0  0  0
   42.0060   31.6280   41.5090 C   0  0  0  0  0  0  0  0  0  0  0  0
   42.0010   32.6780   40.5890 C   0  0  0  0  0  0  0  0  0  0  0  0
   41.4140   32.5550   39.3420 C   0  0  0  0  0  0  0  0  0  0  0  0
   42.6720   33.7740   41.1890 O   0  0  0  0  0  0  0  0  0  0  0  0
   43.3380   33.2600   42.2950 C   0  0  0  0  0  0  0  0  0  0  0  0
   42.6640   32.0690   42.6480 O   0  0  0  0  0  0  0  0  0  0  0  0
   40.3610   31.3110   37.9910 H   0  0  0  0  0  0  0  0  0  0  0  0
   41.3700   29.6150   41.7770 H   0  0  0  0  0  0  0  0  0  0  0  0
   41.4230   33.3950   38.6340 H   0  0  0  0  0  0  0  0  0  0  0  0
   43.2070   33.9720   43.1430 H   0  0  0  0  0  0  0  0  0  0  0  0
   44.4230   33.0970   42.1330 H   0  0  0  0  0  0  0  0  0  0  0  0
   36.6630   30.2230   35.7440 O   0  0  0  0  0  0  0  0  0  0  0  0
   36.1990   29.2490   34.8360 C   0  0  0  0  0  0  0  0  0  0  0  0
   36.4720   27.9730   35.2620 F   0  0  0  0  0  0  0  0  0  0  0  0
   34.8250   29.4630   34.6860 F   0  0  0  0  0  0  0  0  0  0  0  0
   36.8600   29.4500   33.6290 F   0  0  0  0  0  0  0  0  0  0  0  0
  1 22  1  0  0  0  0
  1  2  1  0  0  0  0
  3  2  2  0  0  0  0
  3 19  1  0  0  0  0
  4  3  1  0  0  0  0
  5  6  1  0  0  0  0
  5  4  2  0  0  0  0
  6  1  2  0  0  0  0
  7  2  1  6  0  0  0
  7 18  1  0  0  0  0
  7  8  1  0  0  0  0
  8  9  1  0  0  0  0
  9 10  2  0  0  0  0
 11 12  2  0  0  0  0
 11 10  1  0  0  0  0
 13 14  1  0  0  0  0
 13 12  1  0  0  0  0
 15 17  1  0  0  0  0
 15 13  2  0  0  0  0
 16 15  1  0  0  0  0
 18 17  1  6  0  0  0
 18  8  1  0  0  0  0
 18 11  1  0  0  0  0
 19 20  1  0  0  0  0
 21 19  1  0  0  0  0
 22 24  1  0  0  0  0
 23 28  2  0  0  0  0
 23 24  1  0  0  0  0
 24 25  2  0  0  0  0
 25 26  1  0  0  0  0
 25 33  1  0  0  0  0
 26 31  1  0  0  0  0
 27 29  1  0  0  0  0
 27 26  2  0  0  0  0
 28 27  1  0  0  0  0
 29 30  1  0  0  0  0
 30 31  1  0  0  0  0
 30 35  1  0  0  0  0
 32 23  1  0  0  0  0
 34 28  1  0  0  0  0
 36 30  1  0  0  0  0
 37  5  1  0  0  0  0
 38 39  1  0  0  0  0
 38 37  1  0  0  0  0
 40 38  1  0  0  0  0
 41 38  1  0  0  0  0
M  END
>  <minimizedAffinity>
-6.31280947

$$$$

 OpenBabel03242515443D

 41 46  0  0  1  0  0  0  0  0999 V2000
   39.1200   30.7010   40.8560 C   0  0  0  0  0  0  0  0  0  0  0  0
   39.4220   31.9870   40.5750 C   0  0  0  0  0  0  0  0  0  0  0  0
   38.3730   32.8030   40.0910 C   0  0  0  0  0  0  0  0  0  0  0  0
   37.1400   32.2850   39.9290 N   0  0  0  0  0  0  0  0  0  0  0  0
   36.8920   31.0040   40.2190 C   0  0  0  0  0  0  0  0  0  0  0  0
   37.8950   30.2830   40.6660 N   0  0  0  0  0  0  0  0  0  0  0  0
   40.6280   32.7320   40.6690 C   0  0  2  0  0  3  0  0  0  0  0  0
   41.6720   33.3950   40.7540 N   0  0  0  0  0  0  0  0  0  0  0  0
   42.5310   34.1610   41.1780 C   0  0  0  0  0  3  0  0  0  0  0  0
   43.2010   33.8520   40.0580 N   0  0  0  0  0  0  0  0  0  0  0  0
   42.7280   32.9960   39.1190 C   0  0  0  0  0  0  0  0  0  0  0  0
   43.4340   32.7730   37.9060 C   0  0  0  0  0  3  0  0  0  0  0  0
   42.8140   31.9810   36.9840 C   0  0  0  0  0  0  0  0  0  0  0  0
   43.4460   31.8910   36.1240 H   0  0  0  0  0  0  0  0  0  0  0  0
   41.5840   31.3760   37.0950 C   0  0  0  0  0  0  0  0  0  0  0  0
   41.1590   30.7810   36.3490 H   0  0  0  0  0  0  0  0  0  0  0  0
   41.0120   31.6830   38.3370 C   0  0  0  0  0  2  0  0  0  0  0  0
   41.4580   32.4780   39.4720 C   0  0  1  0  0  0  0  0  0  0  0  0
   38.6220   34.1610   39.6840 N   0  0  0  0  0  0  0  0  0  0  0  0
   39.4850   34.6260   39.3370 H   0  0  0  0  0  0  0  0  0  0  0  0
   37.7970   34.8250   39.7350 H   0  0  0  0  0  0  0  0  0  0  0  0
   40.4900   29.7060   41.4940 S   0  0  0  0  0  0  0  0  0  0  0  0
   40.0290   27.6940   43.1640 C   0  0  0  0  0  0  0  0  0  0  0  0
   39.9530   28.0430   41.8270 C   0  0  0  0  0  0  0  0  0  0  0  0
   39.4750   27.1500   40.9080 C   0  0  0  0  0  0  0  0  0  0  0  0
   39.0520   25.8850   41.2500 C   0  0  0  0  0  0  0  0  0  0  0  0
   39.1280   25.5320   42.5990 C   0  0  0  0  0  0  0  0  0  0  0  0
   39.6060   26.4070   43.5590 C   0  0  0  0  0  0  0  0  0  0  0  0
   38.6470   24.2040   42.7200 O   0  0  0  0  0  0  0  0  0  0  0  0
   38.6080   23.6890   41.4290 C   0  0  0  0  0  0  0  0  0  0  0  0
   38.5350   24.8000   40.5590 O   0  0  0  0  0  0  0  0  0  0  0  0
   40.3930   28.3270   43.9740 H   0  0  0  0  0  0  0  0  0  0  0  0
   39.4450   27.4810   39.8980 H   0  0  0  0  0  0  0  0  0  0  0  0
   39.6580   26.1060   44.6140 H   0  0  0  0  0  0  0  0  0  0  0  0
   37.6580   23.1180   41.3100 H   0  0  0  0  0  0  0  0  0  0  0  0
   39.4570   23.0190   41.1840 H   0  0  0  0  0  0  0  0  0  0  0  0
   35.6710   30.3940   40.0820 O   0  0  0  0  0  0  0  0  0  0  0  0
   35.4980   29.4610   39.0390 C   0  0  0  0  0  0  0  0  0  0  0  0
   34.1730   29.2480   38.7510 F   0  0  0  0  0  0  0  0  0  0  0  0
   36.1960   29.9610   37.9350 F   0  0  0  0  0  0  0  0  0  0  0  0
   36.0470   28.2540   39.4590 F   0  0  0  0  0  0  0  0  0  0  0  0
  1 22  1  0  0  0  0
  2  1  2  0  0  0  0
  3  2  1  0  0  0  0
  4  3  2  0  0  0  0
  4  5  1  0  0  0  0
  5  6  2  0  0  0  0
  6  1  1  0  0  0  0
  7  2  1  6  0  0  0
  7  8  1  0  0  0  0
  8  9  1  0  0  0  0
 10  9  2  0  0  0  0
 11 18  1  0  0  0  0
 11 10  1  0  0  0  0
 12 11  2  0  0  0  0
 13 15  2  0  0  0  0
 13 12  1  0  0  0  0
 14 13  1  0  0  0  0
 15 17  1  0  0  0  0
 16 15  1  0  0  0  0
 18 17  1  6  0  0  0
 18  7  1  0  0  0  0
 18  8  1  0  0  0  0
 19 21  1  0  0  0  0
 19  3  1  0  0  0  0
 20 19  1  0  0  0  0
 22 24  1  0  0  0  0
 23 28  1  0  0  0  0
 23 32  1  0  0  0  0
 24 23  2  0  0  0  0
 25 26  2  0  0  0  0
 25 24  1  0  0  0  0
 26 27  1  0  0  0  0
 27 29  1  0  0  0  0
 27 28  2  0  0  0  0
 28 34  1  0  0  0  0
 30 29  1  0  0  0  0
 31 26  1  0  0  0  0
 31 30  1  0  0  0  0
 33 25  1  0  0  0  0
 35 30  1  0  0  0  0
 36 30  1  0  0  0  0
 37  5  1  0  0  0  0
 38 41  1  0  0  0  0
 38 37  1  0  0  0  0
 39 38  1  0  0  0  0
 40 38  1  0  0  0  0
M  END
>  <minimizedAffinity>
-6.21567774

$$$$

 OpenBabel03242515443D

 41 46  0  0  1  0  0  0  0  0999 V2000
   38.3790   29.2540   38.8330 C   0  0  0  0  0  0  0  0  0  0  0  0
   37.3830   29.1840   39.7410 C   0  0  0  0  0  0  0  0  0  0  0  0
   36.0850   29.5360   39.3010 C   0  0  0  0  0  0  0  0  0  0  0  0
   35.8920   29.9210   38.0250 N   0  0  0  0  0  0  0  0  0  0  0  0
   36.9120   29.9760   37.1630 C   0  0  0  0  0  0  0  0  0  0  0  0
   38.0990   29.6400   37.6150 N   0  0  0  0  0  0  0  0  0  0  0  0
   37.3580   28.8110   41.1120 C   0  0  2  0  0  3  0  0  0  0  0  0
   37.3500   28.4930   42.3100 N   0  0  0  0  0  0  0  0  0  0  0  0
   37.4060   28.5690   43.5330 C   0  0  0  0  0  3  0  0  0  0  0  0
   37.1850   27.2460   43.5140 N   0  0  0  0  0  0  0  0  0  0  0  0
   37.0300   26.5340   42.3710 C   0  0  0  0  0  0  0  0  0  0  0  0
   36.8900   25.1190   42.4020 C   0  0  0  0  0  3  0  0  0  0  0  0
   36.8530   24.4910   41.1910 C   0  0  0  0  0  0  0  0  0  0  0  0
   36.7450   23.4380   41.3510 H   0  0  0  0  0  0  0  0  0  0  0  0
   36.9390   25.0700   39.9470 C   0  0  0  0  0  0  0  0  0  0  0  0
   36.9080   24.5330   39.0510 H   0  0  0  0  0  0  0  0  0  0  0  0
   37.0700   26.4590   40.0750 C   0  0  0  0  0  2  0  0  0  0  0  0
   37.1270   27.3550   41.2220 C   0  0  1  0  0  0  0  0  0  0  0  0
   34.9790   29.5740   40.2210 N   0  0  0  0  0  0  0  0  0  0  0  0
   34.9470   29.7250   41.2490 H   0  0  0  0  0  0  0  0  0  0  0  0
   34.0160   29.4290   39.8030 H   0  0  0  0  0  0  0  0  0  0  0  0
   40.0140   28.7710   39.4390 S   0  0  0  0  0  0  0  0  0  0  0  0
   41.5150   30.8530   38.7610 C   0  0  0  0  0  0  0  0  0  0  0  0
   41.2930   29.5220   38.4570 C   0  0  0  0  0  0  0  0  0  0  0  0
   42.0420   28.9020   37.4950 C   0  0  0  0  0  0  0  0  0  0  0  0
   43.0350   29.5460   36.7940 C   0  0  0  0  0  0  0  0  0  0  0  0
   43.2610   30.8900   37.1010 C   0  0  0  0  0  0  0  0  0  0  0  0
   42.5240   31.5540   38.0650 C   0  0  0  0  0  0  0  0  0  0  0  0
   44.3140   31.3460   36.2690 O   0  0  0  0  0  0  0  0  0  0  0  0
   44.4660   30.3850   35.2760 C   0  0  0  0  0  0  0  0  0  0  0  0
   43.9300   29.1860   35.7980 O   0  0  0  0  0  0  0  0  0  0  0  0
   40.9760   31.4420   39.5060 H   0  0  0  0  0  0  0  0  0  0  0  0
   41.8180   27.8780   37.3100 H   0  0  0  0  0  0  0  0  0  0  0  0
   42.7190   32.6120   38.2890 H   0  0  0  0  0  0  0  0  0  0  0  0
   45.5560   30.2140   35.1200 H   0  0  0  0  0  0  0  0  0  0  0  0
   44.0080   30.6620   34.3050 H   0  0  0  0  0  0  0  0  0  0  0  0
   36.8080   30.3590   35.8500 O   0  0  0  0  0  0  0  0  0  0  0  0
   36.3030   29.4300   34.9160 C   0  0  0  0  0  0  0  0  0  0  0  0
   34.9370   29.3210   34.9820 F   0  0  0  0  0  0  0  0  0  0  0  0
   36.7290   29.8600   33.6550 F   0  0  0  0  0  0  0  0  0  0  0  0
   36.8510   28.1880   35.2200 F   0  0  0  0  0  0  0  0  0  0  0  0
  1 22  1  0  0  0  0
  1  2  1  0  0  0  0
  3  2  2  0  0  0  0
  3 19  1  0  0  0  0
  4  3  1  0  0  0  0
  5  6  1  0  0  0  0
  5  4  2  0  0  0  0
  6  1  2  0  0  0  0
  7  2  1  6  0  0  0
  7 18  1  0  0  0  0
  7  8  1  0  0  0  0
  8  9  1  0  0  0  0
 10  9  2  0  0  0  0
 11 12  2  0  0  0  0
 11 10  1  0  0  0  0
 13 14  1  0  0  0  0
 13 12  1  0  0  0  0
 15 17  1  0  0  0  0
 15 13  2  0  0  0  0
 16 15  1  0  0  0  0
 18 17  1  6  0  0  0
 18  8  1  0  0  0  0
 18 11  1  0  0  0  0
 19 20  1  0  0  0  0
 21 19  1  0  0  0  0
 23 32  1  0  0  0  0
 24 23  1  0  0  0  0
 24 22  1  0  0  0  0
 25 24  2  0  0  0  0
 26 27  2  0  0  0  0
 26 25  1  0  0  0  0
 27 28  1  0  0  0  0
 28 34  1  0  0  0  0
 28 23  2  0  0  0  0
 29 27  1  0  0  0  0
 30 31  1  0  0  0  0
 30 29  1  0  0  0  0
 31 26  1  0  0  0  0
 33 25  1  0  0  0  0
 35 30  1  0  0  0  0
 36 30  1  0  0  0  0
 37  5  1  0  0  0  0
 38 39  1  0  0  0  0
 38 41  1  0  0  0  0
 38 37  1  0  0  0  0
 40 38  1  0  0  0  0
M  END
>  <minimizedAffinity>
-6.21448803

$$$$
