
 OpenBabel03242522503D

 29 31  0  0  0  0  0  0  0  0999 V2000
   47.9110   32.0090   48.6090 O   0  0  0  0  0  0  0  0  0  0  0  0
   46.1500   30.0930   48.6230 O   0  0  0  0  0  0  0  0  0  0  0  0
   46.2940   31.6390   48.6370 P   0  0  1  0  0  0  0  0  0  0  0  0
   45.5430   32.1270   50.0600 O   0  0  0  0  0  0  0  0  0  0  0  0
   45.6320   31.4400   50.7670 H   0  0  0  0  0  0  0  0  0  0  0  0
   45.4720   32.2380   47.2970 O   0  0  0  0  0  0  0  0  0  0  0  0
   47.4100   31.4680   44.3210 C   0  0  0  0  0  0  0  0  0  0  0  0
   46.7420   31.3150   45.5560 C   0  0  0  0  0  0  0  0  0  0  0  0
   46.1130   32.4130   46.0920 C   0  0  0  0  0  0  0  0  0  0  0  0
   46.1630   33.5980   45.4100 N   0  0  0  0  0  0  0  0  0  0  0  0
   46.8060   33.7070   44.2400 C   0  0  0  0  0  0  0  0  0  0  0  0
   47.4280   32.6600   43.6880 N   0  0  0  0  0  0  0  0  0  0  0  0
   47.9320   30.6650   43.8190 H   0  0  0  0  0  0  0  0  0  0  0  0
   46.8180   30.3220   45.9180 H   0  0  0  0  0  0  0  0  0  0  0  0
   46.8300   34.6480   43.7250 H   0  0  0  0  0  0  0  0  0  0  0  0
   49.0040   31.4860   49.2000 C   0  0  0  0  0  0  0  0  0  0  0  0
   49.8930   32.4170   49.5010 O   0  0  0  0  0  0  0  0  0  0  0  0
   49.5580   30.1320   49.6360 C   0  0  0  0  0  0  0  0  0  0  0  0
   50.0150   29.9230   50.8670 N   0  0  0  0  0  0  0  0  0  0  0  0
   50.5150   28.7880   51.2860 C   0  0  0  0  0  3  0  0  0  0  0  0
   50.5980   27.7410   50.4760 N   0  0  0  0  0  0  0  0  0  0  0  0
   50.1550   27.8900   49.2230 C   0  0  0  0  0  0  0  0  0  0  0  0
   50.2620   26.8040   48.4060 C   0  0  0  0  0  3  0  0  0  0  0  0
   49.8540   26.8200   47.0760 C   0  0  0  0  0  0  0  0  0  0  0  0
   49.9610   25.9370   46.4810 H   0  0  0  0  0  0  0  0  0  0  0  0
   49.3260   28.0440   46.6550 C   0  0  0  0  0  0  0  0  0  0  0  0
   49.0170   28.0080   45.5970 H   0  0  0  0  0  0  0  0  0  0  0  0
   49.2400   29.1090   47.5200 C   0  0  0  0  0  3  0  0  0  0  0  0
   49.6420   29.0740   48.8120 C   0  0  0  0  0  0  0  0  0  0  0  0
  1  3  1  0  0  0  0
  1 16  1  0  0  0  0
  3  2  2  6  0  0  0
  3  4  1  0  0  0  0
  4  5  1  0  0  0  0
  6  3  1  0  0  0  0
  7  8  1  0  0  0  0
  8 14  1  0  0  0  0
  8  9  2  0  0  0  0
  9  6  1  0  0  0  0
 10  9  1  0  0  0  0
 11 10  2  0  0  0  0
 12 11  1  0  0  0  0
 12  7  2  0  0  0  0
 13  7  1  0  0  0  0
 15 11  1  0  0  0  0
 16 17  2  0  0  0  0
 16 18  1  0  0  0  0
 18 19  1  0  0  0  0
 19 20  2  0  0  0  0
 21 20  1  0  0  0  0
 22 21  2  0  0  0  0
 23 22  1  0  0  0  0
 24 23  2  0  0  0  0
 25 24  1  0  0  0  0
 26 24  1  0  0  0  0
 26 28  2  0  0  0  0
 27 26  1  0  0  0  0
 28 29  1  0  0  0  0
 29 22  1  0  0  0  0
 29 18  2  0  0  0  0
M  END
>  <minimizedAffinity>
-4.75457144

>  <minimizedRMSD>
2.11810756

$$$$
