
 OpenBabel03242522503D

 29 31  0  0  0  0  0  0  0  0999 V2000
   47.6400   32.1920   48.6430 O   0  0  0  0  0  0  0  0  0  0  0  0
   45.7990   30.4730   47.9930 O   0  0  0  0  0  0  0  0  0  0  0  0
   46.0100   31.8870   48.5980 P   0  0  1  0  0  0  0  0  0  0  0  0
   45.3240   31.8060   50.1310 O   0  0  0  0  0  0  0  0  0  0  0  0
   45.4040   30.8950   50.5120 H   0  0  0  0  0  0  0  0  0  0  0  0
   45.1750   32.9820   47.6320 O   0  0  0  0  0  0  0  0  0  0  0  0
   47.1200   32.8370   44.5650 C   0  0  0  0  0  0  0  0  0  0  0  0
   46.6360   32.5280   45.8550 C   0  0  0  0  0  0  0  0  0  0  0  0
   45.6270   33.3040   46.3720 C   0  0  0  0  0  0  0  0  0  0  0  0
   45.1380   34.3360   45.6180 N   0  0  0  0  0  0  0  0  0  0  0  0
   45.6210   34.6010   44.3970 C   0  0  0  0  0  0  0  0  0  0  0  0
   46.6020   33.8680   43.8620 N   0  0  0  0  0  0  0  0  0  0  0  0
   47.9090   32.2870   44.0730 H   0  0  0  0  0  0  0  0  0  0  0  0
   47.1420   31.6930   46.2690 H   0  0  0  0  0  0  0  0  0  0  0  0
   45.2200   35.4160   43.8260 H   0  0  0  0  0  0  0  0  0  0  0  0
   48.7300   31.4370   48.8850 C   0  0  0  0  0  0  0  0  0  0  0  0
   49.7350   32.1590   49.3510 O   0  0  0  0  0  0  0  0  0  0  0  0
   49.1870   29.9850   48.7840 C   0  0  0  0  0  0  0  0  0  0  0  0
   48.9600   29.2490   47.6990 N   0  0  0  0  0  0  0  0  0  0  0  0
   49.3160   27.9960   47.5680 C   0  0  0  0  0  3  0  0  0  0  0  0
   49.9500   27.3640   48.5480 N   0  0  0  0  0  0  0  0  0  0  0  0
   50.2070   28.0510   49.6660 C   0  0  0  0  0  0  0  0  0  0  0  0
   50.8470   27.3760   50.6620 C   0  0  0  0  0  3  0  0  0  0  0  0
   51.1650   27.9610   51.8820 C   0  0  0  0  0  0  0  0  0  0  0  0
   51.6700   27.3820   52.6280 H   0  0  0  0  0  0  0  0  0  0  0  0
   50.7710   29.2970   51.9960 C   0  0  0  0  0  0  0  0  0  0  0  0
   51.0450   29.7170   52.9780 H   0  0  0  0  0  0  0  0  0  0  0  0
   50.1280   29.9320   50.9600 C   0  0  0  0  0  3  0  0  0  0  0  0
   49.8290   29.3460   49.7780 C   0  0  0  0  0  0  0  0  0  0  0  0
  1 16  1  0  0  0  0
  3  2  2  6  0  0  0
  3  1  1  0  0  0  0
  3  4  1  0  0  0  0
  4  5  1  0  0  0  0
  6  3  1  0  0  0  0
  7  8  1  0  0  0  0
  8 14  1  0  0  0  0
  8  9  2  0  0  0  0
  9  6  1  0  0  0  0
 10  9  1  0  0  0  0
 11 10  2  0  0  0  0
 12 11  1  0  0  0  0
 12  7  2  0  0  0  0
 13  7  1  0  0  0  0
 15 11  1  0  0  0  0
 16 17  2  0  0  0  0
 18 16  1  0  0  0  0
 18 29  1  0  0  0  0
 19 18  2  0  0  0  0
 20 19  1  0  0  0  0
 20 21  2  0  0  0  0
 21 22  1  0  0  0  0
 22 29  2  0  0  0  0
 22 23  1  0  0  0  0
 23 24  2  0  0  0  0
 24 26  1  0  0  0  0
 24 25  1  0  0  0  0
 26 27  1  0  0  0  0
 28 26  2  0  0  0  0
 29 28  1  0  0  0  0
M  END
>  <minimizedAffinity>
-5.6002593

>  <minimizedRMSD>
0.909525394

$$$$
