
     RDKit          3D

 32 34  0  0  0  0  0  0  0  0999 V2000
   46.5307   33.6248   44.3328 C   0  0  0  0  0  0  0  0  0  0  0  0
   46.2364   33.1937   45.6446 C   0  0  0  0  0  0  0  0  0  0  0  0
   45.2964   33.8954   46.3606 C   0  0  0  0  0  0  0  0  0  0  0  0
   44.6907   34.9729   45.7746 N   0  0  0  0  0  0  0  0  0  0  0  0
   44.9949   35.3537   44.5273 C   0  0  0  0  0  0  0  0  0  0  0  0
   45.9042   34.6964   43.8000 N   0  0  0  0  0  0  0  0  0  0  0  0
   45.0293   33.4559   47.6382 O   0  0  0  0  0  0  0  0  0  0  0  0
   45.3134   30.8652   47.4786 O   0  0  0  0  0  0  0  0  0  0  0  0
   45.8094   32.1060   48.2704 P   0  0  2  0  0  0  0  0  0  0  0  0
   45.3207   31.8278   49.8548 O   0  0  0  0  0  0  0  0  0  0  0  0
   47.4575   32.1929   48.1153 O   0  0  0  0  0  0  0  0  0  0  0  0
   48.4818   31.4212   48.5305 C   0  0  0  0  0  0  0  0  0  0  0  0
   49.2246   32.0359   49.4353 O   0  0  0  0  0  0  0  0  0  0  0  0
   47.2534   33.1401   43.6914 H   0  0  0  0  0  0  0  0  0  0  0  0
   46.8078   32.3420   45.9114 H   0  0  0  0  0  0  0  0  0  0  0  0
   44.5057   36.2028   44.0902 H   0  0  0  0  0  0  0  0  0  0  0  0
   45.3127   30.8605   50.0641 H   0  0  0  0  0  0  0  0  0  0  0  0
   49.0754   30.0376   48.2801 C   0  0  0  0  0  0  0  0  0  0  0  0
   50.3507   29.8700   47.9407 N   0  0  0  0  0  0  0  0  0  0  0  0
   50.9048   28.7086   47.6995 C   0  0  0  0  0  0  0  0  0  0  0  0
   50.1984   27.5895   47.7831 N   0  0  0  0  0  0  0  0  0  0  0  0
   48.9082   27.6924   48.1199 C   0  0  0  0  0  0  0  0  0  0  0  0
   48.2012   26.5284   48.1866 C   0  0  0  0  0  0  0  0  0  0  0  0
   46.8495   26.4885   48.5113 C   0  0  0  0  0  0  0  0  0  0  0  0
   46.3452   25.5451   48.5490 H   0  0  0  0  0  0  0  0  0  0  0  0
   46.2838   27.7411   48.7613 C   0  0  0  0  0  0  0  0  0  0  0  0
   45.2132   27.6584   49.0134 H   0  0  0  0  0  0  0  0  0  0  0  0
   47.0420   28.8850   48.6807 C   0  0  0  0  0  0  0  0  0  0  0  0
   48.3577   28.9044   48.3641 C   0  0  0  0  0  0  0  0  0  0  0  0
   51.9614   28.7959   47.4379 H   0  0  0  0  0  0  0  0  0  0  0  0
   48.6774   25.5845   47.9856 H   0  0  0  0  0  0  0  0  0  0  0  0
   46.4113   29.7113   48.8930 H   0  0  0  0  0  0  0  0  0  0  0  0
  1  2  2  0
  2  3  1  0
  3  7  1  0
  4  3  2  0
  5  4  1  0
  6  1  1  0
  6  5  2  0
  9  7  1  6
  9  8  2  0
  9 10  1  0
 11  9  1  0
 11 12  1  0
 12 13  2  0
  1 14  1  0
  2 15  1  0
  5 16  1  0
 10 17  1  0
 18 19  2  0
 19 20  1  0
 20 21  2  0
 21 22  1  0
 22 23  2  0
 23 24  1  0
 24 25  1  0
 24 26  2  0
 26 27  1  0
 26 28  1  0
 28 29  2  0
 29 18  1  0
 29 22  1  0
 20 30  1  0
 23 31  1  0
 28 32  1  0
 12 18  1  0
M  ISO  6  14  14  15  14  16  14  17   3  25  16  27  16
M  END
>  <DihAtoms>  (1) 
10,11,17,18

>  <DihDeg>  (1) 
5.488022689955052

$$$$
