REMARK  Name = 
REMARK  6 active torsions:
REMARK  status: ('A' for Active; 'I' for Inactive)
REMARK    1  A    between atoms: C_3  and  O_7
REMARK    2  A    between atoms: O_7  and  P_9
REMARK    3  A    between atoms: P_9  and  O_10
REMARK    4  A    between atoms: P_9  and  O_11
REMARK    5  A    between atoms: O_11  and  C_12
REMARK    6  A    between atoms: C_12  and  C_18
REMARK                            x       y       z     vdW  Elec       q    Type
REMARK                         _______ _______ _______ _____ _____    ______ ____
ROOT
ATOM      1  O   UNL     1      47.458  32.193  48.115  0.00  0.00    +0.000 OA
ENDROOT
BRANCH   1   3
ATOM      2  O   UNL     1      45.313  30.865  47.479  0.00  0.00    +0.000 OA
ATOM      3  P   UNL     1      45.809  32.106  48.270  0.00  0.00    +0.000 P 
BRANCH   3   4
ATOM      4  O   UNL     1      45.321  31.828  49.855  0.00  0.00    +0.000 OA
ATOM      5  H   UNL     1      45.313  30.860  50.064  0.00  0.00    +0.000 HD
ENDBRANCH   3   4
BRANCH   3   6
ATOM      6  O   UNL     1      45.029  33.456  47.638  0.00  0.00    +0.000 OA
BRANCH   6   9
ATOM      7  C   UNL     1      46.531  33.625  44.333  0.00  0.00    +0.000 A 
ATOM      8  C   UNL     1      46.236  33.194  45.645  0.00  0.00    +0.000 A 
ATOM      9  C   UNL     1      45.296  33.895  46.361  0.00  0.00    +0.000 A 
ATOM     10  N   UNL     1      44.691  34.973  45.775  0.00  0.00    +0.000 NA
ATOM     11  C   UNL     1      44.995  35.354  44.527  0.00  0.00    +0.000 A 
ATOM     12  N   UNL     1      45.904  34.696  43.800  0.00  0.00    +0.000 NA
ATOM     13  H   UNL     1      47.253  33.140  43.691  0.00  0.00    +0.000 HD
ATOM     14  H   UNL     1      46.808  32.342  45.911  0.00  0.00    +0.000 HD
ATOM     15  H   UNL     1      44.506  36.203  44.090  0.00  0.00    +0.000 HD
ENDBRANCH   6   9
ENDBRANCH   3   6
ENDBRANCH   1   3
BRANCH   1  16
ATOM     16  C   UNL     1      48.482  31.421  48.531  0.00  0.00    +0.000 C 
ATOM     17  O   UNL     1      49.225  32.036  49.435  0.00  0.00    +0.000 OA
BRANCH  16  18
ATOM     18  C   UNL     1      49.075  30.038  48.280  0.00  0.00    +0.000 A 
ATOM     19  N   UNL     1      50.351  29.870  47.941  0.00  0.00    +0.000 NA
ATOM     20  C   UNL     1      50.905  28.709  47.700  0.00  0.00    +0.000 A 
ATOM     21  N   UNL     1      50.198  27.590  47.783  0.00  0.00    +0.000 NA
ATOM     22  C   UNL     1      48.908  27.692  48.120  0.00  0.00    +0.000 A 
ATOM     23  C   UNL     1      48.201  26.528  48.187  0.00  0.00    +0.000 A 
ATOM     24  C   UNL     1      46.849  26.488  48.511  0.00  0.00    +0.000 A 
ATOM     25  H   UNL     1      46.345  25.545  48.549  0.00  0.00    +0.000 HD
ATOM     26  C   UNL     1      46.284  27.741  48.761  0.00  0.00    +0.000 A 
ATOM     27  H   UNL     1      45.213  27.658  49.013  0.00  0.00    +0.000 HD
ATOM     28  C   UNL     1      47.042  28.885  48.681  0.00  0.00    +0.000 A 
ATOM     29  C   UNL     1      48.358  28.904  48.364  0.00  0.00    +0.000 A 
ENDBRANCH  16  18
ENDBRANCH   1  16
TORSDOF 6
