
     RDKit          3D

 32 34  0  0  0  0  0  0  0  0999 V2000
   46.5307   33.6248   44.3328 C   0  0  0  0  0  0  0  0  0  0  0  0
   46.2364   33.1937   45.6446 C   0  0  0  0  0  0  0  0  0  0  0  0
   45.2964   33.8954   46.3606 C   0  0  0  0  0  0  0  0  0  0  0  0
   44.6907   34.9729   45.7746 N   0  0  0  0  0  0  0  0  0  0  0  0
   44.9949   35.3537   44.5273 C   0  0  0  0  0  0  0  0  0  0  0  0
   45.9042   34.6964   43.8000 N   0  0  0  0  0  0  0  0  0  0  0  0
   45.0293   33.4559   47.6382 O   0  0  0  0  0  0  0  0  0  0  0  0
   45.3134   30.8652   47.4786 O   0  0  0  0  0  0  0  0  0  0  0  0
   45.8094   32.1060   48.2704 P   0  0  2  0  0  0  0  0  0  0  0  0
   45.3207   31.8278   49.8548 O   0  0  0  0  0  0  0  0  0  0  0  0
   47.4575   32.1929   48.1153 O   0  0  0  0  0  0  0  0  0  0  0  0
   48.4818   31.4212   48.5305 C   0  0  0  0  0  0  0  0  0  0  0  0
   49.2246   32.0359   49.4353 O   0  0  0  0  0  0  0  0  0  0  0  0
   47.2534   33.1401   43.6914 H   0  0  0  0  0  0  0  0  0  0  0  0
   46.8078   32.3420   45.9114 H   0  0  0  0  0  0  0  0  0  0  0  0
   44.5057   36.2028   44.0902 H   0  0  0  0  0  0  0  0  0  0  0  0
   45.3127   30.8605   50.0641 H   0  0  0  0  0  0  0  0  0  0  0  0
   49.0754   30.0376   48.2801 C   0  0  0  0  0  0  0  0  0  0  0  0
   48.6055   29.2315   47.3319 N   0  0  0  0  0  0  0  0  0  0  0  0
   49.0672   28.0312   47.0868 C   0  0  0  0  0  0  0  0  0  0  0  0
   50.0687   27.5312   47.7978 N   0  0  0  0  0  0  0  0  0  0  0  0
   50.5842   28.2942   48.7677 C   0  0  0  0  0  0  0  0  0  0  0  0
   51.6042   27.7521   49.4922 C   0  0  0  0  0  0  0  0  0  0  0  0
   52.2240   28.4275   50.5380 C   0  0  0  0  0  0  0  0  0  0  0  0
   53.0206   27.9523   51.0722 H   0  0  0  0  0  0  0  0  0  0  0  0
   51.7104   29.7041   50.7789 C   0  0  0  0  0  0  0  0  0  0  0  0
   52.2320   30.1987   51.6155 H   0  0  0  0  0  0  0  0  0  0  0  0
   50.6802   30.2039   50.0181 C   0  0  0  0  0  0  0  0  0  0  0  0
   50.0897   29.5319   49.0025 C   0  0  0  0  0  0  0  0  0  0  0  0
   48.5398   27.5399   46.2664 H   0  0  0  0  0  0  0  0  0  0  0  0
   51.9689   26.7638   49.2725 H   0  0  0  0  0  0  0  0  0  0  0  0
   50.4444   31.1721   50.3821 H   0  0  0  0  0  0  0  0  0  0  0  0
  1  2  2  0
  2  3  1  0
  3  7  1  0
  4  3  2  0
  5  4  1  0
  6  1  1  0
  6  5  2  0
  9  7  1  6
  9  8  2  0
  9 10  1  0
 11  9  1  0
 11 12  1  0
 12 13  2  0
  1 14  1  0
  2 15  1  0
  5 16  1  0
 10 17  1  0
 18 19  2  0
 19 20  1  0
 20 21  2  0
 21 22  1  0
 22 23  2  0
 23 24  1  0
 24 25  1  0
 24 26  2  0
 26 27  1  0
 26 28  1  0
 28 29  2  0
 29 18  1  0
 29 22  1  0
 20 30  1  0
 23 31  1  0
 28 32  1  0
 12 18  1  0
M  ISO  6  14  14  15  14  16  14  17   3  25  16  27  16
M  END
>  <DihAtoms>  (1) 
10,11,17,18

>  <DihDeg>  (1) 
5.488022689955052

$$$$
