
     RDKit          3D

 32 34  0  0  0  0  0  0  0  0999 V2000
   46.5307   33.6248   44.3328 C   0  0  0  0  0  0  0  0  0  0  0  0
   46.2364   33.1937   45.6446 C   0  0  0  0  0  0  0  0  0  0  0  0
   45.2964   33.8954   46.3606 C   0  0  0  0  0  0  0  0  0  0  0  0
   44.6907   34.9729   45.7746 N   0  0  0  0  0  0  0  0  0  0  0  0
   44.9949   35.3537   44.5273 C   0  0  0  0  0  0  0  0  0  0  0  0
   45.9042   34.6964   43.8000 N   0  0  0  0  0  0  0  0  0  0  0  0
   45.0293   33.4559   47.6382 O   0  0  0  0  0  0  0  0  0  0  0  0
   45.3134   30.8652   47.4786 O   0  0  0  0  0  0  0  0  0  0  0  0
   45.8094   32.1060   48.2704 P   0  0  2  0  0  0  0  0  0  0  0  0
   45.3207   31.8278   49.8548 O   0  0  0  0  0  0  0  0  0  0  0  0
   47.4575   32.1929   48.1153 O   0  0  0  0  0  0  0  0  0  0  0  0
   48.4818   31.4212   48.5305 C   0  0  0  0  0  0  0  0  0  0  0  0
   49.2246   32.0359   49.4353 O   0  0  0  0  0  0  0  0  0  0  0  0
   47.2534   33.1401   43.6914 H   0  0  0  0  0  0  0  0  0  0  0  0
   46.8078   32.3420   45.9114 H   0  0  0  0  0  0  0  0  0  0  0  0
   44.5057   36.2028   44.0902 H   0  0  0  0  0  0  0  0  0  0  0  0
   45.3127   30.8605   50.0641 H   0  0  0  0  0  0  0  0  0  0  0  0
   49.0754   30.0376   48.2801 C   0  0  0  0  0  0  0  0  0  0  0  0
   50.3891   29.8340   48.2307 N   0  0  0  0  0  0  0  0  0  0  0  0
   50.9489   28.6725   48.0035 C   0  0  0  0  0  0  0  0  0  0  0  0
   50.2090   27.5907   47.8018 N   0  0  0  0  0  0  0  0  0  0  0  0
   48.8795   27.7311   47.8384 C   0  0  0  0  0  0  0  0  0  0  0  0
   48.1418   26.6062   47.6154 C   0  0  0  0  0  0  0  0  0  0  0  0
   46.7511   26.6092   47.6110 C   0  0  0  0  0  0  0  0  0  0  0  0
   46.2237   25.6954   47.4304 H   0  0  0  0  0  0  0  0  0  0  0  0
   46.1807   27.8611   47.8537 C   0  0  0  0  0  0  0  0  0  0  0  0
   45.0788   27.8131   47.8398 H   0  0  0  0  0  0  0  0  0  0  0  0
   46.9708   28.9645   48.0729 C   0  0  0  0  0  0  0  0  0  0  0  0
   48.3240   28.9424   48.0747 C   0  0  0  0  0  0  0  0  0  0  0  0
   52.0396   28.7267   48.0054 H   0  0  0  0  0  0  0  0  0  0  0  0
   48.6230   25.6614   47.4320 H   0  0  0  0  0  0  0  0  0  0  0  0
   46.3333   29.7998   48.2189 H   0  0  0  0  0  0  0  0  0  0  0  0
  1  2  2  0
  2  3  1  0
  3  7  1  0
  4  3  2  0
  5  4  1  0
  6  1  1  0
  6  5  2  0
  9  7  1  6
  9  8  2  0
  9 10  1  0
 11  9  1  0
 11 12  1  0
 12 13  2  0
  1 14  1  0
  2 15  1  0
  5 16  1  0
 10 17  1  0
 18 19  2  0
 19 20  1  0
 20 21  2  0
 21 22  1  0
 22 23  2  0
 23 24  1  0
 24 25  1  0
 24 26  2  0
 26 27  1  0
 26 28  1  0
 28 29  2  0
 29 18  1  0
 29 22  1  0
 20 30  1  0
 23 31  1  0
 28 32  1  0
 12 18  1  0
M  ISO  6  14  14  15  14  16  14  17   3  25  16  27  16
M  END
>  <DihAtoms>  (1) 
10,11,17,18

>  <DihDeg>  (1) 
5.488022689955052

$$$$
