
 OpenBabel03242522503D

 29 31  0  0  0  0  0  0  0  0999 V2000
   47.2750   31.7640   47.9620 O   0  0  0  0  0  0  0  0  0  0  0  0
   44.8760   30.8330   47.5790 O   0  0  0  0  0  0  0  0  0  0  0  0
   45.6610   31.9730   48.2820 P   0  0  1  0  0  0  0  0  0  0  0  0
   45.2980   31.8020   49.9150 O   0  0  0  0  0  0  0  0  0  0  0  0
   45.1410   30.8520   50.1510 H   0  0  0  0  0  0  0  0  0  0  0  0
   45.0710   33.4340   47.6940 O   0  0  0  0  0  0  0  0  0  0  0  0
   46.6190   33.5560   44.4090 C   0  0  0  0  0  0  0  0  0  0  0  0
   46.3220   33.1580   45.7310 C   0  0  0  0  0  0  0  0  0  0  0  0
   45.3390   33.8400   46.4060 C   0  0  0  0  0  0  0  0  0  0  0  0
   44.6950   34.8670   45.7720 N   0  0  0  0  0  0  0  0  0  0  0  0
   45.0030   35.2170   44.5160 C   0  0  0  0  0  0  0  0  0  0  0  0
   45.9530   34.5770   43.8280 N   0  0  0  0  0  0  0  0  0  0  0  0
   47.3740   33.0820   43.7960 H   0  0  0  0  0  0  0  0  0  0  0  0
   46.9280   32.3440   46.0360 H   0  0  0  0  0  0  0  0  0  0  0  0
   44.4830   36.0270   44.0410 H   0  0  0  0  0  0  0  0  0  0  0  0
   48.0860   30.6890   47.8880 C   0  0  0  0  0  0  0  0  0  0  0  0
   49.1830   30.8510   48.6080 O   0  0  0  0  0  0  0  0  0  0  0  0
   48.1470   29.3200   47.2170 C   0  0  0  0  0  0  0  0  0  0  0  0
   48.1700   28.1920   47.9220 N   0  0  0  0  0  0  0  0  0  0  0  0
   48.2380   26.9940   47.3980 C   0  0  0  0  0  3  0  0  0  0  0  0
   48.2920   26.8310   46.0830 N   0  0  0  0  0  0  0  0  0  0  0  0
   48.2740   27.9290   45.3190 C   0  0  0  0  0  0  0  0  0  0  0  0
   48.3430   27.7340   43.9720 C   0  0  0  0  0  3  0  0  0  0  0  0
   48.3470   28.7860   43.0600 C   0  0  0  0  0  0  0  0  0  0  0  0
   48.4030   28.5730   42.0130 H   0  0  0  0  0  0  0  0  0  0  0  0
   48.2760   30.0510   43.6470 C   0  0  0  0  0  0  0  0  0  0  0  0
   48.2830   30.8500   42.8860 H   0  0  0  0  0  0  0  0  0  0  0  0
   48.2080   30.1920   45.0130 C   0  0  0  0  0  3  0  0  0  0  0  0
   48.2030   29.1560   45.8840 C   0  0  0  0  0  0  0  0  0  0  0  0
  1  3  1  0  0  0  0
  3  2  2  6  0  0  0
  3  4  1  0  0  0  0
  4  5  1  0  0  0  0
  6  3  1  0  0  0  0
  7  8  1  0  0  0  0
  8 14  1  0  0  0  0
  8  9  2  0  0  0  0
  9  6  1  0  0  0  0
 10  9  1  0  0  0  0
 11 10  2  0  0  0  0
 12  7  2  0  0  0  0
 12 11  1  0  0  0  0
 13  7  1  0  0  0  0
 15 11  1  0  0  0  0
 16  1  1  0  0  0  0
 16 17  2  0  0  0  0
 18 16  1  0  0  0  0
 18 19  1  0  0  0  0
 20 19  2  0  0  0  0
 21 20  1  0  0  0  0
 22 29  1  0  0  0  0
 22 21  2  0  0  0  0
 23 22  1  0  0  0  0
 24 26  1  0  0  0  0
 24 23  2  0  0  0  0
 25 24  1  0  0  0  0
 26 28  2  0  0  0  0
 27 26  1  0  0  0  0
 28 29  1  0  0  0  0
 29 18  2  0  0  0  0
M  END
>  <minimizedAffinity>
-4.37538815

>  <minimizedRMSD>
2.09703159

$$$$
