
 OpenBabel03242519413D

 32 35  0  0  1  0  0  0  0  0999 V2000
   48.0590   32.9100   41.8880 O   0  0  0  0  0  0  0  0  0  0  0  0
   47.1980   34.0740   41.3710 P   0  0  2  0  0  0  0  0  0  0  0  0
   45.5930   33.9260   41.9710 O   0  0  0  0  0  0  0  0  0  0  0  0
   44.3810   35.9430   44.7150 C   0  0  0  0  0  0  0  0  0  0  0  0
   44.6730   35.5290   43.3970 C   0  0  0  0  0  0  0  0  0  0  0  0
   45.3190   34.2990   43.2510 C   0  0  0  0  0  0  0  0  0  0  0  0
   45.6280   33.5740   44.3540 N   0  0  0  0  0  0  0  0  0  0  0  0
   45.3330   34.0030   45.5930 C   0  0  0  0  0  0  0  0  0  0  0  0
   44.7100   35.1860   45.7800 N   0  0  0  0  0  0  0  0  0  0  0  0
   43.8810   36.8950   44.8460 H   0  0  0  0  0  0  0  0  0  0  0  0
   44.4110   36.1330   42.5450 H   0  0  0  0  0  0  0  0  0  0  0  0
   45.6210   33.3500   46.4130 H   0  0  0  0  0  0  0  0  0  0  0  0
   47.0870   33.9780   39.7300 O   0  0  0  0  0  0  0  0  0  0  0  0
   46.5040   33.1560   38.8880 C   0  0  1  0  0  3  0  0  0  0  0  0
   47.1240   31.9720   38.7290 O   0  0  0  0  0  0  0  0  0  0  0  0
   45.6880   32.5020   37.9640 C   0  0  2  0  0  0  0  0  0  0  0  0
   46.0760   31.9510   36.7990 N   0  0  0  0  0  2  0  0  0  0  0  0
   45.2870   31.3120   35.9110 C   0  0  0  0  0  3  0  0  0  0  0  0
   44.0180   31.2190   36.2130 N   0  0  0  0  0  0  0  0  0  0  0  0
   43.4210   31.6840   37.2990 C   0  0  0  0  0  0  0  0  0  0  0  0
   42.0750   31.4990   37.4720 C   0  0  0  0  0  3  0  0  0  0  0  0
   41.5280   32.0030   38.6280 C   0  0  0  0  0  0  0  0  0  0  0  0
   40.4690   31.8610   38.7690 H   0  0  0  0  0  0  0  0  0  0  0  0
   42.3170   32.6570   39.5460 C   0  0  0  0  0  0  0  0  0  0  0  0
   41.8490   33.0360   40.4400 H   0  0  0  0  0  0  0  0  0  0  0  0
   43.6590   32.7840   39.2680 C   0  0  0  0  0  3  0  0  0  0  0  0
   44.3070   32.3140   38.1340 C   0  0  0  0  0  0  0  0  0  0  0  0
   47.7900   35.4940   41.9670 O   0  0  0  0  0  0  0  0  0  0  0  0
   49.0390   35.7740   41.4310 C   0  0  0  0  0  0  0  0  0  0  0  0
   49.4600   37.0530   41.7780 F   0  0  0  0  0  0  0  0  0  0  0  0
   49.9450   34.8180   41.7640 F   0  0  0  0  0  0  0  0  0  0  0  0
   48.8760   35.7790   40.0580 F   0  0  0  0  0  0  0  0  0  0  0  0
  2  1  2  1  0  0  0
  2 28  1  0  0  0  0
  2  3  1  0  0  0  0
  3  6  1  0  0  0  0
  4 10  1  0  0  0  0
  4  9  1  0  0  0  0
  5  4  2  0  0  0  0
  6  5  1  0  0  0  0
  6  7  2  0  0  0  0
  7  8  1  0  0  0  0
  8  9  2  0  0  0  0
  8 12  1  0  0  0  0
 11  5  1  0  0  0  0
 13  2  1  0  0  0  0
 14 13  1  1  0  0  0
 15 14  1  0  0  0  0
 16 17  1  6  0  0  0
 16 27  1  0  0  0  0
 16 15  1  0  0  0  0
 16 14  1  0  0  0  0
 18 19  2  0  0  0  0
 18 17  1  0  0  0  0
 19 20  1  0  0  0  0
 20 21  2  0  0  0  0
 20 27  1  0  0  0  0
 21 22  1  0  0  0  0
 22 23  1  0  0  0  0
 22 24  2  0  0  0  0
 24 25  1  0  0  0  0
 26 24  1  0  0  0  0
 27 26  2  0  0  0  0
 29 31  1  0  0  0  0
 29 30  1  0  0  0  0
 29 28  1  0  0  0  0
 32 29  1  0  0  0  0
M  END
>  <minimizedAffinity>
-5.56224823

>  <minimizedRMSD>
1.49598217

$$$$
