
 OpenBabel03242519413D

 32 35  0  0  1  0  0  0  0  0999 V2000
   47.9750   32.6410   41.7790 O   0  0  0  0  0  0  0  0  0  0  0  0
   46.9880   33.7310   41.3320 P   0  0  2  0  0  0  0  0  0  0  0  0
   45.4680   33.4930   42.1010 O   0  0  0  0  0  0  0  0  0  0  0  0
   44.3480   35.8970   44.5580 C   0  0  0  0  0  0  0  0  0  0  0  0
   44.5940   35.2920   43.3060 C   0  0  0  0  0  0  0  0  0  0  0  0
   45.2400   34.0530   43.3210 C   0  0  0  0  0  0  0  0  0  0  0  0
   45.5930   33.4990   44.5070 N   0  0  0  0  0  0  0  0  0  0  0  0
   45.3410   34.1090   45.6780 C   0  0  0  0  0  0  0  0  0  0  0  0
   44.7200   35.3070   45.7110 N   0  0  0  0  0  0  0  0  0  0  0  0
   43.8490   36.8580   44.5640 H   0  0  0  0  0  0  0  0  0  0  0  0
   44.2980   35.7620   42.3850 H   0  0  0  0  0  0  0  0  0  0  0  0
   45.6630   33.5850   46.5750 H   0  0  0  0  0  0  0  0  0  0  0  0
   46.7130   33.5840   39.7140 O   0  0  0  0  0  0  0  0  0  0  0  0
   45.6990   33.1870   38.9790 C   0  0  1  0  0  3  0  0  0  0  0  0
   45.9140   33.2150   37.6510 O   0  0  0  0  0  0  0  0  0  0  0  0
   44.4880   32.7260   38.4610 C   0  0  1  0  0  0  0  0  0  0  0  0
   44.3150   31.6710   37.6420 N   0  0  0  0  0  2  0  0  0  0  0  0
   43.1430   31.2220   37.1480 C   0  0  0  0  0  3  0  0  0  0  0  0
   42.0680   31.8780   37.4990 N   0  0  0  0  0  0  0  0  0  0  0  0
   42.0020   32.9380   38.2900 C   0  0  0  0  0  0  0  0  0  0  0  0
   40.7900   33.5100   38.5670 C   0  0  0  0  0  3  0  0  0  0  0  0
   40.8020   34.6030   39.4010 C   0  0  0  0  0  0  0  0  0  0  0  0
   39.8510   35.0570   39.6220 H   0  0  0  0  0  0  0  0  0  0  0  0
   41.9870   35.0750   39.9170 C   0  0  0  0  0  0  0  0  0  0  0  0
   41.9530   35.9330   40.5660 H   0  0  0  0  0  0  0  0  0  0  0  0
   43.1470   34.4200   39.5690 C   0  0  0  0  0  3  0  0  0  0  0  0
   43.2430   33.3120   38.7370 C   0  0  0  0  0  0  0  0  0  0  0  0
   47.5390   35.2020   41.8330 O   0  0  0  0  0  0  0  0  0  0  0  0
   48.7940   35.4680   41.3030 C   0  0  0  0  0  0  0  0  0  0  0  0
   49.2490   36.7230   41.6910 F   0  0  0  0  0  0  0  0  0  0  0  0
   49.6760   34.4780   41.5990 F   0  0  0  0  0  0  0  0  0  0  0  0
   48.6270   35.5260   39.9310 F   0  0  0  0  0  0  0  0  0  0  0  0
  2  1  2  1  0  0  0
  2 28  1  0  0  0  0
  2  3  1  0  0  0  0
  3  6  1  0  0  0  0
  4 10  1  0  0  0  0
  4  9  1  0  0  0  0
  5  6  1  0  0  0  0
  5  4  2  0  0  0  0
  6  7  2  0  0  0  0
  7  8  1  0  0  0  0
  8  9  2  0  0  0  0
  8 12  1  0  0  0  0
 11  5  1  0  0  0  0
 13  2  1  0  0  0  0
 14 13  1  1  0  0  0
 15 16  1  0  0  0  0
 15 14  1  0  0  0  0
 16 17  1  1  0  0  0
 16 27  1  0  0  0  0
 16 14  1  0  0  0  0
 18 19  2  0  0  0  0
 18 17  1  0  0  0  0
 19 20  1  0  0  0  0
 20 21  2  0  0  0  0
 20 27  1  0  0  0  0
 21 22  1  0  0  0  0
 22 23  1  0  0  0  0
 22 24  2  0  0  0  0
 24 25  1  0  0  0  0
 26 24  1  0  0  0  0
 27 26  2  0  0  0  0
 29 31  1  0  0  0  0
 29 30  1  0  0  0  0
 29 28  1  0  0  0  0
 32 29  1  0  0  0  0
M  END
>  <minimizedAffinity>
-5.98672962

>  <minimizedRMSD>
3.04887438

$$$$
