REMARK  Name = 
REMARK  7 active torsions:
REMARK  status: ('A' for Active; 'I' for Inactive)
REMARK    1  A    between atoms: P_2  and  O_3
REMARK    2  A    between atoms: P_2  and  O_10
REMARK    3  A    between atoms: P_2  and  O_13
REMARK    4  A    between atoms: O_3  and  C_6
REMARK    5  A    between atoms: O_10  and  C_11
REMARK    6  A    between atoms: C_11  and  C_21
REMARK    7  A    between atoms: O_13  and  C_14
REMARK                            x       y       z     vdW  Elec       q    Type
REMARK                         _______ _______ _______ _____ _____    ______ ____
ROOT
ATOM      1  O   UNL     1      48.053  32.882  41.883  0.00  0.00    +0.000 OA
ATOM      2  P   UNL     1      47.177  34.027  41.349  0.00  0.00    +0.000 P 
ENDROOT
BRANCH   2   3
ATOM      3  O   UNL     1      45.579  33.876  41.965  0.00  0.00    +0.000 OA
BRANCH   3   6
ATOM      4  C   UNL     1      44.380  35.922  44.694  0.00  0.00    +0.000 A 
ATOM      5  C   UNL     1      44.663  35.493  43.379  0.00  0.00    +0.000 A 
ATOM      6  C   UNL     1      45.314  34.264  43.243  0.00  0.00    +0.000 A 
ATOM      7  N   UNL     1      45.636  33.554  44.352  0.00  0.00    +0.000 NA
ATOM      8  C   UNL     1      45.349  33.998  45.588  0.00  0.00    +0.000 A 
ATOM      9  N   UNL     1      44.722  35.180  45.766  0.00  0.00    +0.000 NA
ATOM     10  H   UNL     1      43.877  36.873  44.817  0.00  0.00    +0.000 HD
ATOM     11  H   UNL     1      44.391  36.084  42.522  0.00  0.00    +0.000 HD
ATOM     12  H   UNL     1      45.648  33.357  46.414  0.00  0.00    +0.000 HD
ENDBRANCH   3   6
ENDBRANCH   2   3
BRANCH   2  13
ATOM     13  O   UNL     1      47.053  33.896  39.711  0.00  0.00    +0.000 OA
BRANCH  13  14
ATOM     14  C   UNL     1      46.416  33.091  38.892  0.00  0.00    +0.000 C 
ATOM     15  O   UNL     1      46.371  33.502  37.611  0.00  0.00    +0.000 OA
BRANCH  14  16
ATOM     16  C   UNL     1      45.700  32.071  38.265  0.00  0.00    +0.000 A 
ATOM     17  N   UNL     1      44.991  31.098  38.867  0.00  0.00    +0.000 NA
ATOM     18  C   UNL     1      44.293  30.119  38.259  0.00  0.00    +0.000 A 
ATOM     19  N   UNL     1      44.306  30.112  36.951  0.00  0.00    +0.000 NA
ATOM     20  C   UNL     1      44.932  30.966  36.157  0.00  0.00    +0.000 A 
ATOM     21  C   UNL     1      44.844  30.827  34.798  0.00  0.00    +0.000 A 
ATOM     22  C   UNL     1      45.515  31.756  34.038  0.00  0.00    +0.000 A 
ATOM     23  H   UNL     1      45.448  31.651  32.968  0.00  0.00    +0.000 HD
ATOM     24  C   UNL     1      46.231  32.764  34.641  0.00  0.00    +0.000 A 
ATOM     25  H   UNL     1      46.742  33.472  34.011  0.00  0.00    +0.000 HD
ATOM     26  C   UNL     1      46.251  32.807  36.017  0.00  0.00    +0.000 A 
ATOM     27  C   UNL     1      45.610  31.920  36.872  0.00  0.00    +0.000 A 
ENDBRANCH  14  16
ENDBRANCH  13  14
ENDBRANCH   2  13
BRANCH   2  28
ATOM     28  O   UNL     1      47.760  35.464  41.910  0.00  0.00    +0.000 OA
BRANCH  28  29
ATOM     29  C   UNL     1      49.007  35.739  41.367  0.00  0.00    +0.000 C 
ATOM     30  F   UNL     1      49.411  37.036  41.664  0.00  0.00    +0.000 F 
ATOM     31  F   UNL     1      49.925  34.809  41.739  0.00  0.00    +0.000 F 
ATOM     32  F   UNL     1      48.848  35.689  39.994  0.00  0.00    +0.000 F 
ENDBRANCH  28  29
ENDBRANCH   2  28
TORSDOF 7
