
     RDKit          3D

 35 37  0  0  0  0  0  0  0  0999 V2000
   48.0526   32.8823   41.8827 O   0  0  0  0  0  0  0  0  0  0  0  0
   47.1771   34.0269   41.3494 P   0  0  2  0  0  0  0  0  0  0  0  0
   45.5791   33.8756   41.9652 O   0  0  0  0  0  0  0  0  0  0  0  0
   44.3805   35.9225   44.6942 C   0  0  0  0  0  0  0  0  0  0  0  0
   44.6635   35.4929   43.3787 C   0  0  0  0  0  0  0  0  0  0  0  0
   45.3139   34.2642   43.2429 C   0  0  0  0  0  0  0  0  0  0  0  0
   45.6364   33.5536   44.3517 N   0  0  0  0  0  0  0  0  0  0  0  0
   45.3489   33.9983   45.5878 C   0  0  0  0  0  0  0  0  0  0  0  0
   44.7225   35.1799   45.7664 N   0  0  0  0  0  0  0  0  0  0  0  0
   47.0532   33.8956   39.7108 O   0  0  0  0  0  0  0  0  0  0  0  0
   46.4165   33.0907   38.8925 C   0  0  0  0  0  0  0  0  0  0  0  0
   46.3710   33.5018   37.6115 O   0  0  0  0  0  0  0  0  0  0  0  0
   47.7595   35.4639   41.9096 O   0  0  0  0  0  0  0  0  0  0  0  0
   49.0071   35.7387   41.3674 C   0  0  0  0  0  0  0  0  0  0  0  0
   49.4112   37.0360   41.6641 F   0  0  0  0  0  0  0  0  0  0  0  0
   49.9251   34.8089   41.7390 F   0  0  0  0  0  0  0  0  0  0  0  0
   48.8481   35.6892   39.9939 F   0  0  0  0  0  0  0  0  0  0  0  0
   43.8772   36.8727   44.8172 H   0  0  0  0  0  0  0  0  0  0  0  0
   44.3910   36.0840   42.5223 H   0  0  0  0  0  0  0  0  0  0  0  0
   45.6480   33.3570   46.4137 H   0  0  0  0  0  0  0  0  0  0  0  0
   45.7000   32.0708   38.2647 C   0  0  0  0  0  0  0  0  0  0  0  0
   44.6755   32.2204   37.4046 N   0  0  0  0  0  0  0  0  0  0  0  0
   43.9897   31.2338   36.7934 C   0  0  0  0  0  0  0  0  0  0  0  0
   44.3570   30.0082   37.0630 N   0  0  0  0  0  0  0  0  0  0  0  0
   45.3325   29.6284   37.8737 C   0  0  0  0  0  0  0  0  0  0  0  0
   45.5984   28.2970   38.0471 C   0  0  0  0  0  0  0  0  0  0  0  0
   46.6303   27.9808   38.8982 C   0  0  0  0  0  0  0  0  0  0  0  0
   46.8434   26.9341   39.0381 H   0  0  0  0  0  0  0  0  0  0  0  0
   47.3428   28.9736   39.5303 C   0  0  0  0  0  0  0  0  0  0  0  0
   48.1439   28.6841   40.1891 H   0  0  0  0  0  0  0  0  0  0  0  0
   46.9874   30.2800   39.2813 C   0  0  0  0  0  0  0  0  0  0  0  0
   45.9646   30.7042   38.4425 C   0  0  0  0  0  0  0  0  0  0  0  0
   43.1810   31.4992   36.1195 H   0  0  0  0  0  0  0  0  0  0  0  0
   44.9969   27.5781   37.5177 H   0  0  0  0  0  0  0  0  0  0  0  0
   47.5799   30.9761   39.7930 H   0  0  0  0  0  0  0  0  0  0  0  0
  2  1  2  0
  2  3  1  1
  2 13  1  0
  3  6  1  0
  4  9  2  0
  5  4  1  0
  6  5  2  0
  6  7  1  0
  7  8  2  0
  8  9  1  0
 10  2  1  0
 11 10  1  0
 12 11  2  0
 14 16  1  0
 14 15  1  0
 14 13  1  0
 17 14  1  0
  4 18  1  0
  5 19  1  0
  8 20  1  0
 21 22  2  0
 22 23  1  0
 23 24  2  0
 24 25  1  0
 25 26  2  0
 26 27  1  0
 27 28  1  0
 27 29  2  0
 29 30  1  0
 29 31  1  0
 31 32  2  0
 32 21  1  0
 32 25  1  0
 23 33  1  0
 26 34  1  0
 31 35  1  0
 11 21  1  0
M  ISO  5  18  14  19  14  20  14  28  16  30  16
M  END
>  <DihAtoms>  (1) 
9,10,20,21

>  <DihDeg>  (1) 
178.31957444242707

$$$$
