
 OpenBabel03242510223D

 41 45  0  0  1  0  0  0  0  0999 V2000
   49.1050   33.9080   40.9660 C   0  0  2  0  0  0  0  0  0  0  0  0
   48.6060   35.3960   40.8250 C   0  0  0  0  0  0  0  0  0  0  0  0
   47.8150   34.2260   40.3440 C   0  0  1  0  0  0  0  0  0  0  0  0
   49.9870   33.7640   40.3110 H   0  0  0  0  0  0  0  0  0  0  0  0
   48.3040   35.8880   41.7750 H   0  0  0  0  0  0  0  0  0  0  0  0
   49.0480   36.0090   40.0460 H   0  0  0  0  0  0  0  0  0  0  0  0
   46.9450   33.8900   40.9620 H   0  0  0  0  0  0  0  0  0  0  0  0
   48.0270   33.2900   43.1500 N   0  0  0  0  0  0  0  0  0  0  0  0
   49.1890   33.3650   42.3810 C   0  0  0  0  0  0  0  0  0  0  0  0
   50.3730   33.0420   42.6540 O   0  0  0  0  0  0  0  0  0  0  0  0
   47.4370   34.1630   43.0340 H   0  0  0  0  0  0  0  0  0  0  0  0
   46.3620   32.1590   44.5760 C   0  0  1  0  0  0  0  0  0  0  0  0
   46.5010   31.3520   43.4430 C   0  0  0  0  0  0  0  0  0  0  0  0
   47.7140   32.1710   43.9690 C   0  0  1  0  0  0  0  0  0  0  0  0
   46.2370   31.7310   45.6040 H   0  0  0  0  0  0  0  0  0  0  0  0
   46.2420   31.5210   42.3830 H   0  0  0  0  0  0  0  0  0  0  0  0
   46.5740   30.2320   43.6130 H   0  0  0  0  0  0  0  0  0  0  0  0
   48.5490   31.5060   44.2400 H   0  0  0  0  0  0  0  0  0  0  0  0
   45.0220   33.9160   43.2080 C   0  0  0  0  0  0  0  0  0  0  0  0
   45.5610   33.4570   44.4540 C   0  0  0  0  0  0  0  0  0  0  0  0
   45.3510   34.2460   45.5670 C   0  0  0  0  0  0  0  0  0  0  0  0
   44.6560   35.3990   45.4310 N   0  0  0  0  0  0  0  0  0  0  0  0
   44.1530   35.8210   44.2400 C   0  0  0  0  0  0  0  0  0  0  0  0
   44.3480   35.0430   43.0920 N   0  0  0  0  0  0  0  0  0  0  0  0
   45.2100   33.2470   42.4210 H   0  0  0  0  0  0  0  0  0  0  0  0
   45.7420   33.9290   46.5230 H   0  0  0  0  0  0  0  0  0  0  0  0
   43.6000   36.7520   44.1600 H   0  0  0  0  0  0  0  0  0  0  0  0
   47.6910   33.9870   38.8460 C   0  0  0  0  0  0  0  0  0  0  0  0
   48.4660   34.6150   38.0990 O   0  0  0  0  0  0  0  0  0  0  0  0
   46.6190   33.0030   38.5220 C   0  0  0  0  0  0  0  0  0  0  0  0
   45.5360   33.3360   37.7970 N   0  0  0  0  0  0  0  0  0  0  0  0
   44.5730   32.4560   37.5050 C   0  0  0  0  0  3  0  0  0  0  0  0
   44.5920   31.1720   37.9000 N   0  0  0  0  0  0  0  0  0  0  0  0
   45.6450   30.7690   38.6290 C   0  0  0  0  0  0  0  0  0  0  0  0
   45.6980   29.4750   39.0470 C   0  0  0  0  0  3  0  0  0  0  0  0
   46.7520   29.0000   39.7990 C   0  0  0  0  0  0  0  0  0  0  0  0
   46.7600   27.9660   40.1130 H   0  0  0  0  0  0  0  0  0  0  0  0
   47.7660   29.9150   40.1090 C   0  0  0  0  0  0  0  0  0  0  0  0
   48.5710   29.5170   40.6940 H   0  0  0  0  0  0  0  0  0  0  0  0
   47.6710   31.2060   39.6690 C   0  0  0  0  0  3  0  0  0  0  0  0
   46.6260   31.6890   38.9200 C   0  0  0  0  0  0  0  0  0  0  0  0
  1  4  1  6  0  0  0
  1  9  1  0  0  0  0
  2  1  1  0  0  0  0
  2  5  1  0  0  0  0
  3  2  1  0  0  0  0
  3  7  1  1  0  0  0
  3  1  1  0  0  0  0
  6  2  1  0  0  0  0
  8 14  1  0  0  0  0
  9 10  2  0  0  0  0
  9  8  1  0  0  0  0
 11  8  1  0  0  0  0
 12 15  1  1  0  0  0
 13 17  1  0  0  0  0
 13 14  1  0  0  0  0
 13 12  1  0  0  0  0
 14 18  1  1  0  0  0
 14 12  1  0  0  0  0
 16 13  1  0  0  0  0
 19 20  1  0  0  0  0
 20 12  1  0  0  0  0
 20 21  2  0  0  0  0
 21 26  1  0  0  0  0
 22 21  1  0  0  0  0
 23 22  2  0  0  0  0
 24 19  2  0  0  0  0
 24 23  1  0  0  0  0
 25 19  1  0  0  0  0
 27 23  1  0  0  0  0
 28  3  1  0  0  0  0
 29 28  2  0  0  0  0
 30 28  1  0  0  0  0
 30 41  1  0  0  0  0
 31 30  2  0  0  0  0
 32 31  1  0  0  0  0
 32 33  2  0  0  0  0
 33 34  1  0  0  0  0
 34 41  2  0  0  0  0
 34 35  1  0  0  0  0
 35 36  2  0  0  0  0
 36 38  1  0  0  0  0
 36 37  1  0  0  0  0
 38 39  1  0  0  0  0
 40 38  2  0  0  0  0
 41 40  1  0  0  0  0
M  END
>  <minimizedAffinity>
-4.75013256

>  <minimizedRMSD>
0.0767229944

$$$$
