
 OpenBabel03242510223D

 41 45  0  0  1  0  0  0  0  0999 V2000
   49.0280   33.5840   41.1510 C   0  0  2  0  0  0  0  0  0  0  0  0
   48.4990   35.0680   41.1830 C   0  0  0  0  0  0  0  0  0  0  0  0
   47.7340   33.9480   40.5640 C   0  0  1  0  0  0  0  0  0  0  0  0
   49.9150   33.5360   40.4880 H   0  0  0  0  0  0  0  0  0  0  0  0
   48.1840   35.4390   42.1840 H   0  0  0  0  0  0  0  0  0  0  0  0
   48.9310   35.7780   40.4850 H   0  0  0  0  0  0  0  0  0  0  0  0
   46.8690   33.5240   41.1340 H   0  0  0  0  0  0  0  0  0  0  0  0
   48.0440   32.9610   43.3760 N   0  0  0  0  0  0  0  0  0  0  0  0
   49.1200   32.8800   42.4920 C   0  0  0  0  0  0  0  0  0  0  0  0
   50.2250   32.2910   42.6010 O   0  0  0  0  0  0  0  0  0  0  0  0
   47.6490   33.9440   43.4080 H   0  0  0  0  0  0  0  0  0  0  0  0
   46.1830   31.9400   44.6350 C   0  0  1  0  0  0  0  0  0  0  0  0
   46.3270   31.1680   43.4770 C   0  0  0  0  0  0  0  0  0  0  0  0
   47.5700   31.8460   44.1210 C   0  0  1  0  0  0  0  0  0  0  0  0
   45.9460   31.4860   45.6320 H   0  0  0  0  0  0  0  0  0  0  0  0
   46.1600   31.4030   42.4110 H   0  0  0  0  0  0  0  0  0  0  0  0
   46.2830   30.0410   43.6010 H   0  0  0  0  0  0  0  0  0  0  0  0
   48.3180   31.0940   44.4160 H   0  0  0  0  0  0  0  0  0  0  0  0
   45.0750   33.8520   43.2670 C   0  0  0  0  0  0  0  0  0  0  0  0
   45.5170   33.3120   44.5180 C   0  0  0  0  0  0  0  0  0  0  0  0
   45.3410   34.0920   45.6450 C   0  0  0  0  0  0  0  0  0  0  0  0
   44.7680   35.3110   45.5150 N   0  0  0  0  0  0  0  0  0  0  0  0
   44.3540   35.8070   44.3170 C   0  0  0  0  0  0  0  0  0  0  0  0
   44.5180   35.0410   43.1560 N   0  0  0  0  0  0  0  0  0  0  0  0
   45.2270   33.1860   42.4690 H   0  0  0  0  0  0  0  0  0  0  0  0
   45.6630   33.7160   46.6050 H   0  0  0  0  0  0  0  0  0  0  0  0
   43.8980   36.7900   44.2420 H   0  0  0  0  0  0  0  0  0  0  0  0
   47.6180   33.8850   39.0470 C   0  0  0  0  0  0  0  0  0  0  0  0
   48.2900   34.7010   38.3870 O   0  0  0  0  0  0  0  0  0  0  0  0
   46.6840   32.8130   38.6000 C   0  0  0  0  0  0  0  0  0  0  0  0
   47.1040   31.7420   37.9000 N   0  0  0  0  0  0  0  0  0  0  0  0
   46.2690   30.7800   37.4980 C   0  0  0  0  0  3  0  0  0  0  0  0
   44.9490   30.7860   37.7490 N   0  0  0  0  0  0  0  0  0  0  0  0
   44.4600   31.8250   38.4440 C   0  0  0  0  0  0  0  0  0  0  0  0
   43.1260   31.8650   38.7150 C   0  0  0  0  0  3  0  0  0  0  0  0
   42.5640   32.9050   39.4240 C   0  0  0  0  0  0  0  0  0  0  0  0
   41.5010   32.9030   39.6210 H   0  0  0  0  0  0  0  0  0  0  0  0
   43.4310   33.9190   39.8500 C   0  0  0  0  0  0  0  0  0  0  0  0
   42.9640   34.7120   40.3970 H   0  0  0  0  0  0  0  0  0  0  0  0
   44.7630   33.8380   39.5540 C   0  0  0  0  0  3  0  0  0  0  0  0
   45.3340   32.8070   38.8490 C   0  0  0  0  0  0  0  0  0  0  0  0
  1  4  1  6  0  0  0
  1  2  1  0  0  0  0
  1  9  1  0  0  0  0
  2  5  1  0  0  0  0
  3  7  1  1  0  0  0
  3  1  1  0  0  0  0
  3  2  1  0  0  0  0
  6  2  1  0  0  0  0
  8 11  1  0  0  0  0
  8 14  1  0  0  0  0
  9 10  2  0  0  0  0
  9  8  1  0  0  0  0
 12 15  1  1  0  0  0
 13 17  1  0  0  0  0
 13 14  1  0  0  0  0
 13 12  1  0  0  0  0
 14 18  1  1  0  0  0
 14 12  1  0  0  0  0
 16 13  1  0  0  0  0
 19 20  1  0  0  0  0
 20 12  1  0  0  0  0
 20 21  2  0  0  0  0
 21 26  1  0  0  0  0
 22 21  1  0  0  0  0
 23 22  2  0  0  0  0
 24 19  2  0  0  0  0
 24 23  1  0  0  0  0
 25 19  1  0  0  0  0
 27 23  1  0  0  0  0
 28  3  1  0  0  0  0
 29 28  2  0  0  0  0
 30 41  1  0  0  0  0
 30 28  1  0  0  0  0
 31 30  2  0  0  0  0
 32 33  2  0  0  0  0
 32 31  1  0  0  0  0
 33 34  1  0  0  0  0
 34 35  2  0  0  0  0
 34 41  1  0  0  0  0
 35 36  1  0  0  0  0
 36 37  1  0  0  0  0
 36 38  2  0  0  0  0
 38 39  1  0  0  0  0
 40 38  1  0  0  0  0
 41 40  2  0  0  0  0
M  END
>  <minimizedAffinity>
-5.02646971

>  <minimizedRMSD>
0.540258169

$$$$
