
 OpenBabel03242510223D

 41 45  0  0  1  0  0  0  0  0999 V2000
   49.0880   33.7510   41.1170 C   0  0  2  0  0  0  0  0  0  0  0  0
   48.6240   35.2560   41.1290 C   0  0  0  0  0  0  0  0  0  0  0  0
   47.8080   34.1610   40.5290 C   0  0  1  0  0  0  0  0  0  0  0  0
   49.9690   33.6550   40.4510 H   0  0  0  0  0  0  0  0  0  0  0  0
   48.3290   35.6540   42.1250 H   0  0  0  0  0  0  0  0  0  0  0  0
   49.0820   35.9360   40.4190 H   0  0  0  0  0  0  0  0  0  0  0  0
   46.9280   33.7820   41.1090 H   0  0  0  0  0  0  0  0  0  0  0  0
   48.0430   33.1090   43.3100 N   0  0  0  0  0  0  0  0  0  0  0  0
   49.1550   33.0620   42.4690 C   0  0  0  0  0  0  0  0  0  0  0  0
   50.2780   32.5190   42.6260 O   0  0  0  0  0  0  0  0  0  0  0  0
   47.6090   34.0760   43.3150 H   0  0  0  0  0  0  0  0  0  0  0  0
   46.1910   32.0460   44.5450 C   0  0  1  0  0  0  0  0  0  0  0  0
   46.3640   31.2790   43.3880 C   0  0  0  0  0  0  0  0  0  0  0  0
   47.5850   31.9830   44.0470 C   0  0  1  0  0  0  0  0  0  0  0  0
   45.9520   31.5850   45.5390 H   0  0  0  0  0  0  0  0  0  0  0  0
   46.2050   31.5120   42.3210 H   0  0  0  0  0  0  0  0  0  0  0  0
   46.3440   30.1510   43.5100 H   0  0  0  0  0  0  0  0  0  0  0  0
   48.3460   31.2460   44.3500 H   0  0  0  0  0  0  0  0  0  0  0  0
   45.0250   33.9200   43.1730 C   0  0  0  0  0  0  0  0  0  0  0  0
   45.4960   33.4040   44.4230 C   0  0  0  0  0  0  0  0  0  0  0  0
   45.3220   34.1930   45.5430 C   0  0  0  0  0  0  0  0  0  0  0  0
   44.7230   35.3990   45.4080 N   0  0  0  0  0  0  0  0  0  0  0  0
   44.2820   35.8730   44.2110 C   0  0  0  0  0  0  0  0  0  0  0  0
   44.4440   35.0970   43.0570 N   0  0  0  0  0  0  0  0  0  0  0  0
   45.1790   33.2470   42.3800 H   0  0  0  0  0  0  0  0  0  0  0  0
   45.6650   33.8340   46.5020 H   0  0  0  0  0  0  0  0  0  0  0  0
   43.8060   36.8460   44.1310 H   0  0  0  0  0  0  0  0  0  0  0  0
   47.6840   34.0800   39.0140 C   0  0  0  0  0  0  0  0  0  0  0  0
   48.4710   34.7700   38.3370 O   0  0  0  0  0  0  0  0  0  0  0  0
   46.5980   33.1520   38.5900 C   0  0  0  0  0  0  0  0  0  0  0  0
   45.3440   33.2460   39.0720 N   0  0  0  0  0  0  0  0  0  0  0  0
   44.3680   32.4160   38.6930 C   0  0  0  0  0  3  0  0  0  0  0  0
   44.5390   31.4210   37.8060 N   0  0  0  0  0  0  0  0  0  0  0  0
   45.7660   31.2670   37.2830 C   0  0  0  0  0  0  0  0  0  0  0  0
   45.9770   30.2690   36.3820 C   0  0  0  0  0  3  0  0  0  0  0  0
   47.2140   30.0610   35.8110 C   0  0  0  0  0  0  0  0  0  0  0  0
   47.3420   29.2570   35.0990 H   0  0  0  0  0  0  0  0  0  0  0  0
   48.2420   30.9250   36.2020 C   0  0  0  0  0  0  0  0  0  0  0  0
   49.1900   30.7380   35.7400 H   0  0  0  0  0  0  0  0  0  0  0  0
   47.9860   31.9150   37.1100 C   0  0  0  0  0  3  0  0  0  0  0  0
   46.7580   32.1310   37.6850 C   0  0  0  0  0  0  0  0  0  0  0  0
  1  4  1  6  0  0  0
  1  2  1  0  0  0  0
  1  9  1  0  0  0  0
  2  5  1  0  0  0  0
  3  7  1  1  0  0  0
  3  1  1  0  0  0  0
  3  2  1  0  0  0  0
  6  2  1  0  0  0  0
  8 11  1  0  0  0  0
  8 14  1  0  0  0  0
  9 10  2  0  0  0  0
  9  8  1  0  0  0  0
 12 15  1  1  0  0  0
 13 17  1  0  0  0  0
 13 14  1  0  0  0  0
 13 12  1  0  0  0  0
 14 18  1  1  0  0  0
 14 12  1  0  0  0  0
 16 13  1  0  0  0  0
 19 20  1  0  0  0  0
 20 12  1  0  0  0  0
 20 21  2  0  0  0  0
 21 26  1  0  0  0  0
 22 21  1  0  0  0  0
 23 22  2  0  0  0  0
 24 19  2  0  0  0  0
 24 23  1  0  0  0  0
 25 19  1  0  0  0  0
 27 23  1  0  0  0  0
 28  3  1  0  0  0  0
 29 28  2  0  0  0  0
 30 28  1  0  0  0  0
 30 31  1  0  0  0  0
 32 31  2  0  0  0  0
 33 32  1  0  0  0  0
 34 41  1  0  0  0  0
 34 33  2  0  0  0  0
 35 34  1  0  0  0  0
 36 38  1  0  0  0  0
 36 35  2  0  0  0  0
 37 36  1  0  0  0  0
 38 40  2  0  0  0  0
 39 38  1  0  0  0  0
 40 41  1  0  0  0  0
 41 30  2  0  0  0  0
M  END
>  <minimizedAffinity>
-5.09494352

>  <minimizedRMSD>
0.185941681

$$$$
