REMARK  Name = 
REMARK  5 active torsions:
REMARK  status: ('A' for Active; 'I' for Inactive)
REMARK    1  A    between atoms: C_1  and  C_5
REMARK    2  A    between atoms: C_3  and  N_10
REMARK    3  A    between atoms: C_11  and  C_13
REMARK    4  A    between atoms: C_15  and  C_16
REMARK    5  A    between atoms: C_16  and  C_30
REMARK                            x       y       z     vdW  Elec       q    Type
REMARK                         _______ _______ _______ _____ _____    ______ ____
ROOT
ATOM      1  C   UNL     1      49.111  33.884  40.990  0.00  0.00    +0.000 C 
ATOM      2  C   UNL     1      48.616  35.377  40.899  0.00  0.00    +0.000 C 
ATOM      3  C   UNL     1      47.824  34.227  40.374  0.00  0.00    +0.000 C 
ATOM      4  H   UNL     1      49.995  33.761  40.333  0.00  0.00    +0.000 HD
ATOM      5  H   UNL     1      48.311  35.836  41.865  0.00  0.00    +0.000 HD
ATOM      6  H   UNL     1      49.062  36.016  40.144  0.00  0.00    +0.000 HD
ATOM      7  H   UNL     1      46.951  33.871  40.977  0.00  0.00    +0.000 HD
ENDROOT
BRANCH   1   9
ATOM      8  N   UNL     1      48.037  33.252  43.171  0.00  0.00    +0.000 N 
ATOM      9  C   UNL     1      49.189  33.291  42.385  0.00  0.00    +0.000 C 
ATOM     10  O   UNL     1      50.358  32.898  42.627  0.00  0.00    +0.000 OA
ATOM     11  H   UNL     1      47.492  34.158  43.094  0.00  0.00    +0.000 HD
BRANCH   8  14
ATOM     12  C   UNL     1      46.317  32.140  44.547  0.00  0.00    +0.000 C 
ATOM     13  C   UNL     1      46.449  31.355  43.397  0.00  0.00    +0.000 C 
ATOM     14  C   UNL     1      47.678  32.125  43.960  0.00  0.00    +0.000 C 
ATOM     15  H   UNL     1      46.164  31.693  45.563  0.00  0.00    +0.000 HD
ATOM     16  H   UNL     1      46.211  31.556  42.338  0.00  0.00    +0.000 HD
ATOM     17  H   UNL     1      46.486  30.230  43.543  0.00  0.00    +0.000 HD
ATOM     18  H   UNL     1      48.488  31.429  44.227  0.00  0.00    +0.000 HD
BRANCH  12  20
ATOM     19  C   UNL     1      45.064  33.975  43.199  0.00  0.00    +0.000 A 
ATOM     20  C   UNL     1      45.557  33.464  44.443  0.00  0.00    +0.000 A 
ATOM     21  C   UNL     1      45.342  34.227  45.574  0.00  0.00    +0.000 A 
ATOM     22  N   UNL     1      44.685  35.404  45.455  0.00  0.00    +0.000 NA
ATOM     23  C   UNL     1      44.224  35.874  44.264  0.00  0.00    +0.000 A 
ATOM     24  N   UNL     1      44.426  35.124  43.099  0.00  0.00    +0.000 NA
ATOM     25  H   UNL     1      45.252  33.323  42.397  0.00  0.00    +0.000 HD
ATOM     26  H   UNL     1      45.700  33.871  46.529  0.00  0.00    +0.000 HD
ATOM     27  H   UNL     1      43.701  36.823  44.198  0.00  0.00    +0.000 HD
ENDBRANCH  12  20
ENDBRANCH   8  14
ENDBRANCH   1   9
BRANCH   3  28
ATOM     28  C   UNL     1      47.705  34.041  38.868  0.00  0.00    +0.000 C 
ATOM     29  O   UNL     1      48.471  34.708  38.146  0.00  0.00    +0.000 OA
BRANCH  28  30
ATOM     30  C   UNL     1      46.650  33.052  38.507  0.00  0.00    +0.000 A 
ATOM     31  N   UNL     1      45.906  32.426  39.438  0.00  0.00    +0.000 NA
ATOM     32  C   UNL     1      44.959  31.539  39.117  0.00  0.00    +0.000 A 
ATOM     33  N   UNL     1      44.661  31.191  37.854  0.00  0.00    +0.000 NA
ATOM     34  C   UNL     1      45.365  31.777  36.873  0.00  0.00    +0.000 A 
ATOM     35  C   UNL     1      45.091  31.448  35.581  0.00  0.00    +0.000 A 
ATOM     36  C   UNL     1      45.779  32.015  34.529  0.00  0.00    +0.000 A 
ATOM     37  H   UNL     1      45.533  31.729  33.515  0.00  0.00    +0.000 HD
ATOM     38  C   UNL     1      46.773  32.945  34.855  0.00  0.00    +0.000 A 
ATOM     39  H   UNL     1      47.289  33.367  34.017  0.00  0.00    +0.000 HD
ATOM     40  C   UNL     1      47.014  33.246  36.167  0.00  0.00    +0.000 A 
ATOM     41  C   UNL     1      46.335  32.687  37.221  0.00  0.00    +0.000 A 
ENDBRANCH  28  30
ENDBRANCH   3  28
TORSDOF 5
