
 OpenBabel03242510223D

 41 45  0  0  1  0  0  0  0  0999 V2000
   49.1540   33.9380   41.2760 C   0  0  2  0  0  0  0  0  0  0  0  0
   48.7090   35.4490   41.2690 C   0  0  0  0  0  0  0  0  0  0  0  0
   47.8720   34.3560   40.6960 C   0  0  1  0  0  0  0  0  0  0  0  0
   50.0250   33.8200   40.6010 H   0  0  0  0  0  0  0  0  0  0  0  0
   48.4320   35.8670   42.2620 H   0  0  0  0  0  0  0  0  0  0  0  0
   49.1670   36.1120   40.5420 H   0  0  0  0  0  0  0  0  0  0  0  0
   46.9950   33.9980   41.2920 H   0  0  0  0  0  0  0  0  0  0  0  0
   48.1150   33.3160   43.4770 N   0  0  0  0  0  0  0  0  0  0  0  0
   49.2280   33.2700   42.6370 C   0  0  0  0  0  0  0  0  0  0  0  0
   50.3570   32.7420   42.8020 O   0  0  0  0  0  0  0  0  0  0  0  0
   47.6700   34.2780   43.4680 H   0  0  0  0  0  0  0  0  0  0  0  0
   46.2480   32.2070   44.6480 C   0  0  1  0  0  0  0  0  0  0  0  0
   46.5230   31.4100   43.5330 C   0  0  0  0  0  0  0  0  0  0  0  0
   47.6700   32.1960   44.2310 C   0  0  1  0  0  0  0  0  0  0  0  0
   45.9750   31.7720   45.6440 H   0  0  0  0  0  0  0  0  0  0  0  0
   46.4140   31.5960   42.4500 H   0  0  0  0  0  0  0  0  0  0  0  0
   46.5490   30.2870   43.6970 H   0  0  0  0  0  0  0  0  0  0  0  0
   48.4460   31.5090   44.6030 H   0  0  0  0  0  0  0  0  0  0  0  0
   45.0220   33.9430   43.1510 C   0  0  0  0  0  0  0  0  0  0  0  0
   45.4980   33.5240   44.4360 C   0  0  0  0  0  0  0  0  0  0  0  0
   45.2760   34.3720   45.5030 C   0  0  0  0  0  0  0  0  0  0  0  0
   44.6280   35.5400   45.2880 N   0  0  0  0  0  0  0  0  0  0  0  0
   44.1830   35.9220   44.0600 C   0  0  0  0  0  0  0  0  0  0  0  0
   44.3930   35.0850   42.9570 N   0  0  0  0  0  0  0  0  0  0  0  0
   45.2150   33.2310   42.4030 H   0  0  0  0  0  0  0  0  0  0  0  0
   45.6210   34.0870   46.4870 H   0  0  0  0  0  0  0  0  0  0  0  0
   43.6680   36.8660   43.9170 H   0  0  0  0  0  0  0  0  0  0  0  0
   47.7280   34.2530   39.1840 C   0  0  0  0  0  0  0  0  0  0  0  0
   48.6000   34.8070   38.4870 O   0  0  0  0  0  0  0  0  0  0  0  0
   46.5210   33.4740   38.7880 C   0  0  0  0  0  0  0  0  0  0  0  0
   45.4570   33.3390   39.6000 N   0  0  0  0  0  0  0  0  0  0  0  0
   44.3720   32.6410   39.2470 C   0  0  0  0  0  3  0  0  0  0  0  0
   44.2410   32.0170   38.0640 N   0  0  0  0  0  0  0  0  0  0  0  0
   45.2650   32.1110   37.2020 C   0  0  0  0  0  0  0  0  0  0  0  0
   45.1670   31.4910   35.9940 C   0  0  0  0  0  3  0  0  0  0  0  0
   46.1840   31.5510   35.0660 C   0  0  0  0  0  0  0  0  0  0  0  0
   46.0700   31.0460   34.1170 H   0  0  0  0  0  0  0  0  0  0  0  0
   47.3240   32.2780   35.4270 C   0  0  0  0  0  0  0  0  0  0  0  0
   48.0970   32.3050   34.6860 H   0  0  0  0  0  0  0  0  0  0  0  0
   47.3810   32.8850   36.6520 C   0  0  0  0  0  3  0  0  0  0  0  0
   46.3730   32.8330   37.5830 C   0  0  0  0  0  0  0  0  0  0  0  0
  1  4  1  6  0  0  0
  1  9  1  0  0  0  0
  2  1  1  0  0  0  0
  2  5  1  0  0  0  0
  3  2  1  0  0  0  0
  3  1  1  0  0  0  0
  3  7  1  1  0  0  0
  6  2  1  0  0  0  0
  8 14  1  0  0  0  0
  9 10  2  0  0  0  0
  9  8  1  0  0  0  0
 11  8  1  0  0  0  0
 12 15  1  1  0  0  0
 13 17  1  0  0  0  0
 13 14  1  0  0  0  0
 13 12  1  0  0  0  0
 14 18  1  1  0  0  0
 14 12  1  0  0  0  0
 16 13  1  0  0  0  0
 19 20  1  0  0  0  0
 20 12  1  0  0  0  0
 20 21  2  0  0  0  0
 21 26  1  0  0  0  0
 22 21  1  0  0  0  0
 23 22  2  0  0  0  0
 24 19  2  0  0  0  0
 24 23  1  0  0  0  0
 25 19  1  0  0  0  0
 27 23  1  0  0  0  0
 28  3  1  0  0  0  0
 29 28  2  0  0  0  0
 30 28  1  0  0  0  0
 30 31  1  0  0  0  0
 32 31  2  0  0  0  0
 33 32  1  0  0  0  0
 34 41  1  0  0  0  0
 34 33  2  0  0  0  0
 35 34  1  0  0  0  0
 36 38  1  0  0  0  0
 36 35  2  0  0  0  0
 37 36  1  0  0  0  0
 38 40  2  0  0  0  0
 39 38  1  0  0  0  0
 40 41  1  0  0  0  0
 41 30  2  0  0  0  0
M  END
>  <minimizedAffinity>
-5.28478765

>  <minimizedRMSD>
0.982763112

$$$$
