
 OpenBabel03242520443D

 25 27  0  0  1  0  0  0  0  0999 V2000
   49.9550   33.1470   42.1350 C   0  0  2  0  0  3  0  0  0  0  0  0
   50.9700   33.9160   42.3310 O   0  0  0  0  0  1  0  0  0  0  0  0
   50.6040   31.8600   41.8540 C   0  0  0  0  0  0  0  0  0  0  0  0
   51.0590   31.1170   42.8750 N   0  0  0  0  0  0  0  0  0  0  0  0
   51.6800   29.9040   42.6970 C   0  0  0  0  0  3  0  0  0  0  0  0
   51.8620   29.3990   41.4710 N   0  0  0  0  0  0  0  0  0  0  0  0
   51.4330   30.0780   40.3750 C   0  0  0  0  0  0  0  0  0  0  0  0
   51.6110   29.5640   39.1150 C   0  0  0  0  0  3  0  0  0  0  0  0
   51.1720   30.2470   38.0080 C   0  0  0  0  0  0  0  0  0  0  0  0
   51.3620   29.7530   37.0770 H   0  0  0  0  0  0  0  0  0  0  0  0
   50.5460   31.4740   38.2280 C   0  0  0  0  0  0  0  0  0  0  0  0
   50.2150   31.9830   37.3420 H   0  0  0  0  0  0  0  0  0  0  0  0
   50.4030   31.9260   39.5080 C   0  0  0  0  0  3  0  0  0  0  0  0
   50.8240   31.2820   40.6440 C   0  0  0  0  0  0  0  0  0  0  0  0
   46.5610   34.0950   40.9940 C   0  0  0  0  0  0  0  0  0  0  0  0
   47.8860   33.6570   41.0060 C   0  0  0  0  0  0  0  0  0  0  0  0
   48.6170   33.6410   42.2200 C   0  0  0  0  0  0  0  0  0  0  0  0
   47.9400   34.0740   43.3230 N   0  0  0  0  0  0  0  0  0  0  0  0
   46.6640   34.4900   43.2810 C   0  0  0  0  0  0  0  0  0  0  0  0
   45.9970   34.4940   42.1210 N   0  0  0  0  0  0  0  0  0  0  0  0
   45.8400   34.1040   39.7860 N   0  0  0  0  0  0  0  0  0  0  0  0
   48.3400   33.3360   40.0960 H   0  0  0  0  0  0  0  0  0  0  0  0
   46.2300   34.8120   44.2260 H   0  0  0  0  0  0  0  0  0  0  0  0
   46.0590   34.9730   39.2330 H   0  0  0  0  0  0  0  0  0  0  0  0
   45.1900   33.3170   39.5320 H   0  0  0  0  0  0  0  0  0  0  0  0
  1 17  1  0  0  0  0
  1  2  1  6  0  0  0
  3  1  1  0  0  0  0
  3  4  1  0  0  0  0
  5  4  2  0  0  0  0
  6  5  1  0  0  0  0
  7 14  1  0  0  0  0
  7  6  2  0  0  0  0
  8  7  1  0  0  0  0
  9 11  1  0  0  0  0
  9  8  2  0  0  0  0
 10  9  1  0  0  0  0
 11 13  2  0  0  0  0
 12 11  1  0  0  0  0
 13 14  1  0  0  0  0
 14  3  2  0  0  0  0
 15 16  2  0  0  0  0
 15 20  1  0  0  0  0
 16 17  1  0  0  0  0
 17 18  2  0  0  0  0
 19 18  1  0  0  0  0
 19 23  1  0  0  0  0
 20 19  2  0  0  0  0
 21 15  1  0  0  0  0
 22 16  1  0  0  0  0
 24 21  1  0  0  0  0
 25 21  1  0  0  0  0
M  END
>  <minimizedAffinity>
-3.59332132

>  <minimizedRMSD>
4.31737185

$$$$
