
     RDKit          3D

 28 30  0  0  0  0  0  0  0  0999 V2000
   44.9123   35.1381   44.0472 C   0  0  0  0  0  0  0  0  0  0  0  0
   45.7380   35.3789   42.9483 C   0  0  0  0  0  0  0  0  0  0  0  0
   46.9609   34.6756   42.8115 C   0  0  0  0  0  0  0  0  0  0  0  0
   47.2439   33.7848   43.8073 N   0  0  0  0  0  0  0  0  0  0  0  0
   46.4286   33.5750   44.8530 C   0  0  0  0  0  0  0  0  0  0  0  0
   45.2804   34.2520   44.9559 N   0  0  0  0  0  0  0  0  0  0  0  0
   43.6971   35.8374   44.1726 N   0  0  0  0  0  0  0  0  0  0  0  0
   47.7214   34.9687   41.6383 C   0  0  0  0  0  0  0  0  0  0  0  0
   48.6844   35.8245   41.6568 O   0  0  0  0  0  0  0  0  0  0  0  0
   45.4396   36.0948   42.2162 H   0  0  0  0  0  0  0  0  0  0  0  0
   46.7616   32.8393   45.5831 H   0  0  0  0  0  0  0  0  0  0  0  0
   43.8625   36.7893   44.5938 H   0  0  0  0  0  0  0  0  0  0  0  0
   42.7866   35.4087   43.8678 H   0  0  0  0  0  0  0  0  0  0  0  0
   47.7350   34.5320   40.2358 C   0  0  0  0  0  0  0  0  0  0  0  0
   46.7553   33.7316   39.7875 N   0  0  0  0  0  0  0  0  0  0  0  0
   46.6966   33.2776   38.4925 C   0  0  0  0  0  0  0  0  0  0  0  0
   47.6346   33.6215   37.6009 N   0  0  0  0  0  0  0  0  0  0  0  0
   48.6656   34.4292   37.9616 C   0  0  0  0  0  0  0  0  0  0  0  0
   49.6278   34.7907   37.0524 C   0  0  0  0  0  0  0  0  0  0  0  0
   50.6665   35.6122   37.4157 C   0  0  0  0  0  0  0  0  0  0  0  0
   51.3580   35.8283   36.6265 H   0  0  0  0  0  0  0  0  0  0  0  0
   50.6912   36.0537   38.7385 C   0  0  0  0  0  0  0  0  0  0  0  0
   51.5160   36.6943   38.9894 H   0  0  0  0  0  0  0  0  0  0  0  0
   49.7019   35.6551   39.5900 C   0  0  0  0  0  0  0  0  0  0  0  0
   48.6465   34.8371   39.2758 C   0  0  0  0  0  0  0  0  0  0  0  0
   45.8432   32.6367   38.2792 H   0  0  0  0  0  0  0  0  0  0  0  0
   49.5193   34.3958   36.0512 H   0  0  0  0  0  0  0  0  0  0  0  0
   49.8088   36.0506   40.5690 H   0  0  0  0  0  0  0  0  0  0  0  0
  1  7  1  0
  1  6  2  0
  2  1  1  0
  3  2  2  0
  3  4  1  0
  4  5  2  0
  5  6  1  0
  8  3  1  0
  9  8  2  0
  2 10  1  0
  5 11  1  0
  7 12  1  0
  7 13  1  0
 14 15  2  0
 15 16  1  0
 16 17  2  0
 17 18  1  0
 18 19  2  0
 19 20  1  0
 20 21  1  0
 20 22  2  0
 22 23  1  0
 22 24  1  0
 24 25  2  0
 25 14  1  0
 25 18  1  0
 16 26  1  0
 19 27  1  0
 24 28  1  0
  8 14  1  0
M  ISO  4  10  14  11  14  21  16  23  16
M  END
>  <DihAtoms>  (1) 
2,7,13,14

>  <DihDeg>  (1) 
172.31374761325276

$$$$
