
 OpenBabel03242520443D

 25 27  0  0  1  0  0  0  0  0999 V2000
   44.0790   34.8410   41.5460 C   0  0  2  0  0  3  0  0  0  0  0  0
   43.9560   36.0940   41.8200 O   0  0  0  0  0  1  0  0  0  0  0  0
   45.1140   34.4260   42.5020 C   0  0  0  0  0  0  0  0  0  0  0  0
   44.7490   34.0150   43.7270 N   0  0  0  0  0  0  0  0  0  0  0  0
   45.6540   33.6130   44.6790 C   0  0  0  0  0  3  0  0  0  0  0  0
   46.9680   33.6120   44.4220 N   0  0  0  0  0  0  0  0  0  0  0  0
   47.4320   34.0090   43.2080 C   0  0  0  0  0  0  0  0  0  0  0  0
   48.7780   34.0040   42.9340 C   0  0  0  0  0  3  0  0  0  0  0  0
   49.2460   34.4010   41.7060 C   0  0  0  0  0  0  0  0  0  0  0  0
   50.3110   34.3580   41.6030 H   0  0  0  0  0  0  0  0  0  0  0  0
   48.2970   34.8010   40.7650 C   0  0  0  0  0  0  0  0  0  0  0  0
   48.6980   35.1050   39.8160 H   0  0  0  0  0  0  0  0  0  0  0  0
   46.9760   34.7810   41.1050 C   0  0  0  0  0  3  0  0  0  0  0  0
   46.4590   34.3960   42.3160 C   0  0  0  0  0  0  0  0  0  0  0  0
   41.9190   34.5870   38.5480 C   0  0  0  0  0  0  0  0  0  0  0  0
   42.6770   35.1010   39.6010 C   0  0  0  0  0  0  0  0  0  0  0  0
   43.2990   34.2210   40.5220 C   0  0  0  0  0  0  0  0  0  0  0  0
   43.0970   32.8900   40.2960 N   0  0  0  0  0  0  0  0  0  0  0  0
   42.3610   32.4260   39.2740 C   0  0  0  0  0  0  0  0  0  0  0  0
   41.7860   33.2790   38.4190 N   0  0  0  0  0  0  0  0  0  0  0  0
   41.3070   35.4670   37.6350 N   0  0  0  0  0  0  0  0  0  0  0  0
   42.7820   36.1570   39.7050 H   0  0  0  0  0  0  0  0  0  0  0  0
   42.2730   31.3440   39.1960 H   0  0  0  0  0  0  0  0  0  0  0  0
   40.3960   35.8270   38.0240 H   0  0  0  0  0  0  0  0  0  0  0  0
   41.7540   35.6910   36.7110 H   0  0  0  0  0  0  0  0  0  0  0  0
  1  2  1  6  0  0  0
  1  3  1  0  0  0  0
  3  4  1  0  0  0  0
  4  5  2  0  0  0  0
  6  5  1  0  0  0  0
  7  6  2  0  0  0  0
  8  7  1  0  0  0  0
  9  8  2  0  0  0  0
 10  9  1  0  0  0  0
 11 13  2  0  0  0  0
 11  9  1  0  0  0  0
 12 11  1  0  0  0  0
 13 14  1  0  0  0  0
 14  3  2  0  0  0  0
 14  7  1  0  0  0  0
 15 16  1  0  0  0  0
 16 22  1  0  0  0  0
 16 17  2  0  0  0  0
 17  1  1  0  0  0  0
 18 17  1  0  0  0  0
 19 18  2  0  0  0  0
 20 15  2  0  0  0  0
 20 19  1  0  0  0  0
 21 24  1  0  0  0  0
 21 15  1  0  0  0  0
 23 19  1  0  0  0  0
 25 21  1  0  0  0  0
M  END
>  <minimizedAffinity>
-5.33750343

>  <minimizedRMSD>
5.33017302

$$$$
