
 OpenBabel03252506283D

 46 49  0  0  0  0  0  0  0  0999 V2000
   47.0450   30.4940   47.9830 C   0  0  0  0  0  0  0  0  0  0  0  0
   47.4450   31.2460   48.6930 H   0  0  0  0  0  0  0  0  0  0  0  0
   47.6250   29.5750   48.0330 H   0  0  0  0  0  0  0  0  0  0  0  0
   46.7250   32.4320   45.0020 C   0  0  0  0  0  0  0  0  0  0  0  0
   47.5040   31.3370   44.5540 C   0  0  0  0  0  0  0  0  0  0  0  0
   47.7090   30.5070   45.5950 C   0  0  0  0  0  0  0  0  0  0  0  0
   47.0830   31.0590   46.6450 N   0  0  0  0  0  0  0  0  0  0  0  0
   46.4950   32.2060   46.2990 N   0  0  0  0  0  0  0  0  0  0  0  0
   47.9060   31.1370   43.5490 H   0  0  0  0  0  0  0  0  0  0  0  0
   48.2690   29.5630   45.6070 H   0  0  0  0  0  0  0  0  0  0  0  0
   45.0900   35.5010   43.9040 C   0  0  0  0  0  0  0  0  0  0  0  0
   45.4810   35.6400   42.5810 C   0  0  0  0  0  0  0  0  0  0  0  0
   46.3250   34.6500   42.0680 C   0  0  0  0  0  0  0  0  0  0  0  0
   46.6940   33.6430   42.8840 N   0  0  0  0  0  0  0  0  0  0  0  0
   46.3080   33.5270   44.1530 C   0  0  0  0  0  0  0  0  0  0  0  0
   45.4910   34.4790   44.6610 N   0  0  0  0  0  0  0  0  0  0  0  0
   44.4380   36.2780   44.2800 H   0  0  0  0  0  0  0  0  0  0  0  0
   45.2050   36.4330   41.8970 H   0  0  0  0  0  0  0  0  0  0  0  0
   48.9080   35.4750   41.2220 N   0  0  0  0  0  0  0  0  0  0  0  0
   48.2120   34.7290   40.4010 C   0  0  0  0  0  0  0  0  0  0  0  0
   46.8080   34.6640   40.7180 N   0  0  0  0  0  0  0  0  0  0  0  0
   48.6240   33.9730   39.2450 N   0  0  0  0  0  0  0  0  0  0  0  0
   49.4980   33.4450   39.4820 H   0  0  0  0  0  0  0  0  0  0  0  0
   49.9450   35.6160   41.1150 H   0  0  0  0  0  0  0  0  0  0  0  0
   46.0650   34.6240   39.9580 H   0  0  0  0  0  0  0  0  0  0  0  0
   47.9960   34.0770   38.3930 H   0  0  0  0  0  0  0  0  0  0  0  0
   45.6390   30.2160   48.3890 C   0  0  0  0  0  0  0  0  0  0  0  0
   45.6100   30.1110   49.4940 H   0  0  0  0  0  0  0  0  0  0  0  0
   45.0370   31.1390   48.1640 H   0  0  0  0  0  0  0  0  0  0  0  0
   45.0060   27.7350   48.2490 C   0  0  0  0  0  0  0  0  0  0  0  0
   45.0080   29.0330   47.8040 C   0  0  0  0  0  0  0  0  0  0  0  0
   44.3080   29.2780   46.6160 C   0  0  0  0  0  0  0  0  0  0  0  0
   43.6610   28.2810   45.9420 C   0  0  0  0  0  0  0  0  0  0  0  0
   42.9280   28.2260   44.8070 N   0  0  0  0  0  0  0  0  0  0  0  0
   42.5020   26.9740   44.5690 C   0  0  0  0  0  0  0  0  0  0  0  0
   42.9610   26.1500   45.5770 C   0  0  0  0  0  0  0  0  0  0  0  0
   43.6680   26.9960   46.3980 C   0  0  0  0  0  0  0  0  0  0  0  0
   44.3540   26.7440   47.5650 C   0  0  0  0  0  0  0  0  0  0  0  0
   45.5590   27.5850   49.1710 H   0  0  0  0  0  0  0  0  0  0  0  0
   44.2290   30.2540   46.1560 H   0  0  0  0  0  0  0  0  0  0  0  0
   42.7160   29.0460   44.1910 H   0  0  0  0  0  0  0  0  0  0  0  0
   41.8980   26.6800   43.7200 H   0  0  0  0  0  0  0  0  0  0  0  0
   42.7640   25.0850   45.6340 H   0  0  0  0  0  0  0  0  0  0  0  0
   44.3910   25.3780   48.0950 C   0  0  0  0  0  0  0  0  0  0  0  0
   45.0620   25.0900   49.1280 O   0  0  0  0  0  0  0  0  0  0  0  0
   43.8470   24.5740   47.6190 H   0  0  0  0  0  0  0  0  0  0  0  0
  1  3  1  0  0  0  0
  1 27  1  0  0  0  0
  1  2  1  0  0  0  0
  4  8  2  0  0  0  0
  5  4  1  0  0  0  0
  5  6  2  0  0  0  0
  6 10  1  0  0  0  0
  6  7  1  0  0  0  0
  7  1  1  0  0  0  0
  8  7  1  0  0  0  0
  9  5  1  0  0  0  0
 11 17  1  0  0  0  0
 11 16  1  0  0  0  0
 12 11  2  0  0  0  0
 13 12  1  0  0  0  0
 13 14  2  0  0  0  0
 14 15  1  0  0  0  0
 15 16  2  0  0  0  0
 15  4  1  0  0  0  0
 18 12  1  0  0  0  0
 20 21  1  0  0  0  0
 20 19  2  0  0  0  0
 21 13  1  0  0  0  0
 22 23  1  0  0  0  0
 22 20  1  0  0  0  0
 24 19  1  0  0  0  0
 25 21  1  0  0  0  0
 26 22  1  0  0  0  0
 27 28  1  0  0  0  0
 29 27  1  0  0  0  0
 30 39  1  0  0  0  0
 31 30  1  0  0  0  0
 31 27  1  0  0  0  0
 32 31  2  0  0  0  0
 33 37  2  0  0  0  0
 33 32  1  0  0  0  0
 34 33  1  0  0  0  0
 35 34  1  0  0  0  0
 35 36  2  0  0  0  0
 36 43  1  0  0  0  0
 36 37  1  0  0  0  0
 37 38  1  0  0  0  0
 38 44  1  0  0  0  0
 38 30  2  0  0  0  0
 40 32  1  0  0  0  0
 41 34  1  0  0  0  0
 42 35  1  0  0  0  0
 44 45  2  0  0  0  0
 46 44  1  0  0  0  0
M  END
>  <minimizedAffinity>
-5.70927906

>  <minimizedRMSD>
0.712006688

$$$$
