
 OpenBabel03252500563D

 37 38  0  0  0  0  0  0  0  0999 V2000
   43.9050   34.2970   39.9670 O   0  0  0  0  0  0  0  0  0  0  0  0
   43.4270   34.4270   41.4090 P   0  0  1  0  0  0  0  0  0  0  0  0
   43.1590   32.8830   42.0360 O   0  0  0  0  0  0  0  0  0  0  0  0
   42.2720   32.7460   42.4170 H   0  0  0  0  0  0  0  0  0  0  0  0
   44.6440   35.1620   42.3290 O   0  0  0  0  0  0  0  0  0  0  0  0
   46.7620   34.2390   42.8050 C   0  0  0  0  0  0  0  0  0  0  0  0
   45.4820   34.5250   43.2370 C   0  0  0  0  0  0  0  0  0  0  0  0
   45.1330   34.1550   44.5430 C   0  0  0  0  0  0  0  0  0  0  0  0
   46.0720   33.5420   45.2970 N   0  0  0  0  0  0  0  0  0  0  0  0
   47.3050   33.2750   44.8570 C   0  0  0  0  0  0  0  0  0  0  0  0
   47.6510   33.6240   43.6090 N   0  0  0  0  0  0  0  0  0  0  0  0
   44.1340   34.4040   44.8120 H   0  0  0  0  0  0  0  0  0  0  0  0
   48.0060   32.7770   45.5240 H   0  0  0  0  0  0  0  0  0  0  0  0
   47.1960   34.5950   41.4550 C   0  0  0  0  0  0  0  0  0  0  0  0
   47.3470   33.7160   40.7830 H   0  0  0  0  0  0  0  0  0  0  0  0
   46.4250   35.2260   40.9580 H   0  0  0  0  0  0  0  0  0  0  0  0
   48.4850   35.3660   41.5380 C   0  0  0  0  0  0  0  0  0  0  0  0
   49.2260   34.7200   42.0650 H   0  0  0  0  0  0  0  0  0  0  0  0
   48.8660   35.6710   40.5420 H   0  0  0  0  0  0  0  0  0  0  0  0
   48.3180   36.2440   42.1920 H   0  0  0  0  0  0  0  0  0  0  0  0
   41.9540   35.2700   41.4660 O   0  0  0  0  0  0  0  0  0  0  0  0
   40.8030   34.6020   41.0880 C   0  0  0  0  0  0  0  0  0  0  0  0
   39.8810   35.2880   40.3170 C   0  0  0  0  0  0  0  0  0  0  0  0
   38.6990   34.7120   39.8870 C   0  0  0  0  0  0  0  0  0  0  0  0
   38.4510   33.4290   40.2430 N   0  0  0  0  0  0  0  0  0  0  0  0
   39.3420   32.7530   40.9940 C   0  0  0  0  0  0  0  0  0  0  0  0
   40.4740   33.3420   41.3910 N   0  0  0  0  0  0  0  0  0  0  0  0
   40.0510   36.3040   40.0190 H   0  0  0  0  0  0  0  0  0  0  0  0
   37.9940   35.2540   39.2900 H   0  0  0  0  0  0  0  0  0  0  0  0
   40.6780   31.3640   43.0500 N   0  0  0  0  0  0  0  0  0  0  0  0
   40.0210   30.6530   42.1750 C   0  0  0  0  0  0  0  0  0  0  0  0
   39.0900   31.3870   41.3790 N   0  0  0  0  0  0  0  0  0  0  0  0
   40.0940   29.2400   41.8920 N   0  0  0  0  0  0  0  0  0  0  0  0
   39.3100   28.5990   42.0620 H   0  0  0  0  0  0  0  0  0  0  0  0
   41.3820   31.0010   43.7010 H   0  0  0  0  0  0  0  0  0  0  0  0
   38.1830   30.9410   41.0510 H   0  0  0  0  0  0  0  0  0  0  0  0
   41.0310   28.9720   41.5000 H   0  0  0  0  0  0  0  0  0  0  0  0
  2  1  2  6  0  0  0
  2 21  1  0  0  0  0
  2  3  1  0  0  0  0
  2  5  1  0  0  0  0
  3  4  1  0  0  0  0
  5  7  1  0  0  0  0
  6  7  2  0  0  0  0
  6 11  1  0  0  0  0
  7  8  1  0  0  0  0
  8 12  1  0  0  0  0
  8  9  2  0  0  0  0
 10  9  1  0  0  0  0
 10 13  1  0  0  0  0
 11 10  2  0  0  0  0
 14 17  1  0  0  0  0
 14  6  1  0  0  0  0
 15 14  1  0  0  0  0
 16 14  1  0  0  0  0
 17 18  1  0  0  0  0
 17 20  1  0  0  0  0
 19 17  1  0  0  0  0
 22 27  1  0  0  0  0
 22 21  1  0  0  0  0
 23 22  2  0  0  0  0
 24 25  2  0  0  0  0
 24 23  1  0  0  0  0
 25 26  1  0  0  0  0
 26 32  1  0  0  0  0
 26 27  2  0  0  0  0
 28 23  1  0  0  0  0
 29 24  1  0  0  0  0
 30 35  1  0  0  0  0
 31 30  2  0  0  0  0
 32 31  1  0  0  0  0
 33 34  1  0  0  0  0
 33 31  1  0  0  0  0
 36 32  1  0  0  0  0
 37 33  1  0  0  0  0
M  END
>  <minimizedAffinity>
-5.66064405

>  <minimizedRMSD>
0.599475503

$$$$
