
 OpenBabel03252507533D

 37 39  0  0  1  0  0  0  0  0999 V2000
   38.1780   27.0730   42.0750 C   0  0  2  0  0  0  0  0  0  0  0  0
   37.1570   27.2650   43.1640 C   0  0  0  0  0  0  0  0  0  0  0  0
   37.3240   28.7850   43.3630 C   0  0  0  0  0  0  0  0  0  0  0  0
   37.5980   29.3230   41.9800 C   0  0  1  0  0  0  0  0  0  0  0  0
   37.6680   28.1300   41.0900 C   0  0  0  0  0  0  0  0  0  0  0  0
   39.1610   27.3010   42.4760 H   0  0  0  0  0  0  0  0  0  0  0  0
   37.3620   26.7060   44.0890 H   0  0  0  0  0  0  0  0  0  0  0  0
   36.1560   27.1290   42.7470 H   0  0  0  0  0  0  0  0  0  0  0  0
   36.3590   29.1830   43.7490 H   0  0  0  0  0  0  0  0  0  0  0  0
   38.1820   28.9650   44.0280 H   0  0  0  0  0  0  0  0  0  0  0  0
   38.5560   29.8430   41.9670 H   0  0  0  0  0  0  0  0  0  0  0  0
   38.3360   28.1860   40.2340 H   0  0  0  0  0  0  0  0  0  0  0  0
   36.6920   27.6540   40.8760 H   0  0  0  0  0  0  0  0  0  0  0  0
   37.0640   23.6390   40.9770 C   0  0  0  0  0  0  0  0  0  0  0  0
   36.9990   24.9070   41.5860 C   0  0  0  0  0  0  0  0  0  0  0  0
   38.1340   25.7260   41.4580 C   0  0  0  0  0  0  0  0  0  0  0  0
   39.2490   25.2760   40.7590 N   0  0  0  0  0  0  0  0  0  0  0  0
   39.2380   24.0420   40.2000 C   0  0  0  0  0  0  0  0  0  0  0  0
   38.1660   23.2370   40.3060 N   0  0  0  0  0  0  0  0  0  0  0  0
   36.2070   22.9790   41.0540 H   0  0  0  0  0  0  0  0  0  0  0  0
   36.1380   25.2530   42.1250 H   0  0  0  0  0  0  0  0  0  0  0  0
   40.1580   23.8010   39.6840 H   0  0  0  0  0  0  0  0  0  0  0  0
   36.5190   30.1980   41.4290 C   0  0  2  0  0  0  0  0  0  0  0  0
   36.2540   30.1500   39.9980 C   0  0  0  0  0  0  0  0  0  0  0  0
   36.7120   31.4170   40.6910 C   0  0  2  0  0  0  0  0  0  0  0  0
   35.6190   30.1470   42.1040 H   0  0  0  0  0  0  0  0  0  0  0  0
   35.1590   30.1800   39.7000 H   0  0  0  0  0  0  0  0  0  0  0  0
   36.8330   30.0090   39.1230 H   0  0  0  0  0  0  0  0  0  0  0  0
   35.9470   32.2380   40.8320 H   0  0  0  0  0  0  0  0  0  0  0  0
   37.0000   34.0200   39.5260 N   0  0  0  0  0  0  0  0  0  0  0  0
   38.0490   33.3210   39.8750 C   0  0  0  0  0  0  0  0  0  0  0  0
   38.0140   31.9940   40.4410 N   0  0  0  0  0  0  0  0  0  0  0  0
   39.1470   34.1610   39.5680 N   0  0  0  0  0  0  0  0  0  0  0  0
   39.3300   35.0830   39.9830 H   0  0  0  0  0  0  0  0  0  0  0  0
   36.0230   33.6710   39.6280 H   0  0  0  0  0  0  0  0  0  0  0  0
   39.0360   31.7650   40.5400 H   0  0  0  0  0  0  0  0  0  0  0  0
   39.9150   33.9600   38.8840 H   0  0  0  0  0  0  0  0  0  0  0  0
  1  6  1  1  0  0  0
  1  2  1  0  0  0  0
  2  3  1  0  0  0  0
  2  7  1  0  0  0  0
  3  9  1  0  0  0  0
  3 10  1  0  0  0  0
  4 11  1  6  0  0  0
  4  3  1  0  0  0  0
  5  4  1  0  0  0  0
  5  1  1  0  0  0  0
  8  2  1  0  0  0  0
 12  5  1  0  0  0  0
 13  5  1  0  0  0  0
 14 20  1  0  0  0  0
 14 15  1  0  0  0  0
 15 21  1  0  0  0  0
 16 15  2  0  0  0  0
 16  1  1  0  0  0  0
 17 16  1  0  0  0  0
 18 19  1  0  0  0  0
 18 17  2  0  0  0  0
 19 14  2  0  0  0  0
 22 18  1  0  0  0  0
 23  4  1  0  0  0  0
 23 26  1  1  0  0  0
 24 25  1  0  0  0  0
 24 23  1  0  0  0  0
 25 29  1  1  0  0  0
 25 23  1  0  0  0  0
 27 24  1  0  0  0  0
 28 24  1  0  0  0  0
 30 35  1  0  0  0  0
 30 31  2  0  0  0  0
 31 32  1  0  0  0  0
 32 36  1  0  0  0  0
 32 25  1  0  0  0  0
 33 31  1  0  0  0  0
 33 34  1  0  0  0  0
 37 33  1  0  0  0  0
M  END
>  <minimizedAffinity>
-5.44776917

$$$$

 OpenBabel03252507533D

 37 39  0  0  1  0  0  0  0  0999 V2000
   39.6770   25.2470   41.5980 C   0  0  2  0  0  0  0  0  0  0  0  0
   39.5970   24.8430   43.0470 C   0  0  0  0  0  0  0  0  0  0  0  0
   39.8550   26.2260   43.6790 C   0  0  0  0  0  0  0  0  0  0  0  0
   39.1740   27.2020   42.7510 C   0  0  1  0  0  0  0  0  0  0  0  0
   38.6530   26.3860   41.6190 C   0  0  0  0  0  0  0  0  0  0  0  0
   40.6880   25.5830   41.3860 H   0  0  0  0  0  0  0  0  0  0  0  0
   40.3500   24.1040   43.3590 H   0  0  0  0  0  0  0  0  0  0  0  0
   38.5630   24.5920   43.2940 H   0  0  0  0  0  0  0  0  0  0  0  0
   39.3650   26.2360   44.6790 H   0  0  0  0  0  0  0  0  0  0  0  0
   40.9400   26.4090   43.7080 H   0  0  0  0  0  0  0  0  0  0  0  0
   39.8980   27.9250   42.3760 H   0  0  0  0  0  0  0  0  0  0  0  0
   38.6120   26.8610   40.6410 H   0  0  0  0  0  0  0  0  0  0  0  0
   37.7690   25.7680   41.8620 H   0  0  0  0  0  0  0  0  0  0  0  0
   39.3190   23.0280   38.5670 C   0  0  0  0  0  0  0  0  0  0  0  0
   39.8100   24.0660   39.3830 C   0  0  0  0  0  0  0  0  0  0  0  0
   39.2450   24.1790   40.6660 C   0  0  0  0  0  0  0  0  0  0  0  0
   38.2540   23.2950   41.0760 N   0  0  0  0  0  0  0  0  0  0  0  0
   37.8320   22.3210   40.2340 C   0  0  0  0  0  0  0  0  0  0  0  0
   38.3530   22.1890   39.0020 N   0  0  0  0  0  0  0  0  0  0  0  0
   39.7300   22.9090   37.5710 H   0  0  0  0  0  0  0  0  0  0  0  0
   40.5750   24.7480   39.0650 H   0  0  0  0  0  0  0  0  0  0  0  0
   37.0590   21.6950   40.6620 H   0  0  0  0  0  0  0  0  0  0  0  0
   37.9940   27.9030   43.3450 C   0  0  2  0  0  0  0  0  0  0  0  0
   36.6880   27.6890   42.7390 C   0  0  0  0  0  0  0  0  0  0  0  0
   37.3340   29.0580   42.8000 C   0  0  2  0  0  0  0  0  0  0  0  0
   38.0420   27.8230   44.4670 H   0  0  0  0  0  0  0  0  0  0  0  0
   35.8220   27.5760   43.4640 H   0  0  0  0  0  0  0  0  0  0  0  0
   36.3220   27.5260   41.7580 H   0  0  0  0  0  0  0  0  0  0  0  0
   36.9010   29.8040   43.5320 H   0  0  0  0  0  0  0  0  0  0  0  0
   35.6560   30.9210   41.4100 N   0  0  0  0  0  0  0  0  0  0  0  0
   36.8740   30.6790   41.0000 C   0  0  0  0  0  0  0  0  0  0  0  0
   37.7870   29.7410   41.6090 N   0  0  0  0  0  0  0  0  0  0  0  0
   37.0400   31.5260   39.8770 N   0  0  0  0  0  0  0  0  0  0  0  0
   36.9950   32.5520   39.8890 H   0  0  0  0  0  0  0  0  0  0  0  0
   35.2270   30.4460   42.2330 H   0  0  0  0  0  0  0  0  0  0  0  0
   38.6250   29.8010   40.9770 H   0  0  0  0  0  0  0  0  0  0  0  0
   37.2270   31.2250   38.8910 H   0  0  0  0  0  0  0  0  0  0  0  0
  1  6  1  6  0  0  0
  1  5  1  0  0  0  0
  1  2  1  0  0  0  0
  2  8  1  0  0  0  0
  2  7  1  0  0  0  0
  2  3  1  0  0  0  0
  3 10  1  0  0  0  0
  3  9  1  0  0  0  0
  4 11  1  6  0  0  0
  4 23  1  0  0  0  0
  4  3  1  0  0  0  0
  5 13  1  0  0  0  0
  5  4  1  0  0  0  0
 12  5  1  0  0  0  0
 14 19  2  0  0  0  0
 14 15  1  0  0  0  0
 15 16  2  0  0  0  0
 16 17  1  0  0  0  0
 16  1  1  0  0  0  0
 18 22  1  0  0  0  0
 18 17  2  0  0  0  0
 19 18  1  0  0  0  0
 20 14  1  0  0  0  0
 21 15  1  0  0  0  0
 23 26  1  1  0  0  0
 24 25  1  0  0  0  0
 24 23  1  0  0  0  0
 24 27  1  0  0  0  0
 25 23  1  0  0  0  0
 25 29  1  1  0  0  0
 28 24  1  0  0  0  0
 30 35  1  0  0  0  0
 31 30  2  0  0  0  0
 31 32  1  0  0  0  0
 32 25  1  0  0  0  0
 33 34  1  0  0  0  0
 33 31  1  0  0  0  0
 36 32  1  0  0  0  0
 37 33  1  0  0  0  0
M  END
>  <minimizedAffinity>
-5.37411499

$$$$

 OpenBabel03252507533D

 37 39  0  0  1  0  0  0  0  0999 V2000
   37.3780   30.3550   40.0660 C   0  0  2  0  0  0  0  0  0  0  0  0
   35.9280   30.5660   40.4130 C   0  0  0  0  0  0  0  0  0  0  0  0
   35.5230   29.0880   40.5930 C   0  0  0  0  0  0  0  0  0  0  0  0
   36.7360   28.4320   41.2060 C   0  0  1  0  0  0  0  0  0  0  0  0
   37.7800   29.4920   41.2670 C   0  0  0  0  0  0  0  0  0  0  0  0
   37.4350   29.8250   39.1200 H   0  0  0  0  0  0  0  0  0  0  0  0
   35.3370   31.0600   39.6290 H   0  0  0  0  0  0  0  0  0  0  0  0
   35.8580   31.0140   41.4070 H   0  0  0  0  0  0  0  0  0  0  0  0
   34.6660   29.0570   41.3010 H   0  0  0  0  0  0  0  0  0  0  0  0
   35.3050   28.6560   39.6040 H   0  0  0  0  0  0  0  0  0  0  0  0
   37.0800   27.6180   40.5680 H   0  0  0  0  0  0  0  0  0  0  0  0
   38.8160   29.1780   41.1620 H   0  0  0  0  0  0  0  0  0  0  0  0
   37.6150   30.2610   42.0460 H   0  0  0  0  0  0  0  0  0  0  0  0
   38.3700   33.9960   40.0390 C   0  0  0  0  0  0  0  0  0  0  0  0
   37.5320   32.8640   40.0840 C   0  0  0  0  0  0  0  0  0  0  0  0
   38.1660   31.6100   40.0420 C   0  0  0  0  0  0  0  0  0  0  0  0
   39.5510   31.5260   39.9600 N   0  0  0  0  0  0  0  0  0  0  0  0
   40.2910   32.6600   39.9210 C   0  0  0  0  0  0  0  0  0  0  0  0
   39.7130   33.8730   39.9590 N   0  0  0  0  0  0  0  0  0  0  0  0
   37.9170   34.9810   40.0700 H   0  0  0  0  0  0  0  0  0  0  0  0
   36.4630   32.9300   40.1470 H   0  0  0  0  0  0  0  0  0  0  0  0
   41.3550   32.4710   39.8570 H   0  0  0  0  0  0  0  0  0  0  0  0
   36.5390   27.9520   42.6070 C   0  0  2  0  0  0  0  0  0  0  0  0
   37.5250   28.3270   43.6110 C   0  0  0  0  0  0  0  0  0  0  0  0
   37.2580   26.8820   43.2440 C   0  0  2  0  0  0  0  0  0  0  0  0
   35.4590   28.0840   42.8970 H   0  0  0  0  0  0  0  0  0  0  0  0
   37.1070   28.6090   44.6280 H   0  0  0  0  0  0  0  0  0  0  0  0
   38.5710   28.4900   43.6250 H   0  0  0  0  0  0  0  0  0  0  0  0
   36.6960   26.2510   43.9950 H   0  0  0  0  0  0  0  0  0  0  0  0
   36.5970   24.3190   42.1430 N   0  0  0  0  0  0  0  0  0  0  0  0
   37.8030   24.8110   42.0210 C   0  0  0  0  0  0  0  0  0  0  0  0
   38.2440   26.0740   42.5620 N   0  0  0  0  0  0  0  0  0  0  0  0
   38.5040   23.8360   41.2710 N   0  0  0  0  0  0  0  0  0  0  0  0
   38.2740   23.5380   40.3150 H   0  0  0  0  0  0  0  0  0  0  0  0
   35.8300   24.8080   42.6530 H   0  0  0  0  0  0  0  0  0  0  0  0
   39.2620   26.0890   42.2960 H   0  0  0  0  0  0  0  0  0  0  0  0
   39.3430   23.2920   41.5840 H   0  0  0  0  0  0  0  0  0  0  0  0
  1  6  1  6  0  0  0
  1  2  1  0  0  0  0
  1  5  1  0  0  0  0
  2  3  1  0  0  0  0
  2  8  1  0  0  0  0
  3  4  1  0  0  0  0
  3  9  1  0  0  0  0
  4 11  1  6  0  0  0
  4  5  1  0  0  0  0
  4 23  1  0  0  0  0
  5 13  1  0  0  0  0
  7  2  1  0  0  0  0
 10  3  1  0  0  0  0
 12  5  1  0  0  0  0
 14 20  1  0  0  0  0
 14 15  1  0  0  0  0
 15 21  1  0  0  0  0
 16  1  1  0  0  0  0
 16 15  2  0  0  0  0
 17 16  1  0  0  0  0
 18 19  1  0  0  0  0
 18 17  2  0  0  0  0
 19 14  2  0  0  0  0
 22 18  1  0  0  0  0
 23 26  1  1  0  0  0
 23 25  1  0  0  0  0
 23 24  1  0  0  0  0
 24 28  1  0  0  0  0
 24 27  1  0  0  0  0
 25 24  1  0  0  0  0
 25 29  1  1  0  0  0
 30 35  1  0  0  0  0
 31 30  2  0  0  0  0
 31 32  1  0  0  0  0
 32 25  1  0  0  0  0
 33 37  1  0  0  0  0
 33 31  1  0  0  0  0
 34 33  1  0  0  0  0
 36 32  1  0  0  0  0
M  END
>  <minimizedAffinity>
-5.05017948

$$$$

 OpenBabel03252507533D

 37 39  0  0  1  0  0  0  0  0999 V2000
   37.9270   30.5030   41.4810 C   0  0  2  0  0  0  0  0  0  0  0  0
   36.7060   30.9340   40.7140 C   0  0  0  0  0  0  0  0  0  0  0  0
   37.2660   32.2420   40.1160 C   0  0  0  0  0  0  0  0  0  0  0  0
   38.7170   31.9390   39.8310 C   0  0  1  0  0  0  0  0  0  0  0  0
   38.9490   30.5590   40.3400 C   0  0  0  0  0  0  0  0  0  0  0  0
   38.1200   31.2300   42.2640 H   0  0  0  0  0  0  0  0  0  0  0  0
   35.8160   31.1160   41.3330 H   0  0  0  0  0  0  0  0  0  0  0  0
   36.5580   30.2610   39.8650 H   0  0  0  0  0  0  0  0  0  0  0  0
   36.7180   32.4410   39.1680 H   0  0  0  0  0  0  0  0  0  0  0  0
   37.1750   33.0430   40.8650 H   0  0  0  0  0  0  0  0  0  0  0  0
   39.3550   32.6390   40.3710 H   0  0  0  0  0  0  0  0  0  0  0  0
   39.9400   30.3300   40.7240 H   0  0  0  0  0  0  0  0  0  0  0  0
   38.5040   29.7560   39.7220 H   0  0  0  0  0  0  0  0  0  0  0  0
   36.8140   26.9610   42.1560 C   0  0  0  0  0  0  0  0  0  0  0  0
   36.8330   28.2410   41.5680 C   0  0  0  0  0  0  0  0  0  0  0  0
   37.8280   29.1270   42.0200 C   0  0  0  0  0  0  0  0  0  0  0  0
   38.7300   28.7270   43.0000 N   0  0  0  0  0  0  0  0  0  0  0  0
   38.6480   27.4780   43.5190 C   0  0  0  0  0  0  0  0  0  0  0  0
   37.7080   26.6110   43.1070 N   0  0  0  0  0  0  0  0  0  0  0  0
   36.0610   26.2510   41.8330 H   0  0  0  0  0  0  0  0  0  0  0  0
   36.1370   28.5490   40.8130 H   0  0  0  0  0  0  0  0  0  0  0  0
   39.4010   27.2810   44.2720 H   0  0  0  0  0  0  0  0  0  0  0  0
   39.0730   31.9200   38.3790 C   0  0  2  0  0  0  0  0  0  0  0  0
   39.8280   30.7850   37.8690 C   0  0  0  0  0  0  0  0  0  0  0  0
   40.3690   32.1990   37.8220 C   0  0  2  0  0  0  0  0  0  0  0  0
   38.1780   32.2350   37.7740 H   0  0  0  0  0  0  0  0  0  0  0  0
   39.5080   30.4000   36.8500 H   0  0  0  0  0  0  0  0  0  0  0  0
   40.5810   30.1420   38.2450 H   0  0  0  0  0  0  0  0  0  0  0  0
   40.4020   32.7090   36.8130 H   0  0  0  0  0  0  0  0  0  0  0  0
   42.3450   34.0070   36.8010 N   0  0  0  0  0  0  0  0  0  0  0  0
   42.4260   33.5430   38.0210 C   0  0  0  0  0  0  0  0  0  0  0  0
   41.5020   32.6090   38.6190 N   0  0  0  0  0  0  0  0  0  0  0  0
   43.5830   34.1610   38.5550 N   0  0  0  0  0  0  0  0  0  0  0  0
   43.7190   35.1720   38.6770 H   0  0  0  0  0  0  0  0  0  0  0  0
   41.5880   33.7370   36.1380 H   0  0  0  0  0  0  0  0  0  0  0  0
   41.9250   32.4530   39.5700 H   0  0  0  0  0  0  0  0  0  0  0  0
   44.4500   33.6780   38.8920 H   0  0  0  0  0  0  0  0  0  0  0  0
  1 16  1  0  0  0  0
  1  6  1  1  0  0  0
  2  7  1  0  0  0  0
  2  1  1  0  0  0  0
  3  2  1  0  0  0  0
  3 10  1  0  0  0  0
  4  3  1  0  0  0  0
  4  5  1  0  0  0  0
  4 11  1  1  0  0  0
  5 12  1  0  0  0  0
  5  1  1  0  0  0  0
  8  2  1  0  0  0  0
  9  3  1  0  0  0  0
 13  5  1  0  0  0  0
 14 19  1  0  0  0  0
 15 16  1  0  0  0  0
 15 14  2  0  0  0  0
 16 17  2  0  0  0  0
 17 18  1  0  0  0  0
 18 22  1  0  0  0  0
 19 18  2  0  0  0  0
 20 14  1  0  0  0  0
 21 15  1  0  0  0  0
 23 26  1  6  0  0  0
 23  4  1  0  0  0  0
 24 28  1  0  0  0  0
 24 23  1  0  0  0  0
 25 29  1  6  0  0  0
 25 24  1  0  0  0  0
 25 23  1  0  0  0  0
 25 32  1  0  0  0  0
 27 24  1  0  0  0  0
 30 31  2  0  0  0  0
 31 33  1  0  0  0  0
 31 32  1  0  0  0  0
 32 36  1  0  0  0  0
 33 34  1  0  0  0  0
 33 37  1  0  0  0  0
 35 30  1  0  0  0  0
M  END
>  <minimizedAffinity>
-5.00988293

$$$$

 OpenBabel03252507533D

 37 39  0  0  1  0  0  0  0  0999 V2000
   37.3830   26.8930   38.6210 C   0  0  2  0  0  0  0  0  0  0  0  0
   38.7080   27.6050   38.5740 C   0  0  0  0  0  0  0  0  0  0  0  0
   38.4450   28.4850   37.3340 C   0  0  0  0  0  0  0  0  0  0  0  0
   36.9830   28.8470   37.4270 C   0  0  1  0  0  0  0  0  0  0  0  0
   36.4610   28.1170   38.6150 C   0  0  0  0  0  0  0  0  0  0  0  0
   37.2850   26.2790   37.7300 H   0  0  0  0  0  0  0  0  0  0  0  0
   39.5770   26.9470   38.4310 H   0  0  0  0  0  0  0  0  0  0  0  0
   38.7760   28.2960   39.4170 H   0  0  0  0  0  0  0  0  0  0  0  0
   39.0770   29.3960   37.4270 H   0  0  0  0  0  0  0  0  0  0  0  0
   38.6420   27.8910   36.4280 H   0  0  0  0  0  0  0  0  0  0  0  0
   36.4600   28.5090   36.5330 H   0  0  0  0  0  0  0  0  0  0  0  0
   35.4230   27.7950   38.5850 H   0  0  0  0  0  0  0  0  0  0  0  0
   36.7810   28.5300   39.5900 H   0  0  0  0  0  0  0  0  0  0  0  0
   36.6110   24.0940   41.0320 C   0  0  0  0  0  0  0  0  0  0  0  0
   36.7880   24.7530   39.8000 C   0  0  0  0  0  0  0  0  0  0  0  0
   37.1840   26.1010   39.8580 C   0  0  0  0  0  0  0  0  0  0  0  0
   37.3820   26.7220   41.0870 N   0  0  0  0  0  0  0  0  0  0  0  0
   37.1910   26.0220   42.2310 C   0  0  0  0  0  0  0  0  0  0  0  0
   36.8120   24.7330   42.2060 N   0  0  0  0  0  0  0  0  0  0  0  0
   36.3060   23.0540   41.0280 H   0  0  0  0  0  0  0  0  0  0  0  0
   36.6350   24.2730   38.8530 H   0  0  0  0  0  0  0  0  0  0  0  0
   37.3730   26.6080   43.1230 H   0  0  0  0  0  0  0  0  0  0  0  0
   36.7180   30.2980   37.6720 C   0  0  2  0  0  0  0  0  0  0  0  0
   37.8380   31.2260   37.5980 C   0  0  0  0  0  0  0  0  0  0  0  0
   37.0390   31.0260   38.8700 C   0  0  2  0  0  0  0  0  0  0  0  0
   35.7830   30.6020   37.1240 H   0  0  0  0  0  0  0  0  0  0  0  0
   37.6210   32.2180   37.0910 H   0  0  0  0  0  0  0  0  0  0  0  0
   38.8700   31.1920   37.8330 H   0  0  0  0  0  0  0  0  0  0  0  0
   36.3360   31.8570   39.1770 H   0  0  0  0  0  0  0  0  0  0  0  0
   35.6010   30.8790   41.3450 N   0  0  0  0  0  0  0  0  0  0  0  0
   36.7980   30.3620   41.2320 C   0  0  0  0  0  0  0  0  0  0  0  0
   37.6140   30.4080   40.0430 N   0  0  0  0  0  0  0  0  0  0  0  0
   37.0530   29.7900   42.5020 N   0  0  0  0  0  0  0  0  0  0  0  0
   36.5110   29.0340   42.9380 H   0  0  0  0  0  0  0  0  0  0  0  0
   35.1210   31.3810   40.5680 H   0  0  0  0  0  0  0  0  0  0  0  0
   38.4990   29.9340   40.3600 H   0  0  0  0  0  0  0  0  0  0  0  0
   37.8210   30.0560   43.1630 H   0  0  0  0  0  0  0  0  0  0  0  0
  1  6  1  6  0  0  0
  1 16  1  0  0  0  0
  2  1  1  0  0  0  0
  2  8  1  0  0  0  0
  3  4  1  0  0  0  0
  3  9  1  0  0  0  0
  3  2  1  0  0  0  0
  4 11  1  6  0  0  0
  4 23  1  0  0  0  0
  4  5  1  0  0  0  0
  5  1  1  0  0  0  0
  5 13  1  0  0  0  0
  7  2  1  0  0  0  0
 10  3  1  0  0  0  0
 12  5  1  0  0  0  0
 14 19  1  0  0  0  0
 15 16  1  0  0  0  0
 15 14  2  0  0  0  0
 16 17  2  0  0  0  0
 17 18  1  0  0  0  0
 18 22  1  0  0  0  0
 19 18  2  0  0  0  0
 20 14  1  0  0  0  0
 21 15  1  0  0  0  0
 23 26  1  6  0  0  0
 23 25  1  0  0  0  0
 24 23  1  0  0  0  0
 24 28  1  0  0  0  0
 24 25  1  0  0  0  0
 25 29  1  1  0  0  0
 25 32  1  0  0  0  0
 27 24  1  0  0  0  0
 31 30  2  0  0  0  0
 31 33  1  0  0  0  0
 32 36  1  0  0  0  0
 32 31  1  0  0  0  0
 33 34  1  0  0  0  0
 33 37  1  0  0  0  0
 35 30  1  0  0  0  0
M  END
>  <minimizedAffinity>
-4.99447346

$$$$

 OpenBabel03252507533D

 37 39  0  0  1  0  0  0  0  0999 V2000
   38.5730   27.6160   41.8500 C   0  0  2  0  0  0  0  0  0  0  0  0
   38.0370   28.1810   43.1380 C   0  0  0  0  0  0  0  0  0  0  0  0
   38.4120   29.6590   42.9080 C   0  0  0  0  0  0  0  0  0  0  0  0
   38.2200   29.8750   41.4260 C   0  0  1  0  0  0  0  0  0  0  0  0
   37.8480   28.5440   40.8700 C   0  0  0  0  0  0  0  0  0  0  0  0
   39.6520   27.7400   41.8390 H   0  0  0  0  0  0  0  0  0  0  0  0
   38.5070   27.7770   44.0470 H   0  0  0  0  0  0  0  0  0  0  0  0
   36.9450   28.1460   43.1190 H   0  0  0  0  0  0  0  0  0  0  0  0
   37.6940   30.2840   43.4860 H   0  0  0  0  0  0  0  0  0  0  0  0
   39.4650   29.8080   43.1900 H   0  0  0  0  0  0  0  0  0  0  0  0
   39.1550   30.2090   40.9760 H   0  0  0  0  0  0  0  0  0  0  0  0
   38.1650   28.3230   39.8540 H   0  0  0  0  0  0  0  0  0  0  0  0
   36.8200   28.2130   41.1080 H   0  0  0  0  0  0  0  0  0  0  0  0
   38.5050   23.8430   41.8250 C   0  0  0  0  0  0  0  0  0  0  0  0
   38.9560   25.1450   42.1160 C   0  0  0  0  0  0  0  0  0  0  0  0
   38.1800   26.2060   41.6170 C   0  0  0  0  0  0  0  0  0  0  0  0
   37.0310   25.9470   40.8780 N   0  0  0  0  0  0  0  0  0  0  0  0
   36.6600   24.6670   40.6390 C   0  0  0  0  0  0  0  0  0  0  0  0
   37.3820   23.6320   41.1030 N   0  0  0  0  0  0  0  0  0  0  0  0
   39.0780   22.9980   42.1930 H   0  0  0  0  0  0  0  0  0  0  0  0
   39.8430   25.3430   42.6860 H   0  0  0  0  0  0  0  0  0  0  0  0
   35.7520   24.5900   40.0550 H   0  0  0  0  0  0  0  0  0  0  0  0
   37.1060   30.8060   41.0740 C   0  0  2  0  0  0  0  0  0  0  0  0
   36.5110   30.7010   39.7490 C   0  0  0  0  0  0  0  0  0  0  0  0
   37.2060   31.9610   40.2230 C   0  0  2  0  0  0  0  0  0  0  0  0
   36.3870   30.8700   41.9380 H   0  0  0  0  0  0  0  0  0  0  0  0
   35.3820   30.8070   39.7070 H   0  0  0  0  0  0  0  0  0  0  0  0
   36.8580   30.4630   38.7770 H   0  0  0  0  0  0  0  0  0  0  0  0
   36.5530   32.8500   40.4730 H   0  0  0  0  0  0  0  0  0  0  0  0
   38.6720   34.1610   41.3300 N   0  0  0  0  0  0  0  0  0  0  0  0
   39.1230   33.5100   40.2890 C   0  0  0  0  0  0  0  0  0  0  0  0
   38.4500   32.4110   39.6400 N   0  0  0  0  0  0  0  0  0  0  0  0
   40.3600   34.1340   39.9960 N   0  0  0  0  0  0  0  0  0  0  0  0
   41.1740   34.1720   40.6200 H   0  0  0  0  0  0  0  0  0  0  0  0
   37.7650   33.9380   41.7940 H   0  0  0  0  0  0  0  0  0  0  0  0
   39.0950   32.1950   38.8380 H   0  0  0  0  0  0  0  0  0  0  0  0
   40.6100   34.6370   39.1110 H   0  0  0  0  0  0  0  0  0  0  0  0
  1  6  1  6  0  0  0
  1  2  1  0  0  0  0
  2  7  1  0  0  0  0
  3  2  1  0  0  0  0
  3 10  1  0  0  0  0
  3  9  1  0  0  0  0
  4 11  1  6  0  0  0
  4  3  1  0  0  0  0
  5 13  1  0  0  0  0
  5  4  1  0  0  0  0
  5  1  1  0  0  0  0
  8  2  1  0  0  0  0
 12  5  1  0  0  0  0
 14 15  1  0  0  0  0
 14 20  1  0  0  0  0
 15 21  1  0  0  0  0
 16  1  1  0  0  0  0
 16 15  2  0  0  0  0
 17 16  1  0  0  0  0
 18 17  2  0  0  0  0
 18 19  1  0  0  0  0
 19 14  2  0  0  0  0
 22 18  1  0  0  0  0
 23  4  1  0  0  0  0
 23 26  1  1  0  0  0
 24 25  1  0  0  0  0
 24 23  1  0  0  0  0
 25 29  1  1  0  0  0
 25 23  1  0  0  0  0
 27 24  1  0  0  0  0
 28 24  1  0  0  0  0
 30 35  1  0  0  0  0
 31 30  2  0  0  0  0
 32 25  1  0  0  0  0
 32 31  1  0  0  0  0
 33 31  1  0  0  0  0
 33 34  1  0  0  0  0
 36 32  1  0  0  0  0
 37 33  1  0  0  0  0
M  END
>  <minimizedAffinity>
-4.98256922

$$$$

 OpenBabel03252507533D

 37 39  0  0  1  0  0  0  0  0999 V2000
   37.2420   28.6560   41.9240 C   0  0  2  0  0  0  0  0  0  0  0  0
   35.9870   28.1700   41.2490 C   0  0  0  0  0  0  0  0  0  0  0  0
   35.5210   29.5130   40.6500 C   0  0  0  0  0  0  0  0  0  0  0  0
   36.7960   30.2210   40.2630 C   0  0  1  0  0  0  0  0  0  0  0  0
   37.9030   29.3360   40.7210 C   0  0  0  0  0  0  0  0  0  0  0  0
   36.9660   29.3520   42.7110 H   0  0  0  0  0  0  0  0  0  0  0  0
   35.2360   27.7440   41.9300 H   0  0  0  0  0  0  0  0  0  0  0  0
   36.2570   27.5430   40.3960 H   0  0  0  0  0  0  0  0  0  0  0  0
   34.9140   29.2860   39.7440 H   0  0  0  0  0  0  0  0  0  0  0  0
   34.9800   30.0800   41.4230 H   0  0  0  0  0  0  0  0  0  0  0  0
   36.8590   31.1800   40.7780 H   0  0  0  0  0  0  0  0  0  0  0  0
   38.8280   29.8170   41.0340 H   0  0  0  0  0  0  0  0  0  0  0  0
   38.0480   28.4230   40.1140 H   0  0  0  0  0  0  0  0  0  0  0  0
   39.9620   26.7170   43.6790 C   0  0  0  0  0  0  0  0  0  0  0  0
   39.2030   27.8280   43.2620 C   0  0  0  0  0  0  0  0  0  0  0  0
   38.0980   27.5590   42.4350 C   0  0  0  0  0  0  0  0  0  0  0  0
   37.7980   26.2520   42.0670 N   0  0  0  0  0  0  0  0  0  0  0  0
   38.5760   25.2350   42.5090 C   0  0  0  0  0  0  0  0  0  0  0  0
   39.6390   25.4610   43.3000 N   0  0  0  0  0  0  0  0  0  0  0  0
   40.8230   26.8850   44.3180 H   0  0  0  0  0  0  0  0  0  0  0  0
   39.4360   28.8360   43.5450 H   0  0  0  0  0  0  0  0  0  0  0  0
   38.2460   24.2650   42.1590 H   0  0  0  0  0  0  0  0  0  0  0  0
   36.9830   30.4040   38.7910 C   0  0  2  0  0  0  0  0  0  0  0  0
   38.0170   29.6250   38.1250 C   0  0  0  0  0  0  0  0  0  0  0  0
   38.0430   31.1400   38.1580 C   0  0  2  0  0  0  0  0  0  0  0  0
   35.9750   30.4260   38.2900 H   0  0  0  0  0  0  0  0  0  0  0  0
   37.7390   29.2100   37.1050 H   0  0  0  0  0  0  0  0  0  0  0  0
   38.9770   29.2600   38.3810 H   0  0  0  0  0  0  0  0  0  0  0  0
   37.7970   31.6840   37.1970 H   0  0  0  0  0  0  0  0  0  0  0  0
   40.2470   32.4050   36.8310 N   0  0  0  0  0  0  0  0  0  0  0  0
   40.1050   32.4910   38.1290 C   0  0  0  0  0  0  0  0  0  0  0  0
   39.0510   31.8690   38.8940 N   0  0  0  0  0  0  0  0  0  0  0  0
   41.1900   33.3010   38.5460 N   0  0  0  0  0  0  0  0  0  0  0  0
   41.3540   34.2740   38.2620 H   0  0  0  0  0  0  0  0  0  0  0  0
   39.5960   31.8660   36.2210 H   0  0  0  0  0  0  0  0  0  0  0  0
   39.3050   32.1310   39.8800 H   0  0  0  0  0  0  0  0  0  0  0  0
   41.9640   33.0200   39.1940 H   0  0  0  0  0  0  0  0  0  0  0  0
  1 16  1  0  0  0  0
  1  6  1  1  0  0  0
  2  1  1  0  0  0  0
  2  7  1  0  0  0  0
  3  2  1  0  0  0  0
  3 10  1  0  0  0  0
  4  3  1  0  0  0  0
  4  5  1  0  0  0  0
  4 11  1  1  0  0  0
  5 12  1  0  0  0  0
  5  1  1  0  0  0  0
  8  2  1  0  0  0  0
  9  3  1  0  0  0  0
 13  5  1  0  0  0  0
 14 20  1  0  0  0  0
 15 21  1  0  0  0  0
 15 14  2  0  0  0  0
 16 15  1  0  0  0  0
 17 16  2  0  0  0  0
 17 18  1  0  0  0  0
 18 19  2  0  0  0  0
 19 14  1  0  0  0  0
 22 18  1  0  0  0  0
 23 26  1  6  0  0  0
 23  4  1  0  0  0  0
 24 25  1  0  0  0  0
 24 28  1  0  0  0  0
 24 23  1  0  0  0  0
 25 29  1  6  0  0  0
 25 23  1  0  0  0  0
 25 32  1  0  0  0  0
 27 24  1  0  0  0  0
 30 31  2  0  0  0  0
 31 33  1  0  0  0  0
 31 32  1  0  0  0  0
 32 36  1  0  0  0  0
 33 37  1  0  0  0  0
 34 33  1  0  0  0  0
 35 30  1  0  0  0  0
M  END
>  <minimizedAffinity>
-4.96516275

$$$$

 OpenBabel03252507533D

 37 39  0  0  1  0  0  0  0  0999 V2000
   38.3060   29.6940   40.0450 C   0  0  2  0  0  0  0  0  0  0  0  0
   36.9060   29.1790   39.8410 C   0  0  0  0  0  0  0  0  0  0  0  0
   37.1770   27.6820   40.0960 C   0  0  0  0  0  0  0  0  0  0  0  0
   38.2280   27.6650   41.1790 C   0  0  1  0  0  0  0  0  0  0  0  0
   38.5740   29.0920   41.4280 C   0  0  0  0  0  0  0  0  0  0  0  0
   38.9440   29.2820   39.2680 H   0  0  0  0  0  0  0  0  0  0  0  0
   36.4950   29.3550   38.8360 H   0  0  0  0  0  0  0  0  0  0  0  0
   36.2760   29.5120   40.6700 H   0  0  0  0  0  0  0  0  0  0  0  0
   36.2320   27.2270   40.4670 H   0  0  0  0  0  0  0  0  0  0  0  0
   37.5630   27.2280   39.1710 H   0  0  0  0  0  0  0  0  0  0  0  0
   39.1120   27.1320   40.8290 H   0  0  0  0  0  0  0  0  0  0  0  0
   39.5950   29.3120   41.7320 H   0  0  0  0  0  0  0  0  0  0  0  0
   37.8040   29.6670   41.9760 H   0  0  0  0  0  0  0  0  0  0  0  0
   39.4800   33.2250   40.6710 C   0  0  0  0  0  0  0  0  0  0  0  0
   39.5070   31.8170   40.6530 C   0  0  0  0  0  0  0  0  0  0  0  0
   38.3880   31.1730   40.0970 C   0  0  0  0  0  0  0  0  0  0  0  0
   37.3250   31.9180   39.6000 N   0  0  0  0  0  0  0  0  0  0  0  0
   37.3710   33.2710   39.6520 C   0  0  0  0  0  0  0  0  0  0  0  0
   38.4270   33.9140   40.1780 N   0  0  0  0  0  0  0  0  0  0  0  0
   40.3260   33.7570   41.0920 H   0  0  0  0  0  0  0  0  0  0  0  0
   40.3280   31.2430   41.0370 H   0  0  0  0  0  0  0  0  0  0  0  0
   36.4890   33.7420   39.2370 H   0  0  0  0  0  0  0  0  0  0  0  0
   37.7640   27.1090   42.4860 C   0  0  2  0  0  0  0  0  0  0  0  0
   37.9140   27.9300   43.6790 C   0  0  0  0  0  0  0  0  0  0  0  0
   38.6040   26.5900   43.5310 C   0  0  2  0  0  0  0  0  0  0  0  0
   36.7620   26.6160   42.3440 H   0  0  0  0  0  0  0  0  0  0  0  0
   37.0450   27.9020   44.4080 H   0  0  0  0  0  0  0  0  0  0  0  0
   38.6170   28.6410   44.0280 H   0  0  0  0  0  0  0  0  0  0  0  0
   38.2010   25.7280   44.1430 H   0  0  0  0  0  0  0  0  0  0  0  0
   39.8910   24.0530   43.1800 N   0  0  0  0  0  0  0  0  0  0  0  0
   40.5870   25.1590   43.2120 C   0  0  0  0  0  0  0  0  0  0  0  0
   40.0410   26.4800   43.4120 N   0  0  0  0  0  0  0  0  0  0  0  0
   41.9240   24.7380   43.0130 N   0  0  0  0  0  0  0  0  0  0  0  0
   42.2830   24.2590   42.1780 H   0  0  0  0  0  0  0  0  0  0  0  0
   38.8560   24.0260   43.2990 H   0  0  0  0  0  0  0  0  0  0  0  0
   40.9040   27.0820   43.4180 H   0  0  0  0  0  0  0  0  0  0  0  0
   42.7220   24.8550   43.6820 H   0  0  0  0  0  0  0  0  0  0  0  0
  1  6  1  6  0  0  0
  1 16  1  0  0  0  0
  1  5  1  0  0  0  0
  2  1  1  0  0  0  0
  2  3  1  0  0  0  0
  2  8  1  0  0  0  0
  3  9  1  0  0  0  0
  3  4  1  0  0  0  0
  4 11  1  6  0  0  0
  4  5  1  0  0  0  0
  4 23  1  0  0  0  0
  5 12  1  0  0  0  0
  5 13  1  0  0  0  0
  7  2  1  0  0  0  0
 10  3  1  0  0  0  0
 14 20  1  0  0  0  0
 15 14  1  0  0  0  0
 15 21  1  0  0  0  0
 16 15  2  0  0  0  0
 17 18  2  0  0  0  0
 17 16  1  0  0  0  0
 18 19  1  0  0  0  0
 19 14  2  0  0  0  0
 22 18  1  0  0  0  0
 23 26  1  6  0  0  0
 23 25  1  0  0  0  0
 23 24  1  0  0  0  0
 24 28  1  0  0  0  0
 24 27  1  0  0  0  0
 25 24  1  0  0  0  0
 25 29  1  1  0  0  0
 30 31  2  0  0  0  0
 30 35  1  0  0  0  0
 31 32  1  0  0  0  0
 32 36  1  0  0  0  0
 32 25  1  0  0  0  0
 33 31  1  0  0  0  0
 33 37  1  0  0  0  0
 34 33  1  0  0  0  0
M  END
>  <minimizedAffinity>
-4.89968872

$$$$

 OpenBabel03252507533D

 37 39  0  0  1  0  0  0  0  0999 V2000
   36.9020   27.3370   41.7080 C   0  0  2  0  0  0  0  0  0  0  0  0
   36.9880   27.4580   40.2100 C   0  0  0  0  0  0  0  0  0  0  0  0
   35.8670   28.4980   40.0030 C   0  0  0  0  0  0  0  0  0  0  0  0
   35.9620   29.4040   41.2060 C   0  0  1  0  0  0  0  0  0  0  0  0
   37.0280   28.8220   42.0670 C   0  0  0  0  0  0  0  0  0  0  0  0
   35.9360   26.9150   41.9670 H   0  0  0  0  0  0  0  0  0  0  0  0
   36.7870   26.5260   39.6620 H   0  0  0  0  0  0  0  0  0  0  0  0
   37.9170   27.9680   39.9430 H   0  0  0  0  0  0  0  0  0  0  0  0
   36.0980   29.0630   39.0730 H   0  0  0  0  0  0  0  0  0  0  0  0
   34.8970   27.9770   39.9850 H   0  0  0  0  0  0  0  0  0  0  0  0
   35.0160   29.4040   41.7470 H   0  0  0  0  0  0  0  0  0  0  0  0
   36.9250   28.9480   43.1420 H   0  0  0  0  0  0  0  0  0  0  0  0
   38.0590   28.9630   41.6900 H   0  0  0  0  0  0  0  0  0  0  0  0
   39.9650   26.3510   43.6790 C   0  0  0  0  0  0  0  0  0  0  0  0
   38.9310   27.1680   43.1830 C   0  0  0  0  0  0  0  0  0  0  0  0
   38.0180   26.5630   42.3010 C   0  0  0  0  0  0  0  0  0  0  0  0
   38.1580   25.2240   41.9560 N   0  0  0  0  0  0  0  0  0  0  0  0
   39.1800   24.5010   42.4740 C   0  0  0  0  0  0  0  0  0  0  0  0
   40.0680   25.0520   43.3190 N   0  0  0  0  0  0  0  0  0  0  0  0
   40.6890   26.7820   44.3610 H   0  0  0  0  0  0  0  0  0  0  0  0
   38.8240   28.2020   43.4490 H   0  0  0  0  0  0  0  0  0  0  0  0
   39.1880   23.4730   42.1350 H   0  0  0  0  0  0  0  0  0  0  0  0
   36.3870   30.8030   40.8960 C   0  0  2  0  0  0  0  0  0  0  0  0
   36.7100   31.1370   39.5150 C   0  0  0  0  0  0  0  0  0  0  0  0
   37.7310   31.2400   40.6300 C   0  0  2  0  0  0  0  0  0  0  0  0
   35.7140   31.5250   41.4370 H   0  0  0  0  0  0  0  0  0  0  0  0
   36.3440   32.1490   39.1560 H   0  0  0  0  0  0  0  0  0  0  0  0
   37.1480   30.6320   38.6940 H   0  0  0  0  0  0  0  0  0  0  0  0
   38.0190   32.2780   40.9750 H   0  0  0  0  0  0  0  0  0  0  0  0
   40.2120   32.0990   41.7790 N   0  0  0  0  0  0  0  0  0  0  0  0
   40.0720   30.8830   41.3180 C   0  0  0  0  0  0  0  0  0  0  0  0
   38.8780   30.3620   40.6970 N   0  0  0  0  0  0  0  0  0  0  0  0
   41.3190   30.2640   41.5770 N   0  0  0  0  0  0  0  0  0  0  0  0
   41.7340   30.1180   42.5050 H   0  0  0  0  0  0  0  0  0  0  0  0
   39.4570   32.8160   41.7360 H   0  0  0  0  0  0  0  0  0  0  0  0
   39.1710   29.3880   40.4300 H   0  0  0  0  0  0  0  0  0  0  0  0
   41.9820   29.8760   40.8640 H   0  0  0  0  0  0  0  0  0  0  0  0
  1  6  1  1  0  0  0
  1  5  1  0  0  0  0
  1 16  1  0  0  0  0
  2  1  1  0  0  0  0
  3  2  1  0  0  0  0
  3  4  1  0  0  0  0
  4 11  1  1  0  0  0
  4  5  1  0  0  0  0
  5 12  1  0  0  0  0
  7  2  1  0  0  0  0
  8  2  1  0  0  0  0
  9  3  1  0  0  0  0
 10  3  1  0  0  0  0
 13  5  1  0  0  0  0
 14 20  1  0  0  0  0
 15 21  1  0  0  0  0
 15 14  2  0  0  0  0
 16 15  1  0  0  0  0
 17 16  2  0  0  0  0
 17 18  1  0  0  0  0
 18 19  2  0  0  0  0
 19 14  1  0  0  0  0
 22 18  1  0  0  0  0
 23  4  1  0  0  0  0
 23 26  1  1  0  0  0
 24 25  1  0  0  0  0
 24 23  1  0  0  0  0
 25 32  1  0  0  0  0
 25 23  1  0  0  0  0
 25 29  1  1  0  0  0
 27 24  1  0  0  0  0
 28 24  1  0  0  0  0
 31 33  1  0  0  0  0
 31 30  2  0  0  0  0
 32 31  1  0  0  0  0
 33 34  1  0  0  0  0
 35 30  1  0  0  0  0
 36 32  1  0  0  0  0
 37 33  1  0  0  0  0
M  END
>  <minimizedAffinity>
-4.85427952

$$$$
