
 OpenBabel03252506283D

 46 49  0  0  0  0  0  0  0  0999 V2000
   46.9970   30.4180   48.1300 C   0  0  0  0  0  0  0  0  0  0  0  0
   47.3560   31.1730   48.8580 H   0  0  0  0  0  0  0  0  0  0  0  0
   47.5670   29.4960   48.2210 H   0  0  0  0  0  0  0  0  0  0  0  0
   46.9250   32.3660   45.1380 C   0  0  0  0  0  0  0  0  0  0  0  0
   47.6240   31.2090   44.7150 C   0  0  0  0  0  0  0  0  0  0  0  0
   47.7280   30.3680   45.7620 C   0  0  0  0  0  0  0  0  0  0  0  0
   47.1200   30.9740   46.7920 N   0  0  0  0  0  0  0  0  0  0  0  0
   46.6390   32.1640   46.4290 N   0  0  0  0  0  0  0  0  0  0  0  0
   48.0380   30.9730   43.7220 H   0  0  0  0  0  0  0  0  0  0  0  0
   48.2080   29.3810   45.7920 H   0  0  0  0  0  0  0  0  0  0  0  0
   45.2210   35.2750   43.7480 C   0  0  0  0  0  0  0  0  0  0  0  0
   46.0060   35.6440   42.6670 C   0  0  0  0  0  0  0  0  0  0  0  0
   47.1430   34.8680   42.4220 C   0  0  0  0  0  0  0  0  0  0  0  0
   47.3930   33.8280   43.2420 N   0  0  0  0  0  0  0  0  0  0  0  0
   46.6260   33.4890   44.2770 C   0  0  0  0  0  0  0  0  0  0  0  0
   45.5230   34.2330   44.5240 N   0  0  0  0  0  0  0  0  0  0  0  0
   44.3460   35.8890   43.9200 H   0  0  0  0  0  0  0  0  0  0  0  0
   45.8370   36.4700   41.9870 H   0  0  0  0  0  0  0  0  0  0  0  0
   48.0740   32.9770   40.5160 N   0  0  0  0  0  0  0  0  0  0  0  0
   48.1780   34.2460   40.2110 C   0  0  0  0  0  0  0  0  0  0  0  0
   48.0450   35.1320   41.3390 N   0  0  0  0  0  0  0  0  0  0  0  0
   48.4030   34.8890   38.9390 N   0  0  0  0  0  0  0  0  0  0  0  0
   47.7790   34.4450   38.2230 H   0  0  0  0  0  0  0  0  0  0  0  0
   48.1500   32.2150   39.7950 H   0  0  0  0  0  0  0  0  0  0  0  0
   48.6140   36.0270   41.4160 H   0  0  0  0  0  0  0  0  0  0  0  0
   49.1280   35.6650   38.9510 H   0  0  0  0  0  0  0  0  0  0  0  0
   45.5670   30.1500   48.4490 C   0  0  0  0  0  0  0  0  0  0  0  0
   45.4730   30.0240   49.5490 H   0  0  0  0  0  0  0  0  0  0  0  0
   44.9890   31.0840   48.2080 H   0  0  0  0  0  0  0  0  0  0  0  0
   44.9550   27.6720   48.2010 C   0  0  0  0  0  0  0  0  0  0  0  0
   44.9570   28.9860   47.8060 C   0  0  0  0  0  0  0  0  0  0  0  0
   44.2800   29.2720   46.6140 C   0  0  0  0  0  0  0  0  0  0  0  0
   43.6550   28.2970   45.8880 C   0  0  0  0  0  0  0  0  0  0  0  0
   42.9460   28.2810   44.7360 N   0  0  0  0  0  0  0  0  0  0  0  0
   42.5360   27.0360   44.4410 C   0  0  0  0  0  0  0  0  0  0  0  0
   42.9790   26.1770   45.4270 C   0  0  0  0  0  0  0  0  0  0  0  0
   43.6620   26.9950   46.2950 C   0  0  0  0  0  0  0  0  0  0  0  0
   44.3250   26.7030   47.4650 C   0  0  0  0  0  0  0  0  0  0  0  0
   45.4890   27.4900   49.1280 H   0  0  0  0  0  0  0  0  0  0  0  0
   44.2040   30.2640   46.1900 H   0  0  0  0  0  0  0  0  0  0  0  0
   42.7420   29.1220   44.1470 H   0  0  0  0  0  0  0  0  0  0  0  0
   41.9520   26.7710   43.5690 H   0  0  0  0  0  0  0  0  0  0  0  0
   42.7890   25.1090   45.4390 H   0  0  0  0  0  0  0  0  0  0  0  0
   44.3610   25.3190   47.9440 C   0  0  0  0  0  0  0  0  0  0  0  0
   45.0930   24.9760   48.9170 O   0  0  0  0  0  0  0  0  0  0  0  0
   43.7640   24.5460   47.4800 H   0  0  0  0  0  0  0  0  0  0  0  0
  1  3  1  0  0  0  0
  1 27  1  0  0  0  0
  1  2  1  0  0  0  0
  4  8  2  0  0  0  0
  5  4  1  0  0  0  0
  5  6  2  0  0  0  0
  6 10  1  0  0  0  0
  6  7  1  0  0  0  0
  7  1  1  0  0  0  0
  8  7  1  0  0  0  0
  9  5  1  0  0  0  0
 11 17  1  0  0  0  0
 11 16  1  0  0  0  0
 12 11  2  0  0  0  0
 13 12  1  0  0  0  0
 13 14  2  0  0  0  0
 14 15  1  0  0  0  0
 15 16  2  0  0  0  0
 15  4  1  0  0  0  0
 18 12  1  0  0  0  0
 20 19  2  0  0  0  0
 20 21  1  0  0  0  0
 21 25  1  0  0  0  0
 21 13  1  0  0  0  0
 22 26  1  0  0  0  0
 22 20  1  0  0  0  0
 23 22  1  0  0  0  0
 24 19  1  0  0  0  0
 27 28  1  0  0  0  0
 29 27  1  0  0  0  0
 30 39  1  0  0  0  0
 31 30  1  0  0  0  0
 31 27  1  0  0  0  0
 32 31  2  0  0  0  0
 33 37  2  0  0  0  0
 33 32  1  0  0  0  0
 34 33  1  0  0  0  0
 35 34  1  0  0  0  0
 35 36  2  0  0  0  0
 36 43  1  0  0  0  0
 36 37  1  0  0  0  0
 37 38  1  0  0  0  0
 38 44  1  0  0  0  0
 38 30  2  0  0  0  0
 40 32  1  0  0  0  0
 41 34  1  0  0  0  0
 42 35  1  0  0  0  0
 44 45  2  0  0  0  0
 46 44  1  0  0  0  0
M  END
>  <minimizedAffinity>
-5.56345463

>  <minimizedRMSD>
0.909911394

$$$$
