REMARK  Name = 
REMARK  7 active torsions:
REMARK  status: ('A' for Active; 'I' for Inactive)
REMARK    1  A    between atoms: C_1  and  C_7
REMARK    2  A    between atoms: C_2  and  O_9
REMARK    3  A    between atoms: C_7  and  C_8
REMARK    4  A    between atoms: O_9  and  P_11
REMARK    5  A    between atoms: P_11  and  O_12
REMARK    6  A    between atoms: P_11  and  O_13
REMARK    7  A    between atoms: O_13  and  C_14
REMARK                            x       y       z     vdW  Elec       q    Type
REMARK                         _______ _______ _______ _____ _____    ______ ____
ROOT
ATOM      1  O   UNL     1      43.690  34.871  40.138  0.00  0.00    +0.000 OA
ATOM      2  P   UNL     1      43.265  34.734  41.595  0.00  0.00    +0.000 P 
ENDROOT
BRANCH   2   3
ATOM      3  O   UNL     1      43.157  33.094  41.979  0.00  0.00    +0.000 OA
ATOM      4  H   UNL     1      42.302  32.820  42.359  0.00  0.00    +0.000 HD
ENDBRANCH   2   3
BRANCH   2   5
ATOM      5  O   UNL     1      44.452  35.426  42.584  0.00  0.00    +0.000 OA
BRANCH   5   7
ATOM      6  C   UNL     1      46.519  34.368  42.998  0.00  0.00    +0.000 A 
ATOM      7  C   UNL     1      45.278  34.746  43.471  0.00  0.00    +0.000 A 
ATOM      8  C   UNL     1      44.954  34.418  44.794  0.00  0.00    +0.000 A 
ATOM      9  N   UNL     1      45.877  33.752  45.524  0.00  0.00    +0.000 NA
ATOM     10  C   UNL     1      47.072  33.396  45.044  0.00  0.00    +0.000 A 
ATOM     11  N   UNL     1      47.394  33.705  43.779  0.00  0.00    +0.000 NA
ATOM     12  H   UNL     1      43.985  34.738  45.095  0.00  0.00    +0.000 HD
ATOM     13  H   UNL     1      47.762  32.861  45.693  0.00  0.00    +0.000 HD
BRANCH   6  14
ATOM     14  C   UNL     1      46.926  34.676  41.628  0.00  0.00    +0.000 C 
ATOM     15  H   UNL     1      46.966  33.783  40.957  0.00  0.00    +0.000 HD
ATOM     16  H   UNL     1      46.197  35.374  41.158  0.00  0.00    +0.000 HD
BRANCH  14  17
ATOM     17  C   UNL     1      48.284  35.323  41.649  0.00  0.00    +0.000 C 
ATOM     18  H   UNL     1      48.983  34.614  42.150  0.00  0.00    +0.000 HD
ATOM     19  H   UNL     1      48.648  35.587  40.636  0.00  0.00    +0.000 HD
ATOM     20  H   UNL     1      48.227  36.216  42.302  0.00  0.00    +0.000 HD
ENDBRANCH  14  17
ENDBRANCH   6  14
ENDBRANCH   5   7
ENDBRANCH   2   5
BRANCH   2  21
ATOM     21  O   UNL     1      41.729  35.420  41.826  0.00  0.00    +0.000 OA
BRANCH  21  22
ATOM     22  C   UNL     1      40.632  34.759  41.304  0.00  0.00    +0.000 A 
ATOM     23  C   UNL     1      39.986  35.331  40.221  0.00  0.00    +0.000 A 
ATOM     24  C   UNL     1      38.881  34.751  39.626  0.00  0.00    +0.000 A 
ATOM     25  N   UNL     1      38.426  33.581  40.133  0.00  0.00    +0.000 NA
ATOM     26  C   UNL     1      39.047  33.016  41.187  0.00  0.00    +0.000 A 
ATOM     27  N   UNL     1      40.113  33.605  41.737  0.00  0.00    +0.000 NA
ATOM     28  H   UNL     1      40.324  36.256  39.798  0.00  0.00    +0.000 HD
ATOM     29  H   UNL     1      38.391  35.204  38.788  0.00  0.00    +0.000 HD
ATOM     30  N   UNL     1      40.461  31.389  43.002  0.00  0.00    +0.000 NA
ATOM     31  C   UNL     1      39.461  30.846  42.363  0.00  0.00    +0.000 C 
ATOM     32  N   UNL     1      38.573  31.770  41.737  0.00  0.00    +0.000 N 
ATOM     33  N   UNL     1      39.121  29.454  42.194  0.00  0.00    +0.000 N 
ATOM     34  H   UNL     1      38.271  29.038  42.592  0.00  0.00    +0.000 HD
ATOM     35  H   UNL     1      41.192  30.876  43.507  0.00  0.00    +0.000 HD
ATOM     36  H   UNL     1      37.533  31.562  41.661  0.00  0.00    +0.000 HD
ATOM     37  H   UNL     1      39.844  28.945  41.626  0.00  0.00    +0.000 HD
ENDBRANCH  21  22
ENDBRANCH   2  21
TORSDOF 7
