REMARK  Name = 
REMARK  3 active torsions:
REMARK  status: ('A' for Active; 'I' for Inactive)
REMARK    1  A    between atoms: C_1  and  C_8
REMARK    2  A    between atoms: C_4  and  C_12
REMARK    3  A    between atoms: C_14  and  N_32
REMARK                            x       y       z     vdW  Elec       q    Type
REMARK                         _______ _______ _______ _____ _____    ______ ____
ROOT
ATOM      1  C   UNL     1      46.885  34.920  42.154  0.00  0.00    +0.000 C 
ATOM      2  C   UNL     1      46.377  33.906  41.164  0.00  0.00    +0.000 C 
ATOM      3  C   UNL     1      47.583  33.908  40.202  0.00  0.00    +0.000 C 
ATOM      4  C   UNL     1      48.784  34.093  41.097  0.00  0.00    +0.000 C 
ATOM      5  C   UNL     1      48.239  34.276  42.471  0.00  0.00    +0.000 C 
ATOM      6  H   UNL     1      46.974  35.880  41.654  0.00  0.00    +0.000 HD
ATOM      7  H   UNL     1      45.446  34.191  40.653  0.00  0.00    +0.000 HD
ATOM      8  H   UNL     1      46.373  32.918  41.631  0.00  0.00    +0.000 HD
ATOM      9  H   UNL     1      47.620  32.913  39.705  0.00  0.00    +0.000 HD
ATOM     10  H   UNL     1      47.482  34.755  39.506  0.00  0.00    +0.000 HD
ATOM     11  H   UNL     1      49.333  34.987  40.801  0.00  0.00    +0.000 HD
ATOM     12  H   UNL     1      48.800  34.916  43.148  0.00  0.00    +0.000 HD
ATOM     13  H   UNL     1      47.843  33.355  42.939  0.00  0.00    +0.000 HD
ENDROOT
BRANCH   1  16
ATOM     14  C   UNL     1      44.432  36.086  44.774  0.00  0.00    +0.000 A 
ATOM     15  C   UNL     1      45.161  36.081  43.569  0.00  0.00    +0.000 A 
ATOM     16  C   UNL     1      46.056  35.013  43.379  0.00  0.00    +0.000 A 
ATOM     17  N   UNL     1      46.190  34.029  44.352  0.00  0.00    +0.000 NA
ATOM     18  C   UNL     1      45.454  34.102  45.487  0.00  0.00    +0.000 A 
ATOM     19  N   UNL     1      44.591  35.111  45.696  0.00  0.00    +0.000 NA
ATOM     20  H   UNL     1      43.732  36.894  44.956  0.00  0.00    +0.000 HD
ATOM     21  H   UNL     1      45.057  36.841  42.819  0.00  0.00    +0.000 HD
ATOM     22  H   UNL     1      45.643  33.283  46.169  0.00  0.00    +0.000 HD
ENDBRANCH   1  16
BRANCH   4  23
ATOM     23  C   UNL     1      49.699  32.913  41.159  0.00  0.00    +0.000 C 
ATOM     24  C   UNL     1      49.603  32.025  42.309  0.00  0.00    +0.000 C 
ATOM     25  C   UNL     1      50.869  32.792  41.986  0.00  0.00    +0.000 C 
ATOM     26  H   UNL     1      49.734  32.417  40.149  0.00  0.00    +0.000 HD
ATOM     27  H   UNL     1      49.688  30.916  42.082  0.00  0.00    +0.000 HD
ATOM     28  H   UNL     1      49.388  32.137  43.340  0.00  0.00    +0.000 HD
ATOM     29  H   UNL     1      51.741  32.203  41.571  0.00  0.00    +0.000 HD
BRANCH  25  32
ATOM     30  N   UNL     1      49.198  34.002  43.975  0.00  0.00    +0.000 NA
ATOM     31  C   UNL     1      50.440  34.380  43.823  0.00  0.00    +0.000 C 
ATOM     32  N   UNL     1      51.353  33.857  42.835  0.00  0.00    +0.000 N 
ATOM     33  N   UNL     1      50.630  35.370  44.818  0.00  0.00    +0.000 N 
ATOM     34  H   UNL     1      50.551  35.222  45.831  0.00  0.00    +0.000 HD
ATOM     35  H   UNL     1      48.746  33.272  43.383  0.00  0.00    +0.000 HD
ATOM     36  H   UNL     1      52.218  34.432  43.002  0.00  0.00    +0.000 HD
ATOM     37  H   UNL     1      50.873  36.377  44.657  0.00  0.00    +0.000 HD
ENDBRANCH  25  32
ENDBRANCH   4  23
TORSDOF 3
