
 OpenBabel03242517363D

 22 22  0  0  0  0  0  0  0  0999 V2000
   36.6110   27.3950   40.7400 C   0  0  0  0  0  3  0  0  0  0  0  0
   36.2060   28.5040   41.3510 C   0  0  0  0  0  3  0  0  0  0  0  0
   37.0620   24.9620   41.1740 C   0  0  0  0  0  0  0  0  0  0  0  0
   37.3820   26.3220   41.3820 C   0  0  0  0  0  0  0  0  0  0  0  0
   38.4450   26.6390   42.2090 C   0  0  0  0  0  0  0  0  0  0  0  0
   39.1440   25.6120   42.7930 N   0  0  0  0  0  0  0  0  0  0  0  0
   38.8090   24.3340   42.5700 C   0  0  0  0  0  0  0  0  0  0  0  0
   37.7870   24.0290   41.7760 N   0  0  0  0  0  0  0  0  0  0  0  0
   36.2220   24.7720   40.5190 H   0  0  0  0  0  0  0  0  0  0  0  0
   38.7420   27.6610   42.4090 H   0  0  0  0  0  0  0  0  0  0  0  0
   39.4160   23.5880   43.0730 H   0  0  0  0  0  0  0  0  0  0  0  0
   35.4250   29.5550   40.6340 C   0  0  0  0  0  0  0  0  0  0  0  0
   34.3350   29.4090   40.7390 H   0  0  0  0  0  0  0  0  0  0  0  0
   35.6800   29.4700   39.5580 H   0  0  0  0  0  0  0  0  0  0  0  0
   37.6370   30.8770   39.5160 N   0  0  0  0  0  0  0  0  0  0  0  0
   36.8370   31.5430   40.2550 C   0  0  0  0  0  0  0  0  0  0  0  0
   35.8680   30.8690   41.0500 N   0  0  0  0  0  0  0  0  0  0  0  0
   36.8650   32.9800   40.3250 N   0  0  0  0  0  0  0  0  0  0  0  0
   35.9830   33.5420   40.3140 H   0  0  0  0  0  0  0  0  0  0  0  0
   38.3350   31.4260   38.9460 H   0  0  0  0  0  0  0  0  0  0  0  0
   35.5010   31.3470   41.9190 H   0  0  0  0  0  0  0  0  0  0  0  0
   37.5310   33.7570   40.3900 H   0  0  0  0  0  0  0  0  0  0  0  0
  1  2  2  0  0  0  0
  1  4  1  0  0  0  0
  3  4  2  0  0  0  0
  3  8  1  0  0  0  0
  4  5  1  0  0  0  0
  5 10  1  0  0  0  0
  5  6  2  0  0  0  0
  7  6  1  0  0  0  0
  7 11  1  0  0  0  0
  8  7  2  0  0  0  0
  9  3  1  0  0  0  0
 12 13  1  0  0  0  0
 12 17  1  0  0  0  0
 12  2  1  0  0  0  0
 14 12  1  0  0  0  0
 15 16  2  0  0  0  0
 16 18  1  0  0  0  0
 16 17  1  0  0  0  0
 17 21  1  0  0  0  0
 18 22  1  0  0  0  0
 19 18  1  0  0  0  0
 20 15  1  0  0  0  0
M  END
>  <minimizedAffinity>
-4.42706394

$$$$

 OpenBabel03242517363D

 22 22  0  0  0  0  0  0  0  0999 V2000
   36.7110   27.5000   40.6980 C   0  0  0  0  0  3  0  0  0  0  0  0
   36.0760   28.4790   41.3360 C   0  0  0  0  0  3  0  0  0  0  0  0
   38.4960   26.6520   42.2490 C   0  0  0  0  0  0  0  0  0  0  0  0
   37.4280   26.4020   41.3580 C   0  0  0  0  0  0  0  0  0  0  0  0
   37.0580   25.0910   41.1110 C   0  0  0  0  0  0  0  0  0  0  0  0
   37.7490   24.0890   41.7450 N   0  0  0  0  0  0  0  0  0  0  0  0
   38.7570   24.3690   42.5830 C   0  0  0  0  0  0  0  0  0  0  0  0
   39.1130   25.6270   42.8200 N   0  0  0  0  0  0  0  0  0  0  0  0
   38.7420   27.6940   42.4050 H   0  0  0  0  0  0  0  0  0  0  0  0
   36.2490   24.8320   40.4400 H   0  0  0  0  0  0  0  0  0  0  0  0
   39.2480   23.5140   43.0400 H   0  0  0  0  0  0  0  0  0  0  0  0
   35.3660   29.5660   40.5980 C   0  0  0  0  0  0  0  0  0  0  0  0
   34.2690   29.4710   40.6690 H   0  0  0  0  0  0  0  0  0  0  0  0
   35.6510   29.4710   39.5300 H   0  0  0  0  0  0  0  0  0  0  0  0
   37.5720   30.8620   39.4360 N   0  0  0  0  0  0  0  0  0  0  0  0
   36.8150   31.5280   40.2190 C   0  0  0  0  0  0  0  0  0  0  0  0
   35.8580   30.8580   41.0310 N   0  0  0  0  0  0  0  0  0  0  0  0
   36.8830   32.9610   40.3240 N   0  0  0  0  0  0  0  0  0  0  0  0
   36.0160   33.5450   40.3590 H   0  0  0  0  0  0  0  0  0  0  0  0
   38.2640   31.4080   38.8560 H   0  0  0  0  0  0  0  0  0  0  0  0
   35.5330   31.3220   41.9240 H   0  0  0  0  0  0  0  0  0  0  0  0
   37.5700   33.7200   40.3860 H   0  0  0  0  0  0  0  0  0  0  0  0
  1  2  2  0  0  0  0
  1  4  1  0  0  0  0
  3  9  1  0  0  0  0
  3  8  1  0  0  0  0
  4  3  2  0  0  0  0
  5  4  1  0  0  0  0
  5  6  2  0  0  0  0
  6  7  1  0  0  0  0
  7  8  2  0  0  0  0
  7 11  1  0  0  0  0
 10  5  1  0  0  0  0
 12 13  1  0  0  0  0
 12 17  1  0  0  0  0
 12  2  1  0  0  0  0
 14 12  1  0  0  0  0
 15 16  2  0  0  0  0
 16 18  1  0  0  0  0
 16 17  1  0  0  0  0
 17 21  1  0  0  0  0
 18 19  1  0  0  0  0
 18 22  1  0  0  0  0
 20 15  1  0  0  0  0
M  END
>  <minimizedAffinity>
-4.39850473

$$$$

 OpenBabel03242517363D

 22 22  0  0  0  0  0  0  0  0999 V2000
   36.9620   27.3090   41.7880 C   0  0  0  0  0  3  0  0  0  0  0  0
   37.9760   28.1380   42.0130 C   0  0  0  0  0  3  0  0  0  0  0  0
   37.6570   24.9150   42.1000 C   0  0  0  0  0  0  0  0  0  0  0  0
   37.1040   25.9340   41.2930 C   0  0  0  0  0  0  0  0  0  0  0  0
   36.6900   25.6180   40.0100 C   0  0  0  0  0  0  0  0  0  0  0  0
   36.8370   24.3230   39.5790 N   0  0  0  0  0  0  0  0  0  0  0  0
   37.3670   23.3850   40.3770 C   0  0  0  0  0  0  0  0  0  0  0  0
   37.7650   23.6880   41.6080 N   0  0  0  0  0  0  0  0  0  0  0  0
   37.9630   25.2180   43.0930 H   0  0  0  0  0  0  0  0  0  0  0  0
   36.2580   26.3520   39.3410 H   0  0  0  0  0  0  0  0  0  0  0  0
   37.4450   22.3890   39.9530 H   0  0  0  0  0  0  0  0  0  0  0  0
   37.7580   29.5260   42.5180 C   0  0  0  0  0  0  0  0  0  0  0  0
   38.4000   29.7620   43.3840 H   0  0  0  0  0  0  0  0  0  0  0  0
   36.7010   29.5880   42.8480 H   0  0  0  0  0  0  0  0  0  0  0  0
   35.5780   30.7650   41.2500 N   0  0  0  0  0  0  0  0  0  0  0  0
   36.7500   31.2200   41.0330 C   0  0  0  0  0  0  0  0  0  0  0  0
   37.8940   30.4740   41.4300 N   0  0  0  0  0  0  0  0  0  0  0  0
   36.9790   32.4870   40.3890 N   0  0  0  0  0  0  0  0  0  0  0  0
   37.7000   33.1560   40.7460 H   0  0  0  0  0  0  0  0  0  0  0  0
   34.7640   31.3590   40.9350 H   0  0  0  0  0  0  0  0  0  0  0  0
   38.8070   30.6330   40.9230 H   0  0  0  0  0  0  0  0  0  0  0  0
   36.6430   33.0460   39.5970 H   0  0  0  0  0  0  0  0  0  0  0  0
  1  2  2  0  0  0  0
  2 12  1  0  0  0  0
  3  9  1  0  0  0  0
  4  1  1  0  0  0  0
  4  3  2  0  0  0  0
  5  4  1  0  0  0  0
  6  5  2  0  0  0  0
  6  7  1  0  0  0  0
  7  8  2  0  0  0  0
  8  3  1  0  0  0  0
 10  5  1  0  0  0  0
 11  7  1  0  0  0  0
 12 14  1  0  0  0  0
 12 13  1  0  0  0  0
 16 15  2  0  0  0  0
 16 17  1  0  0  0  0
 17 12  1  0  0  0  0
 18 19  1  0  0  0  0
 18 16  1  0  0  0  0
 20 15  1  0  0  0  0
 21 17  1  0  0  0  0
 22 18  1  0  0  0  0
M  END
>  <minimizedAffinity>
-4.34206963

$$$$

 OpenBabel03242517363D

 22 22  0  0  0  0  0  0  0  0999 V2000
   37.1460   28.6370   41.5520 C   0  0  0  0  0  3  0  0  0  0  0  0
   37.2620   29.9610   41.5210 C   0  0  0  0  0  3  0  0  0  0  0  0
   39.1430   28.2350   43.0220 C   0  0  0  0  0  0  0  0  0  0  0  0
   38.0730   27.7350   42.2460 C   0  0  0  0  0  0  0  0  0  0  0  0
   37.9070   26.3650   42.1450 C   0  0  0  0  0  0  0  0  0  0  0  0
   38.7920   25.5500   42.8060 N   0  0  0  0  0  0  0  0  0  0  0  0
   39.7930   26.0650   43.5330 C   0  0  0  0  0  0  0  0  0  0  0  0
   39.9540   27.3810   43.6300 N   0  0  0  0  0  0  0  0  0  0  0  0
   39.2250   29.3130   43.0670 H   0  0  0  0  0  0  0  0  0  0  0  0
   37.1080   25.9170   41.5660 H   0  0  0  0  0  0  0  0  0  0  0  0
   40.4440   25.3470   44.0220 H   0  0  0  0  0  0  0  0  0  0  0  0
   36.2790   30.8180   40.7930 C   0  0  0  0  0  0  0  0  0  0  0  0
   35.2740   30.7790   41.2470 H   0  0  0  0  0  0  0  0  0  0  0  0
   36.2050   30.4200   39.7610 H   0  0  0  0  0  0  0  0  0  0  0  0
   37.3450   31.8610   38.4120 N   0  0  0  0  0  0  0  0  0  0  0  0
   37.0810   32.6650   39.3660 C   0  0  0  0  0  0  0  0  0  0  0  0
   36.7980   32.1650   40.6680 N   0  0  0  0  0  0  0  0  0  0  0  0
   37.0530   34.0930   39.1870 N   0  0  0  0  0  0  0  0  0  0  0  0
   36.2950   34.6790   39.6070 H   0  0  0  0  0  0  0  0  0  0  0  0
   37.5470   32.2850   37.4670 H   0  0  0  0  0  0  0  0  0  0  0  0
   36.9730   32.7890   41.5030 H   0  0  0  0  0  0  0  0  0  0  0  0
   37.5830   34.8450   38.7340 H   0  0  0  0  0  0  0  0  0  0  0  0
  1  4  1  0  0  0  0
  2  1  2  0  0  0  0
  3  9  1  0  0  0  0
  3  8  1  0  0  0  0
  4  3  2  0  0  0  0
  5  4  1  0  0  0  0
  5  6  2  0  0  0  0
  6  7  1  0  0  0  0
  7  8  2  0  0  0  0
  7 11  1  0  0  0  0
 10  5  1  0  0  0  0
 12 13  1  0  0  0  0
 12  2  1  0  0  0  0
 14 12  1  0  0  0  0
 15 16  2  0  0  0  0
 16 17  1  0  0  0  0
 17 12  1  0  0  0  0
 17 21  1  0  0  0  0
 18 16  1  0  0  0  0
 18 19  1  0  0  0  0
 20 15  1  0  0  0  0
 22 18  1  0  0  0  0
M  END
>  <minimizedAffinity>
-4.31642246

$$$$

 OpenBabel03242517363D

 22 22  0  0  0  0  0  0  0  0999 V2000
   37.9510   28.7880   42.7830 C   0  0  0  0  0  3  0  0  0  0  0  0
   38.8320   27.8120   42.5850 C   0  0  0  0  0  3  0  0  0  0  0  0
   36.5950   30.3350   41.3420 C   0  0  0  0  0  0  0  0  0  0  0  0
   37.8260   29.9830   41.9400 C   0  0  0  0  0  0  0  0  0  0  0  0
   38.9290   30.7890   41.7190 C   0  0  0  0  0  0  0  0  0  0  0  0
   38.7770   31.8980   40.9250 N   0  0  0  0  0  0  0  0  0  0  0  0
   37.5910   32.1980   40.3760 C   0  0  0  0  0  0  0  0  0  0  0  0
   36.5310   31.4240   40.5880 N   0  0  0  0  0  0  0  0  0  0  0  0
   35.7670   29.6710   41.5480 H   0  0  0  0  0  0  0  0  0  0  0  0
   39.9000   30.5750   42.1480 H   0  0  0  0  0  0  0  0  0  0  0  0
   37.5630   33.0930   39.7630 H   0  0  0  0  0  0  0  0  0  0  0  0
   38.9030   26.6240   43.4850 C   0  0  0  0  0  0  0  0  0  0  0  0
   38.2630   25.7950   43.1350 H   0  0  0  0  0  0  0  0  0  0  0  0
   38.5330   26.9480   44.4790 H   0  0  0  0  0  0  0  0  0  0  0  0
   39.8410   23.9950   43.1610 N   0  0  0  0  0  0  0  0  0  0  0  0
   40.6930   24.9410   43.2510 C   0  0  0  0  0  0  0  0  0  0  0  0
   40.2850   26.2350   43.6790 N   0  0  0  0  0  0  0  0  0  0  0  0
   42.0850   24.7590   42.9310 N   0  0  0  0  0  0  0  0  0  0  0  0
   42.6120   25.4710   42.3750 H   0  0  0  0  0  0  0  0  0  0  0  0
   40.1970   23.0550   42.8380 H   0  0  0  0  0  0  0  0  0  0  0  0
   41.0010   26.8720   44.1250 H   0  0  0  0  0  0  0  0  0  0  0  0
   42.8490   24.0910   43.0730 H   0  0  0  0  0  0  0  0  0  0  0  0
  2  1  2  0  0  0  0
  2 12  1  0  0  0  0
  3  9  1  0  0  0  0
  3  4  1  0  0  0  0
  4  1  1  0  0  0  0
  5  4  2  0  0  0  0
  5 10  1  0  0  0  0
  6  5  1  0  0  0  0
  7  8  1  0  0  0  0
  7  6  2  0  0  0  0
  8  3  2  0  0  0  0
 11  7  1  0  0  0  0
 12 17  1  0  0  0  0
 12 14  1  0  0  0  0
 13 12  1  0  0  0  0
 15 16  2  0  0  0  0
 16 17  1  0  0  0  0
 17 21  1  0  0  0  0
 18 22  1  0  0  0  0
 18 16  1  0  0  0  0
 19 18  1  0  0  0  0
 20 15  1  0  0  0  0
M  END
>  <minimizedAffinity>
-4.11859322

$$$$

 OpenBabel03242517363D

 22 22  0  0  0  0  0  0  0  0999 V2000
   39.3980   28.2040   42.7250 C   0  0  0  0  0  3  0  0  0  0  0  0
   38.1650   27.9760   43.1670 C   0  0  0  0  0  3  0  0  0  0  0  0
   41.7820   27.8800   43.4450 C   0  0  0  0  0  0  0  0  0  0  0  0
   40.5550   27.3430   42.9980 C   0  0  0  0  0  0  0  0  0  0  0  0
   40.4520   25.9740   42.8170 C   0  0  0  0  0  0  0  0  0  0  0  0
   41.5530   25.1980   43.0820 N   0  0  0  0  0  0  0  0  0  0  0  0
   42.7000   25.7480   43.5050 C   0  0  0  0  0  0  0  0  0  0  0  0
   42.7990   27.0620   43.6780 N   0  0  0  0  0  0  0  0  0  0  0  0
   41.8060   28.9550   43.5690 H   0  0  0  0  0  0  0  0  0  0  0  0
   39.5400   25.4990   42.4770 H   0  0  0  0  0  0  0  0  0  0  0  0
   43.5180   25.0580   43.6900 H   0  0  0  0  0  0  0  0  0  0  0  0
   37.0340   28.8970   42.8490 C   0  0  0  0  0  0  0  0  0  0  0  0
   36.5540   29.2990   43.7590 H   0  0  0  0  0  0  0  0  0  0  0  0
   36.2780   28.3030   42.2970 H   0  0  0  0  0  0  0  0  0  0  0  0
   35.3740   30.0960   40.9250 N   0  0  0  0  0  0  0  0  0  0  0  0
   36.5030   30.6340   41.1790 C   0  0  0  0  0  0  0  0  0  0  0  0
   37.4800   29.9290   41.9350 N   0  0  0  0  0  0  0  0  0  0  0  0
   36.8470   31.9560   40.7260 N   0  0  0  0  0  0  0  0  0  0  0  0
   37.3300   32.6380   41.3550 H   0  0  0  0  0  0  0  0  0  0  0  0
   34.6860   30.6630   40.3610 H   0  0  0  0  0  0  0  0  0  0  0  0
   38.4990   30.1780   41.8090 H   0  0  0  0  0  0  0  0  0  0  0  0
   36.7790   32.5510   39.8930 H   0  0  0  0  0  0  0  0  0  0  0  0
  1  4  1  0  0  0  0
  1  2  2  0  0  0  0
  3  9  1  0  0  0  0
  3  8  1  0  0  0  0
  4  3  2  0  0  0  0
  5  4  1  0  0  0  0
  5  6  2  0  0  0  0
  6  7  1  0  0  0  0
  7  8  2  0  0  0  0
  7 11  1  0  0  0  0
 10  5  1  0  0  0  0
 12  2  1  0  0  0  0
 12 13  1  0  0  0  0
 14 12  1  0  0  0  0
 15 16  2  0  0  0  0
 16 17  1  0  0  0  0
 17 12  1  0  0  0  0
 18 16  1  0  0  0  0
 18 19  1  0  0  0  0
 20 15  1  0  0  0  0
 21 17  1  0  0  0  0
 22 18  1  0  0  0  0
M  END
>  <minimizedAffinity>
-3.94559979

$$$$

 OpenBabel03242517363D

 22 22  0  0  0  0  0  0  0  0999 V2000
   37.4160   30.5090   41.4730 C   0  0  0  0  0  3  0  0  0  0  0  0
   37.5890   31.0030   40.2510 C   0  0  0  0  0  3  0  0  0  0  0  0
   38.6840   28.3780   41.0720 C   0  0  0  0  0  0  0  0  0  0  0  0
   37.9510   29.2220   41.9360 C   0  0  0  0  0  0  0  0  0  0  0  0
   37.7390   28.8180   43.2420 C   0  0  0  0  0  0  0  0  0  0  0  0
   38.2530   27.6100   43.6420 N   0  0  0  0  0  0  0  0  0  0  0  0
   38.9440   26.8380   42.7910 C   0  0  0  0  0  0  0  0  0  0  0  0
   39.1470   27.2250   41.5360 N   0  0  0  0  0  0  0  0  0  0  0  0
   38.8200   28.7440   40.0630 H   0  0  0  0  0  0  0  0  0  0  0  0
   37.1860   29.4180   43.9540 H   0  0  0  0  0  0  0  0  0  0  0  0
   39.3130   25.8990   43.1930 H   0  0  0  0  0  0  0  0  0  0  0  0
   37.0140   32.3210   39.8480 C   0  0  0  0  0  0  0  0  0  0  0  0
   36.5300   32.8410   40.6930 H   0  0  0  0  0  0  0  0  0  0  0  0
   36.2390   32.1150   39.0820 H   0  0  0  0  0  0  0  0  0  0  0  0
   38.6600   34.1610   41.1890 N   0  0  0  0  0  0  0  0  0  0  0  0
   38.9620   33.8290   39.9950 C   0  0  0  0  0  0  0  0  0  0  0  0
   38.0270   33.1200   39.1900 N   0  0  0  0  0  0  0  0  0  0  0  0
   40.2370   34.1440   39.4050 N   0  0  0  0  0  0  0  0  0  0  0  0
   40.7600   33.4400   38.8350 H   0  0  0  0  0  0  0  0  0  0  0  0
   39.3900   34.6850   41.7430 H   0  0  0  0  0  0  0  0  0  0  0  0
   38.1000   33.1960   38.1380 H   0  0  0  0  0  0  0  0  0  0  0  0
   40.9070   34.9170   39.3320 H   0  0  0  0  0  0  0  0  0  0  0  0
  1  4  1  0  0  0  0
  2  1  2  0  0  0  0
  3  8  2  0  0  0  0
  3  4  1  0  0  0  0
  4  5  2  0  0  0  0
  5  6  1  0  0  0  0
  5 10  1  0  0  0  0
  7 11  1  0  0  0  0
  7  6  2  0  0  0  0
  8  7  1  0  0  0  0
  9  3  1  0  0  0  0
 12  2  1  0  0  0  0
 12 13  1  0  0  0  0
 14 12  1  0  0  0  0
 15 20  1  0  0  0  0
 16 15  2  0  0  0  0
 17 12  1  0  0  0  0
 17 16  1  0  0  0  0
 18 16  1  0  0  0  0
 19 18  1  0  0  0  0
 21 17  1  0  0  0  0
 22 18  1  0  0  0  0
M  END
>  <minimizedAffinity>
-3.9225316

$$$$

 OpenBabel03242517363D

 22 22  0  0  0  0  0  0  0  0999 V2000
   38.8230   29.9950   41.2790 C   0  0  0  0  0  3  0  0  0  0  0  0
   39.4350   30.9360   41.9910 C   0  0  0  0  0  3  0  0  0  0  0  0
   37.7710   28.7710   43.2040 C   0  0  0  0  0  0  0  0  0  0  0  0
   38.1710   28.8090   41.8490 C   0  0  0  0  0  0  0  0  0  0  0  0
   37.9390   27.7010   41.0540 C   0  0  0  0  0  0  0  0  0  0  0  0
   37.3270   26.6100   41.6190 N   0  0  0  0  0  0  0  0  0  0  0  0
   36.9630   26.6140   42.9090 C   0  0  0  0  0  0  0  0  0  0  0  0
   37.1860   27.6780   43.6740 N   0  0  0  0  0  0  0  0  0  0  0  0
   37.9770   29.6640   43.7790 H   0  0  0  0  0  0  0  0  0  0  0  0
   38.2210   27.6660   40.0090 H   0  0  0  0  0  0  0  0  0  0  0  0
   36.4850   25.7090   43.2710 H   0  0  0  0  0  0  0  0  0  0  0  0
   40.0780   32.1170   41.3420 C   0  0  0  0  0  0  0  0  0  0  0  0
   40.6030   31.8470   40.4090 H   0  0  0  0  0  0  0  0  0  0  0  0
   40.8290   32.5100   42.0570 H   0  0  0  0  0  0  0  0  0  0  0  0
   39.0900   32.9170   38.8360 N   0  0  0  0  0  0  0  0  0  0  0  0
   38.4930   33.3260   39.8870 C   0  0  0  0  0  0  0  0  0  0  0  0
   39.1030   33.1740   41.1630 N   0  0  0  0  0  0  0  0  0  0  0  0
   37.1980   33.9520   39.8450 N   0  0  0  0  0  0  0  0  0  0  0  0
   36.4530   33.7070   40.5380 H   0  0  0  0  0  0  0  0  0  0  0  0
   38.5930   33.0540   37.9160 H   0  0  0  0  0  0  0  0  0  0  0  0
   38.8270   33.8340   41.9420 H   0  0  0  0  0  0  0  0  0  0  0  0
   36.6700   34.6470   39.3060 H   0  0  0  0  0  0  0  0  0  0  0  0
  1  4  1  0  0  0  0
  1  2  2  0  0  0  0
  3  8  1  0  0  0  0
  3  9  1  0  0  0  0
  4  3  2  0  0  0  0
  5  6  2  0  0  0  0
  5  4  1  0  0  0  0
  6  7  1  0  0  0  0
  7 11  1  0  0  0  0
  7  8  2  0  0  0  0
 10  5  1  0  0  0  0
 12  2  1  0  0  0  0
 12 14  1  0  0  0  0
 13 12  1  0  0  0  0
 15 16  2  0  0  0  0
 16 17  1  0  0  0  0
 17 12  1  0  0  0  0
 17 21  1  0  0  0  0
 18 16  1  0  0  0  0
 18 19  1  0  0  0  0
 20 15  1  0  0  0  0
 22 18  1  0  0  0  0
M  END
>  <minimizedAffinity>
-3.91384768

$$$$

 OpenBabel03242517363D

 22 22  0  0  0  0  0  0  0  0999 V2000
   38.3850   31.2000   40.9160 C   0  0  0  0  0  3  0  0  0  0  0  0
   39.4690   31.8860   41.2690 C   0  0  0  0  0  3  0  0  0  0  0  0
   38.4470   29.5990   42.8510 C   0  0  0  0  0  0  0  0  0  0  0  0
   37.8690   30.0290   41.6350 C   0  0  0  0  0  0  0  0  0  0  0  0
   36.7950   29.3240   41.1210 C   0  0  0  0  0  0  0  0  0  0  0  0
   36.3380   28.2340   41.8190 N   0  0  0  0  0  0  0  0  0  0  0  0
   36.9140   27.8580   42.9690 C   0  0  0  0  0  0  0  0  0  0  0  0
   37.9460   28.5350   43.4630 N   0  0  0  0  0  0  0  0  0  0  0  0
   39.2830   30.1870   43.2060 H   0  0  0  0  0  0  0  0  0  0  0  0
   36.3070   29.6010   40.1950 H   0  0  0  0  0  0  0  0  0  0  0  0
   36.4870   26.9850   43.4530 H   0  0  0  0  0  0  0  0  0  0  0  0
   39.9370   33.0700   40.4890 C   0  0  0  0  0  0  0  0  0  0  0  0
   41.0260   33.2260   40.5800 H   0  0  0  0  0  0  0  0  0  0  0  0
   39.4260   33.9580   40.9120 H   0  0  0  0  0  0  0  0  0  0  0  0
   41.6290   33.3870   38.2680 N   0  0  0  0  0  0  0  0  0  0  0  0
   40.4660   32.8960   38.0850 C   0  0  0  0  0  0  0  0  0  0  0  0
   39.4880   32.9640   39.1150 N   0  0  0  0  0  0  0  0  0  0  0  0
   40.0830   32.2590   36.8520 N   0  0  0  0  0  0  0  0  0  0  0  0
   39.5390   31.3660   36.8480 H   0  0  0  0  0  0  0  0  0  0  0  0
   42.3160   33.3090   37.4710 H   0  0  0  0  0  0  0  0  0  0  0  0
   38.4650   32.9350   38.8500 H   0  0  0  0  0  0  0  0  0  0  0  0
   40.1630   32.3840   35.8370 H   0  0  0  0  0  0  0  0  0  0  0  0
  1  2  2  0  0  0  0
  1  4  1  0  0  0  0
  3  9  1  0  0  0  0
  3  8  1  0  0  0  0
  4  3  2  0  0  0  0
  5  4  1  0  0  0  0
  5  6  2  0  0  0  0
  6  7  1  0  0  0  0
  7 11  1  0  0  0  0
  7  8  2  0  0  0  0
 10  5  1  0  0  0  0
 12 13  1  0  0  0  0
 12 14  1  0  0  0  0
 12  2  1  0  0  0  0
 16 15  2  0  0  0  0
 16 17  1  0  0  0  0
 17 12  1  0  0  0  0
 18 16  1  0  0  0  0
 19 18  1  0  0  0  0
 20 15  1  0  0  0  0
 21 17  1  0  0  0  0
 22 18  1  0  0  0  0
M  END
>  <minimizedAffinity>
-3.89030743

$$$$
