
 OpenBabel03242521213D

 35 37  0  0  0  0  0  0  0  0999 V2000
   47.5180   34.0340   39.9230 C   0  0  0  0  0  0  0  0  0  0  0  0
   48.3290   34.8210   40.6950 C   0  0  0  0  0  0  0  0  0  0  0  0
   47.9210   35.3900   41.8920 C   0  0  0  0  0  0  0  0  0  0  0  0
   46.6240   35.1410   42.3160 C   0  0  0  0  0  0  0  0  0  0  0  0
   45.8320   34.3500   41.5260 C   0  0  0  0  0  0  0  0  0  0  0  0
   46.2150   33.7780   40.3400 C   0  0  0  0  0  0  0  0  0  0  0  0
   49.3520   35.0390   40.3940 H   0  0  0  0  0  0  0  0  0  0  0  0
   48.5980   36.0020   42.4610 H   0  0  0  0  0  0  0  0  0  0  0  0
   46.3080   35.5840   43.2480 H   0  0  0  0  0  0  0  0  0  0  0  0
   44.8380   34.2020   41.9150 H   0  0  0  0  0  0  0  0  0  0  0  0
   49.6530   32.1780   37.5960 C   0  0  0  0  0  0  0  0  0  0  0  0
   49.0360   32.4540   36.4320 C   0  0  0  0  0  0  0  0  0  0  0  0
   47.9160   33.2400   36.3310 C   0  0  0  0  0  0  0  0  0  0  0  0
   47.4420   33.7430   37.4880 N   0  0  0  0  0  0  0  0  0  0  0  0
   48.0560   33.4700   38.6510 C   0  0  0  0  0  0  0  0  0  0  0  0
   49.1540   32.7000   38.7460 N   0  0  0  0  0  0  0  0  0  0  0  0
   49.4470   32.0310   35.5260 H   0  0  0  0  0  0  0  0  0  0  0  0
   47.4260   33.4560   35.3890 H   0  0  0  0  0  0  0  0  0  0  0  0
   53.1750   31.1470   37.8370 C   0  0  0  0  0  0  0  0  0  0  0  0
   53.0780   29.7610   37.7800 C   0  0  0  0  0  0  0  0  0  0  0  0
   51.8210   29.1700   37.6600 C   0  0  0  0  0  0  0  0  0  0  0  0
   50.7260   29.9900   37.6020 N   0  0  0  0  0  0  0  0  0  0  0  0
   50.8480   31.3330   37.6600 C   0  0  0  0  0  0  0  0  0  0  0  0
   52.0460   31.8890   37.7740 N   0  0  0  0  0  0  0  0  0  0  0  0
   54.1580   31.5780   37.9290 H   0  0  0  0  0  0  0  0  0  0  0  0
   53.8980   29.0730   37.8190 H   0  0  0  0  0  0  0  0  0  0  0  0
   51.5930   28.1190   37.6040 H   0  0  0  0  0  0  0  0  0  0  0  0
   43.6120   34.3990   39.2210 N   0  0  0  0  0  0  0  0  0  0  0  0
   44.3610   33.4590   38.6920 C   0  0  0  0  0  0  0  0  0  0  0  0
   45.3720   32.9650   39.5350 N   0  0  0  0  0  0  0  0  0  0  0  0
   44.2290   32.9110   37.3620 N   0  0  0  0  0  0  0  0  0  0  0  0
   44.4460   31.8950   37.2650 H   0  0  0  0  0  0  0  0  0  0  0  0
   42.8490   34.8010   38.6440 H   0  0  0  0  0  0  0  0  0  0  0  0
   45.5200   31.9130   39.5710 H   0  0  0  0  0  0  0  0  0  0  0  0
   43.9210   33.6720   36.6860 H   0  0  0  0  0  0  0  0  0  0  0  0
  1  6  2  0  0  0  0
  1  2  1  0  0  0  0
  2  3  2  0  0  0  0
  3  4  1  0  0  0  0
  3  8  1  0  0  0  0
  4  9  1  0  0  0  0
  5 10  1  0  0  0  0
  5  4  2  0  0  0  0
  6  5  1  0  0  0  0
  7  2  1  0  0  0  0
 11 23  1  0  0  0  0
 11 16  1  0  0  0  0
 12 11  2  0  0  0  0
 13 12  1  0  0  0  0
 13 14  2  0  0  0  0
 14 15  1  0  0  0  0
 15 16  2  0  0  0  0
 15  1  1  0  0  0  0
 17 12  1  0  0  0  0
 18 13  1  0  0  0  0
 19 25  1  0  0  0  0
 20 26  1  0  0  0  0
 20 19  1  0  0  0  0
 21 20  2  0  0  0  0
 22 23  2  0  0  0  0
 22 21  1  0  0  0  0
 23 24  1  0  0  0  0
 24 19  2  0  0  0  0
 27 21  1  0  0  0  0
 29 28  2  0  0  0  0
 29 30  1  0  0  0  0
 30 34  1  0  0  0  0
 30  6  1  0  0  0  0
 31 29  1  0  0  0  0
 32 31  1  0  0  0  0
 33 28  1  0  0  0  0
 35 31  1  0  0  0  0
M  END
>  <minimizedAffinity>
-4.95443678

>  <minimizedRMSD>
8.12793064

$$$$
