
 OpenBabel03242521213D

 35 37  0  0  0  0  0  0  0  0999 V2000
   43.9270   34.7230   41.3070 C   0  0  0  0  0  0  0  0  0  0  0  0
   42.8830   35.3370   41.9430 C   0  0  0  0  0  0  0  0  0  0  0  0
   41.6550   35.5660   41.3400 C   0  0  0  0  0  0  0  0  0  0  0  0
   41.4920   35.1470   40.0280 C   0  0  0  0  0  0  0  0  0  0  0  0
   42.5530   34.5350   39.4140 C   0  0  0  0  0  0  0  0  0  0  0  0
   43.7740   34.2990   39.9910 C   0  0  0  0  0  0  0  0  0  0  0  0
   42.9740   35.6800   42.9720 H   0  0  0  0  0  0  0  0  0  0  0  0
   40.8650   36.0540   41.8840 H   0  0  0  0  0  0  0  0  0  0  0  0
   40.5350   35.3260   39.5610 H   0  0  0  0  0  0  0  0  0  0  0  0
   42.3570   34.2400   38.3960 H   0  0  0  0  0  0  0  0  0  0  0  0
   46.2770   33.8090   43.9660 C   0  0  0  0  0  0  0  0  0  0  0  0
   47.4410   34.1570   43.3870 C   0  0  0  0  0  0  0  0  0  0  0  0
   47.5360   34.6970   42.1290 C   0  0  0  0  0  0  0  0  0  0  0  0
   46.3720   34.8710   41.4730 N   0  0  0  0  0  0  0  0  0  0  0  0
   45.2080   34.5250   42.0480 C   0  0  0  0  0  0  0  0  0  0  0  0
   45.1190   33.9960   43.2810 N   0  0  0  0  0  0  0  0  0  0  0  0
   48.3530   34.0010   43.9460 H   0  0  0  0  0  0  0  0  0  0  0  0
   48.4780   34.9730   41.6720 H   0  0  0  0  0  0  0  0  0  0  0  0
   45.2620   33.2030   47.4480 C   0  0  0  0  0  0  0  0  0  0  0  0
   46.1100   32.1670   47.8240 C   0  0  0  0  0  0  0  0  0  0  0  0
   47.0280   31.6690   46.8990 C   0  0  0  0  0  0  0  0  0  0  0  0
   47.0540   32.2290   45.6510 N   0  0  0  0  0  0  0  0  0  0  0  0
   46.2200   33.2340   45.3120 C   0  0  0  0  0  0  0  0  0  0  0  0
   45.3490   33.7030   46.1950 N   0  0  0  0  0  0  0  0  0  0  0  0
   44.5630   33.5690   48.1810 H   0  0  0  0  0  0  0  0  0  0  0  0
   46.1340   31.6920   48.7830 H   0  0  0  0  0  0  0  0  0  0  0  0
   47.7420   30.8760   47.0460 H   0  0  0  0  0  0  0  0  0  0  0  0
   44.4370   31.4780   39.8560 N   0  0  0  0  0  0  0  0  0  0  0  0
   44.8840   32.3150   38.9480 C   0  0  0  0  0  0  0  0  0  0  0  0
   44.8620   33.6670   39.3310 N   0  0  0  0  0  0  0  0  0  0  0  0
   45.3810   31.9650   37.6390 N   0  0  0  0  0  0  0  0  0  0  0  0
   46.1660   32.5520   37.2780 H   0  0  0  0  0  0  0  0  0  0  0  0
   44.4300   30.4660   39.6300 H   0  0  0  0  0  0  0  0  0  0  0  0
   45.7160   34.2610   39.1080 H   0  0  0  0  0  0  0  0  0  0  0  0
   44.8380   31.1360   37.2530 H   0  0  0  0  0  0  0  0  0  0  0  0
  1  2  1  0  0  0  0
  1 15  1  0  0  0  0
  2  7  1  0  0  0  0
  3  8  1  0  0  0  0
  3  2  2  0  0  0  0
  4  3  1  0  0  0  0
  5  6  1  0  0  0  0
  5  4  2  0  0  0  0
  6  1  2  0  0  0  0
  9  4  1  0  0  0  0
 10  5  1  0  0  0  0
 11 23  1  0  0  0  0
 12 17  1  0  0  0  0
 12 11  1  0  0  0  0
 13 12  2  0  0  0  0
 14 15  2  0  0  0  0
 14 13  1  0  0  0  0
 15 16  1  0  0  0  0
 16 11  2  0  0  0  0
 18 13  1  0  0  0  0
 19 20  1  0  0  0  0
 19 25  1  0  0  0  0
 20 26  1  0  0  0  0
 21 27  1  0  0  0  0
 21 20  2  0  0  0  0
 22 21  1  0  0  0  0
 23 22  2  0  0  0  0
 23 24  1  0  0  0  0
 24 19  2  0  0  0  0
 29 30  1  0  0  0  0
 29 28  2  0  0  0  0
 30  6  1  0  0  0  0
 31 29  1  0  0  0  0
 32 31  1  0  0  0  0
 33 28  1  0  0  0  0
 34 30  1  0  0  0  0
 35 31  1  0  0  0  0
M  END
>  <minimizedAffinity>
-5.20530224

>  <minimizedRMSD>
4.71637011

$$$$
