
 OpenBabel03252500563D

 37 38  0  0  0  0  0  0  0  0999 V2000
   43.8430   33.8930   39.6440 O   0  0  0  0  0  0  0  0  0  0  0  0
   43.2710   34.3680   40.9750 P   0  0  1  0  0  0  0  0  0  0  0  0
   42.8070   33.0210   41.8800 O   0  0  0  0  0  0  0  0  0  0  0  0
   41.8850   33.0400   42.1940 H   0  0  0  0  0  0  0  0  0  0  0  0
   44.4790   35.1860   41.8340 O   0  0  0  0  0  0  0  0  0  0  0  0
   46.5880   34.3240   42.4450 C   0  0  0  0  0  0  0  0  0  0  0  0
   45.2960   34.6410   42.8170 C   0  0  0  0  0  0  0  0  0  0  0  0
   44.9170   34.3920   44.1430 C   0  0  0  0  0  0  0  0  0  0  0  0
   45.8400   33.8570   44.9740 N   0  0  0  0  0  0  0  0  0  0  0  0
   47.0840   33.5580   44.5910 C   0  0  0  0  0  0  0  0  0  0  0  0
   47.4590   33.7920   43.3240 N   0  0  0  0  0  0  0  0  0  0  0  0
   43.9110   34.6590   44.3640 H   0  0  0  0  0  0  0  0  0  0  0  0
   47.7700   33.1290   45.3180 H   0  0  0  0  0  0  0  0  0  0  0  0
   47.0540   34.5560   41.0790 C   0  0  0  0  0  0  0  0  0  0  0  0
   47.1230   33.6270   40.4620 H   0  0  0  0  0  0  0  0  0  0  0  0
   46.3450   35.2240   40.5390 H   0  0  0  0  0  0  0  0  0  0  0  0
   48.4090   35.2070   41.1220 C   0  0  0  0  0  0  0  0  0  0  0  0
   49.0860   34.5290   41.6920 H   0  0  0  0  0  0  0  0  0  0  0  0
   48.8170   35.4150   40.1130 H   0  0  0  0  0  0  0  0  0  0  0  0
   48.3230   36.1350   41.7210 H   0  0  0  0  0  0  0  0  0  0  0  0
   41.8870   35.3160   40.7140 O   0  0  0  0  0  0  0  0  0  0  0  0
   40.7230   34.6800   40.3210 C   0  0  0  0  0  0  0  0  0  0  0  0
   40.2020   34.9940   39.0770 C   0  0  0  0  0  0  0  0  0  0  0  0
   39.0440   34.4160   38.5920 C   0  0  0  0  0  0  0  0  0  0  0  0
   38.4080   33.5110   39.3730 N   0  0  0  0  0  0  0  0  0  0  0  0
   38.9070   33.1990   40.5850 C   0  0  0  0  0  0  0  0  0  0  0  0
   40.0290   33.7780   41.0230 N   0  0  0  0  0  0  0  0  0  0  0  0
   40.6830   35.7060   38.4370 H   0  0  0  0  0  0  0  0  0  0  0  0
   38.6520   34.6670   37.6270 H   0  0  0  0  0  0  0  0  0  0  0  0
   38.4690   30.4890   39.9450 N   0  0  0  0  0  0  0  0  0  0  0  0
   37.7540   31.0010   40.9090 C   0  0  0  0  0  0  0  0  0  0  0  0
   38.2400   32.2370   41.4280 N   0  0  0  0  0  0  0  0  0  0  0  0
   36.5500   30.5020   41.5270 N   0  0  0  0  0  0  0  0  0  0  0  0
   36.5110   30.2050   42.5080 H   0  0  0  0  0  0  0  0  0  0  0  0
   38.2680   29.6080   39.4570 H   0  0  0  0  0  0  0  0  0  0  0  0
   38.1220   32.4820   42.4550 H   0  0  0  0  0  0  0  0  0  0  0  0
   35.7450   30.4900   40.8500 H   0  0  0  0  0  0  0  0  0  0  0  0
  2  1  2  6  0  0  0
  2  5  1  0  0  0  0
  2  3  1  0  0  0  0
  3  4  1  0  0  0  0
  5  7  1  0  0  0  0
  6  7  2  0  0  0  0
  6 11  1  0  0  0  0
  7  8  1  0  0  0  0
  8 12  1  0  0  0  0
  8  9  2  0  0  0  0
 10  9  1  0  0  0  0
 10 13  1  0  0  0  0
 11 10  2  0  0  0  0
 14 17  1  0  0  0  0
 14  6  1  0  0  0  0
 15 14  1  0  0  0  0
 16 14  1  0  0  0  0
 17 18  1  0  0  0  0
 17 20  1  0  0  0  0
 19 17  1  0  0  0  0
 21  2  1  0  0  0  0
 22 21  1  0  0  0  0
 22 27  1  0  0  0  0
 23 22  2  0  0  0  0
 24 23  1  0  0  0  0
 24 25  2  0  0  0  0
 25 26  1  0  0  0  0
 26 27  2  0  0  0  0
 26 32  1  0  0  0  0
 28 23  1  0  0  0  0
 29 24  1  0  0  0  0
 30 31  2  0  0  0  0
 31 32  1  0  0  0  0
 31 33  1  0  0  0  0
 32 36  1  0  0  0  0
 33 34  1  0  0  0  0
 35 30  1  0  0  0  0
 37 33  1  0  0  0  0
M  END
>  <minimizedAffinity>
-6.2889061

>  <minimizedRMSD>
0.760724247

$$$$
