
     RDKit          3D

 24 24  0  0  0  0  0  0  0  0999 V2000
   44.2961   35.7927   44.1905 C   0  0  0  0  0  0  0  0  0  0  0  0
   44.4861   34.9272   43.0912 C   0  0  0  0  0  0  0  0  0  0  0  0
   45.0982   33.7036   43.3032 C   0  0  0  0  0  0  0  0  0  0  0  0
   45.4939   33.3864   44.5779 N   0  0  0  0  0  0  0  0  0  0  0  0
   45.2951   34.2364   45.5953 C   0  0  0  0  0  0  0  0  0  0  0  0
   44.7078   35.4107   45.3923 N   0  0  0  0  0  0  0  0  0  0  0  0
   44.0489   35.3008   41.7399 C   0  0  0  0  0  0  0  0  0  0  0  0
   43.0101   34.7653   41.1071 C   0  0  0  0  0  0  0  0  0  0  0  0
   42.6217   35.1950   39.7315 C   0  0  0  0  0  0  0  0  0  0  0  0
   43.8131   36.7353   43.9681 H   0  0  0  0  0  0  0  0  0  0  0  0
   45.2733   32.9947   42.5028 H   0  0  0  0  0  0  0  0  0  0  0  0
   45.6402   33.9023   46.5687 H   0  0  0  0  0  0  0  0  0  0  0  0
   44.6252   36.0686   41.2383 H   0  0  0  0  0  0  0  0  0  0  0  0
   42.3928   33.9852   41.5675 H   0  0  0  0  0  0  0  0  0  0  0  0
   42.7720   34.3946   38.9852 H   0  0  0  0  0  0  0  0  0  0  0  0
   43.2811   36.0453   39.4596 H   0  0  0  0  0  0  0  0  0  0  0  0
   40.4852   34.0267   38.3293 N   0  0  0  0  0  0  0  0  0  0  0  0
   40.2272   34.9187   39.2039 C   0  0  0  0  0  0  0  0  0  0  0  0
   41.2720   35.7205   39.7406 N   0  0  0  0  0  0  0  0  0  0  0  0
   38.8931   35.1614   39.6888 N   0  0  0  0  0  0  0  0  0  0  0  0
   38.7041   35.3100   40.7059 H   0  0  0  0  0  0  0  0  0  0  0  0
   39.6732   33.4600   37.9642 H   0  0  0  0  0  0  0  0  0  0  0  0
   41.0341   36.6740   40.1296 H   0  0  0  0  0  0  0  0  0  0  0  0
   37.9306   35.2534   39.3471 H   0  0  0  0  0  0  0  0  0  0  0  0
  1  6  2  0
  2  3  2  0
  2  1  1  0
  3  4  1  0
  4  5  2  0
  6  5  1  0
  7  2  1  0
  8  7  2  0
  9  8  1  0
  1 10  1  0
  3 11  1  0
  5 12  1  0
  7 13  1  0
  8 14  1  0
  9 15  1  0
  9 16  1  0
 17 18  2  3
 18 19  1  0
 18 20  1  0
 20 21  1  0
 17 22  1  0
 19 23  1  0
 20 24  1  0
  9 19  1  0
M  ISO  6  10  14  11  14  12  14  15   8  16   8  21   5
M  END
>  <DihAtoms>  (1) 
7,8,18,17

>  <DihDeg>  (1) 
179.99995819019583

$$$$
