REMARK  Name = 
REMARK  3 active torsions:
REMARK  status: ('A' for Active; 'I' for Inactive)
REMARK    1  A    between atoms: C_2  and  C_7
REMARK    2  A    between atoms: C_8  and  C_9
REMARK    3  A    between atoms: C_9  and  N_19
REMARK                            x       y       z     vdW  Elec       q    Type
REMARK                         _______ _______ _______ _____ _____    ______ ____
ROOT
ATOM      1  C   UNL     1      44.049  35.301  41.740  0.00  0.00    +0.000 C 
ATOM      2  C   UNL     1      43.010  34.765  41.107  0.00  0.00    +0.000 C 
ENDROOT
BRANCH   1   4
ATOM      3  C   UNL     1      44.296  35.793  44.191  0.00  0.00    +0.000 A 
ATOM      4  C   UNL     1      44.486  34.927  43.091  0.00  0.00    +0.000 A 
ATOM      5  C   UNL     1      45.098  33.704  43.303  0.00  0.00    +0.000 A 
ATOM      6  N   UNL     1      45.494  33.386  44.578  0.00  0.00    +0.000 NA
ATOM      7  C   UNL     1      45.295  34.236  45.595  0.00  0.00    +0.000 A 
ATOM      8  N   UNL     1      44.708  35.411  45.392  0.00  0.00    +0.000 NA
ATOM      9  H   UNL     1      43.813  36.735  43.968  0.00  0.00    +0.000 HD
ATOM     10  H   UNL     1      45.273  32.995  42.503  0.00  0.00    +0.000 HD
ATOM     11  H   UNL     1      45.640  33.902  46.569  0.00  0.00    +0.000 HD
ENDBRANCH   1   4
BRANCH   2  12
ATOM     12  C   UNL     1      42.622  35.195  39.731  0.00  0.00    +0.000 C 
ATOM     13  H   UNL     1      42.772  34.395  38.985  0.00  0.00    +0.000 HD
ATOM     14  H   UNL     1      43.281  36.045  39.460  0.00  0.00    +0.000 HD
BRANCH  12  17
ATOM     15  N   UNL     1      40.828  34.919  37.587  0.00  0.00    +0.000 NA
ATOM     16  C   UNL     1      40.377  35.312  38.713  0.00  0.00    +0.000 C 
ATOM     17  N   UNL     1      41.272  35.721  39.741  0.00  0.00    +0.000 N 
ATOM     18  N   UNL     1      38.968  35.366  39.005  0.00  0.00    +0.000 N 
ATOM     19  H   UNL     1      38.591  35.033  39.921  0.00  0.00    +0.000 HD
ATOM     20  H   UNL     1      40.120  34.627  36.859  0.00  0.00    +0.000 HD
ATOM     21  H   UNL     1      40.927  36.394  40.479  0.00  0.00    +0.000 HD
ATOM     22  H   UNL     1      38.081  35.653  38.578  0.00  0.00    +0.000 HD
ENDBRANCH  12  17
ENDBRANCH   2  12
TORSDOF 3
