REMARK  Name = 
REMARK  3 active torsions:
REMARK  status: ('A' for Active; 'I' for Inactive)
REMARK    1  A    between atoms: C_1  and  C_11
REMARK    2  A    between atoms: C_5  and  C_13
REMARK    3  A    between atoms: C_18  and  N_30
REMARK                            x       y       z     vdW  Elec       q    Type
REMARK                         _______ _______ _______ _____ _____    ______ ____
ROOT
ATOM      1  C   UNL     1      46.964  34.656  42.203  0.00  0.00    +0.000 A 
ATOM      2  C   UNL     1      46.470  33.938  41.148  0.00  0.00    +0.000 A 
ATOM      3  C   UNL     1      47.066  33.919  39.896  0.00  0.00    +0.000 A 
ATOM      4  C   UNL     1      48.219  34.670  39.718  0.00  0.00    +0.000 A 
ATOM      5  C   UNL     1      48.693  35.380  40.790  0.00  0.00    +0.000 A 
ATOM      6  C   UNL     1      48.120  35.412  42.035  0.00  0.00    +0.000 A 
ATOM      7  H   UNL     1      45.568  33.338  41.250  0.00  0.00    +0.000 HD
ATOM      8  H   UNL     1      46.637  33.338  39.099  0.00  0.00    +0.000 HD
ATOM      9  H   UNL     1      48.681  34.654  38.743  0.00  0.00    +0.000 HD
ATOM     10  H   UNL     1      49.588  35.942  40.579  0.00  0.00    +0.000 HD
ENDROOT
BRANCH   1  15
ATOM     11  C   UNL     1      45.963  33.580  45.559  0.00  0.00    +0.000 A 
ATOM     12  C   UNL     1      45.005  34.487  45.826  0.00  0.00    +0.000 A 
ATOM     13  C   UNL     1      44.632  35.480  44.956  0.00  0.00    +0.000 A 
ATOM     14  N   UNL     1      45.289  35.511  43.780  0.00  0.00    +0.000 NA
ATOM     15  C   UNL     1      46.245  34.607  43.510  0.00  0.00    +0.000 A 
ATOM     16  N   UNL     1      46.608  33.635  44.365  0.00  0.00    +0.000 NA
ATOM     17  H   UNL     1      44.502  34.429  46.781  0.00  0.00    +0.000 HD
ATOM     18  H   UNL     1      43.860  36.206  45.180  0.00  0.00    +0.000 HD
BRANCH  11  23
ATOM     19  C   UNL     1      46.111  30.331  47.275  0.00  0.00    +0.000 A 
ATOM     20  C   UNL     1      47.015  30.583  48.301  0.00  0.00    +0.000 A 
ATOM     21  C   UNL     1      47.578  31.854  48.416  0.00  0.00    +0.000 A 
ATOM     22  N   UNL     1      47.211  32.806  47.504  0.00  0.00    +0.000 NA
ATOM     23  C   UNL     1      46.332  32.535  46.517  0.00  0.00    +0.000 A 
ATOM     24  N   UNL     1      45.800  31.325  46.413  0.00  0.00    +0.000 NA
ATOM     25  H   UNL     1      45.691  29.341  47.209  0.00  0.00    +0.000 HD
ATOM     26  H   UNL     1      47.337  29.879  49.041  0.00  0.00    +0.000 HD
ATOM     27  H   UNL     1      48.286  32.193  49.153  0.00  0.00    +0.000 HD
ENDBRANCH  11  23
ENDBRANCH   1  15
BRANCH   6  30
ATOM     28  N   UNL     1      50.633  36.845  42.257  0.00  0.00    +0.000 NA
ATOM     29  C   UNL     1      49.614  37.158  43.024  0.00  0.00    +0.000 C 
ATOM     30  N   UNL     1      48.628  36.162  43.130  0.00  0.00    +0.000 N 
ATOM     31  N   UNL     1      49.436  38.399  43.741  0.00  0.00    +0.000 N 
ATOM     32  H   UNL     1      48.965  38.324  44.669  0.00  0.00    +0.000 HD
ATOM     33  H   UNL     1      51.392  37.543  42.142  0.00  0.00    +0.000 HD
ATOM     34  H   UNL     1      48.230  35.957  44.096  0.00  0.00    +0.000 HD
ATOM     35  H   UNL     1      49.834  39.206  43.175  0.00  0.00    +0.000 HD
ENDBRANCH   6  30
TORSDOF 3
