
     RDKit          3D

 46 49  0  0  0  0  0  0  0  0999 V2000
   45.7958   30.0571   48.4453 C   0  0  0  0  0  0  0  0  0  0  0  0
   44.9978   27.6575   48.0228 C   0  0  0  0  0  0  0  0  0  0  0  0
   45.0558   29.0010   47.7538 C   0  0  0  0  0  0  0  0  0  0  0  0
   44.3017   29.4426   46.6601 C   0  0  0  0  0  0  0  0  0  0  0  0
   43.5527   28.5842   45.9064 C   0  0  0  0  0  0  0  0  0  0  0  0
   42.7503   28.7240   44.8272 N   0  0  0  0  0  0  0  0  0  0  0  0
   42.2316   27.5407   44.4561 C   0  0  0  0  0  0  0  0  0  0  0  0
   42.6982   26.5637   45.3132 C   0  0  0  0  0  0  0  0  0  0  0  0
   43.5060   27.2500   46.1876 C   0  0  0  0  0  0  0  0  0  0  0  0
   44.2441   26.8046   47.2614 C   0  0  0  0  0  0  0  0  0  0  0  0
   44.2258   25.3796   47.6028 C   0  0  0  0  0  0  0  0  0  0  0  0
   44.9300   24.9203   48.5482 O   0  0  0  0  0  0  0  0  0  0  0  0
   47.1519   30.3775   47.9195 C   0  0  0  0  0  0  0  0  0  0  0  0
   46.5098   32.7110   45.2940 C   0  0  0  0  0  0  0  0  0  0  0  0
   47.2569   31.7139   44.6199 C   0  0  0  0  0  0  0  0  0  0  0  0
   47.5750   30.7496   45.5047 C   0  0  0  0  0  0  0  0  0  0  0  0
   47.0490   31.1290   46.6790 N   0  0  0  0  0  0  0  0  0  0  0  0
   46.4131   32.2963   46.5614 N   0  0  0  0  0  0  0  0  0  0  0  0
   44.5743   35.7515   44.7413 C   0  0  0  0  0  0  0  0  0  0  0  0
   44.9796   36.1898   43.4900 C   0  0  0  0  0  0  0  0  0  0  0  0
   45.9395   35.4141   42.8329 C   0  0  0  0  0  0  0  0  0  0  0  0
   46.3985   34.3086   43.4528 N   0  0  0  0  0  0  0  0  0  0  0  0
   45.9962   33.9035   44.6568 C   0  0  0  0  0  0  0  0  0  0  0  0
   45.0673   34.6469   45.3019 N   0  0  0  0  0  0  0  0  0  0  0  0
   45.8958   29.7659   49.5118 H   0  0  0  0  0  0  0  0  0  0  0  0
   45.2045   31.0144   48.4541 H   0  0  0  0  0  0  0  0  0  0  0  0
   45.5946   27.3528   48.8768 H   0  0  0  0  0  0  0  0  0  0  0  0
   44.2584   30.4751   46.3393 H   0  0  0  0  0  0  0  0  0  0  0  0
   42.5541   29.6296   44.3401 H   0  0  0  0  0  0  0  0  0  0  0  0
   41.5601   27.3993   43.6194 H   0  0  0  0  0  0  0  0  0  0  0  0
   42.4371   25.5131   45.2429 H   0  0  0  0  0  0  0  0  0  0  0  0
   43.6109   24.6772   47.0583 H   0  0  0  0  0  0  0  0  0  0  0  0
   47.6508   31.0171   48.6764 H   0  0  0  0  0  0  0  0  0  0  0  0
   47.7104   29.4556   47.7692 H   0  0  0  0  0  0  0  0  0  0  0  0
   47.5598   31.6714   43.5619 H   0  0  0  0  0  0  0  0  0  0  0  0
   48.1471   29.8302   45.3267 H   0  0  0  0  0  0  0  0  0  0  0  0
   43.8314   36.3667   45.2310 H   0  0  0  0  0  0  0  0  0  0  0  0
   44.6351   37.0696   42.9610 H   0  0  0  0  0  0  0  0  0  0  0  0
   46.4190   33.5939   40.7055 N   0  0  0  0  0  0  0  0  0  0  0  0
   46.3173   34.8635   40.4039 C   0  0  0  0  0  0  0  0  0  0  0  0
   46.4510   35.7461   41.5349 N   0  0  0  0  0  0  0  0  0  0  0  0
   46.0954   35.5106   39.1345 N   0  0  0  0  0  0  0  0  0  0  0  0
   45.3272   35.0069   38.6291 H   0  0  0  0  0  0  0  0  0  0  0  0
   46.3420   32.8343   39.9811 H   0  0  0  0  0  0  0  0  0  0  0  0
   46.9381   36.6876   41.4542 H   0  0  0  0  0  0  0  0  0  0  0  0
   46.7215   36.3477   38.9418 H   0  0  0  0  0  0  0  0  0  0  0  0
  3  2  2  0
  3  1  1  0
  4  3  1  0
  5  9  1  0
  5  4  2  0
  6  5  1  0
  7  6  1  0
  7  8  2  0
  8  9  1  0
  9 10  2  0
 10 11  1  0
 10  2  1  0
 11 12  2  0
 13  1  1  0
 14 18  2  0
 15 14  1  0
 15 16  2  0
 16 17  1  0
 17 13  1  0
 18 17  1  0
 19 24  2  0
 20 19  1  0
 21 22  1  0
 21 20  2  0
 22 23  2  0
 23 14  1  0
 23 24  1  0
  1 25  1  0
  1 26  1  0
  2 27  1  0
  4 28  1  0
  6 29  1  0
  7 30  1  0
  8 31  1  0
 11 32  1  0
 13 33  1  0
 13 34  1  0
 15 35  1  0
 16 36  1  0
 19 37  1  0
 20 38  1  0
 39 40  2  3
 40 41  1  0
 40 42  1  0
 42 43  1  0
 39 44  1  0
 41 45  1  0
 42 46  1  0
 21 41  1  0
M  ISO  8  25   8  26   8  27  14  28  14  29   9  30  14  31  14  32   6
M  ISO  7  33   8  34   8  35  14  36  14  37  14  38  14  43   5
M  END
>  <DihAtoms>  (1) 
21,20,40,39

>  <DihDeg>  (1) 
-0.00010735248191678336

$$$$
