
     RDKit          3D

 37 38  0  0  0  0  0  0  0  0999 V2000
   46.5188   34.3681   42.9979 C   0  0  0  0  0  0  0  0  0  0  0  0
   45.2780   34.7465   43.4707 C   0  0  0  0  0  0  0  0  0  0  0  0
   44.9538   34.4183   44.7940 C   0  0  0  0  0  0  0  0  0  0  0  0
   45.8772   33.7518   45.5238 N   0  0  0  0  0  0  0  0  0  0  0  0
   47.0719   33.3963   45.0441 C   0  0  0  0  0  0  0  0  0  0  0  0
   47.3937   33.7046   43.7792 N   0  0  0  0  0  0  0  0  0  0  0  0
   46.9257   34.6764   41.6280 C   0  0  0  0  0  0  0  0  0  0  0  0
   48.2838   35.3231   41.6492 C   0  0  0  0  0  0  0  0  0  0  0  0
   44.4515   35.4261   42.5841 O   0  0  0  0  0  0  0  0  0  0  0  0
   43.6901   34.8708   40.1376 O   0  0  0  0  0  0  0  0  0  0  0  0
   43.2650   34.7343   41.5947 P   0  0  1  0  0  0  0  0  0  0  0  0
   43.1571   33.0941   41.9791 O   0  0  0  0  0  0  0  0  0  0  0  0
   41.7294   35.4204   41.8258 O   0  0  0  0  0  0  0  0  0  0  0  0
   40.6321   34.7587   41.3044 C   0  0  0  0  0  0  0  0  0  0  0  0
   39.9865   35.3308   40.2209 C   0  0  0  0  0  0  0  0  0  0  0  0
   38.8809   34.7507   39.6255 C   0  0  0  0  0  0  0  0  0  0  0  0
   38.4264   33.5809   40.1334 N   0  0  0  0  0  0  0  0  0  0  0  0
   39.0465   33.0161   41.1866 C   0  0  0  0  0  0  0  0  0  0  0  0
   40.1127   33.6048   41.7370 N   0  0  0  0  0  0  0  0  0  0  0  0
   43.9850   34.7381   45.0948 H   0  0  0  0  0  0  0  0  0  0  0  0
   47.7619   32.8615   45.6925 H   0  0  0  0  0  0  0  0  0  0  0  0
   46.9660   33.7831   40.9571 H   0  0  0  0  0  0  0  0  0  0  0  0
   46.1973   35.3738   41.1576 H   0  0  0  0  0  0  0  0  0  0  0  0
   48.9834   34.6137   42.1499 H   0  0  0  0  0  0  0  0  0  0  0  0
   48.6483   35.5875   40.6360 H   0  0  0  0  0  0  0  0  0  0  0  0
   48.2266   36.2159   42.3017 H   0  0  0  0  0  0  0  0  0  0  0  0
   42.3017   32.8197   42.3587 H   0  0  0  0  0  0  0  0  0  0  0  0
   40.3239   36.2556   39.7983 H   0  0  0  0  0  0  0  0  0  0  0  0
   38.3914   35.2043   38.7879 H   0  0  0  0  0  0  0  0  0  0  0  0
   39.2195   32.2554   43.8951 N   0  0  0  0  0  0  0  0  0  0  0  0
   38.9967   31.3130   43.0203 C   0  0  0  0  0  0  0  0  0  0  0  0
   38.5727   31.7702   41.7373 N   0  0  0  0  0  0  0  0  0  0  0  0
   39.1149   29.8819   43.1570 N   0  0  0  0  0  0  0  0  0  0  0  0
   38.3069   29.2507   43.1035 H   0  0  0  0  0  0  0  0  0  0  0  0
   39.5287   32.1077   44.8619 H   0  0  0  0  0  0  0  0  0  0  0  0
   37.8931   31.2005   41.1519 H   0  0  0  0  0  0  0  0  0  0  0  0
   40.1120   29.5886   43.3135 H   0  0  0  0  0  0  0  0  0  0  0  0
  1  2  2  0
  1  6  1  0
  2  3  1  0
  3  4  2  0
  5  4  1  0
  6  5  2  0
  7  8  1  0
  7  1  1  0
  9  2  1  0
 11 10  2  0
 11 13  1  6
 11 12  1  0
 11  9  1  0
 14 19  1  0
 14 13  1  0
 15 14  2  0
 16 17  2  0
 16 15  1  0
 17 18  1  0
 18 19  2  0
  3 20  1  0
  5 21  1  0
  7 22  1  0
  7 23  1  0
  8 24  1  0
  8 25  1  0
  8 26  1  0
 12 27  1  0
 15 28  1  0
 16 29  1  0
 30 31  2  3
 31 32  1  0
 31 33  1  0
 33 34  1  0
 30 35  1  0
 32 36  1  0
 33 37  1  0
 18 32  1  0
M  ISO  8  20  14  21  14  22   8  23   8  24   8  25   8  26   8  27   3
M  ISO  3  28  14  29  14  34   5
M  END
>  <DihAtoms>  (1) 
16,17,31,30

>  <DihDeg>  (1) 
-179.99981531244137

$$$$
