
     RDKit          3D

 41 43  0  0  0  0  0  0  0  0999 V2000
   45.3859   33.8304   45.5808 C   0  0  0  0  0  0  0  0  0  0  0  0
   44.8121   35.0367   45.8162 C   0  0  0  0  0  0  0  0  0  0  0  0
   44.3381   35.8740   44.8370 C   0  0  0  0  0  0  0  0  0  0  0  0
   44.4740   35.4242   43.5696 N   0  0  0  0  0  0  0  0  0  0  0  0
   45.0366   34.2389   43.3202 C   0  0  0  0  0  0  0  0  0  0  0  0
   45.5008   33.4203   44.2885 N   0  0  0  0  0  0  0  0  0  0  0  0
   45.1775   33.7617   41.9246 C   0  0  0  0  0  0  0  0  0  0  0  0
   44.2012   32.9696   41.3697 C   0  0  0  0  0  0  0  0  0  0  0  0
   44.2367   32.4715   40.0753 C   0  0  0  0  0  0  0  0  0  0  0  0
   45.3405   32.8082   39.3085 C   0  0  0  0  0  0  0  0  0  0  0  0
   46.3105   33.5952   39.8597 C   0  0  0  0  0  0  0  0  0  0  0  0
   46.2695   34.0857   41.1429 C   0  0  0  0  0  0  0  0  0  0  0  0
   47.2269   34.8741   41.7163 O   0  0  0  0  0  0  0  0  0  0  0  0
   49.6371   35.5252   42.4880 O   0  0  0  0  0  0  0  0  0  0  0  0
   48.8822   34.8705   41.3265 P   0  0  0  0  0  0  0  0  0  0  0  0
   49.5100   33.3719   40.9691 O   0  0  0  0  0  0  0  0  0  0  0  0
   49.1048   35.8881   39.9861 O   0  0  0  0  0  0  0  0  0  0  0  0
   45.5792   32.0897   48.7947 C   0  0  0  0  0  0  0  0  0  0  0  0
   46.7738   31.3688   48.6504 C   0  0  0  0  0  0  0  0  0  0  0  0
   47.5023   31.4738   47.4793 C   0  0  0  0  0  0  0  0  0  0  0  0
   47.0168   32.2909   46.4958 N   0  0  0  0  0  0  0  0  0  0  0  0
   45.8728   32.9740   46.6483 C   0  0  0  0  0  0  0  0  0  0  0  0
   45.1667   32.8708   47.7863 N   0  0  0  0  0  0  0  0  0  0  0  0
   44.7347   35.3356   46.8526 H   0  0  0  0  0  0  0  0  0  0  0  0
   43.8816   36.8339   45.0251 H   0  0  0  0  0  0  0  0  0  0  0  0
   43.3219   32.6911   41.9552 H   0  0  0  0  0  0  0  0  0  0  0  0
   43.4693   31.8556   39.6561 H   0  0  0  0  0  0  0  0  0  0  0  0
   45.4901   32.4885   38.2930 H   0  0  0  0  0  0  0  0  0  0  0  0
   47.1939   33.8793   39.2823 H   0  0  0  0  0  0  0  0  0  0  0  0
   49.9644   33.3138   40.1062 H   0  0  0  0  0  0  0  0  0  0  0  0
   49.1182   35.3130   39.1794 H   0  0  0  0  0  0  0  0  0  0  0  0
   44.9675   32.0478   49.6861 H   0  0  0  0  0  0  0  0  0  0  0  0
   47.0900   30.7451   49.4729 H   0  0  0  0  0  0  0  0  0  0  0  0
   50.1842   32.4164   48.1105 N   0  0  0  0  0  0  0  0  0  0  0  0
   49.8636   31.1826   48.0284 C   0  0  0  0  0  0  0  0  0  0  0  0
   48.7037   30.7455   47.3589 N   0  0  0  0  0  0  0  0  0  0  0  0
   50.7412   30.2164   48.6484 N   0  0  0  0  0  0  0  0  0  0  0  0
   51.3797   29.5605   49.1111 H   0  0  0  0  0  0  0  0  0  0  0  0
   49.5825   33.1376   47.6750 H   0  0  0  0  0  0  0  0  0  0  0  0
   48.7426   29.8837   46.7819 H   0  0  0  0  0  0  0  0  0  0  0  0
   51.4215   30.5185   49.3841 H   0  0  0  0  0  0  0  0  0  0  0  0
  1  2  2  0
  1 22  1  0
  3  2  1  0
  4  3  2  0
  5  4  1  0
  5  6  2  0
  6  1  1  0
  7  5  1  0
  8  7  2  0
  9  8  1  0
 10 11  1  0
 10  9  2  0
 11 12  2  0
 12 13  1  0
 12  7  1  0
 15 13  1  0
 15 14  2  0
 16 15  1  0
 17 15  1  0
 19 18  2  0
 20 19  1  0
 21 22  1  0
 21 20  2  0
 22 23  2  0
 23 18  1  0
  2 24  1  0
  3 25  1  0
  8 26  1  0
  9 27  1  0
 10 28  1  0
 11 29  1  0
 16 30  1  0
 17 31  1  0
 18 32  1  0
 19 33  1  0
 34 35  2  3
 35 36  1  0
 35 37  1  0
 37 38  1  0
 34 39  1  0
 36 40  1  0
 37 41  1  0
 20 36  1  0
M  ISO  8  24  14  25  14  26  14  27  14  28  14  29  14  30   3  31   3
M  ISO  3  32  14  33  14  38   5
M  END
>  <DihAtoms>  (1) 
18,19,35,34

>  <DihDeg>  (1) 
179.2268576972785

$$$$
