
 OpenBabel03242521233D

 41 43  0  0  0  0  0  0  0  0999 V2000
   45.3880   33.5800   45.8630 C   0  0  0  0  0  0  0  0  0  0  0  0
   44.8920   34.8190   46.1070 C   0  0  0  0  0  0  0  0  0  0  0  0
   44.5190   35.7100   45.1320 C   0  0  0  0  0  0  0  0  0  0  0  0
   44.6720   35.2810   43.8600 N   0  0  0  0  0  0  0  0  0  0  0  0
   45.1590   34.0640   43.6010 C   0  0  0  0  0  0  0  0  0  0  0  0
   45.5250   33.1920   44.5650 N   0  0  0  0  0  0  0  0  0  0  0  0
   44.7960   35.1000   47.1470 H   0  0  0  0  0  0  0  0  0  0  0  0
   44.1250   36.6960   45.3270 H   0  0  0  0  0  0  0  0  0  0  0  0
   45.2420   31.6250   48.9530 C   0  0  0  0  0  0  0  0  0  0  0  0
   46.4740   30.9550   48.9170 C   0  0  0  0  0  0  0  0  0  0  0  0
   47.3400   31.1650   47.8600 C   0  0  0  0  0  0  0  0  0  0  0  0
   46.9510   32.0330   46.8780 N   0  0  0  0  0  0  0  0  0  0  0  0
   45.7700   32.6670   46.9250 C   0  0  0  0  0  0  0  0  0  0  0  0
   44.9300   32.4610   47.9530 N   0  0  0  0  0  0  0  0  0  0  0  0
   44.5250   31.5000   49.7530 H   0  0  0  0  0  0  0  0  0  0  0  0
   46.7080   30.2850   49.7320 H   0  0  0  0  0  0  0  0  0  0  0  0
   49.7180   31.8440   49.3980 N   0  0  0  0  0  0  0  0  0  0  0  0
   49.5040   30.6930   48.8890 C   0  0  0  0  0  0  0  0  0  0  0  0
   48.5760   30.4850   47.8490 N   0  0  0  0  0  0  0  0  0  0  0  0
   50.2570   29.5760   49.4120 N   0  0  0  0  0  0  0  0  0  0  0  0
   50.7990   28.8040   49.8150 H   0  0  0  0  0  0  0  0  0  0  0  0
   49.2000   32.6700   49.0470 H   0  0  0  0  0  0  0  0  0  0  0  0
   48.8100   29.8290   47.0810 H   0  0  0  0  0  0  0  0  0  0  0  0
   50.7130   29.6410   50.3510 H   0  0  0  0  0  0  0  0  0  0  0  0
   45.3210   33.6100   42.2010 C   0  0  0  0  0  0  0  0  0  0  0  0
   44.3380   32.8530   41.6080 C   0  0  0  0  0  0  0  0  0  0  0  0
   44.3920   32.3780   40.3050 C   0  0  0  0  0  0  0  0  0  0  0  0
   45.5210   32.7020   39.5710 C   0  0  0  0  0  0  0  0  0  0  0  0
   46.4970   33.4540   40.1600 C   0  0  0  0  0  0  0  0  0  0  0  0
   46.4390   33.9210   41.4510 C   0  0  0  0  0  0  0  0  0  0  0  0
   43.4390   32.5850   42.1680 H   0  0  0  0  0  0  0  0  0  0  0  0
   43.6200   31.7900   39.8570 H   0  0  0  0  0  0  0  0  0  0  0  0
   45.6870   32.3980   38.5530 H   0  0  0  0  0  0  0  0  0  0  0  0
   47.4010   33.7260   39.6080 H   0  0  0  0  0  0  0  0  0  0  0  0
   47.4010   34.6740   42.0610 O   0  0  0  0  0  0  0  0  0  0  0  0
   49.8100   35.4440   42.7190 O   0  0  0  0  0  0  0  0  0  0  0  0
   49.0250   34.7980   41.5730 P   0  0  0  0  0  0  0  0  0  0  0  0
   49.7210   33.3630   41.0990 O   0  0  0  0  0  0  0  0  0  0  0  0
   50.1220   33.3770   40.2080 H   0  0  0  0  0  0  0  0  0  0  0  0
   49.0980   35.8920   40.2760 O   0  0  0  0  0  0  0  0  0  0  0  0
   49.0950   35.3590   39.4410 H   0  0  0  0  0  0  0  0  0  0  0  0
  1  2  1  0  0  0  0
  1 13  1  0  0  0  0
  2  7  1  0  0  0  0
  3  8  1  0  0  0  0
  3  2  2  0  0  0  0
  4  3  1  0  0  0  0
  5  4  2  0  0  0  0
  5  6  1  0  0  0  0
  6  1  2  0  0  0  0
  9 15  1  0  0  0  0
 10  9  1  0  0  0  0
 10 16  1  0  0  0  0
 11 10  2  0  0  0  0
 12 13  2  0  0  0  0
 12 11  1  0  0  0  0
 13 14  1  0  0  0  0
 14  9  2  0  0  0  0
 18 17  2  0  0  0  0
 18 20  1  0  0  0  0
 19 11  1  0  0  0  0
 19 18  1  0  0  0  0
 20 21  1  0  0  0  0
 20 24  1  0  0  0  0
 22 17  1  0  0  0  0
 23 19  1  0  0  0  0
 25  5  1  0  0  0  0
 26 31  1  0  0  0  0
 26 25  1  0  0  0  0
 27 26  2  0  0  0  0
 28 29  2  0  0  0  0
 28 27  1  0  0  0  0
 29 30  1  0  0  0  0
 30 35  1  0  0  0  0
 30 25  2  0  0  0  0
 32 27  1  0  0  0  0
 33 28  1  0  0  0  0
 34 29  1  0  0  0  0
 37 35  1  0  0  0  0
 37 36  2  0  0  0  0
 38 37  1  0  0  0  0
 39 38  1  0  0  0  0
 40 37  1  0  0  0  0
 41 40  1  0  0  0  0
M  END
>  <minimizedAffinity>
-6.48375273

>  <minimizedRMSD>
0.467804253

$$$$
