REMARK  Name = 
REMARK  6 active torsions:
REMARK  status: ('A' for Active; 'I' for Inactive)
REMARK    1  A    between atoms: C_1  and  C_3
REMARK    2  A    between atoms: C_1  and  C_13
REMARK    3  A    between atoms: C_10  and  C_11
REMARK    4  A    between atoms: C_13  and  N_17
REMARK    5  A    between atoms: C_14  and  C_23
REMARK    6  A    between atoms: C_21  and  N_41
REMARK                            x       y       z     vdW  Elec       q    Type
REMARK                         _______ _______ _______ _____ _____    ______ ____
ROOT
ATOM      1  C   UNL     1      47.152  30.378  47.919  0.00  0.00    +0.000 C 
ATOM      2  H   UNL     1      47.651  31.017  48.676  0.00  0.00    +0.000 HD
ATOM      3  H   UNL     1      47.710  29.456  47.769  0.00  0.00    +0.000 HD
ENDROOT
BRANCH   1   7
ATOM      4  C   UNL     1      46.510  32.711  45.294  0.00  0.00    +0.000 A 
ATOM      5  C   UNL     1      47.257  31.714  44.620  0.00  0.00    +0.000 A 
ATOM      6  C   UNL     1      47.575  30.750  45.505  0.00  0.00    +0.000 A 
ATOM      7  N   UNL     1      47.049  31.129  46.679  0.00  0.00    +0.000 N 
ATOM      8  N   UNL     1      46.413  32.296  46.561  0.00  0.00    +0.000 NA
ATOM      9  H   UNL     1      47.560  31.671  43.562  0.00  0.00    +0.000 HD
ATOM     10  H   UNL     1      48.147  29.830  45.327  0.00  0.00    +0.000 HD
BRANCH   4  15
ATOM     11  C   UNL     1      44.574  35.752  44.741  0.00  0.00    +0.000 A 
ATOM     12  C   UNL     1      44.980  36.190  43.490  0.00  0.00    +0.000 A 
ATOM     13  C   UNL     1      45.940  35.414  42.833  0.00  0.00    +0.000 A 
ATOM     14  N   UNL     1      46.398  34.309  43.453  0.00  0.00    +0.000 NA
ATOM     15  C   UNL     1      45.996  33.904  44.657  0.00  0.00    +0.000 A 
ATOM     16  N   UNL     1      45.067  34.647  45.302  0.00  0.00    +0.000 NA
ATOM     17  H   UNL     1      43.831  36.367  45.231  0.00  0.00    +0.000 HD
ATOM     18  H   UNL     1      44.635  37.070  42.961  0.00  0.00    +0.000 HD
BRANCH  13  21
ATOM     19  N   UNL     1      47.709  37.552  42.226  0.00  0.00    +0.000 NA
ATOM     20  C   UNL     1      47.611  36.582  41.353  0.00  0.00    +0.000 C 
ATOM     21  N   UNL     1      46.451  35.746  41.535  0.00  0.00    +0.000 N 
ATOM     22  N   UNL     1      48.469  36.221  40.251  0.00  0.00    +0.000 N 
ATOM     23  H   UNL     1      49.465  36.249  40.577  0.00  0.00    +0.000 HD
ATOM     24  H   UNL     1      48.505  38.241  42.216  0.00  0.00    +0.000 HD
ATOM     25  H   UNL     1      45.922  35.337  40.708  0.00  0.00    +0.000 HD
ATOM     26  H   UNL     1      47.964  36.001  39.343  0.00  0.00    +0.000 HD
ENDBRANCH  13  21
ENDBRANCH   4  15
ENDBRANCH   1   7
BRANCH   1  27
ATOM     27  C   UNL     1      45.796  30.057  48.445  0.00  0.00    +0.000 C 
ATOM     28  H   UNL     1      45.896  29.766  49.512  0.00  0.00    +0.000 HD
ATOM     29  H   UNL     1      45.205  31.014  48.454  0.00  0.00    +0.000 HD
BRANCH  27  31
ATOM     30  C   UNL     1      44.998  27.657  48.023  0.00  0.00    +0.000 A 
ATOM     31  C   UNL     1      45.056  29.001  47.754  0.00  0.00    +0.000 A 
ATOM     32  C   UNL     1      44.302  29.443  46.660  0.00  0.00    +0.000 A 
ATOM     33  C   UNL     1      43.553  28.584  45.906  0.00  0.00    +0.000 A 
ATOM     34  N   UNL     1      42.750  28.724  44.827  0.00  0.00    +0.000 N 
ATOM     35  C   UNL     1      42.232  27.541  44.456  0.00  0.00    +0.000 A 
ATOM     36  C   UNL     1      42.698  26.564  45.313  0.00  0.00    +0.000 A 
ATOM     37  C   UNL     1      43.506  27.250  46.188  0.00  0.00    +0.000 A 
ATOM     38  C   UNL     1      44.244  26.805  47.261  0.00  0.00    +0.000 A 
ATOM     39  H   UNL     1      45.595  27.353  48.877  0.00  0.00    +0.000 HD
ATOM     40  H   UNL     1      44.258  30.475  46.339  0.00  0.00    +0.000 HD
ATOM     41  H   UNL     1      42.554  29.630  44.340  0.00  0.00    +0.000 HD
ATOM     42  H   UNL     1      41.560  27.399  43.619  0.00  0.00    +0.000 HD
ATOM     43  H   UNL     1      42.437  25.513  45.243  0.00  0.00    +0.000 HD
BRANCH  38  44
ATOM     44  C   UNL     1      44.226  25.380  47.603  0.00  0.00    +0.000 C 
ATOM     45  O   UNL     1      44.930  24.920  48.548  0.00  0.00    +0.000 OA
ATOM     46  H   UNL     1      43.611  24.677  47.058  0.00  0.00    +0.000 HD
ENDBRANCH  38  44
ENDBRANCH  27  31
ENDBRANCH   1  27
TORSDOF 6
