
 OpenBabel03242517443D

 28 29  0  0  0  0  0  0  0  0999 V2000
   38.7120   28.8980   42.5630 C   0  0  0  0  0  0  0  0  0  0  0  0
   39.3210   27.6620   42.7130 C   0  0  0  0  0  0  0  0  0  0  0  0
   38.5470   26.5140   42.7550 C   0  0  0  0  0  0  0  0  0  0  0  0
   37.1860   26.5680   42.6510 C   0  0  0  0  0  0  0  0  0  0  0  0
   36.5930   27.7940   42.5030 C   0  0  0  0  0  0  0  0  0  0  0  0
   37.3220   28.9840   42.4560 C   0  0  0  0  0  0  0  0  0  0  0  0
   40.3980   27.7000   42.7880 H   0  0  0  0  0  0  0  0  0  0  0  0
   39.1690   25.6370   42.8760 H   0  0  0  0  0  0  0  0  0  0  0  0
   36.6580   25.6270   42.6930 H   0  0  0  0  0  0  0  0  0  0  0  0
   35.5180   27.7810   42.4150 H   0  0  0  0  0  0  0  0  0  0  0  0
   35.3930   29.9490   40.4300 N   0  0  0  0  0  0  0  0  0  0  0  0
   36.1650   30.7180   41.0790 C   0  0  0  0  0  0  0  0  0  0  0  0
   36.6900   30.2400   42.2870 N   0  0  0  0  0  0  0  0  0  0  0  0
   36.4810   32.0370   40.6020 N   0  0  0  0  0  0  0  0  0  0  0  0
   36.7600   31.9980   39.5790 H   0  0  0  0  0  0  0  0  0  0  0  0
   35.0710   29.0080   40.6350 H   0  0  0  0  0  0  0  0  0  0  0  0
   36.6120   30.8860   43.1320 H   0  0  0  0  0  0  0  0  0  0  0  0
   36.3930   32.8220   41.3060 H   0  0  0  0  0  0  0  0  0  0  0  0
   39.6000   30.4300   42.4830 S   0  0  0  0  0  0  0  0  0  0  0  0
   40.1690   32.2450   40.4710 C   0  0  0  0  0  0  0  0  0  0  0  0
   39.8450   30.9150   40.7970 C   0  0  0  0  0  0  0  0  0  0  0  0
   39.7250   29.9990   39.7690 C   0  0  0  0  0  0  0  0  0  0  0  0
   39.9230   30.4210   38.4930 N   0  0  0  0  0  0  0  0  0  0  0  0
   40.2290   31.6920   38.2140 C   0  0  0  0  0  0  0  0  0  0  0  0
   40.3550   32.6060   39.1640 N   0  0  0  0  0  0  0  0  0  0  0  0
   40.2530   32.9300   41.3110 H   0  0  0  0  0  0  0  0  0  0  0  0
   39.4740   28.9780   40.0540 H   0  0  0  0  0  0  0  0  0  0  0  0
   40.3810   31.9930   37.1780 H   0  0  0  0  0  0  0  0  0  0  0  0
  1  2  1  0  0  0  0
  2  3  2  0  0  0  0
  2  7  1  0  0  0  0
  3  8  1  0  0  0  0
  4  9  1  0  0  0  0
  4  3  1  0  0  0  0
  5  4  2  0  0  0  0
  6  5  1  0  0  0  0
  6  1  2  0  0  0  0
 10  5  1  0  0  0  0
 11 16  1  0  0  0  0
 11 12  2  0  0  0  0
 12 13  1  0  0  0  0
 13  6  1  0  0  0  0
 13 17  1  0  0  0  0
 14 12  1  0  0  0  0
 14 18  1  0  0  0  0
 15 14  1  0  0  0  0
 19  1  1  0  0  0  0
 20 21  1  0  0  0  0
 20 26  1  0  0  0  0
 21 19  1  0  0  0  0
 22 27  1  0  0  0  0
 22 21  2  0  0  0  0
 23 22  1  0  0  0  0
 24 23  2  0  0  0  0
 24 25  1  0  0  0  0
 25 20  2  0  0  0  0
 28 24  1  0  0  0  0
M  END
>  <minimizedAffinity>
-5.27289915

$$$$

 OpenBabel03242517443D

 28 29  0  0  0  0  0  0  0  0999 V2000
   38.6010   28.5330   41.4620 C   0  0  0  0  0  0  0  0  0  0  0  0
   39.4070   28.1240   42.5120 C   0  0  0  0  0  0  0  0  0  0  0  0
   38.8420   27.4910   43.6080 C   0  0  0  0  0  0  0  0  0  0  0  0
   37.4980   27.2580   43.6800 C   0  0  0  0  0  0  0  0  0  0  0  0
   36.7090   27.6660   42.6360 C   0  0  0  0  0  0  0  0  0  0  0  0
   37.2240   28.3080   41.5090 C   0  0  0  0  0  0  0  0  0  0  0  0
   40.4570   28.3420   42.3830 H   0  0  0  0  0  0  0  0  0  0  0  0
   39.6000   27.2370   44.3360 H   0  0  0  0  0  0  0  0  0  0  0  0
   37.1380   26.7590   44.5680 H   0  0  0  0  0  0  0  0  0  0  0  0
   35.6580   27.4480   42.7380 H   0  0  0  0  0  0  0  0  0  0  0  0
   35.5310   30.7060   41.1320 N   0  0  0  0  0  0  0  0  0  0  0  0
   35.3200   29.6030   40.5420 C   0  0  0  0  0  0  0  0  0  0  0  0
   36.3930   28.7090   40.4340 N   0  0  0  0  0  0  0  0  0  0  0  0
   34.0300   29.2860   39.9900 N   0  0  0  0  0  0  0  0  0  0  0  0
   33.2690   29.4850   40.7030 H   0  0  0  0  0  0  0  0  0  0  0  0
   36.3750   31.0760   41.5590 H   0  0  0  0  0  0  0  0  0  0  0  0
   36.5780   28.2970   39.4680 H   0  0  0  0  0  0  0  0  0  0  0  0
   34.0230   28.9180   38.9980 H   0  0  0  0  0  0  0  0  0  0  0  0
   39.2150   29.3380   40.0060 S   0  0  0  0  0  0  0  0  0  0  0  0
   38.0780   31.6890   39.0880 C   0  0  0  0  0  0  0  0  0  0  0  0
   38.8750   31.0760   40.0710 C   0  0  0  0  0  0  0  0  0  0  0  0
   39.3860   31.8620   41.0850 C   0  0  0  0  0  0  0  0  0  0  0  0
   39.0970   33.1890   41.0900 N   0  0  0  0  0  0  0  0  0  0  0  0
   38.3360   33.7450   40.1420 C   0  0  0  0  0  0  0  0  0  0  0  0
   37.8240   33.0330   39.1490 N   0  0  0  0  0  0  0  0  0  0  0  0
   37.6980   31.0320   38.3090 H   0  0  0  0  0  0  0  0  0  0  0  0
   39.9990   31.3570   41.8310 H   0  0  0  0  0  0  0  0  0  0  0  0
   38.1250   34.8130   40.1790 H   0  0  0  0  0  0  0  0  0  0  0  0
  1  6  2  0  0  0  0
  1  2  1  0  0  0  0
  2  3  2  0  0  0  0
  3  4  1  0  0  0  0
  3  8  1  0  0  0  0
  4  9  1  0  0  0  0
  5 10  1  0  0  0  0
  5  4  2  0  0  0  0
  6  5  1  0  0  0  0
  7  2  1  0  0  0  0
 11 16  1  0  0  0  0
 12 11  2  0  0  0  0
 13 12  1  0  0  0  0
 13  6  1  0  0  0  0
 14 12  1  0  0  0  0
 14 15  1  0  0  0  0
 17 13  1  0  0  0  0
 18 14  1  0  0  0  0
 19 21  1  0  0  0  0
 19  1  1  0  0  0  0
 20 25  2  0  0  0  0
 20 21  1  0  0  0  0
 21 22  2  0  0  0  0
 22 23  1  0  0  0  0
 22 27  1  0  0  0  0
 24 28  1  0  0  0  0
 24 23  2  0  0  0  0
 25 24  1  0  0  0  0
 26 20  1  0  0  0  0
M  END
>  <minimizedAffinity>
-5.20878696

$$$$

 OpenBabel03242517443D

 28 29  0  0  0  0  0  0  0  0999 V2000
   36.4650   30.3320   39.3460 C   0  0  0  0  0  0  0  0  0  0  0  0
   35.7140   29.4950   38.5360 C   0  0  0  0  0  0  0  0  0  0  0  0
   35.9880   29.4200   37.1800 C   0  0  0  0  0  0  0  0  0  0  0  0
   36.9890   30.1580   36.6150 C   0  0  0  0  0  0  0  0  0  0  0  0
   37.7270   30.9830   37.4240 C   0  0  0  0  0  0  0  0  0  0  0  0
   37.4940   31.0980   38.7960 C   0  0  0  0  0  0  0  0  0  0  0  0
   34.9420   28.9440   39.0540 H   0  0  0  0  0  0  0  0  0  0  0  0
   35.3180   28.7270   36.6910 H   0  0  0  0  0  0  0  0  0  0  0  0
   37.1370   30.0420   35.5520 H   0  0  0  0  0  0  0  0  0  0  0  0
   38.5110   31.5350   36.9310 H   0  0  0  0  0  0  0  0  0  0  0  0
   37.0420   33.8620   39.7520 N   0  0  0  0  0  0  0  0  0  0  0  0
   38.1940   33.3440   39.6350 C   0  0  0  0  0  0  0  0  0  0  0  0
   38.2780   31.9460   39.6160 N   0  0  0  0  0  0  0  0  0  0  0  0
   39.3740   34.1610   39.5380 N   0  0  0  0  0  0  0  0  0  0  0  0
   39.2290   34.9270   38.8190 H   0  0  0  0  0  0  0  0  0  0  0  0
   36.1280   33.4280   39.8400 H   0  0  0  0  0  0  0  0  0  0  0  0
   38.9990   31.5010   40.2640 H   0  0  0  0  0  0  0  0  0  0  0  0
   40.1800   33.8940   40.1700 H   0  0  0  0  0  0  0  0  0  0  0  0
   36.2140   30.4960   41.0930 S   0  0  0  0  0  0  0  0  0  0  0  0
   36.5730   27.9560   42.1350 C   0  0  0  0  0  0  0  0  0  0  0  0
   37.1130   29.2450   41.9680 C   0  0  0  0  0  0  0  0  0  0  0  0
   38.3590   29.5080   42.5040 C   0  0  0  0  0  0  0  0  0  0  0  0
   39.0070   28.5150   43.1650 N   0  0  0  0  0  0  0  0  0  0  0  0
   38.4690   27.2990   43.3080 C   0  0  0  0  0  0  0  0  0  0  0  0
   37.2780   26.9990   42.8130 N   0  0  0  0  0  0  0  0  0  0  0  0
   35.5920   27.7950   41.6970 H   0  0  0  0  0  0  0  0  0  0  0  0
   38.7490   30.5150   42.3580 H   0  0  0  0  0  0  0  0  0  0  0  0
   39.0200   26.5280   43.8450 H   0  0  0  0  0  0  0  0  0  0  0  0
  1 19  1  0  0  0  0
  2  7  1  0  0  0  0
  2  1  2  0  0  0  0
  3  2  1  0  0  0  0
  4  3  2  0  0  0  0
  4  5  1  0  0  0  0
  5  6  2  0  0  0  0
  6  1  1  0  0  0  0
  6 13  1  0  0  0  0
  8  3  1  0  0  0  0
  9  4  1  0  0  0  0
 10  5  1  0  0  0  0
 11 16  1  0  0  0  0
 12 11  2  0  0  0  0
 13 12  1  0  0  0  0
 13 17  1  0  0  0  0
 14 12  1  0  0  0  0
 14 18  1  0  0  0  0
 15 14  1  0  0  0  0
 19 21  1  0  0  0  0
 20 25  1  0  0  0  0
 21 20  2  0  0  0  0
 21 22  1  0  0  0  0
 22 23  2  0  0  0  0
 23 24  1  0  0  0  0
 24 28  1  0  0  0  0
 25 24  2  0  0  0  0
 26 20  1  0  0  0  0
 27 22  1  0  0  0  0
M  END
>  <minimizedAffinity>
-5.19090176

$$$$

 OpenBabel03242517443D

 28 29  0  0  0  0  0  0  0  0999 V2000
   35.8870   29.8910   39.6000 C   0  0  0  0  0  0  0  0  0  0  0  0
   34.6520   29.2630   39.5890 C   0  0  0  0  0  0  0  0  0  0  0  0
   34.1420   28.7660   38.4010 C   0  0  0  0  0  0  0  0  0  0  0  0
   34.8340   28.8790   37.2280 C   0  0  0  0  0  0  0  0  0  0  0  0
   36.0540   29.5010   37.2480 C   0  0  0  0  0  0  0  0  0  0  0  0
   36.6150   30.0210   38.4160 C   0  0  0  0  0  0  0  0  0  0  0  0
   34.1670   29.2120   40.5530 H   0  0  0  0  0  0  0  0  0  0  0  0
   33.1760   28.3090   38.5600 H   0  0  0  0  0  0  0  0  0  0  0  0
   34.3660   28.4650   36.3470 H   0  0  0  0  0  0  0  0  0  0  0  0
   36.5630   29.5550   36.2990 H   0  0  0  0  0  0  0  0  0  0  0  0
   37.3960   32.8680   38.2010 N   0  0  0  0  0  0  0  0  0  0  0  0
   38.1580   31.9090   37.8720 C   0  0  0  0  0  0  0  0  0  0  0  0
   37.8860   30.6480   38.4180 N   0  0  0  0  0  0  0  0  0  0  0  0
   39.2710   32.1100   36.9840 N   0  0  0  0  0  0  0  0  0  0  0  0
   38.9610   32.6560   36.1280 H   0  0  0  0  0  0  0  0  0  0  0  0
   36.5870   32.8890   38.8150 H   0  0  0  0  0  0  0  0  0  0  0  0
   38.7080   30.1260   38.8520 H   0  0  0  0  0  0  0  0  0  0  0  0
   40.1980   31.7040   37.2960 H   0  0  0  0  0  0  0  0  0  0  0  0
   36.6430   30.5510   41.0610 S   0  0  0  0  0  0  0  0  0  0  0  0
   36.7260   28.0730   42.2940 C   0  0  0  0  0  0  0  0  0  0  0  0
   37.4190   29.2600   41.9950 C   0  0  0  0  0  0  0  0  0  0  0  0
   38.7180   29.3930   42.4470 C   0  0  0  0  0  0  0  0  0  0  0  0
   39.2670   28.3750   43.1580 N   0  0  0  0  0  0  0  0  0  0  0  0
   38.5830   27.2570   43.4270 C   0  0  0  0  0  0  0  0  0  0  0  0
   37.3370   27.0840   43.0160 N   0  0  0  0  0  0  0  0  0  0  0  0
   35.7070   28.0140   41.9180 H   0  0  0  0  0  0  0  0  0  0  0  0
   39.2270   30.3230   42.1990 H   0  0  0  0  0  0  0  0  0  0  0  0
   39.0580   26.4620   44.0010 H   0  0  0  0  0  0  0  0  0  0  0  0
  1 19  1  0  0  0  0
  2  1  1  0  0  0  0
  2  7  1  0  0  0  0
  3  8  1  0  0  0  0
  3  2  2  0  0  0  0
  4  5  2  0  0  0  0
  4  3  1  0  0  0  0
  5  6  1  0  0  0  0
  6 13  1  0  0  0  0
  6  1  2  0  0  0  0
  9  4  1  0  0  0  0
 10  5  1  0  0  0  0
 11 16  1  0  0  0  0
 12 11  2  0  0  0  0
 12 13  1  0  0  0  0
 13 17  1  0  0  0  0
 14 18  1  0  0  0  0
 14 12  1  0  0  0  0
 15 14  1  0  0  0  0
 19 21  1  0  0  0  0
 20 25  1  0  0  0  0
 21 20  2  0  0  0  0
 21 22  1  0  0  0  0
 22 23  2  0  0  0  0
 23 24  1  0  0  0  0
 24 28  1  0  0  0  0
 25 24  2  0  0  0  0
 26 20  1  0  0  0  0
 27 22  1  0  0  0  0
M  END
>  <minimizedAffinity>
-5.15810823

$$$$

 OpenBabel03242517443D

 28 29  0  0  0  0  0  0  0  0999 V2000
   36.7900   27.8150   40.2630 C   0  0  0  0  0  0  0  0  0  0  0  0
   36.3790   26.7370   39.4950 C   0  0  0  0  0  0  0  0  0  0  0  0
   36.2970   26.8640   38.1180 C   0  0  0  0  0  0  0  0  0  0  0  0
   36.6150   28.0350   37.4910 C   0  0  0  0  0  0  0  0  0  0  0  0
   37.0210   29.0950   38.2580 C   0  0  0  0  0  0  0  0  0  0  0  0
   37.1210   29.0240   39.6490 C   0  0  0  0  0  0  0  0  0  0  0  0
   36.1450   25.8470   40.0610 H   0  0  0  0  0  0  0  0  0  0  0  0
   35.9620   25.9400   37.6670 H   0  0  0  0  0  0  0  0  0  0  0  0
   36.5240   28.0500   36.4150 H   0  0  0  0  0  0  0  0  0  0  0  0
   37.2710   29.9920   37.7140 H   0  0  0  0  0  0  0  0  0  0  0  0
   35.6200   31.0060   41.2540 N   0  0  0  0  0  0  0  0  0  0  0  0
   36.7660   31.2340   40.7590 C   0  0  0  0  0  0  0  0  0  0  0  0
   37.5570   30.1280   40.4220 N   0  0  0  0  0  0  0  0  0  0  0  0
   37.2420   32.5760   40.5630 N   0  0  0  0  0  0  0  0  0  0  0  0
   36.4990   33.1600   40.0800 H   0  0  0  0  0  0  0  0  0  0  0  0
   35.1510   30.1290   41.4610 H   0  0  0  0  0  0  0  0  0  0  0  0
   38.5660   30.1370   40.7700 H   0  0  0  0  0  0  0  0  0  0  0  0
   38.2200   32.7810   40.9130 H   0  0  0  0  0  0  0  0  0  0  0  0
   36.9460   27.7640   42.0280 S   0  0  0  0  0  0  0  0  0  0  0  0
   39.2390   26.8450   43.2780 C   0  0  0  0  0  0  0  0  0  0  0  0
   38.1060   26.5150   42.5110 C   0  0  0  0  0  0  0  0  0  0  0  0
   37.9230   25.1950   42.1460 C   0  0  0  0  0  0  0  0  0  0  0  0
   38.8410   24.2760   42.5420 N   0  0  0  0  0  0  0  0  0  0  0  0
   39.9090   24.6190   43.2710 C   0  0  0  0  0  0  0  0  0  0  0  0
   40.1280   25.8700   43.6450 N   0  0  0  0  0  0  0  0  0  0  0  0
   39.3410   27.8940   43.5420 H   0  0  0  0  0  0  0  0  0  0  0  0
   37.0370   24.9730   41.5530 H   0  0  0  0  0  0  0  0  0  0  0  0
   40.6240   23.8530   43.5690 H   0  0  0  0  0  0  0  0  0  0  0  0
  1 19  1  0  0  0  0
  2  7  1  0  0  0  0
  2  1  2  0  0  0  0
  3  2  1  0  0  0  0
  4  3  2  0  0  0  0
  4  5  1  0  0  0  0
  5  6  2  0  0  0  0
  6  1  1  0  0  0  0
  6 13  1  0  0  0  0
  8  3  1  0  0  0  0
  9  4  1  0  0  0  0
 10  5  1  0  0  0  0
 11 16  1  0  0  0  0
 12 11  2  0  0  0  0
 13 12  1  0  0  0  0
 13 17  1  0  0  0  0
 14 12  1  0  0  0  0
 14 18  1  0  0  0  0
 15 14  1  0  0  0  0
 19 21  1  0  0  0  0
 20 26  1  0  0  0  0
 20 25  1  0  0  0  0
 21 20  2  0  0  0  0
 22 21  1  0  0  0  0
 22 23  2  0  0  0  0
 23 24  1  0  0  0  0
 24 28  1  0  0  0  0
 24 25  2  0  0  0  0
 27 22  1  0  0  0  0
M  END
>  <minimizedAffinity>
-5.02595425

$$$$

 OpenBabel03242517443D

 28 29  0  0  0  0  0  0  0  0999 V2000
   38.1020   29.7950   42.3730 C   0  0  0  0  0  0  0  0  0  0  0  0
   39.3840   30.3200   42.3680 C   0  0  0  0  0  0  0  0  0  0  0  0
   39.7210   31.3070   41.4550 C   0  0  0  0  0  0  0  0  0  0  0  0
   38.8130   31.7790   40.5510 C   0  0  0  0  0  0  0  0  0  0  0  0
   37.5470   31.2540   40.5630 C   0  0  0  0  0  0  0  0  0  0  0  0
   37.1530   30.2580   41.4590 C   0  0  0  0  0  0  0  0  0  0  0  0
   40.0450   29.8970   43.1110 H   0  0  0  0  0  0  0  0  0  0  0  0
   40.7510   31.6090   41.5800 H   0  0  0  0  0  0  0  0  0  0  0  0
   39.1560   32.5480   39.8740 H   0  0  0  0  0  0  0  0  0  0  0  0
   36.8660   31.6690   39.8370 H   0  0  0  0  0  0  0  0  0  0  0  0
   35.9250   28.0170   39.9670 N   0  0  0  0  0  0  0  0  0  0  0  0
   35.2620   28.9970   40.4240 C   0  0  0  0  0  0  0  0  0  0  0  0
   35.8350   29.7390   41.4650 N   0  0  0  0  0  0  0  0  0  0  0  0
   33.9630   29.3280   39.9030 N   0  0  0  0  0  0  0  0  0  0  0  0
   33.9900   29.3510   38.8430 H   0  0  0  0  0  0  0  0  0  0  0  0
   36.8370   27.6560   40.2310 H   0  0  0  0  0  0  0  0  0  0  0  0
   35.2180   29.9310   42.3130 H   0  0  0  0  0  0  0  0  0  0  0  0
   33.2000   29.4910   40.6190 H   0  0  0  0  0  0  0  0  0  0  0  0
   37.5550   28.5420   43.5020 S   0  0  0  0  0  0  0  0  0  0  0  0
   39.6500   26.7400   43.6790 C   0  0  0  0  0  0  0  0  0  0  0  0
   38.3690   27.0050   43.1620 C   0  0  0  0  0  0  0  0  0  0  0  0
   37.7640   26.0380   42.3830 C   0  0  0  0  0  0  0  0  0  0  0  0
   38.4290   24.8770   42.1520 N   0  0  0  0  0  0  0  0  0  0  0  0
   39.6460   24.6530   42.6570 C   0  0  0  0  0  0  0  0  0  0  0  0
   40.2670   25.5480   43.4090 N   0  0  0  0  0  0  0  0  0  0  0  0
   40.0870   27.5290   44.2860 H   0  0  0  0  0  0  0  0  0  0  0  0
   36.7720   26.2740   41.9970 H   0  0  0  0  0  0  0  0  0  0  0  0
   40.1480   23.7080   42.4500 H   0  0  0  0  0  0  0  0  0  0  0  0
  1 19  1  0  0  0  0
  2  1  1  0  0  0  0
  2  7  1  0  0  0  0
  3  8  1  0  0  0  0
  3  2  2  0  0  0  0
  4  5  2  0  0  0  0
  4  3  1  0  0  0  0
  5  6  1  0  0  0  0
  6 13  1  0  0  0  0
  6  1  2  0  0  0  0
  9  4  1  0  0  0  0
 10  5  1  0  0  0  0
 11 16  1  0  0  0  0
 11 12  2  0  0  0  0
 12 13  1  0  0  0  0
 13 17  1  0  0  0  0
 14 12  1  0  0  0  0
 14 18  1  0  0  0  0
 15 14  1  0  0  0  0
 20 26  1  0  0  0  0
 21 19  1  0  0  0  0
 21 20  2  0  0  0  0
 22 21  1  0  0  0  0
 23 22  2  0  0  0  0
 23 24  1  0  0  0  0
 24 25  2  0  0  0  0
 25 20  1  0  0  0  0
 27 22  1  0  0  0  0
 28 24  1  0  0  0  0
M  END
>  <minimizedAffinity>
-4.9315052

$$$$

 OpenBabel03242517443D

 28 29  0  0  0  0  0  0  0  0999 V2000
   36.8360   31.4210   39.8590 C   0  0  0  0  0  0  0  0  0  0  0  0
   36.2160   30.8140   40.9390 C   0  0  0  0  0  0  0  0  0  0  0  0
   35.6870   29.5410   40.8040 C   0  0  0  0  0  0  0  0  0  0  0  0
   35.7630   28.8610   39.6210 C   0  0  0  0  0  0  0  0  0  0  0  0
   36.3780   29.4690   38.5580 C   0  0  0  0  0  0  0  0  0  0  0  0
   36.9270   30.7500   38.6380 C   0  0  0  0  0  0  0  0  0  0  0  0
   36.1950   31.4130   41.8380 H   0  0  0  0  0  0  0  0  0  0  0  0
   35.2400   29.2110   41.7310 H   0  0  0  0  0  0  0  0  0  0  0  0
   35.3260   27.8740   39.6000 H   0  0  0  0  0  0  0  0  0  0  0  0
   36.4210   28.8860   37.6520 H   0  0  0  0  0  0  0  0  0  0  0  0
   39.4090   30.0400   37.1900 N   0  0  0  0  0  0  0  0  0  0  0  0
   38.9320   31.2150   37.2210 C   0  0  0  0  0  0  0  0  0  0  0  0
   37.5730   31.3550   37.5310 N   0  0  0  0  0  0  0  0  0  0  0  0
   39.7500   32.3620   36.9350 N   0  0  0  0  0  0  0  0  0  0  0  0
   40.6580   32.3080   37.4830 H   0  0  0  0  0  0  0  0  0  0  0  0
   38.9650   29.1410   37.3560 H   0  0  0  0  0  0  0  0  0  0  0  0
   36.9950   31.9760   36.8840 H   0  0  0  0  0  0  0  0  0  0  0  0
   39.3510   33.0630   36.2500 H   0  0  0  0  0  0  0  0  0  0  0  0
   37.5590   33.0380   39.9200 S   0  0  0  0  0  0  0  0  0  0  0  0
   40.1170   34.0450   40.2520 C   0  0  0  0  0  0  0  0  0  0  0  0
   39.2620   32.9370   40.3980 C   0  0  0  0  0  0  0  0  0  0  0  0
   39.7850   31.7710   40.9230 C   0  0  0  0  0  0  0  0  0  0  0  0
   41.0960   31.7440   41.2750 N   0  0  0  0  0  0  0  0  0  0  0  0
   41.8850   32.8140   41.1240 C   0  0  0  0  0  0  0  0  0  0  0  0
   41.4310   33.9530   40.6260 N   0  0  0  0  0  0  0  0  0  0  0  0
   39.6630   34.9400   39.8350 H   0  0  0  0  0  0  0  0  0  0  0  0
   39.0970   30.9320   41.0230 H   0  0  0  0  0  0  0  0  0  0  0  0
   42.9320   32.7540   41.4180 H   0  0  0  0  0  0  0  0  0  0  0  0
  1 19  1  0  0  0  0
  1  2  1  0  0  0  0
  2  7  1  0  0  0  0
  3  2  2  0  0  0  0
  3  8  1  0  0  0  0
  4  3  1  0  0  0  0
  5  6  1  0  0  0  0
  5  4  2  0  0  0  0
  6  1  2  0  0  0  0
  9  4  1  0  0  0  0
 10  5  1  0  0  0  0
 11 12  2  0  0  0  0
 11 16  1  0  0  0  0
 12 13  1  0  0  0  0
 13  6  1  0  0  0  0
 14 12  1  0  0  0  0
 14 15  1  0  0  0  0
 17 13  1  0  0  0  0
 18 14  1  0  0  0  0
 19 21  1  0  0  0  0
 20 21  2  0  0  0  0
 20 25  1  0  0  0  0
 21 22  1  0  0  0  0
 22 27  1  0  0  0  0
 22 23  2  0  0  0  0
 24 23  1  0  0  0  0
 24 28  1  0  0  0  0
 25 24  2  0  0  0  0
 26 20  1  0  0  0  0
M  END
>  <minimizedAffinity>
-4.76602364

$$$$

 OpenBabel03242517443D

 28 29  0  0  0  0  0  0  0  0999 V2000
   36.6030   27.9110   39.1370 C   0  0  0  0  0  0  0  0  0  0  0  0
   35.8950   26.9350   38.4540 C   0  0  0  0  0  0  0  0  0  0  0  0
   34.9060   27.3030   37.5560 C   0  0  0  0  0  0  0  0  0  0  0  0
   34.6080   28.6160   37.3250 C   0  0  0  0  0  0  0  0  0  0  0  0
   35.3130   29.5740   38.0050 C   0  0  0  0  0  0  0  0  0  0  0  0
   36.3200   29.2600   38.9210 C   0  0  0  0  0  0  0  0  0  0  0  0
   36.1870   25.9220   38.6890 H   0  0  0  0  0  0  0  0  0  0  0  0
   34.4500   26.4310   37.1090 H   0  0  0  0  0  0  0  0  0  0  0  0
   33.8230   28.8170   36.6100 H   0  0  0  0  0  0  0  0  0  0  0  0
   35.0470   30.5940   37.7780 H   0  0  0  0  0  0  0  0  0  0  0  0
   35.6900   30.8250   41.3520 N   0  0  0  0  0  0  0  0  0  0  0  0
   36.4830   31.2300   40.4490 C   0  0  0  0  0  0  0  0  0  0  0  0
   37.0470   30.2670   39.6020 N   0  0  0  0  0  0  0  0  0  0  0  0
   36.8020   32.6250   40.3040 N   0  0  0  0  0  0  0  0  0  0  0  0
   35.9140   33.2050   40.3160 H   0  0  0  0  0  0  0  0  0  0  0  0
   35.3770   29.8880   41.5860 H   0  0  0  0  0  0  0  0  0  0  0  0
   38.1030   30.3150   39.4590 H   0  0  0  0  0  0  0  0  0  0  0  0
   37.8300   32.8620   40.2130 H   0  0  0  0  0  0  0  0  0  0  0  0
   37.8970   27.5580   40.2960 S   0  0  0  0  0  0  0  0  0  0  0  0
   39.0420   25.1010   39.7320 C   0  0  0  0  0  0  0  0  0  0  0  0
   38.0920   25.8080   40.4920 C   0  0  0  0  0  0  0  0  0  0  0  0
   37.3170   25.1030   41.3930 C   0  0  0  0  0  0  0  0  0  0  0  0
   37.5050   23.7630   41.5060 N   0  0  0  0  0  0  0  0  0  0  0  0
   38.4160   23.1170   40.7700 C   0  0  0  0  0  0  0  0  0  0  0  0
   39.1820   23.7480   39.8940 N   0  0  0  0  0  0  0  0  0  0  0  0
   39.6290   25.6960   39.0370 H   0  0  0  0  0  0  0  0  0  0  0  0
   36.5910   25.6790   41.9650 H   0  0  0  0  0  0  0  0  0  0  0  0
   38.5390   22.0410   40.8890 H   0  0  0  0  0  0  0  0  0  0  0  0
  1 19  1  0  0  0  0
  2  7  1  0  0  0  0
  2  1  2  0  0  0  0
  3  2  1  0  0  0  0
  4  3  2  0  0  0  0
  4  5  1  0  0  0  0
  5  6  2  0  0  0  0
  6  1  1  0  0  0  0
  6 13  1  0  0  0  0
  8  3  1  0  0  0  0
  9  4  1  0  0  0  0
 10  5  1  0  0  0  0
 11 16  1  0  0  0  0
 12 11  2  0  0  0  0
 13 12  1  0  0  0  0
 14 15  1  0  0  0  0
 14 12  1  0  0  0  0
 17 13  1  0  0  0  0
 18 14  1  0  0  0  0
 19 21  1  0  0  0  0
 20 25  2  0  0  0  0
 20 21  1  0  0  0  0
 21 22  2  0  0  0  0
 22 23  1  0  0  0  0
 22 27  1  0  0  0  0
 24 28  1  0  0  0  0
 24 23  2  0  0  0  0
 25 24  1  0  0  0  0
 26 20  1  0  0  0  0
M  END
>  <minimizedAffinity>
-4.69014931

$$$$

 OpenBabel03242517443D

 28 29  0  0  0  0  0  0  0  0999 V2000
   40.6820   31.4090   39.2100 C   0  0  0  0  0  0  0  0  0  0  0  0
   41.9700   30.9090   39.3170 C   0  0  0  0  0  0  0  0  0  0  0  0
   43.0350   31.7800   39.4780 C   0  0  0  0  0  0  0  0  0  0  0  0
   42.8470   33.1320   39.5350 C   0  0  0  0  0  0  0  0  0  0  0  0
   41.5690   33.6170   39.4280 C   0  0  0  0  0  0  0  0  0  0  0  0
   40.4590   32.7860   39.2640 C   0  0  0  0  0  0  0  0  0  0  0  0
   42.0390   29.8320   39.2630 H   0  0  0  0  0  0  0  0  0  0  0  0
   43.9680   31.2370   39.5450 H   0  0  0  0  0  0  0  0  0  0  0  0
   43.7300   33.7400   39.6610 H   0  0  0  0  0  0  0  0  0  0  0  0
   41.4740   34.6890   39.4900 H   0  0  0  0  0  0  0  0  0  0  0  0
   38.7520   34.1610   41.2520 N   0  0  0  0  0  0  0  0  0  0  0  0
   38.2900   33.5220   40.2580 C   0  0  0  0  0  0  0  0  0  0  0  0
   39.1460   33.3070   39.1700 N   0  0  0  0  0  0  0  0  0  0  0  0
   36.9320   33.0480   40.2410 N   0  0  0  0  0  0  0  0  0  0  0  0
   36.7090   32.5470   41.1490 H   0  0  0  0  0  0  0  0  0  0  0  0
   39.6720   34.5630   41.4100 H   0  0  0  0  0  0  0  0  0  0  0  0
   38.7620   33.5460   38.2040 H   0  0  0  0  0  0  0  0  0  0  0  0
   36.3740   33.2590   39.3660 H   0  0  0  0  0  0  0  0  0  0  0  0
   39.2440   30.3900   39.0160 S   0  0  0  0  0  0  0  0  0  0  0  0
   37.5220   29.0150   40.6920 C   0  0  0  0  0  0  0  0  0  0  0  0
   38.6480   29.8530   40.5960 C   0  0  0  0  0  0  0  0  0  0  0  0
   39.2760   30.2450   41.7620 C   0  0  0  0  0  0  0  0  0  0  0  0
   38.7810   29.8050   42.9480 N   0  0  0  0  0  0  0  0  0  0  0  0
   37.7080   29.0090   43.0090 C   0  0  0  0  0  0  0  0  0  0  0  0
   37.0730   28.6070   41.9190 N   0  0  0  0  0  0  0  0  0  0  0  0
   37.0610   28.7320   39.7490 H   0  0  0  0  0  0  0  0  0  0  0  0
   40.1440   30.8930   41.6540 H   0  0  0  0  0  0  0  0  0  0  0  0
   37.3400   28.6770   43.9790 H   0  0  0  0  0  0  0  0  0  0  0  0
  1  6  2  0  0  0  0
  1  2  1  0  0  0  0
  2  3  2  0  0  0  0
  3  4  1  0  0  0  0
  3  8  1  0  0  0  0
  4  9  1  0  0  0  0
  5 10  1  0  0  0  0
  5  4  2  0  0  0  0
  6  5  1  0  0  0  0
  7  2  1  0  0  0  0
 11 16  1  0  0  0  0
 12 11  2  0  0  0  0
 13  6  1  0  0  0  0
 13 12  1  0  0  0  0
 14 12  1  0  0  0  0
 14 15  1  0  0  0  0
 17 13  1  0  0  0  0
 18 14  1  0  0  0  0
 19  1  1  0  0  0  0
 19 21  1  0  0  0  0
 20 25  1  0  0  0  0
 21 20  2  0  0  0  0
 21 22  1  0  0  0  0
 22 23  2  0  0  0  0
 23 24  1  0  0  0  0
 24 28  1  0  0  0  0
 25 24  2  0  0  0  0
 26 20  1  0  0  0  0
 27 22  1  0  0  0  0
M  END
>  <minimizedAffinity>
-4.68357325

$$$$
