
 OpenBabel03252500573D

 37 38  0  0  0  0  0  0  0  0999 V2000
   43.8780   34.5630   40.0870 O   0  0  0  0  0  0  0  0  0  0  0  0
   43.3910   34.5630   41.5310 P   0  0  1  0  0  0  0  0  0  0  0  0
   43.1780   32.9670   42.0350 O   0  0  0  0  0  0  0  0  0  0  0  0
   42.2950   32.7690   42.3980 H   0  0  0  0  0  0  0  0  0  0  0  0
   44.5770   35.2680   42.5130 O   0  0  0  0  0  0  0  0  0  0  0  0
   46.6740   34.2740   42.9330 C   0  0  0  0  0  0  0  0  0  0  0  0
   45.4140   34.5960   43.3960 C   0  0  0  0  0  0  0  0  0  0  0  0
   45.0840   34.2250   44.7060 C   0  0  0  0  0  0  0  0  0  0  0  0
   46.0200   33.5750   45.4340 N   0  0  0  0  0  0  0  0  0  0  0  0
   47.2330   33.2730   44.9630 C   0  0  0  0  0  0  0  0  0  0  0  0
   47.5620   33.6240   43.7110 N   0  0  0  0  0  0  0  0  0  0  0  0
   44.1000   34.5030   45.0000 H   0  0  0  0  0  0  0  0  0  0  0  0
   47.9330   32.7480   45.6100 H   0  0  0  0  0  0  0  0  0  0  0  0
   47.0890   34.6290   41.5770 C   0  0  0  0  0  0  0  0  0  0  0  0
   47.1890   33.7530   40.8910 H   0  0  0  0  0  0  0  0  0  0  0  0
   46.3320   35.2960   41.1050 H   0  0  0  0  0  0  0  0  0  0  0  0
   48.4100   35.3470   41.6350 C   0  0  0  0  0  0  0  0  0  0  0  0
   49.1370   34.6670   42.1370 H   0  0  0  0  0  0  0  0  0  0  0  0
   48.7770   35.6500   40.6340 H   0  0  0  0  0  0  0  0  0  0  0  0
   48.2930   36.2240   42.3030 H   0  0  0  0  0  0  0  0  0  0  0  0
   41.8880   35.3450   41.6450 O   0  0  0  0  0  0  0  0  0  0  0  0
   40.7650   34.6700   41.2030 C   0  0  0  0  0  0  0  0  0  0  0  0
   39.9350   35.3140   40.3010 C   0  0  0  0  0  0  0  0  0  0  0  0
   38.7880   34.7270   39.7990 C   0  0  0  0  0  0  0  0  0  0  0  0
   38.4790   33.4770   40.2150 N   0  0  0  0  0  0  0  0  0  0  0  0
   39.2790   32.8410   41.0930 C   0  0  0  0  0  0  0  0  0  0  0  0
   40.3810   33.4390   41.5570 N   0  0  0  0  0  0  0  0  0  0  0  0
   40.1540   36.3040   39.9540 H   0  0  0  0  0  0  0  0  0  0  0  0
   38.1550   35.2370   39.1010 H   0  0  0  0  0  0  0  0  0  0  0  0
   40.7710   31.3510   42.9620 N   0  0  0  0  0  0  0  0  0  0  0  0
   39.9280   30.6980   42.2100 C   0  0  0  0  0  0  0  0  0  0  0  0
   38.9620   31.5080   41.5440 N   0  0  0  0  0  0  0  0  0  0  0  0
   39.8280   29.2820   41.9540 N   0  0  0  0  0  0  0  0  0  0  0  0
   39.0230   28.7190   42.2530 H   0  0  0  0  0  0  0  0  0  0  0  0
   41.5290   30.9300   43.5120 H   0  0  0  0  0  0  0  0  0  0  0  0
   37.9790   31.1490   41.3640 H   0  0  0  0  0  0  0  0  0  0  0  0
   40.6680   28.9220   41.4340 H   0  0  0  0  0  0  0  0  0  0  0  0
  2  1  2  6  0  0  0
  2 21  1  0  0  0  0
  2  3  1  0  0  0  0
  2  5  1  0  0  0  0
  3  4  1  0  0  0  0
  5  7  1  0  0  0  0
  6  7  2  0  0  0  0
  6 11  1  0  0  0  0
  7  8  1  0  0  0  0
  8 12  1  0  0  0  0
  8  9  2  0  0  0  0
 10  9  1  0  0  0  0
 10 13  1  0  0  0  0
 11 10  2  0  0  0  0
 14 17  1  0  0  0  0
 14  6  1  0  0  0  0
 15 14  1  0  0  0  0
 16 14  1  0  0  0  0
 17 18  1  0  0  0  0
 17 20  1  0  0  0  0
 19 17  1  0  0  0  0
 22 27  1  0  0  0  0
 22 21  1  0  0  0  0
 23 22  2  0  0  0  0
 24 25  2  0  0  0  0
 24 23  1  0  0  0  0
 25 26  1  0  0  0  0
 26 32  1  0  0  0  0
 26 27  2  0  0  0  0
 28 23  1  0  0  0  0
 29 24  1  0  0  0  0
 30 35  1  0  0  0  0
 31 30  2  0  0  0  0
 32 31  1  0  0  0  0
 33 31  1  0  0  0  0
 33 34  1  0  0  0  0
 36 32  1  0  0  0  0
 37 33  1  0  0  0  0
M  END
>  <minimizedAffinity>
-5.81561804

>  <minimizedRMSD>
0.379306018

$$$$
