
 OpenBabel03242521233D

 41 43  0  0  0  0  0  0  0  0999 V2000
   45.3010   33.8040   45.6740 C   0  0  0  0  0  0  0  0  0  0  0  0
   44.8130   35.0510   45.8960 C   0  0  0  0  0  0  0  0  0  0  0  0
   44.4490   35.9290   44.9050 C   0  0  0  0  0  0  0  0  0  0  0  0
   44.6060   35.4770   43.6410 N   0  0  0  0  0  0  0  0  0  0  0  0
   45.0850   34.2530   43.4040 C   0  0  0  0  0  0  0  0  0  0  0  0
   45.4410   33.3950   44.3830 N   0  0  0  0  0  0  0  0  0  0  0  0
   44.7130   35.3480   46.9310 H   0  0  0  0  0  0  0  0  0  0  0  0
   44.0610   36.9200   45.0820 H   0  0  0  0  0  0  0  0  0  0  0  0
   45.1770   31.9810   48.8450 C   0  0  0  0  0  0  0  0  0  0  0  0
   46.3550   31.2220   48.7760 C   0  0  0  0  0  0  0  0  0  0  0  0
   47.1780   31.3290   47.6700 C   0  0  0  0  0  0  0  0  0  0  0  0
   46.8010   32.1870   46.6740 N   0  0  0  0  0  0  0  0  0  0  0  0
   45.6720   32.9060   46.7530 C   0  0  0  0  0  0  0  0  0  0  0  0
   44.8740   32.8010   47.8280 N   0  0  0  0  0  0  0  0  0  0  0  0
   44.4960   31.9390   49.6840 H   0  0  0  0  0  0  0  0  0  0  0  0
   46.5830   30.5680   49.6040 H   0  0  0  0  0  0  0  0  0  0  0  0
   48.8500   30.5690   49.9300 N   0  0  0  0  0  0  0  0  0  0  0  0
   48.8610   29.9690   48.8020 C   0  0  0  0  0  0  0  0  0  0  0  0
   48.3610   30.5610   47.6260 N   0  0  0  0  0  0  0  0  0  0  0  0
   49.4190   28.6370   48.7530 N   0  0  0  0  0  0  0  0  0  0  0  0
   49.8090   27.6890   48.7590 H   0  0  0  0  0  0  0  0  0  0  0  0
   48.4630   31.5260   50.0040 H   0  0  0  0  0  0  0  0  0  0  0  0
   48.8670   30.4240   46.7300 H   0  0  0  0  0  0  0  0  0  0  0  0
   49.5170   28.0750   49.6300 H   0  0  0  0  0  0  0  0  0  0  0  0
   45.2500   33.7760   42.0120 C   0  0  0  0  0  0  0  0  0  0  0  0
   44.2570   33.0310   41.4210 C   0  0  0  0  0  0  0  0  0  0  0  0
   44.3130   32.5360   40.1250 C   0  0  0  0  0  0  0  0  0  0  0  0
   45.4550   32.8250   39.3980 C   0  0  0  0  0  0  0  0  0  0  0  0
   46.4410   33.5650   39.9840 C   0  0  0  0  0  0  0  0  0  0  0  0
   46.3810   34.0520   41.2680 C   0  0  0  0  0  0  0  0  0  0  0  0
   43.3470   32.7910   41.9750 H   0  0  0  0  0  0  0  0  0  0  0  0
   43.5320   31.9580   39.6780 H   0  0  0  0  0  0  0  0  0  0  0  0
   45.6240   32.5030   38.3850 H   0  0  0  0  0  0  0  0  0  0  0  0
   47.3560   33.8100   39.4370 H   0  0  0  0  0  0  0  0  0  0  0  0
   47.3540   34.7940   41.8760 O   0  0  0  0  0  0  0  0  0  0  0  0
   49.7700   35.5160   42.5600 O   0  0  0  0  0  0  0  0  0  0  0  0
   48.9910   34.8520   41.4210 P   0  0  0  0  0  0  0  0  0  0  0  0
   49.6530   33.3810   41.0150 O   0  0  0  0  0  0  0  0  0  0  0  0
   50.0730   33.3500   40.1340 H   0  0  0  0  0  0  0  0  0  0  0  0
   49.1240   35.8950   40.0870 O   0  0  0  0  0  0  0  0  0  0  0  0
   49.1240   35.3320   39.2720 H   0  0  0  0  0  0  0  0  0  0  0  0
  1  2  1  0  0  0  0
  1 13  1  0  0  0  0
  2  7  1  0  0  0  0
  3  8  1  0  0  0  0
  3  2  2  0  0  0  0
  4  3  1  0  0  0  0
  5  4  2  0  0  0  0
  5  6  1  0  0  0  0
  6  1  2  0  0  0  0
  9 15  1  0  0  0  0
 10  9  1  0  0  0  0
 10 16  1  0  0  0  0
 11 10  2  0  0  0  0
 12 13  2  0  0  0  0
 12 11  1  0  0  0  0
 13 14  1  0  0  0  0
 14  9  2  0  0  0  0
 17 22  1  0  0  0  0
 18 17  2  0  0  0  0
 19 11  1  0  0  0  0
 19 18  1  0  0  0  0
 20 21  1  0  0  0  0
 20 18  1  0  0  0  0
 20 24  1  0  0  0  0
 23 19  1  0  0  0  0
 25  5  1  0  0  0  0
 26 31  1  0  0  0  0
 26 25  1  0  0  0  0
 27 26  2  0  0  0  0
 28 29  2  0  0  0  0
 28 27  1  0  0  0  0
 29 30  1  0  0  0  0
 30 35  1  0  0  0  0
 30 25  2  0  0  0  0
 32 27  1  0  0  0  0
 33 28  1  0  0  0  0
 34 29  1  0  0  0  0
 37 35  1  0  0  0  0
 37 36  2  0  0  0  0
 38 37  1  0  0  0  0
 39 38  1  0  0  0  0
 40 37  1  0  0  0  0
 41 40  1  0  0  0  0
M  END
>  <minimizedAffinity>
-6.88528395

>  <minimizedRMSD>
0.307047009

$$$$
