
 OpenBabel03242521263D

 41 43  0  0  0  0  0  0  0  0999 V2000
   37.3850   28.5460   41.3240 C   0  0  0  0  0  0  0  0  0  0  0  0
   36.9880   28.5970   42.6210 C   0  0  0  0  0  0  0  0  0  0  0  0
   36.7410   27.4950   43.4010 C   0  0  0  0  0  0  0  0  0  0  0  0
   36.9190   26.3010   42.7940 N   0  0  0  0  0  0  0  0  0  0  0  0
   37.3100   26.2310   41.5190 C   0  0  0  0  0  0  0  0  0  0  0  0
   37.5510   27.3190   40.7570 N   0  0  0  0  0  0  0  0  0  0  0  0
   36.8640   29.5850   43.0440 H   0  0  0  0  0  0  0  0  0  0  0  0
   36.4250   27.5370   44.4320 H   0  0  0  0  0  0  0  0  0  0  0  0
   36.9120   31.8360   39.7940 C   0  0  0  0  0  0  0  0  0  0  0  0
   38.1020   31.9780   39.0640 C   0  0  0  0  0  0  0  0  0  0  0  0
   39.0490   30.9700   39.0920 C   0  0  0  0  0  0  0  0  0  0  0  0
   38.7790   29.8600   39.8420 N   0  0  0  0  0  0  0  0  0  0  0  0
   37.6370   29.7380   40.5350 C   0  0  0  0  0  0  0  0  0  0  0  0
   36.7180   30.7180   40.5070 N   0  0  0  0  0  0  0  0  0  0  0  0
   36.1360   32.5890   39.8100 H   0  0  0  0  0  0  0  0  0  0  0  0
   38.2410   32.8860   38.4960 H   0  0  0  0  0  0  0  0  0  0  0  0
   39.3350   32.3670   36.5520 N   0  0  0  0  0  0  0  0  0  0  0  0
   40.3080   32.1190   37.3420 C   0  0  0  0  0  0  0  0  0  0  0  0
   40.2350   31.1320   38.3450 N   0  0  0  0  0  0  0  0  0  0  0  0
   41.5210   32.8870   37.1780 N   0  0  0  0  0  0  0  0  0  0  0  0
   42.3600   33.4600   37.0420 H   0  0  0  0  0  0  0  0  0  0  0  0
   38.4510   31.8340   36.6360 H   0  0  0  0  0  0  0  0  0  0  0  0
   41.0600   30.5300   38.5300 H   0  0  0  0  0  0  0  0  0  0  0  0
   41.5020   33.7980   36.6640 H   0  0  0  0  0  0  0  0  0  0  0  0
   37.5000   24.9130   40.8700 C   0  0  0  0  0  0  0  0  0  0  0  0
   36.4110   24.2200   40.3950 C   0  0  0  0  0  0  0  0  0  0  0  0
   36.4800   22.9810   39.7740 C   0  0  0  0  0  0  0  0  0  0  0  0
   37.7400   22.4250   39.6320 C   0  0  0  0  0  0  0  0  0  0  0  0
   38.8210   23.1140   40.1030 C   0  0  0  0  0  0  0  0  0  0  0  0
   38.7480   24.3400   40.7180 C   0  0  0  0  0  0  0  0  0  0  0  0
   35.4070   24.6390   40.4960 H   0  0  0  0  0  0  0  0  0  0  0  0
   35.6250   22.4540   39.4080 H   0  0  0  0  0  0  0  0  0  0  0  0
   37.9320   21.4740   39.1690 H   0  0  0  0  0  0  0  0  0  0  0  0
   39.8300   22.7030   40.0070 H   0  0  0  0  0  0  0  0  0  0  0  0
   39.8130   25.0470   41.1980 O   0  0  0  0  0  0  0  0  0  0  0  0
   39.5570   23.9890   43.5730 O   0  0  0  0  0  0  0  0  0  0  0  0
   40.4030   25.0000   42.7920 P   0  0  0  0  0  0  0  0  0  0  0  0
   42.0250   24.6580   42.9250 O   0  0  0  0  0  0  0  0  0  0  0  0
   42.5400   25.3110   43.4360 H   0  0  0  0  0  0  0  0  0  0  0  0
   40.1050   26.5130   43.5030 O   0  0  0  0  0  0  0  0  0  0  0  0
   40.9380   27.0440   43.4230 H   0  0  0  0  0  0  0  0  0  0  0  0
  1  2  1  0  0  0  0
  2  7  1  0  0  0  0
  2  3  2  0  0  0  0
  3  8  1  0  0  0  0
  4  3  1  0  0  0  0
  5  4  2  0  0  0  0
  6  1  2  0  0  0  0
  6  5  1  0  0  0  0
  9 15  1  0  0  0  0
  9 14  1  0  0  0  0
 10 11  1  0  0  0  0
 10  9  2  0  0  0  0
 11 12  2  0  0  0  0
 12 13  1  0  0  0  0
 13  1  1  0  0  0  0
 14 13  2  0  0  0  0
 16 10  1  0  0  0  0
 17 22  1  0  0  0  0
 17 18  2  0  0  0  0
 18 19  1  0  0  0  0
 19 23  1  0  0  0  0
 19 11  1  0  0  0  0
 20 18  1  0  0  0  0
 21 20  1  0  0  0  0
 24 20  1  0  0  0  0
 25  5  1  0  0  0  0
 26 31  1  0  0  0  0
 26 25  2  0  0  0  0
 27 26  1  0  0  0  0
 28 27  2  0  0  0  0
 28 29  1  0  0  0  0
 29 30  2  0  0  0  0
 30 25  1  0  0  0  0
 30 35  1  0  0  0  0
 32 27  1  0  0  0  0
 33 28  1  0  0  0  0
 34 29  1  0  0  0  0
 35 37  1  0  0  0  0
 37 38  1  0  0  0  0
 37 40  1  0  0  0  0
 37 36  2  0  0  0  0
 38 39  1  0  0  0  0
 41 40  1  0  0  0  0
M  END
>  <minimizedAffinity>
-6.85410357

$$$$

 OpenBabel03242521263D

 41 43  0  0  0  0  0  0  0  0999 V2000
   35.5630   28.1530   37.1250 C   0  0  0  0  0  0  0  0  0  0  0  0
   36.6640   28.2760   36.3420 C   0  0  0  0  0  0  0  0  0  0  0  0
   37.8960   27.7530   36.6480 C   0  0  0  0  0  0  0  0  0  0  0  0
   37.9680   27.0810   37.8180 N   0  0  0  0  0  0  0  0  0  0  0  0
   36.8950   26.9510   38.6020 C   0  0  0  0  0  0  0  0  0  0  0  0
   35.6860   27.4670   38.2950 N   0  0  0  0  0  0  0  0  0  0  0  0
   36.5360   28.8260   35.4200 H   0  0  0  0  0  0  0  0  0  0  0  0
   38.7710   27.8510   36.0240 H   0  0  0  0  0  0  0  0  0  0  0  0
   32.8560   29.5540   35.0990 C   0  0  0  0  0  0  0  0  0  0  0  0
   31.8690   29.7800   36.0700 C   0  0  0  0  0  0  0  0  0  0  0  0
   32.1210   29.4610   37.3920 C   0  0  0  0  0  0  0  0  0  0  0  0
   33.3430   28.9320   37.7010 N   0  0  0  0  0  0  0  0  0  0  0  0
   34.2770   28.7210   36.7620 C   0  0  0  0  0  0  0  0  0  0  0  0
   34.0310   29.0310   35.4780 N   0  0  0  0  0  0  0  0  0  0  0  0
   32.7180   29.7830   34.0510 H   0  0  0  0  0  0  0  0  0  0  0  0
   30.9290   30.2020   35.7460 H   0  0  0  0  0  0  0  0  0  0  0  0
   30.1730   31.6270   37.3710 N   0  0  0  0  0  0  0  0  0  0  0  0
   30.0320   30.5480   38.0410 C   0  0  0  0  0  0  0  0  0  0  0  0
   31.1160   29.7040   38.3520 N   0  0  0  0  0  0  0  0  0  0  0  0
   28.7020   30.2040   38.4910 N   0  0  0  0  0  0  0  0  0  0  0  0
   27.7440   29.9840   38.7820 H   0  0  0  0  0  0  0  0  0  0  0  0
   31.1110   31.9090   37.0360 H   0  0  0  0  0  0  0  0  0  0  0  0
   31.1650   29.2610   39.2900 H   0  0  0  0  0  0  0  0  0  0  0  0
   27.8640   30.6340   38.0360 H   0  0  0  0  0  0  0  0  0  0  0  0
   36.9930   26.2110   39.8810 C   0  0  0  0  0  0  0  0  0  0  0  0
   36.6260   24.8870   39.9360 C   0  0  0  0  0  0  0  0  0  0  0  0
   36.6790   24.1050   41.0820 C   0  0  0  0  0  0  0  0  0  0  0  0
   37.1370   24.7210   42.2350 C   0  0  0  0  0  0  0  0  0  0  0  0
   37.5020   26.0350   42.1800 C   0  0  0  0  0  0  0  0  0  0  0  0
   37.4470   26.8050   41.0430 C   0  0  0  0  0  0  0  0  0  0  0  0
   36.2620   24.3800   39.0400 H   0  0  0  0  0  0  0  0  0  0  0  0
   36.3910   23.0760   41.1100 H   0  0  0  0  0  0  0  0  0  0  0  0
   37.2280   24.2290   43.1870 H   0  0  0  0  0  0  0  0  0  0  0  0
   37.8680   26.5510   43.0720 H   0  0  0  0  0  0  0  0  0  0  0  0
   37.8060   28.1200   40.9630 O   0  0  0  0  0  0  0  0  0  0  0  0
   37.6180   30.7220   41.1140 O   0  0  0  0  0  0  0  0  0  0  0  0
   36.8780   29.4390   41.5040 P   0  0  0  0  0  0  0  0  0  0  0  0
   35.3090   29.4580   40.9540 O   0  0  0  0  0  0  0  0  0  0  0  0
   34.6300   29.5180   41.6540 H   0  0  0  0  0  0  0  0  0  0  0  0
   36.8600   29.4020   43.2010 O   0  0  0  0  0  0  0  0  0  0  0  0
   36.0200   28.9540   43.4770 H   0  0  0  0  0  0  0  0  0  0  0  0
  1  6  1  0  0  0  0
  2  3  1  0  0  0  0
  2  1  2  0  0  0  0
  3  4  2  0  0  0  0
  4  5  1  0  0  0  0
  5 25  1  0  0  0  0
  6  5  2  0  0  0  0
  7  2  1  0  0  0  0
  8  3  1  0  0  0  0
  9 14  2  0  0  0  0
  9 10  1  0  0  0  0
 10 11  2  0  0  0  0
 11 12  1  0  0  0  0
 11 19  1  0  0  0  0
 13  1  1  0  0  0  0
 13 12  2  0  0  0  0
 14 13  1  0  0  0  0
 15  9  1  0  0  0  0
 16 10  1  0  0  0  0
 17 18  2  0  0  0  0
 18 19  1  0  0  0  0
 18 20  1  0  0  0  0
 19 23  1  0  0  0  0
 20 21  1  0  0  0  0
 22 17  1  0  0  0  0
 24 20  1  0  0  0  0
 25 26  2  0  0  0  0
 25 30  1  0  0  0  0
 26 27  1  0  0  0  0
 27 32  1  0  0  0  0
 27 28  2  0  0  0  0
 28 33  1  0  0  0  0
 29 28  1  0  0  0  0
 29 34  1  0  0  0  0
 30 29  2  0  0  0  0
 31 26  1  0  0  0  0
 35 30  1  0  0  0  0
 35 37  1  0  0  0  0
 36 37  2  0  0  0  0
 37 40  1  0  0  0  0
 38 37  1  0  0  0  0
 38 39  1  0  0  0  0
 40 41  1  0  0  0  0
M  END
>  <minimizedAffinity>
-6.59599066

$$$$

 OpenBabel03242521263D

 41 43  0  0  0  0  0  0  0  0999 V2000
   35.6970   28.1470   37.6330 C   0  0  0  0  0  0  0  0  0  0  0  0
   36.6730   27.6260   36.8470 C   0  0  0  0  0  0  0  0  0  0  0  0
   37.8690   27.1430   37.3140 C   0  0  0  0  0  0  0  0  0  0  0  0
   38.0430   27.2130   38.6530 N   0  0  0  0  0  0  0  0  0  0  0  0
   37.0930   27.7230   39.4410 C   0  0  0  0  0  0  0  0  0  0  0  0
   35.9180   28.1960   38.9750 N   0  0  0  0  0  0  0  0  0  0  0  0
   36.4690   27.6000   35.7850 H   0  0  0  0  0  0  0  0  0  0  0  0
   38.6450   26.7290   36.6890 H   0  0  0  0  0  0  0  0  0  0  0  0
   33.1770   29.2850   35.2340 C   0  0  0  0  0  0  0  0  0  0  0  0
   32.0970   29.5730   36.0820 C   0  0  0  0  0  0  0  0  0  0  0  0
   32.2230   29.3850   37.4460 C   0  0  0  0  0  0  0  0  0  0  0  0
   33.4180   28.9170   37.9180 N   0  0  0  0  0  0  0  0  0  0  0  0
   34.4430   28.6460   37.0960 C   0  0  0  0  0  0  0  0  0  0  0  0
   34.3180   28.8290   35.7720 N   0  0  0  0  0  0  0  0  0  0  0  0
   33.1380   29.4130   34.1620 H   0  0  0  0  0  0  0  0  0  0  0  0
   31.1860   29.9390   35.6310 H   0  0  0  0  0  0  0  0  0  0  0  0
   30.2510   31.4880   37.0350 N   0  0  0  0  0  0  0  0  0  0  0  0
   30.0630   30.4720   37.7870 C   0  0  0  0  0  0  0  0  0  0  0  0
   31.1250   29.6880   38.2780 N   0  0  0  0  0  0  0  0  0  0  0  0
   28.7020   30.1360   38.1380 N   0  0  0  0  0  0  0  0  0  0  0  0
   27.7230   29.9200   38.3560 H   0  0  0  0  0  0  0  0  0  0  0  0
   31.2120   31.7620   36.7660 H   0  0  0  0  0  0  0  0  0  0  0  0
   31.0910   29.3350   39.2540 H   0  0  0  0  0  0  0  0  0  0  0  0
   27.9050   30.5010   37.5670 H   0  0  0  0  0  0  0  0  0  0  0  0
   37.3010   27.7920   40.9060 C   0  0  0  0  0  0  0  0  0  0  0  0
   36.9900   26.7090   41.6930 C   0  0  0  0  0  0  0  0  0  0  0  0
   37.1460   26.6700   43.0720 C   0  0  0  0  0  0  0  0  0  0  0  0
   37.6510   27.8110   43.6730 C   0  0  0  0  0  0  0  0  0  0  0  0
   37.9590   28.8870   42.8920 C   0  0  0  0  0  0  0  0  0  0  0  0
   37.8030   28.9200   41.5270 C   0  0  0  0  0  0  0  0  0  0  0  0
   36.5910   25.7980   41.2420 H   0  0  0  0  0  0  0  0  0  0  0  0
   36.9010   25.8200   43.6720 H   0  0  0  0  0  0  0  0  0  0  0  0
   37.8210   27.9120   44.7310 H   0  0  0  0  0  0  0  0  0  0  0  0
   38.3600   29.8030   43.3350 H   0  0  0  0  0  0  0  0  0  0  0  0
   38.1040   29.9830   40.7240 O   0  0  0  0  0  0  0  0  0  0  0  0
   37.7490   32.5720   40.7290 O   0  0  0  0  0  0  0  0  0  0  0  0
   37.0560   31.2640   40.3360 P   0  0  0  0  0  0  0  0  0  0  0  0
   36.5580   31.3000   38.7490 O   0  0  0  0  0  0  0  0  0  0  0  0
   35.5890   31.3180   38.6240 H   0  0  0  0  0  0  0  0  0  0  0  0
   35.6870   31.1380   41.3330 O   0  0  0  0  0  0  0  0  0  0  0  0
   34.9850   30.6700   40.8120 H   0  0  0  0  0  0  0  0  0  0  0  0
  1  6  1  0  0  0  0
  2  3  1  0  0  0  0
  2  1  2  0  0  0  0
  3  4  2  0  0  0  0
  4  5  1  0  0  0  0
  5 25  1  0  0  0  0
  6  5  2  0  0  0  0
  7  2  1  0  0  0  0
  8  3  1  0  0  0  0
  9 14  2  0  0  0  0
  9 10  1  0  0  0  0
 10 11  2  0  0  0  0
 11 12  1  0  0  0  0
 11 19  1  0  0  0  0
 13  1  1  0  0  0  0
 13 12  2  0  0  0  0
 14 13  1  0  0  0  0
 15  9  1  0  0  0  0
 16 10  1  0  0  0  0
 17 18  2  0  0  0  0
 18 20  1  0  0  0  0
 18 19  1  0  0  0  0
 19 23  1  0  0  0  0
 20 21  1  0  0  0  0
 22 17  1  0  0  0  0
 24 20  1  0  0  0  0
 25 30  2  0  0  0  0
 25 26  1  0  0  0  0
 26 27  2  0  0  0  0
 27 32  1  0  0  0  0
 27 28  1  0  0  0  0
 28 33  1  0  0  0  0
 29 34  1  0  0  0  0
 29 28  2  0  0  0  0
 30 29  1  0  0  0  0
 31 26  1  0  0  0  0
 35 30  1  0  0  0  0
 37 35  1  0  0  0  0
 37 36  2  0  0  0  0
 37 40  1  0  0  0  0
 38 37  1  0  0  0  0
 39 38  1  0  0  0  0
 41 40  1  0  0  0  0
M  END
>  <minimizedAffinity>
-6.58352566

$$$$

 OpenBabel03242521263D

 41 43  0  0  0  0  0  0  0  0999 V2000
   37.4500   29.7410   38.6420 C   0  0  0  0  0  0  0  0  0  0  0  0
   36.2720   29.9860   38.0160 C   0  0  0  0  0  0  0  0  0  0  0  0
   35.2410   29.0840   37.9230 C   0  0  0  0  0  0  0  0  0  0  0  0
   35.4610   27.8860   38.5090 N   0  0  0  0  0  0  0  0  0  0  0  0
   36.6150   27.6270   39.1290 C   0  0  0  0  0  0  0  0  0  0  0  0
   37.6250   28.5190   39.2170 N   0  0  0  0  0  0  0  0  0  0  0  0
   36.1620   30.9650   37.5690 H   0  0  0  0  0  0  0  0  0  0  0  0
   34.3040   29.2800   37.4250 H   0  0  0  0  0  0  0  0  0  0  0  0
   39.3890   32.6520   39.7200 C   0  0  0  0  0  0  0  0  0  0  0  0
   40.5070   32.5710   38.8750 C   0  0  0  0  0  0  0  0  0  0  0  0
   40.5980   31.5440   37.9530 C   0  0  0  0  0  0  0  0  0  0  0  0
   39.5770   30.6360   37.9050 N   0  0  0  0  0  0  0  0  0  0  0  0
   38.5150   30.7250   38.7190 C   0  0  0  0  0  0  0  0  0  0  0  0
   38.4280   31.7240   39.6140 N   0  0  0  0  0  0  0  0  0  0  0  0
   39.2630   33.4310   40.4590 H   0  0  0  0  0  0  0  0  0  0  0  0
   41.2710   33.3270   38.9750 H   0  0  0  0  0  0  0  0  0  0  0  0
   42.1000   33.8030   36.8940 N   0  0  0  0  0  0  0  0  0  0  0  0
   42.5610   32.6130   36.9700 C   0  0  0  0  0  0  0  0  0  0  0  0
   41.7270   31.4870   37.1100 N   0  0  0  0  0  0  0  0  0  0  0  0
   43.9950   32.4410   36.9030 N   0  0  0  0  0  0  0  0  0  0  0  0
   45.0160   32.3580   36.8660 H   0  0  0  0  0  0  0  0  0  0  0  0
   41.0790   33.9650   36.9340 H   0  0  0  0  0  0  0  0  0  0  0  0
   41.9530   30.6170   36.5900 H   0  0  0  0  0  0  0  0  0  0  0  0
   44.6320   33.2470   37.0980 H   0  0  0  0  0  0  0  0  0  0  0  0
   36.8390   26.3080   39.7650 C   0  0  0  0  0  0  0  0  0  0  0  0
   36.9790   25.1860   38.9830 C   0  0  0  0  0  0  0  0  0  0  0  0
   37.1910   23.9070   39.4780 C   0  0  0  0  0  0  0  0  0  0  0  0
   37.2630   23.7760   40.8540 C   0  0  0  0  0  0  0  0  0  0  0  0
   37.1240   24.8910   41.6310 C   0  0  0  0  0  0  0  0  0  0  0  0
   36.9140   26.1560   41.1360 C   0  0  0  0  0  0  0  0  0  0  0  0
   36.9260   25.2650   37.8950 H   0  0  0  0  0  0  0  0  0  0  0  0
   37.2990   23.0420   38.8580 H   0  0  0  0  0  0  0  0  0  0  0  0
   37.4240   22.8440   41.3650 H   0  0  0  0  0  0  0  0  0  0  0  0
   37.1750   24.8220   42.7210 H   0  0  0  0  0  0  0  0  0  0  0  0
   36.7710   27.2840   41.8910 O   0  0  0  0  0  0  0  0  0  0  0  0
   38.6670   27.0990   43.6800 O   0  0  0  0  0  0  0  0  0  0  0  0
   38.0190   28.0950   42.7130 P   0  0  0  0  0  0  0  0  0  0  0  0
   39.1570   28.8040   41.7270 O   0  0  0  0  0  0  0  0  0  0  0  0
   39.3030   29.7560   41.8890 H   0  0  0  0  0  0  0  0  0  0  0  0
   37.3120   29.2980   43.6800 O   0  0  0  0  0  0  0  0  0  0  0  0
   37.3620   30.1490   43.1740 H   0  0  0  0  0  0  0  0  0  0  0  0
  1 13  1  0  0  0  0
  1  6  1  0  0  0  0
  2  1  2  0  0  0  0
  3  2  1  0  0  0  0
  3  4  2  0  0  0  0
  4  5  1  0  0  0  0
  5  6  2  0  0  0  0
  5 25  1  0  0  0  0
  7  2  1  0  0  0  0
  8  3  1  0  0  0  0
  9 15  1  0  0  0  0
 10 16  1  0  0  0  0
 10  9  2  0  0  0  0
 11 10  1  0  0  0  0
 12 11  2  0  0  0  0
 12 13  1  0  0  0  0
 13 14  2  0  0  0  0
 14  9  1  0  0  0  0
 17 22  1  0  0  0  0
 17 18  2  0  0  0  0
 18 19  1  0  0  0  0
 19 11  1  0  0  0  0
 20 18  1  0  0  0  0
 20 24  1  0  0  0  0
 21 20  1  0  0  0  0
 23 19  1  0  0  0  0
 25 30  1  0  0  0  0
 26 27  1  0  0  0  0
 26 25  2  0  0  0  0
 27 28  2  0  0  0  0
 28 33  1  0  0  0  0
 28 29  1  0  0  0  0
 29 34  1  0  0  0  0
 30 29  2  0  0  0  0
 30 35  1  0  0  0  0
 31 26  1  0  0  0  0
 32 27  1  0  0  0  0
 35 37  1  0  0  0  0
 37 36  2  0  0  0  0
 37 40  1  0  0  0  0
 38 39  1  0  0  0  0
 38 37  1  0  0  0  0
 41 40  1  0  0  0  0
M  END
>  <minimizedAffinity>
-6.57404566

$$$$

 OpenBabel03242521263D

 41 43  0  0  0  0  0  0  0  0999 V2000
   39.0450   30.5010   41.0110 C   0  0  0  0  0  0  0  0  0  0  0  0
   39.0410   30.2590   42.3460 C   0  0  0  0  0  0  0  0  0  0  0  0
   38.4020   29.1990   42.9400 C   0  0  0  0  0  0  0  0  0  0  0  0
   37.7470   28.3690   42.0990 N   0  0  0  0  0  0  0  0  0  0  0  0
   37.7390   28.5920   40.7830 C   0  0  0  0  0  0  0  0  0  0  0  0
   38.3710   29.6360   40.2050 N   0  0  0  0  0  0  0  0  0  0  0  0
   39.5850   30.9630   42.9620 H   0  0  0  0  0  0  0  0  0  0  0  0
   38.3990   29.0080   44.0020 H   0  0  0  0  0  0  0  0  0  0  0  0
   39.8960   33.9520   40.1380 C   0  0  0  0  0  0  0  0  0  0  0  0
   41.0290   33.7640   39.3320 C   0  0  0  0  0  0  0  0  0  0  0  0
   41.4940   32.4850   39.0880 C   0  0  0  0  0  0  0  0  0  0  0  0
   40.8180   31.4400   39.6540 N   0  0  0  0  0  0  0  0  0  0  0  0
   39.7370   31.6350   40.4230 C   0  0  0  0  0  0  0  0  0  0  0  0
   39.2860   32.8780   40.6590 N   0  0  0  0  0  0  0  0  0  0  0  0
   39.4860   34.9270   40.3640 H   0  0  0  0  0  0  0  0  0  0  0  0
   41.5070   34.6410   38.9210 H   0  0  0  0  0  0  0  0  0  0  0  0
   42.2630   34.1410   36.8190 N   0  0  0  0  0  0  0  0  0  0  0  0
   43.0720   33.3810   37.4530 C   0  0  0  0  0  0  0  0  0  0  0  0
   42.6310   32.3210   38.2690 N   0  0  0  0  0  0  0  0  0  0  0  0
   44.4870   33.6350   37.3090 N   0  0  0  0  0  0  0  0  0  0  0  0
   45.4830   33.8530   37.1940 H   0  0  0  0  0  0  0  0  0  0  0  0
   41.2430   33.9870   36.8940 H   0  0  0  0  0  0  0  0  0  0  0  0
   43.1510   31.4220   38.2630 H   0  0  0  0  0  0  0  0  0  0  0  0
   44.8240   34.5650   36.9680 H   0  0  0  0  0  0  0  0  0  0  0  0
   37.0150   27.6720   39.8760 C   0  0  0  0  0  0  0  0  0  0  0  0
   36.0120   28.1540   39.0690 C   0  0  0  0  0  0  0  0  0  0  0  0
   35.2740   27.3770   38.1870 C   0  0  0  0  0  0  0  0  0  0  0  0
   35.5870   26.0300   38.1320 C   0  0  0  0  0  0  0  0  0  0  0  0
   36.5830   25.5510   38.9330 C   0  0  0  0  0  0  0  0  0  0  0  0
   37.3110   26.3240   39.8060 C   0  0  0  0  0  0  0  0  0  0  0  0
   35.7480   29.2130   39.0950 H   0  0  0  0  0  0  0  0  0  0  0  0
   34.4960   27.7660   37.5640 H   0  0  0  0  0  0  0  0  0  0  0  0
   35.0930   25.3200   37.4920 H   0  0  0  0  0  0  0  0  0  0  0  0
   36.8550   24.4920   38.9140 H   0  0  0  0  0  0  0  0  0  0  0  0
   38.3110   25.8690   40.6170 O   0  0  0  0  0  0  0  0  0  0  0  0
   36.7780   24.8730   42.4840 O   0  0  0  0  0  0  0  0  0  0  0  0
   38.1490   24.6850   41.8270 P   0  0  0  0  0  0  0  0  0  0  0  0
   38.3570   23.1200   41.3030 O   0  0  0  0  0  0  0  0  0  0  0  0
   39.0310   22.6110   41.7940 H   0  0  0  0  0  0  0  0  0  0  0  0
   39.2980   25.0130   43.0330 O   0  0  0  0  0  0  0  0  0  0  0  0
   40.0850   24.4370   42.8550 H   0  0  0  0  0  0  0  0  0  0  0  0
  1  2  1  0  0  0  0
  2  3  2  0  0  0  0
  2  7  1  0  0  0  0
  3  8  1  0  0  0  0
  4  3  1  0  0  0  0
  5  4  2  0  0  0  0
  6  5  1  0  0  0  0
  6  1  2  0  0  0  0
  9 15  1  0  0  0  0
  9 14  1  0  0  0  0
 10  9  2  0  0  0  0
 11 10  1  0  0  0  0
 11 12  2  0  0  0  0
 12 13  1  0  0  0  0
 13 14  2  0  0  0  0
 13  1  1  0  0  0  0
 16 10  1  0  0  0  0
 17 22  1  0  0  0  0
 17 18  2  0  0  0  0
 18 19  1  0  0  0  0
 19 11  1  0  0  0  0
 20 18  1  0  0  0  0
 21 20  1  0  0  0  0
 23 19  1  0  0  0  0
 24 20  1  0  0  0  0
 25  5  1  0  0  0  0
 26 31  1  0  0  0  0
 26 25  2  0  0  0  0
 27 26  1  0  0  0  0
 28 27  2  0  0  0  0
 28 29  1  0  0  0  0
 29 30  2  0  0  0  0
 30 25  1  0  0  0  0
 30 35  1  0  0  0  0
 32 27  1  0  0  0  0
 33 28  1  0  0  0  0
 34 29  1  0  0  0  0
 35 37  1  0  0  0  0
 37 36  2  0  0  0  0
 37 40  1  0  0  0  0
 38 39  1  0  0  0  0
 38 37  1  0  0  0  0
 41 40  1  0  0  0  0
M  END
>  <minimizedAffinity>
-6.48483229

$$$$

 OpenBabel03242521263D

 41 43  0  0  0  0  0  0  0  0999 V2000
   39.7070   32.2830   39.1230 C   0  0  0  0  0  0  0  0  0  0  0  0
   39.2570   33.4590   39.6310 C   0  0  0  0  0  0  0  0  0  0  0  0
   37.9430   33.7260   39.9210 C   0  0  0  0  0  0  0  0  0  0  0  0
   37.0750   32.7220   39.6680 N   0  0  0  0  0  0  0  0  0  0  0  0
   37.4990   31.5580   39.1670 C   0  0  0  0  0  0  0  0  0  0  0  0
   38.7940   31.3020   38.8840 N   0  0  0  0  0  0  0  0  0  0  0  0
   40.0050   34.2200   39.8090 H   0  0  0  0  0  0  0  0  0  0  0  0
   37.5860   34.6610   40.3240 H   0  0  0  0  0  0  0  0  0  0  0  0
   43.3420   32.1510   39.5210 C   0  0  0  0  0  0  0  0  0  0  0  0
   43.7360   31.5880   38.2970 C   0  0  0  0  0  0  0  0  0  0  0  0
   42.7810   31.2600   37.3530 C   0  0  0  0  0  0  0  0  0  0  0  0
   41.4710   31.5030   37.6580 N   0  0  0  0  0  0  0  0  0  0  0  0
   41.1090   32.0420   38.8320 C   0  0  0  0  0  0  0  0  0  0  0  0
   42.0380   32.3600   39.7480 N   0  0  0  0  0  0  0  0  0  0  0  0
   44.0430   32.4270   40.2970 H   0  0  0  0  0  0  0  0  0  0  0  0
   44.7910   31.4270   38.1320 H   0  0  0  0  0  0  0  0  0  0  0  0
   45.2540   31.8400   35.9280 N   0  0  0  0  0  0  0  0  0  0  0  0
   44.5520   30.7880   35.7390 C   0  0  0  0  0  0  0  0  0  0  0  0
   43.2010   30.7010   36.1270 N   0  0  0  0  0  0  0  0  0  0  0  0
   45.1880   29.6610   35.0960 N   0  0  0  0  0  0  0  0  0  0  0  0
   45.6760   28.8770   34.6500 H   0  0  0  0  0  0  0  0  0  0  0  0
   44.8320   32.6690   36.3810 H   0  0  0  0  0  0  0  0  0  0  0  0
   42.5220   30.2210   35.5070 H   0  0  0  0  0  0  0  0  0  0  0  0
   46.2320   29.5880   35.0720 H   0  0  0  0  0  0  0  0  0  0  0  0
   36.5330   30.4690   38.8960 C   0  0  0  0  0  0  0  0  0  0  0  0
   36.2130   30.1450   37.5990 C   0  0  0  0  0  0  0  0  0  0  0  0
   35.3210   29.1440   37.2370 C   0  0  0  0  0  0  0  0  0  0  0  0
   34.7290   28.4370   38.2690 C   0  0  0  0  0  0  0  0  0  0  0  0
   35.0470   28.7570   39.5570 C   0  0  0  0  0  0  0  0  0  0  0  0
   35.9300   29.7500   39.9100 C   0  0  0  0  0  0  0  0  0  0  0  0
   36.6670   30.6900   36.7680 H   0  0  0  0  0  0  0  0  0  0  0  0
   35.0820   28.9030   36.2230 H   0  0  0  0  0  0  0  0  0  0  0  0
   34.0230   27.6380   38.1260 H   0  0  0  0  0  0  0  0  0  0  0  0
   34.5970   28.2180   40.3950 H   0  0  0  0  0  0  0  0  0  0  0  0
   36.2650   30.0890   41.1900 O   0  0  0  0  0  0  0  0  0  0  0  0
   37.9030   28.0830   41.5320 O   0  0  0  0  0  0  0  0  0  0  0  0
   37.5920   29.4860   42.0640 P   0  0  0  0  0  0  0  0  0  0  0  0
   38.9440   30.4540   42.0350 O   0  0  0  0  0  0  0  0  0  0  0  0
   39.2940   30.6960   42.9140 H   0  0  0  0  0  0  0  0  0  0  0  0
   37.1040   29.2800   43.6780 O   0  0  0  0  0  0  0  0  0  0  0  0
   37.3960   30.0850   44.1770 H   0  0  0  0  0  0  0  0  0  0  0  0
  1  2  1  0  0  0  0
  2  7  1  0  0  0  0
  2  3  2  0  0  0  0
  3  8  1  0  0  0  0
  4  3  1  0  0  0  0
  5  4  2  0  0  0  0
  6  1  2  0  0  0  0
  6  5  1  0  0  0  0
  9 14  1  0  0  0  0
  9 15  1  0  0  0  0
 10  9  2  0  0  0  0
 11 12  2  0  0  0  0
 11 10  1  0  0  0  0
 12 13  1  0  0  0  0
 13  1  1  0  0  0  0
 13 14  2  0  0  0  0
 16 10  1  0  0  0  0
 17 22  1  0  0  0  0
 18 17  2  0  0  0  0
 18 19  1  0  0  0  0
 19 11  1  0  0  0  0
 20 18  1  0  0  0  0
 21 20  1  0  0  0  0
 23 19  1  0  0  0  0
 24 20  1  0  0  0  0
 25  5  1  0  0  0  0
 25 30  1  0  0  0  0
 26 25  2  0  0  0  0
 27 26  1  0  0  0  0
 27 28  2  0  0  0  0
 28 29  1  0  0  0  0
 29 30  2  0  0  0  0
 29 34  1  0  0  0  0
 30 35  1  0  0  0  0
 31 26  1  0  0  0  0
 32 27  1  0  0  0  0
 33 28  1  0  0  0  0
 35 37  1  0  0  0  0
 36 37  2  0  0  0  0
 37 40  1  0  0  0  0
 38 37  1  0  0  0  0
 38 39  1  0  0  0  0
 40 41  1  0  0  0  0
M  END
>  <minimizedAffinity>
-6.46152401

$$$$

 OpenBabel03242521263D

 41 43  0  0  0  0  0  0  0  0999 V2000
   37.0380   28.2690   41.2480 C   0  0  0  0  0  0  0  0  0  0  0  0
   36.3830   27.7240   42.3040 C   0  0  0  0  0  0  0  0  0  0  0  0
   36.9380   27.5290   43.5440 C   0  0  0  0  0  0  0  0  0  0  0  0
   38.2250   27.9210   43.6750 N   0  0  0  0  0  0  0  0  0  0  0  0
   38.8850   28.4590   42.6460 C   0  0  0  0  0  0  0  0  0  0  0  0
   38.3330   28.6480   41.4280 N   0  0  0  0  0  0  0  0  0  0  0  0
   35.3560   27.4320   42.1300 H   0  0  0  0  0  0  0  0  0  0  0  0
   36.4160   27.0950   44.3830 H   0  0  0  0  0  0  0  0  0  0  0  0
   34.4790   28.9060   38.7110 C   0  0  0  0  0  0  0  0  0  0  0  0
   35.2310   28.8230   37.5290 C   0  0  0  0  0  0  0  0  0  0  0  0
   36.5860   28.5530   37.5950 C   0  0  0  0  0  0  0  0  0  0  0  0
   37.1430   28.3760   38.8310 N   0  0  0  0  0  0  0  0  0  0  0  0
   36.4120   28.4590   39.9520 C   0  0  0  0  0  0  0  0  0  0  0  0
   35.0960   28.7210   39.8860 N   0  0  0  0  0  0  0  0  0  0  0  0
   33.4180   29.1140   38.7220 H   0  0  0  0  0  0  0  0  0  0  0  0
   34.7170   28.9750   36.5920 H   0  0  0  0  0  0  0  0  0  0  0  0
   35.6230   27.5680   35.0280 N   0  0  0  0  0  0  0  0  0  0  0  0
   36.6470   28.3210   35.1640 C   0  0  0  0  0  0  0  0  0  0  0  0
   37.3200   28.4670   36.3930 N   0  0  0  0  0  0  0  0  0  0  0  0
   37.1190   29.0340   33.9990 N   0  0  0  0  0  0  0  0  0  0  0  0
   37.4170   29.5340   33.1550 H   0  0  0  0  0  0  0  0  0  0  0  0
   35.2600   27.0380   35.8390 H   0  0  0  0  0  0  0  0  0  0  0  0
   38.3570   28.5140   36.4050 H   0  0  0  0  0  0  0  0  0  0  0  0
   36.4860   29.1780   33.1780 H   0  0  0  0  0  0  0  0  0  0  0  0
   40.2950   28.8820   42.8070 C   0  0  0  0  0  0  0  0  0  0  0  0
   40.6690   30.1610   42.4670 C   0  0  0  0  0  0  0  0  0  0  0  0
   41.9610   30.6560   42.5790 C   0  0  0  0  0  0  0  0  0  0  0  0
   42.9210   29.7870   43.0700 C   0  0  0  0  0  0  0  0  0  0  0  0
   42.5490   28.5170   43.4080 C   0  0  0  0  0  0  0  0  0  0  0  0
   41.2680   28.0310   43.2950 C   0  0  0  0  0  0  0  0  0  0  0  0
   39.9300   30.8640   42.0780 H   0  0  0  0  0  0  0  0  0  0  0  0
   42.2380   31.6540   42.3110 H   0  0  0  0  0  0  0  0  0  0  0  0
   43.9560   30.0440   43.2070 H   0  0  0  0  0  0  0  0  0  0  0  0
   43.2820   27.8060   43.7980 H   0  0  0  0  0  0  0  0  0  0  0  0
   40.8720   26.7670   43.6260 O   0  0  0  0  0  0  0  0  0  0  0  0
   41.4610   25.5980   41.3650 O   0  0  0  0  0  0  0  0  0  0  0  0
   41.3890   25.3340   42.8720 P   0  0  0  0  0  0  0  0  0  0  0  0
   42.8270   24.7240   43.4460 O   0  0  0  0  0  0  0  0  0  0  0  0
   42.7870   23.7940   43.7430 H   0  0  0  0  0  0  0  0  0  0  0  0
   40.1770   24.1640   43.0880 O   0  0  0  0  0  0  0  0  0  0  0  0
   40.4370   23.6110   43.8690 H   0  0  0  0  0  0  0  0  0  0  0  0
  1  6  2  0  0  0  0
  1  2  1  0  0  0  0
  2  3  2  0  0  0  0
  3  4  1  0  0  0  0
  3  8  1  0  0  0  0
  5 25  1  0  0  0  0
  5  4  2  0  0  0  0
  6  5  1  0  0  0  0
  7  2  1  0  0  0  0
  9 15  1  0  0  0  0
  9 14  1  0  0  0  0
 10 11  1  0  0  0  0
 10  9  2  0  0  0  0
 11 12  2  0  0  0  0
 12 13  1  0  0  0  0
 13  1  1  0  0  0  0
 14 13  2  0  0  0  0
 16 10  1  0  0  0  0
 17 18  2  0  0  0  0
 17 22  1  0  0  0  0
 18 19  1  0  0  0  0
 19 23  1  0  0  0  0
 19 11  1  0  0  0  0
 20 18  1  0  0  0  0
 21 20  1  0  0  0  0
 24 20  1  0  0  0  0
 25 30  1  0  0  0  0
 26 27  1  0  0  0  0
 26 25  2  0  0  0  0
 27 28  2  0  0  0  0
 28 33  1  0  0  0  0
 28 29  1  0  0  0  0
 29 34  1  0  0  0  0
 30 29  2  0  0  0  0
 30 35  1  0  0  0  0
 31 26  1  0  0  0  0
 32 27  1  0  0  0  0
 36 37  2  0  0  0  0
 37 40  1  0  0  0  0
 37 38  1  0  0  0  0
 37 35  1  0  0  0  0
 38 39  1  0  0  0  0
 40 41  1  0  0  0  0
M  END
>  <minimizedAffinity>
-6.35105371

$$$$

 OpenBabel03242521263D

 41 43  0  0  0  0  0  0  0  0999 V2000
   38.2710   30.8200   40.4830 C   0  0  0  0  0  0  0  0  0  0  0  0
   36.9240   30.9830   40.4620 C   0  0  0  0  0  0  0  0  0  0  0  0
   36.0220   30.0380   40.8810 C   0  0  0  0  0  0  0  0  0  0  0  0
   36.5570   28.8830   41.3370 N   0  0  0  0  0  0  0  0  0  0  0  0
   37.8810   28.7050   41.3640 C   0  0  0  0  0  0  0  0  0  0  0  0
   38.7630   29.6400   40.9500 N   0  0  0  0  0  0  0  0  0  0  0  0
   36.5630   31.9310   40.0850 H   0  0  0  0  0  0  0  0  0  0  0  0
   34.9510   30.1680   40.8640 H   0  0  0  0  0  0  0  0  0  0  0  0
   39.7940   34.1100   39.9780 C   0  0  0  0  0  0  0  0  0  0  0  0
   40.9110   33.7820   39.1940 C   0  0  0  0  0  0  0  0  0  0  0  0
   41.1410   32.4650   38.8420 C   0  0  0  0  0  0  0  0  0  0  0  0
   40.2530   31.5220   39.2820 N   0  0  0  0  0  0  0  0  0  0  0  0
   39.1910   31.8490   40.0310 C   0  0  0  0  0  0  0  0  0  0  0  0
   38.9690   33.1290   40.3720 N   0  0  0  0  0  0  0  0  0  0  0  0
   39.5630   35.1200   40.2840 H   0  0  0  0  0  0  0  0  0  0  0  0
   41.5650   34.5850   38.8870 H   0  0  0  0  0  0  0  0  0  0  0  0
   42.3180   34.1400   36.7700 N   0  0  0  0  0  0  0  0  0  0  0  0
   42.9370   33.1860   37.3540 C   0  0  0  0  0  0  0  0  0  0  0  0
   42.2660   32.1600   38.0470 N   0  0  0  0  0  0  0  0  0  0  0  0
   44.3810   33.1770   37.2800 N   0  0  0  0  0  0  0  0  0  0  0  0
   45.4040   33.2100   37.2190 H   0  0  0  0  0  0  0  0  0  0  0  0
   41.2840   34.1770   36.7970 H   0  0  0  0  0  0  0  0  0  0  0  0
   42.6080   31.1830   37.9710 H   0  0  0  0  0  0  0  0  0  0  0  0
   44.9020   34.0520   37.0420 H   0  0  0  0  0  0  0  0  0  0  0  0
   38.4500   27.4340   41.8660 C   0  0  0  0  0  0  0  0  0  0  0  0
   39.0350   27.3890   43.1100 C   0  0  0  0  0  0  0  0  0  0  0  0
   39.5970   26.2510   43.6720 C   0  0  0  0  0  0  0  0  0  0  0  0
   39.5530   25.0950   42.9120 C   0  0  0  0  0  0  0  0  0  0  0  0
   38.9720   25.1390   41.6770 C   0  0  0  0  0  0  0  0  0  0  0  0
   38.4170   26.2690   41.1250 C   0  0  0  0  0  0  0  0  0  0  0  0
   39.0810   28.2880   43.7270 H   0  0  0  0  0  0  0  0  0  0  0  0
   40.0480   26.2310   44.6410 H   0  0  0  0  0  0  0  0  0  0  0  0
   39.9500   24.1470   43.2290 H   0  0  0  0  0  0  0  0  0  0  0  0
   38.9210   24.2440   41.0510 H   0  0  0  0  0  0  0  0  0  0  0  0
   37.8310   26.3380   39.8930 O   0  0  0  0  0  0  0  0  0  0  0  0
   40.1280   26.6910   38.7000 O   0  0  0  0  0  0  0  0  0  0  0  0
   38.6200   26.7200   38.4360 P   0  0  0  0  0  0  0  0  0  0  0  0
   38.2150   25.7480   37.1490 O   0  0  0  0  0  0  0  0  0  0  0  0
   37.9000   26.2270   36.3580 H   0  0  0  0  0  0  0  0  0  0  0  0
   38.2400   28.3280   38.0440 O   0  0  0  0  0  0  0  0  0  0  0  0
   37.4890   28.3050   37.3990 H   0  0  0  0  0  0  0  0  0  0  0  0
  1  6  1  0  0  0  0
  2  1  2  0  0  0  0
  2  3  1  0  0  0  0
  3  4  2  0  0  0  0
  4  5  1  0  0  0  0
  5 25  1  0  0  0  0
  6  5  2  0  0  0  0
  7  2  1  0  0  0  0
  8  3  1  0  0  0  0
  9 15  1  0  0  0  0
  9 14  1  0  0  0  0
 10  9  2  0  0  0  0
 11 10  1  0  0  0  0
 11 12  2  0  0  0  0
 12 13  1  0  0  0  0
 13 14  2  0  0  0  0
 13  1  1  0  0  0  0
 16 10  1  0  0  0  0
 17 22  1  0  0  0  0
 17 18  2  0  0  0  0
 18 19  1  0  0  0  0
 19 11  1  0  0  0  0
 20 18  1  0  0  0  0
 21 20  1  0  0  0  0
 23 19  1  0  0  0  0
 24 20  1  0  0  0  0
 25 26  1  0  0  0  0
 26 27  2  0  0  0  0
 26 31  1  0  0  0  0
 27 32  1  0  0  0  0
 28 33  1  0  0  0  0
 28 27  1  0  0  0  0
 29 28  2  0  0  0  0
 30 29  1  0  0  0  0
 30 25  2  0  0  0  0
 34 29  1  0  0  0  0
 35 30  1  0  0  0  0
 37 36  2  0  0  0  0
 37 35  1  0  0  0  0
 38 37  1  0  0  0  0
 39 38  1  0  0  0  0
 40 37  1  0  0  0  0
 41 40  1  0  0  0  0
M  END
>  <minimizedAffinity>
-6.10857058

$$$$

 OpenBabel03242521263D

 41 43  0  0  0  0  0  0  0  0999 V2000
   37.2380   28.3930   40.8270 C   0  0  0  0  0  0  0  0  0  0  0  0
   36.4830   27.9890   41.8800 C   0  0  0  0  0  0  0  0  0  0  0  0
   36.8940   28.0290   43.1890 C   0  0  0  0  0  0  0  0  0  0  0  0
   38.1400   28.5100   43.3940 N   0  0  0  0  0  0  0  0  0  0  0  0
   38.8970   28.9110   42.3700 C   0  0  0  0  0  0  0  0  0  0  0  0
   38.4870   28.8700   41.0840 N   0  0  0  0  0  0  0  0  0  0  0  0
   35.4960   27.6140   41.6450 H   0  0  0  0  0  0  0  0  0  0  0  0
   36.2930   27.7070   44.0260 H   0  0  0  0  0  0  0  0  0  0  0  0
   35.4550   27.2670   37.8360 C   0  0  0  0  0  0  0  0  0  0  0  0
   35.8640   28.2220   36.8920 C   0  0  0  0  0  0  0  0  0  0  0  0
   36.7320   29.2310   37.2680 C   0  0  0  0  0  0  0  0  0  0  0  0
   37.1620   29.2540   38.5650 N   0  0  0  0  0  0  0  0  0  0  0  0
   36.7630   28.3350   39.4560 C   0  0  0  0  0  0  0  0  0  0  0  0
   35.9200   27.3560   39.0900 N   0  0  0  0  0  0  0  0  0  0  0  0
   34.7790   26.4570   37.6020 H   0  0  0  0  0  0  0  0  0  0  0  0
   35.4790   28.1350   35.8870 H   0  0  0  0  0  0  0  0  0  0  0  0
   37.1270   28.7530   34.4210 N   0  0  0  0  0  0  0  0  0  0  0  0
   36.9370   29.9100   34.9300 C   0  0  0  0  0  0  0  0  0  0  0  0
   37.1340   30.1750   36.3000 N   0  0  0  0  0  0  0  0  0  0  0  0
   36.5100   30.9720   34.0480 N   0  0  0  0  0  0  0  0  0  0  0  0
   36.1950   31.6980   33.3960 H   0  0  0  0  0  0  0  0  0  0  0  0
   37.4370   27.9690   35.0210 H   0  0  0  0  0  0  0  0  0  0  0  0
   37.5740   31.0700   36.5880 H   0  0  0  0  0  0  0  0  0  0  0  0
   36.0790   30.7460   33.1220 H   0  0  0  0  0  0  0  0  0  0  0  0
   40.2610   29.4360   42.6130 C   0  0  0  0  0  0  0  0  0  0  0  0
   41.2830   28.5690   42.9190 C   0  0  0  0  0  0  0  0  0  0  0  0
   42.5930   28.9570   43.1650 C   0  0  0  0  0  0  0  0  0  0  0  0
   42.8650   30.3120   43.0900 C   0  0  0  0  0  0  0  0  0  0  0  0
   41.8500   31.1730   42.7860 C   0  0  0  0  0  0  0  0  0  0  0  0
   40.5540   30.7840   42.5440 C   0  0  0  0  0  0  0  0  0  0  0  0
   41.0930   27.4950   42.9830 H   0  0  0  0  0  0  0  0  0  0  0  0
   43.3790   28.2710   43.4010 H   0  0  0  0  0  0  0  0  0  0  0  0
   43.8360   30.7430   43.2570 H   0  0  0  0  0  0  0  0  0  0  0  0
   42.0310   32.2490   42.7200 H   0  0  0  0  0  0  0  0  0  0  0  0
   39.5230   31.6250   42.2390 O   0  0  0  0  0  0  0  0  0  0  0  0
   40.7020   32.9900   40.3490 O   0  0  0  0  0  0  0  0  0  0  0  0
   39.3270   32.4670   40.7750 P   0  0  0  0  0  0  0  0  0  0  0  0
   38.6120   31.5900   39.5570 O   0  0  0  0  0  0  0  0  0  0  0  0
   37.8230   32.0080   39.1600 H   0  0  0  0  0  0  0  0  0  0  0  0
   38.3760   33.8400   41.0870 O   0  0  0  0  0  0  0  0  0  0  0  0
   37.4420   33.6110   40.8490 H   0  0  0  0  0  0  0  0  0  0  0  0
  1  6  2  0  0  0  0
  1  2  1  0  0  0  0
  2  3  2  0  0  0  0
  3  4  1  0  0  0  0
  3  8  1  0  0  0  0
  5 25  1  0  0  0  0
  5  4  2  0  0  0  0
  6  5  1  0  0  0  0
  7  2  1  0  0  0  0
  9 14  1  0  0  0  0
 10 11  1  0  0  0  0
 10  9  2  0  0  0  0
 11 12  2  0  0  0  0
 12 13  1  0  0  0  0
 13  1  1  0  0  0  0
 14 13  2  0  0  0  0
 15  9  1  0  0  0  0
 16 10  1  0  0  0  0
 17 18  2  0  0  0  0
 17 22  1  0  0  0  0
 18 19  1  0  0  0  0
 19 23  1  0  0  0  0
 19 11  1  0  0  0  0
 20 18  1  0  0  0  0
 21 20  1  0  0  0  0
 24 20  1  0  0  0  0
 25 26  1  0  0  0  0
 26 31  1  0  0  0  0
 26 27  2  0  0  0  0
 27 32  1  0  0  0  0
 28 27  1  0  0  0  0
 28 33  1  0  0  0  0
 29 28  2  0  0  0  0
 30 25  2  0  0  0  0
 30 29  1  0  0  0  0
 34 29  1  0  0  0  0
 35 30  1  0  0  0  0
 36 37  2  0  0  0  0
 37 40  1  0  0  0  0
 37 35  1  0  0  0  0
 38 37  1  0  0  0  0
 39 38  1  0  0  0  0
 41 40  1  0  0  0  0
M  END
>  <minimizedAffinity>
-6.08842182

$$$$
