
 OpenBabel03242523553D

 44 46  0  0  1  0  0  0  0  0999 V2000
   42.7780   34.3790   38.8230 C   0  0  1  0  0  0  0  0  0  0  0  0
   43.0230   35.1520   40.1090 C   0  0  1  0  0  0  0  0  0  0  0  0
   41.7680   35.5410   40.6310 O   0  0  0  0  0  0  0  0  0  0  0  0
   40.8490   35.8750   39.6280 C   0  0  0  0  0  0  0  0  0  0  0  0
   40.4150   34.6560   38.8400 C   0  0  2  0  0  0  0  0  0  0  0  0
   41.5350   33.5860   39.0440 C   0  0  1  0  0  0  0  0  0  0  0  0
   43.6670   33.7350   38.6660 H   0  0  0  0  0  0  0  0  0  0  0  0
   43.6770   36.0230   39.9740 H   0  0  0  0  0  0  0  0  0  0  0  0
   39.9730   36.2620   40.1460 H   0  0  0  0  0  0  0  0  0  0  0  0
   41.2110   36.6970   38.9770 H   0  0  0  0  0  0  0  0  0  0  0  0
   39.4420   34.2600   39.1890 H   0  0  0  0  0  0  0  0  0  0  0  0
   41.3290   33.4290   40.1550 H   0  0  0  0  0  0  0  0  0  0  0  0
   42.6240   35.2620   37.7380 O   0  0  0  0  0  0  0  0  0  0  0  0
   43.4680   35.2750   37.2560 H   0  0  0  0  0  0  0  0  0  0  0  0
   40.4330   34.9450   37.4830 O   0  0  0  0  0  0  0  0  0  0  0  0
   39.6570   34.4960   37.0440 H   0  0  0  0  0  0  0  0  0  0  0  0
   43.4880   34.2030   41.0280 O   0  0  0  0  0  0  0  0  0  0  0  0
   44.6060   34.3200   41.7550 C   0  0  0  0  0  0  0  0  0  0  0  0
   45.8520   34.4490   41.1450 C   0  0  0  0  0  0  0  0  0  0  0  0
   46.9840   34.5700   41.9260 C   0  0  0  0  0  0  0  0  0  0  0  0
   46.8450   34.5600   43.3050 N   0  0  0  0  0  0  0  0  0  0  0  0
   45.6230   34.4340   43.8670 C   0  0  0  0  0  0  0  0  0  0  0  0
   44.5110   34.3160   43.0960 N   0  0  0  0  0  0  0  0  0  0  0  0
   45.9340   34.4530   40.0660 H   0  0  0  0  0  0  0  0  0  0  0  0
   45.5120   34.4270   44.9500 H   0  0  0  0  0  0  0  0  0  0  0  0
   48.3550   34.6910   41.3330 C   0  0  0  0  0  0  0  0  0  0  0  0
   49.0660   36.0280   41.5250 C   0  0  0  0  0  0  0  0  0  0  0  0
   49.5160   34.7020   42.1680 C   0  0  0  0  0  0  0  0  0  0  0  0
   48.3780   34.3220   40.2850 H   0  0  0  0  0  0  0  0  0  0  0  0
   48.5610   36.7720   42.1410 H   0  0  0  0  0  0  0  0  0  0  0  0
   49.6710   36.3850   40.6960 H   0  0  0  0  0  0  0  0  0  0  0  0
   49.3920   34.7150   43.2780 H   0  0  0  0  0  0  0  0  0  0  0  0
   50.5060   34.2940   41.8790 H   0  0  0  0  0  0  0  0  0  0  0  0
   41.2960   32.5720   38.1890 O   0  0  0  0  0  0  0  0  0  0  0  0
   40.4000   31.5880   38.1990 C   0  0  0  0  0  0  0  0  0  0  0  0
   39.3300   31.6110   37.4130 O   0  0  0  0  0  0  0  0  0  0  0  0
   38.2890   29.4360   38.1560 N   0  0  0  0  0  0  0  0  0  0  0  0
   39.2970   29.4190   38.8570 C   0  0  0  0  0  0  0  0  0  0  0  0
   40.3440   30.3460   38.9770 N   0  0  0  0  0  0  0  0  0  0  0  0
   39.3290   28.2140   39.6530 N   0  0  0  0  0  0  0  0  0  0  0  0
   40.1250   27.5460   39.7310 H   0  0  0  0  0  0  0  0  0  0  0  0
   37.9050   30.0620   37.4920 H   0  0  0  0  0  0  0  0  0  0  0  0
   41.0980   30.1110   39.6400 H   0  0  0  0  0  0  0  0  0  0  0  0
   38.6020   27.7960   40.2740 H   0  0  0  0  0  0  0  0  0  0  0  0
  1  7  1  6  0  0  0
  1  6  1  0  0  0  0
  1  2  1  0  0  0  0
  2  8  1  6  0  0  0
  2  3  1  0  0  0  0
  2 17  1  0  0  0  0
  4  9  1  0  0  0  0
  4  3  1  0  0  0  0
  5  6  1  0  0  0  0
  5 11  1  1  0  0  0
  5  4  1  0  0  0  0
  6 12  1  1  0  0  0
 10  4  1  0  0  0  0
 13  1  1  0  0  0  0
 14 13  1  0  0  0  0
 15  5  1  0  0  0  0
 16 15  1  0  0  0  0
 17 18  1  0  0  0  0
 18 23  1  0  0  0  0
 19 18  2  0  0  0  0
 19 20  1  0  0  0  0
 20 21  2  0  0  0  0
 21 22  1  0  0  0  0
 22 25  1  0  0  0  0
 23 22  2  0  0  0  0
 24 19  1  0  0  0  0
 26 27  1  0  0  0  0
 26 20  1  0  0  0  0
 26 28  1  0  0  0  0
 27 30  1  0  0  0  0
 27 28  1  0  0  0  0
 28 32  1  0  0  0  0
 29 26  1  0  0  0  0
 31 27  1  0  0  0  0
 33 28  1  0  0  0  0
 34 35  1  0  0  0  0
 34  6  1  0  0  0  0
 35 39  1  0  0  0  0
 36 35  2  0  0  0  0
 37 38  2  0  0  0  0
 38 39  1  0  0  0  0
 38 40  1  0  0  0  0
 39 43  1  0  0  0  0
 40 41  1  0  0  0  0
 40 44  1  0  0  0  0
 42 37  1  0  0  0  0
M  END
>  <minimizedAffinity>
-5.96881866

>  <minimizedRMSD>
0.704041898

$$$$
