
 OpenBabel03242523553D

 44 46  0  0  1  0  0  0  0  0999 V2000
   42.8200   34.5050   38.7590 C   0  0  1  0  0  0  0  0  0  0  0  0
   42.9610   35.1750   40.1170 C   0  0  1  0  0  0  0  0  0  0  0  0
   41.6630   35.4050   40.6280 O   0  0  0  0  0  0  0  0  0  0  0  0
   40.7450   35.7490   39.6270 C   0  0  0  0  0  0  0  0  0  0  0  0
   40.4420   34.5750   38.7180 C   0  0  2  0  0  0  0  0  0  0  0  0
   41.6480   33.5910   38.8650 C   0  0  1  0  0  0  0  0  0  0  0  0
   43.7670   33.9580   38.5760 H   0  0  0  0  0  0  0  0  0  0  0  0
   43.5370   36.1090   40.0830 H   0  0  0  0  0  0  0  0  0  0  0  0
   39.8240   36.0100   40.1460 H   0  0  0  0  0  0  0  0  0  0  0  0
   41.0490   36.6560   39.0650 H   0  0  0  0  0  0  0  0  0  0  0  0
   39.4990   34.0660   38.9970 H   0  0  0  0  0  0  0  0  0  0  0  0
   41.4270   33.3160   39.9500 H   0  0  0  0  0  0  0  0  0  0  0  0
   42.6170   35.4690   37.7520 O   0  0  0  0  0  0  0  0  0  0  0  0
   43.4690   35.5980   37.3030 H   0  0  0  0  0  0  0  0  0  0  0  0
   40.4710   34.9880   37.3940 O   0  0  0  0  0  0  0  0  0  0  0  0
   39.7500   34.5160   36.8910 H   0  0  0  0  0  0  0  0  0  0  0  0
   43.4840   34.1890   40.9630 O   0  0  0  0  0  0  0  0  0  0  0  0
   44.5920   34.3200   41.7020 C   0  0  0  0  0  0  0  0  0  0  0  0
   45.8470   34.4390   41.1060 C   0  0  0  0  0  0  0  0  0  0  0  0
   46.9680   34.5740   41.8990 C   0  0  0  0  0  0  0  0  0  0  0  0
   46.8110   34.5890   43.2760 N   0  0  0  0  0  0  0  0  0  0  0  0
   45.5820   34.4720   43.8240 C   0  0  0  0  0  0  0  0  0  0  0  0
   44.4800   34.3400   43.0410 N   0  0  0  0  0  0  0  0  0  0  0  0
   45.9420   34.4240   40.0290 H   0  0  0  0  0  0  0  0  0  0  0  0
   45.4570   34.4840   44.9060 H   0  0  0  0  0  0  0  0  0  0  0  0
   48.3460   34.6860   41.3220 C   0  0  0  0  0  0  0  0  0  0  0  0
   49.0630   36.0190   41.5190 C   0  0  0  0  0  0  0  0  0  0  0  0
   49.4980   34.6920   42.1710 C   0  0  0  0  0  0  0  0  0  0  0  0
   48.3790   34.3140   40.2760 H   0  0  0  0  0  0  0  0  0  0  0  0
   48.5560   36.7670   42.1270 H   0  0  0  0  0  0  0  0  0  0  0  0
   49.6800   36.3710   40.6960 H   0  0  0  0  0  0  0  0  0  0  0  0
   49.3600   34.7080   43.2790 H   0  0  0  0  0  0  0  0  0  0  0  0
   50.4880   34.2770   41.8950 H   0  0  0  0  0  0  0  0  0  0  0  0
   41.5220   32.6430   37.9150 O   0  0  0  0  0  0  0  0  0  0  0  0
   40.8880   31.4740   37.8990 C   0  0  0  0  0  0  0  0  0  0  0  0
   39.6150   31.3760   37.5330 O   0  0  0  0  0  0  0  0  0  0  0  0
   42.5540   30.5810   40.2480 N   0  0  0  0  0  0  0  0  0  0  0  0
   42.1230   29.8400   39.3680 C   0  0  0  0  0  0  0  0  0  0  0  0
   41.3510   30.1230   38.2310 N   0  0  0  0  0  0  0  0  0  0  0  0
   42.5250   28.4770   39.6250 N   0  0  0  0  0  0  0  0  0  0  0  0
   41.9020   27.6410   39.6460 H   0  0  0  0  0  0  0  0  0  0  0  0
   42.5030   31.5520   40.4360 H   0  0  0  0  0  0  0  0  0  0  0  0
   41.1020   29.3250   37.6290 H   0  0  0  0  0  0  0  0  0  0  0  0
   43.4670   28.0790   39.8300 H   0  0  0  0  0  0  0  0  0  0  0  0
  1  7  1  6  0  0  0
  1  6  1  0  0  0  0
  1  2  1  0  0  0  0
  2  8  1  6  0  0  0
  2  3  1  0  0  0  0
  2 17  1  0  0  0  0
  4  9  1  0  0  0  0
  4  3  1  0  0  0  0
  5  6  1  0  0  0  0
  5 11  1  1  0  0  0
  5  4  1  0  0  0  0
  6 12  1  1  0  0  0
 10  4  1  0  0  0  0
 13  1  1  0  0  0  0
 14 13  1  0  0  0  0
 15  5  1  0  0  0  0
 16 15  1  0  0  0  0
 17 18  1  0  0  0  0
 18 23  1  0  0  0  0
 19 18  2  0  0  0  0
 19 20  1  0  0  0  0
 20 21  2  0  0  0  0
 21 22  1  0  0  0  0
 22 25  1  0  0  0  0
 23 22  2  0  0  0  0
 24 19  1  0  0  0  0
 26 27  1  0  0  0  0
 26 20  1  0  0  0  0
 26 28  1  0  0  0  0
 27 30  1  0  0  0  0
 27 28  1  0  0  0  0
 28 32  1  0  0  0  0
 29 26  1  0  0  0  0
 31 27  1  0  0  0  0
 33 28  1  0  0  0  0
 34  6  1  0  0  0  0
 35 34  1  0  0  0  0
 35 39  1  0  0  0  0
 36 35  2  0  0  0  0
 37 42  1  0  0  0  0
 38 40  1  0  0  0  0
 38 37  2  0  0  0  0
 39 38  1  0  0  0  0
 40 41  1  0  0  0  0
 40 44  1  0  0  0  0
 43 39  1  0  0  0  0
M  END
>  <minimizedAffinity>
-5.82161522

>  <minimizedRMSD>
0.073336564

$$$$
