REMARK  Name = 
REMARK  1 active torsions:
REMARK  status: ('A' for Active; 'I' for Inactive)
REMARK    1  A    between atoms: C_3  and  C_8
REMARK                            x       y       z     vdW  Elec       q    Type
REMARK                         _______ _______ _______ _____ _____    ______ ____
ROOT
ATOM      1  C   UNL     1      44.916  35.133  44.047  0.00  0.00    +0.000 A 
ATOM      2  C   UNL     1      45.740  35.374  42.943  0.00  0.00    +0.000 A 
ATOM      3  C   UNL     1      46.950  34.664  42.828  0.00  0.00    +0.000 A 
ATOM      4  N   UNL     1      47.245  33.785  43.801  0.00  0.00    +0.000 NA
ATOM      5  C   UNL     1      46.431  33.576  44.852  0.00  0.00    +0.000 A 
ATOM      6  N   UNL     1      45.285  34.248  44.960  0.00  0.00    +0.000 NA
ATOM      7  N   UNL     1      43.699  35.847  44.162  0.00  0.00    +0.000 N 
ATOM      8  H   UNL     1      45.423  36.099  42.208  0.00  0.00    +0.000 HD
ATOM      9  H   UNL     1      46.736  32.846  45.604  0.00  0.00    +0.000 HD
ATOM     10  H   UNL     1      44.000  36.690  44.721  0.00  0.00    +0.000 HD
ATOM     11  H   UNL     1      43.096  35.181  43.632  0.00  0.00    +0.000 HD
ENDROOT
BRANCH   3  12
ATOM     12  C   UNL     1      47.724  34.992  41.647  0.00  0.00    +0.000 C 
ATOM     13  O   UNL     1      48.677  35.815  41.651  0.00  0.00    +0.000 OA
ATOM     14  N   UNL     1      48.383  32.381  41.025  0.00  0.00    +0.000 NA
ATOM     15  C   UNL     1      47.776  33.023  40.082  0.00  0.00    +0.000 C 
ATOM     16  N   UNL     1      47.426  34.372  40.378  0.00  0.00    +0.000 N 
ATOM     17  N   UNL     1      47.406  32.582  38.790  0.00  0.00    +0.000 N 
ATOM     18  H   UNL     1      46.377  32.711  38.556  0.00  0.00    +0.000 HD
ATOM     19  H   UNL     1      48.680  31.405  40.919  0.00  0.00    +0.000 HD
ATOM     20  H   UNL     1      46.932  34.990  39.692  0.00  0.00    +0.000 HD
ATOM     21  H   UNL     1      47.913  32.147  37.984  0.00  0.00    +0.000 HD
ENDBRANCH   3  12
TORSDOF 1
