
 OpenBabel03242512283D

 21 21  0  0  0  0  0  0  0  0999 V2000
   36.6630   31.1320   40.1560 C   0  0  0  0  0  0  0  0  0  0  0  0
   36.3910   30.3900   39.0010 C   0  0  0  0  0  0  0  0  0  0  0  0
   37.2740   30.5140   37.9200 C   0  0  0  0  0  0  0  0  0  0  0  0
   38.3280   31.3390   38.0610 N   0  0  0  0  0  0  0  0  0  0  0  0
   38.5610   32.0370   39.1820 C   0  0  0  0  0  0  0  0  0  0  0  0
   37.7350   31.9400   40.2310 N   0  0  0  0  0  0  0  0  0  0  0  0
   35.7750   31.0190   41.2710 N   0  0  0  0  0  0  0  0  0  0  0  0
   35.5440   29.7420   38.9230 H   0  0  0  0  0  0  0  0  0  0  0  0
   37.1280   29.9700   36.9940 H   0  0  0  0  0  0  0  0  0  0  0  0
   36.0320   30.9720   42.2820 H   0  0  0  0  0  0  0  0  0  0  0  0
   34.7670   30.9840   41.0330 H   0  0  0  0  0  0  0  0  0  0  0  0
   39.7110   32.9240   39.3030 C   0  0  0  0  0  0  0  0  0  0  0  0
   40.0740   33.4290   40.4030 O   0  0  0  0  0  0  0  0  0  0  0  0
   42.2390   34.0650   39.3530 N   0  0  0  0  0  0  0  0  0  0  0  0
   41.7540   33.8170   38.1720 C   0  0  0  0  0  0  0  0  0  0  0  0
   40.4560   33.2310   38.1190 N   0  0  0  0  0  0  0  0  0  0  0  0
   42.3830   34.0690   36.9070 N   0  0  0  0  0  0  0  0  0  0  0  0
   42.7840   33.1170   36.6790 H   0  0  0  0  0  0  0  0  0  0  0  0
   43.1980   34.5000   39.4510 H   0  0  0  0  0  0  0  0  0  0  0  0
   40.0080   33.0060   37.1810 H   0  0  0  0  0  0  0  0  0  0  0  0
   42.4680   34.9210   36.3130 H   0  0  0  0  0  0  0  0  0  0  0  0
  1  6  1  0  0  0  0
  1  7  1  0  0  0  0
  2  1  2  0  0  0  0
  3  4  2  0  0  0  0
  3  2  1  0  0  0  0
  4  5  1  0  0  0  0
  5 12  1  0  0  0  0
  5  6  2  0  0  0  0
  7 10  1  0  0  0  0
  8  2  1  0  0  0  0
  9  3  1  0  0  0  0
 11  7  1  0  0  0  0
 12 13  2  0  0  0  0
 14 19  1  0  0  0  0
 15 14  2  0  0  0  0
 16 15  1  0  0  0  0
 16 12  1  0  0  0  0
 17 15  1  0  0  0  0
 18 17  1  0  0  0  0
 20 16  1  0  0  0  0
 21 17  1  0  0  0  0
M  END
>  <minimizedAffinity>
-5.04688406

$$$$

 OpenBabel03242512283D

 21 21  0  0  0  0  0  0  0  0999 V2000
   37.3280   28.2930   43.0760 C   0  0  0  0  0  0  0  0  0  0  0  0
   38.6640   27.9590   43.3240 C   0  0  0  0  0  0  0  0  0  0  0  0
   39.6580   28.7450   42.7260 C   0  0  0  0  0  0  0  0  0  0  0  0
   39.2650   29.7720   41.9500 N   0  0  0  0  0  0  0  0  0  0  0  0
   37.9750   30.0660   41.7310 C   0  0  0  0  0  0  0  0  0  0  0  0
   37.0030   29.3340   42.2880 N   0  0  0  0  0  0  0  0  0  0  0  0
   36.2980   27.5030   43.6760 N   0  0  0  0  0  0  0  0  0  0  0  0
   38.9420   27.1350   43.9470 H   0  0  0  0  0  0  0  0  0  0  0  0
   40.7140   28.5460   42.8730 H   0  0  0  0  0  0  0  0  0  0  0  0
   35.4050   27.8440   44.0970 H   0  0  0  0  0  0  0  0  0  0  0  0
   36.4710   26.4820   43.6860 H   0  0  0  0  0  0  0  0  0  0  0  0
   37.5820   31.1850   40.8850 C   0  0  0  0  0  0  0  0  0  0  0  0
   36.3850   31.3900   40.5310 O   0  0  0  0  0  0  0  0  0  0  0  0
   37.0330   33.6770   39.7970 N   0  0  0  0  0  0  0  0  0  0  0  0
   38.2920   33.3620   39.8840 C   0  0  0  0  0  0  0  0  0  0  0  0
   38.6000   32.0870   40.4380 N   0  0  0  0  0  0  0  0  0  0  0  0
   39.4140   34.1610   39.4790 N   0  0  0  0  0  0  0  0  0  0  0  0
   39.7060   34.5930   40.4000 H   0  0  0  0  0  0  0  0  0  0  0  0
   36.7470   34.6120   39.3920 H   0  0  0  0  0  0  0  0  0  0  0  0
   39.6130   31.7750   40.5340 H   0  0  0  0  0  0  0  0  0  0  0  0
   39.8750   34.3250   38.5590 H   0  0  0  0  0  0  0  0  0  0  0  0
  1  2  1  0  0  0  0
  1  7  1  0  0  0  0
  2  8  1  0  0  0  0
  3  9  1  0  0  0  0
  3  2  2  0  0  0  0
  4  3  1  0  0  0  0
  5  4  2  0  0  0  0
  5  6  1  0  0  0  0
  6  1  2  0  0  0  0
  7 11  1  0  0  0  0
  7 10  1  0  0  0  0
 12  5  1  0  0  0  0
 13 12  2  0  0  0  0
 14 15  2  0  0  0  0
 15 16  1  0  0  0  0
 16 20  1  0  0  0  0
 16 12  1  0  0  0  0
 17 15  1  0  0  0  0
 17 18  1  0  0  0  0
 19 14  1  0  0  0  0
 21 17  1  0  0  0  0
M  END
>  <minimizedAffinity>
-4.82521582

$$$$

 OpenBabel03242512283D

 21 21  0  0  0  0  0  0  0  0999 V2000
   38.4090   24.7840   42.3430 C   0  0  0  0  0  0  0  0  0  0  0  0
   39.5870   24.7920   43.0990 C   0  0  0  0  0  0  0  0  0  0  0  0
   39.9900   26.0060   43.6710 C   0  0  0  0  0  0  0  0  0  0  0  0
   39.2190   27.0880   43.4570 N   0  0  0  0  0  0  0  0  0  0  0  0
   38.0960   27.0480   42.7260 C   0  0  0  0  0  0  0  0  0  0  0  0
   37.6850   25.9040   42.1670 N   0  0  0  0  0  0  0  0  0  0  0  0
   37.9800   23.5560   41.7500 N   0  0  0  0  0  0  0  0  0  0  0  0
   40.1760   23.9120   43.2500 H   0  0  0  0  0  0  0  0  0  0  0  0
   40.8900   26.0880   44.2700 H   0  0  0  0  0  0  0  0  0  0  0  0
   37.0040   23.1930   41.6850 H   0  0  0  0  0  0  0  0  0  0  0  0
   38.7340   22.9730   41.3440 H   0  0  0  0  0  0  0  0  0  0  0  0
   37.2830   28.2380   42.5120 C   0  0  0  0  0  0  0  0  0  0  0  0
   37.4380   29.3030   43.1770 O   0  0  0  0  0  0  0  0  0  0  0  0
   36.0360   30.5040   41.5080 N   0  0  0  0  0  0  0  0  0  0  0  0
   35.6430   29.3710   41.0030 C   0  0  0  0  0  0  0  0  0  0  0  0
   36.2680   28.1930   41.5030 N   0  0  0  0  0  0  0  0  0  0  0  0
   34.6430   29.1740   39.9940 N   0  0  0  0  0  0  0  0  0  0  0  0
   35.2390   29.0790   39.1240 H   0  0  0  0  0  0  0  0  0  0  0  0
   35.6050   31.4110   41.1740 H   0  0  0  0  0  0  0  0  0  0  0  0
   35.9870   27.2370   41.1280 H   0  0  0  0  0  0  0  0  0  0  0  0
   33.6030   29.1250   40.0230 H   0  0  0  0  0  0  0  0  0  0  0  0
  1  2  1  0  0  0  0
  2  8  1  0  0  0  0
  2  3  2  0  0  0  0
  3  9  1  0  0  0  0
  4  3  1  0  0  0  0
  5  4  2  0  0  0  0
  6  1  2  0  0  0  0
  6  5  1  0  0  0  0
  7  1  1  0  0  0  0
 10  7  1  0  0  0  0
 11  7  1  0  0  0  0
 12  5  1  0  0  0  0
 12 13  2  0  0  0  0
 15 16  1  0  0  0  0
 15 14  2  0  0  0  0
 16 12  1  0  0  0  0
 17 21  1  0  0  0  0
 17 15  1  0  0  0  0
 18 17  1  0  0  0  0
 19 14  1  0  0  0  0
 20 16  1  0  0  0  0
M  END
>  <minimizedAffinity>
-4.7985425

$$$$

 OpenBabel03242512283D

 21 21  0  0  0  0  0  0  0  0999 V2000
   38.7040   25.4020   42.6360 C   0  0  0  0  0  0  0  0  0  0  0  0
   39.8000   25.7660   43.4260 C   0  0  0  0  0  0  0  0  0  0  0  0
   40.0110   27.1300   43.6660 C   0  0  0  0  0  0  0  0  0  0  0  0
   39.1470   28.0050   43.1200 N   0  0  0  0  0  0  0  0  0  0  0  0
   38.1060   27.6250   42.3660 C   0  0  0  0  0  0  0  0  0  0  0  0
   37.8780   26.3290   42.1190 N   0  0  0  0  0  0  0  0  0  0  0  0
   38.4710   24.0150   42.3790 N   0  0  0  0  0  0  0  0  0  0  0  0
   40.4690   25.0430   43.8460 H   0  0  0  0  0  0  0  0  0  0  0  0
   40.8390   27.4860   44.2690 H   0  0  0  0  0  0  0  0  0  0  0  0
   37.5510   23.5220   42.3610 H   0  0  0  0  0  0  0  0  0  0  0  0
   39.3190   23.4500   42.1910 H   0  0  0  0  0  0  0  0  0  0  0  0
   37.1880   28.5970   41.7880 C   0  0  0  0  0  0  0  0  0  0  0  0
   35.9570   28.3620   41.6190 O   0  0  0  0  0  0  0  0  0  0  0  0
   35.5830   30.7930   41.2410 N   0  0  0  0  0  0  0  0  0  0  0  0
   36.8640   30.9850   41.1220 C   0  0  0  0  0  0  0  0  0  0  0  0
   37.7090   29.8720   41.3960 N   0  0  0  0  0  0  0  0  0  0  0  0
   37.5250   32.2000   40.7410 N   0  0  0  0  0  0  0  0  0  0  0  0
   37.7970   32.5950   41.6840 H   0  0  0  0  0  0  0  0  0  0  0  0
   34.9080   31.5850   41.0480 H   0  0  0  0  0  0  0  0  0  0  0  0
   38.7660   29.9690   41.3150 H   0  0  0  0  0  0  0  0  0  0  0  0
   37.7240   32.6420   39.8190 H   0  0  0  0  0  0  0  0  0  0  0  0
  1  2  1  0  0  0  0
  2  3  2  0  0  0  0
  2  8  1  0  0  0  0
  3  9  1  0  0  0  0
  4  3  1  0  0  0  0
  5  4  2  0  0  0  0
  6  5  1  0  0  0  0
  6  1  2  0  0  0  0
  7  1  1  0  0  0  0
 10  7  1  0  0  0  0
 11  7  1  0  0  0  0
 12  5  1  0  0  0  0
 13 12  2  0  0  0  0
 15 14  2  0  0  0  0
 15 16  1  0  0  0  0
 16 12  1  0  0  0  0
 17 15  1  0  0  0  0
 17 18  1  0  0  0  0
 19 14  1  0  0  0  0
 20 16  1  0  0  0  0
 21 17  1  0  0  0  0
M  END
>  <minimizedAffinity>
-4.77866411

$$$$

 OpenBabel03242512283D

 21 21  0  0  0  0  0  0  0  0999 V2000
   38.7620   24.5590   42.4580 C   0  0  0  0  0  0  0  0  0  0  0  0
   37.7800   23.9030   41.7090 C   0  0  0  0  0  0  0  0  0  0  0  0
   36.8740   24.6890   40.9840 C   0  0  0  0  0  0  0  0  0  0  0  0
   37.0070   26.0260   41.0550 N   0  0  0  0  0  0  0  0  0  0  0  0
   37.9600   26.6260   41.7830 C   0  0  0  0  0  0  0  0  0  0  0  0
   38.8390   25.9010   42.4860 N   0  0  0  0  0  0  0  0  0  0  0  0
   39.6960   23.7750   43.2050 N   0  0  0  0  0  0  0  0  0  0  0  0
   37.7030   22.8360   41.6740 H   0  0  0  0  0  0  0  0  0  0  0  0
   36.0870   24.2510   40.3810 H   0  0  0  0  0  0  0  0  0  0  0  0
   40.7200   23.9470   43.3160 H   0  0  0  0  0  0  0  0  0  0  0  0
   39.2970   22.9490   43.6850 H   0  0  0  0  0  0  0  0  0  0  0  0
   38.0770   28.0770   41.8400 C   0  0  0  0  0  0  0  0  0  0  0  0
   39.1810   28.6700   42.0100 O   0  0  0  0  0  0  0  0  0  0  0  0
   38.1010   30.8000   41.3120 N   0  0  0  0  0  0  0  0  0  0  0  0
   36.9250   30.2560   41.4240 C   0  0  0  0  0  0  0  0  0  0  0  0
   36.8860   28.8590   41.6960 N   0  0  0  0  0  0  0  0  0  0  0  0
   35.6530   30.9110   41.3050 N   0  0  0  0  0  0  0  0  0  0  0  0
   35.3960   30.6870   40.3030 H   0  0  0  0  0  0  0  0  0  0  0  0
   38.1890   31.8350   41.1110 H   0  0  0  0  0  0  0  0  0  0  0  0
   35.9520   28.3590   41.7990 H   0  0  0  0  0  0  0  0  0  0  0  0
   35.0760   31.4690   41.9690 H   0  0  0  0  0  0  0  0  0  0  0  0
  1  6  1  0  0  0  0
  1  7  1  0  0  0  0
  2  1  2  0  0  0  0
  3  4  2  0  0  0  0
  3  2  1  0  0  0  0
  4  5  1  0  0  0  0
  5 12  1  0  0  0  0
  5  6  2  0  0  0  0
  7 10  1  0  0  0  0
  7 11  1  0  0  0  0
  8  2  1  0  0  0  0
  9  3  1  0  0  0  0
 12 13  2  0  0  0  0
 14 15  2  0  0  0  0
 15 16  1  0  0  0  0
 16 20  1  0  0  0  0
 16 12  1  0  0  0  0
 17 15  1  0  0  0  0
 17 21  1  0  0  0  0
 18 17  1  0  0  0  0
 19 14  1  0  0  0  0
M  END
>  <minimizedAffinity>
-4.64994383

$$$$

 OpenBabel03242512283D

 21 21  0  0  0  0  0  0  0  0999 V2000
   37.0910   27.0500   41.4730 C   0  0  0  0  0  0  0  0  0  0  0  0
   37.2880   26.9160   42.8520 C   0  0  0  0  0  0  0  0  0  0  0  0
   37.4840   28.0820   43.6020 C   0  0  0  0  0  0  0  0  0  0  0  0
   37.4720   29.2590   42.9500 N   0  0  0  0  0  0  0  0  0  0  0  0
   37.2820   29.3550   41.6260 C   0  0  0  0  0  0  0  0  0  0  0  0
   37.0920   28.2590   40.8820 N   0  0  0  0  0  0  0  0  0  0  0  0
   36.8890   25.8720   40.6880 N   0  0  0  0  0  0  0  0  0  0  0  0
   37.2910   25.9630   43.3390 H   0  0  0  0  0  0  0  0  0  0  0  0
   37.6420   28.0560   44.6750 H   0  0  0  0  0  0  0  0  0  0  0  0
   36.2170   25.7450   39.9000 H   0  0  0  0  0  0  0  0  0  0  0  0
   37.4850   25.0640   40.9420 H   0  0  0  0  0  0  0  0  0  0  0  0
   37.2750   30.6450   40.9490 C   0  0  0  0  0  0  0  0  0  0  0  0
   36.3050   31.0420   40.2410 O   0  0  0  0  0  0  0  0  0  0  0  0
   37.2650   33.3370   40.2820 N   0  0  0  0  0  0  0  0  0  0  0  0
   38.3880   32.8730   40.7460 C   0  0  0  0  0  0  0  0  0  0  0  0
   38.4190   31.4930   41.0950 N   0  0  0  0  0  0  0  0  0  0  0  0
   39.6090   33.6010   40.9460 N   0  0  0  0  0  0  0  0  0  0  0  0
   39.5530   33.8250   41.9790 H   0  0  0  0  0  0  0  0  0  0  0  0
   37.1870   34.3560   40.0070 H   0  0  0  0  0  0  0  0  0  0  0  0
   39.3110   31.0570   41.4790 H   0  0  0  0  0  0  0  0  0  0  0  0
   40.3860   33.8750   40.3080 H   0  0  0  0  0  0  0  0  0  0  0  0
  1  2  1  0  0  0  0
  2  8  1  0  0  0  0
  2  3  2  0  0  0  0
  3  9  1  0  0  0  0
  4  3  1  0  0  0  0
  5  4  2  0  0  0  0
  6  1  2  0  0  0  0
  6  5  1  0  0  0  0
  7 11  1  0  0  0  0
  7  1  1  0  0  0  0
 10  7  1  0  0  0  0
 12 16  1  0  0  0  0
 12  5  1  0  0  0  0
 13 12  2  0  0  0  0
 14 15  2  0  0  0  0
 15 17  1  0  0  0  0
 15 16  1  0  0  0  0
 16 20  1  0  0  0  0
 17 18  1  0  0  0  0
 19 14  1  0  0  0  0
 21 17  1  0  0  0  0
M  END
>  <minimizedAffinity>
-4.5797472

$$$$

 OpenBabel03242512283D

 21 21  0  0  0  0  0  0  0  0999 V2000
   39.6020   28.4100   42.8940 C   0  0  0  0  0  0  0  0  0  0  0  0
   38.7120   27.4840   43.4510 C   0  0  0  0  0  0  0  0  0  0  0  0
   37.3430   27.6690   43.2180 C   0  0  0  0  0  0  0  0  0  0  0  0
   36.9690   28.7260   42.4740 N   0  0  0  0  0  0  0  0  0  0  0  0
   37.8470   29.5960   41.9540 C   0  0  0  0  0  0  0  0  0  0  0  0
   39.1610   29.4460   42.1590 N   0  0  0  0  0  0  0  0  0  0  0  0
   41.0030   28.2390   43.1200 N   0  0  0  0  0  0  0  0  0  0  0  0
   39.0440   26.6540   44.0390 H   0  0  0  0  0  0  0  0  0  0  0  0
   36.5960   26.9920   43.6170 H   0  0  0  0  0  0  0  0  0  0  0  0
   41.7760   28.3820   42.4320 H   0  0  0  0  0  0  0  0  0  0  0  0
   41.2650   27.9430   44.0770 H   0  0  0  0  0  0  0  0  0  0  0  0
   37.4100   30.7320   41.1520 C   0  0  0  0  0  0  0  0  0  0  0  0
   36.1930   31.0450   41.0120 O   0  0  0  0  0  0  0  0  0  0  0  0
   36.9030   33.2440   40.0910 N   0  0  0  0  0  0  0  0  0  0  0  0
   38.1230   32.8110   39.9610 C   0  0  0  0  0  0  0  0  0  0  0  0
   38.4080   31.5220   40.4970 N   0  0  0  0  0  0  0  0  0  0  0  0
   39.2200   33.4890   39.3330 N   0  0  0  0  0  0  0  0  0  0  0  0
   39.7140   33.9080   40.1700 H   0  0  0  0  0  0  0  0  0  0  0  0
   36.6360   34.1950   39.7110 H   0  0  0  0  0  0  0  0  0  0  0  0
   39.3880   31.1150   40.4200 H   0  0  0  0  0  0  0  0  0  0  0  0
   39.5190   33.5900   38.3400 H   0  0  0  0  0  0  0  0  0  0  0  0
  1  7  1  0  0  0  0
  1  2  1  0  0  0  0
  2  8  1  0  0  0  0
  3  2  2  0  0  0  0
  3  9  1  0  0  0  0
  4  3  1  0  0  0  0
  5  6  1  0  0  0  0
  5  4  2  0  0  0  0
  6  1  2  0  0  0  0
  7 11  1  0  0  0  0
 10  7  1  0  0  0  0
 12  5  1  0  0  0  0
 13 12  2  0  0  0  0
 15 14  2  0  0  0  0
 15 16  1  0  0  0  0
 16 12  1  0  0  0  0
 17 15  1  0  0  0  0
 17 18  1  0  0  0  0
 19 14  1  0  0  0  0
 20 16  1  0  0  0  0
 21 17  1  0  0  0  0
M  END
>  <minimizedAffinity>
-4.56143332

$$$$

 OpenBabel03242512283D

 21 21  0  0  0  0  0  0  0  0999 V2000
   40.2820   32.4810   38.2680 C   0  0  0  0  0  0  0  0  0  0  0  0
   41.1430   33.4150   38.8540 C   0  0  0  0  0  0  0  0  0  0  0  0
   41.2130   33.4520   40.2530 C   0  0  0  0  0  0  0  0  0  0  0  0
   40.4490   32.5880   40.9440 N   0  0  0  0  0  0  0  0  0  0  0  0
   39.6330   31.7040   40.3520 C   0  0  0  0  0  0  0  0  0  0  0  0
   39.5430   31.6440   39.0180 N   0  0  0  0  0  0  0  0  0  0  0  0
   40.1940   32.4260   36.8410 N   0  0  0  0  0  0  0  0  0  0  0  0
   41.7380   34.0890   38.2740 H   0  0  0  0  0  0  0  0  0  0  0  0
   41.8590   34.1490   40.7770 H   0  0  0  0  0  0  0  0  0  0  0  0
   40.1320   31.5720   36.2440 H   0  0  0  0  0  0  0  0  0  0  0  0
   40.1930   33.3440   36.3620 H   0  0  0  0  0  0  0  0  0  0  0  0
   38.8160   30.7810   41.1290 C   0  0  0  0  0  0  0  0  0  0  0  0
   39.2290   30.2230   42.1860 O   0  0  0  0  0  0  0  0  0  0  0  0
   36.8870   29.5660   42.7100 N   0  0  0  0  0  0  0  0  0  0  0  0
   36.5160   29.8750   41.5020 C   0  0  0  0  0  0  0  0  0  0  0  0
   37.4890   30.4980   40.6700 N   0  0  0  0  0  0  0  0  0  0  0  0
   35.2290   29.6540   40.9090 N   0  0  0  0  0  0  0  0  0  0  0  0
   34.7760   30.6030   41.0320 H   0  0  0  0  0  0  0  0  0  0  0  0
   36.2050   29.1000   43.3710 H   0  0  0  0  0  0  0  0  0  0  0  0
   37.2440   30.7730   39.6720 H   0  0  0  0  0  0  0  0  0  0  0  0
   34.7850   28.8240   40.4620 H   0  0  0  0  0  0  0  0  0  0  0  0
  1  2  2  0  0  0  0
  1  6  1  0  0  0  0
  2  3  1  0  0  0  0
  3  9  1  0  0  0  0
  3  4  2  0  0  0  0
  5  4  1  0  0  0  0
  5 12  1  0  0  0  0
  6  5  2  0  0  0  0
  7  1  1  0  0  0  0
  8  2  1  0  0  0  0
 10  7  1  0  0  0  0
 11  7  1  0  0  0  0
 12 13  2  0  0  0  0
 14 19  1  0  0  0  0
 15 14  2  0  0  0  0
 16 12  1  0  0  0  0
 16 15  1  0  0  0  0
 17 18  1  0  0  0  0
 17 15  1  0  0  0  0
 20 16  1  0  0  0  0
 21 17  1  0  0  0  0
M  END
>  <minimizedAffinity>
-4.51739216

$$$$

 OpenBabel03242512283D

 21 21  0  0  0  0  0  0  0  0999 V2000
   37.6920   28.6980   42.6950 C   0  0  0  0  0  0  0  0  0  0  0  0
   38.7740   27.9240   43.1280 C   0  0  0  0  0  0  0  0  0  0  0  0
   40.0650   28.4310   42.9260 C   0  0  0  0  0  0  0  0  0  0  0  0
   40.1830   29.6300   42.3280 N   0  0  0  0  0  0  0  0  0  0  0  0
   39.1250   30.3480   41.9230 C   0  0  0  0  0  0  0  0  0  0  0  0
   37.8800   29.8910   42.1020 N   0  0  0  0  0  0  0  0  0  0  0  0
   36.3670   28.2000   42.8910 N   0  0  0  0  0  0  0  0  0  0  0  0
   38.6450   26.9730   43.6010 H   0  0  0  0  0  0  0  0  0  0  0  0
   40.9510   27.8870   43.2360 H   0  0  0  0  0  0  0  0  0  0  0  0
   35.5250   28.7410   43.1880 H   0  0  0  0  0  0  0  0  0  0  0  0
   36.2440   27.1860   42.7150 H   0  0  0  0  0  0  0  0  0  0  0  0
   39.2860   31.6440   41.2770 C   0  0  0  0  0  0  0  0  0  0  0  0
   40.4030   32.2300   41.1840 O   0  0  0  0  0  0  0  0  0  0  0  0
   39.4110   33.7720   39.5010 N   0  0  0  0  0  0  0  0  0  0  0  0
   38.2150   33.3660   39.8150 C   0  0  0  0  0  0  0  0  0  0  0  0
   38.1240   32.2750   40.7260 N   0  0  0  0  0  0  0  0  0  0  0  0
   36.9690   33.8990   39.3430 N   0  0  0  0  0  0  0  0  0  0  0  0
   36.7340   33.2220   38.5640 H   0  0  0  0  0  0  0  0  0  0  0  0
   39.5370   34.5800   38.8290 H   0  0  0  0  0  0  0  0  0  0  0  0
   37.1730   31.9000   41.0190 H   0  0  0  0  0  0  0  0  0  0  0  0
   36.3910   34.7160   39.6310 H   0  0  0  0  0  0  0  0  0  0  0  0
  1  7  1  0  0  0  0
  1  2  1  0  0  0  0
  2  8  1  0  0  0  0
  3  2  2  0  0  0  0
  3  9  1  0  0  0  0
  4  3  1  0  0  0  0
  5  6  1  0  0  0  0
  5  4  2  0  0  0  0
  6  1  2  0  0  0  0
  7 10  1  0  0  0  0
 11  7  1  0  0  0  0
 12  5  1  0  0  0  0
 13 12  2  0  0  0  0
 14 15  2  0  0  0  0
 15 16  1  0  0  0  0
 16 20  1  0  0  0  0
 16 12  1  0  0  0  0
 17 21  1  0  0  0  0
 17 15  1  0  0  0  0
 18 17  1  0  0  0  0
 19 14  1  0  0  0  0
M  END
>  <minimizedAffinity>
-4.48497963

$$$$
