
 OpenBabel03242512273D

 21 21  0  0  0  0  0  0  0  0999 V2000
   44.9200   35.0050   44.5350 C   0  0  0  0  0  0  0  0  0  0  0  0
   45.8630   34.7960   43.5230 C   0  0  0  0  0  0  0  0  0  0  0  0
   46.8940   33.8790   43.7690 C   0  0  0  0  0  0  0  0  0  0  0  0
   46.9110   33.2570   44.9620 N   0  0  0  0  0  0  0  0  0  0  0  0
   45.9910   33.4810   45.9120 C   0  0  0  0  0  0  0  0  0  0  0  0
   44.9950   34.3510   45.7070 N   0  0  0  0  0  0  0  0  0  0  0  0
   43.8590   35.9370   44.3040 N   0  0  0  0  0  0  0  0  0  0  0  0
   45.8200   35.3070   42.5840 H   0  0  0  0  0  0  0  0  0  0  0  0
   47.6600   33.6650   43.0320 H   0  0  0  0  0  0  0  0  0  0  0  0
   42.8580   35.8350   44.5790 H   0  0  0  0  0  0  0  0  0  0  0  0
   44.1330   36.8060   43.8110 H   0  0  0  0  0  0  0  0  0  0  0  0
   46.0380   32.7920   47.1950 C   0  0  0  0  0  0  0  0  0  0  0  0
   45.0100   32.5940   47.9050 O   0  0  0  0  0  0  0  0  0  0  0  0
   46.5680   30.1200   47.7190 N   0  0  0  0  0  0  0  0  0  0  0  0
   47.5540   30.9450   47.9270 C   0  0  0  0  0  0  0  0  0  0  0  0
   47.3060   32.3220   47.6660 N   0  0  0  0  0  0  0  0  0  0  0  0
   48.8710   30.6180   48.3950 N   0  0  0  0  0  0  0  0  0  0  0  0
   49.4120   30.5790   47.4860 H   0  0  0  0  0  0  0  0  0  0  0  0
   46.6980   29.0850   47.8970 H   0  0  0  0  0  0  0  0  0  0  0  0
   48.0740   33.0420   47.8190 H   0  0  0  0  0  0  0  0  0  0  0  0
   49.2680   30.4500   49.3420 H   0  0  0  0  0  0  0  0  0  0  0  0
  1  6  1  0  0  0  0
  2  3  1  0  0  0  0
  2  1  2  0  0  0  0
  3  4  2  0  0  0  0
  4  5  1  0  0  0  0
  5 12  1  0  0  0  0
  6  5  2  0  0  0  0
  7  1  1  0  0  0  0
  7 10  1  0  0  0  0
  8  2  1  0  0  0  0
  9  3  1  0  0  0  0
 11  7  1  0  0  0  0
 12 16  1  0  0  0  0
 12 13  2  0  0  0  0
 14 19  1  0  0  0  0
 14 15  2  0  0  0  0
 15 17  1  0  0  0  0
 16 20  1  0  0  0  0
 16 15  1  0  0  0  0
 17 21  1  0  0  0  0
 18 17  1  0  0  0  0
M  END
>  <minimizedAffinity>
-4.58562231

>  <minimizedRMSD>
0.653374195

$$$$
