
 OpenBabel03242512283D

 21 21  0  0  0  0  0  0  0  0999 V2000
   45.0620   34.9790   44.3770 C   0  0  0  0  0  0  0  0  0  0  0  0
   46.1080   34.7260   43.4830 C   0  0  0  0  0  0  0  0  0  0  0  0
   47.0410   33.7390   43.8290 C   0  0  0  0  0  0  0  0  0  0  0  0
   46.8710   33.0970   44.9990 N   0  0  0  0  0  0  0  0  0  0  0  0
   45.8570   33.3630   45.8350 C   0  0  0  0  0  0  0  0  0  0  0  0
   44.9510   34.3000   45.5320 N   0  0  0  0  0  0  0  0  0  0  0  0
   44.0990   35.9820   44.0430 N   0  0  0  0  0  0  0  0  0  0  0  0
   46.2130   35.2550   42.5590 H   0  0  0  0  0  0  0  0  0  0  0  0
   47.8770   33.4880   43.1860 H   0  0  0  0  0  0  0  0  0  0  0  0
   43.0670   35.9410   44.1900 H   0  0  0  0  0  0  0  0  0  0  0  0
   44.4860   36.8400   43.6090 H   0  0  0  0  0  0  0  0  0  0  0  0
   45.7010   32.6500   47.0960 C   0  0  0  0  0  0  0  0  0  0  0  0
   44.8070   32.9390   47.9410 O   0  0  0  0  0  0  0  0  0  0  0  0
   48.1110   33.0060   48.4250 N   0  0  0  0  0  0  0  0  0  0  0  0
   47.8360   31.7860   48.0670 C   0  0  0  0  0  0  0  0  0  0  0  0
   46.6050   31.5770   47.3830 N   0  0  0  0  0  0  0  0  0  0  0  0
   48.6420   30.6180   48.2860 N   0  0  0  0  0  0  0  0  0  0  0  0
   48.1890   30.2110   49.1520 H   0  0  0  0  0  0  0  0  0  0  0  0
   49.0120   33.2180   48.9360 H   0  0  0  0  0  0  0  0  0  0  0  0
   46.3270   30.6000   47.0660 H   0  0  0  0  0  0  0  0  0  0  0  0
   49.4580   30.2130   47.7840 H   0  0  0  0  0  0  0  0  0  0  0  0
  1  6  1  0  0  0  0
  2  3  1  0  0  0  0
  2  1  2  0  0  0  0
  3  4  2  0  0  0  0
  4  5  1  0  0  0  0
  5 12  1  0  0  0  0
  6  5  2  0  0  0  0
  7 10  1  0  0  0  0
  7  1  1  0  0  0  0
  8  2  1  0  0  0  0
  9  3  1  0  0  0  0
 11  7  1  0  0  0  0
 12 16  1  0  0  0  0
 12 13  2  0  0  0  0
 14 19  1  0  0  0  0
 15 17  1  0  0  0  0
 15 14  2  0  0  0  0
 16 15  1  0  0  0  0
 17 18  1  0  0  0  0
 20 16  1  0  0  0  0
 21 17  1  0  0  0  0
M  END
>  <minimizedAffinity>
-4.26510811

>  <minimizedRMSD>
0.852722168

$$$$
