
 OpenBabel03242520453D

 21 21  0  0  0  0  0  0  0  0999 V2000
   44.9120   35.1190   44.0320 C   0  0  0  0  0  0  0  0  0  0  0  0
   45.7630   35.3700   42.9510 C   0  0  0  0  0  0  0  0  0  0  0  0
   46.9860   34.6790   42.8720 C   0  0  0  0  0  0  0  0  0  0  0  0
   47.2680   33.8070   43.8550 N   0  0  0  0  0  0  0  0  0  0  0  0
   46.4280   33.5870   44.8830 C   0  0  0  0  0  0  0  0  0  0  0  0
   45.2690   34.2420   44.9580 N   0  0  0  0  0  0  0  0  0  0  0  0
   43.6820   35.8140   44.1120 N   0  0  0  0  0  0  0  0  0  0  0  0
   45.4550   36.0890   42.2060 H   0  0  0  0  0  0  0  0  0  0  0  0
   46.7230   32.8640   45.6450 H   0  0  0  0  0  0  0  0  0  0  0  0
   43.9540   36.6630   44.6770 H   0  0  0  0  0  0  0  0  0  0  0  0
   43.1040   35.1380   43.5670 H   0  0  0  0  0  0  0  0  0  0  0  0
   47.7880   35.0170   41.7120 C   0  0  0  0  0  0  0  0  0  0  0  0
   48.7690   35.8050   41.7540 O   0  0  0  0  0  0  0  0  0  0  0  0
   47.2110   32.3430   41.3110 N   0  0  0  0  0  0  0  0  0  0  0  0
   47.1910   33.0660   40.2400 C   0  0  0  0  0  0  0  0  0  0  0  0
   47.4860   34.4480   40.4200 N   0  0  0  0  0  0  0  0  0  0  0  0
   46.9190   32.6840   38.9040 N   0  0  0  0  0  0  0  0  0  0  0  0
   46.1500   33.2460   38.4320 H   0  0  0  0  0  0  0  0  0  0  0  0
   47.0140   31.3370   41.2960 H   0  0  0  0  0  0  0  0  0  0  0  0
   47.4990   35.1300   39.6250 H   0  0  0  0  0  0  0  0  0  0  0  0
   47.3010   31.9630   38.2490 H   0  0  0  0  0  0  0  0  0  0  0  0
  1  7  1  0  0  0  0
  1  6  1  0  0  0  0
  2  1  2  0  0  0  0
  3  2  1  0  0  0  0
  3  4  2  0  0  0  0
  4  5  1  0  0  0  0
  5  6  2  0  0  0  0
  5  9  1  0  0  0  0
  7 10  1  0  0  0  0
  8  2  1  0  0  0  0
 11  7  1  0  0  0  0
 12 13  2  0  0  0  0
 12  3  1  0  0  0  0
 15 16  1  0  0  0  0
 15 14  2  0  0  0  0
 16 12  1  0  0  0  0
 17 15  1  0  0  0  0
 18 17  1  0  0  0  0
 19 14  1  0  0  0  0
 20 16  1  0  0  0  0
 21 17  1  0  0  0  0
M  END
>  <minimizedAffinity>
-4.43774128

>  <minimizedRMSD>
0.0818420947

$$$$
