
 OpenBabel03242523173D

 26 27  0  0  0  0  0  0  0  0999 V2000
   46.2480   34.5310   43.6100 C   0  0  0  0  0  0  0  0  0  0  0  0
   47.3720   33.9430   43.1310 C   0  0  0  0  0  0  0  0  0  0  0  0
   47.7980   32.8140   43.8040 C   0  0  0  0  0  0  0  0  0  0  0  0
   47.0480   32.3870   44.8980 N   0  0  0  0  0  0  0  0  0  0  0  0
   45.9600   32.9970   45.3260 C   0  0  0  0  0  0  0  0  0  0  0  0
   45.5150   34.1200   44.6770 N   0  0  0  0  0  0  0  0  0  0  0  0
   48.6820   32.2680   43.5050 H   0  0  0  0  0  0  0  0  0  0  0  0
   45.5260   32.5080   46.1880 H   0  0  0  0  0  0  0  0  0  0  0  0
   45.5250   35.6540   43.0340 C   0  0  0  0  0  0  0  0  0  0  0  0
   45.1470   36.8120   43.1290 O   0  0  0  0  0  0  0  0  0  0  0  0
   43.6840   33.2330   42.5680 N   0  0  0  0  0  0  0  0  0  0  0  0
   44.2000   33.9810   41.7020 C   0  0  0  0  0  0  0  0  0  0  0  0
   45.0500   35.1070   41.7690 N   0  0  0  0  0  0  0  0  0  0  0  0
   43.6340   33.3080   40.5530 N   0  0  0  0  0  0  0  0  0  0  0  0
   42.8440   33.6000   39.9110 H   0  0  0  0  0  0  0  0  0  0  0  0
   43.7470   33.2480   43.5740 H   0  0  0  0  0  0  0  0  0  0  0  0
   45.1990   35.3740   40.7440 H   0  0  0  0  0  0  0  0  0  0  0  0
   43.8930   32.3870   40.1170 H   0  0  0  0  0  0  0  0  0  0  0  0
   48.1610   34.4250   42.0590 C   0  0  0  0  0  0  0  0  0  0  0  0
   48.6160   35.6700   41.7730 C   0  0  0  0  0  0  0  0  0  0  0  0
   49.6980   34.7310   42.3080 C   0  0  0  0  0  0  0  0  0  0  0  0
   48.3150   33.5340   41.3050 H   0  0  0  0  0  0  0  0  0  0  0  0
   48.8590   36.0240   40.7330 H   0  0  0  0  0  0  0  0  0  0  0  0
   48.4410   36.5550   42.4440 H   0  0  0  0  0  0  0  0  0  0  0  0
   49.9760   34.7820   43.3790 H   0  0  0  0  0  0  0  0  0  0  0  0
   50.4410   34.3490   41.6330 H   0  0  0  0  0  0  0  0  0  0  0  0
  1  6  1  0  0  0  0
  2  1  2  0  0  0  0
  2  3  1  0  0  0  0
  3  4  2  0  0  0  0
  4  5  1  0  0  0  0
  5  8  1  0  0  0  0
  6  5  2  0  0  0  0
  7  3  1  0  0  0  0
  9 10  2  0  0  0  0
  9  1  1  0  0  0  0
 11 16  1  0  0  0  0
 12 13  1  0  0  0  0
 12 11  2  0  0  0  0
 13  9  1  0  0  0  0
 14 12  1  0  0  0  0
 15 14  1  0  0  0  0
 17 13  1  0  0  0  0
 18 14  1  0  0  0  0
 19 21  1  0  0  0  0
 19  2  1  0  0  0  0
 20 19  1  0  0  0  0
 20 21  1  0  0  0  0
 20 24  1  0  0  0  0
 21 25  1  0  0  0  0
 22 19  1  0  0  0  0
 23 20  1  0  0  0  0
 26 21  1  0  0  0  0
M  END
>  <minimizedAffinity>
-4.72724104

>  <minimizedRMSD>
0.0654159039

$$$$
