
 OpenBabel03242523173D

 26 27  0  0  0  0  0  0  0  0999 V2000
   46.3270   34.4920   43.5010 C   0  0  0  0  0  0  0  0  0  0  0  0
   47.4750   33.9400   43.0370 C   0  0  0  0  0  0  0  0  0  0  0  0
   47.8870   32.7810   43.6660 C   0  0  0  0  0  0  0  0  0  0  0  0
   47.1000   32.2900   44.7060 N   0  0  0  0  0  0  0  0  0  0  0  0
   45.9890   32.8660   45.1220 C   0  0  0  0  0  0  0  0  0  0  0  0
   45.5570   34.0180   44.5150 N   0  0  0  0  0  0  0  0  0  0  0  0
   48.7890   32.2590   43.3740 H   0  0  0  0  0  0  0  0  0  0  0  0
   45.5270   32.3280   45.9390 H   0  0  0  0  0  0  0  0  0  0  0  0
   45.6140   35.6360   42.9560 C   0  0  0  0  0  0  0  0  0  0  0  0
   45.2340   36.7900   43.0890 O   0  0  0  0  0  0  0  0  0  0  0  0
   43.3230   33.6700   42.3600 N   0  0  0  0  0  0  0  0  0  0  0  0
   44.0850   34.2310   41.5350 C   0  0  0  0  0  0  0  0  0  0  0  0
   45.1600   35.1390   41.6630 N   0  0  0  0  0  0  0  0  0  0  0  0
   43.5030   33.6380   40.3500 N   0  0  0  0  0  0  0  0  0  0  0  0
   42.8720   34.0650   39.6130 H   0  0  0  0  0  0  0  0  0  0  0  0
   43.2830   33.7260   43.3660 H   0  0  0  0  0  0  0  0  0  0  0  0
   45.4730   35.3060   40.6540 H   0  0  0  0  0  0  0  0  0  0  0  0
   43.5870   32.6600   39.9780 H   0  0  0  0  0  0  0  0  0  0  0  0
   48.3000   34.4860   42.0240 C   0  0  0  0  0  0  0  0  0  0  0  0
   48.7180   35.7550   41.7980 C   0  0  0  0  0  0  0  0  0  0  0  0
   49.8070   34.8440   42.3650 C   0  0  0  0  0  0  0  0  0  0  0  0
   48.5310   33.6240   41.2540 H   0  0  0  0  0  0  0  0  0  0  0  0
   49.0010   36.1500   40.7840 H   0  0  0  0  0  0  0  0  0  0  0  0
   48.4710   36.6120   42.4830 H   0  0  0  0  0  0  0  0  0  0  0  0
   50.0250   34.8730   43.4510 H   0  0  0  0  0  0  0  0  0  0  0  0
   50.6000   34.5120   41.7210 H   0  0  0  0  0  0  0  0  0  0  0  0
  1  6  1  0  0  0  0
  2  1  2  0  0  0  0
  2  3  1  0  0  0  0
  3  4  2  0  0  0  0
  4  5  1  0  0  0  0
  5  8  1  0  0  0  0
  6  5  2  0  0  0  0
  7  3  1  0  0  0  0
  9 10  2  0  0  0  0
  9  1  1  0  0  0  0
 11 16  1  0  0  0  0
 12 13  1  0  0  0  0
 12 11  2  0  0  0  0
 13  9  1  0  0  0  0
 14 12  1  0  0  0  0
 15 14  1  0  0  0  0
 17 13  1  0  0  0  0
 18 14  1  0  0  0  0
 19 21  1  0  0  0  0
 19  2  1  0  0  0  0
 20 19  1  0  0  0  0
 20 21  1  0  0  0  0
 20 24  1  0  0  0  0
 21 25  1  0  0  0  0
 22 19  1  0  0  0  0
 23 20  1  0  0  0  0
 26 21  1  0  0  0  0
M  END
>  <minimizedAffinity>
-4.70516062

>  <minimizedRMSD>
0.182868451

$$$$
