
 OpenBabel03252509193D

 42 44  0  0  1  0  0  0  0  0999 V2000
   47.9440   29.5690   48.1630 C   0  0  1  0  0  0  0  0  0  0  0  0
   49.2640   28.9290   48.3500 C   0  0  0  0  0  0  0  0  0  0  0  0
   50.4160   29.8950   48.4550 C   0  0  0  0  0  0  0  0  0  0  0  0
   50.1320   31.0780   49.3310 C   0  0  0  0  0  0  0  0  0  0  0  0
   48.7480   31.6380   49.1250 C   0  0  0  0  0  0  0  0  0  0  0  0
   48.1440   31.0670   47.8380 C   0  0  2  0  0  0  0  0  0  0  0  0
   47.3890   29.5880   49.1360 H   0  0  0  0  0  0  0  0  0  0  0  0
   49.4810   28.2260   47.5370 H   0  0  0  0  0  0  0  0  0  0  0  0
   49.2710   28.3310   49.2890 H   0  0  0  0  0  0  0  0  0  0  0  0
   51.2540   29.3470   48.9150 H   0  0  0  0  0  0  0  0  0  0  0  0
   50.6910   30.1830   47.4190 H   0  0  0  0  0  0  0  0  0  0  0  0
   50.8500   31.8800   49.0470 H   0  0  0  0  0  0  0  0  0  0  0  0
   50.3310   30.8400   50.4020 H   0  0  0  0  0  0  0  0  0  0  0  0
   48.6870   32.7350   49.1610 H   0  0  0  0  0  0  0  0  0  0  0  0
   48.1240   31.1970   49.9510 H   0  0  0  0  0  0  0  0  0  0  0  0
   48.8570   31.1740   46.9930 H   0  0  0  0  0  0  0  0  0  0  0  0
   46.8500   31.7000   47.5880 C   0  0  0  0  0  0  0  0  0  0  0  0
   45.9250   31.6900   48.4300 O   0  0  0  0  0  0  0  0  0  0  0  0
   44.7980   33.8940   47.4540 N   0  0  0  0  0  0  0  0  0  0  0  0
   45.3910   33.4240   46.4820 C   0  0  0  0  0  0  0  0  0  0  0  0
   46.3500   32.4020   46.4870 N   0  0  0  0  0  0  0  0  0  0  0  0
   44.9700   34.0710   45.2580 N   0  0  0  0  0  0  0  0  0  0  0  0
   45.1680   35.0650   44.9860 H   0  0  0  0  0  0  0  0  0  0  0  0
   44.8210   33.7110   48.4270 H   0  0  0  0  0  0  0  0  0  0  0  0
   46.7170   32.1820   45.5550 H   0  0  0  0  0  0  0  0  0  0  0  0
   44.4200   33.5440   44.5520 H   0  0  0  0  0  0  0  0  0  0  0  0
   46.1340   27.8400   44.9290 C   0  0  0  0  0  0  0  0  0  0  0  0
   45.3560   27.7500   46.0800 C   0  0  0  0  0  0  0  0  0  0  0  0
   45.8430   28.2740   47.2060 C   0  0  0  0  0  0  0  0  0  0  0  0
   47.1110   28.9030   47.2180 C   0  0  0  0  0  0  0  0  0  0  0  0
   47.6540   28.7290   45.4880 S   0  0  0  0  0  0  0  0  0  0  0  0
   44.3890   27.2690   46.0640 H   0  0  0  0  0  0  0  0  0  0  0  0
   45.3960   28.3000   48.1830 H   0  0  0  0  0  0  0  0  0  0  0  0
   44.4270   26.2510   42.0290 C   0  0  0  0  0  0  0  0  0  0  0  0
   45.3420   26.5250   41.0150 C   0  0  0  0  0  0  0  0  0  0  0  0
   46.5020   27.2350   41.3490 C   0  0  0  0  0  0  0  0  0  0  0  0
   46.6710   27.6210   42.6620 N   0  0  0  0  0  0  0  0  0  0  0  0
   45.7550   27.3300   43.5980 C   0  0  0  0  0  0  0  0  0  0  0  0
   44.6240   26.6390   43.2800 N   0  0  0  0  0  0  0  0  0  0  0  0
   43.5190   25.7160   41.8580 H   0  0  0  0  0  0  0  0  0  0  0  0
   45.1680   26.2060   40.0160 H   0  0  0  0  0  0  0  0  0  0  0  0
   47.2520   27.4840   40.6290 H   0  0  0  0  0  0  0  0  0  0  0  0
  1  2  1  0  0  0  0
  1  7  1  1  0  0  0
  2  3  1  0  0  0  0
  2  9  1  0  0  0  0
  3 10  1  0  0  0  0
  3  4  1  0  0  0  0
  4 13  1  0  0  0  0
  5 14  1  0  0  0  0
  5  4  1  0  0  0  0
  5 15  1  0  0  0  0
  6 16  1  6  0  0  0
  6  1  1  0  0  0  0
  6  5  1  0  0  0  0
  8  2  1  0  0  0  0
 11  3  1  0  0  0  0
 12  4  1  0  0  0  0
 17  6  1  0  0  0  0
 17 18  2  0  0  0  0
 19 24  1  0  0  0  0
 20 21  1  0  0  0  0
 20 19  2  0  0  0  0
 21 17  1  0  0  0  0
 22 20  1  0  0  0  0
 23 22  1  0  0  0  0
 25 21  1  0  0  0  0
 26 22  1  0  0  0  0
 27 31  1  0  0  0  0
 27 28  2  0  0  0  0
 28 29  1  0  0  0  0
 29 30  2  0  0  0  0
 29 33  1  0  0  0  0
 30  1  1  0  0  0  0
 31 30  1  0  0  0  0
 32 28  1  0  0  0  0
 34 39  1  0  0  0  0
 35 36  1  0  0  0  0
 35 34  2  0  0  0  0
 36 37  2  0  0  0  0
 37 38  1  0  0  0  0
 38 27  1  0  0  0  0
 39 38  2  0  0  0  0
 40 34  1  0  0  0  0
 41 35  1  0  0  0  0
 42 36  1  0  0  0  0
M  END
>  <minimizedAffinity>
-4.04963732

>  <minimizedRMSD>
5.50001192

$$$$
