
 OpenBabel03242523553D

 44 46  0  0  1  0  0  0  0  0999 V2000
   42.8090   34.5460   38.7350 C   0  0  1  0  0  0  0  0  0  0  0  0
   42.9500   35.1870   40.1060 C   0  0  1  0  0  0  0  0  0  0  0  0
   41.6520   35.3860   40.6320 O   0  0  0  0  0  0  0  0  0  0  0  0
   40.7220   35.7390   39.6450 C   0  0  0  0  0  0  0  0  0  0  0  0
   40.4300   34.5820   38.7120 C   0  0  2  0  0  0  0  0  0  0  0  0
   41.6510   33.6120   38.8280 C   0  0  1  0  0  0  0  0  0  0  0  0
   43.7620   34.0160   38.5340 H   0  0  0  0  0  0  0  0  0  0  0  0
   43.5130   36.1290   40.0900 H   0  0  0  0  0  0  0  0  0  0  0  0
   39.8010   35.9740   40.1770 H   0  0  0  0  0  0  0  0  0  0  0  0
   41.0090   36.6630   39.1020 H   0  0  0  0  0  0  0  0  0  0  0  0
   39.4970   34.0530   38.9860 H   0  0  0  0  0  0  0  0  0  0  0  0
   41.4410   33.3090   39.9080 H   0  0  0  0  0  0  0  0  0  0  0  0
   42.5850   35.5280   37.7520 O   0  0  0  0  0  0  0  0  0  0  0  0
   43.4310   35.6800   37.3000 H   0  0  0  0  0  0  0  0  0  0  0  0
   40.4430   35.0250   37.3980 O   0  0  0  0  0  0  0  0  0  0  0  0
   39.7260   34.5530   36.8880 H   0  0  0  0  0  0  0  0  0  0  0  0
   43.4930   34.1900   40.9270 O   0  0  0  0  0  0  0  0  0  0  0  0
   44.5930   34.3260   41.6760 C   0  0  0  0  0  0  0  0  0  0  0  0
   45.8550   34.4340   41.0920 C   0  0  0  0  0  0  0  0  0  0  0  0
   46.9680   34.5760   41.8960 C   0  0  0  0  0  0  0  0  0  0  0  0
   46.7960   34.6070   43.2710 N   0  0  0  0  0  0  0  0  0  0  0  0
   45.5600   34.5000   43.8070 C   0  0  0  0  0  0  0  0  0  0  0  0
   44.4670   34.3620   43.0140 N   0  0  0  0  0  0  0  0  0  0  0  0
   45.9620   34.4060   40.0160 H   0  0  0  0  0  0  0  0  0  0  0  0
   45.4240   34.5260   44.8870 H   0  0  0  0  0  0  0  0  0  0  0  0
   48.3520   34.6770   41.3330 C   0  0  0  0  0  0  0  0  0  0  0  0
   49.0650   36.0150   41.5100 C   0  0  0  0  0  0  0  0  0  0  0  0
   49.4940   34.7030   42.1950 C   0  0  0  0  0  0  0  0  0  0  0  0
   48.3980   34.2830   40.2950 H   0  0  0  0  0  0  0  0  0  0  0  0
   48.5510   36.7760   42.0960 H   0  0  0  0  0  0  0  0  0  0  0  0
   49.6910   36.3500   40.6860 H   0  0  0  0  0  0  0  0  0  0  0  0
   49.3440   34.7430   43.3000 H   0  0  0  0  0  0  0  0  0  0  0  0
   50.4880   34.2840   41.9390 H   0  0  0  0  0  0  0  0  0  0  0  0
   41.5320   32.6840   37.8580 O   0  0  0  0  0  0  0  0  0  0  0  0
   40.9320   31.4970   37.8260 C   0  0  0  0  0  0  0  0  0  0  0  0
   39.6360   31.3770   37.5630 O   0  0  0  0  0  0  0  0  0  0  0  0
   42.0550   29.5760   35.7930 N   0  0  0  0  0  0  0  0  0  0  0  0
   41.9620   29.3520   36.9970 C   0  0  0  0  0  0  0  0  0  0  0  0
   41.4610   30.1460   38.0390 N   0  0  0  0  0  0  0  0  0  0  0  0
   42.4760   28.0360   37.2990 N   0  0  0  0  0  0  0  0  0  0  0  0
   43.1800   27.8000   38.0310 H   0  0  0  0  0  0  0  0  0  0  0  0
   41.8240   30.3330   35.1990 H   0  0  0  0  0  0  0  0  0  0  0  0
   41.4900   29.7400   38.9860 H   0  0  0  0  0  0  0  0  0  0  0  0
   42.2580   27.1110   36.8680 H   0  0  0  0  0  0  0  0  0  0  0  0
  1  7  1  6  0  0  0
  1  6  1  0  0  0  0
  1  2  1  0  0  0  0
  2  8  1  6  0  0  0
  2  3  1  0  0  0  0
  2 17  1  0  0  0  0
  4  9  1  0  0  0  0
  4  3  1  0  0  0  0
  5  6  1  0  0  0  0
  5 11  1  1  0  0  0
  5  4  1  0  0  0  0
  6 12  1  1  0  0  0
 10  4  1  0  0  0  0
 13  1  1  0  0  0  0
 14 13  1  0  0  0  0
 15  5  1  0  0  0  0
 16 15  1  0  0  0  0
 17 18  1  0  0  0  0
 18 23  1  0  0  0  0
 19 18  2  0  0  0  0
 19 20  1  0  0  0  0
 20 21  2  0  0  0  0
 21 22  1  0  0  0  0
 22 25  1  0  0  0  0
 23 22  2  0  0  0  0
 24 19  1  0  0  0  0
 26 27  1  0  0  0  0
 26 20  1  0  0  0  0
 26 28  1  0  0  0  0
 27 30  1  0  0  0  0
 27 28  1  0  0  0  0
 28 32  1  0  0  0  0
 29 26  1  0  0  0  0
 31 27  1  0  0  0  0
 33 28  1  0  0  0  0
 34  6  1  0  0  0  0
 35 34  1  0  0  0  0
 35 39  1  0  0  0  0
 36 35  2  0  0  0  0
 37 38  2  0  0  0  0
 38 40  1  0  0  0  0
 38 39  1  0  0  0  0
 39 43  1  0  0  0  0
 40 41  1  0  0  0  0
 42 37  1  0  0  0  0
 44 40  1  0  0  0  0
M  END
>  <minimizedAffinity>
-5.87713575

>  <minimizedRMSD>
0.151151016

$$$$
