
 OpenBabel03252509193D

 42 44  0  0  1  0  0  0  0  0999 V2000
   48.6000   29.1850   47.8380 C   0  0  1  0  0  0  0  0  0  0  0  0
   49.9810   28.6700   47.9500 C   0  0  0  0  0  0  0  0  0  0  0  0
   50.9340   29.5950   48.6620 C   0  0  0  0  0  0  0  0  0  0  0  0
   50.3620   30.2110   49.9030 C   0  0  0  0  0  0  0  0  0  0  0  0
   48.9340   30.6580   49.7280 C   0  0  0  0  0  0  0  0  0  0  0  0
   48.5760   30.6780   48.2380 C   0  0  2  0  0  0  0  0  0  0  0  0
   47.9490   28.7000   48.6100 H   0  0  0  0  0  0  0  0  0  0  0  0
   50.4000   28.4420   46.9630 H   0  0  0  0  0  0  0  0  0  0  0  0
   49.9890   27.7140   48.5210 H   0  0  0  0  0  0  0  0  0  0  0  0
   51.7990   28.9870   48.9730 H   0  0  0  0  0  0  0  0  0  0  0  0
   51.2660   30.3510   47.9200 H   0  0  0  0  0  0  0  0  0  0  0  0
   50.9600   31.1250   50.1250 H   0  0  0  0  0  0  0  0  0  0  0  0
   50.4840   29.5330   50.7790 H   0  0  0  0  0  0  0  0  0  0  0  0
   48.6840   31.6050   50.2270 H   0  0  0  0  0  0  0  0  0  0  0  0
   48.3090   29.8270   50.1580 H   0  0  0  0  0  0  0  0  0  0  0  0
   49.3460   31.2320   47.6610 H   0  0  0  0  0  0  0  0  0  0  0  0
   47.2280   31.2190   48.0710 C   0  0  0  0  0  0  0  0  0  0  0  0
   46.2440   30.7720   48.7020 O   0  0  0  0  0  0  0  0  0  0  0  0
   44.5850   32.6490   48.1760 N   0  0  0  0  0  0  0  0  0  0  0  0
   45.4810   32.8830   47.3640 C   0  0  0  0  0  0  0  0  0  0  0  0
   46.7260   32.2470   47.2680 N   0  0  0  0  0  0  0  0  0  0  0  0
   45.0940   33.9470   46.4630 N   0  0  0  0  0  0  0  0  0  0  0  0
   44.9650   34.9570   46.7180 H   0  0  0  0  0  0  0  0  0  0  0  0
   44.4870   32.0080   48.9260 H   0  0  0  0  0  0  0  0  0  0  0  0
   47.3170   32.6200   46.5180 H   0  0  0  0  0  0  0  0  0  0  0  0
   44.9170   33.7420   45.4600 H   0  0  0  0  0  0  0  0  0  0  0  0
   47.4850   28.9170   43.9120 C   0  0  0  0  0  0  0  0  0  0  0  0
   46.5830   28.2820   44.7620 C   0  0  0  0  0  0  0  0  0  0  0  0
   46.8410   28.2960   46.0700 C   0  0  0  0  0  0  0  0  0  0  0  0
   47.9970   28.9410   46.5690 C   0  0  0  0  0  0  0  0  0  0  0  0
   48.7810   29.5740   45.0520 S   0  0  0  0  0  0  0  0  0  0  0  0
   45.7010   27.7920   44.3750 H   0  0  0  0  0  0  0  0  0  0  0  0
   46.2700   27.8640   46.8720 H   0  0  0  0  0  0  0  0  0  0  0  0
   46.5800   28.4410   40.3340 C   0  0  0  0  0  0  0  0  0  0  0  0
   47.3340   29.4550   39.7460 C   0  0  0  0  0  0  0  0  0  0  0  0
   48.1210   30.2590   40.5800 C   0  0  0  0  0  0  0  0  0  0  0  0
   48.1040   30.0020   41.9340 N   0  0  0  0  0  0  0  0  0  0  0  0
   47.3570   29.0110   42.4460 C   0  0  0  0  0  0  0  0  0  0  0  0
   46.5890   28.2250   41.6400 N   0  0  0  0  0  0  0  0  0  0  0  0
   45.9560   27.7860   39.7690 H   0  0  0  0  0  0  0  0  0  0  0  0
   47.3150   29.6150   38.6950 H   0  0  0  0  0  0  0  0  0  0  0  0
   48.7270   31.0560   40.2060 H   0  0  0  0  0  0  0  0  0  0  0  0
  1  2  1  0  0  0  0
  1  6  1  0  0  0  0
  1  7  1  1  0  0  0
  2  9  1  0  0  0  0
  2  3  1  0  0  0  0
  3 10  1  0  0  0  0
  3  4  1  0  0  0  0
  4 12  1  0  0  0  0
  4 13  1  0  0  0  0
  5  4  1  0  0  0  0
  5 15  1  0  0  0  0
  5 14  1  0  0  0  0
  6 16  1  6  0  0  0
  6  5  1  0  0  0  0
  8  2  1  0  0  0  0
 11  3  1  0  0  0  0
 17  6  1  0  0  0  0
 17 18  2  0  0  0  0
 19 24  1  0  0  0  0
 20 19  2  0  0  0  0
 21 20  1  0  0  0  0
 21 17  1  0  0  0  0
 22 23  1  0  0  0  0
 22 20  1  0  0  0  0
 25 21  1  0  0  0  0
 26 22  1  0  0  0  0
 27 28  2  0  0  0  0
 27 31  1  0  0  0  0
 28 29  1  0  0  0  0
 29 30  2  0  0  0  0
 29 33  1  0  0  0  0
 30  1  1  0  0  0  0
 31 30  1  0  0  0  0
 32 28  1  0  0  0  0
 34 39  1  0  0  0  0
 35 34  2  0  0  0  0
 35 36  1  0  0  0  0
 36 37  2  0  0  0  0
 37 38  1  0  0  0  0
 38 27  1  0  0  0  0
 39 38  2  0  0  0  0
 40 34  1  0  0  0  0
 41 35  1  0  0  0  0
 42 36  1  0  0  0  0
M  END
>  <minimizedAffinity>
-4.085289

>  <minimizedRMSD>
4.85310316

$$$$
