
     RDKit          3D

 21 21  0  0  0  0  0  0  0  0999 V2000
   44.9164   35.1334   44.0465 C   0  0  0  0  0  0  0  0  0  0  0  0
   45.7399   35.3736   42.9434 C   0  0  0  0  0  0  0  0  0  0  0  0
   46.9501   34.6644   42.8279 C   0  0  0  0  0  0  0  0  0  0  0  0
   47.2451   33.7849   43.8014 N   0  0  0  0  0  0  0  0  0  0  0  0
   46.4306   33.5757   44.8522 C   0  0  0  0  0  0  0  0  0  0  0  0
   45.2850   34.2484   44.9597 N   0  0  0  0  0  0  0  0  0  0  0  0
   43.6991   35.8470   44.1624 N   0  0  0  0  0  0  0  0  0  0  0  0
   47.7236   34.9923   41.6468 C   0  0  0  0  0  0  0  0  0  0  0  0
   48.6772   35.8152   41.6507 O   0  0  0  0  0  0  0  0  0  0  0  0
   45.4231   36.0994   42.2080 H   0  0  0  0  0  0  0  0  0  0  0  0
   46.7357   32.8458   45.6042 H   0  0  0  0  0  0  0  0  0  0  0  0
   44.0000   36.6902   44.7211 H   0  0  0  0  0  0  0  0  0  0  0  0
   43.0963   35.1806   43.6322 H   0  0  0  0  0  0  0  0  0  0  0  0
   47.8247   32.2640   41.2136 N   0  0  0  0  0  0  0  0  0  0  0  0
   47.4851   32.9621   40.1804 C   0  0  0  0  0  0  0  0  0  0  0  0
   47.4257   34.3718   40.3782 N   0  0  0  0  0  0  0  0  0  0  0  0
   47.1611   32.5306   38.8722 N   0  0  0  0  0  0  0  0  0  0  0  0
   46.2196   32.8716   38.5145 H   0  0  0  0  0  0  0  0  0  0  0  0
   47.8987   31.2416   41.1827 H   0  0  0  0  0  0  0  0  0  0  0  0
   47.1624   35.0382   39.6142 H   0  0  0  0  0  0  0  0  0  0  0  0
   47.6356   31.9406   38.1497 H   0  0  0  0  0  0  0  0  0  0  0  0
  1  7  1  0
  1  6  2  0
  2  1  1  0
  3  2  2  0
  3  4  1  0
  4  5  2  0
  5  6  1  0
  8  3  1  0
  9  8  2  0
  2 10  1  0
  5 11  1  0
  7 12  1  0
  7 13  1  0
 14 15  2  3
 15 16  1  0
 15 17  1  0
 17 18  1  0
 14 19  1  0
 16 20  1  0
 17 21  1  0
  8 16  1  0
M  ISO  3  10  14  11  14  18   5
M  END
>  <DihAtoms>  (1) 
2,7,15,14

>  <DihDeg>  (1) 
179.99947822698323

$$$$
