
 OpenBabel03242512283D

 21 21  0  0  0  0  0  0  0  0999 V2000
   44.9220   35.0320   44.4680 C   0  0  0  0  0  0  0  0  0  0  0  0
   45.8570   34.9030   43.4350 C   0  0  0  0  0  0  0  0  0  0  0  0
   46.9180   34.0070   43.6200 C   0  0  0  0  0  0  0  0  0  0  0  0
   46.9700   33.3250   44.7790 N   0  0  0  0  0  0  0  0  0  0  0  0
   46.0580   33.4710   45.7510 C   0  0  0  0  0  0  0  0  0  0  0  0
   45.0340   34.3200   45.6040 N   0  0  0  0  0  0  0  0  0  0  0  0
   43.8320   35.9420   44.3000 N   0  0  0  0  0  0  0  0  0  0  0  0
   45.7850   35.4610   42.5250 H   0  0  0  0  0  0  0  0  0  0  0  0
   47.6800   33.8540   42.8630 H   0  0  0  0  0  0  0  0  0  0  0  0
   42.8370   35.7950   44.5810 H   0  0  0  0  0  0  0  0  0  0  0  0
   44.0720   36.8430   43.8490 H   0  0  0  0  0  0  0  0  0  0  0  0
   46.1430   32.7190   46.9950 C   0  0  0  0  0  0  0  0  0  0  0  0
   45.2810   32.8160   47.9160 O   0  0  0  0  0  0  0  0  0  0  0  0
   46.3520   30.2650   45.7190 N   0  0  0  0  0  0  0  0  0  0  0  0
   47.3380   30.5780   46.5090 C   0  0  0  0  0  0  0  0  0  0  0  0
   47.2540   31.8330   47.1770 N   0  0  0  0  0  0  0  0  0  0  0  0
   48.5070   29.7950   46.7860 N   0  0  0  0  0  0  0  0  0  0  0  0
   49.2130   30.2310   46.1290 H   0  0  0  0  0  0  0  0  0  0  0  0
   46.3640   29.3440   45.1980 H   0  0  0  0  0  0  0  0  0  0  0  0
   48.0300   32.1420   47.8360 H   0  0  0  0  0  0  0  0  0  0  0  0
   48.6950   29.0020   47.4350 H   0  0  0  0  0  0  0  0  0  0  0  0
  1  6  1  0  0  0  0
  2  3  1  0  0  0  0
  2  1  2  0  0  0  0
  3  4  2  0  0  0  0
  4  5  1  0  0  0  0
  5 12  1  0  0  0  0
  6  5  2  0  0  0  0
  7  1  1  0  0  0  0
  7 10  1  0  0  0  0
  8  2  1  0  0  0  0
  9  3  1  0  0  0  0
 11  7  1  0  0  0  0
 12 16  1  0  0  0  0
 12 13  2  0  0  0  0
 14 15  2  0  0  0  0
 15 17  1  0  0  0  0
 15 16  1  0  0  0  0
 16 20  1  0  0  0  0
 17 21  1  0  0  0  0
 18 17  1  0  0  0  0
 19 14  1  0  0  0  0
M  END
>  <minimizedAffinity>
-4.41500473

>  <minimizedRMSD>
0.410972744

$$$$
