
 OpenBabel03242515023D

 36 37  0  0  0  0  0  0  0  0999 V2000
   39.1090   29.8870   42.4930 S   0  0  0  0  0  0  0  0  0  0  0  0
   38.8650   31.2380   41.3380 C   0  0  0  0  0  0  0  0  0  0  0  0
   37.5680   31.4250   40.8440 C   0  0  0  0  0  0  0  0  0  0  0  0
   37.3260   32.4590   39.9460 C   0  0  0  0  0  0  0  0  0  0  0  0
   38.3760   33.2360   39.5950 N   0  0  0  0  0  0  0  0  0  0  0  0
   39.6280   33.0520   40.0760 C   0  0  0  0  0  0  0  0  0  0  0  0
   39.8450   32.0620   40.9320 N   0  0  0  0  0  0  0  0  0  0  0  0
   36.7060   30.8360   41.0930 H   0  0  0  0  0  0  0  0  0  0  0  0
   36.3450   32.6360   39.5430 H   0  0  0  0  0  0  0  0  0  0  0  0
   40.6570   33.9640   39.6090 C   0  0  0  0  0  0  0  0  0  0  0  0
   41.2200   34.6700   40.4760 O   0  0  0  0  0  0  0  0  0  0  0  0
   43.3150   34.6190   38.6760 N   0  0  0  0  0  0  0  0  0  0  0  0
   42.2990   34.3290   37.9920 C   0  0  0  0  0  0  0  0  0  0  0  0
   40.9420   33.9860   38.2330 N   0  0  0  0  0  0  0  0  0  0  0  0
   42.8540   34.4230   36.6740 N   0  0  0  0  0  0  0  0  0  0  0  0
   43.2320   35.2730   36.1600 H   0  0  0  0  0  0  0  0  0  0  0  0
   43.4940   34.7030   39.6740 H   0  0  0  0  0  0  0  0  0  0  0  0
   40.3070   33.7920   37.4500 H   0  0  0  0  0  0  0  0  0  0  0  0
   43.0480   33.7630   35.8770 H   0  0  0  0  0  0  0  0  0  0  0  0
   37.5730   29.0310   42.8780 C   0  0  0  0  0  0  0  0  0  0  0  0
   37.1470   28.6300   41.9320 H   0  0  0  0  0  0  0  0  0  0  0  0
   36.8200   29.7250   43.3320 H   0  0  0  0  0  0  0  0  0  0  0  0
   37.7580   27.8620   43.7990 C   0  0  0  0  0  0  0  0  0  0  0  0
   38.7030   28.0120   44.3730 H   0  0  0  0  0  0  0  0  0  0  0  0
   36.9490   27.7380   44.5330 H   0  0  0  0  0  0  0  0  0  0  0  0
   40.4650   26.4710   44.0400 Cl  0  0  0  0  0  0  0  0  0  0  0  0
   39.1400   25.8890   43.0650 C   0  0  0  0  0  0  0  0  0  0  0  0
   37.9400   26.6130   43.0310 C   0  0  0  0  0  0  0  0  0  0  0  0
   36.9430   26.0900   42.2410 C   0  0  0  0  0  0  0  0  0  0  0  0
   37.0300   24.9190   41.4840 C   0  0  0  0  0  0  0  0  0  0  0  0
   38.2230   24.2280   41.5370 C   0  0  0  0  0  0  0  0  0  0  0  0
   38.4120   22.7490   40.6170 Cl  0  0  0  0  0  0  0  0  0  0  0  0
   39.2470   24.7160   42.3160 C   0  0  0  0  0  0  0  0  0  0  0  0
   36.0190   26.6540   42.2180 H   0  0  0  0  0  0  0  0  0  0  0  0
   36.1780   24.5970   40.8920 H   0  0  0  0  0  0  0  0  0  0  0  0
   40.1670   24.1420   42.3290 H   0  0  0  0  0  0  0  0  0  0  0  0
  1 20  1  0  0  0  0
  2  1  1  0  0  0  0
  3  8  1  0  0  0  0
  3  2  2  0  0  0  0
  4  3  1  0  0  0  0
  5  4  2  0  0  0  0
  5  6  1  0  0  0  0
  6  7  2  0  0  0  0
  7  2  1  0  0  0  0
  9  4  1  0  0  0  0
 10  6  1  0  0  0  0
 10 11  2  0  0  0  0
 12 17  1  0  0  0  0
 13 14  1  0  0  0  0
 13 12  2  0  0  0  0
 14 10  1  0  0  0  0
 15 13  1  0  0  0  0
 16 15  1  0  0  0  0
 18 14  1  0  0  0  0
 19 15  1  0  0  0  0
 20 22  1  0  0  0  0
 20 23  1  0  0  0  0
 21 20  1  0  0  0  0
 23 24  1  0  0  0  0
 23 25  1  0  0  0  0
 27 26  1  0  0  0  0
 28 27  1  0  0  0  0
 28 23  1  0  0  0  0
 29 28  2  0  0  0  0
 30 31  2  0  0  0  0
 30 29  1  0  0  0  0
 31 33  1  0  0  0  0
 32 31  1  0  0  0  0
 33 36  1  0  0  0  0
 33 27  2  0  0  0  0
 34 29  1  0  0  0  0
 35 30  1  0  0  0  0
M  END
>  <minimizedAffinity>
-6.77275991

$$$$

 OpenBabel03242515023D

 36 37  0  0  0  0  0  0  0  0999 V2000
   36.7530   29.9410   41.2280 S   0  0  0  0  0  0  0  0  0  0  0  0
   38.0710   30.2700   40.0560 C   0  0  0  0  0  0  0  0  0  0  0  0
   38.5090   29.1930   39.2740 C   0  0  0  0  0  0  0  0  0  0  0  0
   39.5290   29.3950   38.3510 C   0  0  0  0  0  0  0  0  0  0  0  0
   40.0480   30.6410   38.2600 N   0  0  0  0  0  0  0  0  0  0  0  0
   39.6210   31.6780   39.0180 C   0  0  0  0  0  0  0  0  0  0  0  0
   38.6480   31.4720   39.8950 N   0  0  0  0  0  0  0  0  0  0  0  0
   38.1290   28.1900   39.3090 H   0  0  0  0  0  0  0  0  0  0  0  0
   39.8940   28.5960   37.7310 H   0  0  0  0  0  0  0  0  0  0  0  0
   40.2730   32.9600   38.8130 C   0  0  0  0  0  0  0  0  0  0  0  0
   40.1920   33.7890   39.7470 O   0  0  0  0  0  0  0  0  0  0  0  0
   42.5700   34.7120   38.6880 N   0  0  0  0  0  0  0  0  0  0  0  0
   42.0350   34.0620   37.7520 C   0  0  0  0  0  0  0  0  0  0  0  0
   40.9390   33.1720   37.5940 N   0  0  0  0  0  0  0  0  0  0  0  0
   42.8850   34.4490   36.6650 N   0  0  0  0  0  0  0  0  0  0  0  0
   43.0180   35.4060   36.2210 H   0  0  0  0  0  0  0  0  0  0  0  0
   42.3760   34.8100   39.6810 H   0  0  0  0  0  0  0  0  0  0  0  0
   40.7220   32.7730   36.6730 H   0  0  0  0  0  0  0  0  0  0  0  0
   43.5720   33.9730   36.0250 H   0  0  0  0  0  0  0  0  0  0  0  0
   36.4550   28.1790   41.4450 C   0  0  0  0  0  0  0  0  0  0  0  0
   37.1380   27.6200   40.7680 H   0  0  0  0  0  0  0  0  0  0  0  0
   35.4020   27.9070   41.1790 H   0  0  0  0  0  0  0  0  0  0  0  0
   36.7340   27.6950   42.8360 C   0  0  0  0  0  0  0  0  0  0  0  0
   36.7740   28.5800   43.5160 H   0  0  0  0  0  0  0  0  0  0  0  0
   35.9690   27.0140   43.2360 H   0  0  0  0  0  0  0  0  0  0  0  0
   36.8890   24.7150   42.1940 Cl  0  0  0  0  0  0  0  0  0  0  0  0
   38.2570   25.7000   42.6410 C   0  0  0  0  0  0  0  0  0  0  0  0
   38.0660   27.0610   42.9140 C   0  0  0  0  0  0  0  0  0  0  0  0
   39.1930   27.7700   43.2600 C   0  0  0  0  0  0  0  0  0  0  0  0
   40.4870   27.2520   43.3580 C   0  0  0  0  0  0  0  0  0  0  0  0
   40.6430   25.9100   43.0830 C   0  0  0  0  0  0  0  0  0  0  0  0
   42.2350   25.1830   43.1830 Cl  0  0  0  0  0  0  0  0  0  0  0  0
   39.5420   25.1620   42.7330 C   0  0  0  0  0  0  0  0  0  0  0  0
   39.0390   28.8210   43.4700 H   0  0  0  0  0  0  0  0  0  0  0  0
   41.3070   27.9050   43.6400 H   0  0  0  0  0  0  0  0  0  0  0  0
   39.7100   24.1110   42.5260 H   0  0  0  0  0  0  0  0  0  0  0  0
  1 20  1  0  0  0  0
  2  1  1  0  0  0  0
  3  8  1  0  0  0  0
  3  2  2  0  0  0  0
  4  3  1  0  0  0  0
  5  4  2  0  0  0  0
  5  6  1  0  0  0  0
  6  7  2  0  0  0  0
  7  2  1  0  0  0  0
  9  4  1  0  0  0  0
 10  6  1  0  0  0  0
 10 11  2  0  0  0  0
 12 17  1  0  0  0  0
 13 12  2  0  0  0  0
 14 13  1  0  0  0  0
 14 10  1  0  0  0  0
 15 13  1  0  0  0  0
 16 15  1  0  0  0  0
 18 14  1  0  0  0  0
 19 15  1  0  0  0  0
 20 23  1  0  0  0  0
 21 20  1  0  0  0  0
 22 20  1  0  0  0  0
 23 28  1  0  0  0  0
 23 25  1  0  0  0  0
 23 24  1  0  0  0  0
 26 27  1  0  0  0  0
 27 33  2  0  0  0  0
 27 28  1  0  0  0  0
 28 29  2  0  0  0  0
 29 30  1  0  0  0  0
 29 34  1  0  0  0  0
 30 35  1  0  0  0  0
 31 32  1  0  0  0  0
 31 30  2  0  0  0  0
 33 31  1  0  0  0  0
 36 33  1  0  0  0  0
M  END
>  <minimizedAffinity>
-6.45684814

$$$$

 OpenBabel03242515023D

 36 37  0  0  0  0  0  0  0  0999 V2000
   36.8720   30.8310   39.0760 S   0  0  0  0  0  0  0  0  0  0  0  0
   38.1350   32.0860   39.2930 C   0  0  0  0  0  0  0  0  0  0  0  0
   37.8060   33.1880   40.0920 C   0  0  0  0  0  0  0  0  0  0  0  0
   38.7490   34.1890   40.2920 C   0  0  0  0  0  0  0  0  0  0  0  0
   39.9520   34.0380   39.6920 N   0  0  0  0  0  0  0  0  0  0  0  0
   40.2660   32.9710   38.9200 C   0  0  0  0  0  0  0  0  0  0  0  0
   39.3560   32.0240   38.7370 N   0  0  0  0  0  0  0  0  0  0  0  0
   36.8680   33.3510   40.5890 H   0  0  0  0  0  0  0  0  0  0  0  0
   38.5360   35.0510   40.8990 H   0  0  0  0  0  0  0  0  0  0  0  0
   41.5970   32.9440   38.3370 C   0  0  0  0  0  0  0  0  0  0  0  0
   41.7270   32.3220   37.2590 O   0  0  0  0  0  0  0  0  0  0  0  0
   43.8140   34.0910   36.8780 N   0  0  0  0  0  0  0  0  0  0  0  0
   43.6130   34.0970   38.1210 C   0  0  0  0  0  0  0  0  0  0  0  0
   42.6270   33.6120   39.0210 N   0  0  0  0  0  0  0  0  0  0  0  0
   44.7750   34.8170   38.5540 N   0  0  0  0  0  0  0  0  0  0  0  0
   45.8000   34.5400   38.4970 H   0  0  0  0  0  0  0  0  0  0  0  0
   43.3040   33.7160   36.0820 H   0  0  0  0  0  0  0  0  0  0  0  0
   42.7240   33.7670   40.0310 H   0  0  0  0  0  0  0  0  0  0  0  0
   44.9730   35.7420   39.0170 H   0  0  0  0  0  0  0  0  0  0  0  0
   36.0020   30.4640   40.6080 C   0  0  0  0  0  0  0  0  0  0  0  0
   35.0470   31.0350   40.6170 H   0  0  0  0  0  0  0  0  0  0  0  0
   36.6000   30.7740   41.5030 H   0  0  0  0  0  0  0  0  0  0  0  0
   35.6410   29.0160   40.7560 C   0  0  0  0  0  0  0  0  0  0  0  0
   34.7010   28.9470   41.3560 H   0  0  0  0  0  0  0  0  0  0  0  0
   35.4540   28.5010   39.8020 H   0  0  0  0  0  0  0  0  0  0  0  0
   36.4420   26.2500   39.7440 Cl  0  0  0  0  0  0  0  0  0  0  0  0
   37.1180   27.0180   41.1580 C   0  0  0  0  0  0  0  0  0  0  0  0
   36.6720   28.2930   41.5270 C   0  0  0  0  0  0  0  0  0  0  0  0
   37.2520   28.8320   42.6520 C   0  0  0  0  0  0  0  0  0  0  0  0
   38.2310   28.2200   43.4400 C   0  0  0  0  0  0  0  0  0  0  0  0
   38.6500   26.9650   43.0500 C   0  0  0  0  0  0  0  0  0  0  0  0
   39.8750   26.1300   43.9840 Cl  0  0  0  0  0  0  0  0  0  0  0  0
   38.0960   26.3890   41.9310 C   0  0  0  0  0  0  0  0  0  0  0  0
   36.9030   29.8180   42.9340 H   0  0  0  0  0  0  0  0  0  0  0  0
   38.6210   28.7370   44.3110 H   0  0  0  0  0  0  0  0  0  0  0  0
   38.4530   25.4020   41.6600 H   0  0  0  0  0  0  0  0  0  0  0  0
  1  2  1  0  0  0  0
  1 20  1  0  0  0  0
  2  3  1  0  0  0  0
  3  4  2  0  0  0  0
  3  8  1  0  0  0  0
  4  9  1  0  0  0  0
  5  4  1  0  0  0  0
  6  5  2  0  0  0  0
  7  6  1  0  0  0  0
  7  2  2  0  0  0  0
 10  6  1  0  0  0  0
 10 14  1  0  0  0  0
 11 10  2  0  0  0  0
 12 13  2  0  0  0  0
 13 15  1  0  0  0  0
 13 14  1  0  0  0  0
 14 18  1  0  0  0  0
 15 19  1  0  0  0  0
 16 15  1  0  0  0  0
 17 12  1  0  0  0  0
 20 21  1  0  0  0  0
 20 23  1  0  0  0  0
 20 22  1  0  0  0  0
 23 24  1  0  0  0  0
 23 28  1  0  0  0  0
 25 23  1  0  0  0  0
 26 27  1  0  0  0  0
 27 28  2  0  0  0  0
 27 33  1  0  0  0  0
 28 29  1  0  0  0  0
 29 34  1  0  0  0  0
 29 30  2  0  0  0  0
 30 35  1  0  0  0  0
 31 30  1  0  0  0  0
 31 32  1  0  0  0  0
 33 31  2  0  0  0  0
 36 33  1  0  0  0  0
M  END
>  <minimizedAffinity>
-6.37408161

$$$$

 OpenBabel03242515023D

 36 37  0  0  0  0  0  0  0  0999 V2000
   37.0190   31.2140   39.4490 S   0  0  0  0  0  0  0  0  0  0  0  0
   38.0630   32.6470   39.7200 C   0  0  0  0  0  0  0  0  0  0  0  0
   37.4370   33.9000   39.7080 C   0  0  0  0  0  0  0  0  0  0  0  0
   38.2010   35.0440   39.9120 C   0  0  0  0  0  0  0  0  0  0  0  0
   39.5280   34.8760   40.1130 N   0  0  0  0  0  0  0  0  0  0  0  0
   40.1290   33.6630   40.1230 C   0  0  0  0  0  0  0  0  0  0  0  0
   39.3880   32.5800   39.9270 N   0  0  0  0  0  0  0  0  0  0  0  0
   36.3900   34.0830   39.5540 H   0  0  0  0  0  0  0  0  0  0  0  0
   37.7600   36.0230   39.9110 H   0  0  0  0  0  0  0  0  0  0  0  0
   41.5640   33.6360   40.3500 C   0  0  0  0  0  0  0  0  0  0  0  0
   42.2960   33.7270   39.3380 O   0  0  0  0  0  0  0  0  0  0  0  0
   44.0870   34.8030   41.1440 N   0  0  0  0  0  0  0  0  0  0  0  0
   43.2730   34.1540   41.8500 C   0  0  0  0  0  0  0  0  0  0  0  0
   42.0180   33.5120   41.6730 N   0  0  0  0  0  0  0  0  0  0  0  0
   43.9630   34.1780   43.1070 N   0  0  0  0  0  0  0  0  0  0  0  0
   44.8910   33.7350   43.3760 H   0  0  0  0  0  0  0  0  0  0  0  0
   44.1040   35.0890   40.1680 H   0  0  0  0  0  0  0  0  0  0  0  0
   41.5620   33.0360   42.4600 H   0  0  0  0  0  0  0  0  0  0  0  0
   43.7980   34.5910   44.0610 H   0  0  0  0  0  0  0  0  0  0  0  0
   36.3630   30.5450   40.9860 C   0  0  0  0  0  0  0  0  0  0  0  0
   35.5750   29.7990   40.7390 H   0  0  0  0  0  0  0  0  0  0  0  0
   35.8970   31.3460   41.6150 H   0  0  0  0  0  0  0  0  0  0  0  0
   37.3900   29.8300   41.8110 C   0  0  0  0  0  0  0  0  0  0  0  0
   38.4020   30.0950   41.4200 H   0  0  0  0  0  0  0  0  0  0  0  0
   37.3750   30.0990   42.8780 H   0  0  0  0  0  0  0  0  0  0  0  0
   37.0790   28.1890   44.3670 Cl  0  0  0  0  0  0  0  0  0  0  0  0
   37.1150   27.5140   42.7590 C   0  0  0  0  0  0  0  0  0  0  0  0
   37.2630   28.3670   41.6570 C   0  0  0  0  0  0  0  0  0  0  0  0
   37.2820   27.7590   40.4230 C   0  0  0  0  0  0  0  0  0  0  0  0
   37.1680   26.3870   40.1860 C   0  0  0  0  0  0  0  0  0  0  0  0
   37.0240   25.5730   41.2900 C   0  0  0  0  0  0  0  0  0  0  0  0
   36.8750   23.8400   41.0780 Cl  0  0  0  0  0  0  0  0  0  0  0  0
   37.0000   26.1390   42.5440 C   0  0  0  0  0  0  0  0  0  0  0  0
   37.3970   28.4230   39.5750 H   0  0  0  0  0  0  0  0  0  0  0  0
   37.1970   26.0130   39.1670 H   0  0  0  0  0  0  0  0  0  0  0  0
   36.8850   25.4630   43.3840 H   0  0  0  0  0  0  0  0  0  0  0  0
  1  2  1  0  0  0  0
  1 20  1  0  0  0  0
  2  7  1  0  0  0  0
  3  2  2  0  0  0  0
  3  4  1  0  0  0  0
  4  5  2  0  0  0  0
  5  6  1  0  0  0  0
  6 10  1  0  0  0  0
  7  6  2  0  0  0  0
  8  3  1  0  0  0  0
  9  4  1  0  0  0  0
 10 14  1  0  0  0  0
 11 10  2  0  0  0  0
 12 13  2  0  0  0  0
 13 15  1  0  0  0  0
 14 13  1  0  0  0  0
 14 18  1  0  0  0  0
 15 16  1  0  0  0  0
 15 19  1  0  0  0  0
 17 12  1  0  0  0  0
 20 22  1  0  0  0  0
 20 23  1  0  0  0  0
 21 20  1  0  0  0  0
 23 25  1  0  0  0  0
 24 23  1  0  0  0  0
 27 26  1  0  0  0  0
 28 23  1  0  0  0  0
 28 27  2  0  0  0  0
 29 28  1  0  0  0  0
 30 29  2  0  0  0  0
 30 31  1  0  0  0  0
 31 33  2  0  0  0  0
 32 31  1  0  0  0  0
 33 27  1  0  0  0  0
 33 36  1  0  0  0  0
 34 29  1  0  0  0  0
 35 30  1  0  0  0  0
M  END
>  <minimizedAffinity>
-6.22840118

$$$$

 OpenBabel03242515023D

 36 37  0  0  0  0  0  0  0  0999 V2000
   38.9090   29.8200   42.6290 S   0  0  0  0  0  0  0  0  0  0  0  0
   38.7120   31.1170   41.4060 C   0  0  0  0  0  0  0  0  0  0  0  0
   37.4510   31.2400   40.8090 C   0  0  0  0  0  0  0  0  0  0  0  0
   37.2450   32.2300   39.8540 C   0  0  0  0  0  0  0  0  0  0  0  0
   38.2940   33.0300   39.5520 N   0  0  0  0  0  0  0  0  0  0  0  0
   39.5110   32.9070   40.1330 C   0  0  0  0  0  0  0  0  0  0  0  0
   39.6930   31.9590   41.0420 N   0  0  0  0  0  0  0  0  0  0  0  0
   36.5910   30.6320   41.0150 H   0  0  0  0  0  0  0  0  0  0  0  0
   36.2930   32.3580   39.3720 H   0  0  0  0  0  0  0  0  0  0  0  0
   40.5440   33.8370   39.7080 C   0  0  0  0  0  0  0  0  0  0  0  0
   41.1110   34.4980   40.6070 O   0  0  0  0  0  0  0  0  0  0  0  0
   43.2030   34.5240   38.8040 N   0  0  0  0  0  0  0  0  0  0  0  0
   42.1840   34.2710   38.1080 C   0  0  0  0  0  0  0  0  0  0  0  0
   40.8260   33.9230   38.3350 N   0  0  0  0  0  0  0  0  0  0  0  0
   42.7380   34.4260   36.7950 N   0  0  0  0  0  0  0  0  0  0  0  0
   43.1190   35.2990   36.3220 H   0  0  0  0  0  0  0  0  0  0  0  0
   43.3830   34.5590   39.8040 H   0  0  0  0  0  0  0  0  0  0  0  0
   40.1900   33.7700   37.5440 H   0  0  0  0  0  0  0  0  0  0  0  0
   42.9280   33.8040   35.9670 H   0  0  0  0  0  0  0  0  0  0  0  0
   37.4220   28.8230   42.8150 C   0  0  0  0  0  0  0  0  0  0  0  0
   36.7090   29.1000   42.0070 H   0  0  0  0  0  0  0  0  0  0  0  0
   36.9230   29.0120   43.7990 H   0  0  0  0  0  0  0  0  0  0  0  0
   37.6720   27.3500   42.6830 C   0  0  0  0  0  0  0  0  0  0  0  0
   38.7760   27.1810   42.6590 H   0  0  0  0  0  0  0  0  0  0  0  0
   37.2710   26.7510   43.5140 H   0  0  0  0  0  0  0  0  0  0  0  0
   37.6350   24.3210   42.3040 Cl  0  0  0  0  0  0  0  0  0  0  0  0
   37.0890   25.4710   41.1110 C   0  0  0  0  0  0  0  0  0  0  0  0
   37.1540   26.8420   41.3970 C   0  0  0  0  0  0  0  0  0  0  0  0
   36.7050   27.6850   40.4070 C   0  0  0  0  0  0  0  0  0  0  0  0
   36.2010   27.2920   39.1650 C   0  0  0  0  0  0  0  0  0  0  0  0
   36.1500   25.9370   38.9130 C   0  0  0  0  0  0  0  0  0  0  0  0
   35.5300   25.3610   37.3780 Cl  0  0  0  0  0  0  0  0  0  0  0  0
   36.5880   25.0570   39.8760 C   0  0  0  0  0  0  0  0  0  0  0  0
   36.7580   28.7430   40.6330 H   0  0  0  0  0  0  0  0  0  0  0  0
   35.8740   28.0450   38.4550 H   0  0  0  0  0  0  0  0  0  0  0  0
   36.5310   24.0020   39.6370 H   0  0  0  0  0  0  0  0  0  0  0  0
  1 20  1  0  0  0  0
  2  1  1  0  0  0  0
  3  8  1  0  0  0  0
  3  2  2  0  0  0  0
  4  3  1  0  0  0  0
  5  4  2  0  0  0  0
  5  6  1  0  0  0  0
  6  7  2  0  0  0  0
  7  2  1  0  0  0  0
  9  4  1  0  0  0  0
 10  6  1  0  0  0  0
 10 11  2  0  0  0  0
 12 17  1  0  0  0  0
 13 14  1  0  0  0  0
 13 12  2  0  0  0  0
 14 10  1  0  0  0  0
 15 13  1  0  0  0  0
 16 15  1  0  0  0  0
 18 14  1  0  0  0  0
 19 15  1  0  0  0  0
 20 22  1  0  0  0  0
 21 20  1  0  0  0  0
 23 20  1  0  0  0  0
 23 25  1  0  0  0  0
 24 23  1  0  0  0  0
 27 28  1  0  0  0  0
 27 26  1  0  0  0  0
 28 23  1  0  0  0  0
 29 34  1  0  0  0  0
 29 28  2  0  0  0  0
 30 29  1  0  0  0  0
 31 30  2  0  0  0  0
 31 33  1  0  0  0  0
 32 31  1  0  0  0  0
 33 27  2  0  0  0  0
 35 30  1  0  0  0  0
 36 33  1  0  0  0  0
M  END
>  <minimizedAffinity>
-6.18740129

$$$$

 OpenBabel03242515023D

 36 37  0  0  0  0  0  0  0  0999 V2000
   36.4720   29.6570   38.6700 S   0  0  0  0  0  0  0  0  0  0  0  0
   37.5780   31.0150   39.0580 C   0  0  0  0  0  0  0  0  0  0  0  0
   37.1900   31.8740   40.0940 C   0  0  0  0  0  0  0  0  0  0  0  0
   38.0110   32.9430   40.4350 C   0  0  0  0  0  0  0  0  0  0  0  0
   39.1580   33.0930   39.7330 N   0  0  0  0  0  0  0  0  0  0  0  0
   39.5290   32.2610   38.7330 C   0  0  0  0  0  0  0  0  0  0  0  0
   38.7360   31.2450   38.4180 N   0  0  0  0  0  0  0  0  0  0  0  0
   36.2930   31.7950   40.6790 H   0  0  0  0  0  0  0  0  0  0  0  0
   37.7500   33.6250   41.2240 H   0  0  0  0  0  0  0  0  0  0  0  0
   40.7880   32.5470   38.0660 C   0  0  0  0  0  0  0  0  0  0  0  0
   40.9130   32.1260   36.8940 O   0  0  0  0  0  0  0  0  0  0  0  0
   42.6540   34.2590   36.6700 N   0  0  0  0  0  0  0  0  0  0  0  0
   42.5710   34.0420   37.9080 C   0  0  0  0  0  0  0  0  0  0  0  0
   41.7610   33.2660   38.7790 N   0  0  0  0  0  0  0  0  0  0  0  0
   43.6430   34.8720   38.3750 N   0  0  0  0  0  0  0  0  0  0  0  0
   44.6880   34.7840   38.2040 H   0  0  0  0  0  0  0  0  0  0  0  0
   42.1370   33.9290   35.8600 H   0  0  0  0  0  0  0  0  0  0  0  0
   41.9270   33.2800   39.7920 H   0  0  0  0  0  0  0  0  0  0  0  0
   43.7370   35.7360   38.9700 H   0  0  0  0  0  0  0  0  0  0  0  0
   36.7880   28.2050   39.6850 C   0  0  0  0  0  0  0  0  0  0  0  0
   37.8500   27.9040   39.5480 H   0  0  0  0  0  0  0  0  0  0  0  0
   36.1400   27.3440   39.3800 H   0  0  0  0  0  0  0  0  0  0  0  0
   36.5940   28.4500   41.1510 C   0  0  0  0  0  0  0  0  0  0  0  0
   36.3950   29.5380   41.3030 H   0  0  0  0  0  0  0  0  0  0  0  0
   35.7470   27.9020   41.5890 H   0  0  0  0  0  0  0  0  0  0  0  0
   36.8850   25.6290   42.2790 Cl  0  0  0  0  0  0  0  0  0  0  0  0
   38.0740   26.8930   42.4640 C   0  0  0  0  0  0  0  0  0  0  0  0
   37.8310   28.1530   41.9020 C   0  0  0  0  0  0  0  0  0  0  0  0
   38.8140   29.0960   42.0910 C   0  0  0  0  0  0  0  0  0  0  0  0
   40.0110   28.9020   42.7850 C   0  0  0  0  0  0  0  0  0  0  0  0
   40.2210   27.6510   43.3270 C   0  0  0  0  0  0  0  0  0  0  0  0
   41.6980   27.3250   44.2130 Cl  0  0  0  0  0  0  0  0  0  0  0  0
   39.2630   26.6770   43.1620 C   0  0  0  0  0  0  0  0  0  0  0  0
   38.6210   30.0680   41.6540 H   0  0  0  0  0  0  0  0  0  0  0  0
   40.7200   29.7190   42.8740 H   0  0  0  0  0  0  0  0  0  0  0  0
   39.4690   25.7090   43.6040 H   0  0  0  0  0  0  0  0  0  0  0  0
  1  2  1  0  0  0  0
  1 20  1  0  0  0  0
  2  3  1  0  0  0  0
  3  4  2  0  0  0  0
  3  8  1  0  0  0  0
  4  9  1  0  0  0  0
  5  4  1  0  0  0  0
  6  5  2  0  0  0  0
  7  6  1  0  0  0  0
  7  2  2  0  0  0  0
 10  6  1  0  0  0  0
 10 14  1  0  0  0  0
 11 10  2  0  0  0  0
 12 13  2  0  0  0  0
 13 15  1  0  0  0  0
 13 14  1  0  0  0  0
 14 18  1  0  0  0  0
 15 19  1  0  0  0  0
 16 15  1  0  0  0  0
 17 12  1  0  0  0  0
 20 23  1  0  0  0  0
 21 20  1  0  0  0  0
 22 20  1  0  0  0  0
 23 24  1  0  0  0  0
 23 25  1  0  0  0  0
 23 28  1  0  0  0  0
 26 27  1  0  0  0  0
 27 33  1  0  0  0  0
 28 29  1  0  0  0  0
 28 27  2  0  0  0  0
 29 30  2  0  0  0  0
 30 35  1  0  0  0  0
 30 31  1  0  0  0  0
 31 32  1  0  0  0  0
 33 31  2  0  0  0  0
 33 36  1  0  0  0  0
 34 29  1  0  0  0  0
M  END
>  <minimizedAffinity>
-6.14803219

$$$$

 OpenBabel03242515023D

 36 37  0  0  0  0  0  0  0  0999 V2000
   37.2440   30.7770   38.8570 S   0  0  0  0  0  0  0  0  0  0  0  0
   38.1520   32.2260   39.3980 C   0  0  0  0  0  0  0  0  0  0  0  0
   37.4200   33.4080   39.5700 C   0  0  0  0  0  0  0  0  0  0  0  0
   38.0760   34.5600   39.9880 C   0  0  0  0  0  0  0  0  0  0  0  0
   39.4080   34.4710   40.2090 N   0  0  0  0  0  0  0  0  0  0  0  0
   40.1120   33.3270   40.0420 C   0  0  0  0  0  0  0  0  0  0  0  0
   39.4730   32.2350   39.6420 N   0  0  0  0  0  0  0  0  0  0  0  0
   36.3650   33.5270   39.4080 H   0  0  0  0  0  0  0  0  0  0  0  0
   37.5510   35.4870   40.1320 H   0  0  0  0  0  0  0  0  0  0  0  0
   41.5380   33.3800   40.3150 C   0  0  0  0  0  0  0  0  0  0  0  0
   42.3040   33.2830   39.3300 O   0  0  0  0  0  0  0  0  0  0  0  0
   44.0100   34.7440   40.9370 N   0  0  0  0  0  0  0  0  0  0  0  0
   43.1820   34.2300   41.7340 C   0  0  0  0  0  0  0  0  0  0  0  0
   41.9460   33.5360   41.6500 N   0  0  0  0  0  0  0  0  0  0  0  0
   43.8250   34.5240   42.9820 N   0  0  0  0  0  0  0  0  0  0  0  0
   44.7510   34.1670   43.3640 H   0  0  0  0  0  0  0  0  0  0  0  0
   44.0570   34.8280   39.9250 H   0  0  0  0  0  0  0  0  0  0  0  0
   41.4700   33.2170   42.5020 H   0  0  0  0  0  0  0  0  0  0  0  0
   43.6200   35.1170   43.8270 H   0  0  0  0  0  0  0  0  0  0  0  0
   36.2550   30.0560   40.1760 C   0  0  0  0  0  0  0  0  0  0  0  0
   36.2490   28.9510   40.0480 H   0  0  0  0  0  0  0  0  0  0  0  0
   35.1960   30.4160   40.1370 H   0  0  0  0  0  0  0  0  0  0  0  0
   36.8000   30.3290   41.5460 C   0  0  0  0  0  0  0  0  0  0  0  0
   37.5530   31.1500   41.4690 H   0  0  0  0  0  0  0  0  0  0  0  0
   36.0420   30.6520   42.2740 H   0  0  0  0  0  0  0  0  0  0  0  0
   39.5510   30.8370   42.7680 Cl  0  0  0  0  0  0  0  0  0  0  0  0
   38.8000   29.2670   42.6470 C   0  0  0  0  0  0  0  0  0  0  0  0
   37.5310   29.1550   42.0640 C   0  0  0  0  0  0  0  0  0  0  0  0
   37.0060   27.8850   42.0050 C   0  0  0  0  0  0  0  0  0  0  0  0
   37.6250   26.7210   42.4690 C   0  0  0  0  0  0  0  0  0  0  0  0
   38.8740   26.8640   43.0370 C   0  0  0  0  0  0  0  0  0  0  0  0
   39.7180   25.4530   43.6450 Cl  0  0  0  0  0  0  0  0  0  0  0  0
   39.4370   28.1170   43.1170 C   0  0  0  0  0  0  0  0  0  0  0  0
   36.0240   27.8040   41.5540 H   0  0  0  0  0  0  0  0  0  0  0  0
   37.1180   25.7660   42.3710 H   0  0  0  0  0  0  0  0  0  0  0  0
   40.4190   28.1840   43.5700 H   0  0  0  0  0  0  0  0  0  0  0  0
  1  2  1  0  0  0  0
  1 20  1  0  0  0  0
  2  3  2  0  0  0  0
  2  7  1  0  0  0  0
  3  4  1  0  0  0  0
  4  9  1  0  0  0  0
  4  5  2  0  0  0  0
  6  5  1  0  0  0  0
  6 10  1  0  0  0  0
  7  6  2  0  0  0  0
  8  3  1  0  0  0  0
 10 14  1  0  0  0  0
 11 10  2  0  0  0  0
 12 13  2  0  0  0  0
 13 15  1  0  0  0  0
 14 13  1  0  0  0  0
 14 18  1  0  0  0  0
 15 16  1  0  0  0  0
 15 19  1  0  0  0  0
 17 12  1  0  0  0  0
 20 23  1  0  0  0  0
 21 20  1  0  0  0  0
 22 20  1  0  0  0  0
 23 28  1  0  0  0  0
 23 25  1  0  0  0  0
 24 23  1  0  0  0  0
 27 26  1  0  0  0  0
 27 33  1  0  0  0  0
 28 27  2  0  0  0  0
 29 28  1  0  0  0  0
 29 30  2  0  0  0  0
 30 31  1  0  0  0  0
 31 33  2  0  0  0  0
 31 32  1  0  0  0  0
 33 36  1  0  0  0  0
 34 29  1  0  0  0  0
 35 30  1  0  0  0  0
M  END
>  <minimizedAffinity>
-6.06066275

$$$$

 OpenBabel03242515023D

 36 37  0  0  0  0  0  0  0  0999 V2000
   38.2530   29.3110   39.0870 S   0  0  0  0  0  0  0  0  0  0  0  0
   38.3530   31.0810   39.3670 C   0  0  0  0  0  0  0  0  0  0  0  0
   37.1850   31.7230   39.7980 C   0  0  0  0  0  0  0  0  0  0  0  0
   37.2090   33.0940   40.0290 C   0  0  0  0  0  0  0  0  0  0  0  0
   38.3800   33.7380   39.8210 N   0  0  0  0  0  0  0  0  0  0  0  0
   39.5060   33.1130   39.4040 C   0  0  0  0  0  0  0  0  0  0  0  0
   39.4690   31.8050   39.1870 N   0  0  0  0  0  0  0  0  0  0  0  0
   36.2360   31.2550   39.9770 H   0  0  0  0  0  0  0  0  0  0  0  0
   36.3350   33.6240   40.3610 H   0  0  0  0  0  0  0  0  0  0  0  0
   40.6900   33.9350   39.2210 C   0  0  0  0  0  0  0  0  0  0  0  0
   41.1270   34.5290   40.2320 O   0  0  0  0  0  0  0  0  0  0  0  0
   43.5320   34.3530   38.8850 N   0  0  0  0  0  0  0  0  0  0  0  0
   42.6550   34.2110   37.9940 C   0  0  0  0  0  0  0  0  0  0  0  0
   41.2510   34.0020   37.9340 N   0  0  0  0  0  0  0  0  0  0  0  0
   43.4750   34.3170   36.8220 N   0  0  0  0  0  0  0  0  0  0  0  0
   44.0270   35.1500   36.4590 H   0  0  0  0  0  0  0  0  0  0  0  0
   43.5100   34.3630   39.9020 H   0  0  0  0  0  0  0  0  0  0  0  0
   40.7760   33.9200   37.0280 H   0  0  0  0  0  0  0  0  0  0  0  0
   43.7650   33.6850   36.0330 H   0  0  0  0  0  0  0  0  0  0  0  0
   36.5900   28.6710   39.3440 C   0  0  0  0  0  0  0  0  0  0  0  0
   36.5220   27.6680   38.8680 H   0  0  0  0  0  0  0  0  0  0  0  0
   35.8200   29.3320   38.8720 H   0  0  0  0  0  0  0  0  0  0  0  0
   36.2400   28.4880   40.7900 C   0  0  0  0  0  0  0  0  0  0  0  0
   36.4620   29.4400   41.3290 H   0  0  0  0  0  0  0  0  0  0  0  0
   35.1800   28.2550   40.9680 H   0  0  0  0  0  0  0  0  0  0  0  0
   38.1250   29.4050   43.0090 Cl  0  0  0  0  0  0  0  0  0  0  0  0
   37.9980   27.7610   42.4390 C   0  0  0  0  0  0  0  0  0  0  0  0
   37.0950   27.4570   41.4110 C   0  0  0  0  0  0  0  0  0  0  0  0
   37.0530   26.1400   41.0170 C   0  0  0  0  0  0  0  0  0  0  0  0
   37.8240   25.1020   41.5480 C   0  0  0  0  0  0  0  0  0  0  0  0
   38.7040   25.4330   42.5580 C   0  0  0  0  0  0  0  0  0  0  0  0
   39.7070   24.1890   43.2780 Cl  0  0  0  0  0  0  0  0  0  0  0  0
   38.7780   26.7400   42.9830 C   0  0  0  0  0  0  0  0  0  0  0  0
   36.3540   25.9100   40.2230 H   0  0  0  0  0  0  0  0  0  0  0  0
   37.7100   24.0950   41.1600 H   0  0  0  0  0  0  0  0  0  0  0  0
   39.4820   26.9550   43.7780 H   0  0  0  0  0  0  0  0  0  0  0  0
  1 20  1  0  0  0  0
  1  2  1  0  0  0  0
  2  3  1  0  0  0  0
  3  8  1  0  0  0  0
  3  4  2  0  0  0  0
  4  9  1  0  0  0  0
  5  4  1  0  0  0  0
  6  5  2  0  0  0  0
  7  2  2  0  0  0  0
  7  6  1  0  0  0  0
 10  6  1  0  0  0  0
 10 11  2  0  0  0  0
 12 17  1  0  0  0  0
 13 12  2  0  0  0  0
 14 13  1  0  0  0  0
 14 10  1  0  0  0  0
 15 13  1  0  0  0  0
 16 15  1  0  0  0  0
 18 14  1  0  0  0  0
 19 15  1  0  0  0  0
 20 23  1  0  0  0  0
 21 20  1  0  0  0  0
 22 20  1  0  0  0  0
 23 25  1  0  0  0  0
 23 24  1  0  0  0  0
 23 28  1  0  0  0  0
 27 33  1  0  0  0  0
 27 26  1  0  0  0  0
 28 27  2  0  0  0  0
 29 28  1  0  0  0  0
 29 30  2  0  0  0  0
 30 31  1  0  0  0  0
 31 33  2  0  0  0  0
 31 32  1  0  0  0  0
 33 36  1  0  0  0  0
 34 29  1  0  0  0  0
 35 30  1  0  0  0  0
M  END
>  <minimizedAffinity>
-5.98665857

$$$$

 OpenBabel03242515023D

 36 37  0  0  0  0  0  0  0  0999 V2000
   36.8930   31.3140   40.1890 S   0  0  0  0  0  0  0  0  0  0  0  0
   38.6230   31.2170   40.6550 C   0  0  0  0  0  0  0  0  0  0  0  0
   38.9160   30.6280   41.8910 C   0  0  0  0  0  0  0  0  0  0  0  0
   40.2410   30.5290   42.3000 C   0  0  0  0  0  0  0  0  0  0  0  0
   41.1870   31.0160   41.4640 N   0  0  0  0  0  0  0  0  0  0  0  0
   40.8990   31.5840   40.2700 C   0  0  0  0  0  0  0  0  0  0  0  0
   39.6300   31.6730   39.8930 N   0  0  0  0  0  0  0  0  0  0  0  0
   38.2020   30.2280   42.5860 H   0  0  0  0  0  0  0  0  0  0  0  0
   40.5080   30.0830   43.2410 H   0  0  0  0  0  0  0  0  0  0  0  0
   42.0180   32.0650   39.4780 C   0  0  0  0  0  0  0  0  0  0  0  0
   43.0540   31.3620   39.4800 O   0  0  0  0  0  0  0  0  0  0  0  0
   43.4400   32.5170   37.0010 N   0  0  0  0  0  0  0  0  0  0  0  0
   42.6410   33.2890   37.5930 C   0  0  0  0  0  0  0  0  0  0  0  0
   41.8570   33.2720   38.7770 N   0  0  0  0  0  0  0  0  0  0  0  0
   42.6620   34.4040   36.6910 N   0  0  0  0  0  0  0  0  0  0  0  0
   43.4630   35.0590   36.4470 H   0  0  0  0  0  0  0  0  0  0  0  0
   43.7960   31.5850   37.1970 H   0  0  0  0  0  0  0  0  0  0  0  0
   41.2710   34.0780   39.0250 H   0  0  0  0  0  0  0  0  0  0  0  0
   41.9760   34.8830   36.0520 H   0  0  0  0  0  0  0  0  0  0  0  0
   36.1650   29.6900   39.9200 C   0  0  0  0  0  0  0  0  0  0  0  0
   36.8900   29.0690   39.3470 H   0  0  0  0  0  0  0  0  0  0  0  0
   35.2200   29.7590   39.3220 H   0  0  0  0  0  0  0  0  0  0  0  0
   35.8720   28.9500   41.1900 C   0  0  0  0  0  0  0  0  0  0  0  0
   36.3300   29.5130   42.0390 H   0  0  0  0  0  0  0  0  0  0  0  0
   34.8000   28.8470   41.4120 H   0  0  0  0  0  0  0  0  0  0  0  0
   36.9330   27.9160   43.8600 Cl  0  0  0  0  0  0  0  0  0  0  0  0
   37.0410   27.0460   42.3510 C   0  0  0  0  0  0  0  0  0  0  0  0
   36.5170   27.6220   41.1860 C   0  0  0  0  0  0  0  0  0  0  0  0
   36.6410   26.8750   40.0380 C   0  0  0  0  0  0  0  0  0  0  0  0
   37.2350   25.6140   39.9420 C   0  0  0  0  0  0  0  0  0  0  0  0
   37.7410   25.0730   41.1060 C   0  0  0  0  0  0  0  0  0  0  0  0
   38.5020   23.4950   41.0720 Cl  0  0  0  0  0  0  0  0  0  0  0  0
   37.6390   25.7870   42.2780 C   0  0  0  0  0  0  0  0  0  0  0  0
   36.2340   27.3240   39.1400 H   0  0  0  0  0  0  0  0  0  0  0  0
   37.2790   25.1110   38.9810 H   0  0  0  0  0  0  0  0  0  0  0  0
   38.0500   25.3260   43.1690 H   0  0  0  0  0  0  0  0  0  0  0  0
  1  2  1  0  0  0  0
  2  3  1  0  0  0  0
  3  4  2  0  0  0  0
  3  8  1  0  0  0  0
  4  9  1  0  0  0  0
  5  4  1  0  0  0  0
  6  5  2  0  0  0  0
  7  6  1  0  0  0  0
  7  2  2  0  0  0  0
 10 11  2  0  0  0  0
 10  6  1  0  0  0  0
 12 17  1  0  0  0  0
 12 13  2  0  0  0  0
 13 14  1  0  0  0  0
 14 18  1  0  0  0  0
 14 10  1  0  0  0  0
 15 13  1  0  0  0  0
 16 15  1  0  0  0  0
 19 15  1  0  0  0  0
 20  1  1  0  0  0  0
 20 23  1  0  0  0  0
 21 20  1  0  0  0  0
 22 20  1  0  0  0  0
 23 25  1  0  0  0  0
 23 24  1  0  0  0  0
 27 26  1  0  0  0  0
 28 23  1  0  0  0  0
 28 27  2  0  0  0  0
 29 28  1  0  0  0  0
 30 29  2  0  0  0  0
 30 31  1  0  0  0  0
 31 33  2  0  0  0  0
 32 31  1  0  0  0  0
 33 27  1  0  0  0  0
 33 36  1  0  0  0  0
 34 29  1  0  0  0  0
 35 30  1  0  0  0  0
M  END
>  <minimizedAffinity>
-5.77946091

$$$$
