REMARK  Name = 
REMARK  7 active torsions:
REMARK  status: ('A' for Active; 'I' for Inactive)
REMARK    1  A    between atoms: C_1  and  O_7
REMARK    2  A    between atoms: C_2  and  O_9
REMARK    3  A    between atoms: C_5  and  O_8
REMARK    4  A    between atoms: C_6  and  O_19
REMARK    5  A    between atoms: O_9  and  C_10
REMARK    6  A    between atoms: C_12  and  C_16
REMARK    7  A    between atoms: O_19  and  C_20
REMARK                            x       y       z     vdW  Elec       q    Type
REMARK                         _______ _______ _______ _____ _____    ______ ____
ROOT
ATOM      1  C   UNL     1      42.824  34.484  38.779  0.00  0.00    +0.000 C 
ATOM      2  C   UNL     1      42.954  35.163  40.133  0.00  0.00    +0.000 C 
ATOM      3  O   UNL     1      41.652  35.377  40.642  0.00  0.00    +0.000 OA
ATOM      4  C   UNL     1      40.730  35.703  39.639  0.00  0.00    +0.000 C 
ATOM      5  C   UNL     1      40.445  34.520  38.736  0.00  0.00    +0.000 C 
ATOM      6  C   UNL     1      41.664  33.554  38.889  0.00  0.00    +0.000 C 
ATOM      7  H   UNL     1      43.778  33.949  38.600  0.00  0.00    +0.000 HD
ATOM      8  H   UNL     1      43.517  36.104  40.095  0.00  0.00    +0.000 HD
ATOM      9  H   UNL     1      39.805  35.953  40.156  0.00  0.00    +0.000 HD
ATOM     10  H   UNL     1      41.022  36.611  39.072  0.00  0.00    +0.000 HD
ATOM     11  H   UNL     1      39.509  33.999  39.017  0.00  0.00    +0.000 HD
ATOM     12  H   UNL     1      41.446  33.281  39.975  0.00  0.00    +0.000 HD
ENDROOT
BRANCH   1  13
ATOM     13  O   UNL     1      42.608  35.439  37.767  0.00  0.00    +0.000 OA
ATOM     14  H   UNL     1      43.458  35.578  37.318  0.00  0.00    +0.000 HD
ENDBRANCH   1  13
BRANCH   5  15
ATOM     15  O   UNL     1      40.469  34.926  37.410  0.00  0.00    +0.000 OA
ATOM     16  H   UNL     1      39.755  34.441  36.908  0.00  0.00    +0.000 HD
ENDBRANCH   5  15
BRANCH   2  17
ATOM     17  O   UNL     1      43.490  34.189  40.985  0.00  0.00    +0.000 OA
BRANCH  17  18
ATOM     18  C   UNL     1      44.599  34.337  41.719  0.00  0.00    +0.000 A 
ATOM     19  C   UNL     1      45.852  34.449  41.118  0.00  0.00    +0.000 A 
ATOM     20  C   UNL     1      46.975  34.602  41.906  0.00  0.00    +0.000 A 
ATOM     21  N   UNL     1      46.821  34.641  43.283  0.00  0.00    +0.000 NA
ATOM     22  C   UNL     1      45.593  34.530  43.836  0.00  0.00    +0.000 A 
ATOM     23  N   UNL     1      44.490  34.380  43.058  0.00  0.00    +0.000 NA
ATOM     24  H   UNL     1      45.945  34.415  40.041  0.00  0.00    +0.000 HD
ATOM     25  H   UNL     1      45.471  34.561  44.918  0.00  0.00    +0.000 HD
BRANCH  20  26
ATOM     26  C   UNL     1      48.351  34.708  41.324  0.00  0.00    +0.000 C 
ATOM     27  C   UNL     1      49.072  36.040  41.514  0.00  0.00    +0.000 C 
ATOM     28  C   UNL     1      49.506  34.714  42.169  0.00  0.00    +0.000 C 
ATOM     29  H   UNL     1      48.380  34.332  40.279  0.00  0.00    +0.000 HD
ATOM     30  H   UNL     1      48.569  36.792  42.121  0.00  0.00    +0.000 HD
ATOM     31  H   UNL     1      49.687  36.387  40.687  0.00  0.00    +0.000 HD
ATOM     32  H   UNL     1      49.372  34.735  43.277  0.00  0.00    +0.000 HD
ATOM     33  H   UNL     1      50.494  34.296  41.891  0.00  0.00    +0.000 HD
ENDBRANCH  20  26
ENDBRANCH  17  18
ENDBRANCH   2  17
BRANCH   6  34
ATOM     34  O   UNL     1      41.553  32.599  37.944  0.00  0.00    +0.000 OA
BRANCH  34  35
ATOM     35  C   UNL     1      40.947  31.415  37.938  0.00  0.00    +0.000 C 
ATOM     36  O   UNL     1      39.669  31.287  37.600  0.00  0.00    +0.000 OA
ATOM     37  N   UNL     1      42.150  30.420  40.517  0.00  0.00    +0.000 NA
ATOM     38  C   UNL     1      41.986  29.739  39.509  0.00  0.00    +0.000 C 
ATOM     39  N   UNL     1      41.450  30.075  38.256  0.00  0.00    +0.000 N 
ATOM     40  N   UNL     1      42.447  28.390  39.739  0.00  0.00    +0.000 N 
ATOM     41  H   UNL     1      41.912  27.514  39.556  0.00  0.00    +0.000 HD
ATOM     42  H   UNL     1      41.974  31.362  40.766  0.00  0.00    +0.000 HD
ATOM     43  H   UNL     1      41.409  29.323  37.552  0.00  0.00    +0.000 HD
ATOM     44  H   UNL     1      43.356  28.043  40.114  0.00  0.00    +0.000 HD
ENDBRANCH  34  35
ENDBRANCH   6  34
TORSDOF 7
