
 OpenBabel03242523553D

 44 46  0  0  1  0  0  0  0  0999 V2000
   42.8110   34.5450   38.7220 C   0  0  1  0  0  0  0  0  0  0  0  0
   42.9450   35.1810   40.0960 C   0  0  1  0  0  0  0  0  0  0  0  0
   41.6460   35.3590   40.6250 O   0  0  0  0  0  0  0  0  0  0  0  0
   40.7090   35.7050   39.6420 C   0  0  0  0  0  0  0  0  0  0  0  0
   40.4310   34.5490   38.7040 C   0  0  2  0  0  0  0  0  0  0  0  0
   41.6650   33.5950   38.8130 C   0  0  1  0  0  0  0  0  0  0  0  0
   43.7700   34.0290   38.5160 H   0  0  0  0  0  0  0  0  0  0  0  0
   43.4950   36.1300   40.0840 H   0  0  0  0  0  0  0  0  0  0  0  0
   39.7860   35.9250   40.1770 H   0  0  0  0  0  0  0  0  0  0  0  0
   40.9830   36.6350   39.1030 H   0  0  0  0  0  0  0  0  0  0  0  0
   39.5050   34.0060   38.9770 H   0  0  0  0  0  0  0  0  0  0  0  0
   41.4620   33.2840   39.8910 H   0  0  0  0  0  0  0  0  0  0  0  0
   42.5710   35.5290   37.7440 O   0  0  0  0  0  0  0  0  0  0  0  0
   43.4140   35.6950   37.2910 H   0  0  0  0  0  0  0  0  0  0  0  0
   40.4360   34.9980   37.3920 O   0  0  0  0  0  0  0  0  0  0  0  0
   39.7230   34.5200   36.8810 H   0  0  0  0  0  0  0  0  0  0  0  0
   43.5040   34.1870   40.9100 O   0  0  0  0  0  0  0  0  0  0  0  0
   44.5990   34.3370   41.6640 C   0  0  0  0  0  0  0  0  0  0  0  0
   45.8640   34.4360   41.0860 C   0  0  0  0  0  0  0  0  0  0  0  0
   46.9720   34.5920   41.8930 C   0  0  0  0  0  0  0  0  0  0  0  0
   46.7920   34.6460   43.2670 N   0  0  0  0  0  0  0  0  0  0  0  0
   45.5530   34.5470   43.7970 C   0  0  0  0  0  0  0  0  0  0  0  0
   44.4650   34.3950   43.0000 N   0  0  0  0  0  0  0  0  0  0  0  0
   45.9770   34.3900   40.0110 H   0  0  0  0  0  0  0  0  0  0  0  0
   45.4110   34.5900   44.8760 H   0  0  0  0  0  0  0  0  0  0  0  0
   48.3600   34.6850   41.3370 C   0  0  0  0  0  0  0  0  0  0  0  0
   49.0770   36.0210   41.5100 C   0  0  0  0  0  0  0  0  0  0  0  0
   49.4980   34.7110   42.2040 C   0  0  0  0  0  0  0  0  0  0  0  0
   48.4100   34.2840   40.3020 H   0  0  0  0  0  0  0  0  0  0  0  0
   48.5620   36.7870   42.0890 H   0  0  0  0  0  0  0  0  0  0  0  0
   49.7080   36.3490   40.6870 H   0  0  0  0  0  0  0  0  0  0  0  0
   49.3410   34.7590   43.3090 H   0  0  0  0  0  0  0  0  0  0  0  0
   50.4910   34.2870   41.9560 H   0  0  0  0  0  0  0  0  0  0  0  0
   41.5570   32.6700   37.8380 O   0  0  0  0  0  0  0  0  0  0  0  0
   41.0800   31.4290   37.8340 C   0  0  0  0  0  0  0  0  0  0  0  0
   39.8270   31.1640   37.4830 O   0  0  0  0  0  0  0  0  0  0  0  0
   43.9710   30.6340   37.5200 N   0  0  0  0  0  0  0  0  0  0  0  0
   43.0880   29.9110   37.9750 C   0  0  0  0  0  0  0  0  0  0  0  0
   41.7190   30.1520   38.1670 N   0  0  0  0  0  0  0  0  0  0  0  0
   43.6370   28.6280   38.3420 N   0  0  0  0  0  0  0  0  0  0  0  0
   43.5190   28.1440   39.2580 H   0  0  0  0  0  0  0  0  0  0  0  0
   44.0100   31.5570   37.1660 H   0  0  0  0  0  0  0  0  0  0  0  0
   41.1660   29.3830   38.5740 H   0  0  0  0  0  0  0  0  0  0  0  0
   44.2280   27.9640   37.7950 H   0  0  0  0  0  0  0  0  0  0  0  0
  1  7  1  6  0  0  0
  1  6  1  0  0  0  0
  1  2  1  0  0  0  0
  2  8  1  6  0  0  0
  2  3  1  0  0  0  0
  2 17  1  0  0  0  0
  4  9  1  0  0  0  0
  4  3  1  0  0  0  0
  5  6  1  0  0  0  0
  5 11  1  1  0  0  0
  5  4  1  0  0  0  0
  6 12  1  1  0  0  0
 10  4  1  0  0  0  0
 13  1  1  0  0  0  0
 14 13  1  0  0  0  0
 15  5  1  0  0  0  0
 16 15  1  0  0  0  0
 17 18  1  0  0  0  0
 18 23  1  0  0  0  0
 19 18  2  0  0  0  0
 19 20  1  0  0  0  0
 20 21  2  0  0  0  0
 21 22  1  0  0  0  0
 22 25  1  0  0  0  0
 23 22  2  0  0  0  0
 24 19  1  0  0  0  0
 26 27  1  0  0  0  0
 26 20  1  0  0  0  0
 26 28  1  0  0  0  0
 27 30  1  0  0  0  0
 27 28  1  0  0  0  0
 28 32  1  0  0  0  0
 29 26  1  0  0  0  0
 31 27  1  0  0  0  0
 33 28  1  0  0  0  0
 34  6  1  0  0  0  0
 35 34  1  0  0  0  0
 35 39  1  0  0  0  0
 36 35  2  0  0  0  0
 37 38  2  0  0  0  0
 38 39  1  0  0  0  0
 38 40  1  0  0  0  0
 39 43  1  0  0  0  0
 40 41  1  0  0  0  0
 42 37  1  0  0  0  0
 44 40  1  0  0  0  0
M  END
>  <minimizedAffinity>
-5.80602121

>  <minimizedRMSD>
0.18113257

$$$$
