
 OpenBabel03242523173D

 26 27  0  0  0  0  0  0  0  0999 V2000
   46.3600   34.4530   43.4450 C   0  0  0  0  0  0  0  0  0  0  0  0
   47.5280   33.9150   43.0140 C   0  0  0  0  0  0  0  0  0  0  0  0
   47.9330   32.7590   43.6540 C   0  0  0  0  0  0  0  0  0  0  0  0
   47.1210   32.2580   44.6680 N   0  0  0  0  0  0  0  0  0  0  0  0
   45.9920   32.8200   45.0520 C   0  0  0  0  0  0  0  0  0  0  0  0
   45.5660   33.9690   44.4350 N   0  0  0  0  0  0  0  0  0  0  0  0
   48.8490   32.2480   43.3880 H   0  0  0  0  0  0  0  0  0  0  0  0
   45.5110   32.2760   45.8540 H   0  0  0  0  0  0  0  0  0  0  0  0
   45.6510   35.5910   42.8820 C   0  0  0  0  0  0  0  0  0  0  0  0
   45.2790   36.7500   42.9940 O   0  0  0  0  0  0  0  0  0  0  0  0
   43.0080   34.1510   42.2430 N   0  0  0  0  0  0  0  0  0  0  0  0
   43.9420   34.4270   41.4490 C   0  0  0  0  0  0  0  0  0  0  0  0
   45.1900   35.0720   41.6000 N   0  0  0  0  0  0  0  0  0  0  0  0
   43.3240   33.8580   40.2720 N   0  0  0  0  0  0  0  0  0  0  0  0
   42.8690   34.3340   39.4410 H   0  0  0  0  0  0  0  0  0  0  0  0
   42.9090   34.3250   43.2300 H   0  0  0  0  0  0  0  0  0  0  0  0
   45.6070   35.0510   40.6160 H   0  0  0  0  0  0  0  0  0  0  0  0
   43.2000   32.8520   39.9970 H   0  0  0  0  0  0  0  0  0  0  0  0
   48.3760   34.4720   42.0280 C   0  0  0  0  0  0  0  0  0  0  0  0
   48.7430   35.7540   41.7840 C   0  0  0  0  0  0  0  0  0  0  0  0
   49.8450   34.9170   42.4330 C   0  0  0  0  0  0  0  0  0  0  0  0
   48.6900   33.6020   41.2990 H   0  0  0  0  0  0  0  0  0  0  0  0
   49.0590   36.1330   40.7730 H   0  0  0  0  0  0  0  0  0  0  0  0
   48.4180   36.6170   42.4270 H   0  0  0  0  0  0  0  0  0  0  0  0
   50.0040   34.9890   43.5280 H   0  0  0  0  0  0  0  0  0  0  0  0
   50.6860   34.6070   41.8420 H   0  0  0  0  0  0  0  0  0  0  0  0
  1  6  1  0  0  0  0
  2  1  2  0  0  0  0
  2  3  1  0  0  0  0
  3  4  2  0  0  0  0
  4  5  1  0  0  0  0
  5  8  1  0  0  0  0
  6  5  2  0  0  0  0
  7  3  1  0  0  0  0
  9 10  2  0  0  0  0
  9  1  1  0  0  0  0
 11 16  1  0  0  0  0
 12 13  1  0  0  0  0
 12 11  2  0  0  0  0
 13  9  1  0  0  0  0
 14 12  1  0  0  0  0
 15 14  1  0  0  0  0
 17 13  1  0  0  0  0
 18 14  1  0  0  0  0
 19 21  1  0  0  0  0
 19  2  1  0  0  0  0
 20 19  1  0  0  0  0
 20 24  1  0  0  0  0
 20 21  1  0  0  0  0
 21 25  1  0  0  0  0
 22 19  1  0  0  0  0
 23 20  1  0  0  0  0
 26 21  1  0  0  0  0
M  END
>  <minimizedAffinity>
-4.71220112

>  <minimizedRMSD>
0.235229269

$$$$
