
 OpenBabel03242523173D

 26 27  0  0  0  0  0  0  0  0999 V2000
   46.2580   34.5600   43.5490 C   0  0  0  0  0  0  0  0  0  0  0  0
   47.3950   33.9750   43.0960 C   0  0  0  0  0  0  0  0  0  0  0  0
   47.7870   32.8260   43.7550 C   0  0  0  0  0  0  0  0  0  0  0  0
   46.9960   32.3770   44.8100 N   0  0  0  0  0  0  0  0  0  0  0  0
   45.8970   32.9840   45.2140 C   0  0  0  0  0  0  0  0  0  0  0  0
   45.4840   34.1270   44.5780 N   0  0  0  0  0  0  0  0  0  0  0  0
   48.6780   32.2800   43.4740 H   0  0  0  0  0  0  0  0  0  0  0  0
   45.4290   32.4760   46.0470 H   0  0  0  0  0  0  0  0  0  0  0  0
   45.5640   35.7020   42.9770 C   0  0  0  0  0  0  0  0  0  0  0  0
   45.2400   36.8770   43.0630 O   0  0  0  0  0  0  0  0  0  0  0  0
   42.6570   34.9160   42.3480 N   0  0  0  0  0  0  0  0  0  0  0  0
   43.6540   34.8370   41.5870 C   0  0  0  0  0  0  0  0  0  0  0  0
   45.0220   35.1540   41.7390 N   0  0  0  0  0  0  0  0  0  0  0  0
   42.9440   34.2950   40.4500 N   0  0  0  0  0  0  0  0  0  0  0  0
   42.6550   34.7590   39.5410 H   0  0  0  0  0  0  0  0  0  0  0  0
   42.5770   35.2390   43.2990 H   0  0  0  0  0  0  0  0  0  0  0  0
   45.4480   34.8980   40.7930 H   0  0  0  0  0  0  0  0  0  0  0  0
   42.5680   33.3270   40.2900 H   0  0  0  0  0  0  0  0  0  0  0  0
   48.2250   34.4780   42.0660 C   0  0  0  0  0  0  0  0  0  0  0  0
   48.6520   35.7360   41.7960 C   0  0  0  0  0  0  0  0  0  0  0  0
   49.7340   34.8400   42.3980 C   0  0  0  0  0  0  0  0  0  0  0  0
   48.4530   33.5880   41.3290 H   0  0  0  0  0  0  0  0  0  0  0  0
   48.9390   36.0930   40.7690 H   0  0  0  0  0  0  0  0  0  0  0  0
   48.4080   36.6190   42.4480 H   0  0  0  0  0  0  0  0  0  0  0  0
   49.9490   34.9080   43.4830 H   0  0  0  0  0  0  0  0  0  0  0  0
   50.5260   34.4810   41.7700 H   0  0  0  0  0  0  0  0  0  0  0  0
  1  6  1  0  0  0  0
  2  1  2  0  0  0  0
  2  3  1  0  0  0  0
  3  4  2  0  0  0  0
  4  5  1  0  0  0  0
  5  8  1  0  0  0  0
  6  5  2  0  0  0  0
  7  3  1  0  0  0  0
  9 10  2  0  0  0  0
  9  1  1  0  0  0  0
 11 16  1  0  0  0  0
 12 13  1  0  0  0  0
 12 11  2  0  0  0  0
 13  9  1  0  0  0  0
 14 12  1  0  0  0  0
 15 14  1  0  0  0  0
 17 13  1  0  0  0  0
 18 14  1  0  0  0  0
 19 21  1  0  0  0  0
 19  2  1  0  0  0  0
 20 19  1  0  0  0  0
 20 21  1  0  0  0  0
 20 24  1  0  0  0  0
 21 25  1  0  0  0  0
 22 19  1  0  0  0  0
 23 20  1  0  0  0  0
 26 21  1  0  0  0  0
M  END
>  <minimizedAffinity>
-4.86158848

>  <minimizedRMSD>
0.116061144

$$$$
