
 OpenBabel03242523553D

 44 46  0  0  1  0  0  0  0  0999 V2000
   42.8180   34.5200   38.7470 C   0  0  1  0  0  0  0  0  0  0  0  0
   42.9580   35.1770   40.1110 C   0  0  1  0  0  0  0  0  0  0  0  0
   41.6590   35.3810   40.6330 O   0  0  0  0  0  0  0  0  0  0  0  0
   40.7290   35.7210   39.6430 C   0  0  0  0  0  0  0  0  0  0  0  0
   40.4380   34.5520   38.7240 C   0  0  2  0  0  0  0  0  0  0  0  0
   41.6600   33.5860   38.8520 C   0  0  1  0  0  0  0  0  0  0  0  0
   43.7710   33.9890   38.5520 H   0  0  0  0  0  0  0  0  0  0  0  0
   43.5190   36.1200   40.0830 H   0  0  0  0  0  0  0  0  0  0  0  0
   39.8080   35.9620   40.1710 H   0  0  0  0  0  0  0  0  0  0  0  0
   41.0150   36.6390   39.0880 H   0  0  0  0  0  0  0  0  0  0  0  0
   39.5050   34.0250   39.0040 H   0  0  0  0  0  0  0  0  0  0  0  0
   41.4510   33.2960   39.9350 H   0  0  0  0  0  0  0  0  0  0  0  0
   42.5920   35.4900   37.7520 O   0  0  0  0  0  0  0  0  0  0  0  0
   43.4380   35.6380   37.2980 H   0  0  0  0  0  0  0  0  0  0  0  0
   40.4510   34.9790   37.4040 O   0  0  0  0  0  0  0  0  0  0  0  0
   39.7340   34.5010   36.9010 H   0  0  0  0  0  0  0  0  0  0  0  0
   43.5020   34.1910   40.9430 O   0  0  0  0  0  0  0  0  0  0  0  0
   44.6040   34.3370   41.6870 C   0  0  0  0  0  0  0  0  0  0  0  0
   45.8630   34.4440   41.0980 C   0  0  0  0  0  0  0  0  0  0  0  0
   46.9790   34.5950   41.8970 C   0  0  0  0  0  0  0  0  0  0  0  0
   46.8120   34.6370   43.2720 N   0  0  0  0  0  0  0  0  0  0  0  0
   45.5780   34.5310   43.8130 C   0  0  0  0  0  0  0  0  0  0  0  0
   44.4820   34.3830   43.0250 N   0  0  0  0  0  0  0  0  0  0  0  0
   45.9670   34.4070   40.0220 H   0  0  0  0  0  0  0  0  0  0  0  0
   45.4460   34.5650   44.8940 H   0  0  0  0  0  0  0  0  0  0  0  0
   48.3610   34.6950   41.3280 C   0  0  0  0  0  0  0  0  0  0  0  0
   49.0800   36.0290   41.5130 C   0  0  0  0  0  0  0  0  0  0  0  0
   49.5070   34.7090   42.1840 C   0  0  0  0  0  0  0  0  0  0  0  0
   48.4010   34.3090   40.2870 H   0  0  0  0  0  0  0  0  0  0  0  0
   48.5710   36.7870   42.1070 H   0  0  0  0  0  0  0  0  0  0  0  0
   49.7040   36.3680   40.6890 H   0  0  0  0  0  0  0  0  0  0  0  0
   49.3620   34.7400   43.2910 H   0  0  0  0  0  0  0  0  0  0  0  0
   50.4980   34.2880   41.9210 H   0  0  0  0  0  0  0  0  0  0  0  0
   41.5430   32.6460   37.8930 O   0  0  0  0  0  0  0  0  0  0  0  0
   41.0040   31.4300   37.8960 C   0  0  0  0  0  0  0  0  0  0  0  0
   39.7600   31.2170   37.4820 O   0  0  0  0  0  0  0  0  0  0  0  0
   43.3880   29.9700   36.7680 N   0  0  0  0  0  0  0  0  0  0  0  0
   42.6850   29.5640   37.6890 C   0  0  0  0  0  0  0  0  0  0  0  0
   41.5570   30.1330   38.2990 N   0  0  0  0  0  0  0  0  0  0  0  0
   43.1700   28.2870   38.1580 N   0  0  0  0  0  0  0  0  0  0  0  0
   43.3780   28.0290   39.1470 H   0  0  0  0  0  0  0  0  0  0  0  0
   43.3940   30.7750   36.1910 H   0  0  0  0  0  0  0  0  0  0  0  0
   41.1270   29.6000   39.0690 H   0  0  0  0  0  0  0  0  0  0  0  0
   43.3970   27.4160   37.6310 H   0  0  0  0  0  0  0  0  0  0  0  0
  1  7  1  6  0  0  0
  1  6  1  0  0  0  0
  1  2  1  0  0  0  0
  2  8  1  6  0  0  0
  2  3  1  0  0  0  0
  2 17  1  0  0  0  0
  4  9  1  0  0  0  0
  4  3  1  0  0  0  0
  5  6  1  0  0  0  0
  5 11  1  1  0  0  0
  5  4  1  0  0  0  0
  6 12  1  1  0  0  0
 10  4  1  0  0  0  0
 13  1  1  0  0  0  0
 14 13  1  0  0  0  0
 15  5  1  0  0  0  0
 16 15  1  0  0  0  0
 17 18  1  0  0  0  0
 18 23  1  0  0  0  0
 19 18  2  0  0  0  0
 19 20  1  0  0  0  0
 20 21  2  0  0  0  0
 21 22  1  0  0  0  0
 22 25  1  0  0  0  0
 23 22  2  0  0  0  0
 24 19  1  0  0  0  0
 26 27  1  0  0  0  0
 26 20  1  0  0  0  0
 26 28  1  0  0  0  0
 27 30  1  0  0  0  0
 27 28  1  0  0  0  0
 28 32  1  0  0  0  0
 29 26  1  0  0  0  0
 31 27  1  0  0  0  0
 33 28  1  0  0  0  0
 34 35  1  0  0  0  0
 34  6  1  0  0  0  0
 35 39  1  0  0  0  0
 36 35  2  0  0  0  0
 37 38  2  0  0  0  0
 38 40  1  0  0  0  0
 38 39  1  0  0  0  0
 39 43  1  0  0  0  0
 40 41  1  0  0  0  0
 42 37  1  0  0  0  0
 44 40  1  0  0  0  0
M  END
>  <minimizedAffinity>
-5.82476997

>  <minimizedRMSD>
0.11588075

$$$$
