REMARK  Name = 
REMARK  2 active torsions:
REMARK  status: ('A' for Active; 'I' for Inactive)
REMARK    1  A    between atoms: C_1  and  C_10
REMARK    2  A    between atoms: C_2  and  C_7
REMARK                            x       y       z     vdW  Elec       q    Type
REMARK                         _______ _______ _______ _____ _____    ______ ____
ROOT
ATOM      1  C   UNL     1      46.264  34.500  43.613  0.00  0.00    +0.000 A 
ATOM      2  C   UNL     1      47.379  33.887  43.144  0.00  0.00    +0.000 A 
ATOM      3  C   UNL     1      47.773  32.749  43.821  0.00  0.00    +0.000 A 
ATOM      4  N   UNL     1      47.004  32.339  44.908  0.00  0.00    +0.000 NA
ATOM      5  C   UNL     1      45.926  32.972  45.326  0.00  0.00    +0.000 A 
ATOM      6  N   UNL     1      45.512  34.105  44.673  0.00  0.00    +0.000 NA
ATOM      7  H   UNL     1      48.648  32.183  43.530  0.00  0.00    +0.000 HD
ATOM      8  H   UNL     1      45.473  32.493  46.184  0.00  0.00    +0.000 HD
ENDROOT
BRANCH   1   9
ATOM      9  C   UNL     1      45.571  35.638  43.031  0.00  0.00    +0.000 C 
ATOM     10  O   UNL     1      45.222  36.806  43.120  0.00  0.00    +0.000 OA
ATOM     11  N   UNL     1      43.046  36.429  41.461  0.00  0.00    +0.000 NA
ATOM     12  C   UNL     1      43.900  35.560  41.152  0.00  0.00    +0.000 C 
ATOM     13  N   UNL     1      45.086  35.099  41.766  0.00  0.00    +0.000 N 
ATOM     14  N   UNL     1      43.272  35.153  39.915  0.00  0.00    +0.000 N 
ATOM     15  H   UNL     1      43.545  35.356  38.911  0.00  0.00    +0.000 HD
ATOM     16  H   UNL     1      42.988  37.042  42.259  0.00  0.00    +0.000 HD
ATOM     17  H   UNL     1      45.443  34.348  41.095  0.00  0.00    +0.000 HD
ATOM     18  H   UNL     1      42.413  34.568  39.757  0.00  0.00    +0.000 HD
ENDBRANCH   1   9
BRANCH   2  19
ATOM     19  C   UNL     1      48.188  34.352  42.080  0.00  0.00    +0.000 C 
ATOM     20  C   UNL     1      48.543  35.606  41.708  0.00  0.00    +0.000 C 
ATOM     21  C   UNL     1      49.670  34.828  42.387  0.00  0.00    +0.000 C 
ATOM     22  H   UNL     1      48.474  33.419  41.420  0.00  0.00    +0.000 HD
ATOM     23  H   UNL     1      48.819  35.893  40.656  0.00  0.00    +0.000 HD
ATOM     24  H   UNL     1      48.242  36.524  42.284  0.00  0.00    +0.000 HD
ATOM     25  H   UNL     1      49.871  34.997  43.464  0.00  0.00    +0.000 HD
ATOM     26  H   UNL     1      50.488  34.465  41.794  0.00  0.00    +0.000 HD
ENDBRANCH   2  19
TORSDOF 2
