
     RDKit          3D

 45 47  0  0  0  0  0  0  0  0999 V2000
   47.7200   31.0150   45.9751 C   0  0  0  0  0  0  0  0  0  0  0  0
   46.9733   32.0418   45.4563 C   0  0  0  0  0  0  0  0  0  0  0  0
   45.9377   32.5021   46.2212 C   0  0  0  0  0  0  0  0  0  0  0  0
   45.6118   32.0029   47.4527 C   0  0  0  0  0  0  0  0  0  0  0  0
   44.6826   32.2334   48.4190 N   0  0  0  0  0  0  0  0  0  0  0  0
   44.8731   31.3783   49.4638 C   0  0  0  0  0  0  0  0  0  0  0  0
   45.9303   30.6172   49.1323 N   0  0  0  0  0  0  0  0  0  0  0  0
   46.3885   30.9770   47.9276 C   0  0  0  0  0  0  0  0  0  0  0  0
   47.4463   30.4590   47.2211 C   0  0  0  0  0  0  0  0  0  0  0  0
   47.2850   34.4051   42.6887 C   0  0  0  0  0  0  0  0  0  0  0  0
   47.8795   33.6342   41.6847 C   0  0  0  0  0  0  0  0  0  0  0  0
   48.1620   32.2878   42.0018 C   0  0  0  0  0  0  0  0  0  0  0  0
   47.8537   31.8123   43.2315 N   0  0  0  0  0  0  0  0  0  0  0  0
   47.2830   32.6064   44.1516 C   0  0  0  0  0  0  0  0  0  0  0  0
   46.9932   33.8919   43.9037 N   0  0  0  0  0  0  0  0  0  0  0  0
   48.1743   34.2583   40.3703 C   0  0  0  0  0  0  0  0  0  0  0  0
   48.7274   35.4900   40.6938 F   0  0  0  0  0  0  0  0  0  0  0  0
   47.0046   34.4443   39.7198 F   0  0  0  0  0  0  0  0  0  0  0  0
   49.0505   33.4421   39.6759 F   0  0  0  0  0  0  0  0  0  0  0  0
   48.1925   29.4234   47.7558 O   0  0  0  0  0  0  0  0  0  0  0  0
   49.8217   28.2093   49.3657 O   0  0  0  0  0  0  0  0  0  0  0  0
   49.4422   29.6038   48.8747 P   0  0  2  0  0  0  0  0  0  0  0  0
   48.7901   30.4226   50.2206 O   0  0  0  0  0  0  0  0  0  0  0  0
   50.7840   30.4126   48.2895 O   0  0  0  0  0  0  0  0  0  0  0  0
   51.8041   30.5497   49.1992 C   0  0  0  0  0  0  0  0  0  0  0  0
   51.9146   32.0508   49.5097 C   0  0  0  0  0  0  0  0  0  0  0  0
   48.5590   30.6203   45.3892 H   0  0  0  0  0  0  0  0  0  0  0  0
   45.3240   33.3220   45.8321 H   0  0  0  0  0  0  0  0  0  0  0  0
   43.9771   32.9847   48.2688 H   0  0  0  0  0  0  0  0  0  0  0  0
   44.2552   31.3718   50.3520 H   0  0  0  0  0  0  0  0  0  0  0  0
   47.0681   35.4477   42.4422 H   0  0  0  0  0  0  0  0  0  0  0  0
   48.6236   31.6867   41.2247 H   0  0  0  0  0  0  0  0  0  0  0  0
   48.6269   31.3490   49.9047 H   0  0  0  0  0  0  0  0  0  0  0  0
   51.5458   30.0000   50.1254 H   0  0  0  0  0  0  0  0  0  0  0  0
   52.7420   30.1531   48.8084 H   0  0  0  0  0  0  0  0  0  0  0  0
   52.1246   32.6359   48.6040 H   0  0  0  0  0  0  0  0  0  0  0  0
   50.9413   32.3896   49.9472 H   0  0  0  0  0  0  0  0  0  0  0  0
   52.7595   29.9527   51.3092 N   0  0  0  0  0  0  0  0  0  0  0  0
   53.1117   31.1791   51.4454 C   0  0  0  0  0  0  0  0  0  0  0  0
   52.9897   32.1959   50.4689 N   0  0  0  0  0  0  0  0  0  0  0  0
   53.6666   31.4151   52.7553 N   0  0  0  0  0  0  0  0  0  0  0  0
   53.1681   31.5283   53.6723 H   0  0  0  0  0  0  0  0  0  0  0  0
   52.3430   29.6495   50.4081 H   0  0  0  0  0  0  0  0  0  0  0  0
   53.6908   32.9655   50.5274 H   0  0  0  0  0  0  0  0  0  0  0  0
   54.6095   31.5421   53.2184 H   0  0  0  0  0  0  0  0  0  0  0  0
  1  9  2  0
  2  1  1  0
  2  3  2  0
  3  4  1  0
  4  8  2  0
  4  5  1  0
  5  6  1  0
  7  6  2  0
  8  7  1  0
  9 20  1  0
  9  8  1  0
 10 15  2  0
 11 12  2  0
 11 10  1  0
 12 13  1  0
 13 14  2  0
 14  2  1  0
 15 14  1  0
 16 17  1  0
 16 11  1  0
 18 16  1  0
 19 16  1  0
 22 20  1  6
 22 21  2  0
 22 23  1  0
 24 22  1  0
 24 25  1  0
 25 26  1  0
  1 27  1  0
  3 28  1  0
  5 29  1  0
  6 30  1  0
 10 31  1  0
 12 32  1  0
 23 33  1  0
 25 34  1  0
 25 35  1  0
 26 36  1  0
 26 37  1  0
 38 39  2  3
 39 40  1  0
 39 41  1  0
 41 42  1  0
 38 43  1  0
 40 44  1  0
 41 45  1  0
 26 40  1  0
M  ISO  8  27  14  28  14  29   9  30  14  31  14  32  14  33   3  34   8
M  ISO  4  35   8  36   8  37   8  42   5
M  END
>  <DihAtoms>  (1) 
24,25,39,38

>  <DihDeg>  (1) 
68.033367563218

$$$$
