
 OpenBabel03242515413D

 37 39  0  0  0  0  0  0  0  0999 V2000
   43.0480   34.7730   41.1200 C   0  0  0  0  0  0  0  0  0  0  0  0
   43.1460   34.1260   39.9380 C   0  0  0  0  0  0  0  0  0  0  0  0
   44.4350   33.7060   39.5480 C   0  0  0  0  0  0  0  0  0  0  0  0
   45.4980   33.9610   40.3470 N   0  0  0  0  0  0  0  0  0  0  0  0
   45.3500   34.6100   41.5150 C   0  0  0  0  0  0  0  0  0  0  0  0
   44.1250   34.9870   41.8490 N   0  0  0  0  0  0  0  0  0  0  0  0
   44.6690   32.9970   38.3320 N   0  0  0  0  0  0  0  0  0  0  0  0
   44.7420   33.6260   37.4900 H   0  0  0  0  0  0  0  0  0  0  0  0
   44.7490   31.9510   38.3470 H   0  0  0  0  0  0  0  0  0  0  0  0
   42.7490   35.8290   37.8710 N   0  0  0  0  0  0  0  0  0  0  0  0
   41.8970   34.8700   38.0580 C   0  0  0  0  0  0  0  0  0  0  0  0
   42.2020   33.7770   38.9620 N   0  0  0  0  0  0  0  0  0  0  0  0
   40.6400   34.9110   37.3510 N   0  0  0  0  0  0  0  0  0  0  0  0
   40.4480   34.0160   36.8510 H   0  0  0  0  0  0  0  0  0  0  0  0
   42.5130   36.5980   37.2240 H   0  0  0  0  0  0  0  0  0  0  0  0
   41.6590   32.9310   38.6920 H   0  0  0  0  0  0  0  0  0  0  0  0
   40.0040   35.7420   37.3440 H   0  0  0  0  0  0  0  0  0  0  0  0
   41.3680   35.2790   41.5760 S   0  0  0  0  0  0  0  0  0  0  0  0
   39.1540   34.2640   40.4800 C   0  0  0  0  0  0  0  0  0  0  0  0
   40.2220   33.9390   41.3280 C   0  0  0  0  0  0  0  0  0  0  0  0
   40.3410   32.6700   41.8820 C   0  0  0  0  0  0  0  0  0  0  0  0
   39.4120   31.7040   41.6100 C   0  0  0  0  0  0  0  0  0  0  0  0
   38.3400   32.0120   40.7660 C   0  0  0  0  0  0  0  0  0  0  0  0
   38.1990   33.2730   40.2010 C   0  0  0  0  0  0  0  0  0  0  0  0
   37.5410   30.8470   40.6560 O   0  0  0  0  0  0  0  0  0  0  0  0
   37.9440   30.0030   41.6820 C   0  0  0  0  0  0  0  0  0  0  0  0
   39.2640   30.3820   42.0010 O   0  0  0  0  0  0  0  0  0  0  0  0
   39.0150   35.2320   40.0240 H   0  0  0  0  0  0  0  0  0  0  0  0
   41.1810   32.5050   42.5170 H   0  0  0  0  0  0  0  0  0  0  0  0
   37.3790   33.5320   39.5460 H   0  0  0  0  0  0  0  0  0  0  0  0
   37.3270   30.2620   42.5900 H   0  0  0  0  0  0  0  0  0  0  0  0
   37.8370   28.9290   41.4460 H   0  0  0  0  0  0  0  0  0  0  0  0
   46.3550   34.9230   42.4030 O   0  0  0  0  0  0  0  0  0  0  0  0
   47.6700   34.5460   42.0620 C   0  0  0  0  0  0  0  0  0  0  0  0
   47.7390   33.2440   41.6300 F   0  0  0  0  0  0  0  0  0  0  0  0
   48.0970   35.4520   41.0750 F   0  0  0  0  0  0  0  0  0  0  0  0
   48.4550   34.6810   43.1950 F   0  0  0  0  0  0  0  0  0  0  0  0
  1 18  1  0  0  0  0
  1  6  1  0  0  0  0
  2  1  2  0  0  0  0
  3  2  1  0  0  0  0
  3  4  2  0  0  0  0
  4  5  1  0  0  0  0
  5  6  2  0  0  0  0
  5 33  1  0  0  0  0
  7  9  1  0  0  0  0
  7  3  1  0  0  0  0
  8  7  1  0  0  0  0
 10 11  2  0  0  0  0
 11 12  1  0  0  0  0
 12  2  1  0  0  0  0
 13 11  1  0  0  0  0
 14 13  1  0  0  0  0
 15 10  1  0  0  0  0
 16 12  1  0  0  0  0
 17 13  1  0  0  0  0
 19 20  1  0  0  0  0
 20 18  1  0  0  0  0
 20 21  2  0  0  0  0
 21 29  1  0  0  0  0
 22 21  1  0  0  0  0
 22 27  1  0  0  0  0
 23 22  2  0  0  0  0
 24 19  2  0  0  0  0
 24 23  1  0  0  0  0
 25 23  1  0  0  0  0
 25 26  1  0  0  0  0
 26 27  1  0  0  0  0
 26 31  1  0  0  0  0
 28 19  1  0  0  0  0
 30 24  1  0  0  0  0
 32 26  1  0  0  0  0
 34 33  1  0  0  0  0
 34 37  1  0  0  0  0
 35 34  1  0  0  0  0
 36 34  1  0  0  0  0
M  END
>  <minimizedAffinity>
-6.101583

>  <minimizedRMSD>
1.10137343

$$$$
