
 OpenBabel03242513433D

 45 47  0  0  0  0  0  0  0  0999 V2000
   47.7430   31.0260   45.9850 C   0  0  0  0  0  0  0  0  0  0  0  0
   46.9880   32.0470   45.4650 C   0  0  0  0  0  0  0  0  0  0  0  0
   45.9480   32.4980   46.2280 C   0  0  0  0  0  0  0  0  0  0  0  0
   45.6240   31.9960   47.4600 C   0  0  0  0  0  0  0  0  0  0  0  0
   44.6910   32.2180   48.4240 N   0  0  0  0  0  0  0  0  0  0  0  0
   44.8860   31.3640   49.4690 C   0  0  0  0  0  0  0  0  0  0  0  0
   45.9500   30.6120   49.1390 N   0  0  0  0  0  0  0  0  0  0  0  0
   46.4080   30.9760   47.9360 C   0  0  0  0  0  0  0  0  0  0  0  0
   47.4710   30.4670   47.2310 C   0  0  0  0  0  0  0  0  0  0  0  0
   48.5860   30.6380   45.4010 H   0  0  0  0  0  0  0  0  0  0  0  0
   45.3280   33.3130   45.8390 H   0  0  0  0  0  0  0  0  0  0  0  0
   43.9790   32.9640   48.2730 H   0  0  0  0  0  0  0  0  0  0  0  0
   44.2670   31.3530   50.3560 H   0  0  0  0  0  0  0  0  0  0  0  0
   47.2800   34.4110   42.6970 C   0  0  0  0  0  0  0  0  0  0  0  0
   47.8900   33.6470   41.6970 C   0  0  0  0  0  0  0  0  0  0  0  0
   48.1880   32.3050   42.0160 C   0  0  0  0  0  0  0  0  0  0  0  0
   47.8810   31.8260   43.2440 N   0  0  0  0  0  0  0  0  0  0  0  0
   47.2960   32.6130   44.1620 C   0  0  0  0  0  0  0  0  0  0  0  0
   46.9900   33.8950   43.9120 N   0  0  0  0  0  0  0  0  0  0  0  0
   47.0500   35.4510   42.4490 H   0  0  0  0  0  0  0  0  0  0  0  0
   48.6610   31.7100   41.2420 H   0  0  0  0  0  0  0  0  0  0  0  0
   48.1810   34.2740   40.3820 C   0  0  0  0  0  0  0  0  0  0  0  0
   48.7320   35.5060   40.7080 F   0  0  0  0  0  0  0  0  0  0  0  0
   47.0100   34.4600   39.7340 F   0  0  0  0  0  0  0  0  0  0  0  0
   49.0560   33.4600   39.6850 F   0  0  0  0  0  0  0  0  0  0  0  0
   48.2250   29.4370   47.7670 O   0  0  0  0  0  0  0  0  0  0  0  0
   49.8430   28.2320   49.3950 O   0  0  0  0  0  0  0  0  0  0  0  0
   49.4540   29.6250   48.9070 P   0  0  2  0  0  0  0  0  0  0  0  0
   48.7720   30.4280   50.2470 O   0  0  0  0  0  0  0  0  0  0  0  0
   48.6030   31.3540   49.9340 H   0  0  0  0  0  0  0  0  0  0  0  0
   50.7960   30.4540   48.3470 O   0  0  0  0  0  0  0  0  0  0  0  0
   51.7730   30.6510   49.2920 C   0  0  0  0  0  0  0  0  0  0  0  0
   51.4860   30.1390   50.2300 H   0  0  0  0  0  0  0  0  0  0  0  0
   52.7340   30.2550   48.9590 H   0  0  0  0  0  0  0  0  0  0  0  0
   51.8450   32.1670   49.5380 C   0  0  0  0  0  0  0  0  0  0  0  0
   52.8810   32.5040   49.6770 H   0  0  0  0  0  0  0  0  0  0  0  0
   51.4070   32.6860   48.6470 H   0  0  0  0  0  0  0  0  0  0  0  0
   52.9900   32.6150   52.1540 N   0  0  0  0  0  0  0  0  0  0  0  0
   51.7440   32.3710   51.9640 C   0  0  0  0  0  0  0  0  0  0  0  0
   51.0610   32.4300   50.7270 N   0  0  0  0  0  0  0  0  0  0  0  0
   51.0930   32.0160   53.2010 N   0  0  0  0  0  0  0  0  0  0  0  0
   51.1210   31.1060   53.7240 H   0  0  0  0  0  0  0  0  0  0  0  0
   53.5750   32.8830   51.3400 H   0  0  0  0  0  0  0  0  0  0  0  0
   50.0460   32.6580   50.7810 H   0  0  0  0  0  0  0  0  0  0  0  0
   50.4560   32.4470   53.9270 H   0  0  0  0  0  0  0  0  0  0  0  0
  1  9  1  0  0  0  0
  2  1  2  0  0  0  0
  2  3  1  0  0  0  0
  3  4  2  0  0  0  0
  4  8  1  0  0  0  0
  4  5  1  0  0  0  0
  5  6  1  0  0  0  0
  6 13  1  0  0  0  0
  7  6  2  0  0  0  0
  8  7  1  0  0  0  0
  9 26  1  0  0  0  0
  9  8  2  0  0  0  0
 10  1  1  0  0  0  0
 11  3  1  0  0  0  0
 12  5  1  0  0  0  0
 14 19  1  0  0  0  0
 15 16  1  0  0  0  0
 15 14  2  0  0  0  0
 16 17  2  0  0  0  0
 17 18  1  0  0  0  0
 18  2  1  0  0  0  0
 19 18  2  0  0  0  0
 20 14  1  0  0  0  0
 21 16  1  0  0  0  0
 22 23  1  0  0  0  0
 22 15  1  0  0  0  0
 24 22  1  0  0  0  0
 25 22  1  0  0  0  0
 26 28  1  0  0  0  0
 28 27  2  1  0  0  0
 28 29  1  0  0  0  0
 30 29  1  0  0  0  0
 31 28  1  0  0  0  0
 31 32  1  0  0  0  0
 32 35  1  0  0  0  0
 32 33  1  0  0  0  0
 34 32  1  0  0  0  0
 35 36  1  0  0  0  0
 35 40  1  0  0  0  0
 37 35  1  0  0  0  0
 39 38  2  0  0  0  0
 39 41  1  0  0  0  0
 40 44  1  0  0  0  0
 40 39  1  0  0  0  0
 41 42  1  0  0  0  0
 41 45  1  0  0  0  0
 43 38  1  0  0  0  0
M  END
>  <minimizedAffinity>
-5.96602488

>  <minimizedRMSD>
1.03766406

$$$$
