
 OpenBabel03252509333D

 39 40  0  0  1  0  0  0  0  0999 V2000
   45.0870   34.3610   42.6810 C   0  0  1  0  0  0  0  0  0  0  0  0
   44.2030   35.4580   42.1570 C   0  0  0  0  0  0  0  0  0  0  0  0
   43.8270   34.9150   40.8000 C   0  0  0  0  0  0  0  0  0  0  0  0
   45.0170   34.0660   40.3640 C   0  0  0  0  0  0  0  0  0  0  0  0
   46.0290   34.1660   41.4920 C   0  0  1  0  0  0  0  0  0  0  0  0
   44.5500   33.4200   42.8220 H   0  0  0  0  0  0  0  0  0  0  0  0
   43.3390   35.6920   42.7850 H   0  0  0  0  0  0  0  0  0  0  0  0
   44.7970   36.3850   42.0420 H   0  0  0  0  0  0  0  0  0  0  0  0
   42.9800   34.2000   40.9990 H   0  0  0  0  0  0  0  0  0  0  0  0
   43.5560   35.6820   40.0600 H   0  0  0  0  0  0  0  0  0  0  0  0
   45.4590   34.6050   39.4920 H   0  0  0  0  0  0  0  0  0  0  0  0
   44.7350   33.0190   40.1370 H   0  0  0  0  0  0  0  0  0  0  0  0
   46.4520   33.1510   41.6030 H   0  0  0  0  0  0  0  0  0  0  0  0
   48.5850   33.6320   40.3850 N   0  0  0  0  0  0  0  0  0  0  0  0
   48.2180   34.8290   40.6990 C   0  0  0  0  0  0  0  0  0  0  0  0
   46.9920   35.1980   41.3400 N   0  0  0  0  0  0  0  0  0  0  0  0
   49.1570   35.8550   40.3540 N   0  0  0  0  0  0  0  0  0  0  0  0
   49.3140   36.8070   39.9680 H   0  0  0  0  0  0  0  0  0  0  0  0
   47.9430   32.8420   40.6100 H   0  0  0  0  0  0  0  0  0  0  0  0
   46.8170   36.1540   41.6720 H   0  0  0  0  0  0  0  0  0  0  0  0
   50.1830   35.7190   40.5090 H   0  0  0  0  0  0  0  0  0  0  0  0
   45.8140   34.7240   43.8150 O   0  0  0  0  0  0  0  0  0  0  0  0
   45.0890   34.0260   46.2100 O   0  0  0  0  0  0  0  0  0  0  0  0
   45.7050   33.4910   44.9580 P   0  0  1  0  0  0  0  0  0  0  0  0
   44.8930   32.1540   44.3550 O   0  0  0  0  0  0  0  0  0  0  0  0
   44.4100   32.3670   43.5190 H   0  0  0  0  0  0  0  0  0  0  0  0
   47.2840   32.9640   45.2870 O   0  0  0  0  0  0  0  0  0  0  0  0
   47.2460   31.6130   45.5010 C   0  0  0  0  0  0  0  0  0  0  0  0
   48.3310   31.2920   45.5160 H   0  0  0  0  0  0  0  0  0  0  0  0
   46.7750   30.9810   44.7670 H   0  0  0  0  0  0  0  0  0  0  0  0
   46.9230   31.3690   49.1970 C   0  0  0  0  0  0  0  0  0  0  0  0
   47.4340   31.7110   47.9410 C   0  0  0  0  0  0  0  0  0  0  0  0
   46.7310   31.2680   46.8220 C   0  0  0  0  0  0  0  0  0  0  0  0
   45.5930   30.5330   47.0240 N   0  0  0  0  0  0  0  0  0  0  0  0
   45.1290   30.2220   48.2470 C   0  0  0  0  0  0  0  0  0  0  0  0
   45.8060   30.6480   49.3280 N   0  0  0  0  0  0  0  0  0  0  0  0
   47.5260   31.7490   50.0290 H   0  0  0  0  0  0  0  0  0  0  0  0
   48.3340   32.2920   47.8020 H   0  0  0  0  0  0  0  0  0  0  0  0
   44.2250   29.6400   48.3790 H   0  0  0  0  0  0  0  0  0  0  0  0
  1  6  1  1  0  0  0
  1 22  1  0  0  0  0
  2  1  1  0  0  0  0
  2  7  1  0  0  0  0
  3  9  1  0  0  0  0
  3  2  1  0  0  0  0
  4  3  1  0  0  0  0
  4  5  1  0  0  0  0
  5 13  1  1  0  0  0
  5  1  1  0  0  0  0
  8  2  1  0  0  0  0
 10  3  1  0  0  0  0
 11  4  1  0  0  0  0
 12  4  1  0  0  0  0
 14 19  1  0  0  0  0
 14 15  2  0  0  0  0
 15 16  1  0  0  0  0
 16  5  1  0  0  0  0
 16 20  1  0  0  0  0
 17 21  1  0  0  0  0
 17 15  1  0  0  0  0
 18 17  1  0  0  0  0
 22 24  1  0  0  0  0
 24 27  1  0  0  0  0
 24 23  2  1  0  0  0
 25 24  1  0  0  0  0
 26 25  1  0  0  0  0
 27 28  1  0  0  0  0
 28 29  1  0  0  0  0
 28 33  1  0  0  0  0
 30 28  1  0  0  0  0
 31 36  1  0  0  0  0
 31 37  1  0  0  0  0
 32 31  2  0  0  0  0
 33 34  2  0  0  0  0
 33 32  1  0  0  0  0
 34 35  1  0  0  0  0
 35 39  1  0  0  0  0
 35 36  2  0  0  0  0
 38 32  1  0  0  0  0
M  END
>  <minimizedAffinity>
-4.84387732

>  <minimizedRMSD>
2.11471057

$$$$
