REMARK  Name = 
REMARK  3 active torsions:
REMARK  status: ('A' for Active; 'I' for Inactive)
REMARK    1  A    between atoms: N_1  and  C_8
REMARK    2  A    between atoms: C_6  and  N_13
REMARK    3  A    between atoms: C_17  and  N_38
REMARK                            x       y       z     vdW  Elec       q    Type
REMARK                         _______ _______ _______ _____ _____    ______ ____
ROOT
ATOM      1  N   UNL     1      44.306  34.676  41.459  0.00  0.00    +0.000 N 
ATOM      2  C   UNL     1      43.976  35.395  42.685  0.00  0.00    +0.000 C 
ATOM      3  C   UNL     1      45.184  35.772  43.484  0.00  0.00    +0.000 C 
ATOM      4  N   UNL     1      46.114  34.729  43.638  0.00  0.00    +0.000 NA
ATOM      5  C   UNL     1      46.286  33.841  42.571  0.00  0.00    +0.000 C 
ATOM      6  C   UNL     1      45.677  34.418  41.277  0.00  0.00    +0.000 C 
ATOM      7  H   UNL     1      43.483  36.346  42.363  0.00  0.00    +0.000 HD
ATOM      8  H   UNL     1      43.210  34.858  43.284  0.00  0.00    +0.000 HD
ATOM      9  H   UNL     1      45.663  36.707  43.129  0.00  0.00    +0.000 HD
ATOM     10  H   UNL     1      44.799  36.031  44.512  0.00  0.00    +0.000 HD
ATOM     11  H   UNL     1      47.036  35.112  43.945  0.00  0.00    +0.000 HD
ATOM     12  H   UNL     1      47.322  33.485  42.395  0.00  0.00    +0.000 HD
ATOM     13  H   UNL     1      45.696  32.906  42.763  0.00  0.00    +0.000 HD
ATOM     14  H   UNL     1      46.141  35.457  41.307  0.00  0.00    +0.000 HD
ENDROOT
BRANCH   6  15
ATOM     15  N   UNL     1      46.239  33.836  40.146  0.00  0.00    +0.000 NA
ATOM     16  C   UNL     1      46.130  32.429  39.916  0.00  0.00    +0.000 C 
ATOM     17  C   UNL     1      46.984  32.284  38.663  0.00  0.00    +0.000 C 
ATOM     18  C   UNL     1      48.222  33.029  39.137  0.00  0.00    +0.000 C 
ATOM     19  C   UNL     1      47.586  34.231  39.816  0.00  0.00    +0.000 C 
ATOM     20  H   UNL     1      45.088  32.205  39.572  0.00  0.00    +0.000 HD
ATOM     21  H   UNL     1      46.477  31.799  40.732  0.00  0.00    +0.000 HD
ATOM     22  H   UNL     1      46.510  32.897  37.872  0.00  0.00    +0.000 HD
ATOM     23  H   UNL     1      47.200  31.251  38.389  0.00  0.00    +0.000 HD
ATOM     24  H   UNL     1      48.834  32.453  39.837  0.00  0.00    +0.000 HD
ATOM     25  H   UNL     1      48.783  33.416  38.257  0.00  0.00    +0.000 HD
ATOM     26  H   UNL     1      48.175  34.495  40.701  0.00  0.00    +0.000 HD
BRANCH  19  29
ATOM     27  N   UNL     1      48.799  34.076  37.328  0.00  0.00    +0.000 NA
ATOM     28  C   UNL     1      47.958  35.033  37.537  0.00  0.00    +0.000 C 
ATOM     29  N   UNL     1      47.464  35.334  38.856  0.00  0.00    +0.000 N 
ATOM     30  N   UNL     1      47.466  35.854  36.458  0.00  0.00    +0.000 N 
ATOM     31  H   UNL     1      46.512  35.657  36.086  0.00  0.00    +0.000 HD
ATOM     32  H   UNL     1      49.185  33.821  36.388  0.00  0.00    +0.000 HD
ATOM     33  H   UNL     1      47.059  36.281  39.061  0.00  0.00    +0.000 HD
ATOM     34  H   UNL     1      47.951  36.642  35.985  0.00  0.00    +0.000 HD
ENDBRANCH  19  29
ENDBRANCH   6  15
BRANCH   1  36
ATOM     35  C   UNL     1      42.594  33.142  40.873  0.00  0.00    +0.000 A 
ATOM     36  C   UNL     1      43.227  34.337  40.626  0.00  0.00    +0.000 A 
ATOM     37  C   UNL     1      42.754  35.107  39.582  0.00  0.00    +0.000 A 
ATOM     38  N   UNL     1      41.704  34.689  38.835  0.00  0.00    +0.000 NA
ATOM     39  C   UNL     1      41.103  33.504  39.107  0.00  0.00    +0.000 A 
ATOM     40  N   UNL     1      41.550  32.744  40.118  0.00  0.00    +0.000 NA
ATOM     41  H   UNL     1      42.886  32.467  41.666  0.00  0.00    +0.000 HD
ATOM     42  H   UNL     1      43.250  36.035  39.394  0.00  0.00    +0.000 HD
ATOM     43  H   UNL     1      40.272  33.166  38.522  0.00  0.00    +0.000 HD
ENDBRANCH   1  36
TORSDOF 3
