
 OpenBabel03252509333D

 39 37  0  0  1  0  0  0  0  0999 V2000
   47.1710   33.4200   42.5570 C   0  0  0  0  0  0  0  0  0  0  0  0
   47.3250   33.5070   41.0640 C   0  0  0  0  0  0  0  0  0  0  0  0
   48.2390   32.3370   40.7910 C   0  0  0  0  0  0  0  0  0  0  0  0
   49.0920   32.1920   42.0460 C   0  0  0  0  0  0  0  0  0  0  0  0
   48.6340   33.2940   42.9850 C   0  0  1  0  0  0  0  0  0  0  0  0
   46.6650   32.5050   42.8730 H   0  0  0  0  0  0  0  0  0  0  0  0
   46.3900   33.4680   40.5020 H   0  0  0  0  0  0  0  0  0  0  0  0
   47.8370   34.4540   40.8040 H   0  0  0  0  0  0  0  0  0  0  0  0
   47.5580   31.4400   40.7610 H   0  0  0  0  0  0  0  0  0  0  0  0
   48.8400   32.4310   39.8750 H   0  0  0  0  0  0  0  0  0  0  0  0
   50.1290   32.4560   41.7290 H   0  0  0  0  0  0  0  0  0  0  0  0
   49.0150   31.1850   42.5020 H   0  0  0  0  0  0  0  0  0  0  0  0
   48.6170   32.8390   43.9930 H   0  0  0  0  0  0  0  0  0  0  0  0
   48.2240   35.0950   40.8330 N   0  0  0  0  0  0  0  0  0  0  0  0
   49.0270   35.3710   41.8070 C   0  0  0  0  0  0  0  0  0  0  0  0
   49.3720   34.5040   42.8910 N   0  0  0  0  0  0  0  0  0  0  0  0
   49.6050   36.6820   41.7560 N   0  0  0  0  0  0  0  0  0  0  0  0
   49.8790   37.5390   42.2740 H   0  0  0  0  0  0  0  0  0  0  0  0
   47.7720   34.1560   40.8160 H   0  0  0  0  0  0  0  0  0  0  0  0
   50.1110   34.7400   43.5640 H   0  0  0  0  0  0  0  0  0  0  0  0
   49.9490   37.0820   40.8540 H   0  0  0  0  0  0  0  0  0  0  0  0
   46.6000   34.5580   43.1260 O   0  0  0  0  0  0  0  0  0  0  0  0
   44.6620   35.2770   44.7000 O   0  0  0  0  0  0  0  0  0  0  0  0
   45.4660   34.0890   44.2800 P   0  0  1  0  0  0  0  0  0  0  0  0
   44.5130   32.8200   43.7360 O   0  0  0  0  0  0  0  0  0  0  0  0
   44.6020   32.6910   42.7590 H   0  0  0  0  0  0  0  0  0  0  0  0
   46.3200   33.4850   45.6160 O   0  0  0  0  0  0  0  0  0  0  0  0
   46.1930   32.1230   45.6230 C   0  0  0  0  0  0  0  0  0  0  0  0
   47.2330   31.7340   45.4060 H   0  0  0  0  0  0  0  0  0  0  0  0
   45.5560   31.6540   44.8900 H   0  0  0  0  0  0  0  0  0  0  0  0
   45.6610   31.9190   49.2970 C   0  0  0  0  0  0  0  0  0  0  0  0
   45.9860   32.4440   48.0420 C   0  0  0  0  0  0  0  0  0  0  0  0
   45.8590   31.5970   46.9430 C   0  0  0  0  0  0  0  0  0  0  0  0
   45.4270   30.3160   47.1620 N   0  0  0  0  0  0  0  0  0  0  0  0
   45.1220   29.8440   48.3830 C   0  0  0  0  0  0  0  0  0  0  0  0
   45.2450   30.6590   49.4450 N   0  0  0  0  0  0  0  0  0  0  0  0
   45.7850   32.6400   50.1130 H   0  0  0  0  0  0  0  0  0  0  0  0
   46.3260   33.4580   47.8900 H   0  0  0  0  0  0  0  0  0  0  0  0
   44.7820   28.8260   48.5290 H   0  0  0  0  0  0  0  0  0  0  0  0
  1  6  1  0  0  0  0
  1  5  1  0  0  0  0
  1 22  1  0  0  0  0
  3  4  1  0  0  0  0
  4 12  1  0  0  0  0
  4  5  1  0  0  0  0
  5 13  1  1  0  0  0
  7  2  1  0  0  0  0
  8 14  1  0  0  0  0
  9  3  1  0  0  0  0
 10  3  1  0  0  0  0
 11  4  1  0  0  0  0
 15 16  1  0  0  0  0
 16  5  1  0  0  0  0
 16 20  1  0  0  0  0
 17 15  1  0  0  0  0
 17 18  1  0  0  0  0
 19  2  1  0  0  0  0
 21 17  1  0  0  0  0
 22 24  1  0  0  0  0
 24 23  2  1  0  0  0
 24 27  1  0  0  0  0
 25 24  1  0  0  0  0
 26 25  1  0  0  0  0
 27 28  1  0  0  0  0
 28 33  1  0  0  0  0
 29 28  1  0  0  0  0
 30 28  1  0  0  0  0
 31 36  1  0  0  0  0
 31 37  1  0  0  0  0
 32 31  2  0  0  0  0
 33 34  2  0  0  0  0
 33 32  1  0  0  0  0
 34 35  1  0  0  0  0
 35 39  1  0  0  0  0
 35 36  2  0  0  0  0
 38 32  1  0  0  0  0
M  END
>  <minimizedAffinity>
-5.07745075

>  <minimizedRMSD>
1.11699712

$$$$
