
 OpenBabel03252500203D

 21 21  0  0  0  0  0  0  0  0999 V2000
   44.8650   35.6570   44.2490 C   0  0  0  0  0  0  0  0  0  0  0  0
   45.7990   34.8880   43.5800 C   0  0  0  0  0  0  0  0  0  0  0  0
   46.3340   33.7940   44.2890 C   0  0  0  0  0  0  0  0  0  0  0  0
   45.9200   33.5550   45.5530 N   0  0  0  0  0  0  0  0  0  0  0  0
   45.0080   34.3460   46.1380 C   0  0  0  0  0  0  0  0  0  0  0  0
   44.4800   35.3950   45.4900 N   0  0  0  0  0  0  0  0  0  0  0  0
   44.5600   34.1180   47.4570 N   0  0  0  0  0  0  0  0  0  0  0  0
   44.4110   36.5080   43.7630 H   0  0  0  0  0  0  0  0  0  0  0  0
   45.1030   34.6270   48.1910 H   0  0  0  0  0  0  0  0  0  0  0  0
   43.7950   33.5450   47.8500 H   0  0  0  0  0  0  0  0  0  0  0  0
   44.3280   34.5620   41.0940 N   0  0  0  0  0  0  0  0  0  0  0  0
   45.6400   34.5500   41.0750 C   0  0  0  0  0  0  0  0  0  0  0  0
   46.2240   35.1410   42.2470 N   0  0  0  0  0  0  0  0  0  0  0  0
   46.5450   34.0440   40.0720 N   0  0  0  0  0  0  0  0  0  0  0  0
   46.8020   33.1020   39.6970 H   0  0  0  0  0  0  0  0  0  0  0  0
   43.8220   34.1610   40.2990 H   0  0  0  0  0  0  0  0  0  0  0  0
   47.0360   35.8130   42.1160 H   0  0  0  0  0  0  0  0  0  0  0  0
   47.0150   34.9070   39.6830 H   0  0  0  0  0  0  0  0  0  0  0  0
   47.3020   32.9810   43.6220 N   0  0  0  0  0  0  0  0  0  0  0  0
   48.1250   33.4170   43.1380 H   0  0  0  0  0  0  0  0  0  0  0  0
   47.1790   31.9430   43.6230 H   0  0  0  0  0  0  0  0  0  0  0  0
  1  6  1  0  0  0  0
  2  1  2  0  0  0  0
  2  3  1  0  0  0  0
  3  4  2  0  0  0  0
  4  5  1  0  0  0  0
  5  7  1  0  0  0  0
  6  5  2  0  0  0  0
  7 10  1  0  0  0  0
  7  9  1  0  0  0  0
  8  1  1  0  0  0  0
 12 11  2  0  0  0  0
 12 13  1  0  0  0  0
 13  2  1  0  0  0  0
 14 12  1  0  0  0  0
 15 14  1  0  0  0  0
 16 11  1  0  0  0  0
 17 13  1  0  0  0  0
 18 14  1  0  0  0  0
 19 21  1  0  0  0  0
 19  3  1  0  0  0  0
 20 19  1  0  0  0  0
M  END
>  <minimizedAffinity>
-4.56211948

>  <minimizedRMSD>
1.11306405

$$$$
