
 OpenBabel03242522393D

 39 40  0  0  0  0  0  0  0  0999 V2000
   46.2190   31.6650   45.6780 C   0  0  0  0  0  0  0  0  0  0  0  0
   46.1580   30.7460   45.0220 H   0  0  0  0  0  0  0  0  0  0  0  0
   45.1850   31.9250   45.8960 H   0  0  0  0  0  0  0  0  0  0  0  0
   47.3910   32.2610   47.7960 C   0  0  0  0  0  0  0  0  0  0  0  0
   47.0540   31.2850   46.8210 C   0  0  0  0  0  0  0  0  0  0  0  0
   47.5540   30.0050   47.0170 C   0  0  0  0  0  0  0  0  0  0  0  0
   48.3230   29.7560   48.1090 N   0  0  0  0  0  0  0  0  0  0  0  0
   48.6130   30.7030   48.9980 C   0  0  0  0  0  0  0  0  0  0  0  0
   48.1600   31.9430   48.8540 N   0  0  0  0  0  0  0  0  0  0  0  0
   47.0490   33.2870   47.7310 H   0  0  0  0  0  0  0  0  0  0  0  0
   47.3040   29.2680   46.2900 H   0  0  0  0  0  0  0  0  0  0  0  0
   49.4680   30.3390   50.1700 C   0  0  0  0  0  0  0  0  0  0  0  0
   49.1810   31.0250   50.9920 H   0  0  0  0  0  0  0  0  0  0  0  0
   49.3010   29.2960   50.4860 H   0  0  0  0  0  0  0  0  0  0  0  0
   51.2050   28.0720   50.1260 N   0  0  0  0  0  0  0  0  0  0  0  0
   51.5330   29.2910   49.9020 C   0  0  0  0  0  0  0  0  0  0  0  0
   50.8560   30.5440   49.7400 N   0  0  0  0  0  0  0  0  0  0  0  0
   52.9300   28.9850   49.8600 N   0  0  0  0  0  0  0  0  0  0  0  0
   53.5650   29.0160   50.7090 H   0  0  0  0  0  0  0  0  0  0  0  0
   50.2650   27.6880   50.2520 H   0  0  0  0  0  0  0  0  0  0  0  0
   51.4930   31.2600   49.3700 H   0  0  0  0  0  0  0  0  0  0  0  0
   53.4920   28.7050   49.0240 H   0  0  0  0  0  0  0  0  0  0  0  0
   46.9880   32.6840   44.8750 C   0  0  0  0  0  0  0  0  0  0  0  0
   47.8940   33.0580   45.4370 H   0  0  0  0  0  0  0  0  0  0  0  0
   47.4560   32.2350   43.9490 H   0  0  0  0  0  0  0  0  0  0  0  0
   46.5000   34.5100   43.3020 C   0  0  0  0  0  0  0  0  0  0  0  0
   46.2310   33.8800   44.5080 C   0  0  0  0  0  0  0  0  0  0  0  0
   45.2840   34.3250   45.3810 C   0  0  0  0  0  0  0  0  0  0  0  0
   44.5590   35.4490   45.0550 C   0  0  0  0  0  0  0  0  0  0  0  0
   44.7630   36.1290   43.8860 C   0  0  0  0  0  0  0  0  0  0  0  0
   45.7450   35.6210   43.0400 C   0  0  0  0  0  0  0  0  0  0  0  0
   45.0220   33.8940   46.3260 H   0  0  0  0  0  0  0  0  0  0  0  0
   43.7840   35.8610   45.7090 H   0  0  0  0  0  0  0  0  0  0  0  0
   44.2140   37.0210   43.5890 H   0  0  0  0  0  0  0  0  0  0  0  0
   45.9130   36.1510   42.1140 H   0  0  0  0  0  0  0  0  0  0  0  0
   47.7010   33.9750   42.1630 S   0  0  0  0  0  0  0  0  0  0  0  0
   49.1030   34.4460   42.5290 O   0  0  0  0  0  0  0  0  0  0  0  0
   47.4320   34.6380   40.8200 O   0  0  0  0  0  0  0  0  0  0  0  0
   47.6750   32.6180   41.9560 H   0  0  0  0  0  0  0  0  0  0  0  0
  1  3  1  0  0  0  0
  1  5  1  0  0  0  0
  2  1  1  0  0  0  0
  4  9  1  0  0  0  0
  5  6  1  0  0  0  0
  5  4  2  0  0  0  0
  6  7  2  0  0  0  0
  7  8  1  0  0  0  0
  8 12  1  0  0  0  0
  9  8  2  0  0  0  0
 10  4  1  0  0  0  0
 11  6  1  0  0  0  0
 12 14  1  0  0  0  0
 12 13  1  0  0  0  0
 15 20  1  0  0  0  0
 16 15  2  0  0  0  0
 17 16  1  0  0  0  0
 17 12  1  0  0  0  0
 18 16  1  0  0  0  0
 18 19  1  0  0  0  0
 21 17  1  0  0  0  0
 22 18  1  0  0  0  0
 23 24  1  0  0  0  0
 23  1  1  0  0  0  0
 25 23  1  0  0  0  0
 26 27  1  0  0  0  0
 27 23  1  0  0  0  0
 27 28  2  0  0  0  0
 28 32  1  0  0  0  0
 29 28  1  0  0  0  0
 29 33  1  0  0  0  0
 30 29  2  0  0  0  0
 31 26  2  0  0  0  0
 31 30  1  0  0  0  0
 34 30  1  0  0  0  0
 35 31  1  0  0  0  0
 36 37  2  0  0  0  0
 36 26  1  0  0  0  0
 38 36  2  0  0  0  0
 39 36  1  0  0  0  0
M  END
>  <minimizedAffinity>
-4.99506187

>  <minimizedRMSD>
0.0442878008

$$$$
