
 OpenBabel03242522393D

 39 40  0  0  0  0  0  0  0  0999 V2000
   46.3190   31.6690   45.4380 C   0  0  0  0  0  0  0  0  0  0  0  0
   46.3110   30.7380   44.7960 H   0  0  0  0  0  0  0  0  0  0  0  0
   45.2710   31.8970   45.6170 H   0  0  0  0  0  0  0  0  0  0  0  0
   47.1890   32.2480   47.7010 C   0  0  0  0  0  0  0  0  0  0  0  0
   47.1280   31.3370   46.6140 C   0  0  0  0  0  0  0  0  0  0  0  0
   47.8600   30.1640   46.7370 C   0  0  0  0  0  0  0  0  0  0  0  0
   48.5820   29.9520   47.8690 N   0  0  0  0  0  0  0  0  0  0  0  0
   48.6090   30.8350   48.8640 C   0  0  0  0  0  0  0  0  0  0  0  0
   47.9260   31.9720   48.7930 N   0  0  0  0  0  0  0  0  0  0  0  0
   46.6520   33.1890   47.6990 H   0  0  0  0  0  0  0  0  0  0  0  0
   47.8180   29.4760   45.9260 H   0  0  0  0  0  0  0  0  0  0  0  0
   49.4320   30.5180   50.0720 C   0  0  0  0  0  0  0  0  0  0  0  0
   48.7190   30.3940   50.9120 H   0  0  0  0  0  0  0  0  0  0  0  0
   50.0090   29.5890   49.9380 H   0  0  0  0  0  0  0  0  0  0  0  0
   51.8860   30.5760   48.6110 N   0  0  0  0  0  0  0  0  0  0  0  0
   51.5120   31.4080   49.5120 C   0  0  0  0  0  0  0  0  0  0  0  0
   50.3230   31.6680   50.2700 N   0  0  0  0  0  0  0  0  0  0  0  0
   52.7810   32.0700   49.5320 N   0  0  0  0  0  0  0  0  0  0  0  0
   53.5770   31.7960   50.1760 H   0  0  0  0  0  0  0  0  0  0  0  0
   51.3380   29.8210   48.1890 H   0  0  0  0  0  0  0  0  0  0  0  0
   50.3850   32.5720   50.7520 H   0  0  0  0  0  0  0  0  0  0  0  0
   53.0830   32.8790   48.9410 H   0  0  0  0  0  0  0  0  0  0  0  0
   47.0800   32.7010   44.6420 C   0  0  0  0  0  0  0  0  0  0  0  0
   47.9810   33.0800   45.2090 H   0  0  0  0  0  0  0  0  0  0  0  0
   47.5540   32.2630   43.7150 H   0  0  0  0  0  0  0  0  0  0  0  0
   46.6030   34.5550   43.0980 C   0  0  0  0  0  0  0  0  0  0  0  0
   46.3120   33.8920   44.2810 C   0  0  0  0  0  0  0  0  0  0  0  0
   45.3330   34.3000   45.1370 C   0  0  0  0  0  0  0  0  0  0  0  0
   44.5970   35.4190   44.8160 C   0  0  0  0  0  0  0  0  0  0  0  0
   44.8220   36.1290   43.6690 C   0  0  0  0  0  0  0  0  0  0  0  0
   45.8360   35.6580   42.8410 C   0  0  0  0  0  0  0  0  0  0  0  0
   45.0530   33.8420   46.0640 H   0  0  0  0  0  0  0  0  0  0  0  0
   43.7970   35.8020   45.4580 H   0  0  0  0  0  0  0  0  0  0  0  0
   44.2650   37.0180   43.3770 H   0  0  0  0  0  0  0  0  0  0  0  0
   46.0200   36.2120   41.9310 H   0  0  0  0  0  0  0  0  0  0  0  0
   47.8450   34.0670   41.9820 S   0  0  0  0  0  0  0  0  0  0  0  0
   49.2110   34.6330   42.3450 O   0  0  0  0  0  0  0  0  0  0  0  0
   47.5460   34.6780   40.6210 O   0  0  0  0  0  0  0  0  0  0  0  0
   47.9050   32.7060   41.8100 H   0  0  0  0  0  0  0  0  0  0  0  0
  1  3  1  0  0  0  0
  1  5  1  0  0  0  0
  2  1  1  0  0  0  0
  4  9  1  0  0  0  0
  5  6  1  0  0  0  0
  5  4  2  0  0  0  0
  6  7  2  0  0  0  0
  7  8  1  0  0  0  0
  8 12  1  0  0  0  0
  9  8  2  0  0  0  0
 10  4  1  0  0  0  0
 11  6  1  0  0  0  0
 12 17  1  0  0  0  0
 12 13  1  0  0  0  0
 14 12  1  0  0  0  0
 15 16  2  0  0  0  0
 16 18  1  0  0  0  0
 16 17  1  0  0  0  0
 17 21  1  0  0  0  0
 18 19  1  0  0  0  0
 20 15  1  0  0  0  0
 22 18  1  0  0  0  0
 23 24  1  0  0  0  0
 23  1  1  0  0  0  0
 25 23  1  0  0  0  0
 26 27  1  0  0  0  0
 27 23  1  0  0  0  0
 27 28  2  0  0  0  0
 28 32  1  0  0  0  0
 29 28  1  0  0  0  0
 29 33  1  0  0  0  0
 30 29  2  0  0  0  0
 31 26  2  0  0  0  0
 31 30  1  0  0  0  0
 34 30  1  0  0  0  0
 35 31  1  0  0  0  0
 36 37  2  0  0  0  0
 36 26  1  0  0  0  0
 38 36  2  0  0  0  0
 39 36  1  0  0  0  0
M  END
>  <minimizedAffinity>
-5.243577

>  <minimizedRMSD>
0.995782197

$$$$
