
 OpenBabel03242522393D

 39 40  0  0  0  0  0  0  0  0999 V2000
   46.2900   31.6630   45.6020 C   0  0  0  0  0  0  0  0  0  0  0  0
   46.2490   30.7190   44.9800 H   0  0  0  0  0  0  0  0  0  0  0  0
   45.2510   31.9050   45.8150 H   0  0  0  0  0  0  0  0  0  0  0  0
   47.3700   32.3360   47.7450 C   0  0  0  0  0  0  0  0  0  0  0  0
   47.1390   31.3460   46.7540 C   0  0  0  0  0  0  0  0  0  0  0  0
   47.7500   30.1140   46.9430 C   0  0  0  0  0  0  0  0  0  0  0  0
   48.5220   29.9230   48.0450 N   0  0  0  0  0  0  0  0  0  0  0  0
   48.7110   30.8810   48.9500 C   0  0  0  0  0  0  0  0  0  0  0  0
   48.1480   32.0760   48.8120 N   0  0  0  0  0  0  0  0  0  0  0  0
   46.9360   33.3270   47.6860 H   0  0  0  0  0  0  0  0  0  0  0  0
   47.5800   29.3680   46.2040 H   0  0  0  0  0  0  0  0  0  0  0  0
   49.5780   30.5810   50.1310 C   0  0  0  0  0  0  0  0  0  0  0  0
   49.4320   31.4170   50.8450 H   0  0  0  0  0  0  0  0  0  0  0  0
   49.2930   29.6320   50.6130 H   0  0  0  0  0  0  0  0  0  0  0  0
   51.1400   32.9700   50.2220 N   0  0  0  0  0  0  0  0  0  0  0  0
   51.4770   31.8560   49.6850 C   0  0  0  0  0  0  0  0  0  0  0  0
   50.9530   30.5230   49.6220 N   0  0  0  0  0  0  0  0  0  0  0  0
   52.6630   32.4080   49.1070 N   0  0  0  0  0  0  0  0  0  0  0  0
   52.7010   32.8380   48.1380 H   0  0  0  0  0  0  0  0  0  0  0  0
   50.3140   33.1660   50.7940 H   0  0  0  0  0  0  0  0  0  0  0  0
   51.6500   29.8710   49.2440 H   0  0  0  0  0  0  0  0  0  0  0  0
   53.6140   32.4620   49.5400 H   0  0  0  0  0  0  0  0  0  0  0  0
   47.0290   32.6710   44.7580 C   0  0  0  0  0  0  0  0  0  0  0  0
   47.9630   33.0400   45.2760 H   0  0  0  0  0  0  0  0  0  0  0  0
   47.4520   32.2130   43.8150 H   0  0  0  0  0  0  0  0  0  0  0  0
   46.5340   34.5310   43.2280 C   0  0  0  0  0  0  0  0  0  0  0  0
   46.2670   33.8710   44.4180 C   0  0  0  0  0  0  0  0  0  0  0  0
   45.3160   34.2900   45.2990 C   0  0  0  0  0  0  0  0  0  0  0  0
   44.5850   35.4170   44.9980 C   0  0  0  0  0  0  0  0  0  0  0  0
   44.7870   36.1260   43.8470 C   0  0  0  0  0  0  0  0  0  0  0  0
   45.7730   35.6430   42.9910 C   0  0  0  0  0  0  0  0  0  0  0  0
   45.0550   33.8350   46.2330 H   0  0  0  0  0  0  0  0  0  0  0  0
   43.8060   35.8090   45.6610 H   0  0  0  0  0  0  0  0  0  0  0  0
   44.2330   37.0210   43.5700 H   0  0  0  0  0  0  0  0  0  0  0  0
   45.9400   36.1960   42.0770 H   0  0  0  0  0  0  0  0  0  0  0  0
   47.7400   34.0300   42.0790 S   0  0  0  0  0  0  0  0  0  0  0  0
   49.1170   34.6020   42.3900 O   0  0  0  0  0  0  0  0  0  0  0  0
   47.3970   34.6230   40.7200 O   0  0  0  0  0  0  0  0  0  0  0  0
   47.7960   32.6660   41.9220 H   0  0  0  0  0  0  0  0  0  0  0  0
  1  3  1  0  0  0  0
  1  5  1  0  0  0  0
  2  1  1  0  0  0  0
  4  9  1  0  0  0  0
  5  6  1  0  0  0  0
  5  4  2  0  0  0  0
  6  7  2  0  0  0  0
  7  8  1  0  0  0  0
  8 12  1  0  0  0  0
  9  8  2  0  0  0  0
 10  4  1  0  0  0  0
 11  6  1  0  0  0  0
 12 14  1  0  0  0  0
 12 13  1  0  0  0  0
 15 20  1  0  0  0  0
 16 15  2  0  0  0  0
 17 16  1  0  0  0  0
 17 12  1  0  0  0  0
 18 22  1  0  0  0  0
 18 16  1  0  0  0  0
 19 18  1  0  0  0  0
 21 17  1  0  0  0  0
 23 24  1  0  0  0  0
 23  1  1  0  0  0  0
 25 23  1  0  0  0  0
 26 27  1  0  0  0  0
 27 23  1  0  0  0  0
 27 28  2  0  0  0  0
 28 32  1  0  0  0  0
 29 28  1  0  0  0  0
 29 33  1  0  0  0  0
 30 29  2  0  0  0  0
 31 26  2  0  0  0  0
 31 30  1  0  0  0  0
 34 30  1  0  0  0  0
 35 31  1  0  0  0  0
 36 37  2  0  0  0  0
 36 26  1  0  0  0  0
 38 36  2  0  0  0  0
 39 36  1  0  0  0  0
M  END
>  <minimizedAffinity>
-5.44345999

>  <minimizedRMSD>
0.629004002

$$$$
