
 OpenBabel03242522393D

 39 40  0  0  0  0  0  0  0  0999 V2000
   46.2220   31.6610   45.6710 C   0  0  0  0  0  0  0  0  0  0  0  0
   46.1630   30.7430   45.0140 H   0  0  0  0  0  0  0  0  0  0  0  0
   45.1870   31.9200   45.8880 H   0  0  0  0  0  0  0  0  0  0  0  0
   47.3860   32.2550   47.7940 C   0  0  0  0  0  0  0  0  0  0  0  0
   47.0550   31.2810   46.8160 C   0  0  0  0  0  0  0  0  0  0  0  0
   47.5590   30.0020   47.0080 C   0  0  0  0  0  0  0  0  0  0  0  0
   48.3260   29.7520   48.1020 N   0  0  0  0  0  0  0  0  0  0  0  0
   48.6100   30.6980   48.9950 C   0  0  0  0  0  0  0  0  0  0  0  0
   48.1520   31.9360   48.8540 N   0  0  0  0  0  0  0  0  0  0  0  0
   47.0400   33.2800   47.7320 H   0  0  0  0  0  0  0  0  0  0  0  0
   47.3150   29.2670   46.2780 H   0  0  0  0  0  0  0  0  0  0  0  0
   49.4630   30.3330   50.1680 C   0  0  0  0  0  0  0  0  0  0  0  0
   49.1730   31.0180   50.9900 H   0  0  0  0  0  0  0  0  0  0  0  0
   49.2970   29.2890   50.4820 H   0  0  0  0  0  0  0  0  0  0  0  0
   51.4590   28.5660   51.1950 N   0  0  0  0  0  0  0  0  0  0  0  0
   51.6560   29.6010   50.4660 C   0  0  0  0  0  0  0  0  0  0  0  0
   50.8520   30.5400   49.7410 N   0  0  0  0  0  0  0  0  0  0  0  0
   53.0770   29.5250   50.6130 N   0  0  0  0  0  0  0  0  0  0  0  0
   53.6160   30.0160   51.3830 H   0  0  0  0  0  0  0  0  0  0  0  0
   50.5630   28.1360   51.4440 H   0  0  0  0  0  0  0  0  0  0  0  0
   51.4300   31.1140   49.1150 H   0  0  0  0  0  0  0  0  0  0  0  0
   53.7490   28.9990   50.0090 H   0  0  0  0  0  0  0  0  0  0  0  0
   46.9910   32.6830   44.8710 C   0  0  0  0  0  0  0  0  0  0  0  0
   47.8960   33.0560   45.4350 H   0  0  0  0  0  0  0  0  0  0  0  0
   47.4610   32.2360   43.9450 H   0  0  0  0  0  0  0  0  0  0  0  0
   46.5030   34.5100   43.2990 C   0  0  0  0  0  0  0  0  0  0  0  0
   46.2340   33.8790   44.5040 C   0  0  0  0  0  0  0  0  0  0  0  0
   45.2860   34.3230   45.3780 C   0  0  0  0  0  0  0  0  0  0  0  0
   44.5610   35.4470   45.0530 C   0  0  0  0  0  0  0  0  0  0  0  0
   44.7650   36.1280   43.8850 C   0  0  0  0  0  0  0  0  0  0  0  0
   45.7470   35.6210   43.0390 C   0  0  0  0  0  0  0  0  0  0  0  0
   45.0250   33.8900   46.3220 H   0  0  0  0  0  0  0  0  0  0  0  0
   43.7850   35.8580   45.7080 H   0  0  0  0  0  0  0  0  0  0  0  0
   44.2150   37.0190   43.5880 H   0  0  0  0  0  0  0  0  0  0  0  0
   45.9150   36.1510   42.1130 H   0  0  0  0  0  0  0  0  0  0  0  0
   47.7040   33.9770   42.1600 S   0  0  0  0  0  0  0  0  0  0  0  0
   49.1060   34.4480   42.5260 O   0  0  0  0  0  0  0  0  0  0  0  0
   47.4340   34.6400   40.8180 O   0  0  0  0  0  0  0  0  0  0  0  0
   47.6790   32.6190   41.9520 H   0  0  0  0  0  0  0  0  0  0  0  0
  1  3  1  0  0  0  0
  1  5  1  0  0  0  0
  2  1  1  0  0  0  0
  4  9  1  0  0  0  0
  5  6  1  0  0  0  0
  5  4  2  0  0  0  0
  6  7  2  0  0  0  0
  7  8  1  0  0  0  0
  8 12  1  0  0  0  0
  9  8  2  0  0  0  0
 10  4  1  0  0  0  0
 11  6  1  0  0  0  0
 12 14  1  0  0  0  0
 12 13  1  0  0  0  0
 15 20  1  0  0  0  0
 16 18  1  0  0  0  0
 16 15  2  0  0  0  0
 17 12  1  0  0  0  0
 17 16  1  0  0  0  0
 18 19  1  0  0  0  0
 21 17  1  0  0  0  0
 22 18  1  0  0  0  0
 23 24  1  0  0  0  0
 23  1  1  0  0  0  0
 25 23  1  0  0  0  0
 26 27  1  0  0  0  0
 27 23  1  0  0  0  0
 27 28  2  0  0  0  0
 28 32  1  0  0  0  0
 29 28  1  0  0  0  0
 29 33  1  0  0  0  0
 30 29  2  0  0  0  0
 31 26  2  0  0  0  0
 31 30  1  0  0  0  0
 34 30  1  0  0  0  0
 35 31  1  0  0  0  0
 36 37  2  0  0  0  0
 36 26  1  0  0  0  0
 38 36  2  0  0  0  0
 39 36  1  0  0  0  0
M  END
>  <minimizedAffinity>
-5.03169394

>  <minimizedRMSD>
0.027754778

$$$$
