
     RDKit          3D

 21 21  0  0  0  0  0  0  0  0999 V2000
   44.6466   36.0296   44.3610 C   0  0  0  0  0  0  0  0  0  0  0  0
   45.4511   35.5865   43.3272 C   0  0  0  0  0  0  0  0  0  0  0  0
   46.1810   34.4052   43.5629 C   0  0  0  0  0  0  0  0  0  0  0  0
   46.0641   33.7778   44.7551 N   0  0  0  0  0  0  0  0  0  0  0  0
   45.2623   34.2683   45.7125 C   0  0  0  0  0  0  0  0  0  0  0  0
   44.5542   35.3913   45.5183 N   0  0  0  0  0  0  0  0  0  0  0  0
   45.1226   33.6331   46.9652 N   0  0  0  0  0  0  0  0  0  0  0  0
   47.0211   33.9232   42.5119 N   0  0  0  0  0  0  0  0  0  0  0  0
   44.0568   36.9260   44.2457 H   0  0  0  0  0  0  0  0  0  0  0  0
   45.7863   33.9741   47.6968 H   0  0  0  0  0  0  0  0  0  0  0  0
   44.4914   32.8919   47.3101 H   0  0  0  0  0  0  0  0  0  0  0  0
   47.6966   34.5649   42.0293 H   0  0  0  0  0  0  0  0  0  0  0  0
   46.9534   32.9188   42.2292 H   0  0  0  0  0  0  0  0  0  0  0  0
   43.6676   35.4818   41.0339 N   0  0  0  0  0  0  0  0  0  0  0  0
   44.9252   35.8168   40.8598 C   0  0  0  0  0  0  0  0  0  0  0  0
   45.5642   36.2474   42.0729 N   0  0  0  0  0  0  0  0  0  0  0  0
   45.7255   35.8142   39.6603 N   0  0  0  0  0  0  0  0  0  0  0  0
   46.1121   35.0855   39.0156 H   0  0  0  0  0  0  0  0  0  0  0  0
   43.1290   35.1615   40.2245 H   0  0  0  0  0  0  0  0  0  0  0  0
   46.1696   37.1187   42.0356 H   0  0  0  0  0  0  0  0  0  0  0  0
   45.9145   36.8347   39.4684 H   0  0  0  0  0  0  0  0  0  0  0  0
  1  6  2  0
  2  3  2  0
  2  1  1  0
  3  4  1  0
  4  5  2  0
  5  7  1  0
  6  5  1  0
  8  3  1  0
  1  9  1  0
  7 10  1  0
  7 11  1  0
  8 12  1  0
  8 13  1  0
 14 15  2  3
 15 16  1  0
 15 17  1  0
 17 18  1  0
 14 19  1  0
 16 20  1  0
 17 21  1  0
  2 16  1  0
M  ISO  2   9  14  18   5
M  END
>  <DihAtoms>  (1) 
2,1,15,14

>  <DihDeg>  (1) 
-178.15207438277568

$$$$
