REMARK  Name = 
REMARK  3 active torsions:
REMARK  status: ('A' for Active; 'I' for Inactive)
REMARK    1  A    between atoms: C_1  and  C_13
REMARK    2  A    between atoms: C_5  and  C_7
REMARK    3  A    between atoms: C_18  and  N_37
REMARK                            x       y       z     vdW  Elec       q    Type
REMARK                         _______ _______ _______ _____ _____    ______ ____
ROOT
ATOM      1  C   UNL     1      46.141  32.792  46.594  0.00  0.00    +0.000 C 
ATOM      2  C   UNL     1      46.037  31.380  46.105  0.00  0.00    +0.000 C 
ATOM      3  C   UNL     1      46.565  30.477  47.199  0.00  0.00    +0.000 C 
ATOM      4  C   UNL     1      45.889  30.706  48.523  0.00  0.00    +0.000 C 
ATOM      5  C   UNL     1      45.923  32.159  48.912  0.00  0.00    +0.000 C 
ATOM      6  C   UNL     1      45.320  32.977  47.822  0.00  0.00    +0.000 C 
ATOM      7  H   UNL     1      47.212  32.950  46.835  0.00  0.00    +0.000 HD
ATOM      8  H   UNL     1      46.726  31.271  45.237  0.00  0.00    +0.000 HD
ATOM      9  H   UNL     1      45.043  31.091  45.746  0.00  0.00    +0.000 HD
ATOM     10  H   UNL     1      47.653  30.591  47.291  0.00  0.00    +0.000 HD
ATOM     11  H   UNL     1      46.373  29.431  46.904  0.00  0.00    +0.000 HD
ATOM     12  H   UNL     1      44.820  30.405  48.422  0.00  0.00    +0.000 HD
ATOM     13  H   UNL     1      46.376  30.040  49.246  0.00  0.00    +0.000 HD
ATOM     14  H   UNL     1      47.009  32.409  49.056  0.00  0.00    +0.000 HD
ATOM     15  H   UNL     1      45.425  32.245  49.894  0.00  0.00    +0.000 HD
ATOM     16  H   UNL     1      45.383  34.054  48.118  0.00  0.00    +0.000 HD
ENDROOT
BRANCH   1  17
ATOM     17  C   UNL     1      45.791  33.802  45.574  0.00  0.00    +0.000 A 
ATOM     18  C   UNL     1      44.768  34.743  45.833  0.00  0.00    +0.000 A 
ATOM     19  C   UNL     1      44.470  35.660  44.814  0.00  0.00    +0.000 A 
ATOM     20  N   UNL     1      45.188  35.586  43.634  0.00  0.00    +0.000 NA
ATOM     21  C   UNL     1      46.150  34.658  43.463  0.00  0.00    +0.000 A 
ATOM     22  N   UNL     1      46.457  33.773  44.414  0.00  0.00    +0.000 NA
ATOM     23  H   UNL     1      44.203  34.816  46.723  0.00  0.00    +0.000 HD
ATOM     24  H   UNL     1      43.712  36.429  44.884  0.00  0.00    +0.000 HD
BRANCH  21  25
ATOM     25  C   UNL     1      46.863  34.630  42.180  0.00  0.00    +0.000 A 
ATOM     26  C   UNL     1      47.998  35.353  41.990  0.00  0.00    +0.000 A 
ATOM     27  C   UNL     1      48.710  35.367  40.806  0.00  0.00    +0.000 A 
ATOM     28  C   UNL     1      48.191  34.584  39.795  0.00  0.00    +0.000 A 
ATOM     29  C   UNL     1      47.045  33.843  39.961  0.00  0.00    +0.000 A 
ATOM     30  N   UNL     1      46.383  33.868  41.155  0.00  0.00    +0.000 NA
ATOM     31  H   UNL     1      48.334  35.940  42.835  0.00  0.00    +0.000 HD
ATOM     32  H   UNL     1      49.604  35.972  40.742  0.00  0.00    +0.000 HD
ATOM     33  H   UNL     1      48.763  34.602  38.859  0.00  0.00    +0.000 HD
ATOM     34  H   UNL     1      46.707  33.260  39.128  0.00  0.00    +0.000 HD
ENDBRANCH  21  25
ENDBRANCH   1  17
BRANCH   6  37
ATOM     35  N   UNL     1      44.078  30.884  49.316  0.00  0.00    +0.000 NA
ATOM     36  C   UNL     1      43.495  31.412  48.292  0.00  0.00    +0.000 C 
ATOM     37  N   UNL     1      43.947  32.627  47.699  0.00  0.00    +0.000 N 
ATOM     38  N   UNL     1      42.368  30.661  47.826  0.00  0.00    +0.000 N 
ATOM     39  H   UNL     1      42.330  29.761  47.289  0.00  0.00    +0.000 HD
ATOM     40  H   UNL     1      44.907  31.313  49.765  0.00  0.00    +0.000 HD
ATOM     41  H   UNL     1      43.164  33.151  47.212  0.00  0.00    +0.000 HD
ATOM     42  H   UNL     1      41.426  31.086  48.065  0.00  0.00    +0.000 HD
ENDBRANCH   6  37
TORSDOF 3
