
 OpenBabel03252500203D

 21 21  0  0  0  0  0  0  0  0999 V2000
   44.5620   35.7760   44.6030 C   0  0  0  0  0  0  0  0  0  0  0  0
   45.1410   34.9320   43.6730 C   0  0  0  0  0  0  0  0  0  0  0  0
   45.6030   33.6910   44.1550 C   0  0  0  0  0  0  0  0  0  0  0  0
   45.4620   33.3920   45.4660 N   0  0  0  0  0  0  0  0  0  0  0  0
   44.8890   34.2630   46.3100 C   0  0  0  0  0  0  0  0  0  0  0  0
   44.4390   35.4520   45.8820 N   0  0  0  0  0  0  0  0  0  0  0  0
   44.7310   33.9750   47.6830 N   0  0  0  0  0  0  0  0  0  0  0  0
   44.1830   36.7400   44.3010 H   0  0  0  0  0  0  0  0  0  0  0  0
   45.5210   34.2990   48.2840 H   0  0  0  0  0  0  0  0  0  0  0  0
   43.9830   33.5060   48.2200 H   0  0  0  0  0  0  0  0  0  0  0  0
   43.0900   35.6670   41.7480 N   0  0  0  0  0  0  0  0  0  0  0  0
   44.2230   35.1580   41.3230 C   0  0  0  0  0  0  0  0  0  0  0  0
   45.2790   35.2490   42.2940 N   0  0  0  0  0  0  0  0  0  0  0  0
   44.5440   34.5440   40.0590 N   0  0  0  0  0  0  0  0  0  0  0  0
   44.2750   33.6640   39.5600 H   0  0  0  0  0  0  0  0  0  0  0  0
   42.2790   35.6470   41.1240 H   0  0  0  0  0  0  0  0  0  0  0  0
   46.2350   35.5720   41.9630 H   0  0  0  0  0  0  0  0  0  0  0  0
   45.2170   35.2170   39.6020 H   0  0  0  0  0  0  0  0  0  0  0  0
   46.2060   32.7980   43.2160 N   0  0  0  0  0  0  0  0  0  0  0  0
   46.9600   33.1320   42.5660 H   0  0  0  0  0  0  0  0  0  0  0  0
   45.8850   31.8040   43.1840 H   0  0  0  0  0  0  0  0  0  0  0  0
  1  6  1  0  0  0  0
  2  3  1  0  0  0  0
  2  1  2  0  0  0  0
  3  4  2  0  0  0  0
  4  5  1  0  0  0  0
  5  7  1  0  0  0  0
  6  5  2  0  0  0  0
  7 10  1  0  0  0  0
  7  9  1  0  0  0  0
  8  1  1  0  0  0  0
 12 11  2  0  0  0  0
 12 13  1  0  0  0  0
 13  2  1  0  0  0  0
 14 12  1  0  0  0  0
 15 14  1  0  0  0  0
 16 11  1  0  0  0  0
 17 13  1  0  0  0  0
 18 14  1  0  0  0  0
 19  3  1  0  0  0  0
 20 19  1  0  0  0  0
 21 19  1  0  0  0  0
M  END
>  <minimizedAffinity>
-4.47570324

>  <minimizedRMSD>
1.23657072

$$$$
