
 OpenBabel03252509033D

 47 48  0  0  1  0  0  0  0  0999 V2000
   46.6480   34.4170   43.6580 N   0  0  0  0  0  0  0  0  0  0  0  0
   46.2630   35.1800   42.5320 C   0  0  0  0  0  0  0  0  0  0  0  0
   44.7590   35.3040   42.3330 C   0  0  0  0  0  0  0  0  0  0  0  0
   43.9680   35.3500   43.6190 C   0  0  0  0  0  0  0  0  0  0  0  0
   44.8780   35.3500   44.8370 C   0  0  0  0  0  0  0  0  0  0  0  0
   45.7400   34.0400   44.6310 C   0  0  2  0  0  0  0  0  0  0  0  0
   46.6760   34.8900   41.5630 H   0  0  0  0  0  0  0  0  0  0  0  0
   46.6200   36.2330   42.7090 H   0  0  0  0  0  0  0  0  0  0  0  0
   44.5370   36.1920   41.7150 H   0  0  0  0  0  0  0  0  0  0  0  0
   44.3760   34.4230   41.7570 H   0  0  0  0  0  0  0  0  0  0  0  0
   43.3260   36.2540   43.6900 H   0  0  0  0  0  0  0  0  0  0  0  0
   43.2880   34.4650   43.7400 H   0  0  0  0  0  0  0  0  0  0  0  0
   44.2760   35.2120   45.7350 H   0  0  0  0  0  0  0  0  0  0  0  0
   45.5560   36.2140   44.8500 H   0  0  0  0  0  0  0  0  0  0  0  0
   45.0170   33.2470   44.3990 H   0  0  0  0  0  0  0  0  0  0  0  0
   47.8030   33.5830   43.4320 C   0  0  0  0  0  0  0  0  0  0  0  0
   48.5260   34.1750   42.8300 H   0  0  0  0  0  0  0  0  0  0  0  0
   48.3310   33.3320   44.3750 H   0  0  0  0  0  0  0  0  0  0  0  0
   47.3610   32.3600   42.6930 C   0  0  0  0  0  0  0  0  0  0  0  0
   47.5540   31.4930   43.3220 H   0  0  0  0  0  0  0  0  0  0  0  0
   46.2580   32.3680   42.4990 H   0  0  0  0  0  0  0  0  0  0  0  0
   50.1270   31.7070   40.2390 C   0  0  0  0  0  0  0  0  0  0  0  0
   49.3920   31.8060   41.4330 C   0  0  0  0  0  0  0  0  0  0  0  0
   48.1060   32.2680   41.4180 C   0  0  0  0  0  0  0  0  0  0  0  0
   47.5980   32.6120   40.2340 N   0  0  0  0  0  0  0  0  0  0  0  0
   48.2800   32.5260   39.0810 C   0  0  0  0  0  0  0  0  0  0  0  0
   49.5520   32.0730   39.0640 N   0  0  0  0  0  0  0  0  0  0  0  0
   51.1570   31.3380   40.2420 H   0  0  0  0  0  0  0  0  0  0  0  0
   49.9250   31.4960   42.2970 H   0  0  0  0  0  0  0  0  0  0  0  0
   47.7360   32.8390   38.2220 H   0  0  0  0  0  0  0  0  0  0  0  0
   46.3300   33.9190   45.8790 O   0  0  0  0  0  0  0  0  0  0  0  0
   45.5020   31.4050   45.5530 O   0  0  0  0  0  0  0  0  0  0  0  0
   46.0690   32.4210   46.5700 P   0  0  2  0  0  0  0  0  0  0  0  0
   44.7810   32.6260   47.6930 O   0  0  0  0  0  0  0  0  0  0  0  0
   45.1250   33.3350   48.3210 H   0  0  0  0  0  0  0  0  0  0  0  0
   47.3630   31.7990   47.3940 O   0  0  0  0  0  0  0  0  0  0  0  0
   47.5430   30.4700   47.0730 C   0  0  0  0  0  0  0  0  0  0  0  0
   47.3370   30.3040   45.9900 H   0  0  0  0  0  0  0  0  0  0  0  0
   46.7320   29.8930   47.5920 H   0  0  0  0  0  0  0  0  0  0  0  0
   48.2780   30.6520   49.8140 N   0  0  0  0  0  0  0  0  0  0  0  0
   48.9600   30.0480   48.9010 C   0  0  0  0  0  0  0  0  0  0  0  0
   48.8240   29.9240   47.4700 N   0  0  0  0  0  0  0  0  0  0  0  0
   50.0260   29.4350   49.6560 N   0  0  0  0  0  0  0  0  0  0  0  0
   50.2370   28.4130   49.6160 H   0  0  0  0  0  0  0  0  0  0  0  0
   47.4260   31.2070   49.6470 H   0  0  0  0  0  0  0  0  0  0  0  0
   49.6750   29.4750   47.0650 H   0  0  0  0  0  0  0  0  0  0  0  0
   50.7060   29.8720   50.3100 H   0  0  0  0  0  0  0  0  0  0  0  0
  1  6  1  0  0  0  0
  2  8  1  0  0  0  0
  2  1  1  0  0  0  0
  3  2  1  0  0  0  0
  3  4  1  0  0  0  0
  4 11  1  0  0  0  0
  4 12  1  0  0  0  0
  4  5  1  0  0  0  0
  5 14  1  0  0  0  0
  5 13  1  0  0  0  0
  6 15  1  6  0  0  0
  6  5  1  0  0  0  0
  6 31  1  0  0  0  0
  7  2  1  0  0  0  0
  9  3  1  0  0  0  0
 10  3  1  0  0  0  0
 16  1  1  0  0  0  0
 16 18  1  0  0  0  0
 17 16  1  0  0  0  0
 19 20  1  0  0  0  0
 19 16  1  0  0  0  0
 21 19  1  0  0  0  0
 22 28  1  0  0  0  0
 22 23  1  0  0  0  0
 23 29  1  0  0  0  0
 24 23  2  0  0  0  0
 24 19  1  0  0  0  0
 25 24  1  0  0  0  0
 26 25  2  0  0  0  0
 27 26  1  0  0  0  0
 27 22  2  0  0  0  0
 30 26  1  0  0  0  0
 31 33  1  0  0  0  0
 33 32  2  6  0  0  0
 33 36  1  0  0  0  0
 33 34  1  0  0  0  0
 34 35  1  0  0  0  0
 37 36  1  0  0  0  0
 37 42  1  0  0  0  0
 37 39  1  0  0  0  0
 38 37  1  0  0  0  0
 41 43  1  0  0  0  0
 41 40  2  0  0  0  0
 42 41  1  0  0  0  0
 43 47  1  0  0  0  0
 44 43  1  0  0  0  0
 45 40  1  0  0  0  0
 46 42  1  0  0  0  0
M  END
>  <minimizedAffinity>
-4.65456295

>  <minimizedRMSD>
3.20847964

$$$$
