
 OpenBabel03252509343D

 42 43  0  0  1  0  0  0  0  0999 V2000
   46.1520   33.8310   42.3540 C   0  0  1  0  0  0  0  0  0  0  0  0
   45.2380   34.7790   41.5990 C   0  0  0  0  0  0  0  0  0  0  0  0
   45.1240   34.0540   40.2580 C   0  0  0  0  0  0  0  0  0  0  0  0
   46.4040   33.2700   40.1070 C   0  0  0  0  0  0  0  0  0  0  0  0
   47.2380   33.6140   41.3270 C   0  0  1  0  0  0  0  0  0  0  0  0
   45.6620   32.8490   42.5100 H   0  0  0  0  0  0  0  0  0  0  0  0
   44.2540   34.8140   42.0820 H   0  0  0  0  0  0  0  0  0  0  0  0
   45.7250   35.7430   41.4890 H   0  0  0  0  0  0  0  0  0  0  0  0
   44.9280   34.7370   39.4310 H   0  0  0  0  0  0  0  0  0  0  0  0
   44.2900   33.3340   40.3540 H   0  0  0  0  0  0  0  0  0  0  0  0
   46.2510   32.1950   40.0140 H   0  0  0  0  0  0  0  0  0  0  0  0
   46.9460   33.7160   39.2390 H   0  0  0  0  0  0  0  0  0  0  0  0
   47.8680   32.7260   41.6100 H   0  0  0  0  0  0  0  0  0  0  0  0
   48.1050   34.8200   41.1130 C   0  0  0  0  0  0  0  0  0  0  0  0
   47.9300   35.3100   40.1600 H   0  0  0  0  0  0  0  0  0  0  0  0
   48.0680   35.5280   41.9620 H   0  0  0  0  0  0  0  0  0  0  0  0
   49.8320   35.1910   43.1860 N   0  0  0  0  0  0  0  0  0  0  0  0
   50.1860   34.2890   42.3070 C   0  0  0  0  0  0  0  0  0  0  0  0
   49.4850   34.3180   41.0630 N   0  0  0  0  0  0  0  0  0  0  0  0
   51.2240   33.3240   42.5710 N   0  0  0  0  0  0  0  0  0  0  0  0
   50.7880   32.4390   42.9560 H   0  0  0  0  0  0  0  0  0  0  0  0
   50.2750   35.2650   44.1270 H   0  0  0  0  0  0  0  0  0  0  0  0
   49.9750   33.9900   40.2120 H   0  0  0  0  0  0  0  0  0  0  0  0
   52.2640   33.1250   42.5420 H   0  0  0  0  0  0  0  0  0  0  0  0
   46.6450   34.4070   43.5220 O   0  0  0  0  0  0  0  0  0  0  0  0
   44.8200   35.0320   45.2560 O   0  0  0  0  0  0  0  0  0  0  0  0
   45.7120   33.9020   44.8270 P   0  0  1  0  0  0  0  0  0  0  0  0
   44.8270   32.5320   44.4390 O   0  0  0  0  0  0  0  0  0  0  0  0
   45.1700   31.9710   43.7370 H   0  0  0  0  0  0  0  0  0  0  0  0
   46.7250   33.4630   46.0930 O   0  0  0  0  0  0  0  0  0  0  0  0
   46.9120   32.1130   46.0610 C   0  0  0  0  0  0  0  0  0  0  0  0
   48.0110   31.9480   46.2480 H   0  0  0  0  0  0  0  0  0  0  0  0
   46.7020   31.5810   45.1410 H   0  0  0  0  0  0  0  0  0  0  0  0
   45.4390   31.4250   49.4040 C   0  0  0  0  0  0  0  0  0  0  0  0
   46.0820   32.1030   48.3550 C   0  0  0  0  0  0  0  0  0  0  0  0
   46.2340   31.4220   47.1690 C   0  0  0  0  0  0  0  0  0  0  0  0
   45.7580   30.1520   47.0870 N   0  0  0  0  0  0  0  0  0  0  0  0
   45.1470   29.5220   48.1010 C   0  0  0  0  0  0  0  0  0  0  0  0
   44.9940   30.1740   49.2590 N   0  0  0  0  0  0  0  0  0  0  0  0
   45.3180   31.9680   50.3560 H   0  0  0  0  0  0  0  0  0  0  0  0
   46.4230   33.1120   48.5220 H   0  0  0  0  0  0  0  0  0  0  0  0
   44.8210   28.5170   47.8920 H   0  0  0  0  0  0  0  0  0  0  0  0
  1  6  1  1  0  0  0
  1 25  1  0  0  0  0
  2  7  1  0  0  0  0
  2  1  1  0  0  0  0
  3 10  1  0  0  0  0
  3  2  1  0  0  0  0
  4  3  1  0  0  0  0
  4  5  1  0  0  0  0
  5 13  1  1  0  0  0
  5  1  1  0  0  0  0
  8  2  1  0  0  0  0
  9  3  1  0  0  0  0
 11  4  1  0  0  0  0
 12  4  1  0  0  0  0
 14  5  1  0  0  0  0
 14 16  1  0  0  0  0
 15 14  1  0  0  0  0
 17 22  1  0  0  0  0
 18 20  1  0  0  0  0
 18 17  2  0  0  0  0
 19 14  1  0  0  0  0
 19 18  1  0  0  0  0
 20 21  1  0  0  0  0
 23 19  1  0  0  0  0
 24 20  1  0  0  0  0
 25 27  1  0  0  0  0
 27 26  2  1  0  0  0
 27 30  1  0  0  0  0
 28 27  1  0  0  0  0
 29 28  1  0  0  0  0
 31 30  1  0  0  0  0
 31 32  1  0  0  0  0
 31 36  1  0  0  0  0
 33 31  1  0  0  0  0
 34 40  1  0  0  0  0
 35 41  1  0  0  0  0
 35 34  2  0  0  0  0
 36 35  1  0  0  0  0
 37 36  2  0  0  0  0
 37 38  1  0  0  0  0
 38 39  2  0  0  0  0
 39 34  1  0  0  0  0
 42 38  1  0  0  0  0
M  END
>  <minimizedAffinity>
-5.81234789

>  <minimizedRMSD>
1.21792102

$$$$
