
 OpenBabel03252509343D

 42 43  0  0  1  0  0  0  0  0999 V2000
   46.0470   33.8080   42.1620 C   0  0  1  0  0  0  0  0  0  0  0  0
   45.2700   34.5830   41.1130 C   0  0  0  0  0  0  0  0  0  0  0  0
   45.3760   33.6310   39.9220 C   0  0  0  0  0  0  0  0  0  0  0  0
   46.6630   32.8690   40.1210 C   0  0  0  0  0  0  0  0  0  0  0  0
   47.2860   33.4450   41.3780 C   0  0  1  0  0  0  0  0  0  0  0  0
   45.5370   32.8550   42.4090 H   0  0  0  0  0  0  0  0  0  0  0  0
   44.2200   34.6740   41.4170 H   0  0  0  0  0  0  0  0  0  0  0  0
   45.7700   35.5260   40.9130 H   0  0  0  0  0  0  0  0  0  0  0  0
   45.3190   34.1520   38.9660 H   0  0  0  0  0  0  0  0  0  0  0  0
   44.5370   32.9160   40.0080 H   0  0  0  0  0  0  0  0  0  0  0  0
   46.5260   31.7910   40.1970 H   0  0  0  0  0  0  0  0  0  0  0  0
   47.3400   33.1710   39.2860 H   0  0  0  0  0  0  0  0  0  0  0  0
   47.8600   32.6380   41.9120 H   0  0  0  0  0  0  0  0  0  0  0  0
   48.1770   34.6180   41.0970 C   0  0  0  0  0  0  0  0  0  0  0  0
   48.0110   35.0580   40.1180 H   0  0  0  0  0  0  0  0  0  0  0  0
   48.1580   35.3730   41.9050 H   0  0  0  0  0  0  0  0  0  0  0  0
   49.9480   35.1480   43.0970 N   0  0  0  0  0  0  0  0  0  0  0  0
   50.2700   34.1600   42.3020 C   0  0  0  0  0  0  0  0  0  0  0  0
   49.5470   34.0850   41.0720 N   0  0  0  0  0  0  0  0  0  0  0  0
   51.2930   33.2020   42.6410 N   0  0  0  0  0  0  0  0  0  0  0  0
   50.8460   32.3660   43.1150 H   0  0  0  0  0  0  0  0  0  0  0  0
   50.4090   35.3020   44.0200 H   0  0  0  0  0  0  0  0  0  0  0  0
   50.0150   33.6690   40.2490 H   0  0  0  0  0  0  0  0  0  0  0  0
   52.3260   32.9800   42.6140 H   0  0  0  0  0  0  0  0  0  0  0  0
   46.3430   34.5930   43.2730 O   0  0  0  0  0  0  0  0  0  0  0  0
   44.7750   34.9740   45.3040 O   0  0  0  0  0  0  0  0  0  0  0  0
   45.6170   33.9250   44.6350 P   0  0  1  0  0  0  0  0  0  0  0  0
   44.7100   32.5740   44.2300 O   0  0  0  0  0  0  0  0  0  0  0  0
   44.9580   32.1010   43.4310 H   0  0  0  0  0  0  0  0  0  0  0  0
   46.8100   33.3910   45.6900 O   0  0  0  0  0  0  0  0  0  0  0  0
   46.7770   32.0290   45.7410 C   0  0  0  0  0  0  0  0  0  0  0  0
   47.8520   31.6940   45.7590 H   0  0  0  0  0  0  0  0  0  0  0  0
   46.3290   31.4890   44.9150 H   0  0  0  0  0  0  0  0  0  0  0  0
   45.7290   31.8320   49.3020 C   0  0  0  0  0  0  0  0  0  0  0  0
   46.2740   32.3330   48.1090 C   0  0  0  0  0  0  0  0  0  0  0  0
   46.2030   31.5240   46.9980 C   0  0  0  0  0  0  0  0  0  0  0  0
   45.6160   30.3050   47.1230 N   0  0  0  0  0  0  0  0  0  0  0  0
   45.1020   29.8450   48.2730 C   0  0  0  0  0  0  0  0  0  0  0  0
   45.1660   30.6220   49.3590 N   0  0  0  0  0  0  0  0  0  0  0  0
   45.7880   32.4780   50.1940 H   0  0  0  0  0  0  0  0  0  0  0  0
   46.7190   33.3160   48.1140 H   0  0  0  0  0  0  0  0  0  0  0  0
   44.6670   28.8600   48.2240 H   0  0  0  0  0  0  0  0  0  0  0  0
  1  6  1  1  0  0  0
  1 25  1  0  0  0  0
  2  7  1  0  0  0  0
  2  1  1  0  0  0  0
  3 10  1  0  0  0  0
  3  4  1  0  0  0  0
  3  2  1  0  0  0  0
  4 11  1  0  0  0  0
  4  5  1  0  0  0  0
  5 13  1  1  0  0  0
  5  1  1  0  0  0  0
  8  2  1  0  0  0  0
  9  3  1  0  0  0  0
 12  4  1  0  0  0  0
 14  5  1  0  0  0  0
 14 16  1  0  0  0  0
 15 14  1  0  0  0  0
 17 22  1  0  0  0  0
 18 20  1  0  0  0  0
 18 17  2  0  0  0  0
 19 14  1  0  0  0  0
 19 18  1  0  0  0  0
 20 21  1  0  0  0  0
 23 19  1  0  0  0  0
 24 20  1  0  0  0  0
 25 27  1  0  0  0  0
 27 26  2  1  0  0  0
 27 30  1  0  0  0  0
 28 27  1  0  0  0  0
 29 28  1  0  0  0  0
 30 31  1  0  0  0  0
 31 32  1  0  0  0  0
 31 36  1  0  0  0  0
 33 31  1  0  0  0  0
 34 39  1  0  0  0  0
 34 40  1  0  0  0  0
 35 41  1  0  0  0  0
 35 34  2  0  0  0  0
 36 37  2  0  0  0  0
 36 35  1  0  0  0  0
 37 38  1  0  0  0  0
 38 39  2  0  0  0  0
 42 38  1  0  0  0  0
M  END
>  <minimizedAffinity>
-5.83622074

>  <minimizedRMSD>
1.09229732

$$$$
