
 OpenBabel03252509033D

 47 48  0  0  1  0  0  0  0  0999 V2000
   46.9480   34.3590   43.3180 N   0  0  0  0  0  0  0  0  0  0  0  0
   46.5840   34.9020   42.0650 C   0  0  0  0  0  0  0  0  0  0  0  0
   45.1040   34.7920   41.7310 C   0  0  0  0  0  0  0  0  0  0  0  0
   44.1910   34.9060   42.9290 C   0  0  0  0  0  0  0  0  0  0  0  0
   44.9700   35.1950   44.2020 C   0  0  0  0  0  0  0  0  0  0  0  0
   46.0030   33.9990   44.2610 C   0  0  2  0  0  0  0  0  0  0  0  0
   47.1220   34.5420   41.1850 H   0  0  0  0  0  0  0  0  0  0  0  0
   46.7910   36.0080   42.1110 H   0  0  0  0  0  0  0  0  0  0  0  0
   44.8350   35.5500   40.9730 H   0  0  0  0  0  0  0  0  0  0  0  0
   44.8900   33.7980   41.2630 H   0  0  0  0  0  0  0  0  0  0  0  0
   43.4390   35.7160   42.8150 H   0  0  0  0  0  0  0  0  0  0  0  0
   43.6160   33.9610   43.1250 H   0  0  0  0  0  0  0  0  0  0  0  0
   44.3050   35.1010   45.0600 H   0  0  0  0  0  0  0  0  0  0  0  0
   45.5330   36.1370   44.1410 H   0  0  0  0  0  0  0  0  0  0  0  0
   45.4080   33.0910   44.0920 H   0  0  0  0  0  0  0  0  0  0  0  0
   48.2130   33.6670   43.3100 C   0  0  0  0  0  0  0  0  0  0  0  0
   48.9260   34.2840   42.7200 H   0  0  0  0  0  0  0  0  0  0  0  0
   48.6540   33.5850   44.3240 H   0  0  0  0  0  0  0  0  0  0  0  0
   48.0110   32.3270   42.6760 C   0  0  0  0  0  0  0  0  0  0  0  0
   48.0320   31.5720   43.4590 H   0  0  0  0  0  0  0  0  0  0  0  0
   47.0060   32.2460   42.1890 H   0  0  0  0  0  0  0  0  0  0  0  0
   51.4290   31.9440   41.1680 C   0  0  0  0  0  0  0  0  0  0  0  0
   50.3870   32.1610   42.0870 C   0  0  0  0  0  0  0  0  0  0  0  0
   49.0830   32.0930   41.6830 C   0  0  0  0  0  0  0  0  0  0  0  0
   48.8590   31.8140   40.3990 N   0  0  0  0  0  0  0  0  0  0  0  0
   49.8360   31.6030   39.5040 C   0  0  0  0  0  0  0  0  0  0  0  0
   51.1330   31.6640   39.8720 N   0  0  0  0  0  0  0  0  0  0  0  0
   52.4750   31.9970   41.4830 H   0  0  0  0  0  0  0  0  0  0  0  0
   50.7160   32.3720   43.0740 H   0  0  0  0  0  0  0  0  0  0  0  0
   49.4950   31.3920   38.5180 H   0  0  0  0  0  0  0  0  0  0  0  0
   46.4790   34.1300   45.5550 O   0  0  0  0  0  0  0  0  0  0  0  0
   45.5670   31.6270   45.6760 O   0  0  0  0  0  0  0  0  0  0  0  0
   46.1250   32.8040   46.5070 P   0  0  2  0  0  0  0  0  0  0  0  0
   44.7960   33.2610   47.4980 O   0  0  0  0  0  0  0  0  0  0  0  0
   45.1370   34.0680   47.9960 H   0  0  0  0  0  0  0  0  0  0  0  0
   47.3530   32.3150   47.5040 O   0  0  0  0  0  0  0  0  0  0  0  0
   46.8620   32.0000   48.7530 C   0  0  0  0  0  0  0  0  0  0  0  0
   45.7480   32.0570   48.7550 H   0  0  0  0  0  0  0  0  0  0  0  0
   47.1740   32.8260   49.4470 H   0  0  0  0  0  0  0  0  0  0  0  0
   49.6300   31.7810   49.3670 N   0  0  0  0  0  0  0  0  0  0  0  0
   48.7430   30.8730   49.6030 C   0  0  0  0  0  0  0  0  0  0  0  0
   47.3400   30.7430   49.2880 N   0  0  0  0  0  0  0  0  0  0  0  0
   49.4920   29.8780   50.3310 N   0  0  0  0  0  0  0  0  0  0  0  0
   49.2050   29.5240   51.2700 H   0  0  0  0  0  0  0  0  0  0  0  0
   49.4570   32.6590   48.8580 H   0  0  0  0  0  0  0  0  0  0  0  0
   47.0080   29.7810   49.5210 H   0  0  0  0  0  0  0  0  0  0  0  0
   50.3690   29.3890   50.0640 H   0  0  0  0  0  0  0  0  0  0  0  0
  1  6  1  0  0  0  0
  2  8  1  0  0  0  0
  2  1  1  0  0  0  0
  3  2  1  0  0  0  0
  3  4  1  0  0  0  0
  4 12  1  0  0  0  0
  4  5  1  0  0  0  0
  5  6  1  0  0  0  0
  5 13  1  0  0  0  0
  6 15  1  6  0  0  0
  6 31  1  0  0  0  0
  7  2  1  0  0  0  0
  9  3  1  0  0  0  0
 10  3  1  0  0  0  0
 11  4  1  0  0  0  0
 14  5  1  0  0  0  0
 16  1  1  0  0  0  0
 16 18  1  0  0  0  0
 17 16  1  0  0  0  0
 19 16  1  0  0  0  0
 19 20  1  0  0  0  0
 21 19  1  0  0  0  0
 22 28  1  0  0  0  0
 22 23  1  0  0  0  0
 23 29  1  0  0  0  0
 24 23  2  0  0  0  0
 24 19  1  0  0  0  0
 25 24  1  0  0  0  0
 26 27  1  0  0  0  0
 26 25  2  0  0  0  0
 27 22  2  0  0  0  0
 30 26  1  0  0  0  0
 31 33  1  0  0  0  0
 33 32  2  6  0  0  0
 33 34  1  0  0  0  0
 33 36  1  0  0  0  0
 34 35  1  0  0  0  0
 36 37  1  0  0  0  0
 37 38  1  0  0  0  0
 37 42  1  0  0  0  0
 37 39  1  0  0  0  0
 40 41  2  0  0  0  0
 41 43  1  0  0  0  0
 42 46  1  0  0  0  0
 42 41  1  0  0  0  0
 43 44  1  0  0  0  0
 45 40  1  0  0  0  0
 47 43  1  0  0  0  0
M  END
>  <minimizedAffinity>
-5.1730237

>  <minimizedRMSD>
3.5094924

$$$$
