
 OpenBabel03242520353D

 34 36  0  0  1  0  0  0  0  0999 V2000
   46.6950   32.8020   42.5250 C   0  0  0  0  0  0  0  0  0  0  0  0
   47.8850   32.5620   41.7450 C   0  0  0  0  0  0  0  0  0  0  0  0
   48.8340   31.7430   42.2930 C   0  0  0  0  0  0  0  0  0  0  0  0
   48.6280   31.2010   43.5190 N   0  0  0  0  0  0  0  0  0  0  0  0
   47.4990   31.4460   44.2280 C   0  0  0  0  0  0  0  0  0  0  0  0
   46.5450   32.2480   43.7170 N   0  0  0  0  0  0  0  0  0  0  0  0
   45.9090   33.4380   42.1470 H   0  0  0  0  0  0  0  0  0  0  0  0
   49.7340   31.5510   41.7210 H   0  0  0  0  0  0  0  0  0  0  0  0
   48.0630   33.1930   40.4190 C   0  0  1  0  0  0  0  0  0  0  0  0
   47.1930   34.2150   39.9280 C   0  0  0  0  0  0  0  0  0  0  0  0
   48.5210   34.6650   40.3850 C   0  0  1  0  0  0  0  0  0  0  0  0
   48.6900   32.5780   39.7140 H   0  0  0  0  0  0  0  0  0  0  0  0
   46.9470   34.3200   38.8270 H   0  0  0  0  0  0  0  0  0  0  0  0
   46.2800   34.4810   40.5190 H   0  0  0  0  0  0  0  0  0  0  0  0
   49.2230   34.9630   39.5640 H   0  0  0  0  0  0  0  0  0  0  0  0
   48.7440   35.4130   41.6440 C   0  0  0  0  0  0  0  0  0  0  0  0
   49.3540   36.6350   41.4200 F   0  0  0  0  0  0  0  0  0  0  0  0
   49.5180   34.6800   42.5490 F   0  0  0  0  0  0  0  0  0  0  0  0
   47.5120   35.6720   42.1920 F   0  0  0  0  0  0  0  0  0  0  0  0
   47.3530   30.8060   45.5680 C   0  0  2  0  0  0  0  0  0  0  0  0
   46.2180   29.8060   45.6340 C   0  0  0  0  0  0  0  0  0  0  0  0
   46.1480   31.0940   46.3990 C   0  0  1  0  0  0  0  0  0  0  0  0
   48.3160   30.5930   46.0530 H   0  0  0  0  0  0  0  0  0  0  0  0
   46.4020   28.9190   46.2710 H   0  0  0  0  0  0  0  0  0  0  0  0
   45.5460   29.6930   44.7700 H   0  0  0  0  0  0  0  0  0  0  0  0
   45.4860   31.8800   45.9920 H   0  0  0  0  0  0  0  0  0  0  0  0
   45.2410   33.1800   48.1510 N   0  0  0  0  0  0  0  0  0  0  0  0
   45.6570   32.0390   48.5830 C   0  0  0  0  0  0  0  0  0  0  0  0
   46.4270   31.1180   47.8210 N   0  0  0  0  0  0  0  0  0  0  0  0
   45.2470   31.8010   49.9460 N   0  0  0  0  0  0  0  0  0  0  0  0
   45.6110   31.8190   50.9450 H   0  0  0  0  0  0  0  0  0  0  0  0
   45.4440   33.5170   47.1860 H   0  0  0  0  0  0  0  0  0  0  0  0
   47.1120   30.5600   48.3760 H   0  0  0  0  0  0  0  0  0  0  0  0
   44.3390   31.5000   50.3970 H   0  0  0  0  0  0  0  0  0  0  0  0
  1  6  1  0  0  0  0
  2  3  1  0  0  0  0
  2  1  2  0  0  0  0
  3  4  2  0  0  0  0
  4  5  1  0  0  0  0
  5 20  1  0  0  0  0
  6  5  2  0  0  0  0
  7  1  1  0  0  0  0
  8  3  1  0  0  0  0
  9 12  1  6  0  0  0
  9  2  1  0  0  0  0
 10 11  1  0  0  0  0
 10  9  1  0  0  0  0
 10 14  1  0  0  0  0
 11 15  1  6  0  0  0
 11  9  1  0  0  0  0
 11 16  1  0  0  0  0
 13 10  1  0  0  0  0
 16 19  1  0  0  0  0
 16 18  1  0  0  0  0
 17 16  1  0  0  0  0
 20 21  1  0  0  0  0
 20 23  1  1  0  0  0
 20 22  1  0  0  0  0
 21 24  1  0  0  0  0
 21 22  1  0  0  0  0
 22 26  1  6  0  0  0
 22 29  1  0  0  0  0
 25 21  1  0  0  0  0
 27 28  2  0  0  0  0
 28 30  1  0  0  0  0
 29 33  1  0  0  0  0
 29 28  1  0  0  0  0
 30 34  1  0  0  0  0
 30 31  1  0  0  0  0
 32 27  1  0  0  0  0
M  END
>  <minimizedAffinity>
-5.61556435

>  <minimizedRMSD>
1.73274255

$$$$
