
 OpenBabel03252509033D

 47 48  0  0  1  0  0  0  0  0999 V2000
   46.5660   34.5720   43.5870 N   0  0  0  0  0  0  0  0  0  0  0  0
   46.0660   35.5240   42.6700 C   0  0  0  0  0  0  0  0  0  0  0  0
   44.5500   35.6550   42.6540 C   0  0  0  0  0  0  0  0  0  0  0  0
   43.8990   35.4460   44.0010 C   0  0  0  0  0  0  0  0  0  0  0  0
   44.9310   35.2360   45.0970 C   0  0  0  0  0  0  0  0  0  0  0  0
   45.7660   34.0040   44.5610 C   0  0  2  0  0  0  0  0  0  0  0  0
   46.3740   35.4280   41.6270 H   0  0  0  0  0  0  0  0  0  0  0  0
   46.4410   36.5320   43.0030 H   0  0  0  0  0  0  0  0  0  0  0  0
   44.2650   36.6390   42.2400 H   0  0  0  0  0  0  0  0  0  0  0  0
   44.1070   34.8900   41.9670 H   0  0  0  0  0  0  0  0  0  0  0  0
   43.2690   36.3100   44.3070 H   0  0  0  0  0  0  0  0  0  0  0  0
   43.2340   34.5410   44.0240 H   0  0  0  0  0  0  0  0  0  0  0  0
   44.4280   34.9230   46.0110 H   0  0  0  0  0  0  0  0  0  0  0  0
   45.6090   36.0950   45.2010 H   0  0  0  0  0  0  0  0  0  0  0  0
   45.0210   33.2550   44.2610 H   0  0  0  0  0  0  0  0  0  0  0  0
   47.6900   33.8170   43.0910 C   0  0  0  0  0  0  0  0  0  0  0  0
   48.3360   34.5190   42.5210 H   0  0  0  0  0  0  0  0  0  0  0  0
   48.3250   33.4210   43.9100 H   0  0  0  0  0  0  0  0  0  0  0  0
   47.1690   32.7280   42.2070 C   0  0  0  0  0  0  0  0  0  0  0  0
   47.4440   31.7710   42.6480 H   0  0  0  0  0  0  0  0  0  0  0  0
   46.0520   32.7380   42.1510 H   0  0  0  0  0  0  0  0  0  0  0  0
   49.1980   32.0420   39.1220 C   0  0  0  0  0  0  0  0  0  0  0  0
   48.6250   31.9280   40.4010 C   0  0  0  0  0  0  0  0  0  0  0  0
   47.7540   32.8780   40.8560 C   0  0  0  0  0  0  0  0  0  0  0  0
   47.4840   33.8950   40.0390 N   0  0  0  0  0  0  0  0  0  0  0  0
   48.0180   34.0250   38.8140 C   0  0  0  0  0  0  0  0  0  0  0  0
   48.8810   33.1050   38.3370 N   0  0  0  0  0  0  0  0  0  0  0  0
   49.8960   31.2870   38.7510 H   0  0  0  0  0  0  0  0  0  0  0  0
   48.9330   31.0660   40.9390 H   0  0  0  0  0  0  0  0  0  0  0  0
   47.7030   34.8930   38.2850 H   0  0  0  0  0  0  0  0  0  0  0  0
   46.4840   33.6640   45.6960 O   0  0  0  0  0  0  0  0  0  0  0  0
   45.6900   31.2110   45.0120 O   0  0  0  0  0  0  0  0  0  0  0  0
   46.2240   32.0840   46.1710 P   0  0  2  0  0  0  0  0  0  0  0  0
   44.9100   32.1230   47.2810 O   0  0  0  0  0  0  0  0  0  0  0  0
   45.2320   32.7420   48.0080 H   0  0  0  0  0  0  0  0  0  0  0  0
   47.5060   31.3650   46.9320 O   0  0  0  0  0  0  0  0  0  0  0  0
   47.3740   29.9920   46.9040 C   0  0  0  0  0  0  0  0  0  0  0  0
   46.5990   29.6950   46.1590 H   0  0  0  0  0  0  0  0  0  0  0  0
   46.9320   29.6850   47.8890 H   0  0  0  0  0  0  0  0  0  0  0  0
   48.4670   29.8950   44.2810 N   0  0  0  0  0  0  0  0  0  0  0  0
   49.0300   29.4150   45.3380 C   0  0  0  0  0  0  0  0  0  0  0  0
   48.6150   29.2730   46.7120 N   0  0  0  0  0  0  0  0  0  0  0  0
   50.3180   28.9890   44.8460 N   0  0  0  0  0  0  0  0  0  0  0  0
   51.2200   29.3070   45.2630 H   0  0  0  0  0  0  0  0  0  0  0  0
   47.5200   30.3000   44.2460 H   0  0  0  0  0  0  0  0  0  0  0  0
   49.3030   28.6890   47.2380 H   0  0  0  0  0  0  0  0  0  0  0  0
   50.5430   28.3480   44.0600 H   0  0  0  0  0  0  0  0  0  0  0  0
  1  6  1  0  0  0  0
  2  8  1  0  0  0  0
  2  1  1  0  0  0  0
  3  2  1  0  0  0  0
  3  4  1  0  0  0  0
  4 12  1  0  0  0  0
  4 11  1  0  0  0  0
  4  5  1  0  0  0  0
  5 14  1  0  0  0  0
  5 13  1  0  0  0  0
  6 15  1  6  0  0  0
  6  5  1  0  0  0  0
  6 31  1  0  0  0  0
  7  2  1  0  0  0  0
  9  3  1  0  0  0  0
 10  3  1  0  0  0  0
 16  1  1  0  0  0  0
 16 18  1  0  0  0  0
 17 16  1  0  0  0  0
 19 20  1  0  0  0  0
 19 16  1  0  0  0  0
 21 19  1  0  0  0  0
 22 23  1  0  0  0  0
 23 24  2  0  0  0  0
 23 29  1  0  0  0  0
 24 19  1  0  0  0  0
 25 24  1  0  0  0  0
 26 25  2  0  0  0  0
 27 26  1  0  0  0  0
 27 22  2  0  0  0  0
 28 22  1  0  0  0  0
 30 26  1  0  0  0  0
 31 33  1  0  0  0  0
 33 32  2  6  0  0  0
 33 36  1  0  0  0  0
 33 34  1  0  0  0  0
 34 35  1  0  0  0  0
 37 36  1  0  0  0  0
 37 39  1  0  0  0  0
 38 37  1  0  0  0  0
 40 41  2  0  0  0  0
 41 42  1  0  0  0  0
 42 37  1  0  0  0  0
 42 46  1  0  0  0  0
 43 44  1  0  0  0  0
 43 41  1  0  0  0  0
 45 40  1  0  0  0  0
 47 43  1  0  0  0  0
M  END
>  <minimizedAffinity>
-3.9772985

>  <minimizedRMSD>
1.85673511

$$$$
