
 OpenBabel03252509343D

 42 43  0  0  1  0  0  0  0  0999 V2000
   46.1500   33.8370   42.3570 C   0  0  1  0  0  0  0  0  0  0  0  0
   45.2370   34.7840   41.6000 C   0  0  0  0  0  0  0  0  0  0  0  0
   45.1240   34.0580   40.2600 C   0  0  0  0  0  0  0  0  0  0  0  0
   46.4050   33.2750   40.1100 C   0  0  0  0  0  0  0  0  0  0  0  0
   47.2370   33.6200   41.3310 C   0  0  1  0  0  0  0  0  0  0  0  0
   45.6610   32.8540   42.5130 H   0  0  0  0  0  0  0  0  0  0  0  0
   44.2520   34.8180   42.0830 H   0  0  0  0  0  0  0  0  0  0  0  0
   45.7230   35.7480   41.4910 H   0  0  0  0  0  0  0  0  0  0  0  0
   44.9280   34.7400   39.4330 H   0  0  0  0  0  0  0  0  0  0  0  0
   44.2900   33.3370   40.3560 H   0  0  0  0  0  0  0  0  0  0  0  0
   46.2530   32.2000   40.0180 H   0  0  0  0  0  0  0  0  0  0  0  0
   46.9470   33.7210   39.2430 H   0  0  0  0  0  0  0  0  0  0  0  0
   47.8680   32.7320   41.6150 H   0  0  0  0  0  0  0  0  0  0  0  0
   48.1030   34.8260   41.1180 C   0  0  0  0  0  0  0  0  0  0  0  0
   47.9270   35.3180   40.1650 H   0  0  0  0  0  0  0  0  0  0  0  0
   48.0680   35.5330   41.9680 H   0  0  0  0  0  0  0  0  0  0  0  0
   49.8330   35.1900   43.1910 N   0  0  0  0  0  0  0  0  0  0  0  0
   50.1860   34.2920   42.3080 C   0  0  0  0  0  0  0  0  0  0  0  0
   49.4840   34.3250   41.0640 N   0  0  0  0  0  0  0  0  0  0  0  0
   51.2240   33.3250   42.5690 N   0  0  0  0  0  0  0  0  0  0  0  0
   50.7890   32.4380   42.9490 H   0  0  0  0  0  0  0  0  0  0  0  0
   50.2760   35.2610   44.1320 H   0  0  0  0  0  0  0  0  0  0  0  0
   49.9740   34.0010   40.2120 H   0  0  0  0  0  0  0  0  0  0  0  0
   52.2630   33.1270   42.5380 H   0  0  0  0  0  0  0  0  0  0  0  0
   46.6410   34.4130   43.5250 O   0  0  0  0  0  0  0  0  0  0  0  0
   44.8190   35.0300   45.2640 O   0  0  0  0  0  0  0  0  0  0  0  0
   45.7120   33.9030   44.8300 P   0  0  1  0  0  0  0  0  0  0  0  0
   44.8280   32.5320   44.4390 O   0  0  0  0  0  0  0  0  0  0  0  0
   45.1700   31.9750   43.7350 H   0  0  0  0  0  0  0  0  0  0  0  0
   46.7280   33.4610   46.0920 O   0  0  0  0  0  0  0  0  0  0  0  0
   46.9120   32.1110   46.0600 C   0  0  0  0  0  0  0  0  0  0  0  0
   48.0100   31.9430   46.2450 H   0  0  0  0  0  0  0  0  0  0  0  0
   46.6990   31.5790   45.1400 H   0  0  0  0  0  0  0  0  0  0  0  0
   45.4390   31.4250   49.4030 C   0  0  0  0  0  0  0  0  0  0  0  0
   46.0820   32.1020   48.3540 C   0  0  0  0  0  0  0  0  0  0  0  0
   46.2330   31.4200   47.1680 C   0  0  0  0  0  0  0  0  0  0  0  0
   45.7570   30.1510   47.0870 N   0  0  0  0  0  0  0  0  0  0  0  0
   45.1460   29.5220   48.1020 C   0  0  0  0  0  0  0  0  0  0  0  0
   44.9940   30.1740   49.2590 N   0  0  0  0  0  0  0  0  0  0  0  0
   45.3190   31.9680   50.3550 H   0  0  0  0  0  0  0  0  0  0  0  0
   46.4240   33.1110   48.5200 H   0  0  0  0  0  0  0  0  0  0  0  0
   44.8190   28.5170   47.8930 H   0  0  0  0  0  0  0  0  0  0  0  0
  1  6  1  1  0  0  0
  1 25  1  0  0  0  0
  2  7  1  0  0  0  0
  2  1  1  0  0  0  0
  3 10  1  0  0  0  0
  3  2  1  0  0  0  0
  4  3  1  0  0  0  0
  4  5  1  0  0  0  0
  5 13  1  1  0  0  0
  5  1  1  0  0  0  0
  8  2  1  0  0  0  0
  9  3  1  0  0  0  0
 11  4  1  0  0  0  0
 12  4  1  0  0  0  0
 14  5  1  0  0  0  0
 14 16  1  0  0  0  0
 15 14  1  0  0  0  0
 17 22  1  0  0  0  0
 18 20  1  0  0  0  0
 18 17  2  0  0  0  0
 19 14  1  0  0  0  0
 19 18  1  0  0  0  0
 20 21  1  0  0  0  0
 23 19  1  0  0  0  0
 24 20  1  0  0  0  0
 25 27  1  0  0  0  0
 27 26  2  1  0  0  0
 27 30  1  0  0  0  0
 28 27  1  0  0  0  0
 29 28  1  0  0  0  0
 31 30  1  0  0  0  0
 31 32  1  0  0  0  0
 31 36  1  0  0  0  0
 33 31  1  0  0  0  0
 34 40  1  0  0  0  0
 35 41  1  0  0  0  0
 35 34  2  0  0  0  0
 36 35  1  0  0  0  0
 37 36  2  0  0  0  0
 37 38  1  0  0  0  0
 38 39  2  0  0  0  0
 39 34  1  0  0  0  0
 42 38  1  0  0  0  0
M  END
>  <minimizedAffinity>
-5.81686115

>  <minimizedRMSD>
1.18168604

$$$$
