REMARK  Name = 
REMARK  10 active torsions:
REMARK  status: ('A' for Active; 'I' for Inactive)
REMARK    1  A    between atoms: C_1  and  C_9
REMARK    2  A    between atoms: C_2  and  C_13
REMARK    3  A    between atoms: C_13  and  N_14
REMARK    4  A    between atoms: N_14  and  S_15
REMARK    5  A    between atoms: S_15  and  O_16
REMARK    6  A    between atoms: S_15  and  O_17
REMARK    7  A    between atoms: S_15  and  O_18
REMARK    8  A    between atoms: O_18  and  C_19
REMARK    9  A    between atoms: C_19  and  C_20
REMARK   10  A    between atoms: C_20  and  N_39
REMARK                            x       y       z     vdW  Elec       q    Type
REMARK                         _______ _______ _______ _____ _____    ______ ____
ROOT
ATOM      1  C   UNL     1      43.046  32.541  41.631  0.00  0.00    +0.000 C 
ATOM      2  H   UNL     1      43.607  32.133  40.752  0.00  0.00    +0.000 HD
ATOM      3  H   UNL     1      42.133  33.011  41.242  0.00  0.00    +0.000 HD
ENDROOT
BRANCH   1   5
ATOM      4  C   UNL     1      43.659  34.961  41.885  0.00  0.00    +0.000 A 
ATOM      5  C   UNL     1      43.904  33.632  42.180  0.00  0.00    +0.000 A 
ATOM      6  C   UNL     1      44.971  33.337  43.004  0.00  0.00    +0.000 A 
ATOM      7  C   UNL     1      45.753  34.342  43.503  0.00  0.00    +0.000 A 
ATOM      8  C   UNL     1      45.531  35.656  43.227  0.00  0.00    +0.000 A 
ATOM      9  C   UNL     1      44.446  35.912  42.393  0.00  0.00    +0.000 A 
ATOM     10  H   UNL     1      45.175  32.290  43.244  0.00  0.00    +0.000 HD
ATOM     11  H   UNL     1      46.597  34.109  44.156  0.00  0.00    +0.000 HD
ATOM     12  H   UNL     1      46.101  36.513  43.582  0.00  0.00    +0.000 HD
ATOM     13  H   UNL     1      44.184  36.938  42.111  0.00  0.00    +0.000 HD
BRANCH   4  16
ATOM     14  C   UNL     1      40.227  35.797  40.514  0.00  0.00    +0.000 A 
ATOM     15  C   UNL     1      41.254  35.583  41.468  0.00  0.00    +0.000 A 
ATOM     16  C   UNL     1      42.511  35.213  41.005  0.00  0.00    +0.000 A 
ATOM     17  N   UNL     1      42.678  35.080  39.660  0.00  0.00    +0.000 NA
ATOM     18  C   UNL     1      41.690  35.287  38.769  0.00  0.00    +0.000 A 
ATOM     19  N   UNL     1      40.470  35.645  39.207  0.00  0.00    +0.000 NA
ATOM     20  H   UNL     1      39.237  36.088  40.875  0.00  0.00    +0.000 HD
ATOM     21  H   UNL     1      41.112  35.691  42.513  0.00  0.00    +0.000 HD
ATOM     22  H   UNL     1      41.915  35.157  37.726  0.00  0.00    +0.000 HD
ENDBRANCH   4  16
ENDBRANCH   1   5
BRANCH   1  23
ATOM     23  N   UNL     1      42.714  31.514  42.574  0.00  0.00    +0.000 NA
ATOM     24  H   UNL     1      42.985  31.776  43.549  0.00  0.00    +0.000 HD
BRANCH  23  25
ATOM     25  S   UNL     1      41.032  31.142  42.562  0.00  0.00    +0.000 S 
BRANCH  25  26
ATOM     26  O   UNL     1      40.201  32.398  42.456  0.00  0.00    +0.000 OA
ATOM     27  H   UNL     1      39.320  32.400  42.007  0.00  0.00    +0.000 HD
ENDBRANCH  25  26
BRANCH  25  28
ATOM     28  O   UNL     1      40.651  30.365  43.768  0.00  0.00    +0.000 OA
ATOM     29  H   UNL     1      41.315  30.165  44.491  0.00  0.00    +0.000 HD
ENDBRANCH  25  28
BRANCH  25  30
ATOM     30  O   UNL     1      40.758  30.192  41.211  0.00  0.00    +0.000 OA
BRANCH  30  31
ATOM     31  C   UNL     1      40.079  29.051  41.598  0.00  0.00    +0.000 C 
ATOM     32  H   UNL     1      39.785  29.027  42.645  0.00  0.00    +0.000 HD
ATOM     33  H   UNL     1      39.163  29.012  40.948  0.00  0.00    +0.000 HD
BRANCH  31  34
ATOM     34  C   UNL     1      40.920  27.828  41.217  0.00  0.00    +0.000 C 
ATOM     35  H   UNL     1      41.245  27.882  40.180  0.00  0.00    +0.000 HD
ATOM     36  H   UNL     1      41.849  27.871  41.859  0.00  0.00    +0.000 HD
BRANCH  34  39
ATOM     37  N   UNL     1      38.534  26.955  39.891  0.00  0.00    +0.000 NA
ATOM     38  C   UNL     1      38.987  26.495  40.989  0.00  0.00    +0.000 C 
ATOM     39  N   UNL     1      40.257  26.602  41.595  0.00  0.00    +0.000 N 
ATOM     40  N   UNL     1      37.827  25.797  41.495  0.00  0.00    +0.000 N 
ATOM     41  H   UNL     1      37.088  25.989  42.234  0.00  0.00    +0.000 HD
ATOM     42  H   UNL     1      39.071  27.531  39.203  0.00  0.00    +0.000 HD
ATOM     43  H   UNL     1      40.478  25.798  42.188  0.00  0.00    +0.000 HD
ATOM     44  H   UNL     1      37.438  24.852  41.199  0.00  0.00    +0.000 HD
ENDBRANCH  34  39
ENDBRANCH  31  34
ENDBRANCH  30  31
ENDBRANCH  25  30
ENDBRANCH  23  25
ENDBRANCH   1  23
TORSDOF 10
