
 OpenBabel03252509343D

 42 43  0  0  1  0  0  0  0  0999 V2000
   37.9620   29.6720   38.8470 C   0  0  1  0  0  0  0  0  0  0  0  0
   38.2940   29.2390   37.4300 C   0  0  0  0  0  0  0  0  0  0  0  0
   39.8130   29.1040   37.5240 C   0  0  0  0  0  0  0  0  0  0  0  0
   40.2440   30.0720   38.5980 C   0  0  0  0  0  0  0  0  0  0  0  0
   38.9760   30.7750   39.0440 C   0  0  1  0  0  0  0  0  0  0  0  0
   38.2150   28.8750   39.5750 H   0  0  0  0  0  0  0  0  0  0  0  0
   37.8500   28.2560   37.2270 H   0  0  0  0  0  0  0  0  0  0  0  0
   38.0060   30.0200   36.7340 H   0  0  0  0  0  0  0  0  0  0  0  0
   40.3050   29.2670   36.5650 H   0  0  0  0  0  0  0  0  0  0  0  0
   40.0220   28.0790   37.8820 H   0  0  0  0  0  0  0  0  0  0  0  0
   40.7570   29.5980   39.4340 H   0  0  0  0  0  0  0  0  0  0  0  0
   40.8570   30.8540   38.0900 H   0  0  0  0  0  0  0  0  0  0  0  0
   39.0590   31.0350   40.1360 H   0  0  0  0  0  0  0  0  0  0  0  0
   38.6820   32.0050   38.2370 C   0  0  0  0  0  0  0  0  0  0  0  0
   39.2660   32.0670   37.3230 H   0  0  0  0  0  0  0  0  0  0  0  0
   37.6010   32.1480   38.0560 H   0  0  0  0  0  0  0  0  0  0  0  0
   36.9550   33.2690   39.9230 N   0  0  0  0  0  0  0  0  0  0  0  0
   38.2240   33.5120   40.1250 C   0  0  0  0  0  0  0  0  0  0  0  0
   39.1090   33.1410   39.0670 N   0  0  0  0  0  0  0  0  0  0  0  0
   38.7060   34.1180   41.3410 N   0  0  0  0  0  0  0  0  0  0  0  0
   38.9830   33.3590   42.0250 H   0  0  0  0  0  0  0  0  0  0  0  0
   36.2180   33.4970   40.6240 H   0  0  0  0  0  0  0  0  0  0  0  0
   39.9840   33.6800   38.9440 H   0  0  0  0  0  0  0  0  0  0  0  0
   38.9040   35.0260   41.8470 H   0  0  0  0  0  0  0  0  0  0  0  0
   36.6550   30.1390   38.9540 O   0  0  0  0  0  0  0  0  0  0  0  0
   36.3560   30.5820   41.4920 O   0  0  0  0  0  0  0  0  0  0  0  0
   35.9930   29.6090   40.4060 P   0  0  1  0  0  0  0  0  0  0  0  0
   34.3310   29.4240   40.2760 O   0  0  0  0  0  0  0  0  0  0  0  0
   33.9740   29.2630   39.3990 H   0  0  0  0  0  0  0  0  0  0  0  0
   36.6080   28.0900   40.7700 O   0  0  0  0  0  0  0  0  0  0  0  0
   36.6260   27.9340   42.1240 C   0  0  0  0  0  0  0  0  0  0  0  0
   35.6820   27.3780   42.3850 H   0  0  0  0  0  0  0  0  0  0  0  0
   36.6120   28.8190   42.7500 H   0  0  0  0  0  0  0  0  0  0  0  0
   38.7930   24.9430   42.5450 C   0  0  0  0  0  0  0  0  0  0  0  0
   37.7500   25.7680   42.0950 C   0  0  0  0  0  0  0  0  0  0  0  0
   37.7170   27.0570   42.5780 C   0  0  0  0  0  0  0  0  0  0  0  0
   38.6840   27.4450   43.4490 N   0  0  0  0  0  0  0  0  0  0  0  0
   39.6720   26.6400   43.8670 C   0  0  0  0  0  0  0  0  0  0  0  0
   39.7150   25.3860   43.4050 N   0  0  0  0  0  0  0  0  0  0  0  0
   38.8200   23.9090   42.1610 H   0  0  0  0  0  0  0  0  0  0  0  0
   37.0300   25.3640   41.4010 H   0  0  0  0  0  0  0  0  0  0  0  0
   40.3690   27.0840   44.5580 H   0  0  0  0  0  0  0  0  0  0  0  0
  1 25  1  0  0  0  0
  1  5  1  0  0  0  0
  1  6  1  1  0  0  0
  2  3  1  0  0  0  0
  2  1  1  0  0  0  0
  3 10  1  0  0  0  0
  3  4  1  0  0  0  0
  4  5  1  0  0  0  0
  4 11  1  0  0  0  0
  5 13  1  1  0  0  0
  7  2  1  0  0  0  0
  8  2  1  0  0  0  0
  9  3  1  0  0  0  0
 12  4  1  0  0  0  0
 14  5  1  0  0  0  0
 14 19  1  0  0  0  0
 15 14  1  0  0  0  0
 16 14  1  0  0  0  0
 17 18  2  0  0  0  0
 17 22  1  0  0  0  0
 18 20  1  0  0  0  0
 19 18  1  0  0  0  0
 20 24  1  0  0  0  0
 20 21  1  0  0  0  0
 23 19  1  0  0  0  0
 25 27  1  0  0  0  0
 27 30  1  0  0  0  0
 27 26  2  1  0  0  0
 28 27  1  0  0  0  0
 29 28  1  0  0  0  0
 30 31  1  0  0  0  0
 31 32  1  0  0  0  0
 31 36  1  0  0  0  0
 31 33  1  0  0  0  0
 34 39  1  0  0  0  0
 35 34  2  0  0  0  0
 35 36  1  0  0  0  0
 36 37  2  0  0  0  0
 37 38  1  0  0  0  0
 38 42  1  0  0  0  0
 39 38  2  0  0  0  0
 40 34  1  0  0  0  0
 41 35  1  0  0  0  0
M  END
>  <minimizedAffinity>
-5.56162024

$$$$

 OpenBabel03252509343D

 42 43  0  0  1  0  0  0  0  0999 V2000
   36.7970   27.8560   41.0620 C   0  0  1  0  0  0  0  0  0  0  0  0
   37.5760   26.6080   40.6900 C   0  0  0  0  0  0  0  0  0  0  0  0
   37.1210   25.6510   41.7920 C   0  0  0  0  0  0  0  0  0  0  0  0
   36.7750   26.5230   42.9730 C   0  0  0  0  0  0  0  0  0  0  0  0
   37.0980   27.9410   42.5400 C   0  0  1  0  0  0  0  0  0  0  0  0
   35.7060   27.6840   40.9700 H   0  0  0  0  0  0  0  0  0  0  0  0
   37.2380   26.2330   39.7160 H   0  0  0  0  0  0  0  0  0  0  0  0
   38.6400   26.8110   40.7540 H   0  0  0  0  0  0  0  0  0  0  0  0
   37.8670   24.8880   42.0140 H   0  0  0  0  0  0  0  0  0  0  0  0
   36.1910   25.1710   41.4350 H   0  0  0  0  0  0  0  0  0  0  0  0
   35.7400   26.4280   43.2990 H   0  0  0  0  0  0  0  0  0  0  0  0
   37.5140   26.2790   43.7720 H   0  0  0  0  0  0  0  0  0  0  0  0
   36.3860   28.6540   43.0410 H   0  0  0  0  0  0  0  0  0  0  0  0
   38.5170   28.3270   42.8380 C   0  0  0  0  0  0  0  0  0  0  0  0
   38.8950   27.8940   43.7590 H   0  0  0  0  0  0  0  0  0  0  0  0
   39.1950   28.1520   41.9820 H   0  0  0  0  0  0  0  0  0  0  0  0
   40.7990   29.8110   42.7330 N   0  0  0  0  0  0  0  0  0  0  0  0
   39.6810   30.4850   42.6650 C   0  0  0  0  0  0  0  0  0  0  0  0
   38.5000   29.7810   43.0520 N   0  0  0  0  0  0  0  0  0  0  0  0
   39.6370   31.8590   42.2260 N   0  0  0  0  0  0  0  0  0  0  0  0
   39.4450   31.8880   41.1860 H   0  0  0  0  0  0  0  0  0  0  0  0
   41.7230   30.2220   42.4760 H   0  0  0  0  0  0  0  0  0  0  0  0
   37.7130   30.3200   43.4530 H   0  0  0  0  0  0  0  0  0  0  0  0
   39.7180   32.8730   42.5170 H   0  0  0  0  0  0  0  0  0  0  0  0
   37.2510   28.9760   40.3720 O   0  0  0  0  0  0  0  0  0  0  0  0
   34.7320   29.2880   39.8390 O   0  0  0  0  0  0  0  0  0  0  0  0
   35.9800   30.0580   40.1690 P   0  0  1  0  0  0  0  0  0  0  0  0
   35.7740   31.0070   41.5360 O   0  0  0  0  0  0  0  0  0  0  0  0
   36.5400   31.1340   42.1020 H   0  0  0  0  0  0  0  0  0  0  0  0
   36.3480   31.1130   38.9150 O   0  0  0  0  0  0  0  0  0  0  0  0
   37.6860   31.0540   38.6670 C   0  0  0  0  0  0  0  0  0  0  0  0
   37.7930   31.0520   37.5460 H   0  0  0  0  0  0  0  0  0  0  0  0
   38.2400   30.1840   39.0020 H   0  0  0  0  0  0  0  0  0  0  0  0
   38.3470   34.4400   40.0500 C   0  0  0  0  0  0  0  0  0  0  0  0
   37.6520   33.2910   39.6390 C   0  0  0  0  0  0  0  0  0  0  0  0
   38.3980   32.2620   39.1120 C   0  0  0  0  0  0  0  0  0  0  0  0
   39.7450   32.4200   39.0250 N   0  0  0  0  0  0  0  0  0  0  0  0
   40.3890   33.5260   39.4240 C   0  0  0  0  0  0  0  0  0  0  0  0
   39.6740   34.5330   39.9370 N   0  0  0  0  0  0  0  0  0  0  0  0
   37.7500   35.2670   40.4710 H   0  0  0  0  0  0  0  0  0  0  0  0
   36.5790   33.2660   39.7510 H   0  0  0  0  0  0  0  0  0  0  0  0
   41.4590   33.5100   39.2960 H   0  0  0  0  0  0  0  0  0  0  0  0
  1  6  1  6  0  0  0
  1  5  1  0  0  0  0
  2  8  1  0  0  0  0
  2  1  1  0  0  0  0
  2  3  1  0  0  0  0
  3  9  1  0  0  0  0
  3  4  1  0  0  0  0
  4 11  1  0  0  0  0
  4 12  1  0  0  0  0
  5 14  1  0  0  0  0
  5  4  1  0  0  0  0
  5 13  1  1  0  0  0
  7  2  1  0  0  0  0
 10  3  1  0  0  0  0
 14 19  1  0  0  0  0
 14 15  1  0  0  0  0
 16 14  1  0  0  0  0
 18 17  2  0  0  0  0
 18 19  1  0  0  0  0
 19 23  1  0  0  0  0
 20 24  1  0  0  0  0
 20 18  1  0  0  0  0
 21 20  1  0  0  0  0
 22 17  1  0  0  0  0
 25  1  1  0  0  0  0
 27 26  2  6  0  0  0
 27 25  1  0  0  0  0
 27 28  1  0  0  0  0
 28 29  1  0  0  0  0
 30 27  1  0  0  0  0
 31 30  1  0  0  0  0
 31 33  1  0  0  0  0
 31 36  1  0  0  0  0
 32 31  1  0  0  0  0
 34 40  1  0  0  0  0
 35 41  1  0  0  0  0
 35 34  2  0  0  0  0
 36 35  1  0  0  0  0
 37 36  2  0  0  0  0
 37 38  1  0  0  0  0
 38 39  2  0  0  0  0
 39 34  1  0  0  0  0
 42 38  1  0  0  0  0
M  END
>  <minimizedAffinity>
-5.48046875

$$$$

 OpenBabel03252509343D

 42 43  0  0  1  0  0  0  0  0999 V2000
   40.1970   32.2490   40.5120 C   0  0  1  0  0  0  0  0  0  0  0  0
   40.8790   32.5360   39.1860 C   0  0  0  0  0  0  0  0  0  0  0  0
   41.0460   34.0520   39.2750 C   0  0  0  0  0  0  0  0  0  0  0  0
   39.9220   34.5360   40.1580 C   0  0  0  0  0  0  0  0  0  0  0  0
   39.1110   33.3000   40.4980 C   0  0  1  0  0  0  0  0  0  0  0  0
   40.8650   32.4950   41.3620 H   0  0  0  0  0  0  0  0  0  0  0  0
   41.8670   32.0590   39.1640 H   0  0  0  0  0  0  0  0  0  0  0  0
   40.2200   32.2550   38.3710 H   0  0  0  0  0  0  0  0  0  0  0  0
   41.0670   34.5260   38.2940 H   0  0  0  0  0  0  0  0  0  0  0  0
   42.0010   34.2390   39.8020 H   0  0  0  0  0  0  0  0  0  0  0  0
   40.2620   35.0540   41.0550 H   0  0  0  0  0  0  0  0  0  0  0  0
   39.2600   35.1600   39.5120 H   0  0  0  0  0  0  0  0  0  0  0  0
   38.6700   33.4150   41.5270 H   0  0  0  0  0  0  0  0  0  0  0  0
   38.0300   33.0240   39.4960 C   0  0  0  0  0  0  0  0  0  0  0  0
   37.7750   33.8890   38.8910 H   0  0  0  0  0  0  0  0  0  0  0  0
   38.2360   32.1280   38.8810 H   0  0  0  0  0  0  0  0  0  0  0  0
   36.7590   30.6250   39.2620 N   0  0  0  0  0  0  0  0  0  0  0  0
   36.4400   31.3360   40.3120 C   0  0  0  0  0  0  0  0  0  0  0  0
   36.8270   32.7100   40.2800 N   0  0  0  0  0  0  0  0  0  0  0  0
   35.7390   30.7700   41.4390 N   0  0  0  0  0  0  0  0  0  0  0  0
   36.4410   30.4470   42.1620 H   0  0  0  0  0  0  0  0  0  0  0  0
   36.5290   29.6120   39.1740 H   0  0  0  0  0  0  0  0  0  0  0  0
   36.2520   33.3970   40.7980 H   0  0  0  0  0  0  0  0  0  0  0  0
   34.7940   30.5380   41.8540 H   0  0  0  0  0  0  0  0  0  0  0  0
   39.6760   30.9590   40.5600 O   0  0  0  0  0  0  0  0  0  0  0  0
   40.8080   29.1840   42.0740 O   0  0  0  0  0  0  0  0  0  0  0  0
   39.8550   30.3450   42.1140 P   0  0  1  0  0  0  0  0  0  0  0  0
   40.3780   31.5340   43.1750 O   0  0  0  0  0  0  0  0  0  0  0  0
   40.1770   32.4460   42.9460 H   0  0  0  0  0  0  0  0  0  0  0  0
   38.3590   29.8350   42.6820 O   0  0  0  0  0  0  0  0  0  0  0  0
   38.4640   28.5450   43.1080 C   0  0  0  0  0  0  0  0  0  0  0  0
   37.8430   28.4760   44.0450 H   0  0  0  0  0  0  0  0  0  0  0  0
   39.4400   28.1690   43.3910 H   0  0  0  0  0  0  0  0  0  0  0  0
   37.3710   25.3490   41.5560 C   0  0  0  0  0  0  0  0  0  0  0  0
   37.9580   26.2470   42.4610 C   0  0  0  0  0  0  0  0  0  0  0  0
   37.8470   27.5890   42.1750 C   0  0  0  0  0  0  0  0  0  0  0  0
   37.1830   27.9560   41.0480 N   0  0  0  0  0  0  0  0  0  0  0  0
   36.6290   27.0810   40.1960 C   0  0  0  0  0  0  0  0  0  0  0  0
   36.7310   25.7750   40.4630 N   0  0  0  0  0  0  0  0  0  0  0  0
   37.4610   24.2730   41.7820 H   0  0  0  0  0  0  0  0  0  0  0  0
   38.4640   25.8530   43.3290 H   0  0  0  0  0  0  0  0  0  0  0  0
   36.1330   27.5160   39.3440 H   0  0  0  0  0  0  0  0  0  0  0  0
  1 25  1  0  0  0  0
  1  6  1  1  0  0  0
  2  3  1  0  0  0  0
  2  1  1  0  0  0  0
  3 10  1  0  0  0  0
  3  4  1  0  0  0  0
  4  5  1  0  0  0  0
  4 11  1  0  0  0  0
  5  1  1  0  0  0  0
  5 13  1  1  0  0  0
  7  2  1  0  0  0  0
  8  2  1  0  0  0  0
  9  3  1  0  0  0  0
 12  4  1  0  0  0  0
 14 19  1  0  0  0  0
 14  5  1  0  0  0  0
 15 14  1  0  0  0  0
 16 14  1  0  0  0  0
 17 18  2  0  0  0  0
 18 20  1  0  0  0  0
 19 18  1  0  0  0  0
 19 23  1  0  0  0  0
 20 24  1  0  0  0  0
 20 21  1  0  0  0  0
 22 17  1  0  0  0  0
 25 27  1  0  0  0  0
 27 26  2  6  0  0  0
 27 30  1  0  0  0  0
 27 28  1  0  0  0  0
 29 28  1  0  0  0  0
 30 31  1  0  0  0  0
 31 33  1  0  0  0  0
 31 32  1  0  0  0  0
 34 40  1  0  0  0  0
 34 35  1  0  0  0  0
 35 41  1  0  0  0  0
 36 35  2  0  0  0  0
 36 31  1  0  0  0  0
 37 36  1  0  0  0  0
 38 39  1  0  0  0  0
 38 37  2  0  0  0  0
 39 34  2  0  0  0  0
 42 38  1  0  0  0  0
M  END
>  <minimizedAffinity>
-5.37226343

$$$$

 OpenBabel03252509343D

 42 43  0  0  1  0  0  0  0  0999 V2000
   36.4530   29.3160   40.1910 C   0  0  1  0  0  0  0  0  0  0  0  0
   35.0430   29.4050   39.6360 C   0  0  0  0  0  0  0  0  0  0  0  0
   35.2190   28.6880   38.2980 C   0  0  0  0  0  0  0  0  0  0  0  0
   36.6610   28.8990   37.9080 C   0  0  0  0  0  0  0  0  0  0  0  0
   37.2520   29.7780   38.9950 C   0  0  1  0  0  0  0  0  0  0  0  0
   36.7390   28.2610   40.3760 H   0  0  0  0  0  0  0  0  0  0  0  0
   34.3540   28.8330   40.2710 H   0  0  0  0  0  0  0  0  0  0  0  0
   34.7730   30.4470   39.4960 H   0  0  0  0  0  0  0  0  0  0  0  0
   34.5080   29.0300   37.5460 H   0  0  0  0  0  0  0  0  0  0  0  0
   35.0700   27.6100   38.4910 H   0  0  0  0  0  0  0  0  0  0  0  0
   37.2230   27.9730   37.7900 H   0  0  0  0  0  0  0  0  0  0  0  0
   36.6500   29.5300   36.9880 H   0  0  0  0  0  0  0  0  0  0  0  0
   38.3390   29.5210   39.1320 H   0  0  0  0  0  0  0  0  0  0  0  0
   37.0960   31.2410   38.7040 C   0  0  0  0  0  0  0  0  0  0  0  0
   37.1660   31.4780   37.6470 H   0  0  0  0  0  0  0  0  0  0  0  0
   36.1930   31.6760   39.1730 H   0  0  0  0  0  0  0  0  0  0  0  0
   36.8900   33.7370   39.7780 N   0  0  0  0  0  0  0  0  0  0  0  0
   37.9430   33.0500   40.1370 C   0  0  0  0  0  0  0  0  0  0  0  0
   38.2430   31.9020   39.3430 N   0  0  0  0  0  0  0  0  0  0  0  0
   38.7570   33.4260   41.2670 N   0  0  0  0  0  0  0  0  0  0  0  0
   38.4190   32.9140   42.1290 H   0  0  0  0  0  0  0  0  0  0  0  0
   36.5750   34.5940   40.2820 H   0  0  0  0  0  0  0  0  0  0  0  0
   39.2310   31.6020   39.2620 H   0  0  0  0  0  0  0  0  0  0  0  0
   39.5710   34.0140   41.6020 H   0  0  0  0  0  0  0  0  0  0  0  0
   36.6300   30.1490   41.2920 O   0  0  0  0  0  0  0  0  0  0  0  0
   38.9420   30.2930   42.4600 O   0  0  0  0  0  0  0  0  0  0  0  0
   37.7130   29.4340   42.3620 P   0  0  1  0  0  0  0  0  0  0  0  0
   37.0060   29.1960   43.8630 O   0  0  0  0  0  0  0  0  0  0  0  0
   36.0490   29.1190   43.8910 H   0  0  0  0  0  0  0  0  0  0  0  0
   38.1270   27.9100   41.7910 O   0  0  0  0  0  0  0  0  0  0  0  0
   38.2400   27.0580   42.8480 C   0  0  0  0  0  0  0  0  0  0  0  0
   37.6720   26.1290   42.5600 H   0  0  0  0  0  0  0  0  0  0  0  0
   37.8230   27.3560   43.8030 H   0  0  0  0  0  0  0  0  0  0  0  0
   41.2800   24.9180   42.8520 C   0  0  0  0  0  0  0  0  0  0  0  0
   39.9590   25.3390   42.6320 C   0  0  0  0  0  0  0  0  0  0  0  0
   39.6230   26.6030   43.0630 C   0  0  0  0  0  0  0  0  0  0  0  0
   40.5800   27.3550   43.6660 N   0  0  0  0  0  0  0  0  0  0  0  0
   41.8370   26.9330   43.8670 C   0  0  0  0  0  0  0  0  0  0  0  0
   42.1750   25.7080   43.4530 N   0  0  0  0  0  0  0  0  0  0  0  0
   41.5500   23.9050   42.5100 H   0  0  0  0  0  0  0  0  0  0  0  0
   39.2740   24.6640   42.1430 H   0  0  0  0  0  0  0  0  0  0  0  0
   42.4880   27.6380   44.3570 H   0  0  0  0  0  0  0  0  0  0  0  0
  1  6  1  1  0  0  0
  1 25  1  0  0  0  0
  2  1  1  0  0  0  0
  2  7  1  0  0  0  0
  3 10  1  0  0  0  0
  3  2  1  0  0  0  0
  4  3  1  0  0  0  0
  4  5  1  0  0  0  0
  5 13  1  1  0  0  0
  5  1  1  0  0  0  0
  8  2  1  0  0  0  0
  9  3  1  0  0  0  0
 11  4  1  0  0  0  0
 12  4  1  0  0  0  0
 14  5  1  0  0  0  0
 14 16  1  0  0  0  0
 14 19  1  0  0  0  0
 15 14  1  0  0  0  0
 17 18  2  0  0  0  0
 17 22  1  0  0  0  0
 18 20  1  0  0  0  0
 19 18  1  0  0  0  0
 20 24  1  0  0  0  0
 20 21  1  0  0  0  0
 23 19  1  0  0  0  0
 25 27  1  0  0  0  0
 27 26  2  1  0  0  0
 27 28  1  0  0  0  0
 28 29  1  0  0  0  0
 30 27  1  0  0  0  0
 30 31  1  0  0  0  0
 31 36  1  0  0  0  0
 31 33  1  0  0  0  0
 32 31  1  0  0  0  0
 34 39  1  0  0  0  0
 35 34  2  0  0  0  0
 35 36  1  0  0  0  0
 36 37  2  0  0  0  0
 37 38  1  0  0  0  0
 38 42  1  0  0  0  0
 39 38  2  0  0  0  0
 40 34  1  0  0  0  0
 41 35  1  0  0  0  0
M  END
>  <minimizedAffinity>
-5.35163212

$$$$

 OpenBabel03252509343D

 42 43  0  0  1  0  0  0  0  0999 V2000
   37.6850   28.7610   41.5700 C   0  0  1  0  0  0  0  0  0  0  0  0
   36.5920   28.1620   42.4360 C   0  0  0  0  0  0  0  0  0  0  0  0
   37.4240   27.5680   43.5720 C   0  0  0  0  0  0  0  0  0  0  0  0
   38.7680   27.2440   42.9670 C   0  0  0  0  0  0  0  0  0  0  0  0
   38.6500   27.6010   41.4980 C   0  0  1  0  0  0  0  0  0  0  0  0
   38.2110   29.5780   42.1050 H   0  0  0  0  0  0  0  0  0  0  0  0
   35.9490   28.9590   42.8310 H   0  0  0  0  0  0  0  0  0  0  0  0
   36.0700   27.3900   41.8800 H   0  0  0  0  0  0  0  0  0  0  0  0
   36.9380   26.7130   44.0410 H   0  0  0  0  0  0  0  0  0  0  0  0
   37.5680   28.3720   44.3180 H   0  0  0  0  0  0  0  0  0  0  0  0
   39.5990   27.7650   43.4420 H   0  0  0  0  0  0  0  0  0  0  0  0
   38.8680   26.1330   42.9980 H   0  0  0  0  0  0  0  0  0  0  0  0
   39.6490   27.9510   41.1180 H   0  0  0  0  0  0  0  0  0  0  0  0
   38.1460   26.4600   40.6640 C   0  0  0  0  0  0  0  0  0  0  0  0
   37.0760   26.2990   40.7590 H   0  0  0  0  0  0  0  0  0  0  0  0
   38.4690   26.5270   39.6090 H   0  0  0  0  0  0  0  0  0  0  0  0
   36.6780   24.3810   41.6370 N   0  0  0  0  0  0  0  0  0  0  0  0
   37.9360   24.1200   41.3900 C   0  0  0  0  0  0  0  0  0  0  0  0
   38.7860   25.2530   41.2080 N   0  0  0  0  0  0  0  0  0  0  0  0
   38.4390   22.7710   41.3060 N   0  0  0  0  0  0  0  0  0  0  0  0
   38.4180   22.4520   40.2970 H   0  0  0  0  0  0  0  0  0  0  0  0
   35.9660   23.6340   41.7870 H   0  0  0  0  0  0  0  0  0  0  0  0
   39.7850   25.1660   41.4630 H   0  0  0  0  0  0  0  0  0  0  0  0
   38.8300   21.9490   41.8440 H   0  0  0  0  0  0  0  0  0  0  0  0
   37.2100   29.1250   40.3130 O   0  0  0  0  0  0  0  0  0  0  0  0
   36.5120   31.1910   38.9080 O   0  0  0  0  0  0  0  0  0  0  0  0
   36.8460   30.7670   40.3100 P   0  0  1  0  0  0  0  0  0  0  0  0
   35.5930   31.1070   41.3710 O   0  0  0  0  0  0  0  0  0  0  0  0
   35.4590   30.4990   42.1030 H   0  0  0  0  0  0  0  0  0  0  0  0
   38.1770   31.6280   40.8650 O   0  0  0  0  0  0  0  0  0  0  0  0
   38.1620   32.8720   40.3090 C   0  0  0  0  0  0  0  0  0  0  0  0
   38.0930   33.5950   41.1700 H   0  0  0  0  0  0  0  0  0  0  0  0
   37.3410   33.1380   39.6540 H   0  0  0  0  0  0  0  0  0  0  0  0
   41.0330   32.7490   37.9510 C   0  0  0  0  0  0  0  0  0  0  0  0
   39.8190   32.4210   38.5760 C   0  0  0  0  0  0  0  0  0  0  0  0
   39.4270   33.2060   39.6360 C   0  0  0  0  0  0  0  0  0  0  0  0
   40.2290   34.2390   40.0060 N   0  0  0  0  0  0  0  0  0  0  0  0
   41.3850   34.5350   39.3950 C   0  0  0  0  0  0  0  0  0  0  0  0
   41.7760   33.7790   38.3640 N   0  0  0  0  0  0  0  0  0  0  0  0
   41.3490   32.1190   37.1030 H   0  0  0  0  0  0  0  0  0  0  0  0
   39.2550   31.5790   38.2050 H   0  0  0  0  0  0  0  0  0  0  0  0
   41.9160   35.3830   39.7960 H   0  0  0  0  0  0  0  0  0  0  0  0
  1  6  1  1  0  0  0
  1  2  1  0  0  0  0
  2  7  1  0  0  0  0
  2  3  1  0  0  0  0
  3  9  1  0  0  0  0
  3 10  1  0  0  0  0
  4 12  1  0  0  0  0
  4 11  1  0  0  0  0
  4  3  1  0  0  0  0
  5 13  1  6  0  0  0
  5  1  1  0  0  0  0
  5  4  1  0  0  0  0
  8  2  1  0  0  0  0
 14 15  1  0  0  0  0
 14 19  1  0  0  0  0
 14  5  1  0  0  0  0
 16 14  1  0  0  0  0
 17 22  1  0  0  0  0
 18 17  2  0  0  0  0
 19 18  1  0  0  0  0
 19 23  1  0  0  0  0
 20 18  1  0  0  0  0
 20 24  1  0  0  0  0
 21 20  1  0  0  0  0
 25  1  1  0  0  0  0
 27 26  2  6  0  0  0
 27 25  1  0  0  0  0
 27 30  1  0  0  0  0
 27 28  1  0  0  0  0
 28 29  1  0  0  0  0
 31 30  1  0  0  0  0
 31 32  1  0  0  0  0
 33 31  1  0  0  0  0
 34 39  2  0  0  0  0
 34 35  1  0  0  0  0
 35 36  2  0  0  0  0
 36 37  1  0  0  0  0
 36 31  1  0  0  0  0
 38 42  1  0  0  0  0
 38 37  2  0  0  0  0
 39 38  1  0  0  0  0
 40 34  1  0  0  0  0
 41 35  1  0  0  0  0
M  END
>  <minimizedAffinity>
-5.34275627

$$$$

 OpenBabel03252509343D

 42 43  0  0  1  0  0  0  0  0999 V2000
   36.5760   29.4180   40.2620 C   0  0  1  0  0  0  0  0  0  0  0  0
   35.1480   29.4840   39.7510 C   0  0  0  0  0  0  0  0  0  0  0  0
   35.2930   28.7650   38.4100 C   0  0  0  0  0  0  0  0  0  0  0  0
   36.7190   28.9980   37.9740 C   0  0  0  0  0  0  0  0  0  0  0  0
   37.3290   29.8890   39.0390 C   0  0  1  0  0  0  0  0  0  0  0  0
   36.8850   28.3690   40.4400 H   0  0  0  0  0  0  0  0  0  0  0  0
   34.4900   28.9020   40.4090 H   0  0  0  0  0  0  0  0  0  0  0  0
   34.8570   30.5200   39.6170 H   0  0  0  0  0  0  0  0  0  0  0  0
   34.5530   29.0930   37.6800 H   0  0  0  0  0  0  0  0  0  0  0  0
   35.1680   27.6850   38.6100 H   0  0  0  0  0  0  0  0  0  0  0  0
   37.2910   28.0810   37.8410 H   0  0  0  0  0  0  0  0  0  0  0  0
   36.6680   29.6250   37.0530 H   0  0  0  0  0  0  0  0  0  0  0  0
   38.4240   29.6500   39.1420 H   0  0  0  0  0  0  0  0  0  0  0  0
   37.1400   31.3490   38.7500 C   0  0  0  0  0  0  0  0  0  0  0  0
   37.1880   31.5860   37.6910 H   0  0  0  0  0  0  0  0  0  0  0  0
   36.2380   31.7670   39.2340 H   0  0  0  0  0  0  0  0  0  0  0  0
   36.9500   33.9060   39.6700 N   0  0  0  0  0  0  0  0  0  0  0  0
   37.9880   33.2290   40.0880 C   0  0  0  0  0  0  0  0  0  0  0  0
   38.2860   32.0320   39.3690 N   0  0  0  0  0  0  0  0  0  0  0  0
   38.7880   33.6620   41.2070 N   0  0  0  0  0  0  0  0  0  0  0  0
   38.4280   33.2050   42.0920 H   0  0  0  0  0  0  0  0  0  0  0  0
   36.6380   34.7950   40.1180 H   0  0  0  0  0  0  0  0  0  0  0  0
   39.2700   31.7160   39.3220 H   0  0  0  0  0  0  0  0  0  0  0  0
   39.6030   34.2590   41.5210 H   0  0  0  0  0  0  0  0  0  0  0  0
   36.7750   30.2580   41.3540 O   0  0  0  0  0  0  0  0  0  0  0  0
   39.1280   30.7370   42.3350 O   0  0  0  0  0  0  0  0  0  0  0  0
   38.0620   29.6810   42.2710 P   0  0  1  0  0  0  0  0  0  0  0  0
   37.5520   29.2280   43.8030 O   0  0  0  0  0  0  0  0  0  0  0  0
   36.6290   28.9800   43.9030 H   0  0  0  0  0  0  0  0  0  0  0  0
   38.6740   28.2940   41.5500 O   0  0  0  0  0  0  0  0  0  0  0  0
   38.9450   27.3740   42.5190 C   0  0  0  0  0  0  0  0  0  0  0  0
   38.2850   27.6420   43.3920 H   0  0  0  0  0  0  0  0  0  0  0  0
   39.9470   27.3300   42.9290 H   0  0  0  0  0  0  0  0  0  0  0  0
   36.8170   24.4080   41.8180 C   0  0  0  0  0  0  0  0  0  0  0  0
   37.1910   25.7140   42.1750 C   0  0  0  0  0  0  0  0  0  0  0  0
   38.5330   26.0140   42.1390 C   0  0  0  0  0  0  0  0  0  0  0  0
   39.4030   25.0400   41.7650 N   0  0  0  0  0  0  0  0  0  0  0  0
   39.0250   23.7980   41.4270 C   0  0  0  0  0  0  0  0  0  0  0  0
   37.7230   23.4950   41.4580 N   0  0  0  0  0  0  0  0  0  0  0  0
   35.7420   24.1660   41.8480 H   0  0  0  0  0  0  0  0  0  0  0  0
   36.4210   26.4150   42.4580 H   0  0  0  0  0  0  0  0  0  0  0  0
   39.8240   23.1310   41.1500 H   0  0  0  0  0  0  0  0  0  0  0  0
  1  6  1  1  0  0  0
  1 25  1  0  0  0  0
  2  1  1  0  0  0  0
  2  7  1  0  0  0  0
  3 10  1  0  0  0  0
  3  2  1  0  0  0  0
  4  3  1  0  0  0  0
  4  5  1  0  0  0  0
  5 13  1  1  0  0  0
  5  1  1  0  0  0  0
  8  2  1  0  0  0  0
  9  3  1  0  0  0  0
 11  4  1  0  0  0  0
 12  4  1  0  0  0  0
 14  5  1  0  0  0  0
 14 16  1  0  0  0  0
 14 19  1  0  0  0  0
 15 14  1  0  0  0  0
 17 18  2  0  0  0  0
 17 22  1  0  0  0  0
 18 20  1  0  0  0  0
 19 18  1  0  0  0  0
 20 24  1  0  0  0  0
 20 21  1  0  0  0  0
 23 19  1  0  0  0  0
 25 27  1  0  0  0  0
 27 26  2  1  0  0  0
 27 28  1  0  0  0  0
 28 29  1  0  0  0  0
 30 27  1  0  0  0  0
 30 31  1  0  0  0  0
 31 33  1  0  0  0  0
 31 32  1  0  0  0  0
 34 40  1  0  0  0  0
 34 35  1  0  0  0  0
 35 41  1  0  0  0  0
 36 35  2  0  0  0  0
 36 31  1  0  0  0  0
 37 36  1  0  0  0  0
 38 39  1  0  0  0  0
 38 37  2  0  0  0  0
 39 34  2  0  0  0  0
 42 38  1  0  0  0  0
M  END
>  <minimizedAffinity>
-5.33902454

$$$$

 OpenBabel03252509343D

 42 43  0  0  1  0  0  0  0  0999 V2000
   37.1270   28.8760   41.7540 C   0  0  1  0  0  0  0  0  0  0  0  0
   36.9280   27.3830   41.5670 C   0  0  0  0  0  0  0  0  0  0  0  0
   36.7170   26.9420   43.0150 C   0  0  0  0  0  0  0  0  0  0  0  0
   37.4690   27.9390   43.8600 C   0  0  0  0  0  0  0  0  0  0  0  0
   38.1380   28.8820   42.8770 C   0  0  1  0  0  0  0  0  0  0  0  0
   36.2080   29.3510   42.1520 H   0  0  0  0  0  0  0  0  0  0  0  0
   36.0130   27.1980   40.9900 H   0  0  0  0  0  0  0  0  0  0  0  0
   37.8270   26.9460   41.1450 H   0  0  0  0  0  0  0  0  0  0  0  0
   37.0200   25.9080   43.1830 H   0  0  0  0  0  0  0  0  0  0  0  0
   35.6380   27.0540   43.2300 H   0  0  0  0  0  0  0  0  0  0  0  0
   36.8400   28.4770   44.5680 H   0  0  0  0  0  0  0  0  0  0  0  0
   38.3010   27.3760   44.3460 H   0  0  0  0  0  0  0  0  0  0  0  0
   38.2050   29.9090   43.3330 H   0  0  0  0  0  0  0  0  0  0  0  0
   39.4980   28.4100   42.4560 C   0  0  0  0  0  0  0  0  0  0  0  0
   39.8170   27.5090   42.9710 H   0  0  0  0  0  0  0  0  0  0  0  0
   39.5990   28.3250   41.3580 H   0  0  0  0  0  0  0  0  0  0  0  0
   40.6130   30.1170   40.6490 N   0  0  0  0  0  0  0  0  0  0  0  0
   40.7010   30.4810   41.9010 C   0  0  0  0  0  0  0  0  0  0  0  0
   40.4340   29.4650   42.8690 N   0  0  0  0  0  0  0  0  0  0  0  0
   41.0480   31.8260   42.2880 N   0  0  0  0  0  0  0  0  0  0  0  0
   40.1630   32.3890   42.4310 H   0  0  0  0  0  0  0  0  0  0  0  0
   40.7860   30.7720   39.8560 H   0  0  0  0  0  0  0  0  0  0  0  0
   40.9040   29.5250   43.7890 H   0  0  0  0  0  0  0  0  0  0  0  0
   41.8360   32.5020   42.4940 H   0  0  0  0  0  0  0  0  0  0  0  0
   37.6220   29.4820   40.6020 O   0  0  0  0  0  0  0  0  0  0  0  0
   36.5950   31.2420   38.9970 O   0  0  0  0  0  0  0  0  0  0  0  0
   36.9400   31.0100   40.4410 P   0  0  1  0  0  0  0  0  0  0  0  0
   35.5940   31.1750   41.4290 O   0  0  0  0  0  0  0  0  0  0  0  0
   35.5500   30.6140   42.2080 H   0  0  0  0  0  0  0  0  0  0  0  0
   38.0450   32.1650   40.9570 O   0  0  0  0  0  0  0  0  0  0  0  0
   38.0980   33.1680   40.0360 C   0  0  0  0  0  0  0  0  0  0  0  0
   37.9230   34.1220   40.6070 H   0  0  0  0  0  0  0  0  0  0  0  0
   37.3650   33.1810   39.2380 H   0  0  0  0  0  0  0  0  0  0  0  0
   41.4670   34.5350   39.2600 C   0  0  0  0  0  0  0  0  0  0  0  0
   40.1960   34.3990   39.8420 C   0  0  0  0  0  0  0  0  0  0  0  0
   39.4370   33.3220   39.4440 C   0  0  0  0  0  0  0  0  0  0  0  0
   39.9590   32.4680   38.5260 N   0  0  0  0  0  0  0  0  0  0  0  0
   41.1760   32.6160   37.9830 C   0  0  0  0  0  0  0  0  0  0  0  0
   41.9220   33.6590   38.3610 N   0  0  0  0  0  0  0  0  0  0  0  0
   42.0750   35.3990   39.5760 H   0  0  0  0  0  0  0  0  0  0  0  0
   39.8730   35.1340   40.5630 H   0  0  0  0  0  0  0  0  0  0  0  0
   41.4590   31.8610   37.2680 H   0  0  0  0  0  0  0  0  0  0  0  0
  1  6  1  1  0  0  0
  1  5  1  0  0  0  0
  2  1  1  0  0  0  0
  2  3  1  0  0  0  0
  3  9  1  0  0  0  0
  3 10  1  0  0  0  0
  3  4  1  0  0  0  0
  4 12  1  0  0  0  0
  4 11  1  0  0  0  0
  5 13  1  1  0  0  0
  5  4  1  0  0  0  0
  7  2  1  0  0  0  0
  8  2  1  0  0  0  0
 14 19  1  0  0  0  0
 14  5  1  0  0  0  0
 14 15  1  0  0  0  0
 16 14  1  0  0  0  0
 17 18  2  0  0  0  0
 18 20  1  0  0  0  0
 18 19  1  0  0  0  0
 19 23  1  0  0  0  0
 20 21  1  0  0  0  0
 20 24  1  0  0  0  0
 22 17  1  0  0  0  0
 25  1  1  0  0  0  0
 27 26  2  6  0  0  0
 27 25  1  0  0  0  0
 27 30  1  0  0  0  0
 27 28  1  0  0  0  0
 28 29  1  0  0  0  0
 31 32  1  0  0  0  0
 31 30  1  0  0  0  0
 33 31  1  0  0  0  0
 34 40  1  0  0  0  0
 34 35  1  0  0  0  0
 35 41  1  0  0  0  0
 36 35  2  0  0  0  0
 36 31  1  0  0  0  0
 37 36  1  0  0  0  0
 38 39  1  0  0  0  0
 38 37  2  0  0  0  0
 39 34  2  0  0  0  0
 42 38  1  0  0  0  0
M  END
>  <minimizedAffinity>
-5.32913351

$$$$

 OpenBabel03252509343D

 42 43  0  0  1  0  0  0  0  0999 V2000
   37.6510   28.8620   42.0510 C   0  0  1  0  0  0  0  0  0  0  0  0
   36.5030   27.9250   42.3780 C   0  0  0  0  0  0  0  0  0  0  0  0
   36.8970   27.4730   43.7840 C   0  0  0  0  0  0  0  0  0  0  0  0
   38.4020   27.5660   43.8360 C   0  0  0  0  0  0  0  0  0  0  0  0
   38.8300   28.0050   42.4480 C   0  0  1  0  0  0  0  0  0  0  0  0
   37.6530   29.7380   42.7300 H   0  0  0  0  0  0  0  0  0  0  0  0
   35.5620   28.4880   42.4240 H   0  0  0  0  0  0  0  0  0  0  0  0
   36.5010   27.0940   41.6790 H   0  0  0  0  0  0  0  0  0  0  0  0
   36.5110   26.4830   44.0260 H   0  0  0  0  0  0  0  0  0  0  0  0
   36.4830   28.2190   44.4870 H   0  0  0  0  0  0  0  0  0  0  0  0
   38.7730   28.2430   44.6040 H   0  0  0  0  0  0  0  0  0  0  0  0
   38.7780   26.5220   43.9480 H   0  0  0  0  0  0  0  0  0  0  0  0
   39.7590   28.6360   42.5270 H   0  0  0  0  0  0  0  0  0  0  0  0
   39.0640   26.8490   41.5220 C   0  0  0  0  0  0  0  0  0  0  0  0
   38.1480   26.4410   41.1050 H   0  0  0  0  0  0  0  0  0  0  0  0
   39.8170   27.0720   40.7430 H   0  0  0  0  0  0  0  0  0  0  0  0
   41.1960   25.3790   40.6740 N   0  0  0  0  0  0  0  0  0  0  0  0
   40.9270   25.3030   41.9510 C   0  0  0  0  0  0  0  0  0  0  0  0
   39.6420   25.7810   42.3510 N   0  0  0  0  0  0  0  0  0  0  0  0
   41.8690   24.7700   42.9040 N   0  0  0  0  0  0  0  0  0  0  0  0
   42.4430   25.5610   43.3100 H   0  0  0  0  0  0  0  0  0  0  0  0
   42.1020   25.0600   40.2670 H   0  0  0  0  0  0  0  0  0  0  0  0
   39.1960   25.3600   43.1840 H   0  0  0  0  0  0  0  0  0  0  0  0
   42.2350   23.8970   43.3780 H   0  0  0  0  0  0  0  0  0  0  0  0
   37.6790   29.1960   40.7000 O   0  0  0  0  0  0  0  0  0  0  0  0
   37.0420   31.0860   39.0420 O   0  0  0  0  0  0  0  0  0  0  0  0
   37.1560   30.7830   40.5090 P   0  0  1  0  0  0  0  0  0  0  0  0
   35.7030   31.0370   41.3050 O   0  0  0  0  0  0  0  0  0  0  0  0
   35.5010   30.4600   42.0470 H   0  0  0  0  0  0  0  0  0  0  0  0
   38.2690   31.8200   41.2210 O   0  0  0  0  0  0  0  0  0  0  0  0
   39.3810   31.8830   40.4340 C   0  0  0  0  0  0  0  0  0  0  0  0
   39.3180   32.8650   39.8870 H   0  0  0  0  0  0  0  0  0  0  0  0
   39.5110   31.1380   39.6580 H   0  0  0  0  0  0  0  0  0  0  0  0
   41.9580   31.2090   43.0270 C   0  0  0  0  0  0  0  0  0  0  0  0
   40.7690   31.1100   42.2860 C   0  0  0  0  0  0  0  0  0  0  0  0
   40.6240   31.9660   41.2170 C   0  0  0  0  0  0  0  0  0  0  0  0
   41.6270   32.8410   40.9490 N   0  0  0  0  0  0  0  0  0  0  0  0
   42.7560   32.9190   41.6700 C   0  0  0  0  0  0  0  0  0  0  0  0
   42.9080   32.0930   42.7110 N   0  0  0  0  0  0  0  0  0  0  0  0
   42.0750   30.5260   43.8850 H   0  0  0  0  0  0  0  0  0  0  0  0
   40.0320   30.3800   42.5820 H   0  0  0  0  0  0  0  0  0  0  0  0
   43.4650   33.6590   41.3400 H   0  0  0  0  0  0  0  0  0  0  0  0
  1  2  1  0  0  0  0
  1  5  1  0  0  0  0
  1  6  1  1  0  0  0
  2  7  1  0  0  0  0
  2  3  1  0  0  0  0
  3  4  1  0  0  0  0
  3  9  1  0  0  0  0
  3 10  1  0  0  0  0
  4 12  1  0  0  0  0
  4 11  1  0  0  0  0
  5 13  1  1  0  0  0
  5  4  1  0  0  0  0
  8  2  1  0  0  0  0
 14 19  1  0  0  0  0
 14  5  1  0  0  0  0
 15 14  1  0  0  0  0
 16 14  1  0  0  0  0
 17 18  2  0  0  0  0
 18 19  1  0  0  0  0
 18 20  1  0  0  0  0
 19 23  1  0  0  0  0
 20 21  1  0  0  0  0
 20 24  1  0  0  0  0
 22 17  1  0  0  0  0
 25  1  1  0  0  0  0
 27 26  2  6  0  0  0
 27 25  1  0  0  0  0
 27 30  1  0  0  0  0
 27 28  1  0  0  0  0
 28 29  1  0  0  0  0
 31 36  1  0  0  0  0
 31 30  1  0  0  0  0
 32 31  1  0  0  0  0
 33 31  1  0  0  0  0
 34 40  1  0  0  0  0
 35 41  1  0  0  0  0
 35 34  2  0  0  0  0
 36 35  1  0  0  0  0
 37 36  2  0  0  0  0
 37 38  1  0  0  0  0
 38 39  2  0  0  0  0
 39 34  1  0  0  0  0
 42 38  1  0  0  0  0
M  END
>  <minimizedAffinity>
-5.15116453

$$$$

 OpenBabel03252509343D

 42 43  0  0  1  0  0  0  0  0999 V2000
   36.7350   30.1410   38.3710 C   0  0  1  0  0  0  0  0  0  0  0  0
   37.2510   29.1200   37.3720 C   0  0  0  0  0  0  0  0  0  0  0  0
   35.9680   28.8020   36.6040 C   0  0  0  0  0  0  0  0  0  0  0  0
   34.8400   29.0430   37.5760 C   0  0  0  0  0  0  0  0  0  0  0  0
   35.5050   29.4290   38.8840 C   0  0  1  0  0  0  0  0  0  0  0  0
   36.3810   31.0560   37.8550 H   0  0  0  0  0  0  0  0  0  0  0  0
   37.9750   29.5930   36.6970 H   0  0  0  0  0  0  0  0  0  0  0  0
   37.6240   28.2500   37.9020 H   0  0  0  0  0  0  0  0  0  0  0  0
   35.9750   27.7980   36.1820 H   0  0  0  0  0  0  0  0  0  0  0  0
   35.8870   29.5490   35.7930 H   0  0  0  0  0  0  0  0  0  0  0  0
   34.1310   29.8010   37.2460 H   0  0  0  0  0  0  0  0  0  0  0  0
   34.3680   28.0490   37.7640 H   0  0  0  0  0  0  0  0  0  0  0  0
   34.8430   30.1510   39.4390 H   0  0  0  0  0  0  0  0  0  0  0  0
   35.8200   28.2430   39.7460 C   0  0  0  0  0  0  0  0  0  0  0  0
   35.1240   27.4200   39.6130 H   0  0  0  0  0  0  0  0  0  0  0  0
   36.8740   27.9200   39.6590 H   0  0  0  0  0  0  0  0  0  0  0  0
   37.4270   27.3420   41.7530 N   0  0  0  0  0  0  0  0  0  0  0  0
   36.7250   28.4120   42.0250 C   0  0  0  0  0  0  0  0  0  0  0  0
   35.6470   28.6970   41.1330 N   0  0  0  0  0  0  0  0  0  0  0  0
   37.0180   29.2560   43.1580 N   0  0  0  0  0  0  0  0  0  0  0  0
   37.6600   30.0400   42.8540 H   0  0  0  0  0  0  0  0  0  0  0  0
   38.2370   27.0350   42.3340 H   0  0  0  0  0  0  0  0  0  0  0  0
   34.8200   29.1980   41.5030 H   0  0  0  0  0  0  0  0  0  0  0  0
   36.8550   29.4220   44.1900 H   0  0  0  0  0  0  0  0  0  0  0  0
   37.6570   30.3870   39.3840 O   0  0  0  0  0  0  0  0  0  0  0  0
   37.0020   32.8750   39.0620 O   0  0  0  0  0  0  0  0  0  0  0  0
   37.2930   31.8530   40.1230 P   0  0  1  0  0  0  0  0  0  0  0  0
   36.0080   31.6860   41.1870 O   0  0  0  0  0  0  0  0  0  0  0  0
   35.8530   30.8130   41.5560 H   0  0  0  0  0  0  0  0  0  0  0  0
   38.6060   32.3460   41.0470 O   0  0  0  0  0  0  0  0  0  0  0  0
   39.7180   31.6790   40.6260 C   0  0  0  0  0  0  0  0  0  0  0  0
   39.3970   31.0750   39.7310 H   0  0  0  0  0  0  0  0  0  0  0  0
   40.1790   30.9620   41.2960 H   0  0  0  0  0  0  0  0  0  0  0  0
   42.8300   33.7020   40.4270 C   0  0  0  0  0  0  0  0  0  0  0  0
   41.8480   32.8310   40.9250 C   0  0  0  0  0  0  0  0  0  0  0  0
   40.7620   32.5830   40.1170 C   0  0  0  0  0  0  0  0  0  0  0  0
   40.7080   33.1880   38.9020 N   0  0  0  0  0  0  0  0  0  0  0  0
   41.6580   34.0170   38.4450 C   0  0  0  0  0  0  0  0  0  0  0  0
   42.7170   34.2670   39.2210 N   0  0  0  0  0  0  0  0  0  0  0  0
   43.6990   33.9050   41.0740 H   0  0  0  0  0  0  0  0  0  0  0  0
   41.9840   32.4010   41.9050 H   0  0  0  0  0  0  0  0  0  0  0  0
   41.4830   34.4230   37.4620 H   0  0  0  0  0  0  0  0  0  0  0  0
  1  6  1  6  0  0  0
  1  5  1  0  0  0  0
  1 25  1  0  0  0  0
  2  8  1  0  0  0  0
  2  1  1  0  0  0  0
  3  2  1  0  0  0  0
  3  4  1  0  0  0  0
  4 12  1  0  0  0  0
  4  5  1  0  0  0  0
  5 13  1  1  0  0  0
  5 14  1  0  0  0  0
  7  2  1  0  0  0  0
  9  3  1  0  0  0  0
 10  3  1  0  0  0  0
 11  4  1  0  0  0  0
 14 19  1  0  0  0  0
 15 14  1  0  0  0  0
 16 14  1  0  0  0  0
 17 18  2  0  0  0  0
 17 22  1  0  0  0  0
 18 20  1  0  0  0  0
 19 23  1  0  0  0  0
 19 18  1  0  0  0  0
 20 24  1  0  0  0  0
 21 20  1  0  0  0  0
 25 27  1  0  0  0  0
 27 26  2  6  0  0  0
 27 30  1  0  0  0  0
 27 28  1  0  0  0  0
 28 29  1  0  0  0  0
 31 30  1  0  0  0  0
 31 33  1  0  0  0  0
 32 31  1  0  0  0  0
 34 35  1  0  0  0  0
 34 40  1  0  0  0  0
 35 41  1  0  0  0  0
 36 31  1  0  0  0  0
 36 35  2  0  0  0  0
 37 36  1  0  0  0  0
 38 37  2  0  0  0  0
 38 39  1  0  0  0  0
 39 34  2  0  0  0  0
 42 38  1  0  0  0  0
M  END
>  <minimizedAffinity>
-5.0265069

$$$$
