REMARK  Name = 
REMARK  8 active torsions:
REMARK  status: ('A' for Active; 'I' for Inactive)
REMARK    1  A    between atoms: P_2  and  O_3
REMARK    2  A    between atoms: P_2  and  O_4
REMARK    3  A    between atoms: P_2  and  O_12
REMARK    4  A    between atoms: O_4  and  C_5
REMARK    5  A    between atoms: C_5  and  C_8
REMARK    6  A    between atoms: O_12  and  C_13
REMARK    7  A    between atoms: C_17  and  C_18
REMARK    8  A    between atoms: C_18  and  N_37
REMARK                            x       y       z     vdW  Elec       q    Type
REMARK                         _______ _______ _______ _____ _____    ______ ____
ROOT
ATOM      1  C   UNL     1      46.933  34.088  42.285  0.00  0.00    +0.000 C 
ATOM      2  C   UNL     1      46.391  34.265  40.878  0.00  0.00    +0.000 C 
ATOM      3  C   UNL     1      47.341  33.361  40.093  0.00  0.00    +0.000 C 
ATOM      4  C   UNL     1      48.633  33.351  40.872  0.00  0.00    +0.000 C 
ATOM      5  C   UNL     1      48.410  34.292  42.041  0.00  0.00    +0.000 C 
ATOM      6  H   UNL     1      46.810  33.041  42.628  0.00  0.00    +0.000 HD
ATOM      7  H   UNL     1      45.371  33.865  40.818  0.00  0.00    +0.000 HD
ATOM      8  H   UNL     1      46.491  35.303  40.578  0.00  0.00    +0.000 HD
ATOM      9  H   UNL     1      47.457  33.680  39.057  0.00  0.00    +0.000 HD
ATOM     10  H   UNL     1      46.913  32.342  40.125  0.00  0.00    +0.000 HD
ATOM     11  H   UNL     1      48.935  32.359  41.206  0.00  0.00    +0.000 HD
ATOM     12  H   UNL     1      49.394  33.851  40.227  0.00  0.00    +0.000 HD
ATOM     13  H   UNL     1      49.003  33.932  42.927  0.00  0.00    +0.000 HD
ENDROOT
BRANCH   5  14
ATOM     14  C   UNL     1      48.769  35.712  41.717  0.00  0.00    +0.000 C 
ATOM     15  H   UNL     1      48.340  36.060  40.782  0.00  0.00    +0.000 HD
ATOM     16  H   UNL     1      48.568  36.405  42.555  0.00  0.00    +0.000 HD
BRANCH  14  19
ATOM     17  N   UNL     1      50.488  35.872  43.824  0.00  0.00    +0.000 NA
ATOM     18  C   UNL     1      51.016  35.491  42.690  0.00  0.00    +0.000 C 
ATOM     19  N   UNL     1      50.226  35.723  41.522  0.00  0.00    +0.000 N 
ATOM     20  N   UNL     1      52.317  34.874  42.615  0.00  0.00    +0.000 N 
ATOM     21  H   UNL     1      52.208  33.821  42.649  0.00  0.00    +0.000 HD
ATOM     22  H   UNL     1      50.973  35.753  44.740  0.00  0.00    +0.000 HD
ATOM     23  H   UNL     1      50.711  35.883  40.622  0.00  0.00    +0.000 HD
ATOM     24  H   UNL     1      53.360  35.037  42.540  0.00  0.00    +0.000 HD
ENDBRANCH  14  19
ENDBRANCH   5  14
BRANCH   1  25
ATOM     25  O   UNL     1      46.413  35.034  43.164  0.00  0.00    +0.000 OA
BRANCH  25  27
ATOM     26  O   UNL     1      44.673  35.278  45.072  0.00  0.00    +0.000 OA
ATOM     27  P   UNL     1      45.493  34.256  44.337  0.00  0.00    +0.000 P 
BRANCH  27  28
ATOM     28  O   UNL     1      44.527  33.068  43.653  0.00  0.00    +0.000 OA
ATOM     29  H   UNL     1      44.820  32.689  42.820  0.00  0.00    +0.000 HD
ENDBRANCH  27  28
BRANCH  27  30
ATOM     30  O   UNL     1      46.518  33.468  45.409  0.00  0.00    +0.000 OA
BRANCH  30  31
ATOM     31  C   UNL     1      46.207  32.141  45.423  0.00  0.00    +0.000 C 
ATOM     32  H   UNL     1      47.150  31.599  45.131  0.00  0.00    +0.000 HD
ATOM     33  H   UNL     1      45.451  31.777  44.737  0.00  0.00    +0.000 HD
BRANCH  31  36
ATOM     34  C   UNL     1      45.748  32.028  49.110  0.00  0.00    +0.000 A 
ATOM     35  C   UNL     1      46.046  32.518  47.828  0.00  0.00    +0.000 A 
ATOM     36  C   UNL     1      45.891  31.648  46.773  0.00  0.00    +0.000 A 
ATOM     37  N   UNL     1      45.464  30.385  47.034  0.00  0.00    +0.000 NA
ATOM     38  C   UNL     1      45.185  29.937  48.267  0.00  0.00    +0.000 A 
ATOM     39  N   UNL     1      45.332  30.773  49.300  0.00  0.00    +0.000 NA
ATOM     40  H   UNL     1      45.874  32.723  49.957  0.00  0.00    +0.000 HD
ATOM     41  H   UNL     1      46.379  33.539  47.727  0.00  0.00    +0.000 HD
ATOM     42  H   UNL     1      44.855  28.913  48.323  0.00  0.00    +0.000 HD
ENDBRANCH  31  36
ENDBRANCH  30  31
ENDBRANCH  27  30
ENDBRANCH  25  27
ENDBRANCH   1  25
TORSDOF 8
