
 OpenBabel03252509063D

 47 48  0  0  1  0  0  0  0  0999 V2000
   38.4510   29.4930   42.1960 N   0  0  0  0  0  0  0  0  0  0  0  0
   39.2830   28.6540   42.9720 C   0  0  0  0  0  0  0  0  0  0  0  0
   40.7720   28.8070   42.6980 C   0  0  0  0  0  0  0  0  0  0  0  0
   41.1920   30.2120   42.3390 C   0  0  0  0  0  0  0  0  0  0  0  0
   40.0260   31.1850   42.4210 C   0  0  0  0  0  0  0  0  0  0  0  0
   38.9610   30.5370   41.4470 C   0  0  2  0  0  0  0  0  0  0  0  0
   39.0770   27.5820   42.9490 H   0  0  0  0  0  0  0  0  0  0  0  0
   39.1520   28.9630   44.0470 H   0  0  0  0  0  0  0  0  0  0  0  0
   41.3500   28.4450   43.5670 H   0  0  0  0  0  0  0  0  0  0  0  0
   41.0700   28.1570   41.8360 H   0  0  0  0  0  0  0  0  0  0  0  0
   41.9900   30.6010   43.0080 H   0  0  0  0  0  0  0  0  0  0  0  0
   41.5880   30.2910   41.2910 H   0  0  0  0  0  0  0  0  0  0  0  0
   40.3250   32.1420   41.9950 H   0  0  0  0  0  0  0  0  0  0  0  0
   39.5920   31.2300   43.4290 H   0  0  0  0  0  0  0  0  0  0  0  0
   39.5110   30.3070   40.5240 H   0  0  0  0  0  0  0  0  0  0  0  0
   37.2300   28.8630   41.7580 C   0  0  0  0  0  0  0  0  0  0  0  0
   36.3950   29.5590   41.9920 H   0  0  0  0  0  0  0  0  0  0  0  0
   37.2010   28.7170   40.6600 H   0  0  0  0  0  0  0  0  0  0  0  0
   37.0760   27.5720   42.5010 C   0  0  0  0  0  0  0  0  0  0  0  0
   37.9570   27.4320   43.1250 H   0  0  0  0  0  0  0  0  0  0  0  0
   36.1990   27.5960   43.1960 H   0  0  0  0  0  0  0  0  0  0  0  0
   36.9290   24.1060   41.0650 C   0  0  0  0  0  0  0  0  0  0  0  0
   37.0590   25.1780   41.9640 C   0  0  0  0  0  0  0  0  0  0  0  0
   36.9330   26.4670   41.5280 C   0  0  0  0  0  0  0  0  0  0  0  0
   36.6850   26.6470   40.2300 N   0  0  0  0  0  0  0  0  0  0  0  0
   36.5560   25.6400   39.3530 C   0  0  0  0  0  0  0  0  0  0  0  0
   36.6750   24.3570   39.7540 N   0  0  0  0  0  0  0  0  0  0  0  0
   37.0290   23.0720   41.4060 H   0  0  0  0  0  0  0  0  0  0  0  0
   37.2550   24.8830   42.9650 H   0  0  0  0  0  0  0  0  0  0  0  0
   36.3600   25.9470   38.3530 H   0  0  0  0  0  0  0  0  0  0  0  0
   38.0580   31.5800   41.3200 O   0  0  0  0  0  0  0  0  0  0  0  0
   39.5740   33.5280   40.3090 O   0  0  0  0  0  0  0  0  0  0  0  0
   38.3970   32.5690   40.0180 P   0  0  2  0  0  0  0  0  0  0  0  0
   37.0510   33.6270   39.8500 O   0  0  0  0  0  0  0  0  0  0  0  0
   36.2720   33.0010   39.7230 H   0  0  0  0  0  0  0  0  0  0  0  0
   38.6000   31.7790   38.5780 O   0  0  0  0  0  0  0  0  0  0  0  0
   39.9370   31.7270   38.2420 C   0  0  0  0  0  0  0  0  0  0  0  0
   40.2220   30.6870   37.9570 H   0  0  0  0  0  0  0  0  0  0  0  0
   40.5200   31.9170   39.1820 H   0  0  0  0  0  0  0  0  0  0  0  0
   42.3130   33.2150   38.7190 N   0  0  0  0  0  0  0  0  0  0  0  0
   41.6060   33.2720   37.6410 C   0  0  0  0  0  0  0  0  0  0  0  0
   40.3440   32.6930   37.2440 N   0  0  0  0  0  0  0  0  0  0  0  0
   42.3940   34.1270   36.7880 N   0  0  0  0  0  0  0  0  0  0  0  0
   42.7030   33.8460   35.8310 H   0  0  0  0  0  0  0  0  0  0  0  0
   42.0610   32.6850   39.5660 H   0  0  0  0  0  0  0  0  0  0  0  0
   40.0300   33.1050   36.3380 H   0  0  0  0  0  0  0  0  0  0  0  0
   42.7570   35.0830   36.9690 H   0  0  0  0  0  0  0  0  0  0  0  0
  1  2  1  0  0  0  0
  2  8  1  0  0  0  0
  3  2  1  0  0  0  0
  3  9  1  0  0  0  0
  4  5  1  0  0  0  0
  4  3  1  0  0  0  0
  4 11  1  0  0  0  0
  5 14  1  0  0  0  0
  6 15  1  6  0  0  0
  6  1  1  0  0  0  0
  6  5  1  0  0  0  0
  7  2  1  0  0  0  0
 10  3  1  0  0  0  0
 12  4  1  0  0  0  0
 13  5  1  0  0  0  0
 16 17  1  0  0  0  0
 16  1  1  0  0  0  0
 16 19  1  0  0  0  0
 18 16  1  0  0  0  0
 19 20  1  0  0  0  0
 19 21  1  0  0  0  0
 22 28  1  0  0  0  0
 22 23  1  0  0  0  0
 23 29  1  0  0  0  0
 24 23  2  0  0  0  0
 24 19  1  0  0  0  0
 25 24  1  0  0  0  0
 26 27  1  0  0  0  0
 26 25  2  0  0  0  0
 27 22  2  0  0  0  0
 30 26  1  0  0  0  0
 31  6  1  0  0  0  0
 33 32  2  1  0  0  0
 33 31  1  0  0  0  0
 34 33  1  0  0  0  0
 35 34  1  0  0  0  0
 36 33  1  0  0  0  0
 37 36  1  0  0  0  0
 37 39  1  0  0  0  0
 38 37  1  0  0  0  0
 40 45  1  0  0  0  0
 41 40  2  0  0  0  0
 42 41  1  0  0  0  0
 42 37  1  0  0  0  0
 43 47  1  0  0  0  0
 43 41  1  0  0  0  0
 44 43  1  0  0  0  0
 46 42  1  0  0  0  0
M  END
>  <minimizedAffinity>
-5.69879436

$$$$

 OpenBabel03252509063D

 47 48  0  0  1  0  0  0  0  0999 V2000
   37.3630   30.2260   41.7200 N   0  0  0  0  0  0  0  0  0  0  0  0
   37.1620   29.0130   42.4160 C   0  0  0  0  0  0  0  0  0  0  0  0
   38.3670   28.0850   42.4370 C   0  0  0  0  0  0  0  0  0  0  0  0
   39.6960   28.8010   42.4790 C   0  0  0  0  0  0  0  0  0  0  0  0
   39.5190   30.3070   42.5800 C   0  0  0  0  0  0  0  0  0  0  0  0
   38.6210   30.6400   41.3210 C   0  0  2  0  0  0  0  0  0  0  0  0
   36.3090   28.3980   42.1190 H   0  0  0  0  0  0  0  0  0  0  0  0
   36.9800   29.2770   43.4950 H   0  0  0  0  0  0  0  0  0  0  0  0
   38.2840   27.3840   43.2870 H   0  0  0  0  0  0  0  0  0  0  0  0
   38.3780   27.4510   41.5130 H   0  0  0  0  0  0  0  0  0  0  0  0
   40.3210   28.4860   43.3420 H   0  0  0  0  0  0  0  0  0  0  0  0
   40.3130   28.6230   41.5570 H   0  0  0  0  0  0  0  0  0  0  0  0
   40.4830   30.7940   42.4370 H   0  0  0  0  0  0  0  0  0  0  0  0
   38.9700   30.6020   43.4850 H   0  0  0  0  0  0  0  0  0  0  0  0
   39.1010   30.1290   40.4760 H   0  0  0  0  0  0  0  0  0  0  0  0
   36.2200   30.6580   40.9540 C   0  0  0  0  0  0  0  0  0  0  0  0
   35.5310   31.1820   41.6520 H   0  0  0  0  0  0  0  0  0  0  0  0
   36.4900   31.4050   40.1800 H   0  0  0  0  0  0  0  0  0  0  0  0
   35.5670   29.4480   40.3630 C   0  0  0  0  0  0  0  0  0  0  0  0
   35.9930   28.5650   40.8380 H   0  0  0  0  0  0  0  0  0  0  0  0
   34.4690   29.4220   40.5790 H   0  0  0  0  0  0  0  0  0  0  0  0
   35.2180   28.6100   36.7190 C   0  0  0  0  0  0  0  0  0  0  0  0
   35.0170   28.6480   38.1100 C   0  0  0  0  0  0  0  0  0  0  0  0
   35.8060   29.4320   38.9030 C   0  0  0  0  0  0  0  0  0  0  0  0
   36.7560   30.1450   38.2980 N   0  0  0  0  0  0  0  0  0  0  0  0
   36.9670   30.1260   36.9730 C   0  0  0  0  0  0  0  0  0  0  0  0
   36.2040   29.3610   36.1640 N   0  0  0  0  0  0  0  0  0  0  0  0
   34.5910   27.9850   36.0780 H   0  0  0  0  0  0  0  0  0  0  0  0
   34.2240   28.0290   38.4500 H   0  0  0  0  0  0  0  0  0  0  0  0
   37.7640   30.7500   36.6430 H   0  0  0  0  0  0  0  0  0  0  0  0
   38.7300   32.0210   41.2820 O   0  0  0  0  0  0  0  0  0  0  0  0
   40.1200   33.9330   40.0490 O   0  0  0  0  0  0  0  0  0  0  0  0
   39.4120   32.5720   39.8610 P   0  0  2  0  0  0  0  0  0  0  0  0
   38.1030   32.9420   38.8080 O   0  0  0  0  0  0  0  0  0  0  0  0
   37.6040   32.0700   38.7350 H   0  0  0  0  0  0  0  0  0  0  0  0
   40.3880   31.4810   39.0890 O   0  0  0  0  0  0  0  0  0  0  0  0
   40.3070   31.6470   37.7220 C   0  0  0  0  0  0  0  0  0  0  0  0
   39.2940   31.3560   37.3580 H   0  0  0  0  0  0  0  0  0  0  0  0
   40.9880   30.8840   37.2580 H   0  0  0  0  0  0  0  0  0  0  0  0
   43.0690   32.3210   37.7860 N   0  0  0  0  0  0  0  0  0  0  0  0
   42.1350   33.0630   37.2930 C   0  0  0  0  0  0  0  0  0  0  0  0
   40.6960   32.9590   37.2510 N   0  0  0  0  0  0  0  0  0  0  0  0
   42.8720   34.1600   36.7160 N   0  0  0  0  0  0  0  0  0  0  0  0
   42.7740   34.4480   35.7170 H   0  0  0  0  0  0  0  0  0  0  0  0
   42.9180   31.4330   38.2860 H   0  0  0  0  0  0  0  0  0  0  0  0
   40.2820   33.8480   36.8920 H   0  0  0  0  0  0  0  0  0  0  0  0
   43.5660   34.7930   37.1600 H   0  0  0  0  0  0  0  0  0  0  0  0
  1  2  1  0  0  0  0
  2  3  1  0  0  0  0
  2  8  1  0  0  0  0
  3  4  1  0  0  0  0
  3  9  1  0  0  0  0
  4  5  1  0  0  0  0
  4 11  1  0  0  0  0
  5 14  1  0  0  0  0
  6 15  1  6  0  0  0
  6  1  1  0  0  0  0
  6  5  1  0  0  0  0
  7  2  1  0  0  0  0
 10  3  1  0  0  0  0
 12  4  1  0  0  0  0
 13  5  1  0  0  0  0
 16 17  1  0  0  0  0
 16  1  1  0  0  0  0
 18 16  1  0  0  0  0
 19 21  1  0  0  0  0
 19 20  1  0  0  0  0
 19 16  1  0  0  0  0
 22 23  1  0  0  0  0
 23 29  1  0  0  0  0
 23 24  2  0  0  0  0
 24 19  1  0  0  0  0
 25 24  1  0  0  0  0
 26 25  2  0  0  0  0
 27 22  2  0  0  0  0
 27 26  1  0  0  0  0
 28 22  1  0  0  0  0
 30 26  1  0  0  0  0
 31  6  1  0  0  0  0
 33 32  2  1  0  0  0
 33 31  1  0  0  0  0
 34 33  1  0  0  0  0
 35 34  1  0  0  0  0
 36 33  1  0  0  0  0
 37 36  1  0  0  0  0
 38 37  1  0  0  0  0
 39 37  1  0  0  0  0
 40 45  1  0  0  0  0
 41 40  2  0  0  0  0
 42 41  1  0  0  0  0
 42 37  1  0  0  0  0
 43 47  1  0  0  0  0
 43 41  1  0  0  0  0
 44 43  1  0  0  0  0
 46 42  1  0  0  0  0
M  END
>  <minimizedAffinity>
-5.62629461

$$$$

 OpenBabel03252509063D

 47 48  0  0  1  0  0  0  0  0999 V2000
   38.1420   27.7950   42.9780 N   0  0  0  0  0  0  0  0  0  0  0  0
   39.2780   27.2270   43.5990 C   0  0  0  0  0  0  0  0  0  0  0  0
   40.6110   27.7200   43.0570 C   0  0  0  0  0  0  0  0  0  0  0  0
   40.6010   29.1640   42.6140 C   0  0  0  0  0  0  0  0  0  0  0  0
   39.2630   29.8280   42.8960 C   0  0  0  0  0  0  0  0  0  0  0  0
   38.2390   28.8900   42.1390 C   0  0  2  0  0  0  0  0  0  0  0  0
   39.3440   26.1370   43.6250 H   0  0  0  0  0  0  0  0  0  0  0  0
   39.2630   27.5530   44.6770 H   0  0  0  0  0  0  0  0  0  0  0  0
   41.4030   27.5570   43.8100 H   0  0  0  0  0  0  0  0  0  0  0  0
   40.9070   27.1150   42.1620 H   0  0  0  0  0  0  0  0  0  0  0  0
   41.3810   29.7700   43.1230 H   0  0  0  0  0  0  0  0  0  0  0  0
   40.7770   29.2780   41.5100 H   0  0  0  0  0  0  0  0  0  0  0  0
   39.2370   30.8040   42.4140 H   0  0  0  0  0  0  0  0  0  0  0  0
   39.0130   29.8220   43.9660 H   0  0  0  0  0  0  0  0  0  0  0  0
   38.6600   28.7490   41.1340 H   0  0  0  0  0  0  0  0  0  0  0  0
   37.0580   26.8650   42.7770 C   0  0  0  0  0  0  0  0  0  0  0  0
   36.6490   26.6110   43.7790 H   0  0  0  0  0  0  0  0  0  0  0  0
   36.2160   27.3160   42.2140 H   0  0  0  0  0  0  0  0  0  0  0  0
   37.6040   25.6500   42.0950 C   0  0  0  0  0  0  0  0  0  0  0  0
   38.6780   25.7810   41.9740 H   0  0  0  0  0  0  0  0  0  0  0  0
   37.4670   24.7290   42.7160 H   0  0  0  0  0  0  0  0  0  0  0  0
   35.8440   24.0710   39.1780 C   0  0  0  0  0  0  0  0  0  0  0  0
   36.4810   24.2560   40.4170 C   0  0  0  0  0  0  0  0  0  0  0  0
   36.9380   25.4900   40.7830 C   0  0  0  0  0  0  0  0  0  0  0  0
   36.7520   26.4870   39.9180 N   0  0  0  0  0  0  0  0  0  0  0  0
   36.1470   26.3350   38.7300 C   0  0  0  0  0  0  0  0  0  0  0  0
   35.6840   25.1290   38.3410 N   0  0  0  0  0  0  0  0  0  0  0  0
   35.4760   23.0850   38.8780 H   0  0  0  0  0  0  0  0  0  0  0  0
   36.5590   23.3720   41.0010 H   0  0  0  0  0  0  0  0  0  0  0  0
   36.0750   27.2270   38.1530 H   0  0  0  0  0  0  0  0  0  0  0  0
   37.0980   29.6750   42.1680 O   0  0  0  0  0  0  0  0  0  0  0  0
   35.2710   29.8760   40.2350 O   0  0  0  0  0  0  0  0  0  0  0  0
   36.6990   30.2840   40.6650 P   0  0  2  0  0  0  0  0  0  0  0  0
   37.7060   29.4720   39.5310 O   0  0  0  0  0  0  0  0  0  0  0  0
   38.6380   29.6850   39.8470 H   0  0  0  0  0  0  0  0  0  0  0  0
   36.9460   31.9100   40.4850 O   0  0  0  0  0  0  0  0  0  0  0  0
   37.0790   32.2320   39.1500 C   0  0  0  0  0  0  0  0  0  0  0  0
   36.3060   32.9810   38.8560 H   0  0  0  0  0  0  0  0  0  0  0  0
   36.8030   31.3160   38.5620 H   0  0  0  0  0  0  0  0  0  0  0  0
   38.2710   30.9510   36.9080 N   0  0  0  0  0  0  0  0  0  0  0  0
   38.7890   31.9340   37.5640 C   0  0  0  0  0  0  0  0  0  0  0  0
   38.4100   32.6460   38.7610 N   0  0  0  0  0  0  0  0  0  0  0  0
   39.9700   32.2420   36.7940 N   0  0  0  0  0  0  0  0  0  0  0  0
   40.1730   33.1950   36.4200 H   0  0  0  0  0  0  0  0  0  0  0  0
   37.4020   30.4610   37.1650 H   0  0  0  0  0  0  0  0  0  0  0  0
   39.1800   33.2850   39.0580 H   0  0  0  0  0  0  0  0  0  0  0  0
   40.7490   31.6180   36.5080 H   0  0  0  0  0  0  0  0  0  0  0  0
  1  2  1  0  0  0  0
  2  7  1  0  0  0  0
  2  8  1  0  0  0  0
  3  2  1  0  0  0  0
  3  9  1  0  0  0  0
  4  5  1  0  0  0  0
  4  3  1  0  0  0  0
  4 11  1  0  0  0  0
  5 14  1  0  0  0  0
  6 15  1  6  0  0  0
  6 31  1  0  0  0  0
  6  5  1  0  0  0  0
  6  1  1  0  0  0  0
 10  3  1  0  0  0  0
 12  4  1  0  0  0  0
 13  5  1  0  0  0  0
 16  1  1  0  0  0  0
 16 17  1  0  0  0  0
 18 16  1  0  0  0  0
 19 21  1  0  0  0  0
 19 16  1  0  0  0  0
 20 19  1  0  0  0  0
 22 23  1  0  0  0  0
 23 24  2  0  0  0  0
 23 29  1  0  0  0  0
 24 19  1  0  0  0  0
 25 24  1  0  0  0  0
 26 25  2  0  0  0  0
 27 26  1  0  0  0  0
 27 22  2  0  0  0  0
 28 22  1  0  0  0  0
 30 26  1  0  0  0  0
 33 32  2  6  0  0  0
 33 31  1  0  0  0  0
 34 35  1  0  0  0  0
 34 33  1  0  0  0  0
 36 33  1  0  0  0  0
 37 36  1  0  0  0  0
 38 37  1  0  0  0  0
 39 37  1  0  0  0  0
 40 45  1  0  0  0  0
 40 41  2  0  0  0  0
 41 42  1  0  0  0  0
 42 46  1  0  0  0  0
 42 37  1  0  0  0  0
 43 41  1  0  0  0  0
 44 43  1  0  0  0  0
 47 43  1  0  0  0  0
M  END
>  <minimizedAffinity>
-5.37557936

$$$$

 OpenBabel03252509063D

 47 48  0  0  1  0  0  0  0  0999 V2000
   37.4060   26.5380   41.2810 N   0  0  0  0  0  0  0  0  0  0  0  0
   38.1270   25.5580   41.9990 C   0  0  0  0  0  0  0  0  0  0  0  0
   39.1230   26.1130   43.0060 C   0  0  0  0  0  0  0  0  0  0  0  0
   38.6840   27.4010   43.6620 C   0  0  0  0  0  0  0  0  0  0  0  0
   37.2870   27.8070   43.2220 C   0  0  0  0  0  0  0  0  0  0  0  0
   37.4190   27.8710   41.6470 C   0  0  2  0  0  0  0  0  0  0  0  0
   38.6660   24.8060   41.4190 H   0  0  0  0  0  0  0  0  0  0  0  0
   37.3800   24.9840   42.6150 H   0  0  0  0  0  0  0  0  0  0  0  0
   39.3430   25.3490   43.7730 H   0  0  0  0  0  0  0  0  0  0  0  0
   40.0980   26.3320   42.4990 H   0  0  0  0  0  0  0  0  0  0  0  0
   38.6710   27.3300   44.7710 H   0  0  0  0  0  0  0  0  0  0  0  0
   39.3530   28.2660   43.4060 H   0  0  0  0  0  0  0  0  0  0  0  0
   37.0760   28.8150   43.5780 H   0  0  0  0  0  0  0  0  0  0  0  0
   36.5340   27.0480   43.4760 H   0  0  0  0  0  0  0  0  0  0  0  0
   38.3250   28.4630   41.4540 H   0  0  0  0  0  0  0  0  0  0  0  0
   37.1910   26.2070   39.8930 C   0  0  0  0  0  0  0  0  0  0  0  0
   36.1660   26.5470   39.6260 H   0  0  0  0  0  0  0  0  0  0  0  0
   37.8760   26.7590   39.2180 H   0  0  0  0  0  0  0  0  0  0  0  0
   37.3230   24.7250   39.7400 C   0  0  0  0  0  0  0  0  0  0  0  0
   38.1890   24.5230   39.1130 H   0  0  0  0  0  0  0  0  0  0  0  0
   37.5200   24.2220   40.7200 H   0  0  0  0  0  0  0  0  0  0  0  0
   34.1210   22.8130   39.2960 C   0  0  0  0  0  0  0  0  0  0  0  0
   35.3000   23.3390   39.8510 C   0  0  0  0  0  0  0  0  0  0  0  0
   36.0870   24.1880   39.1260 C   0  0  0  0  0  0  0  0  0  0  0  0
   35.6840   24.4840   37.8900 N   0  0  0  0  0  0  0  0  0  0  0  0
   34.5620   23.9940   37.3390 C   0  0  0  0  0  0  0  0  0  0  0  0
   33.7650   23.1530   38.0310 N   0  0  0  0  0  0  0  0  0  0  0  0
   33.4860   22.1320   39.8710 H   0  0  0  0  0  0  0  0  0  0  0  0
   35.4950   23.0160   40.8440 H   0  0  0  0  0  0  0  0  0  0  0  0
   34.3780   24.3240   36.3440 H   0  0  0  0  0  0  0  0  0  0  0  0
   36.2400   28.5190   41.3140 O   0  0  0  0  0  0  0  0  0  0  0  0
   37.9540   30.4910   40.7790 O   0  0  0  0  0  0  0  0  0  0  0  0
   36.5040   29.9950   40.5790 P   0  0  2  0  0  0  0  0  0  0  0  0
   35.5640   31.1430   41.4510 O   0  0  0  0  0  0  0  0  0  0  0  0
   34.6250   30.7870   41.3750 H   0  0  0  0  0  0  0  0  0  0  0  0
   36.0490   30.0730   38.9900 O   0  0  0  0  0  0  0  0  0  0  0  0
   37.0530   29.5910   38.1780 C   0  0  0  0  0  0  0  0  0  0  0  0
   36.9780   28.4810   38.0900 H   0  0  0  0  0  0  0  0  0  0  0  0
   38.0220   29.7520   38.7220 H   0  0  0  0  0  0  0  0  0  0  0  0
   37.9390   32.2910   38.0860 N   0  0  0  0  0  0  0  0  0  0  0  0
   37.6830   31.5590   37.0550 C   0  0  0  0  0  0  0  0  0  0  0  0
   37.1400   30.2320   36.8830 N   0  0  0  0  0  0  0  0  0  0  0  0
   38.0840   32.4040   35.9560 N   0  0  0  0  0  0  0  0  0  0  0  0
   38.7680   32.1030   35.2270 H   0  0  0  0  0  0  0  0  0  0  0  0
   37.7790   32.0130   39.0650 H   0  0  0  0  0  0  0  0  0  0  0  0
   36.9420   30.0530   35.8740 H   0  0  0  0  0  0  0  0  0  0  0  0
   37.7850   33.3720   35.7280 H   0  0  0  0  0  0  0  0  0  0  0  0
  1  6  1  0  0  0  0
  1  2  1  0  0  0  0
  2  8  1  0  0  0  0
  2  3  1  0  0  0  0
  3  4  1  0  0  0  0
  3  9  1  0  0  0  0
  4 11  1  0  0  0  0
  5 14  1  0  0  0  0
  5 13  1  0  0  0  0
  5  4  1  0  0  0  0
  6 15  1  6  0  0  0
  6  5  1  0  0  0  0
  7  2  1  0  0  0  0
 10  3  1  0  0  0  0
 12  4  1  0  0  0  0
 16  1  1  0  0  0  0
 17 16  1  0  0  0  0
 18 16  1  0  0  0  0
 19 16  1  0  0  0  0
 19 21  1  0  0  0  0
 20 19  1  0  0  0  0
 22 23  1  0  0  0  0
 22 28  1  0  0  0  0
 23 29  1  0  0  0  0
 24 19  1  0  0  0  0
 24 23  2  0  0  0  0
 25 24  1  0  0  0  0
 26 25  2  0  0  0  0
 26 27  1  0  0  0  0
 27 22  2  0  0  0  0
 30 26  1  0  0  0  0
 31  6  1  0  0  0  0
 33 32  2  1  0  0  0
 33 31  1  0  0  0  0
 33 34  1  0  0  0  0
 35 34  1  0  0  0  0
 36 33  1  0  0  0  0
 37 39  1  0  0  0  0
 37 36  1  0  0  0  0
 38 37  1  0  0  0  0
 40 45  1  0  0  0  0
 41 40  2  0  0  0  0
 42 41  1  0  0  0  0
 42 37  1  0  0  0  0
 43 41  1  0  0  0  0
 44 43  1  0  0  0  0
 46 42  1  0  0  0  0
 47 43  1  0  0  0  0
M  END
>  <minimizedAffinity>
-5.34193182

$$$$

 OpenBabel03252509063D

 47 48  0  0  1  0  0  0  0  0999 V2000
   37.3650   28.8870   42.2940 N   0  0  0  0  0  0  0  0  0  0  0  0
   36.5640   27.7360   42.4670 C   0  0  0  0  0  0  0  0  0  0  0  0
   37.3130   26.4170   42.3430 C   0  0  0  0  0  0  0  0  0  0  0  0
   38.7350   26.4660   42.8490 C   0  0  0  0  0  0  0  0  0  0  0  0
   39.0690   27.8200   43.4550 C   0  0  0  0  0  0  0  0  0  0  0  0
   38.7460   28.8220   42.2750 C   0  0  2  0  0  0  0  0  0  0  0  0
   35.6760   27.6420   41.8370 H   0  0  0  0  0  0  0  0  0  0  0  0
   36.1810   27.7540   43.5250 H   0  0  0  0  0  0  0  0  0  0  0  0
   36.7510   25.6180   42.8590 H   0  0  0  0  0  0  0  0  0  0  0  0
   37.3700   26.1090   41.2670 H   0  0  0  0  0  0  0  0  0  0  0  0
   38.9350   25.7000   43.6290 H   0  0  0  0  0  0  0  0  0  0  0  0
   39.4900   26.2970   42.0340 H   0  0  0  0  0  0  0  0  0  0  0  0
   40.1390   27.8730   43.6510 H   0  0  0  0  0  0  0  0  0  0  0  0
   38.4200   28.0650   44.3070 H   0  0  0  0  0  0  0  0  0  0  0  0
   39.2420   28.4010   41.3900 H   0  0  0  0  0  0  0  0  0  0  0  0
   36.7140   29.9480   41.5640 C   0  0  0  0  0  0  0  0  0  0  0  0
   36.2990   30.6590   42.3110 H   0  0  0  0  0  0  0  0  0  0  0  0
   37.4280   30.5370   40.9530 H   0  0  0  0  0  0  0  0  0  0  0  0
   35.6260   29.3450   40.7330 C   0  0  0  0  0  0  0  0  0  0  0  0
   35.5600   28.2860   40.9740 H   0  0  0  0  0  0  0  0  0  0  0  0
   34.6260   29.7860   40.9760 H   0  0  0  0  0  0  0  0  0  0  0  0
   35.4150   29.1360   36.9890 C   0  0  0  0  0  0  0  0  0  0  0  0
   35.1410   28.9660   38.3570 C   0  0  0  0  0  0  0  0  0  0  0  0
   35.9420   29.5450   39.3010 C   0  0  0  0  0  0  0  0  0  0  0  0
   36.9740   30.2650   38.8620 N   0  0  0  0  0  0  0  0  0  0  0  0
   37.2550   30.4430   37.5610 C   0  0  0  0  0  0  0  0  0  0  0  0
   36.4830   29.8830   36.6060 N   0  0  0  0  0  0  0  0  0  0  0  0
   34.7790   28.6750   36.2280 H   0  0  0  0  0  0  0  0  0  0  0  0
   34.2870   28.3680   38.5580 H   0  0  0  0  0  0  0  0  0  0  0  0
   38.1130   31.0440   37.3720 H   0  0  0  0  0  0  0  0  0  0  0  0
   39.3310   29.9830   42.7530 O   0  0  0  0  0  0  0  0  0  0  0  0
   40.9930   29.4720   40.7300 O   0  0  0  0  0  0  0  0  0  0  0  0
   40.7820   30.3280   42.0000 P   0  0  2  0  0  0  0  0  0  0  0  0
   42.0200   29.7810   43.0620 O   0  0  0  0  0  0  0  0  0  0  0  0
   41.8450   30.2920   43.9120 H   0  0  0  0  0  0  0  0  0  0  0  0
   41.0470   31.9340   41.7010 O   0  0  0  0  0  0  0  0  0  0  0  0
   40.7040   32.2440   40.4010 C   0  0  0  0  0  0  0  0  0  0  0  0
   41.4040   31.7480   39.6890 H   0  0  0  0  0  0  0  0  0  0  0  0
   40.9090   33.3390   40.2600 H   0  0  0  0  0  0  0  0  0  0  0  0
   38.7510   34.1140   41.2840 N   0  0  0  0  0  0  0  0  0  0  0  0
   38.5140   33.0900   40.5350 C   0  0  0  0  0  0  0  0  0  0  0  0
   39.3190   31.9880   40.0670 N   0  0  0  0  0  0  0  0  0  0  0  0
   37.1200   33.2560   40.2030 N   0  0  0  0  0  0  0  0  0  0  0  0
   36.7680   33.2770   39.2210 H   0  0  0  0  0  0  0  0  0  0  0  0
   39.6610   34.3340   41.7160 H   0  0  0  0  0  0  0  0  0  0  0  0
   38.7160   31.2740   39.6020 H   0  0  0  0  0  0  0  0  0  0  0  0
   36.3030   33.3730   40.8330 H   0  0  0  0  0  0  0  0  0  0  0  0
  1  2  1  0  0  0  0
  2  8  1  0  0  0  0
  3  2  1  0  0  0  0
  3  4  1  0  0  0  0
  3  9  1  0  0  0  0
  4  5  1  0  0  0  0
  4 11  1  0  0  0  0
  5 13  1  0  0  0  0
  5 14  1  0  0  0  0
  6 15  1  6  0  0  0
  6  1  1  0  0  0  0
  6 31  1  0  0  0  0
  6  5  1  0  0  0  0
  7  2  1  0  0  0  0
 10  3  1  0  0  0  0
 12  4  1  0  0  0  0
 16  1  1  0  0  0  0
 16 17  1  0  0  0  0
 18 16  1  0  0  0  0
 19 20  1  0  0  0  0
 19 21  1  0  0  0  0
 19 16  1  0  0  0  0
 22 23  1  0  0  0  0
 23 29  1  0  0  0  0
 23 24  2  0  0  0  0
 24 19  1  0  0  0  0
 25 24  1  0  0  0  0
 26 25  2  0  0  0  0
 27 22  2  0  0  0  0
 27 26  1  0  0  0  0
 28 22  1  0  0  0  0
 30 26  1  0  0  0  0
 33 32  2  6  0  0  0
 33 31  1  0  0  0  0
 33 34  1  0  0  0  0
 34 35  1  0  0  0  0
 36 33  1  0  0  0  0
 37 36  1  0  0  0  0
 38 37  1  0  0  0  0
 39 37  1  0  0  0  0
 40 45  1  0  0  0  0
 41 40  2  0  0  0  0
 42 37  1  0  0  0  0
 42 41  1  0  0  0  0
 43 41  1  0  0  0  0
 43 47  1  0  0  0  0
 44 43  1  0  0  0  0
 46 42  1  0  0  0  0
M  END
>  <minimizedAffinity>
-5.29921436

$$$$

 OpenBabel03252509063D

 47 48  0  0  1  0  0  0  0  0999 V2000
   36.8240   28.0970   41.6130 N   0  0  0  0  0  0  0  0  0  0  0  0
   36.9940   26.8250   42.2040 C   0  0  0  0  0  0  0  0  0  0  0  0
   38.3770   26.5750   42.7880 C   0  0  0  0  0  0  0  0  0  0  0  0
   39.0310   27.8040   43.3730 C   0  0  0  0  0  0  0  0  0  0  0  0
   38.1060   29.0090   43.3220 C   0  0  0  0  0  0  0  0  0  0  0  0
   37.7480   29.1120   41.7840 C   0  0  2  0  0  0  0  0  0  0  0  0
   36.7590   25.9510   41.5920 H   0  0  0  0  0  0  0  0  0  0  0  0
   36.2930   26.7730   43.0840 H   0  0  0  0  0  0  0  0  0  0  0  0
   38.3230   25.7730   43.5470 H   0  0  0  0  0  0  0  0  0  0  0  0
   39.0670   26.1980   41.9900 H   0  0  0  0  0  0  0  0  0  0  0  0
   39.3260   27.6630   44.4350 H   0  0  0  0  0  0  0  0  0  0  0  0
   39.9610   28.1040   42.8200 H   0  0  0  0  0  0  0  0  0  0  0  0
   38.6660   29.9050   43.5910 H   0  0  0  0  0  0  0  0  0  0  0  0
   37.1770   28.8460   43.8840 H   0  0  0  0  0  0  0  0  0  0  0  0
   38.7080   29.0460   41.2560 H   0  0  0  0  0  0  0  0  0  0  0  0
   36.0320   28.0810   40.4080 C   0  0  0  0  0  0  0  0  0  0  0  0
   35.0050   27.7610   40.6910 H   0  0  0  0  0  0  0  0  0  0  0  0
   35.9210   29.0920   39.9650 H   0  0  0  0  0  0  0  0  0  0  0  0
   36.6530   27.1130   39.4520 C   0  0  0  0  0  0  0  0  0  0  0  0
   37.6370   26.8430   39.8310 H   0  0  0  0  0  0  0  0  0  0  0  0
   36.0680   26.1600   39.3880 H   0  0  0  0  0  0  0  0  0  0  0  0
   38.0090   28.1360   36.1030 C   0  0  0  0  0  0  0  0  0  0  0  0
   37.8830   27.5480   37.3740 C   0  0  0  0  0  0  0  0  0  0  0  0
   36.7540   27.7450   38.1180 C   0  0  0  0  0  0  0  0  0  0  0  0
   35.7990   28.5070   37.5830 N   0  0  0  0  0  0  0  0  0  0  0  0
   35.8970   29.0770   36.3720 C   0  0  0  0  0  0  0  0  0  0  0  0
   37.0000   28.9020   35.6140 N   0  0  0  0  0  0  0  0  0  0  0  0
   38.9100   27.9830   35.5020 H   0  0  0  0  0  0  0  0  0  0  0  0
   38.7220   26.9680   37.6690 H   0  0  0  0  0  0  0  0  0  0  0  0
   35.0510   29.6570   36.0870 H   0  0  0  0  0  0  0  0  0  0  0  0
   37.1620   30.3660   41.7370 O   0  0  0  0  0  0  0  0  0  0  0  0
   39.1310   32.0810   41.1930 O   0  0  0  0  0  0  0  0  0  0  0  0
   37.8850   31.3710   40.6160 P   0  0  2  0  0  0  0  0  0  0  0  0
   36.7810   32.6610   40.3400 O   0  0  0  0  0  0  0  0  0  0  0  0
   35.9460   32.1940   40.0230 H   0  0  0  0  0  0  0  0  0  0  0  0
   38.2120   30.6640   39.1550 O   0  0  0  0  0  0  0  0  0  0  0  0
   38.0430   31.5740   38.1320 C   0  0  0  0  0  0  0  0  0  0  0  0
   36.9870   31.9340   38.1070 H   0  0  0  0  0  0  0  0  0  0  0  0
   38.1560   31.0090   37.1690 H   0  0  0  0  0  0  0  0  0  0  0  0
   40.6470   31.0910   37.0970 N   0  0  0  0  0  0  0  0  0  0  0  0
   40.2090   32.2360   37.5010 C   0  0  0  0  0  0  0  0  0  0  0  0
   38.9890   32.6690   38.1390 N   0  0  0  0  0  0  0  0  0  0  0  0
   41.2920   33.1270   37.1630 N   0  0  0  0  0  0  0  0  0  0  0  0
   41.1640   33.9810   36.5770 H   0  0  0  0  0  0  0  0  0  0  0  0
   40.1340   30.2000   37.1730 H   0  0  0  0  0  0  0  0  0  0  0  0
   39.0790   33.6620   38.4490 H   0  0  0  0  0  0  0  0  0  0  0  0
   42.2960   33.0720   37.4240 H   0  0  0  0  0  0  0  0  0  0  0  0
  1  6  1  0  0  0  0
  1  2  1  0  0  0  0
  2  3  1  0  0  0  0
  2  8  1  0  0  0  0
  3  4  1  0  0  0  0
  3  9  1  0  0  0  0
  4 11  1  0  0  0  0
  5  4  1  0  0  0  0
  5 13  1  0  0  0  0
  5 14  1  0  0  0  0
  6 15  1  6  0  0  0
  6  5  1  0  0  0  0
  7  2  1  0  0  0  0
 10  3  1  0  0  0  0
 12  4  1  0  0  0  0
 16 17  1  0  0  0  0
 16  1  1  0  0  0  0
 18 16  1  0  0  0  0
 19 20  1  0  0  0  0
 19 16  1  0  0  0  0
 21 19  1  0  0  0  0
 22 23  1  0  0  0  0
 23 29  1  0  0  0  0
 23 24  2  0  0  0  0
 24 19  1  0  0  0  0
 25 24  1  0  0  0  0
 26 25  2  0  0  0  0
 27 22  2  0  0  0  0
 27 26  1  0  0  0  0
 28 22  1  0  0  0  0
 30 26  1  0  0  0  0
 31  6  1  0  0  0  0
 33 32  2  1  0  0  0
 33 31  1  0  0  0  0
 34 33  1  0  0  0  0
 35 34  1  0  0  0  0
 36 33  1  0  0  0  0
 37 42  1  0  0  0  0
 37 36  1  0  0  0  0
 38 37  1  0  0  0  0
 39 37  1  0  0  0  0
 40 45  1  0  0  0  0
 40 41  2  0  0  0  0
 41 42  1  0  0  0  0
 42 46  1  0  0  0  0
 43 47  1  0  0  0  0
 43 41  1  0  0  0  0
 44 43  1  0  0  0  0
M  END
>  <minimizedAffinity>
-5.27476549

$$$$

 OpenBabel03252509063D

 47 48  0  0  1  0  0  0  0  0999 V2000
   36.0940   29.5190   38.4770 N   0  0  0  0  0  0  0  0  0  0  0  0
   34.9370   28.8440   38.0260 C   0  0  0  0  0  0  0  0  0  0  0  0
   34.5850   29.0920   36.5670 C   0  0  0  0  0  0  0  0  0  0  0  0
   35.7830   29.2800   35.6670 C   0  0  0  0  0  0  0  0  0  0  0  0
   37.0880   29.0880   36.4230 C   0  0  0  0  0  0  0  0  0  0  0  0
   36.9680   30.1360   37.6010 C   0  0  2  0  0  0  0  0  0  0  0  0
   34.0150   28.9950   38.5920 H   0  0  0  0  0  0  0  0  0  0  0  0
   35.1520   27.7410   38.0900 H   0  0  0  0  0  0  0  0  0  0  0  0
   33.9500   28.2690   36.1910 H   0  0  0  0  0  0  0  0  0  0  0  0
   33.9700   30.0240   36.4750 H   0  0  0  0  0  0  0  0  0  0  0  0
   35.7910   28.5660   34.8150 H   0  0  0  0  0  0  0  0  0  0  0  0
   35.8320   30.3090   35.2210 H   0  0  0  0  0  0  0  0  0  0  0  0
   37.9200   29.3960   35.7900 H   0  0  0  0  0  0  0  0  0  0  0  0
   37.1730   28.0840   36.8590 H   0  0  0  0  0  0  0  0  0  0  0  0
   36.6620   31.0770   37.1250 H   0  0  0  0  0  0  0  0  0  0  0  0
   35.9860   30.0330   39.8200 C   0  0  0  0  0  0  0  0  0  0  0  0
   36.9980   30.3760   40.1270 H   0  0  0  0  0  0  0  0  0  0  0  0
   35.3350   30.9290   39.8770 H   0  0  0  0  0  0  0  0  0  0  0  0
   35.5010   28.9290   40.7070 C   0  0  0  0  0  0  0  0  0  0  0  0
   34.6200   29.2820   41.2390 H   0  0  0  0  0  0  0  0  0  0  0  0
   35.1750   28.0360   40.1160 H   0  0  0  0  0  0  0  0  0  0  0  0
   37.9140   26.8520   42.6970 C   0  0  0  0  0  0  0  0  0  0  0  0
   36.8970   27.2380   41.8070 C   0  0  0  0  0  0  0  0  0  0  0  0
   36.5780   28.5570   41.6510 C   0  0  0  0  0  0  0  0  0  0  0  0
   37.2700   29.4390   42.3720 N   0  0  0  0  0  0  0  0  0  0  0  0
   38.2460   29.0940   43.2270 C   0  0  0  0  0  0  0  0  0  0  0  0
   38.5840   27.7990   43.4030 N   0  0  0  0  0  0  0  0  0  0  0  0
   38.1750   25.7970   42.8280 H   0  0  0  0  0  0  0  0  0  0  0  0
   36.4330   26.4280   41.3010 H   0  0  0  0  0  0  0  0  0  0  0  0
   38.7040   29.9140   43.7290 H   0  0  0  0  0  0  0  0  0  0  0  0
   38.2690   30.1420   38.0770 O   0  0  0  0  0  0  0  0  0  0  0  0
   38.2050   32.6710   38.9220 O   0  0  0  0  0  0  0  0  0  0  0  0
   38.9630   31.6610   38.0320 P   0  0  2  0  0  0  0  0  0  0  0  0
   38.7090   32.2600   36.4390 O   0  0  0  0  0  0  0  0  0  0  0  0
   39.1490   31.5690   35.8530 H   0  0  0  0  0  0  0  0  0  0  0  0
   40.5910   31.6920   38.3290 O   0  0  0  0  0  0  0  0  0  0  0  0
   41.0440   32.9930   38.3900 C   0  0  0  0  0  0  0  0  0  0  0  0
   40.1880   33.6930   38.5310 H   0  0  0  0  0  0  0  0  0  0  0  0
   41.4380   33.2520   37.3710 H   0  0  0  0  0  0  0  0  0  0  0  0
   40.3090   33.1700   41.1310 N   0  0  0  0  0  0  0  0  0  0  0  0
   41.5190   33.1940   40.6850 C   0  0  0  0  0  0  0  0  0  0  0  0
   42.0940   33.2180   39.3610 N   0  0  0  0  0  0  0  0  0  0  0  0
   42.3050   33.1920   41.8950 N   0  0  0  0  0  0  0  0  0  0  0  0
   43.0490   32.4860   42.0890 H   0  0  0  0  0  0  0  0  0  0  0  0
   39.4610   33.1640   40.5460 H   0  0  0  0  0  0  0  0  0  0  0  0
   43.1220   33.3910   39.4190 H   0  0  0  0  0  0  0  0  0  0  0  0
   42.2640   33.8380   42.7060 H   0  0  0  0  0  0  0  0  0  0  0  0
  1 16  1  0  0  0  0
  2  8  1  0  0  0  0
  2  1  1  0  0  0  0
  2  7  1  0  0  0  0
  3  2  1  0  0  0  0
  4  5  1  0  0  0  0
  4  3  1  0  0  0  0
  5 14  1  0  0  0  0
  5  6  1  0  0  0  0
  6 15  1  6  0  0  0
  6 31  1  0  0  0  0
  6  1  1  0  0  0  0
  9  3  1  0  0  0  0
 10  3  1  0  0  0  0
 11  4  1  0  0  0  0
 12  4  1  0  0  0  0
 13  5  1  0  0  0  0
 16 18  1  0  0  0  0
 16 17  1  0  0  0  0
 16 19  1  0  0  0  0
 19 20  1  0  0  0  0
 19 24  1  0  0  0  0
 21 19  1  0  0  0  0
 22 28  1  0  0  0  0
 22 27  1  0  0  0  0
 23 22  2  0  0  0  0
 24 23  1  0  0  0  0
 24 25  2  0  0  0  0
 25 26  1  0  0  0  0
 26 27  2  0  0  0  0
 26 30  1  0  0  0  0
 29 23  1  0  0  0  0
 33 31  1  0  0  0  0
 33 36  1  0  0  0  0
 33 32  2  1  0  0  0
 34 33  1  0  0  0  0
 35 34  1  0  0  0  0
 36 37  1  0  0  0  0
 37 38  1  0  0  0  0
 37 42  1  0  0  0  0
 39 37  1  0  0  0  0
 41 40  2  0  0  0  0
 41 43  1  0  0  0  0
 42 46  1  0  0  0  0
 42 41  1  0  0  0  0
 43 44  1  0  0  0  0
 43 47  1  0  0  0  0
 45 40  1  0  0  0  0
M  END
>  <minimizedAffinity>
-5.22015142

$$$$

 OpenBabel03252509063D

 47 48  0  0  1  0  0  0  0  0999 V2000
   38.1010   28.6990   38.3190 N   0  0  0  0  0  0  0  0  0  0  0  0
   37.3700   27.7080   37.6240 C   0  0  0  0  0  0  0  0  0  0  0  0
   35.8590   27.8800   37.6770 C   0  0  0  0  0  0  0  0  0  0  0  0
   35.4020   29.3190   37.6990 C   0  0  0  0  0  0  0  0  0  0  0  0
   36.5720   30.2810   37.5740 C   0  0  0  0  0  0  0  0  0  0  0  0
   37.5040   29.8580   38.7810 C   0  0  2  0  0  0  0  0  0  0  0  0
   37.5680   26.6650   37.8820 H   0  0  0  0  0  0  0  0  0  0  0  0
   37.6360   27.8050   36.5340 H   0  0  0  0  0  0  0  0  0  0  0  0
   35.3940   27.3440   36.8300 H   0  0  0  0  0  0  0  0  0  0  0  0
   35.4520   27.4030   38.6050 H   0  0  0  0  0  0  0  0  0  0  0  0
   34.6960   29.5530   36.8730 H   0  0  0  0  0  0  0  0  0  0  0  0
   34.8770   29.5910   38.6540 H   0  0  0  0  0  0  0  0  0  0  0  0
   36.2260   31.2970   37.7650 H   0  0  0  0  0  0  0  0  0  0  0  0
   37.1300   30.1400   36.6390 H   0  0  0  0  0  0  0  0  0  0  0  0
   36.8420   29.7990   39.6550 H   0  0  0  0  0  0  0  0  0  0  0  0
   39.2550   28.1920   39.0190 C   0  0  0  0  0  0  0  0  0  0  0  0
   40.0480   28.0080   38.2610 H   0  0  0  0  0  0  0  0  0  0  0  0
   39.6790   28.9350   39.7250 H   0  0  0  0  0  0  0  0  0  0  0  0
   38.8650   26.9210   39.7070 C   0  0  0  0  0  0  0  0  0  0  0  0
   38.0460   26.4700   39.1500 H   0  0  0  0  0  0  0  0  0  0  0  0
   39.6990   26.1740   39.7010 H   0  0  0  0  0  0  0  0  0  0  0  0
   36.7130   27.4730   42.7340 C   0  0  0  0  0  0  0  0  0  0  0  0
   37.1320   27.1870   41.4230 C   0  0  0  0  0  0  0  0  0  0  0  0
   38.4580   27.2270   41.0960 C   0  0  0  0  0  0  0  0  0  0  0  0
   39.3140   27.5450   42.0680 N   0  0  0  0  0  0  0  0  0  0  0  0
   38.9370   27.8220   43.3260 C   0  0  0  0  0  0  0  0  0  0  0  0
   37.6350   27.7900   43.6800 N   0  0  0  0  0  0  0  0  0  0  0  0
   35.6530   27.4430   43.0040 H   0  0  0  0  0  0  0  0  0  0  0  0
   36.3400   26.9500   40.7570 H   0  0  0  0  0  0  0  0  0  0  0  0
   39.7390   28.0580   43.9850 H   0  0  0  0  0  0  0  0  0  0  0  0
   38.3880   30.9250   38.8120 O   0  0  0  0  0  0  0  0  0  0  0  0
   38.0950   30.7440   41.4570 O   0  0  0  0  0  0  0  0  0  0  0  0
   38.3970   31.7080   40.2870 P   0  0  2  0  0  0  0  0  0  0  0  0
   37.0410   32.7670   40.2800 O   0  0  0  0  0  0  0  0  0  0  0  0
   37.2050   33.3570   39.4790 H   0  0  0  0  0  0  0  0  0  0  0  0
   39.7460   32.6190   40.5840 O   0  0  0  0  0  0  0  0  0  0  0  0
   39.8690   33.6190   39.6420 C   0  0  0  0  0  0  0  0  0  0  0  0
   39.4720   34.5800   40.0460 H   0  0  0  0  0  0  0  0  0  0  0  0
   39.1650   33.3690   38.8040 H   0  0  0  0  0  0  0  0  0  0  0  0
   40.3890   32.5140   37.0740 N   0  0  0  0  0  0  0  0  0  0  0  0
   41.2250   33.2140   37.7640 C   0  0  0  0  0  0  0  0  0  0  0  0
   41.2010   33.7700   39.0950 N   0  0  0  0  0  0  0  0  0  0  0  0
   42.3360   33.3670   36.8560 N   0  0  0  0  0  0  0  0  0  0  0  0
   42.7300   34.2960   36.5910 H   0  0  0  0  0  0  0  0  0  0  0  0
   39.4630   32.2040   37.4030 H   0  0  0  0  0  0  0  0  0  0  0  0
   42.1420   34.1460   39.3450 H   0  0  0  0  0  0  0  0  0  0  0  0
   42.8830   32.6390   36.3580 H   0  0  0  0  0  0  0  0  0  0  0  0
  1  6  1  0  0  0  0
  1 16  1  0  0  0  0
  2  3  1  0  0  0  0
  2  7  1  0  0  0  0
  2  1  1  0  0  0  0
  3  4  1  0  0  0  0
  3 10  1  0  0  0  0
  4 12  1  0  0  0  0
  5  4  1  0  0  0  0
  5 13  1  0  0  0  0
  5  6  1  0  0  0  0
  6 31  1  0  0  0  0
  6 15  1  1  0  0  0
  8  2  1  0  0  0  0
  9  3  1  0  0  0  0
 11  4  1  0  0  0  0
 14  5  1  0  0  0  0
 16 19  1  0  0  0  0
 16 18  1  0  0  0  0
 17 16  1  0  0  0  0
 19 24  1  0  0  0  0
 20 19  1  0  0  0  0
 21 19  1  0  0  0  0
 22 28  1  0  0  0  0
 22 27  1  0  0  0  0
 23 22  2  0  0  0  0
 24 23  1  0  0  0  0
 24 25  2  0  0  0  0
 25 26  1  0  0  0  0
 26 27  2  0  0  0  0
 26 30  1  0  0  0  0
 29 23  1  0  0  0  0
 31 33  1  0  0  0  0
 33 36  1  0  0  0  0
 33 32  2  1  0  0  0
 34 33  1  0  0  0  0
 35 34  1  0  0  0  0
 37 38  1  0  0  0  0
 37 36  1  0  0  0  0
 39 37  1  0  0  0  0
 40 45  1  0  0  0  0
 40 41  2  0  0  0  0
 41 42  1  0  0  0  0
 42 46  1  0  0  0  0
 42 37  1  0  0  0  0
 43 41  1  0  0  0  0
 44 43  1  0  0  0  0
 47 43  1  0  0  0  0
M  END
>  <minimizedAffinity>
-5.15490723

$$$$

 OpenBabel03252509063D

 47 48  0  0  1  0  0  0  0  0999 V2000
   38.1150   29.2780   42.2500 N   0  0  0  0  0  0  0  0  0  0  0  0
   37.9020   27.9150   42.5560 C   0  0  0  0  0  0  0  0  0  0  0  0
   39.0060   26.9790   42.0880 C   0  0  0  0  0  0  0  0  0  0  0  0
   40.3890   27.5850   42.1340 C   0  0  0  0  0  0  0  0  0  0  0  0
   40.3680   28.9840   42.7290 C   0  0  0  0  0  0  0  0  0  0  0  0
   39.3370   29.7450   41.8010 C   0  0  2  0  0  0  0  0  0  0  0  0
   36.9620   27.4670   42.2240 H   0  0  0  0  0  0  0  0  0  0  0  0
   37.8990   27.8240   43.6780 H   0  0  0  0  0  0  0  0  0  0  0  0
   38.9790   26.0450   42.6780 H   0  0  0  0  0  0  0  0  0  0  0  0
   38.8280   26.6780   41.0240 H   0  0  0  0  0  0  0  0  0  0  0  0
   41.0970   26.9820   42.7420 H   0  0  0  0  0  0  0  0  0  0  0  0
   40.8500   27.6880   41.1150 H   0  0  0  0  0  0  0  0  0  0  0  0
   41.3440   29.4490   42.5900 H   0  0  0  0  0  0  0  0  0  0  0  0
   39.9830   28.9940   43.7570 H   0  0  0  0  0  0  0  0  0  0  0  0
   39.6450   29.5140   40.7730 H   0  0  0  0  0  0  0  0  0  0  0  0
   36.9210   29.9840   41.8550 C   0  0  0  0  0  0  0  0  0  0  0  0
   36.1820   29.8740   42.6790 H   0  0  0  0  0  0  0  0  0  0  0  0
   37.0920   31.0740   41.7480 H   0  0  0  0  0  0  0  0  0  0  0  0
   36.4100   29.3680   40.5900 C   0  0  0  0  0  0  0  0  0  0  0  0
   36.8100   28.3590   40.5170 H   0  0  0  0  0  0  0  0  0  0  0  0
   35.2960   29.2650   40.6000 H   0  0  0  0  0  0  0  0  0  0  0  0
   37.2610   32.3660   38.4950 C   0  0  0  0  0  0  0  0  0  0  0  0
   36.8580   31.5540   39.5690 C   0  0  0  0  0  0  0  0  0  0  0  0
   36.8410   30.1940   39.4400 C   0  0  0  0  0  0  0  0  0  0  0  0
   37.2200   29.6910   38.2650 N   0  0  0  0  0  0  0  0  0  0  0  0
   37.6090   30.4460   37.2260 C   0  0  0  0  0  0  0  0  0  0  0  0
   37.6360   31.7910   37.3230 N   0  0  0  0  0  0  0  0  0  0  0  0
   37.2770   33.4560   38.5910 H   0  0  0  0  0  0  0  0  0  0  0  0
   36.5840   32.0930   40.4420 H   0  0  0  0  0  0  0  0  0  0  0  0
   37.8810   29.8950   36.3570 H   0  0  0  0  0  0  0  0  0  0  0  0
   39.5680   31.0580   42.1790 O   0  0  0  0  0  0  0  0  0  0  0  0
   41.9800   31.9810   41.5140 O   0  0  0  0  0  0  0  0  0  0  0  0
   40.5010   31.8900   41.0720 P   0  0  2  0  0  0  0  0  0  0  0  0
   39.9670   33.5240   41.1220 O   0  0  0  0  0  0  0  0  0  0  0  0
   38.9870   33.4600   40.8950 H   0  0  0  0  0  0  0  0  0  0  0  0
   40.3660   31.3620   39.5100 O   0  0  0  0  0  0  0  0  0  0  0  0
   41.5900   30.9360   39.0380 C   0  0  0  0  0  0  0  0  0  0  0  0
   41.4530   30.1090   38.3030 H   0  0  0  0  0  0  0  0  0  0  0  0
   42.1220   30.4460   39.8970 H   0  0  0  0  0  0  0  0  0  0  0  0
   40.5980   32.4860   36.8700 N   0  0  0  0  0  0  0  0  0  0  0  0
   41.7120   32.6980   37.4850 C   0  0  0  0  0  0  0  0  0  0  0  0
   42.4330   31.9910   38.5160 N   0  0  0  0  0  0  0  0  0  0  0  0
   42.1770   33.9260   36.8870 N   0  0  0  0  0  0  0  0  0  0  0  0
   42.4230   34.7730   37.4440 H   0  0  0  0  0  0  0  0  0  0  0  0
   39.9730   31.6840   37.0370 H   0  0  0  0  0  0  0  0  0  0  0  0
   43.3830   32.4060   38.6400 H   0  0  0  0  0  0  0  0  0  0  0  0
   42.3310   34.1520   35.8850 H   0  0  0  0  0  0  0  0  0  0  0  0
  1  2  1  0  0  0  0
  2  8  1  0  0  0  0
  3  4  1  0  0  0  0
  3  2  1  0  0  0  0
  3  9  1  0  0  0  0
  4  5  1  0  0  0  0
  4 11  1  0  0  0  0
  5 14  1  0  0  0  0
  6 15  1  6  0  0  0
  6 31  1  0  0  0  0
  6  1  1  0  0  0  0
  6  5  1  0  0  0  0
  7  2  1  0  0  0  0
 10  3  1  0  0  0  0
 12  4  1  0  0  0  0
 13  5  1  0  0  0  0
 16  1  1  0  0  0  0
 16 17  1  0  0  0  0
 18 16  1  0  0  0  0
 19 21  1  0  0  0  0
 19 16  1  0  0  0  0
 20 19  1  0  0  0  0
 22 28  1  0  0  0  0
 22 23  1  0  0  0  0
 23 29  1  0  0  0  0
 24 23  2  0  0  0  0
 24 19  1  0  0  0  0
 25 24  1  0  0  0  0
 26 27  1  0  0  0  0
 26 25  2  0  0  0  0
 27 22  2  0  0  0  0
 30 26  1  0  0  0  0
 33 34  1  0  0  0  0
 33 32  2  1  0  0  0
 33 31  1  0  0  0  0
 35 34  1  0  0  0  0
 36 33  1  0  0  0  0
 37 36  1  0  0  0  0
 37 39  1  0  0  0  0
 38 37  1  0  0  0  0
 40 45  1  0  0  0  0
 40 41  2  0  0  0  0
 41 42  1  0  0  0  0
 42 46  1  0  0  0  0
 42 37  1  0  0  0  0
 43 44  1  0  0  0  0
 43 41  1  0  0  0  0
 47 43  1  0  0  0  0
M  END
>  <minimizedAffinity>
-5.14239931

$$$$
