REMARK  Name = 
REMARK  3 active torsions:
REMARK  status: ('A' for Active; 'I' for Inactive)
REMARK    1  A    between atoms: C_1  and  C_11
REMARK    2  A    between atoms: C_5  and  C_13
REMARK    3  A    between atoms: C_18  and  N_37
REMARK                            x       y       z     vdW  Elec       q    Type
REMARK                         _______ _______ _______ _____ _____    ______ ____
ROOT
ATOM      1  C   UNL     1      46.636  33.081  38.792  0.00  0.00    +0.000 C 
ATOM      2  C   UNL     1      45.095  33.153  38.654  0.00  0.00    +0.000 C 
ATOM      3  C   UNL     1      44.761  31.956  37.756  0.00  0.00    +0.000 C 
ATOM      4  C   UNL     1      45.270  32.288  36.383  0.00  0.00    +0.000 C 
ATOM      5  C   UNL     1      46.708  32.628  36.355  0.00  0.00    +0.000 C 
ATOM      6  C   UNL     1      47.245  33.425  37.487  0.00  0.00    +0.000 C 
ATOM      7  H   UNL     1      46.853  32.023  39.073  0.00  0.00    +0.000 HD
ATOM      8  H   UNL     1      44.613  33.066  39.630  0.00  0.00    +0.000 HD
ATOM      9  H   UNL     1      44.795  34.085  38.177  0.00  0.00    +0.000 HD
ATOM     10  H   UNL     1      43.646  31.906  37.702  0.00  0.00    +0.000 HD
ATOM     11  H   UNL     1      45.192  31.039  38.183  0.00  0.00    +0.000 HD
ATOM     12  H   UNL     1      44.605  33.071  35.953  0.00  0.00    +0.000 HD
ATOM     13  H   UNL     1      45.102  31.377  35.761  0.00  0.00    +0.000 HD
ATOM     14  H   UNL     1      46.934  33.162  35.395  0.00  0.00    +0.000 HD
ATOM     15  H   UNL     1      47.276  31.656  36.289  0.00  0.00    +0.000 HD
ATOM     16  H   UNL     1      48.340  33.257  37.467  0.00  0.00    +0.000 HD
ENDROOT
BRANCH   1  21
ATOM     17  C   UNL     1      46.880  34.739  42.084  0.00  0.00    +0.000 A 
ATOM     18  C   UNL     1      48.024  35.470  41.921  0.00  0.00    +0.000 A 
ATOM     19  C   UNL     1      48.788  35.485  40.774  0.00  0.00    +0.000 A 
ATOM     20  C   UNL     1      48.302  34.675  39.750  0.00  0.00    +0.000 A 
ATOM     21  C   UNL     1      47.120  33.910  39.897  0.00  0.00    +0.000 A 
ATOM     22  N   UNL     1      46.437  33.962  41.065  0.00  0.00    +0.000 NA
ATOM     23  H   UNL     1      48.355  36.083  42.750  0.00  0.00    +0.000 HD
ATOM     24  H   UNL     1      49.684  36.049  40.630  0.00  0.00    +0.000 HD
ATOM     25  H   UNL     1      48.883  34.665  38.833  0.00  0.00    +0.000 HD
BRANCH  17  30
ATOM     26  C   UNL     1      45.611  33.958  45.427  0.00  0.00    +0.000 A 
ATOM     27  C   UNL     1      44.694  34.964  45.688  0.00  0.00    +0.000 A 
ATOM     28  C   UNL     1      44.524  35.916  44.688  0.00  0.00    +0.000 A 
ATOM     29  N   UNL     1      45.253  35.809  43.528  0.00  0.00    +0.000 NA
ATOM     30  C   UNL     1      46.138  34.795  43.335  0.00  0.00    +0.000 A 
ATOM     31  N   UNL     1      46.312  33.885  44.273  0.00  0.00    +0.000 NA
ATOM     32  H   UNL     1      45.770  33.194  46.190  0.00  0.00    +0.000 HD
ATOM     33  H   UNL     1      44.147  35.008  46.608  0.00  0.00    +0.000 HD
ATOM     34  H   UNL     1      43.828  36.734  44.812  0.00  0.00    +0.000 HD
ENDBRANCH  17  30
ENDBRANCH   1  21
BRANCH   6  37
ATOM     35  N   UNL     1      45.721  34.429  35.291  0.00  0.00    +0.000 NA
ATOM     36  C   UNL     1      46.018  35.278  36.242  0.00  0.00    +0.000 C 
ATOM     37  N   UNL     1      46.979  34.834  37.195  0.00  0.00    +0.000 N 
ATOM     38  N   UNL     1      45.463  36.578  36.387  0.00  0.00    +0.000 N 
ATOM     39  H   UNL     1      44.508  36.955  36.211  0.00  0.00    +0.000 HD
ATOM     40  H   UNL     1      45.011  34.754  34.587  0.00  0.00    +0.000 HD
ATOM     41  H   UNL     1      47.513  35.602  37.701  0.00  0.00    +0.000 HD
ATOM     42  H   UNL     1      46.075  37.337  36.728  0.00  0.00    +0.000 HD
ENDBRANCH   6  37
TORSDOF 3
