
 OpenBabel03242519313D

 47 49  0  0  0  0  0  0  0  0999 V2000
   47.8850   33.8550   42.8310 C   0  0  0  0  0  0  0  0  0  0  0  0
   48.5710   35.0940   42.6770 C   0  0  0  0  0  0  0  0  0  0  0  0
   49.9360   35.1060   42.3610 C   0  0  0  0  0  0  0  0  0  0  0  0
   50.5420   33.8810   42.2190 N   0  0  0  0  0  0  0  0  0  0  0  0
   49.8360   32.7110   42.3790 C   0  0  0  0  0  0  0  0  0  0  0  0
   48.5530   32.7260   42.6740 N   0  0  0  0  0  0  0  0  0  0  0  0
   48.1640   36.0930   42.7730 H   0  0  0  0  0  0  0  0  0  0  0  0
   50.5010   35.9960   42.2320 H   0  0  0  0  0  0  0  0  0  0  0  0
   46.4640   33.9860   43.1650 C   0  0  0  0  0  0  0  0  0  0  0  0
   45.7560   35.0000   42.4270 C   0  0  0  0  0  0  0  0  0  0  0  0
   45.2990   36.1520   43.2360 C   0  0  0  0  0  0  0  0  0  0  0  0
   44.4300   35.6730   44.4130 C   0  0  0  0  0  0  0  0  0  0  0  0
   44.9840   34.4900   45.1210 C   0  0  0  0  0  0  0  0  0  0  0  0
   46.4220   34.2110   44.7130 C   0  0  0  0  0  0  0  0  0  0  0  0
   46.0020   32.9590   43.0730 H   0  0  0  0  0  0  0  0  0  0  0  0
   46.3440   35.3950   41.5730 H   0  0  0  0  0  0  0  0  0  0  0  0
   44.8320   34.5500   41.9630 H   0  0  0  0  0  0  0  0  0  0  0  0
   46.0530   36.8360   43.6140 H   0  0  0  0  0  0  0  0  0  0  0  0
   44.6100   36.7760   42.6010 H   0  0  0  0  0  0  0  0  0  0  0  0
   44.3070   36.5830   45.0580 H   0  0  0  0  0  0  0  0  0  0  0  0
   43.3960   35.4730   44.0090 H   0  0  0  0  0  0  0  0  0  0  0  0
   44.9900   34.5970   46.2110 H   0  0  0  0  0  0  0  0  0  0  0  0
   44.4050   33.5770   44.8280 H   0  0  0  0  0  0  0  0  0  0  0  0
   46.8050   33.3320   45.2350 H   0  0  0  0  0  0  0  0  0  0  0  0
   47.0530   35.1070   44.8990 H   0  0  0  0  0  0  0  0  0  0  0  0
   50.6490   31.5140   42.1930 C   0  0  0  0  0  0  0  0  0  0  0  0
   51.4610   31.4320   41.1280 N   0  0  0  0  0  0  0  0  0  0  0  0
   52.1150   30.2400   41.1560 C   0  0  0  0  0  0  0  0  0  0  0  0
   51.6900   29.5950   42.2590 N   0  0  0  0  0  0  0  0  0  0  0  0
   50.8000   30.3590   42.8950 N   0  0  0  0  0  0  0  0  0  0  0  0
   52.8470   29.8600   40.4380 H   0  0  0  0  0  0  0  0  0  0  0  0
   52.1150   28.3000   42.7340 C   0  0  0  0  0  0  0  0  0  0  0  0
   51.3210   27.9040   43.4300 H   0  0  0  0  0  0  0  0  0  0  0  0
   52.2270   27.5530   41.9670 H   0  0  0  0  0  0  0  0  0  0  0  0
   53.3380   28.4460   43.5230 C   0  0  0  0  0  3  0  0  0  0  0  0
   53.8030   29.3700   44.3460 C   0  0  0  0  0  3  0  0  0  0  0  0
   55.0940   29.3290   45.1790 C   0  0  0  0  0  0  0  0  0  0  0  0
   55.6530   28.4050   44.9590 H   0  0  0  0  0  0  0  0  0  0  0  0
   54.7330   29.3910   46.2140 H   0  0  0  0  0  0  0  0  0  0  0  0
   57.7080   29.3710   44.0160 N   0  0  0  0  0  0  0  0  0  0  0  0
   57.1060   30.4850   44.1700 C   0  0  0  0  0  0  0  0  0  0  0  0
   55.8700   30.5110   44.9010 N   0  0  0  0  0  0  0  0  0  0  0  0
   57.6210   31.6980   43.6380 N   0  0  0  0  0  0  0  0  0  0  0  0
   57.3650   32.0320   42.6680 H   0  0  0  0  0  0  0  0  0  0  0  0
   57.3130   28.4940   44.4110 H   0  0  0  0  0  0  0  0  0  0  0  0
   55.5630   31.4650   45.2280 H   0  0  0  0  0  0  0  0  0  0  0  0
   58.2100   32.5530   43.7270 H   0  0  0  0  0  0  0  0  0  0  0  0
  1  9  1  0  0  0  0
  2  7  1  0  0  0  0
  2  1  1  0  0  0  0
  3  2  2  0  0  0  0
  4  3  1  0  0  0  0
  4  5  2  0  0  0  0
  5  6  1  0  0  0  0
  6  1  2  0  0  0  0
  8  3  1  0  0  0  0
  9 14  1  0  0  0  0
 10  9  1  0  0  0  0
 10 11  1  0  0  0  0
 11 18  1  0  0  0  0
 11 12  1  0  0  0  0
 12 20  1  0  0  0  0
 12 13  1  0  0  0  0
 13 22  1  0  0  0  0
 14 25  1  0  0  0  0
 14 13  1  0  0  0  0
 14 24  1  0  0  0  0
 15  9  1  0  0  0  0
 16 10  1  0  0  0  0
 17 10  1  0  0  0  0
 19 11  1  0  0  0  0
 21 12  1  0  0  0  0
 23 13  1  0  0  0  0
 26  5  1  0  0  0  0
 26 30  2  0  0  0  0
 27 28  2  0  0  0  0
 27 26  1  0  0  0  0
 28 29  1  0  0  0  0
 29 32  1  0  0  0  0
 29 30  1  0  0  0  0
 31 28  1  0  0  0  0
 32 33  1  0  0  0  0
 32 35  1  0  0  0  0
 34 32  1  0  0  0  0
 35 36  2  0  0  0  0
 36 37  1  0  0  0  0
 37 39  1  0  0  0  0
 38 37  1  0  0  0  0
 40 41  2  0  0  0  0
 40 45  1  0  0  0  0
 41 42  1  0  0  0  0
 42 37  1  0  0  0  0
 42 46  1  0  0  0  0
 43 47  1  0  0  0  0
 43 41  1  0  0  0  0
 44 43  1  0  0  0  0
M  END
>  <minimizedAffinity>
-4.4462781

>  <minimizedRMSD>
1.41038644

$$$$
