
     RDKit          3D

 42 44  0  0  0  0  0  0  0  0999 V2000
   46.8795   34.7392   42.0839 C   0  0  0  0  0  0  0  0  0  0  0  0
   48.0236   35.4703   41.9211 C   0  0  0  0  0  0  0  0  0  0  0  0
   48.7885   35.4846   40.7736 C   0  0  0  0  0  0  0  0  0  0  0  0
   48.3019   34.6745   39.7499 C   0  0  0  0  0  0  0  0  0  0  0  0
   47.1203   33.9098   39.8971 C   0  0  0  0  0  0  0  0  0  0  0  0
   46.4374   33.9622   41.0649 N   0  0  0  0  0  0  0  0  0  0  0  0
   45.6111   33.9578   45.4268 C   0  0  0  0  0  0  0  0  0  0  0  0
   44.6940   34.9642   45.6884 C   0  0  0  0  0  0  0  0  0  0  0  0
   44.5237   35.9161   44.6875 C   0  0  0  0  0  0  0  0  0  0  0  0
   45.2534   35.8086   43.5282 N   0  0  0  0  0  0  0  0  0  0  0  0
   46.1381   34.7947   43.3353 C   0  0  0  0  0  0  0  0  0  0  0  0
   46.3115   33.8851   44.2725 N   0  0  0  0  0  0  0  0  0  0  0  0
   46.6361   33.0815   38.7925 C   0  0  1  0  0  0  0  0  0  0  0  0
   45.0946   33.1533   38.6545 C   0  0  0  0  0  0  0  0  0  0  0  0
   44.7612   31.9556   37.7557 C   0  0  0  0  0  0  0  0  0  0  0  0
   45.2697   32.2880   36.3828 C   0  0  0  0  0  0  0  0  0  0  0  0
   46.7080   32.6283   36.3555 C   0  0  0  0  0  0  0  0  0  0  0  0
   47.2454   33.4252   37.4868 C   0  0  1  0  0  0  0  0  0  0  0  0
   48.3552   36.0825   42.7502 H   0  0  0  0  0  0  0  0  0  0  0  0
   49.6844   36.0494   40.6295 H   0  0  0  0  0  0  0  0  0  0  0  0
   48.8831   34.6650   38.8326 H   0  0  0  0  0  0  0  0  0  0  0  0
   45.7695   33.1941   46.1904 H   0  0  0  0  0  0  0  0  0  0  0  0
   44.1466   35.0081   46.6082 H   0  0  0  0  0  0  0  0  0  0  0  0
   43.8279   36.7338   44.8119 H   0  0  0  0  0  0  0  0  0  0  0  0
   46.8532   32.0235   39.0733 H   0  0  0  0  0  0  0  0  0  0  0  0
   44.6134   33.0660   39.6296 H   0  0  0  0  0  0  0  0  0  0  0  0
   44.7948   34.0850   38.1772 H   0  0  0  0  0  0  0  0  0  0  0  0
   43.6459   31.9058   37.7016 H   0  0  0  0  0  0  0  0  0  0  0  0
   45.1916   31.0391   38.1834 H   0  0  0  0  0  0  0  0  0  0  0  0
   44.6051   33.0710   35.9525 H   0  0  0  0  0  0  0  0  0  0  0  0
   45.1015   31.3771   35.7615 H   0  0  0  0  0  0  0  0  0  0  0  0
   46.9337   33.1616   35.3954 H   0  0  0  0  0  0  0  0  0  0  0  0
   47.2758   31.6563   36.2887 H   0  0  0  0  0  0  0  0  0  0  0  0
   48.3398   33.2571   37.4670 H   0  0  0  0  0  0  0  0  0  0  0  0
   45.7205   34.4288   35.2911 N   0  0  0  0  0  0  0  0  0  0  0  0
   46.0179   35.2782   36.2423 C   0  0  0  0  0  0  0  0  0  0  0  0
   46.9794   34.8338   37.1947 N   0  0  0  0  0  0  0  0  0  0  0  0
   45.4632   36.5779   36.3869 N   0  0  0  0  0  0  0  0  0  0  0  0
   44.5076   36.9552   36.2109 H   0  0  0  0  0  0  0  0  0  0  0  0
   45.0108   34.7543   34.5866 H   0  0  0  0  0  0  0  0  0  0  0  0
   47.5134   35.6019   37.7009 H   0  0  0  0  0  0  0  0  0  0  0  0
   46.0751   37.3370   36.7283 H   0  0  0  0  0  0  0  0  0  0  0  0
  1 11  1  0
  2  1  2  0
  3  2  1  0
  4  5  1  0
  4  3  2  0
  5  6  2  0
  6  1  1  0
  7  8  2  0
  9  8  1  0
 10  9  2  0
 11 10  1  0
 11 12  2  0
 12  7  1  0
 13  5  1  0
 14 13  1  0
 15 14  1  0
 16 15  1  0
 17 16  1  0
 17 18  1  0
 18 13  1  0
  2 19  1  0
  3 20  1  0
  4 21  1  0
  7 22  1  0
  8 23  1  0
  9 24  1  0
 13 25  1  1
 14 26  1  0
 14 27  1  0
 15 28  1  0
 15 29  1  0
 16 30  1  0
 16 31  1  0
 17 32  1  0
 17 33  1  0
 18 34  1  1
 35 36  2  3
 36 37  1  0
 36 38  1  0
 38 39  1  0
 35 40  1  0
 37 41  1  0
 38 42  1  0
 18 37  1  0
M  ISO  8  19  14  20  14  21  14  22  14  23  14  24  14  25  13  26  13
M  ISO  8  27  13  28  13  29  13  30  13  31  13  32  13  33  13  34  13
M  ISO  1  39   5
M  END
>  <DihAtoms>  (1) 
16,17,36,35

>  <DihDeg>  (1) 
-56.722356817789695

$$$$
