
 OpenBabel03252508253D

 40 43  0  0  1  0  0  0  0  0999 V2000
   46.3560   32.4630   45.9610 C   0  0  1  0  0  0  0  0  0  0  0  0
   46.9680   32.5860   47.2920 C   0  0  0  0  0  0  0  0  0  0  0  0
   45.5310   31.9740   47.0500 C   0  0  2  0  0  0  0  0  0  0  0  0
   47.0990   31.8420   45.3510 H   0  0  0  0  0  0  0  0  0  0  0  0
   47.0320   33.5540   47.8130 H   0  0  0  0  0  0  0  0  0  0  0  0
   47.6090   31.8210   47.7520 H   0  0  0  0  0  0  0  0  0  0  0  0
   44.9120   32.6440   47.7160 H   0  0  0  0  0  0  0  0  0  0  0  0
   45.2820   30.5620   47.3580 C   0  0  0  0  0  0  0  0  0  0  0  0
   45.1250   29.9960   48.5850 C   0  0  0  0  0  0  0  0  0  0  0  0
   45.0110   28.6430   48.8460 C   0  0  0  0  0  0  0  0  0  0  0  0
   45.0650   27.7860   47.7340 C   0  0  0  0  0  0  0  0  0  0  0  0
   45.2240   28.3380   46.4630 C   0  0  0  0  0  0  0  0  0  0  0  0
   45.2110   27.4620   45.3950 C   0  0  0  0  0  0  0  0  0  0  0  0
   45.2960   27.9700   44.1050 C   0  0  0  0  0  0  0  0  0  0  0  0
   45.3890   29.3300   43.8900 C   0  0  0  0  0  0  0  0  0  0  0  0
   45.4010   30.1570   44.9890 C   0  0  0  0  0  0  0  0  0  0  0  0
   45.3270   29.6990   46.2910 C   0  0  0  0  0  0  0  0  0  0  0  0
   45.0880   30.7020   49.4150 H   0  0  0  0  0  0  0  0  0  0  0  0
   44.8870   28.2790   49.8500 H   0  0  0  0  0  0  0  0  0  0  0  0
   44.9850   26.7200   47.8850 H   0  0  0  0  0  0  0  0  0  0  0  0
   45.1350   26.3910   45.5930 H   0  0  0  0  0  0  0  0  0  0  0  0
   45.2790   27.1830   43.3360 H   0  0  0  0  0  0  0  0  0  0  0  0
   45.4410   29.5240   42.8400 H   0  0  0  0  0  0  0  0  0  0  0  0
   45.3910   31.1230   44.5740 H   0  0  0  0  0  0  0  0  0  0  0  0
   44.6200   35.6030   45.0930 C   0  0  0  0  0  0  0  0  0  0  0  0
   45.0790   35.8430   43.7490 C   0  0  0  0  0  0  0  0  0  0  0  0
   45.9870   34.9100   43.1960 C   0  0  0  0  0  0  0  0  0  0  0  0
   46.3710   33.8680   43.9300 N   0  0  0  0  0  0  0  0  0  0  0  0
   45.9150   33.6710   45.2030 C   0  0  0  0  0  0  0  0  0  0  0  0
   45.0620   34.5200   45.7660 N   0  0  0  0  0  0  0  0  0  0  0  0
   43.9260   36.3370   45.4880 H   0  0  0  0  0  0  0  0  0  0  0  0
   44.7290   36.6860   43.2230 H   0  0  0  0  0  0  0  0  0  0  0  0
   44.6850   34.4680   40.6640 N   0  0  0  0  0  0  0  0  0  0  0  0
   45.9960   34.4280   40.7310 C   0  0  0  0  0  0  0  0  0  0  0  0
   46.4950   35.0710   41.8800 N   0  0  0  0  0  0  0  0  0  0  0  0
   46.9240   33.8330   39.8060 N   0  0  0  0  0  0  0  0  0  0  0  0
   47.3170   34.0060   38.8440 H   0  0  0  0  0  0  0  0  0  0  0  0
   44.2520   34.0090   39.8380 H   0  0  0  0  0  0  0  0  0  0  0  0
   47.3280   35.7270   41.7580 H   0  0  0  0  0  0  0  0  0  0  0  0
   47.4590   32.9390   40.0160 H   0  0  0  0  0  0  0  0  0  0  0  0
  1  4  1  6  0  0  0
  1  3  1  0  0  0  0
  1  2  1  0  0  0  0
  2  6  1  0  0  0  0
  2  5  1  0  0  0  0
  3  2  1  0  0  0  0
  3  8  1  0  0  0  0
  3  7  1  1  0  0  0
  8  9  1  0  0  0  0
  9 10  2  0  0  0  0
  9 18  1  0  0  0  0
 10 19  1  0  0  0  0
 11 20  1  0  0  0  0
 11 10  1  0  0  0  0
 12 11  2  0  0  0  0
 13 21  1  0  0  0  0
 13 12  1  0  0  0  0
 14 13  2  0  0  0  0
 15 14  1  0  0  0  0
 15 16  2  0  0  0  0
 16 17  1  0  0  0  0
 17 12  1  0  0  0  0
 17  8  2  0  0  0  0
 22 14  1  0  0  0  0
 23 15  1  0  0  0  0
 24 16  1  0  0  0  0
 25 31  1  0  0  0  0
 25 30  1  0  0  0  0
 26 25  2  0  0  0  0
 27 26  1  0  0  0  0
 27 28  2  0  0  0  0
 28 29  1  0  0  0  0
 29 30  2  0  0  0  0
 29  1  1  0  0  0  0
 32 26  1  0  0  0  0
 33 34  2  0  0  0  0
 34 35  1  0  0  0  0
 35 27  1  0  0  0  0
 36 40  1  0  0  0  0
 36 34  1  0  0  0  0
 37 36  1  0  0  0  0
 38 33  1  0  0  0  0
 39 35  1  0  0  0  0
M  END
>  <minimizedAffinity>
-5.31134892

>  <minimizedRMSD>
0.343132317

$$$$
