
 OpenBabel03252508253D

 40 43  0  0  1  0  0  0  0  0999 V2000
   46.5730   32.4830   45.7430 C   0  0  1  0  0  0  0  0  0  0  0  0
   47.0310   32.6860   47.1240 C   0  0  0  0  0  0  0  0  0  0  0  0
   45.6300   32.0540   46.7600 C   0  0  2  0  0  0  0  0  0  0  0  0
   47.3790   31.8300   45.2580 H   0  0  0  0  0  0  0  0  0  0  0  0
   47.0380   33.6840   47.5920 H   0  0  0  0  0  0  0  0  0  0  0  0
   47.6150   31.9530   47.6980 H   0  0  0  0  0  0  0  0  0  0  0  0
   44.9410   32.7590   47.3100 H   0  0  0  0  0  0  0  0  0  0  0  0
   45.3460   30.6610   47.1200 C   0  0  0  0  0  0  0  0  0  0  0  0
   45.2280   30.1350   48.3690 C   0  0  0  0  0  0  0  0  0  0  0  0
   45.0780   28.7950   48.6750 C   0  0  0  0  0  0  0  0  0  0  0  0
   45.0490   27.9070   47.5880 C   0  0  0  0  0  0  0  0  0  0  0  0
   45.1660   28.4170   46.2950 C   0  0  0  0  0  0  0  0  0  0  0  0
   45.0700   27.5130   45.2550 C   0  0  0  0  0  0  0  0  0  0  0  0
   45.1120   27.9800   43.9480 C   0  0  0  0  0  0  0  0  0  0  0  0
   45.2430   29.3290   43.6890 C   0  0  0  0  0  0  0  0  0  0  0  0
   45.3360   30.1860   44.7610 C   0  0  0  0  0  0  0  0  0  0  0  0
   45.3080   29.7680   46.0780 C   0  0  0  0  0  0  0  0  0  0  0  0
   45.2560   30.8660   49.1790 H   0  0  0  0  0  0  0  0  0  0  0  0
   44.9900   28.4650   49.6950 H   0  0  0  0  0  0  0  0  0  0  0  0
   44.9380   26.8490   47.7740 H   0  0  0  0  0  0  0  0  0  0  0  0
   44.9660   26.4510   45.4880 H   0  0  0  0  0  0  0  0  0  0  0  0
   45.0300   27.1740   43.2050 H   0  0  0  0  0  0  0  0  0  0  0  0
   45.2510   29.4920   42.6320 H   0  0  0  0  0  0  0  0  0  0  0  0
   45.3410   31.1400   44.3190 H   0  0  0  0  0  0  0  0  0  0  0  0
   44.8020   35.4210   44.3810 C   0  0  0  0  0  0  0  0  0  0  0  0
   45.5740   35.7210   43.2010 C   0  0  0  0  0  0  0  0  0  0  0  0
   46.6910   34.8980   42.9290 C   0  0  0  0  0  0  0  0  0  0  0  0
   46.9770   33.8980   43.7600 N   0  0  0  0  0  0  0  0  0  0  0  0
   46.2220   33.6410   44.8700 C   0  0  0  0  0  0  0  0  0  0  0  0
   45.1630   34.3870   45.1690 N   0  0  0  0  0  0  0  0  0  0  0  0
   43.9530   36.0700   44.5610 H   0  0  0  0  0  0  0  0  0  0  0  0
   45.2880   36.5250   42.5840 H   0  0  0  0  0  0  0  0  0  0  0  0
   46.2670   34.1290   40.1850 N   0  0  0  0  0  0  0  0  0  0  0  0
   47.4890   34.3610   40.6080 C   0  0  0  0  0  0  0  0  0  0  0  0
   47.5100   35.1250   41.7920 N   0  0  0  0  0  0  0  0  0  0  0  0
   48.7360   33.9460   40.0230 N   0  0  0  0  0  0  0  0  0  0  0  0
   49.3450   34.1700   39.1920 H   0  0  0  0  0  0  0  0  0  0  0  0
   46.1810   33.5690   39.3130 H   0  0  0  0  0  0  0  0  0  0  0  0
   48.2030   35.9340   41.8460 H   0  0  0  0  0  0  0  0  0  0  0  0
   49.3490   33.1870   40.4440 H   0  0  0  0  0  0  0  0  0  0  0  0
  1  4  1  6  0  0  0
  1  3  1  0  0  0  0
  1  2  1  0  0  0  0
  2  5  1  0  0  0  0
  2  6  1  0  0  0  0
  3  8  1  0  0  0  0
  3  2  1  0  0  0  0
  3  7  1  1  0  0  0
  8  9  1  0  0  0  0
  9 10  2  0  0  0  0
  9 18  1  0  0  0  0
 10 19  1  0  0  0  0
 11 20  1  0  0  0  0
 11 10  1  0  0  0  0
 12 11  2  0  0  0  0
 13 21  1  0  0  0  0
 13 12  1  0  0  0  0
 14 13  2  0  0  0  0
 15 14  1  0  0  0  0
 15 16  2  0  0  0  0
 16 17  1  0  0  0  0
 17 12  1  0  0  0  0
 17  8  2  0  0  0  0
 22 14  1  0  0  0  0
 23 15  1  0  0  0  0
 24 16  1  0  0  0  0
 25 31  1  0  0  0  0
 25 30  1  0  0  0  0
 26 25  2  0  0  0  0
 27 26  1  0  0  0  0
 27 28  2  0  0  0  0
 28 29  1  0  0  0  0
 29 30  2  0  0  0  0
 29  1  1  0  0  0  0
 32 26  1  0  0  0  0
 33 34  2  0  0  0  0
 34 35  1  0  0  0  0
 35 39  1  0  0  0  0
 35 27  1  0  0  0  0
 36 40  1  0  0  0  0
 36 34  1  0  0  0  0
 37 36  1  0  0  0  0
 38 33  1  0  0  0  0
M  END
>  <minimizedAffinity>
-5.52555132

>  <minimizedRMSD>
0.590550542

$$$$
