
 OpenBabel03252508253D

 40 43  0  0  1  0  0  0  0  0999 V2000
   46.4450   32.5280   45.9160 C   0  0  1  0  0  0  0  0  0  0  0  0
   46.9860   32.7050   47.2710 C   0  0  0  0  0  0  0  0  0  0  0  0
   45.5630   32.0840   46.9790 C   0  0  2  0  0  0  0  0  0  0  0  0
   47.2170   31.8820   45.3720 H   0  0  0  0  0  0  0  0  0  0  0  0
   47.0260   33.6940   47.7550 H   0  0  0  0  0  0  0  0  0  0  0  0
   47.6010   31.9590   47.7950 H   0  0  0  0  0  0  0  0  0  0  0  0
   44.9120   32.7810   47.5830 H   0  0  0  0  0  0  0  0  0  0  0  0
   45.2950   30.6850   47.3310 C   0  0  0  0  0  0  0  0  0  0  0  0
   45.1640   30.1540   48.5760 C   0  0  0  0  0  0  0  0  0  0  0  0
   45.0300   28.8110   48.8760 C   0  0  0  0  0  0  0  0  0  0  0  0
   45.0330   27.9250   47.7850 C   0  0  0  0  0  0  0  0  0  0  0  0
   45.1650   28.4420   46.4960 C   0  0  0  0  0  0  0  0  0  0  0  0
   45.1010   27.5400   45.4510 C   0  0  0  0  0  0  0  0  0  0  0  0
   45.1580   28.0120   44.1470 C   0  0  0  0  0  0  0  0  0  0  0  0
   45.2720   29.3640   43.8940 C   0  0  0  0  0  0  0  0  0  0  0  0
   45.3330   30.2180   44.9710 C   0  0  0  0  0  0  0  0  0  0  0  0
   45.2890   29.7950   46.2850 C   0  0  0  0  0  0  0  0  0  0  0  0
   45.1660   30.8820   49.3880 H   0  0  0  0  0  0  0  0  0  0  0  0
   44.9300   28.4760   49.8920 H   0  0  0  0  0  0  0  0  0  0  0  0
   44.9360   26.8650   47.9660 H   0  0  0  0  0  0  0  0  0  0  0  0
   45.0090   26.4750   45.6790 H   0  0  0  0  0  0  0  0  0  0  0  0
   45.1010   27.2080   43.4000 H   0  0  0  0  0  0  0  0  0  0  0  0
   45.2950   29.5310   42.8380 H   0  0  0  0  0  0  0  0  0  0  0  0
   45.3300   31.1740   44.5320 H   0  0  0  0  0  0  0  0  0  0  0  0
   44.6610   35.5460   44.7620 C   0  0  0  0  0  0  0  0  0  0  0  0
   45.3040   35.8170   43.5010 C   0  0  0  0  0  0  0  0  0  0  0  0
   46.3450   34.9450   43.1030 C   0  0  0  0  0  0  0  0  0  0  0  0
   46.6800   33.9310   43.8970 N   0  0  0  0  0  0  0  0  0  0  0  0
   46.0470   33.7040   45.0870 C   0  0  0  0  0  0  0  0  0  0  0  0
   45.0640   34.4950   45.5050 N   0  0  0  0  0  0  0  0  0  0  0  0
   43.8680   36.2320   45.0370 H   0  0  0  0  0  0  0  0  0  0  0  0
   44.9840   36.6340   42.9190 H   0  0  0  0  0  0  0  0  0  0  0  0
   47.1900   33.0020   41.1510 N   0  0  0  0  0  0  0  0  0  0  0  0
   47.8040   34.1610   41.2140 C   0  0  0  0  0  0  0  0  0  0  0  0
   47.0370   35.1400   41.8790 N   0  0  0  0  0  0  0  0  0  0  0  0
   49.1000   34.5210   40.7020 N   0  0  0  0  0  0  0  0  0  0  0  0
   49.5740   34.7030   39.7800 H   0  0  0  0  0  0  0  0  0  0  0  0
   47.7030   32.2350   40.6720 H   0  0  0  0  0  0  0  0  0  0  0  0
   46.9760   36.1060   41.4340 H   0  0  0  0  0  0  0  0  0  0  0  0
   49.9420   34.6880   41.3280 H   0  0  0  0  0  0  0  0  0  0  0  0
  1  4  1  6  0  0  0
  1  3  1  0  0  0  0
  1  2  1  0  0  0  0
  2  5  1  0  0  0  0
  2  6  1  0  0  0  0
  3  2  1  0  0  0  0
  3  8  1  0  0  0  0
  3  7  1  1  0  0  0
  8  9  1  0  0  0  0
  9 10  2  0  0  0  0
  9 18  1  0  0  0  0
 10 19  1  0  0  0  0
 11 20  1  0  0  0  0
 11 10  1  0  0  0  0
 12 11  2  0  0  0  0
 13 21  1  0  0  0  0
 13 12  1  0  0  0  0
 14 13  2  0  0  0  0
 15 14  1  0  0  0  0
 15 16  2  0  0  0  0
 16 17  1  0  0  0  0
 17 12  1  0  0  0  0
 17  8  2  0  0  0  0
 22 14  1  0  0  0  0
 23 15  1  0  0  0  0
 24 16  1  0  0  0  0
 25 31  1  0  0  0  0
 25 30  1  0  0  0  0
 26 25  2  0  0  0  0
 27 26  1  0  0  0  0
 27 28  2  0  0  0  0
 28 29  1  0  0  0  0
 29 30  2  0  0  0  0
 29  1  1  0  0  0  0
 32 26  1  0  0  0  0
 33 34  2  0  0  0  0
 34 35  1  0  0  0  0
 35 27  1  0  0  0  0
 36 34  1  0  0  0  0
 36 40  1  0  0  0  0
 37 36  1  0  0  0  0
 38 33  1  0  0  0  0
 39 35  1  0  0  0  0
M  END
>  <minimizedAffinity>
-5.35530233

>  <minimizedRMSD>
0.249541029

$$$$
