
 OpenBabel03242519313D

 47 49  0  0  0  0  0  0  0  0999 V2000
   47.9120   33.8390   42.8530 C   0  0  0  0  0  0  0  0  0  0  0  0
   48.5790   35.0820   42.6470 C   0  0  0  0  0  0  0  0  0  0  0  0
   49.9440   35.1010   42.3360 C   0  0  0  0  0  0  0  0  0  0  0  0
   50.5710   33.8820   42.2490 N   0  0  0  0  0  0  0  0  0  0  0  0
   49.8830   32.7080   42.4580 C   0  0  0  0  0  0  0  0  0  0  0  0
   48.5990   32.7150   42.7480 N   0  0  0  0  0  0  0  0  0  0  0  0
   48.1550   36.0760   42.6980 H   0  0  0  0  0  0  0  0  0  0  0  0
   50.4960   35.9950   42.1700 H   0  0  0  0  0  0  0  0  0  0  0  0
   46.4880   33.9610   43.1760 C   0  0  0  0  0  0  0  0  0  0  0  0
   45.7770   34.9650   42.4250 C   0  0  0  0  0  0  0  0  0  0  0  0
   45.3060   36.1190   43.2220 C   0  0  0  0  0  0  0  0  0  0  0  0
   44.4320   35.6420   44.3970 C   0  0  0  0  0  0  0  0  0  0  0  0
   44.9900   34.4680   45.1170 C   0  0  0  0  0  0  0  0  0  0  0  0
   46.4330   34.1970   44.7220 C   0  0  0  0  0  0  0  0  0  0  0  0
   46.0340   32.9300   43.0880 H   0  0  0  0  0  0  0  0  0  0  0  0
   46.3680   35.3580   41.5730 H   0  0  0  0  0  0  0  0  0  0  0  0
   44.8600   34.5040   41.9580 H   0  0  0  0  0  0  0  0  0  0  0  0
   46.0520   36.8110   43.6010 H   0  0  0  0  0  0  0  0  0  0  0  0
   44.6160   36.7320   42.5780 H   0  0  0  0  0  0  0  0  0  0  0  0
   44.2970   36.5550   45.0340 H   0  0  0  0  0  0  0  0  0  0  0  0
   43.4020   35.4300   43.9870 H   0  0  0  0  0  0  0  0  0  0  0  0
   44.9870   34.5830   46.2070 H   0  0  0  0  0  0  0  0  0  0  0  0
   44.4200   33.5490   44.8270 H   0  0  0  0  0  0  0  0  0  0  0  0
   46.8180   33.3250   45.2530 H   0  0  0  0  0  0  0  0  0  0  0  0
   47.0560   35.1000   44.9060 H   0  0  0  0  0  0  0  0  0  0  0  0
   50.7160   31.5180   42.3280 C   0  0  0  0  0  0  0  0  0  0  0  0
   51.3280   31.2710   41.1600 N   0  0  0  0  0  0  0  0  0  0  0  0
   52.0430   30.1190   41.2650 C   0  0  0  0  0  0  0  0  0  0  0  0
   51.8590   29.6660   42.5200 N   0  0  0  0  0  0  0  0  0  0  0  0
   51.0550   30.5080   43.1730 N   0  0  0  0  0  0  0  0  0  0  0  0
   52.6550   29.6370   40.4980 H   0  0  0  0  0  0  0  0  0  0  0  0
   52.4340   28.4860   43.1180 C   0  0  0  0  0  0  0  0  0  0  0  0
   51.7980   28.1950   44.0020 H   0  0  0  0  0  0  0  0  0  0  0  0
   52.4550   27.6200   42.4780 H   0  0  0  0  0  0  0  0  0  0  0  0
   53.7660   28.8000   43.6370 C   0  0  0  0  0  3  0  0  0  0  0  0
   54.2230   29.5990   44.5860 C   0  0  0  0  0  3  0  0  0  0  0  0
   55.6730   29.7500   45.0740 C   0  0  0  0  0  0  0  0  0  0  0  0
   55.6890   29.8820   46.1680 H   0  0  0  0  0  0  0  0  0  0  0  0
   56.0410   30.6220   44.5180 H   0  0  0  0  0  0  0  0  0  0  0  0
   56.5370   27.6180   46.7730 N   0  0  0  0  0  0  0  0  0  0  0  0
   56.6990   27.4800   45.5150 C   0  0  0  0  0  0  0  0  0  0  0  0
   56.4310   28.5980   44.6560 N   0  0  0  0  0  0  0  0  0  0  0  0
   57.1340   26.2540   44.9440 N   0  0  0  0  0  0  0  0  0  0  0  0
   56.4480   25.5100   44.6370 H   0  0  0  0  0  0  0  0  0  0  0  0
   56.2160   28.5220   47.1730 H   0  0  0  0  0  0  0  0  0  0  0  0
   56.8330   28.5210   43.6840 H   0  0  0  0  0  0  0  0  0  0  0  0
   57.8960   25.6190   44.6240 H   0  0  0  0  0  0  0  0  0  0  0  0
  1  9  1  0  0  0  0
  2  7  1  0  0  0  0
  2  1  2  0  0  0  0
  3  2  1  0  0  0  0
  4  3  2  0  0  0  0
  4  5  1  0  0  0  0
  5  6  2  0  0  0  0
  6  1  1  0  0  0  0
  8  3  1  0  0  0  0
  9 14  1  0  0  0  0
 10  9  1  0  0  0  0
 10 11  1  0  0  0  0
 11 18  1  0  0  0  0
 11 12  1  0  0  0  0
 12 20  1  0  0  0  0
 12 13  1  0  0  0  0
 13 22  1  0  0  0  0
 14 25  1  0  0  0  0
 14 13  1  0  0  0  0
 14 24  1  0  0  0  0
 15  9  1  0  0  0  0
 16 10  1  0  0  0  0
 17 10  1  0  0  0  0
 19 11  1  0  0  0  0
 21 12  1  0  0  0  0
 23 13  1  0  0  0  0
 26  5  1  0  0  0  0
 26 30  2  0  0  0  0
 27 28  2  0  0  0  0
 27 26  1  0  0  0  0
 28 29  1  0  0  0  0
 29 32  1  0  0  0  0
 29 30  1  0  0  0  0
 31 28  1  0  0  0  0
 32 35  1  0  0  0  0
 32 33  1  0  0  0  0
 34 32  1  0  0  0  0
 35 36  2  0  0  0  0
 36 37  1  0  0  0  0
 37 38  1  0  0  0  0
 39 37  1  0  0  0  0
 40 45  1  0  0  0  0
 41 40  2  0  0  0  0
 42 37  1  0  0  0  0
 42 41  1  0  0  0  0
 43 41  1  0  0  0  0
 44 43  1  0  0  0  0
 46 42  1  0  0  0  0
 47 43  1  0  0  0  0
M  END
>  <minimizedAffinity>
-3.84442472

>  <minimizedRMSD>
0.890488625

$$$$
