
 OpenBabel03252508253D

 40 43  0  0  1  0  0  0  0  0999 V2000
   46.4640   32.5250   45.8170 C   0  0  1  0  0  0  0  0  0  0  0  0
   46.9890   32.6780   47.1810 C   0  0  0  0  0  0  0  0  0  0  0  0
   45.5740   32.0520   46.8620 C   0  0  2  0  0  0  0  0  0  0  0  0
   47.2480   31.8960   45.2690 H   0  0  0  0  0  0  0  0  0  0  0  0
   47.0150   33.6580   47.6860 H   0  0  0  0  0  0  0  0  0  0  0  0
   47.6040   31.9270   47.6970 H   0  0  0  0  0  0  0  0  0  0  0  0
   44.9110   32.7310   47.4720 H   0  0  0  0  0  0  0  0  0  0  0  0
   45.3140   30.6450   47.1820 C   0  0  0  0  0  0  0  0  0  0  0  0
   45.1760   30.0870   48.4140 C   0  0  0  0  0  0  0  0  0  0  0  0
   45.0500   28.7360   48.6850 C   0  0  0  0  0  0  0  0  0  0  0  0
   45.0700   27.8740   47.5770 C   0  0  0  0  0  0  0  0  0  0  0  0
   45.2090   28.4180   46.3000 C   0  0  0  0  0  0  0  0  0  0  0  0
   45.1610   27.5370   45.2360 C   0  0  0  0  0  0  0  0  0  0  0  0
   45.2260   28.0370   43.9430 C   0  0  0  0  0  0  0  0  0  0  0  0
   45.3310   29.3940   43.7180 C   0  0  0  0  0  0  0  0  0  0  0  0
   45.3770   30.2260   44.8130 C   0  0  0  0  0  0  0  0  0  0  0  0
   45.3250   29.7760   46.1180 C   0  0  0  0  0  0  0  0  0  0  0  0
   45.1660   30.7980   49.2420 H   0  0  0  0  0  0  0  0  0  0  0  0
   44.9440   28.3800   49.6940 H   0  0  0  0  0  0  0  0  0  0  0  0
   44.9790   26.8090   47.7350 H   0  0  0  0  0  0  0  0  0  0  0  0
   45.0760   26.4680   45.4410 H   0  0  0  0  0  0  0  0  0  0  0  0
   45.1820   27.2470   43.1780 H   0  0  0  0  0  0  0  0  0  0  0  0
   45.3630   29.5830   42.6670 H   0  0  0  0  0  0  0  0  0  0  0  0
   45.3700   31.1910   44.3940 H   0  0  0  0  0  0  0  0  0  0  0  0
   44.6640   35.5480   44.7010 C   0  0  0  0  0  0  0  0  0  0  0  0
   45.3230   35.8520   43.4560 C   0  0  0  0  0  0  0  0  0  0  0  0
   46.3800   35.0010   43.0560 C   0  0  0  0  0  0  0  0  0  0  0  0
   46.7140   33.9740   43.8330 N   0  0  0  0  0  0  0  0  0  0  0  0
   46.0660   33.7140   45.0080 C   0  0  0  0  0  0  0  0  0  0  0  0
   45.0670   34.4850   45.4270 N   0  0  0  0  0  0  0  0  0  0  0  0
   43.8580   36.2180   44.9790 H   0  0  0  0  0  0  0  0  0  0  0  0
   45.0030   36.6790   42.8870 H   0  0  0  0  0  0  0  0  0  0  0  0
   46.3340   33.5010   40.5960 N   0  0  0  0  0  0  0  0  0  0  0  0
   47.3760   34.2510   40.8750 C   0  0  0  0  0  0  0  0  0  0  0  0
   47.0880   35.2300   41.8470 N   0  0  0  0  0  0  0  0  0  0  0  0
   48.7030   34.1860   40.3230 N   0  0  0  0  0  0  0  0  0  0  0  0
   49.2100   34.4080   39.4250 H   0  0  0  0  0  0  0  0  0  0  0  0
   46.4800   32.7590   39.8840 H   0  0  0  0  0  0  0  0  0  0  0  0
   47.4360   36.2220   41.6690 H   0  0  0  0  0  0  0  0  0  0  0  0
   49.5390   33.8220   40.8680 H   0  0  0  0  0  0  0  0  0  0  0  0
  1  4  1  6  0  0  0
  1  3  1  0  0  0  0
  1  2  1  0  0  0  0
  2  5  1  0  0  0  0
  2  6  1  0  0  0  0
  3  2  1  0  0  0  0
  3  8  1  0  0  0  0
  3  7  1  1  0  0  0
  8  9  1  0  0  0  0
  9 10  2  0  0  0  0
  9 18  1  0  0  0  0
 10 19  1  0  0  0  0
 11 20  1  0  0  0  0
 11 10  1  0  0  0  0
 12 11  2  0  0  0  0
 13 21  1  0  0  0  0
 13 12  1  0  0  0  0
 14 13  2  0  0  0  0
 15 14  1  0  0  0  0
 15 16  2  0  0  0  0
 16 17  1  0  0  0  0
 17 12  1  0  0  0  0
 17  8  2  0  0  0  0
 22 14  1  0  0  0  0
 23 15  1  0  0  0  0
 24 16  1  0  0  0  0
 25 31  1  0  0  0  0
 25 30  1  0  0  0  0
 26 25  2  0  0  0  0
 27 26  1  0  0  0  0
 27 28  2  0  0  0  0
 28 29  1  0  0  0  0
 29 30  2  0  0  0  0
 29  1  1  0  0  0  0
 32 26  1  0  0  0  0
 33 34  2  0  0  0  0
 34 35  1  0  0  0  0
 35 27  1  0  0  0  0
 36 40  1  0  0  0  0
 36 34  1  0  0  0  0
 37 36  1  0  0  0  0
 38 33  1  0  0  0  0
 39 35  1  0  0  0  0
M  END
>  <minimizedAffinity>
-5.33799934

>  <minimizedRMSD>
0.414022148

$$$$
