
 OpenBabel03252508243D

 40 43  0  0  1  0  0  0  0  0999 V2000
   46.9420   32.4820   45.9540 C   0  0  1  0  0  0  0  0  0  0  0  0
   46.9580   32.4650   47.4230 C   0  0  0  0  0  0  0  0  0  0  0  0
   46.0990   31.4640   46.5530 C   0  0  2  0  0  0  0  0  0  0  0  0
   48.0360   32.3500   45.6450 H   0  0  0  0  0  0  0  0  0  0  0  0
   46.4200   33.2210   48.0180 H   0  0  0  0  0  0  0  0  0  0  0  0
   47.6730   31.8900   48.0280 H   0  0  0  0  0  0  0  0  0  0  0  0
   45.0690   31.6700   46.9680 H   0  0  0  0  0  0  0  0  0  0  0  0
   46.3990   30.0290   46.5910 C   0  0  0  0  0  0  0  0  0  0  0  0
   47.2190   29.3750   47.4570 C   0  0  0  0  0  0  0  0  0  0  0  0
   47.5730   28.0400   47.3900 C   0  0  0  0  0  0  0  0  0  0  0  0
   47.0290   27.3040   46.3250 C   0  0  0  0  0  0  0  0  0  0  0  0
   46.1830   27.9470   45.4210 C   0  0  0  0  0  0  0  0  0  0  0  0
   45.6230   27.1690   44.4260 C   0  0  0  0  0  0  0  0  0  0  0  0
   44.7210   27.7480   43.5440 C   0  0  0  0  0  0  0  0  0  0  0  0
   44.3820   29.0800   43.6600 C   0  0  0  0  0  0  0  0  0  0  0  0
   44.9690   29.8100   44.6670 C   0  0  0  0  0  0  0  0  0  0  0  0
   45.8790   29.2810   45.5630 C   0  0  0  0  0  0  0  0  0  0  0  0
   47.6150   29.9900   48.2660 H   0  0  0  0  0  0  0  0  0  0  0  0
   48.2290   27.6020   48.1210 H   0  0  0  0  0  0  0  0  0  0  0  0
   47.2770   26.2570   46.2260 H   0  0  0  0  0  0  0  0  0  0  0  0
   45.9070   26.1160   44.3580 H   0  0  0  0  0  0  0  0  0  0  0  0
   44.3420   27.0370   42.7940 H   0  0  0  0  0  0  0  0  0  0  0  0
   43.6760   29.3380   42.9000 H   0  0  0  0  0  0  0  0  0  0  0  0
   44.4990   30.7480   44.6040 H   0  0  0  0  0  0  0  0  0  0  0  0
   44.6470   35.2350   45.0710 C   0  0  0  0  0  0  0  0  0  0  0  0
   45.1170   35.6160   43.7630 C   0  0  0  0  0  0  0  0  0  0  0  0
   46.2250   34.9090   43.2400 C   0  0  0  0  0  0  0  0  0  0  0  0
   46.7760   33.9390   43.9660 N   0  0  0  0  0  0  0  0  0  0  0  0
   46.3030   33.6040   45.2040 C   0  0  0  0  0  0  0  0  0  0  0  0
   45.2650   34.2390   45.7390 N   0  0  0  0  0  0  0  0  0  0  0  0
   43.7970   35.7960   45.4430 H   0  0  0  0  0  0  0  0  0  0  0  0
   44.6300   36.3900   43.2410 H   0  0  0  0  0  0  0  0  0  0  0  0
   47.2860   33.1480   41.2220 N   0  0  0  0  0  0  0  0  0  0  0  0
   47.6500   34.4090   41.2330 C   0  0  0  0  0  0  0  0  0  0  0  0
   46.7580   35.2210   41.9620 N   0  0  0  0  0  0  0  0  0  0  0  0
   48.7970   35.0180   40.6130 N   0  0  0  0  0  0  0  0  0  0  0  0
   49.1450   35.2790   39.6530 H   0  0  0  0  0  0  0  0  0  0  0  0
   47.9040   32.4950   40.7000 H   0  0  0  0  0  0  0  0  0  0  0  0
   46.4620   36.1470   41.5240 H   0  0  0  0  0  0  0  0  0  0  0  0
   49.6370   35.3660   41.1640 H   0  0  0  0  0  0  0  0  0  0  0  0
  1  4  1  6  0  0  0
  1  3  1  0  0  0  0
  1  2  1  0  0  0  0
  2  5  1  0  0  0  0
  2  6  1  0  0  0  0
  3  8  1  0  0  0  0
  3  7  1  6  0  0  0
  3  2  1  0  0  0  0
  8  9  1  0  0  0  0
  9 18  1  0  0  0  0
 10  9  2  0  0  0  0
 10 19  1  0  0  0  0
 11 10  1  0  0  0  0
 12 17  1  0  0  0  0
 12 11  2  0  0  0  0
 13 12  1  0  0  0  0
 14 15  1  0  0  0  0
 14 13  2  0  0  0  0
 15 16  2  0  0  0  0
 16 17  1  0  0  0  0
 17  8  2  0  0  0  0
 20 11  1  0  0  0  0
 21 13  1  0  0  0  0
 22 14  1  0  0  0  0
 23 15  1  0  0  0  0
 24 16  1  0  0  0  0
 25 31  1  0  0  0  0
 25 30  1  0  0  0  0
 26 25  2  0  0  0  0
 27 26  1  0  0  0  0
 27 28  2  0  0  0  0
 28 29  1  0  0  0  0
 29 30  2  0  0  0  0
 29  1  1  0  0  0  0
 32 26  1  0  0  0  0
 33 34  2  0  0  0  0
 34 35  1  0  0  0  0
 35 27  1  0  0  0  0
 36 40  1  0  0  0  0
 36 34  1  0  0  0  0
 37 36  1  0  0  0  0
 38 33  1  0  0  0  0
 39 35  1  0  0  0  0
M  END
>  <minimizedAffinity>
-4.9991188

>  <minimizedRMSD>
1.47747815

$$$$
