
 OpenBabel03252508253D

 40 43  0  0  1  0  0  0  0  0999 V2000
   46.4550   32.5040   45.9370 C   0  0  1  0  0  0  0  0  0  0  0  0
   46.9890   32.6880   47.2930 C   0  0  0  0  0  0  0  0  0  0  0  0
   45.5660   32.0680   46.9980 C   0  0  2  0  0  0  0  0  0  0  0  0
   47.2280   31.8530   45.4000 H   0  0  0  0  0  0  0  0  0  0  0  0
   47.0270   33.6790   47.7720 H   0  0  0  0  0  0  0  0  0  0  0  0
   47.5990   31.9440   47.8240 H   0  0  0  0  0  0  0  0  0  0  0  0
   44.9130   32.7690   47.5940 H   0  0  0  0  0  0  0  0  0  0  0  0
   45.2940   30.6710   47.3560 C   0  0  0  0  0  0  0  0  0  0  0  0
   45.1580   30.1470   48.6030 C   0  0  0  0  0  0  0  0  0  0  0  0
   45.0210   28.8060   48.9100 C   0  0  0  0  0  0  0  0  0  0  0  0
   45.0240   27.9150   47.8240 C   0  0  0  0  0  0  0  0  0  0  0  0
   45.1600   28.4240   46.5330 C   0  0  0  0  0  0  0  0  0  0  0  0
   45.0960   27.5160   45.4930 C   0  0  0  0  0  0  0  0  0  0  0  0
   45.1560   27.9820   44.1860 C   0  0  0  0  0  0  0  0  0  0  0  0
   45.2740   29.3320   43.9260 C   0  0  0  0  0  0  0  0  0  0  0  0
   45.3360   30.1910   44.9980 C   0  0  0  0  0  0  0  0  0  0  0  0
   45.2880   29.7760   46.3150 C   0  0  0  0  0  0  0  0  0  0  0  0
   45.1610   30.8790   49.4120 H   0  0  0  0  0  0  0  0  0  0  0  0
   44.9180   28.4760   49.9280 H   0  0  0  0  0  0  0  0  0  0  0  0
   44.9240   26.8560   48.0110 H   0  0  0  0  0  0  0  0  0  0  0  0
   45.0010   26.4530   45.7260 H   0  0  0  0  0  0  0  0  0  0  0  0
   45.1000   27.1730   43.4430 H   0  0  0  0  0  0  0  0  0  0  0  0
   45.3010   29.4930   42.8700 H   0  0  0  0  0  0  0  0  0  0  0  0
   45.3360   31.1450   44.5540 H   0  0  0  0  0  0  0  0  0  0  0  0
   44.6890   35.5240   44.7600 C   0  0  0  0  0  0  0  0  0  0  0  0
   45.3310   35.7800   43.4960 C   0  0  0  0  0  0  0  0  0  0  0  0
   46.3650   34.8980   43.1030 C   0  0  0  0  0  0  0  0  0  0  0  0
   46.6950   33.8880   43.9050 N   0  0  0  0  0  0  0  0  0  0  0  0
   46.0630   33.6760   45.0980 C   0  0  0  0  0  0  0  0  0  0  0  0
   45.0860   34.4760   45.5110 N   0  0  0  0  0  0  0  0  0  0  0  0
   43.9010   36.2180   45.0320 H   0  0  0  0  0  0  0  0  0  0  0  0
   45.0160   36.5940   42.9070 H   0  0  0  0  0  0  0  0  0  0  0  0
   46.6690   33.0760   40.8920 N   0  0  0  0  0  0  0  0  0  0  0  0
   47.5470   34.0380   41.0600 C   0  0  0  0  0  0  0  0  0  0  0  0
   47.0560   35.0770   41.8760 N   0  0  0  0  0  0  0  0  0  0  0  0
   48.8790   34.1400   40.5270 N   0  0  0  0  0  0  0  0  0  0  0  0
   49.3640   34.3220   39.6090 H   0  0  0  0  0  0  0  0  0  0  0  0
   46.9690   32.2780   40.2980 H   0  0  0  0  0  0  0  0  0  0  0  0
   47.2220   36.0790   41.5540 H   0  0  0  0  0  0  0  0  0  0  0  0
   49.7520   34.0200   41.1230 H   0  0  0  0  0  0  0  0  0  0  0  0
  1  4  1  6  0  0  0
  1  3  1  0  0  0  0
  1  2  1  0  0  0  0
  2  5  1  0  0  0  0
  2  6  1  0  0  0  0
  3  2  1  0  0  0  0
  3  8  1  0  0  0  0
  3  7  1  1  0  0  0
  8  9  1  0  0  0  0
  9 10  2  0  0  0  0
  9 18  1  0  0  0  0
 10 19  1  0  0  0  0
 11 20  1  0  0  0  0
 11 10  1  0  0  0  0
 12 11  2  0  0  0  0
 13 21  1  0  0  0  0
 13 12  1  0  0  0  0
 14 13  2  0  0  0  0
 15 14  1  0  0  0  0
 15 16  2  0  0  0  0
 16 17  1  0  0  0  0
 17 12  1  0  0  0  0
 17  8  2  0  0  0  0
 22 14  1  0  0  0  0
 23 15  1  0  0  0  0
 24 16  1  0  0  0  0
 25 31  1  0  0  0  0
 25 30  1  0  0  0  0
 26 25  2  0  0  0  0
 27 26  1  0  0  0  0
 27 28  2  0  0  0  0
 28 29  1  0  0  0  0
 29 30  2  0  0  0  0
 29  1  1  0  0  0  0
 32 26  1  0  0  0  0
 33 34  2  0  0  0  0
 34 35  1  0  0  0  0
 35 27  1  0  0  0  0
 36 34  1  0  0  0  0
 36 40  1  0  0  0  0
 37 36  1  0  0  0  0
 38 33  1  0  0  0  0
 39 35  1  0  0  0  0
M  END
>  <minimizedAffinity>
-5.33007383

>  <minimizedRMSD>
0.27033183

$$$$
