
 OpenBabel03242519333D

 47 49  0  0  0  0  0  0  0  0999 V2000
   38.2910   28.2810   41.5380 C   0  0  0  0  0  0  0  0  0  0  0  0
   36.9450   27.8130   41.5290 C   0  0  0  0  0  0  0  0  0  0  0  0
   35.9030   28.6840   41.1900 C   0  0  0  0  0  0  0  0  0  0  0  0
   36.2580   29.9750   40.8800 N   0  0  0  0  0  0  0  0  0  0  0  0
   37.5740   30.3790   40.9050 C   0  0  0  0  0  0  0  0  0  0  0  0
   38.5370   29.5410   41.2260 N   0  0  0  0  0  0  0  0  0  0  0  0
   36.5890   26.8170   41.7590 H   0  0  0  0  0  0  0  0  0  0  0  0
   34.8810   28.3950   41.1640 H   0  0  0  0  0  0  0  0  0  0  0  0
   39.2820   27.2690   41.9150 C   0  0  0  0  0  0  0  0  0  0  0  0
   39.2170   26.0420   41.1610 C   0  0  0  0  0  0  0  0  0  0  0  0
   38.7910   24.8570   41.9390 C   0  0  0  0  0  0  0  0  0  0  0  0
   39.7040   24.6600   43.1630 C   0  0  0  0  0  0  0  0  0  0  0  0
   39.9970   25.9180   43.8970 C   0  0  0  0  0  0  0  0  0  0  0  0
   39.0920   27.0550   43.4530 C   0  0  0  0  0  0  0  0  0  0  0  0
   40.2980   27.7630   41.8790 H   0  0  0  0  0  0  0  0  0  0  0  0
   38.5570   26.1220   40.2730 H   0  0  0  0  0  0  0  0  0  0  0  0
   40.2380   25.8020   40.7470 H   0  0  0  0  0  0  0  0  0  0  0  0
   37.7570   24.8100   42.2640 H   0  0  0  0  0  0  0  0  0  0  0  0
   38.9560   23.9430   41.3030 H   0  0  0  0  0  0  0  0  0  0  0  0
   39.1850   23.8760   43.7750 H   0  0  0  0  0  0  0  0  0  0  0  0
   40.6480   24.1560   42.8020 H   0  0  0  0  0  0  0  0  0  0  0  0
   39.8680   25.8290   44.9820 H   0  0  0  0  0  0  0  0  0  0  0  0
   41.0390   26.2520   43.6620 H   0  0  0  0  0  0  0  0  0  0  0  0
   39.3310   27.9710   43.9960 H   0  0  0  0  0  0  0  0  0  0  0  0
   38.0250   26.7680   43.5810 H   0  0  0  0  0  0  0  0  0  0  0  0
   37.7550   31.7830   40.5520 C   0  0  0  0  0  0  0  0  0  0  0  0
   36.9040   32.3570   39.6880 N   0  0  0  0  0  0  0  0  0  0  0  0
   37.2600   33.6560   39.5070 C   0  0  0  0  0  0  0  0  0  0  0  0
   38.3450   33.8680   40.2770 N   0  0  0  0  0  0  0  0  0  0  0  0
   38.6530   32.7370   40.9150 N   0  0  0  0  0  0  0  0  0  0  0  0
   36.7780   34.4010   38.8680 H   0  0  0  0  0  0  0  0  0  0  0  0
   39.0750   35.1020   40.4410 C   0  0  0  0  0  0  0  0  0  0  0  0
   38.5660   35.8940   39.8220 H   0  0  0  0  0  0  0  0  0  0  0  0
   39.0910   35.4860   41.4480 H   0  0  0  0  0  0  0  0  0  0  0  0
   40.4270   34.9450   39.9060 C   0  0  0  0  0  3  0  0  0  0  0  0
   41.6000   34.6380   40.4340 C   0  0  0  0  0  3  0  0  0  0  0  0
   42.9360   34.4250   39.7030 C   0  0  0  0  0  0  0  0  0  0  0  0
   43.7540   34.3370   40.4350 H   0  0  0  0  0  0  0  0  0  0  0  0
   43.0160   35.3070   39.0540 H   0  0  0  0  0  0  0  0  0  0  0  0
   42.6970   34.4380   36.8510 N   0  0  0  0  0  0  0  0  0  0  0  0
   42.8770   33.3150   37.4300 C   0  0  0  0  0  0  0  0  0  0  0  0
   42.8310   33.2570   38.8640 N   0  0  0  0  0  0  0  0  0  0  0  0
   43.1210   32.1230   36.6960 N   0  0  0  0  0  0  0  0  0  0  0  0
   44.1010   31.8150   36.4470 H   0  0  0  0  0  0  0  0  0  0  0  0
   42.5220   35.2990   37.4080 H   0  0  0  0  0  0  0  0  0  0  0  0
   42.7130   32.2920   39.2700 H   0  0  0  0  0  0  0  0  0  0  0  0
   42.7770   31.2700   36.2060 H   0  0  0  0  0  0  0  0  0  0  0  0
  1  9  1  0  0  0  0
  2  1  1  0  0  0  0
  2  7  1  0  0  0  0
  3  2  2  0  0  0  0
  4  5  2  0  0  0  0
  4  3  1  0  0  0  0
  5  6  1  0  0  0  0
  6  1  2  0  0  0  0
  8  3  1  0  0  0  0
  9 14  1  0  0  0  0
 10  9  1  0  0  0  0
 10 11  1  0  0  0  0
 11 18  1  0  0  0  0
 11 12  1  0  0  0  0
 12 20  1  0  0  0  0
 12 13  1  0  0  0  0
 13 22  1  0  0  0  0
 14 25  1  0  0  0  0
 14 13  1  0  0  0  0
 14 24  1  0  0  0  0
 15  9  1  0  0  0  0
 16 10  1  0  0  0  0
 17 10  1  0  0  0  0
 19 11  1  0  0  0  0
 21 12  1  0  0  0  0
 23 13  1  0  0  0  0
 26  5  1  0  0  0  0
 26 30  2  0  0  0  0
 27 26  1  0  0  0  0
 28 27  2  0  0  0  0
 28 29  1  0  0  0  0
 29 32  1  0  0  0  0
 29 30  1  0  0  0  0
 31 28  1  0  0  0  0
 32 34  1  0  0  0  0
 33 32  1  0  0  0  0
 35 36  2  0  0  0  0
 35 32  1  0  0  0  0
 37 36  1  0  0  0  0
 37 38  1  0  0  0  0
 39 37  1  0  0  0  0
 40 45  1  0  0  0  0
 40 41  2  0  0  0  0
 41 42  1  0  0  0  0
 42 46  1  0  0  0  0
 42 37  1  0  0  0  0
 43 41  1  0  0  0  0
 44 43  1  0  0  0  0
 47 43  1  0  0  0  0
M  END
>  <minimizedAffinity>
-6.65029144

$$$$

 OpenBabel03242519333D

 47 49  0  0  0  0  0  0  0  0999 V2000
   37.0680   26.7520   41.9490 C   0  0  0  0  0  0  0  0  0  0  0  0
   37.2930   26.9830   43.3370 C   0  0  0  0  0  0  0  0  0  0  0  0
   37.4820   28.2890   43.8080 C   0  0  0  0  0  0  0  0  0  0  0  0
   37.4400   29.2920   42.8700 N   0  0  0  0  0  0  0  0  0  0  0  0
   37.2210   29.0160   41.5390 C   0  0  0  0  0  0  0  0  0  0  0  0
   37.0440   27.7810   41.1200 N   0  0  0  0  0  0  0  0  0  0  0  0
   37.3390   26.2490   44.1310 H   0  0  0  0  0  0  0  0  0  0  0  0
   37.6520   28.5250   44.8300 H   0  0  0  0  0  0  0  0  0  0  0  0
   36.8900   25.3420   41.5900 C   0  0  0  0  0  0  0  0  0  0  0  0
   37.8470   24.4390   42.1780 C   0  0  0  0  0  0  0  0  0  0  0  0
   38.7770   23.8070   41.2170 C   0  0  0  0  0  0  0  0  0  0  0  0
   37.9940   23.0760   40.1100 C   0  0  0  0  0  0  0  0  0  0  0  0
   36.8490   23.8580   39.5750 C   0  0  0  0  0  0  0  0  0  0  0  0
   36.8960   25.3080   40.0260 C   0  0  0  0  0  0  0  0  0  0  0  0
   35.8180   25.0700   41.8190 H   0  0  0  0  0  0  0  0  0  0  0  0
   38.4530   24.9180   42.9740 H   0  0  0  0  0  0  0  0  0  0  0  0
   37.3000   23.5970   42.6930 H   0  0  0  0  0  0  0  0  0  0  0  0
   39.5300   24.4360   40.7530 H   0  0  0  0  0  0  0  0  0  0  0  0
   39.3420   22.9960   41.7550 H   0  0  0  0  0  0  0  0  0  0  0  0
   38.7710   22.8110   39.3460 H   0  0  0  0  0  0  0  0  0  0  0  0
   37.6630   22.0830   40.5310 H   0  0  0  0  0  0  0  0  0  0  0  0
   36.8090   23.8780   38.4790 H   0  0  0  0  0  0  0  0  0  0  0  0
   35.8930   23.4440   39.9850 H   0  0  0  0  0  0  0  0  0  0  0  0
   36.0410   25.8600   39.6320 H   0  0  0  0  0  0  0  0  0  0  0  0
   37.8600   25.7730   39.7240 H   0  0  0  0  0  0  0  0  0  0  0  0
   37.2140   30.2060   40.6960 C   0  0  0  0  0  0  0  0  0  0  0  0
   36.8460   30.0960   39.4100 N   0  0  0  0  0  0  0  0  0  0  0  0
   36.9150   31.3190   38.8190 C   0  0  0  0  0  0  0  0  0  0  0  0
   37.3300   32.1800   39.7680 N   0  0  0  0  0  0  0  0  0  0  0  0
   37.5140   31.5150   40.9090 N   0  0  0  0  0  0  0  0  0  0  0  0
   36.6830   31.5760   37.7820 H   0  0  0  0  0  0  0  0  0  0  0  0
   37.5320   33.6020   39.6300 C   0  0  0  0  0  0  0  0  0  0  0  0
   37.2320   33.8990   38.5850 H   0  0  0  0  0  0  0  0  0  0  0  0
   36.9320   34.2090   40.2880 H   0  0  0  0  0  0  0  0  0  0  0  0
   38.9560   33.9090   39.7690 C   0  0  0  0  0  3  0  0  0  0  0  0
   39.6430   35.0070   40.0370 C   0  0  0  0  0  3  0  0  0  0  0  0
   41.1610   35.1430   40.2370 C   0  0  0  0  0  0  0  0  0  0  0  0
   41.5540   34.2510   40.7500 H   0  0  0  0  0  0  0  0  0  0  0  0
   41.2590   36.0680   40.8210 H   0  0  0  0  0  0  0  0  0  0  0  0
   42.6810   33.1980   38.7900 N   0  0  0  0  0  0  0  0  0  0  0  0
   42.3990   34.2950   38.2000 C   0  0  0  0  0  0  0  0  0  0  0  0
   41.7870   35.3520   38.9560 N   0  0  0  0  0  0  0  0  0  0  0  0
   42.6740   34.4980   36.8210 N   0  0  0  0  0  0  0  0  0  0  0  0
   41.9650   34.2580   36.0730 H   0  0  0  0  0  0  0  0  0  0  0  0
   42.4700   33.0700   39.8010 H   0  0  0  0  0  0  0  0  0  0  0  0
   41.8260   36.3040   38.5070 H   0  0  0  0  0  0  0  0  0  0  0  0
   43.3090   34.8080   36.0560 H   0  0  0  0  0  0  0  0  0  0  0  0
  1  2  1  0  0  0  0
  2  3  2  0  0  0  0
  2  7  1  0  0  0  0
  3  8  1  0  0  0  0
  4  3  1  0  0  0  0
  5  4  2  0  0  0  0
  6  5  1  0  0  0  0
  6  1  2  0  0  0  0
  9 15  1  0  0  0  0
  9  1  1  0  0  0  0
  9 10  1  0  0  0  0
 10 17  1  0  0  0  0
 10 16  1  0  0  0  0
 11 19  1  0  0  0  0
 11 10  1  0  0  0  0
 12 21  1  0  0  0  0
 12 11  1  0  0  0  0
 13 23  1  0  0  0  0
 13 14  1  0  0  0  0
 13 12  1  0  0  0  0
 14  9  1  0  0  0  0
 18 11  1  0  0  0  0
 20 12  1  0  0  0  0
 22 13  1  0  0  0  0
 24 14  1  0  0  0  0
 25 14  1  0  0  0  0
 26 30  2  0  0  0  0
 26  5  1  0  0  0  0
 27 26  1  0  0  0  0
 28 27  2  0  0  0  0
 28 29  1  0  0  0  0
 29 30  1  0  0  0  0
 31 28  1  0  0  0  0
 32 29  1  0  0  0  0
 32 35  1  0  0  0  0
 32 34  1  0  0  0  0
 33 32  1  0  0  0  0
 35 36  2  0  0  0  0
 36 37  1  0  0  0  0
 37 38  1  0  0  0  0
 37 39  1  0  0  0  0
 40 45  1  0  0  0  0
 41 40  2  0  0  0  0
 41 42  1  0  0  0  0
 42 37  1  0  0  0  0
 43 41  1  0  0  0  0
 44 43  1  0  0  0  0
 46 42  1  0  0  0  0
 47 43  1  0  0  0  0
M  END
>  <minimizedAffinity>
-6.6486187

$$$$

 OpenBabel03242519333D

 47 49  0  0  0  0  0  0  0  0999 V2000
   37.1340   26.9220   41.7650 C   0  0  0  0  0  0  0  0  0  0  0  0
   37.1290   27.0710   43.1820 C   0  0  0  0  0  0  0  0  0  0  0  0
   37.3620   28.3270   43.7560 C   0  0  0  0  0  0  0  0  0  0  0  0
   37.5890   29.3660   42.8850 N   0  0  0  0  0  0  0  0  0  0  0  0
   37.5840   29.1710   41.5230 C   0  0  0  0  0  0  0  0  0  0  0  0
   37.3620   27.9800   41.0070 N   0  0  0  0  0  0  0  0  0  0  0  0
   36.9590   26.3040   43.9280 H   0  0  0  0  0  0  0  0  0  0  0  0
   37.3700   28.5020   44.8040 H   0  0  0  0  0  0  0  0  0  0  0  0
   36.8820   25.5560   41.2980 C   0  0  0  0  0  0  0  0  0  0  0  0
   37.4900   24.5190   42.0930 C   0  0  0  0  0  0  0  0  0  0  0  0
   38.5700   23.7680   41.4140 C   0  0  0  0  0  0  0  0  0  0  0  0
   38.0590   23.1680   40.0900 C   0  0  0  0  0  0  0  0  0  0  0  0
   37.2410   24.1110   39.2850 C   0  0  0  0  0  0  0  0  0  0  0  0
   37.3470   25.5360   39.8040 C   0  0  0  0  0  0  0  0  0  0  0  0
   35.7640   25.4390   41.1890 H   0  0  0  0  0  0  0  0  0  0  0  0
   37.8920   24.8990   43.0540 H   0  0  0  0  0  0  0  0  0  0  0  0
   36.7070   23.7600   42.3810 H   0  0  0  0  0  0  0  0  0  0  0  0
   39.5050   24.2870   41.2240 H   0  0  0  0  0  0  0  0  0  0  0  0
   38.8350   22.8800   42.0520 H   0  0  0  0  0  0  0  0  0  0  0  0
   38.9850   22.8010   39.5750 H   0  0  0  0  0  0  0  0  0  0  0  0
   37.4870   22.2290   40.3450 H   0  0  0  0  0  0  0  0  0  0  0  0
   37.5310   24.1470   38.2280 H   0  0  0  0  0  0  0  0  0  0  0  0
   36.1590   23.8360   39.3760 H   0  0  0  0  0  0  0  0  0  0  0  0
   36.7290   26.2090   39.2060 H   0  0  0  0  0  0  0  0  0  0  0  0
   38.4100   25.8590   39.8210 H   0  0  0  0  0  0  0  0  0  0  0  0
   37.8480   30.3870   40.7630 C   0  0  0  0  0  0  0  0  0  0  0  0
   38.6300   30.3240   39.6740 N   0  0  0  0  0  0  0  0  0  0  0  0
   38.7380   31.5650   39.1280 C   0  0  0  0  0  0  0  0  0  0  0  0
   38.0050   32.3890   39.9020 N   0  0  0  0  0  0  0  0  0  0  0  0
   37.4620   31.6840   40.8960 N   0  0  0  0  0  0  0  0  0  0  0  0
   39.3000   31.8590   38.2390 H   0  0  0  0  0  0  0  0  0  0  0  0
   37.7900   33.8030   39.7150 C   0  0  0  0  0  0  0  0  0  0  0  0
   37.9780   34.0460   38.6310 H   0  0  0  0  0  0  0  0  0  0  0  0
   36.7870   34.1380   39.9180 H   0  0  0  0  0  0  0  0  0  0  0  0
   38.7730   34.5550   40.4960 C   0  0  0  0  0  3  0  0  0  0  0  0
   39.4860   35.6470   40.2800 C   0  0  0  0  0  3  0  0  0  0  0  0
   40.4260   36.3680   41.2590 C   0  0  0  0  0  0  0  0  0  0  0  0
   40.1780   36.0870   42.2950 H   0  0  0  0  0  0  0  0  0  0  0  0
   40.2600   37.4310   41.0370 H   0  0  0  0  0  0  0  0  0  0  0  0
   42.6130   36.2510   43.1010 N   0  0  0  0  0  0  0  0  0  0  0  0
   42.8150   35.8430   41.9090 C   0  0  0  0  0  0  0  0  0  0  0  0
   41.7900   36.0460   40.9230 N   0  0  0  0  0  0  0  0  0  0  0  0
   44.0210   35.1950   41.5310 N   0  0  0  0  0  0  0  0  0  0  0  0
   44.1300   34.1440   41.5920 H   0  0  0  0  0  0  0  0  0  0  0  0
   41.7210   36.7220   43.3570 H   0  0  0  0  0  0  0  0  0  0  0  0
   42.1050   35.9440   39.9230 H   0  0  0  0  0  0  0  0  0  0  0  0
   44.9980   35.2290   41.1710 H   0  0  0  0  0  0  0  0  0  0  0  0
  1  2  1  0  0  0  0
  2  3  2  0  0  0  0
  2  7  1  0  0  0  0
  3  8  1  0  0  0  0
  4  3  1  0  0  0  0
  5  4  2  0  0  0  0
  6  5  1  0  0  0  0
  6  1  2  0  0  0  0
  9  1  1  0  0  0  0
  9 10  1  0  0  0  0
 10 17  1  0  0  0  0
 10 16  1  0  0  0  0
 11 19  1  0  0  0  0
 11 10  1  0  0  0  0
 12 21  1  0  0  0  0
 12 11  1  0  0  0  0
 13 23  1  0  0  0  0
 13 14  1  0  0  0  0
 13 12  1  0  0  0  0
 14 25  1  0  0  0  0
 14  9  1  0  0  0  0
 15  9  1  0  0  0  0
 18 11  1  0  0  0  0
 20 12  1  0  0  0  0
 22 13  1  0  0  0  0
 24 14  1  0  0  0  0
 26 30  2  0  0  0  0
 26  5  1  0  0  0  0
 27 26  1  0  0  0  0
 28 27  2  0  0  0  0
 28 29  1  0  0  0  0
 29 30  1  0  0  0  0
 31 28  1  0  0  0  0
 32 29  1  0  0  0  0
 32 34  1  0  0  0  0
 32 35  1  0  0  0  0
 33 32  1  0  0  0  0
 36 35  2  0  0  0  0
 36 37  1  0  0  0  0
 37 38  1  0  0  0  0
 39 37  1  0  0  0  0
 40 45  1  0  0  0  0
 41 40  2  0  0  0  0
 42 37  1  0  0  0  0
 42 41  1  0  0  0  0
 43 44  1  0  0  0  0
 43 41  1  0  0  0  0
 46 42  1  0  0  0  0
 47 43  1  0  0  0  0
M  END
>  <minimizedAffinity>
-6.52561855

$$$$

 OpenBabel03242519333D

 47 49  0  0  0  0  0  0  0  0999 V2000
   38.0370   28.5580   42.3670 C   0  0  0  0  0  0  0  0  0  0  0  0
   36.7940   27.9530   42.0190 C   0  0  0  0  0  0  0  0  0  0  0  0
   35.8730   28.6490   41.2270 C   0  0  0  0  0  0  0  0  0  0  0  0
   36.2390   29.9110   40.8260 N   0  0  0  0  0  0  0  0  0  0  0  0
   37.4510   30.4530   41.1900 C   0  0  0  0  0  0  0  0  0  0  0  0
   38.3010   29.7780   41.9350 N   0  0  0  0  0  0  0  0  0  0  0  0
   36.4380   26.9680   42.2950 H   0  0  0  0  0  0  0  0  0  0  0  0
   34.9320   28.2510   40.9340 H   0  0  0  0  0  0  0  0  0  0  0  0
   38.9050   27.7240   43.2020 C   0  0  0  0  0  0  0  0  0  0  0  0
   40.2970   28.0960   43.1970 C   0  0  0  0  0  0  0  0  0  0  0  0
   41.2000   27.1140   42.5570 C   0  0  0  0  0  0  0  0  0  0  0  0
   41.0420   25.7300   43.2130 C   0  0  0  0  0  0  0  0  0  0  0  0
   39.6280   25.3390   43.4480 C   0  0  0  0  0  0  0  0  0  0  0  0
   38.6610   26.2560   42.7170 C   0  0  0  0  0  0  0  0  0  0  0  0
   38.4520   27.6990   44.2370 H   0  0  0  0  0  0  0  0  0  0  0  0
   40.4720   29.0820   42.7190 H   0  0  0  0  0  0  0  0  0  0  0  0
   40.6570   28.2170   44.2590 H   0  0  0  0  0  0  0  0  0  0  0  0
   41.1410   26.9980   41.4800 H   0  0  0  0  0  0  0  0  0  0  0  0
   42.2610   27.4190   42.7760 H   0  0  0  0  0  0  0  0  0  0  0  0
   41.6090   25.0350   42.5400 H   0  0  0  0  0  0  0  0  0  0  0  0
   41.6380   25.7410   44.1720 H   0  0  0  0  0  0  0  0  0  0  0  0
   39.3960   24.3210   43.1150 H   0  0  0  0  0  0  0  0  0  0  0  0
   39.3870   25.4510   44.5350 H   0  0  0  0  0  0  0  0  0  0  0  0
   37.6290   25.9590   42.9120 H   0  0  0  0  0  0  0  0  0  0  0  0
   38.8880   26.2630   41.6290 H   0  0  0  0  0  0  0  0  0  0  0  0
   37.6600   31.8020   40.6750 C   0  0  0  0  0  0  0  0  0  0  0  0
   36.8520   32.2680   39.7100 N   0  0  0  0  0  0  0  0  0  0  0  0
   37.2280   33.5330   39.3850 C   0  0  0  0  0  0  0  0  0  0  0  0
   38.2800   33.8350   40.1720 N   0  0  0  0  0  0  0  0  0  0  0  0
   38.5490   32.7910   40.9570 N   0  0  0  0  0  0  0  0  0  0  0  0
   36.7810   34.1950   38.6390 H   0  0  0  0  0  0  0  0  0  0  0  0
   39.0130   35.0770   40.2150 C   0  0  0  0  0  0  0  0  0  0  0  0
   38.8980   35.5860   39.2160 H   0  0  0  0  0  0  0  0  0  0  0  0
   38.6570   35.7850   40.9440 H   0  0  0  0  0  0  0  0  0  0  0  0
   40.4380   34.7980   40.3900 C   0  0  0  0  0  3  0  0  0  0  0  0
   41.4080   34.3990   39.5850 C   0  0  0  0  0  3  0  0  0  0  0  0
   42.9000   34.2350   39.9160 C   0  0  0  0  0  0  0  0  0  0  0  0
   43.5100   34.4920   39.0350 H   0  0  0  0  0  0  0  0  0  0  0  0
   42.9820   33.1830   40.2170 H   0  0  0  0  0  0  0  0  0  0  0  0
   43.0930   33.3250   42.6220 N   0  0  0  0  0  0  0  0  0  0  0  0
   43.4640   34.5190   42.3660 C   0  0  0  0  0  0  0  0  0  0  0  0
   43.2210   35.0560   41.0560 N   0  0  0  0  0  0  0  0  0  0  0  0
   44.1090   35.3290   43.3380 N   0  0  0  0  0  0  0  0  0  0  0  0
   45.1620   35.3410   43.4420 H   0  0  0  0  0  0  0  0  0  0  0  0
   42.6240   32.7480   41.8940 H   0  0  0  0  0  0  0  0  0  0  0  0
   43.2940   36.1040   40.9810 H   0  0  0  0  0  0  0  0  0  0  0  0
   44.0700   36.0210   44.1170 H   0  0  0  0  0  0  0  0  0  0  0  0
  1  9  1  0  0  0  0
  2  7  1  0  0  0  0
  2  1  1  0  0  0  0
  3  2  2  0  0  0  0
  4  5  2  0  0  0  0
  4  3  1  0  0  0  0
  5  6  1  0  0  0  0
  6  1  2  0  0  0  0
  8  3  1  0  0  0  0
  9 15  1  0  0  0  0
 10  9  1  0  0  0  0
 10 17  1  0  0  0  0
 11 19  1  0  0  0  0
 11 10  1  0  0  0  0
 11 12  1  0  0  0  0
 12 13  1  0  0  0  0
 12 21  1  0  0  0  0
 13 23  1  0  0  0  0
 14 24  1  0  0  0  0
 14  9  1  0  0  0  0
 14 13  1  0  0  0  0
 16 10  1  0  0  0  0
 18 11  1  0  0  0  0
 20 12  1  0  0  0  0
 22 13  1  0  0  0  0
 25 14  1  0  0  0  0
 26 30  2  0  0  0  0
 26  5  1  0  0  0  0
 27 26  1  0  0  0  0
 28 27  2  0  0  0  0
 28 29  1  0  0  0  0
 29 32  1  0  0  0  0
 29 30  1  0  0  0  0
 31 28  1  0  0  0  0
 32 35  1  0  0  0  0
 32 34  1  0  0  0  0
 33 32  1  0  0  0  0
 36 37  1  0  0  0  0
 36 35  2  0  0  0  0
 37 39  1  0  0  0  0
 37 42  1  0  0  0  0
 38 37  1  0  0  0  0
 41 40  2  0  0  0  0
 41 43  1  0  0  0  0
 42 41  1  0  0  0  0
 43 44  1  0  0  0  0
 43 47  1  0  0  0  0
 45 40  1  0  0  0  0
 46 42  1  0  0  0  0
M  END
>  <minimizedAffinity>
-6.48783636

$$$$

 OpenBabel03242519333D

 47 49  0  0  0  0  0  0  0  0999 V2000
   37.4280   26.9770   41.1280 C   0  0  0  0  0  0  0  0  0  0  0  0
   36.7150   26.1860   40.1810 C   0  0  0  0  0  0  0  0  0  0  0  0
   36.2080   26.7770   39.0160 C   0  0  0  0  0  0  0  0  0  0  0  0
   36.4380   28.1230   38.8610 N   0  0  0  0  0  0  0  0  0  0  0  0
   37.1310   28.8430   39.8060 C   0  0  0  0  0  0  0  0  0  0  0  0
   37.5990   28.2660   40.8930 N   0  0  0  0  0  0  0  0  0  0  0  0
   36.4960   25.1280   40.2330 H   0  0  0  0  0  0  0  0  0  0  0  0
   35.6710   26.2410   38.2720 H   0  0  0  0  0  0  0  0  0  0  0  0
   37.8990   26.2370   42.3020 C   0  0  0  0  0  0  0  0  0  0  0  0
   38.4340   27.0530   43.3630 C   0  0  0  0  0  0  0  0  0  0  0  0
   39.8880   26.8970   43.5930 C   0  0  0  0  0  0  0  0  0  0  0  0
   40.2360   25.4200   43.8560 C   0  0  0  0  0  0  0  0  0  0  0  0
   39.5640   24.4740   42.9280 C   0  0  0  0  0  0  0  0  0  0  0  0
   38.9280   25.1960   41.7500 C   0  0  0  0  0  0  0  0  0  0  0  0
   37.0540   25.5650   42.6370 H   0  0  0  0  0  0  0  0  0  0  0  0
   38.2260   28.1320   43.2160 H   0  0  0  0  0  0  0  0  0  0  0  0
   37.9270   26.7850   44.3340 H   0  0  0  0  0  0  0  0  0  0  0  0
   40.5640   27.2860   42.8380 H   0  0  0  0  0  0  0  0  0  0  0  0
   40.1510   27.4320   44.5480 H   0  0  0  0  0  0  0  0  0  0  0  0
   41.3570   25.3870   43.8190 H   0  0  0  0  0  0  0  0  0  0  0  0
   39.9830   25.2010   44.9330 H   0  0  0  0  0  0  0  0  0  0  0  0
   40.2420   23.7270   42.5000 H   0  0  0  0  0  0  0  0  0  0  0  0
   38.7210   23.9660   43.4620 H   0  0  0  0  0  0  0  0  0  0  0  0
   38.4300   24.4840   41.0890 H   0  0  0  0  0  0  0  0  0  0  0  0
   39.6930   25.7940   41.2100 H   0  0  0  0  0  0  0  0  0  0  0  0
   37.2710   30.2560   39.4710 C   0  0  0  0  0  0  0  0  0  0  0  0
   37.2650   30.6260   38.1810 N   0  0  0  0  0  0  0  0  0  0  0  0
   37.4090   31.9760   38.1040 C   0  0  0  0  0  0  0  0  0  0  0  0
   37.5000   32.4250   39.3700 N   0  0  0  0  0  0  0  0  0  0  0  0
   37.4180   31.3890   40.2070 N   0  0  0  0  0  0  0  0  0  0  0  0
   37.4440   32.5970   37.2040 H   0  0  0  0  0  0  0  0  0  0  0  0
   37.6390   33.7940   39.8060 C   0  0  0  0  0  0  0  0  0  0  0  0
   37.1620   34.4580   39.0300 H   0  0  0  0  0  0  0  0  0  0  0  0
   37.1410   34.0250   40.7320 H   0  0  0  0  0  0  0  0  0  0  0  0
   39.0570   34.1500   39.8570 C   0  0  0  0  0  3  0  0  0  0  0  0
   39.7250   35.2400   40.1940 C   0  0  0  0  0  3  0  0  0  0  0  0
   41.2490   35.4230   40.2780 C   0  0  0  0  0  0  0  0  0  0  0  0
   41.6980   34.5870   40.8380 H   0  0  0  0  0  0  0  0  0  0  0  0
   41.3630   36.3970   40.7720 H   0  0  0  0  0  0  0  0  0  0  0  0
   42.8320   33.4420   38.9530 N   0  0  0  0  0  0  0  0  0  0  0  0
   42.4320   34.4420   38.2680 C   0  0  0  0  0  0  0  0  0  0  0  0
   41.7830   35.5310   38.9440 N   0  0  0  0  0  0  0  0  0  0  0  0
   42.6110   34.5080   36.8600 N   0  0  0  0  0  0  0  0  0  0  0  0
   41.8820   34.1350   36.1900 H   0  0  0  0  0  0  0  0  0  0  0  0
   42.6900   33.4130   39.9830 H   0  0  0  0  0  0  0  0  0  0  0  0
   41.7220   36.4260   38.3920 H   0  0  0  0  0  0  0  0  0  0  0  0
   43.1760   34.7750   36.0260 H   0  0  0  0  0  0  0  0  0  0  0  0
  1  9  1  0  0  0  0
  2  7  1  0  0  0  0
  2  1  2  0  0  0  0
  3  2  1  0  0  0  0
  4  3  2  0  0  0  0
  4  5  1  0  0  0  0
  5  6  2  0  0  0  0
  6  1  1  0  0  0  0
  8  3  1  0  0  0  0
  9 15  1  0  0  0  0
  9 10  1  0  0  0  0
 10 11  1  0  0  0  0
 10 17  1  0  0  0  0
 11 12  1  0  0  0  0
 11 19  1  0  0  0  0
 12 21  1  0  0  0  0
 13 23  1  0  0  0  0
 13 12  1  0  0  0  0
 14  9  1  0  0  0  0
 14 13  1  0  0  0  0
 16 10  1  0  0  0  0
 18 11  1  0  0  0  0
 20 12  1  0  0  0  0
 22 13  1  0  0  0  0
 24 14  1  0  0  0  0
 25 14  1  0  0  0  0
 26  5  1  0  0  0  0
 26 30  2  0  0  0  0
 27 26  1  0  0  0  0
 28 27  2  0  0  0  0
 28 29  1  0  0  0  0
 29 32  1  0  0  0  0
 29 30  1  0  0  0  0
 31 28  1  0  0  0  0
 32 35  1  0  0  0  0
 32 34  1  0  0  0  0
 33 32  1  0  0  0  0
 35 36  2  0  0  0  0
 36 37  1  0  0  0  0
 37 39  1  0  0  0  0
 37 38  1  0  0  0  0
 40 45  1  0  0  0  0
 41 42  1  0  0  0  0
 41 40  2  0  0  0  0
 42 37  1  0  0  0  0
 43 41  1  0  0  0  0
 44 43  1  0  0  0  0
 46 42  1  0  0  0  0
 47 43  1  0  0  0  0
M  END
>  <minimizedAffinity>
-6.4060626

$$$$

 OpenBabel03242519333D

 47 49  0  0  0  0  0  0  0  0999 V2000
   37.6750   29.1980   41.5890 C   0  0  0  0  0  0  0  0  0  0  0  0
   36.2990   29.2990   41.2330 C   0  0  0  0  0  0  0  0  0  0  0  0
   35.8190   30.4590   40.6120 C   0  0  0  0  0  0  0  0  0  0  0  0
   36.7360   31.4560   40.3810 N   0  0  0  0  0  0  0  0  0  0  0  0
   38.0560   31.3110   40.7450 C   0  0  0  0  0  0  0  0  0  0  0  0
   38.4840   30.2100   41.3270 N   0  0  0  0  0  0  0  0  0  0  0  0
   35.5210   28.5610   41.3810 H   0  0  0  0  0  0  0  0  0  0  0  0
   34.8050   30.5930   40.3220 H   0  0  0  0  0  0  0  0  0  0  0  0
   38.0430   27.9360   42.2350 C   0  0  0  0  0  0  0  0  0  0  0  0
   39.4190   27.5430   42.0670 C   0  0  0  0  0  0  0  0  0  0  0  0
   39.6230   26.3320   41.2410 C   0  0  0  0  0  0  0  0  0  0  0  0
   38.8180   25.1500   41.8110 C   0  0  0  0  0  0  0  0  0  0  0  0
   37.4320   25.5080   42.2070 C   0  0  0  0  0  0  0  0  0  0  0  0
   37.0310   26.8780   41.6830 C   0  0  0  0  0  0  0  0  0  0  0  0
   37.7260   28.0080   43.3180 H   0  0  0  0  0  0  0  0  0  0  0  0
   40.0450   28.3550   41.6430 H   0  0  0  0  0  0  0  0  0  0  0  0
   39.8710   27.3210   43.0760 H   0  0  0  0  0  0  0  0  0  0  0  0
   39.4270   26.4070   40.1760 H   0  0  0  0  0  0  0  0  0  0  0  0
   40.7010   26.0210   41.3350 H   0  0  0  0  0  0  0  0  0  0  0  0
   38.8840   24.3600   41.0170 H   0  0  0  0  0  0  0  0  0  0  0  0
   39.4050   24.7280   42.6770 H   0  0  0  0  0  0  0  0  0  0  0  0
   36.6770   24.8050   41.8360 H   0  0  0  0  0  0  0  0  0  0  0  0
   37.3710   25.5820   43.3220 H   0  0  0  0  0  0  0  0  0  0  0  0
   36.0150   27.1250   41.9950 H   0  0  0  0  0  0  0  0  0  0  0  0
   37.1420   26.9120   40.5770 H   0  0  0  0  0  0  0  0  0  0  0  0
   38.8760   32.4730   40.4240 C   0  0  0  0  0  0  0  0  0  0  0  0
   40.0100   32.3030   39.7270 N   0  0  0  0  0  0  0  0  0  0  0  0
   40.6090   33.5100   39.5460 C   0  0  0  0  0  0  0  0  0  0  0  0
   39.8180   34.4230   40.1430 N   0  0  0  0  0  0  0  0  0  0  0  0
   38.7650   33.8040   40.6780 N   0  0  0  0  0  0  0  0  0  0  0  0
   41.5440   33.7230   39.0220 H   0  0  0  0  0  0  0  0  0  0  0  0
   40.0190   35.8510   40.1990 C   0  0  0  0  0  0  0  0  0  0  0  0
   40.5320   36.1710   39.2480 H   0  0  0  0  0  0  0  0  0  0  0  0
   39.1140   36.4330   40.2500 H   0  0  0  0  0  0  0  0  0  0  0  0
   40.9260   36.1750   41.3010 C   0  0  0  0  0  3  0  0  0  0  0  0
   42.1950   35.9130   41.5610 C   0  0  0  0  0  3  0  0  0  0  0  0
   43.0370   36.4110   42.7460 C   0  0  0  0  0  0  0  0  0  0  0  0
   42.3820   36.8550   43.5130 H   0  0  0  0  0  0  0  0  0  0  0  0
   43.7280   37.1300   42.2860 H   0  0  0  0  0  0  0  0  0  0  0  0
   45.8490   36.0300   42.3720 N   0  0  0  0  0  0  0  0  0  0  0  0
   45.2450   35.2550   43.1870 C   0  0  0  0  0  0  0  0  0  0  0  0
   43.8120   35.3130   43.2670 N   0  0  0  0  0  0  0  0  0  0  0  0
   45.9490   34.3400   44.0140 N   0  0  0  0  0  0  0  0  0  0  0  0
   46.2820   34.6100   44.9820 H   0  0  0  0  0  0  0  0  0  0  0  0
   45.3140   36.6940   41.7760 H   0  0  0  0  0  0  0  0  0  0  0  0
   43.3560   34.4870   43.7370 H   0  0  0  0  0  0  0  0  0  0  0  0
   46.3670   33.4010   44.1820 H   0  0  0  0  0  0  0  0  0  0  0  0
  1  9  1  0  0  0  0
  2  7  1  0  0  0  0
  2  1  2  0  0  0  0
  3  2  1  0  0  0  0
  4  3  2  0  0  0  0
  4  5  1  0  0  0  0
  5  6  2  0  0  0  0
  6  1  1  0  0  0  0
  8  3  1  0  0  0  0
  9 15  1  0  0  0  0
 10  9  1  0  0  0  0
 10 17  1  0  0  0  0
 11 19  1  0  0  0  0
 11 12  1  0  0  0  0
 11 10  1  0  0  0  0
 12 13  1  0  0  0  0
 12 21  1  0  0  0  0
 13 23  1  0  0  0  0
 14 24  1  0  0  0  0
 14 13  1  0  0  0  0
 14  9  1  0  0  0  0
 16 10  1  0  0  0  0
 18 11  1  0  0  0  0
 20 12  1  0  0  0  0
 22 13  1  0  0  0  0
 25 14  1  0  0  0  0
 26 30  2  0  0  0  0
 26  5  1  0  0  0  0
 27 26  1  0  0  0  0
 28 27  2  0  0  0  0
 28 29  1  0  0  0  0
 29 32  1  0  0  0  0
 29 30  1  0  0  0  0
 31 28  1  0  0  0  0
 32 34  1  0  0  0  0
 32 35  1  0  0  0  0
 33 32  1  0  0  0  0
 35 36  2  0  0  0  0
 36 37  1  0  0  0  0
 37 42  1  0  0  0  0
 37 38  1  0  0  0  0
 39 37  1  0  0  0  0
 40 41  2  0  0  0  0
 41 42  1  0  0  0  0
 41 43  1  0  0  0  0
 42 46  1  0  0  0  0
 43 47  1  0  0  0  0
 43 44  1  0  0  0  0
 45 40  1  0  0  0  0
M  END
>  <minimizedAffinity>
-6.15658236

$$$$

 OpenBabel03242519333D

 47 49  0  0  0  0  0  0  0  0999 V2000
   40.2350   28.7730   42.7590 C   0  0  0  0  0  0  0  0  0  0  0  0
   41.0390   27.7070   43.2560 C   0  0  0  0  0  0  0  0  0  0  0  0
   42.3840   27.9340   43.5770 C   0  0  0  0  0  0  0  0  0  0  0  0
   42.8530   29.2100   43.3840 N   0  0  0  0  0  0  0  0  0  0  0  0
   42.0360   30.2070   42.9000 C   0  0  0  0  0  0  0  0  0  0  0  0
   40.7750   29.9690   42.6060 N   0  0  0  0  0  0  0  0  0  0  0  0
   40.7420   26.6810   43.4340 H   0  0  0  0  0  0  0  0  0  0  0  0
   43.0320   27.1800   43.9520 H   0  0  0  0  0  0  0  0  0  0  0  0
   38.8500   28.3990   42.4590 C   0  0  0  0  0  0  0  0  0  0  0  0
   37.8510   29.0890   43.2340 C   0  0  0  0  0  0  0  0  0  0  0  0
   37.1030   28.2350   44.1840 C   0  0  0  0  0  0  0  0  0  0  0  0
   36.4520   27.0500   43.4460 C   0  0  0  0  0  0  0  0  0  0  0  0
   37.3530   26.3920   42.4650 C   0  0  0  0  0  0  0  0  0  0  0  0
   38.7950   26.8450   42.6300 C   0  0  0  0  0  0  0  0  0  0  0  0
   38.7070   28.5090   41.3430 H   0  0  0  0  0  0  0  0  0  0  0  0
   38.2680   29.9460   43.8020 H   0  0  0  0  0  0  0  0  0  0  0  0
   37.0850   29.5410   42.5410 H   0  0  0  0  0  0  0  0  0  0  0  0
   37.6350   27.8570   45.0510 H   0  0  0  0  0  0  0  0  0  0  0  0
   36.2400   28.8340   44.5890 H   0  0  0  0  0  0  0  0  0  0  0  0
   36.0890   26.3770   44.2660 H   0  0  0  0  0  0  0  0  0  0  0  0
   35.5100   27.4330   42.9580 H   0  0  0  0  0  0  0  0  0  0  0  0
   37.3630   25.2990   42.5470 H   0  0  0  0  0  0  0  0  0  0  0  0
   37.0580   26.6960   41.4280 H   0  0  0  0  0  0  0  0  0  0  0  0
   39.4360   26.3590   41.8930 H   0  0  0  0  0  0  0  0  0  0  0  0
   39.1410   26.6490   43.6690 H   0  0  0  0  0  0  0  0  0  0  0  0
   42.7120   31.4920   42.7580 C   0  0  0  0  0  0  0  0  0  0  0  0
   43.8880   31.6850   43.3740 N   0  0  0  0  0  0  0  0  0  0  0  0
   44.3300   32.9430   43.1060 C   0  0  0  0  0  0  0  0  0  0  0  0
   43.4040   33.5150   42.3140 N   0  0  0  0  0  0  0  0  0  0  0  0
   42.4180   32.6430   42.0970 N   0  0  0  0  0  0  0  0  0  0  0  0
   45.2520   33.4180   43.4530 H   0  0  0  0  0  0  0  0  0  0  0  0
   43.4370   34.8410   41.7440 C   0  0  0  0  0  0  0  0  0  0  0  0
   43.4150   35.5860   42.5900 H   0  0  0  0  0  0  0  0  0  0  0  0
   44.3260   35.0670   41.1800 H   0  0  0  0  0  0  0  0  0  0  0  0
   42.2280   35.0620   40.9500 C   0  0  0  0  0  3  0  0  0  0  0  0
   41.2610   35.9620   40.9710 C   0  0  0  0  0  3  0  0  0  0  0  0
   40.0850   36.1070   39.9910 C   0  0  0  0  0  0  0  0  0  0  0  0
   40.4090   35.8320   38.9740 H   0  0  0  0  0  0  0  0  0  0  0  0
   39.7950   37.1610   40.0920 H   0  0  0  0  0  0  0  0  0  0  0  0
   39.4360   33.4920   39.0270 N   0  0  0  0  0  0  0  0  0  0  0  0
   38.8050   33.9250   40.0480 C   0  0  0  0  0  0  0  0  0  0  0  0
   38.9890   35.2920   40.4490 N   0  0  0  0  0  0  0  0  0  0  0  0
   37.9280   33.0950   40.7970 N   0  0  0  0  0  0  0  0  0  0  0  0
   38.2710   32.5260   41.6200 H   0  0  0  0  0  0  0  0  0  0  0  0
   40.0750   34.1170   38.4940 H   0  0  0  0  0  0  0  0  0  0  0  0
   38.2580   35.6670   41.1090 H   0  0  0  0  0  0  0  0  0  0  0  0
   36.9800   32.7020   40.9780 H   0  0  0  0  0  0  0  0  0  0  0  0
  1  2  1  0  0  0  0
  2  7  1  0  0  0  0
  2  3  2  0  0  0  0
  3  8  1  0  0  0  0
  4  3  1  0  0  0  0
  5  4  2  0  0  0  0
  6  1  2  0  0  0  0
  6  5  1  0  0  0  0
  9 14  1  0  0  0  0
  9  1  1  0  0  0  0
  9 10  1  0  0  0  0
 10 16  1  0  0  0  0
 10 11  1  0  0  0  0
 11 19  1  0  0  0  0
 11 18  1  0  0  0  0
 12 11  1  0  0  0  0
 12 20  1  0  0  0  0
 13 22  1  0  0  0  0
 13 14  1  0  0  0  0
 13 12  1  0  0  0  0
 14 25  1  0  0  0  0
 15  9  1  0  0  0  0
 17 10  1  0  0  0  0
 21 12  1  0  0  0  0
 23 13  1  0  0  0  0
 24 14  1  0  0  0  0
 26  5  1  0  0  0  0
 26 27  1  0  0  0  0
 28 27  2  0  0  0  0
 28 31  1  0  0  0  0
 29 28  1  0  0  0  0
 30 29  1  0  0  0  0
 30 26  2  0  0  0  0
 32 29  1  0  0  0  0
 32 33  1  0  0  0  0
 34 32  1  0  0  0  0
 35 36  2  0  0  0  0
 35 32  1  0  0  0  0
 37 39  1  0  0  0  0
 37 42  1  0  0  0  0
 37 36  1  0  0  0  0
 38 37  1  0  0  0  0
 40 41  2  0  0  0  0
 41 42  1  0  0  0  0
 41 43  1  0  0  0  0
 42 46  1  0  0  0  0
 43 47  1  0  0  0  0
 43 44  1  0  0  0  0
 45 40  1  0  0  0  0
M  END
>  <minimizedAffinity>
-6.12192488

$$$$

 OpenBabel03242519333D

 47 49  0  0  0  0  0  0  0  0999 V2000
   40.5010   27.1250   43.6160 C   0  0  0  0  0  0  0  0  0  0  0  0
   41.6230   26.6160   44.3330 C   0  0  0  0  0  0  0  0  0  0  0  0
   42.7920   27.3790   44.4390 C   0  0  0  0  0  0  0  0  0  0  0  0
   42.7810   28.6070   43.8220 N   0  0  0  0  0  0  0  0  0  0  0  0
   41.6730   29.0540   43.1400 C   0  0  0  0  0  0  0  0  0  0  0  0
   40.5840   28.3190   43.0550 N   0  0  0  0  0  0  0  0  0  0  0  0
   41.7060   25.6640   44.8420 H   0  0  0  0  0  0  0  0  0  0  0  0
   43.6590   27.0550   44.9610 H   0  0  0  0  0  0  0  0  0  0  0  0
   39.3460   26.2250   43.5790 C   0  0  0  0  0  0  0  0  0  0  0  0
   39.6500   24.8580   43.2390 C   0  0  0  0  0  0  0  0  0  0  0  0
   39.1150   24.4090   41.9340 C   0  0  0  0  0  0  0  0  0  0  0  0
   37.5920   24.6270   41.8720 C   0  0  0  0  0  0  0  0  0  0  0  0
   37.1570   25.9480   42.3960 C   0  0  0  0  0  0  0  0  0  0  0  0
   38.3320   26.8920   42.5920 C   0  0  0  0  0  0  0  0  0  0  0  0
   38.8050   26.3310   44.5650 H   0  0  0  0  0  0  0  0  0  0  0  0
   40.7390   24.6470   43.2510 H   0  0  0  0  0  0  0  0  0  0  0  0
   39.2090   24.1710   44.0170 H   0  0  0  0  0  0  0  0  0  0  0  0
   39.5630   24.8200   41.0350 H   0  0  0  0  0  0  0  0  0  0  0  0
   39.2520   23.2940   41.8630 H   0  0  0  0  0  0  0  0  0  0  0  0
   37.3280   24.4450   40.7970 H   0  0  0  0  0  0  0  0  0  0  0  0
   37.1060   23.7750   42.4290 H   0  0  0  0  0  0  0  0  0  0  0  0
   36.4520   26.4670   41.7370 H   0  0  0  0  0  0  0  0  0  0  0  0
   36.7050   25.8140   43.4110 H   0  0  0  0  0  0  0  0  0  0  0  0
   37.9920   27.8500   42.9880 H   0  0  0  0  0  0  0  0  0  0  0  0
   38.8870   27.0160   41.6360 H   0  0  0  0  0  0  0  0  0  0  0  0
   41.8500   30.3760   42.5490 C   0  0  0  0  0  0  0  0  0  0  0  0
   42.9720   31.0650   42.8100 N   0  0  0  0  0  0  0  0  0  0  0  0
   42.9230   32.2600   42.1620 C   0  0  0  0  0  0  0  0  0  0  0  0
   41.7510   32.2880   41.4990 N   0  0  0  0  0  0  0  0  0  0  0  0
   41.0930   31.1500   41.7270 N   0  0  0  0  0  0  0  0  0  0  0  0
   43.6730   33.0540   42.1630 H   0  0  0  0  0  0  0  0  0  0  0  0
   41.2530   33.3410   40.6460 C   0  0  0  0  0  0  0  0  0  0  0  0
   41.1460   34.2740   41.2680 H   0  0  0  0  0  0  0  0  0  0  0  0
   41.9050   33.6080   39.8320 H   0  0  0  0  0  0  0  0  0  0  0  0
   39.9150   32.9920   40.1680 C   0  0  0  0  0  3  0  0  0  0  0  0
   38.7810   33.6560   40.0290 C   0  0  0  0  0  3  0  0  0  0  0  0
   37.4630   33.1540   39.4160 C   0  0  0  0  0  0  0  0  0  0  0  0
   37.6740   32.4950   38.5590 H   0  0  0  0  0  0  0  0  0  0  0  0
   36.9390   34.0790   39.1440 H   0  0  0  0  0  0  0  0  0  0  0  0
   36.5700   30.4370   39.3180 N   0  0  0  0  0  0  0  0  0  0  0  0
   36.4130   31.0770   40.4110 C   0  0  0  0  0  0  0  0  0  0  0  0
   36.6960   32.4860   40.4370 N   0  0  0  0  0  0  0  0  0  0  0  0
   35.9690   30.4380   41.5990 N   0  0  0  0  0  0  0  0  0  0  0  0
   36.6490   30.0160   42.2900 H   0  0  0  0  0  0  0  0  0  0  0  0
   36.8980   30.9250   38.4600 H   0  0  0  0  0  0  0  0  0  0  0  0
   36.2990   33.0070   41.2620 H   0  0  0  0  0  0  0  0  0  0  0  0
   35.2020   30.1260   42.2320 H   0  0  0  0  0  0  0  0  0  0  0  0
  1  2  1  0  0  0  0
  2  3  2  0  0  0  0
  2  7  1  0  0  0  0
  3  8  1  0  0  0  0
  4  3  1  0  0  0  0
  5  4  2  0  0  0  0
  6  5  1  0  0  0  0
  6  1  2  0  0  0  0
  9  1  1  0  0  0  0
  9 15  1  0  0  0  0
 10 16  1  0  0  0  0
 10  9  1  0  0  0  0
 10 17  1  0  0  0  0
 11 10  1  0  0  0  0
 12 11  1  0  0  0  0
 12 13  1  0  0  0  0
 12 21  1  0  0  0  0
 13 14  1  0  0  0  0
 13 23  1  0  0  0  0
 14 24  1  0  0  0  0
 14  9  1  0  0  0  0
 18 11  1  0  0  0  0
 19 11  1  0  0  0  0
 20 12  1  0  0  0  0
 22 13  1  0  0  0  0
 25 14  1  0  0  0  0
 26 27  1  0  0  0  0
 26  5  1  0  0  0  0
 28 31  1  0  0  0  0
 28 27  2  0  0  0  0
 29 30  1  0  0  0  0
 29 28  1  0  0  0  0
 30 26  2  0  0  0  0
 32 33  1  0  0  0  0
 32 29  1  0  0  0  0
 34 32  1  0  0  0  0
 35 32  1  0  0  0  0
 36 35  2  0  0  0  0
 37 36  1  0  0  0  0
 37 42  1  0  0  0  0
 38 37  1  0  0  0  0
 39 37  1  0  0  0  0
 40 41  2  0  0  0  0
 41 42  1  0  0  0  0
 41 43  1  0  0  0  0
 42 46  1  0  0  0  0
 43 47  1  0  0  0  0
 43 44  1  0  0  0  0
 45 40  1  0  0  0  0
M  END
>  <minimizedAffinity>
-6.04271126

$$$$

 OpenBabel03242519333D

 47 49  0  0  0  0  0  0  0  0999 V2000
   36.9600   25.3440   40.8360 C   0  0  0  0  0  0  0  0  0  0  0  0
   36.3150   24.1600   40.3740 C   0  0  0  0  0  0  0  0  0  0  0  0
   35.6810   24.1490   39.1250 C   0  0  0  0  0  0  0  0  0  0  0  0
   35.7240   25.3190   38.4050 N   0  0  0  0  0  0  0  0  0  0  0  0
   36.3590   26.4370   38.8960 C   0  0  0  0  0  0  0  0  0  0  0  0
   36.9490   26.4220   40.0730 N   0  0  0  0  0  0  0  0  0  0  0  0
   36.2400   23.2060   40.8800 H   0  0  0  0  0  0  0  0  0  0  0  0
   35.1850   23.2980   38.7260 H   0  0  0  0  0  0  0  0  0  0  0  0
   37.5790   25.2200   42.1580 C   0  0  0  0  0  0  0  0  0  0  0  0
   37.7270   26.4590   42.8800 C   0  0  0  0  0  0  0  0  0  0  0  0
   39.1260   26.8990   43.0760 C   0  0  0  0  0  0  0  0  0  0  0  0
   39.9450   25.7970   43.7740 C   0  0  0  0  0  0  0  0  0  0  0  0
   39.7040   24.4380   43.2260 C   0  0  0  0  0  0  0  0  0  0  0  0
   38.9380   24.4860   41.9130 C   0  0  0  0  0  0  0  0  0  0  0  0
   36.9980   24.4360   42.7290 H   0  0  0  0  0  0  0  0  0  0  0  0
   37.1690   27.2950   42.4100 H   0  0  0  0  0  0  0  0  0  0  0  0
   37.2800   26.3490   43.9090 H   0  0  0  0  0  0  0  0  0  0  0  0
   39.6760   27.2430   42.2050 H   0  0  0  0  0  0  0  0  0  0  0  0
   39.1250   27.7620   43.7990 H   0  0  0  0  0  0  0  0  0  0  0  0
   41.0080   26.1470   43.6940 H   0  0  0  0  0  0  0  0  0  0  0  0
   39.7130   25.8520   44.8760 H   0  0  0  0  0  0  0  0  0  0  0  0
   40.6250   23.8790   43.0230 H   0  0  0  0  0  0  0  0  0  0  0  0
   39.0550   23.8620   43.9330 H   0  0  0  0  0  0  0  0  0  0  0  0
   38.7620   23.4770   41.5350 H   0  0  0  0  0  0  0  0  0  0  0  0
   39.4840   25.1130   41.1740 H   0  0  0  0  0  0  0  0  0  0  0  0
   36.2960   27.5810   37.9940 C   0  0  0  0  0  0  0  0  0  0  0  0
   35.3190   27.6390   37.0760 N   0  0  0  0  0  0  0  0  0  0  0  0
   35.4540   28.7820   36.3510 C   0  0  0  0  0  0  0  0  0  0  0  0
   36.5300   29.4240   36.8440 N   0  0  0  0  0  0  0  0  0  0  0  0
   37.0480   28.7030   37.8410 N   0  0  0  0  0  0  0  0  0  0  0  0
   34.8250   29.1320   35.5280 H   0  0  0  0  0  0  0  0  0  0  0  0
   37.0620   30.6960   36.4180 C   0  0  0  0  0  0  0  0  0  0  0  0
   37.8790   30.5000   35.6660 H   0  0  0  0  0  0  0  0  0  0  0  0
   36.3550   31.3360   35.9180 H   0  0  0  0  0  0  0  0  0  0  0  0
   37.6840   31.3720   37.5570 C   0  0  0  0  0  3  0  0  0  0  0  0
   37.2260   32.0860   38.5700 C   0  0  0  0  0  3  0  0  0  0  0  0
   38.0220   32.6630   39.7530 C   0  0  0  0  0  0  0  0  0  0  0  0
   38.8560   31.9900   40.0090 H   0  0  0  0  0  0  0  0  0  0  0  0
   37.2690   32.7550   40.5470 H   0  0  0  0  0  0  0  0  0  0  0  0
   38.8010   34.6900   41.6160 N   0  0  0  0  0  0  0  0  0  0  0  0
   39.0110   34.9070   40.3760 C   0  0  0  0  0  0  0  0  0  0  0  0
   38.4780   33.9860   39.4110 N   0  0  0  0  0  0  0  0  0  0  0  0
   39.7530   36.0310   39.9250 N   0  0  0  0  0  0  0  0  0  0  0  0
   40.8010   35.9860   39.7890 H   0  0  0  0  0  0  0  0  0  0  0  0
   38.2560   33.8600   41.9240 H   0  0  0  0  0  0  0  0  0  0  0  0
   38.4420   34.3460   38.4210 H   0  0  0  0  0  0  0  0  0  0  0  0
   39.8020   37.0240   39.6130 H   0  0  0  0  0  0  0  0  0  0  0  0
  1  9  1  0  0  0  0
  2  1  1  0  0  0  0
  2  7  1  0  0  0  0
  3  2  2  0  0  0  0
  4  5  2  0  0  0  0
  4  3  1  0  0  0  0
  5  6  1  0  0  0  0
  6  1  2  0  0  0  0
  8  3  1  0  0  0  0
  9 15  1  0  0  0  0
  9 10  1  0  0  0  0
 10 11  1  0  0  0  0
 10 17  1  0  0  0  0
 11 12  1  0  0  0  0
 11 19  1  0  0  0  0
 12 21  1  0  0  0  0
 13 12  1  0  0  0  0
 13 23  1  0  0  0  0
 14  9  1  0  0  0  0
 14 13  1  0  0  0  0
 16 10  1  0  0  0  0
 18 11  1  0  0  0  0
 20 12  1  0  0  0  0
 22 13  1  0  0  0  0
 24 14  1  0  0  0  0
 25 14  1  0  0  0  0
 26  5  1  0  0  0  0
 27 26  1  0  0  0  0
 28 29  1  0  0  0  0
 28 27  2  0  0  0  0
 29 30  1  0  0  0  0
 30 26  2  0  0  0  0
 31 28  1  0  0  0  0
 32 29  1  0  0  0  0
 32 35  1  0  0  0  0
 33 32  1  0  0  0  0
 34 32  1  0  0  0  0
 35 36  2  0  0  0  0
 36 37  1  0  0  0  0
 37 38  1  0  0  0  0
 37 39  1  0  0  0  0
 40 45  1  0  0  0  0
 41 40  2  0  0  0  0
 42 37  1  0  0  0  0
 42 41  1  0  0  0  0
 43 41  1  0  0  0  0
 44 43  1  0  0  0  0
 46 42  1  0  0  0  0
 47 43  1  0  0  0  0
M  END
>  <minimizedAffinity>
-6.0340538

$$$$
