
     RDKit          3D

 41 43  0  0  0  0  0  0  0  0999 V2000
   46.5211   34.3681   42.9962 C   0  0  0  0  0  0  0  0  0  0  0  0
   45.2843   34.7412   43.4761 C   0  0  0  0  0  0  0  0  0  0  0  0
   44.9582   34.4144   44.7982 C   0  0  0  0  0  0  0  0  0  0  0  0
   45.8778   33.7523   45.5229 N   0  0  0  0  0  0  0  0  0  0  0  0
   47.0744   33.3968   45.0433 C   0  0  0  0  0  0  0  0  0  0  0  0
   47.3860   33.7085   43.7817 N   0  0  0  0  0  0  0  0  0  0  0  0
   46.9209   34.6807   41.6229 C   0  0  0  0  0  0  0  0  0  0  0  0
   48.2781   35.3288   41.6484 C   0  0  0  0  0  0  0  0  0  0  0  0
   44.4565   35.4192   42.5931 O   0  0  0  0  0  0  0  0  0  0  0  0
   43.6897   34.8572   40.1337 O   0  0  0  0  0  0  0  0  0  0  0  0
   43.2605   34.7393   41.5903 P   0  0  1  0  0  0  0  0  0  0  0  0
   43.1483   33.0873   41.9855 O   0  0  0  0  0  0  0  0  0  0  0  0
   41.7325   35.4242   41.8278 O   0  0  0  0  0  0  0  0  0  0  0  0
   40.6322   34.7686   41.2966 C   0  0  0  0  0  0  0  0  0  0  0  0
   39.9859   35.3419   40.2161 C   0  0  0  0  0  0  0  0  0  0  0  0
   38.8764   34.7531   39.6226 C   0  0  0  0  0  0  0  0  0  0  0  0
   38.4251   33.5681   40.1393 N   0  0  0  0  0  0  0  0  0  0  0  0
   39.0554   33.0264   41.1790 C   0  0  0  0  0  0  0  0  0  0  0  0
   40.1178   33.5967   41.7422 N   0  0  0  0  0  0  0  0  0  0  0  0
   43.9997   34.7129   45.1441 H   0  0  0  0  0  0  0  0  0  0  0  0
   47.8286   32.8626   45.6129 H   0  0  0  0  0  0  0  0  0  0  0  0
   46.1895   35.3805   41.1618 H   0  0  0  0  0  0  0  0  0  0  0  0
   46.9633   33.7706   40.9920 H   0  0  0  0  0  0  0  0  0  0  0  0
   49.0445   34.5719   41.8152 H   0  0  0  0  0  0  0  0  0  0  0  0
   48.2734   36.1033   42.4417 H   0  0  0  0  0  0  0  0  0  0  0  0
   48.4487   35.7893   40.6442 H   0  0  0  0  0  0  0  0  0  0  0  0
   43.0735   33.0101   42.9592 H   0  0  0  0  0  0  0  0  0  0  0  0
   40.3538   36.2664   39.8283 H   0  0  0  0  0  0  0  0  0  0  0  0
   38.3937   35.2380   38.7703 H   0  0  0  0  0  0  0  0  0  0  0  0
   38.5311   31.7934   41.6641 N   0  0  0  0  0  0  0  0  0  0  0  0
   38.1677   30.8132   40.7971 C   0  0  0  0  0  0  0  0  0  0  0  0
   37.6723   29.6603   41.3717 C   0  0  0  0  0  0  0  0  0  0  0  0
   37.5259   29.4431   42.7275 C   0  0  0  0  0  0  0  0  0  0  0  0
   37.0075   28.2289   43.2525 N   0  0  0  0  0  0  0  0  0  0  0  0
   37.9119   30.4698   43.5081 N   0  0  0  0  0  0  0  0  0  0  0  0
   38.4049   31.6226   42.9876 C   0  0  0  0  0  0  0  0  0  0  0  0
   38.7441   32.5355   43.7797 O   0  0  0  0  0  0  0  0  0  0  0  0
   38.2590   30.9255   39.7306 H   0  0  0  0  0  0  0  0  0  0  0  0
   37.3805   28.8731   40.6759 H   0  0  0  0  0  0  0  0  0  0  0  0
   36.6903   27.5112   42.5707 H   0  0  0  0  0  0  0  0  0  0  0  0
   36.9805   28.1399   44.2952 H   0  0  0  0  0  0  0  0  0  0  0  0
  1  2  2  0
  1  6  1  0
  2  3  1  0
  3  4  2  0
  5  4  1  0
  6  5  2  0
  7  8  1  0
  7  1  1  0
  9  2  1  0
 11 10  2  0
 11 13  1  6
 11 12  1  0
 11  9  1  0
 14 19  1  0
 14 13  1  0
 15 14  2  0
 16 17  2  0
 16 15  1  0
 17 18  1  0
 18 19  2  0
  3 20  1  0
  5 21  1  0
  7 22  1  0
  7 23  1  0
  8 24  1  0
  8 25  1  0
  8 26  1  0
 12 27  1  0
 15 28  1  0
 16 29  1  0
 30 31  1  0
 31 32  2  0
 32 33  1  0
 33 34  1  0
 33 35  2  0
 35 36  1  0
 36 37  2  0
 36 30  1  0
 31 38  1  0
 32 39  1  0
 34 40  1  0
 34 41  1  0
 18 30  1  0
M  ISO  8  20  14  21  14  22   8  23   8  24   8  25   8  26   8  27   3
M  ISO  2  28  14  29  14
M  END
>  <DihAtoms>  (1) 
16,17,29,30

>  <DihDeg>  (1) 
74.00966307827362

$$$$
