
 OpenBabel03252503433D

 35 37  0  0  1  0  0  0  0  0999 V2000
   45.3240   34.7590   44.5240 C   0  0  0  0  0  0  0  0  0  0  0  0
   45.8520   34.2440   43.3320 C   0  0  0  0  0  0  0  0  0  0  0  0
   46.3910   32.9460   43.3950 C   0  0  0  0  0  0  0  0  0  0  0  0
   46.3770   32.2750   44.5610 N   0  0  0  0  0  0  0  0  0  0  0  0
   45.8610   32.8010   45.6840 C   0  0  0  0  0  0  0  0  0  0  0  0
   45.3270   34.0510   45.6830 N   0  0  0  0  0  0  0  0  0  0  0  0
   44.8830   35.7440   44.6020 H   0  0  0  0  0  0  0  0  0  0  0  0
   46.7970   32.5570   42.4700 H   0  0  0  0  0  0  0  0  0  0  0  0
   47.3020   31.8710   47.4890 C   0  0  2  0  0  0  0  0  0  0  0  0
   45.8860   31.9760   46.8800 C   0  0  1  0  0  0  0  0  0  0  0  0
   45.2060   32.4750   47.9570 O   0  0  0  0  0  0  0  0  0  0  0  0
   45.5960   31.7750   49.0570 C   0  0  0  0  0  0  0  0  0  0  0  0
   46.9170   31.0980   48.7550 C   0  0  2  0  0  0  0  0  0  0  0  0
   47.9850   31.3090   46.8540 H   0  0  0  0  0  0  0  0  0  0  0  0
   45.5350   30.9420   46.6290 H   0  0  0  0  0  0  0  0  0  0  0  0
   44.8480   31.0220   49.3810 H   0  0  0  0  0  0  0  0  0  0  0  0
   45.7580   32.4560   49.9230 H   0  0  0  0  0  0  0  0  0  0  0  0
   46.7520   30.0530   48.4520 H   0  0  0  0  0  0  0  0  0  0  0  0
   47.7040   33.1010   47.8970 O   0  0  0  0  0  0  0  0  0  0  0  0
   47.8520   33.7650   47.1820 H   0  0  0  0  0  0  0  0  0  0  0  0
   47.8410   31.2170   49.7600 O   0  0  0  0  0  0  0  0  0  0  0  0
   48.7490   31.2170   49.3840 H   0  0  0  0  0  0  0  0  0  0  0  0
   45.7920   35.0930   42.1430 C   0  0  0  0  0  0  0  0  0  0  0  0
   46.8600   35.2990   41.8330 H   0  0  0  0  0  0  0  0  0  0  0  0
   45.4010   36.0990   42.3990 H   0  0  0  0  0  0  0  0  0  0  0  0
   45.0400   34.5340   41.0410 N   0  0  0  0  0  0  0  0  0  0  0  0
   45.6430   33.6760   40.1980 C   0  0  0  0  0  3  0  0  0  0  0  0
   44.9070   33.1440   39.1400 C   0  0  0  0  0  3  0  0  0  0  0  0
   43.5920   33.5490   39.0410 C   0  0  0  0  0  0  0  0  0  0  0  0
   42.7970   33.0360   37.9800 N   0  0  0  0  0  0  0  0  0  0  0  0
   43.0170   34.4170   39.9120 N   0  0  0  0  0  0  0  0  0  0  0  0
   43.7520   34.9160   40.9240 C   0  0  0  0  0  0  0  0  0  0  0  0
   43.1710   35.7030   41.6840 O   0  0  0  0  0  0  0  0  0  0  0  0
   42.1410   32.3470   38.4490 H   0  0  0  0  0  0  0  0  0  0  0  0
   42.5940   33.0530   36.9640 H   0  0  0  0  0  0  0  0  0  0  0  0
  1  7  1  0  0  0  0
  1  6  1  0  0  0  0
  2  3  1  0  0  0  0
  2  1  2  0  0  0  0
  3  4  2  0  0  0  0
  4  5  1  0  0  0  0
  5 10  1  0  0  0  0
  6  5  2  0  0  0  0
  8  3  1  0  0  0  0
  9 14  1  6  0  0  0
  9 19  1  0  0  0  0
  9 13  1  0  0  0  0
 10 15  1  6  0  0  0
 10  9  1  0  0  0  0
 10 11  1  0  0  0  0
 11 12  1  0  0  0  0
 12 16  1  0  0  0  0
 12 17  1  0  0  0  0
 13 18  1  6  0  0  0
 13 12  1  0  0  0  0
 13 21  1  0  0  0  0
 20 19  1  0  0  0  0
 22 21  1  0  0  0  0
 23 25  1  0  0  0  0
 23  2  1  0  0  0  0
 24 23  1  0  0  0  0
 26 23  1  0  0  0  0
 27 26  1  0  0  0  0
 28 27  2  0  0  0  0
 29 28  1  0  0  0  0
 29 31  2  0  0  0  0
 30 34  1  0  0  0  0
 30 29  1  0  0  0  0
 31 32  1  0  0  0  0
 32 26  1  0  0  0  0
 32 33  2  0  0  0  0
 35 30  1  0  0  0  0
M  END
>  <minimizedAffinity>
-6.10802221

>  <minimizedRMSD>
1.79242337

$$$$
