REMARK  Name = 
REMARK  4 active torsions:
REMARK  status: ('A' for Active; 'I' for Inactive)
REMARK    1  A    between atoms: C_1  and  C_8
REMARK    2  A    between atoms: C_3  and  N_10
REMARK    3  A    between atoms: N_10  and  C_11
REMARK    4  A    between atoms: C_19  and  N_35
REMARK                            x       y       z     vdW  Elec       q    Type
REMARK                         _______ _______ _______ _____ _____    ______ ____
ROOT
ATOM      1  C   UNL     1      45.791  32.217  43.528  0.00  0.00    +0.000 A 
ATOM      2  C   UNL     1      46.157  31.520  44.671  0.00  0.00    +0.000 A 
ATOM      3  C   UNL     1      46.117  32.074  45.950  0.00  0.00    +0.000 A 
ATOM      4  C   UNL     1      45.696  33.376  46.115  0.00  0.00    +0.000 A 
ATOM      5  C   UNL     1      45.330  34.088  45.024  0.00  0.00    +0.000 A 
ATOM      6  C   UNL     1      44.899  35.392  45.156  0.00  0.00    +0.000 A 
ATOM      7  C   UNL     1      44.510  36.166  44.095  0.00  0.00    +0.000 A 
ATOM      8  C   UNL     1      44.566  35.574  42.838  0.00  0.00    +0.000 A 
ATOM      9  C   UNL     1      45.000  34.261  42.708  0.00  0.00    +0.000 A 
ATOM     10  C   UNL     1      45.384  33.501  43.771  0.00  0.00    +0.000 A 
ATOM     11  H   UNL     1      46.499  30.495  44.660  0.00  0.00    +0.000 HD
ATOM     12  H   UNL     1      46.406  31.517  46.829  0.00  0.00    +0.000 HD
ATOM     13  H   UNL     1      45.664  33.808  47.108  0.00  0.00    +0.000 HD
ATOM     14  H   UNL     1      44.877  35.797  46.156  0.00  0.00    +0.000 HD
ATOM     15  H   UNL     1      44.189  37.181  44.320  0.00  0.00    +0.000 HD
ATOM     16  H   UNL     1      44.238  36.266  42.062  0.00  0.00    +0.000 HD
ENDROOT
BRANCH   9  17
ATOM     17  N   UNL     1      44.950  33.933  41.333  0.00  0.00    +0.000 N 
ATOM     18  C   UNL     1      44.952  32.821  40.581  0.00  0.00    +0.000 A 
ATOM     19  C   UNL     1      44.847  32.843  39.212  0.00  0.00    +0.000 A 
ATOM     20  C   UNL     1      44.731  34.027  38.519  0.00  0.00    +0.000 A 
ATOM     21  N   UNL     1      44.631  33.897  37.112  0.00  0.00    +0.000 N 
ATOM     22  N   UNL     1      44.723  35.180  39.226  0.00  0.00    +0.000 NA
ATOM     23  C   UNL     1      44.832  35.080  40.583  0.00  0.00    +0.000 A 
ATOM     24  O   UNL     1      44.802  36.274  41.048  0.00  0.00    +0.000 OA
ATOM     25  H   UNL     1      43.892  33.238  36.770  0.00  0.00    +0.000 HD
ATOM     26  H   UNL     1      45.356  34.521  36.701  0.00  0.00    +0.000 HD
ENDBRANCH   9  17
BRANCH   1  27
ATOM     27  N   UNL     1      45.869  31.565  42.291  0.00  0.00    +0.000 N 
ATOM     28  H   UNL     1      44.859  31.343  42.287  0.00  0.00    +0.000 HD
BRANCH  27  31
ATOM     29  C   UNL     1      48.318  30.920  42.227  0.00  0.00    +0.000 C 
ATOM     30  C   UNL     1      48.227  32.398  41.908  0.00  0.00    +0.000 C 
ATOM     31  C   UNL     1      47.110  31.415  41.584  0.00  0.00    +0.000 C 
ATOM     32  H   UNL     1      48.453  30.788  43.330  0.00  0.00    +0.000 HD
ATOM     33  H   UNL     1      48.839  32.693  41.016  0.00  0.00    +0.000 HD
ATOM     34  H   UNL     1      48.004  33.139  42.673  0.00  0.00    +0.000 HD
ATOM     35  H   UNL     1      46.960  31.094  40.526  0.00  0.00    +0.000 HD
BRANCH  29  40
ATOM     36  C   UNL     1      49.795  28.731  39.632  0.00  0.00    +0.000 A 
ATOM     37  C   UNL     1      51.115  28.530  40.142  0.00  0.00    +0.000 A 
ATOM     38  C   UNL     1      51.463  29.164  41.363  0.00  0.00    +0.000 A 
ATOM     39  N   UNL     1      50.553  29.920  41.983  0.00  0.00    +0.000 NA
ATOM     40  C   UNL     1      49.307  30.091  41.473  0.00  0.00    +0.000 A 
ATOM     41  N   UNL     1      48.924  29.498  40.295  0.00  0.00    +0.000 NA
ATOM     42  H   UNL     1      49.535  28.245  38.701  0.00  0.00    +0.000 HD
ATOM     43  H   UNL     1      51.775  27.905  39.570  0.00  0.00    +0.000 HD
ATOM     44  H   UNL     1      52.458  29.002  41.730  0.00  0.00    +0.000 HD
ENDBRANCH  29  40
ENDBRANCH  27  31
ENDBRANCH   1  27
TORSDOF 4
