
 OpenBabel03252506303D

 48 52  0  0  0  0  0  0  0  0999 V2000
   38.3070   31.4010   39.3910 C   0  0  0  0  0  0  0  0  0  0  0  0
   37.4550   31.9710   40.3730 C   0  0  0  0  0  0  0  0  0  0  0  0
   36.3750   31.1740   40.5150 C   0  0  0  0  0  0  0  0  0  0  0  0
   36.5410   30.1560   39.6650 N   0  0  0  0  0  0  0  0  0  0  0  0
   37.6920   30.2870   38.9920 N   0  0  0  0  0  0  0  0  0  0  0  0
   37.6790   32.9020   40.8990 H   0  0  0  0  0  0  0  0  0  0  0  0
   35.5360   31.3260   41.1840 H   0  0  0  0  0  0  0  0  0  0  0  0
   41.0770   32.4500   37.2680 C   0  0  0  0  0  0  0  0  0  0  0  0
   41.9430   33.0910   38.1370 C   0  0  0  0  0  0  0  0  0  0  0  0
   41.5590   33.1610   39.4720 C   0  0  0  0  0  0  0  0  0  0  0  0
   40.3760   32.6010   39.8360 N   0  0  0  0  0  0  0  0  0  0  0  0
   39.5640   31.9900   38.9810 C   0  0  0  0  0  0  0  0  0  0  0  0
   39.9260   31.9180   37.6840 N   0  0  0  0  0  0  0  0  0  0  0  0
   41.4330   32.4290   36.2440 H   0  0  0  0  0  0  0  0  0  0  0  0
   42.8860   33.5580   37.9450 H   0  0  0  0  0  0  0  0  0  0  0  0
   42.2610   33.7630   40.5710 N   0  0  0  0  0  0  0  0  0  0  0  0
   43.1860   33.1440   41.3270 C   0  0  0  0  0  3  0  0  0  0  0  0
   43.7980   33.8390   42.3680 C   0  0  0  0  0  3  0  0  0  0  0  0
   43.4140   35.1490   42.5710 C   0  0  0  0  0  0  0  0  0  0  0  0
   44.0480   35.8490   43.6410 N   0  0  0  0  0  0  0  0  0  0  0  0
   42.4840   35.7270   41.7900 N   0  0  0  0  0  0  0  0  0  0  0  0
   41.8890   35.0410   40.7710 C   0  0  0  0  0  0  0  0  0  0  0  0
   41.0310   35.6600   40.0910 O   0  0  0  0  0  0  0  0  0  0  0  0
   43.8590   36.1910   44.6210 H   0  0  0  0  0  0  0  0  0  0  0  0
   45.0250   36.0830   43.3010 H   0  0  0  0  0  0  0  0  0  0  0  0
   35.6140   29.0510   39.4810 C   0  0  0  0  0  0  0  0  0  0  0  0
   34.7930   29.1150   40.1940 H   0  0  0  0  0  0  0  0  0  0  0  0
   35.1840   29.0730   38.4470 H   0  0  0  0  0  0  0  0  0  0  0  0
   36.3240   27.7470   39.6310 C   0  0  0  0  0  0  0  0  0  0  0  0
   36.9910   27.6270   38.7510 H   0  0  0  0  0  0  0  0  0  0  0  0
   35.5550   26.9270   39.5300 H   0  0  0  0  0  0  0  0  0  0  0  0
   36.8040   28.0550   42.1300 C   0  0  0  0  0  0  0  0  0  0  0  0
   37.0290   27.5200   40.8760 C   0  0  0  0  0  0  0  0  0  0  0  0
   38.0960   26.6220   40.7800 C   0  0  0  0  0  0  0  0  0  0  0  0
   38.8650   26.2960   41.8610 C   0  0  0  0  0  0  0  0  0  0  0  0
   39.9270   25.4850   42.0670 N   0  0  0  0  0  0  0  0  0  0  0  0
   40.3240   25.5170   43.3400 C   0  0  0  0  0  0  0  0  0  0  0  0
   39.5050   26.3830   44.0410 C   0  0  0  0  0  0  0  0  0  0  0  0
   38.6260   26.8380   43.1010 C   0  0  0  0  0  0  0  0  0  0  0  0
   37.5800   27.7230   43.2110 C   0  0  0  0  0  0  0  0  0  0  0  0
   35.9680   28.7460   42.1600 H   0  0  0  0  0  0  0  0  0  0  0  0
   38.3820   26.1290   39.8550 H   0  0  0  0  0  0  0  0  0  0  0  0
   40.3680   24.9130   41.3090 H   0  0  0  0  0  0  0  0  0  0  0  0
   41.1640   24.9360   43.7160 H   0  0  0  0  0  0  0  0  0  0  0  0
   39.6180   26.5850   45.0980 H   0  0  0  0  0  0  0  0  0  0  0  0
   37.2780   28.3320   44.5040 C   0  0  0  0  0  0  0  0  0  0  0  0
   36.2730   27.9720   45.1780 O   0  0  0  0  0  0  0  0  0  0  0  0
   37.9010   29.1110   44.9320 H   0  0  0  0  0  0  0  0  0  0  0  0
  1  2  1  0  0  0  0
  2  3  2  0  0  0  0
  2  6  1  0  0  0  0
  3  7  1  0  0  0  0
  4  3  1  0  0  0  0
  5  1  2  0  0  0  0
  5  4  1  0  0  0  0
  8 13  2  0  0  0  0
  8  9  1  0  0  0  0
  9 10  2  0  0  0  0
 10 11  1  0  0  0  0
 10 16  1  0  0  0  0
 12  1  1  0  0  0  0
 12 11  2  0  0  0  0
 13 12  1  0  0  0  0
 14  8  1  0  0  0  0
 15  9  1  0  0  0  0
 16 22  1  0  0  0  0
 16 17  1  0  0  0  0
 17 18  2  0  0  0  0
 18 19  1  0  0  0  0
 19 20  1  0  0  0  0
 20 24  1  0  0  0  0
 21 19  2  0  0  0  0
 22 21  1  0  0  0  0
 23 22  2  0  0  0  0
 25 20  1  0  0  0  0
 26 29  1  0  0  0  0
 26  4  1  0  0  0  0
 26 27  1  0  0  0  0
 28 26  1  0  0  0  0
 29 33  1  0  0  0  0
 30 29  1  0  0  0  0
 31 29  1  0  0  0  0
 32 41  1  0  0  0  0
 32 40  1  0  0  0  0
 33 32  2  0  0  0  0
 34 33  1  0  0  0  0
 34 35  2  0  0  0  0
 35 36  1  0  0  0  0
 35 39  1  0  0  0  0
 36 37  1  0  0  0  0
 37 44  1  0  0  0  0
 37 38  2  0  0  0  0
 38 45  1  0  0  0  0
 39 40  2  0  0  0  0
 39 38  1  0  0  0  0
 40 46  1  0  0  0  0
 42 34  1  0  0  0  0
 43 36  1  0  0  0  0
 46 48  1  0  0  0  0
 46 47  2  0  0  0  0
M  END
>  <minimizedAffinity>
-7.12591314

$$$$

 OpenBabel03252506303D

 48 52  0  0  0  0  0  0  0  0999 V2000
   37.9240   31.3250   40.8210 C   0  0  0  0  0  0  0  0  0  0  0  0
   37.1900   32.0780   39.8680 C   0  0  0  0  0  0  0  0  0  0  0  0
   37.7430   33.3050   39.7770 C   0  0  0  0  0  0  0  0  0  0  0  0
   38.7710   33.3220   40.6310 N   0  0  0  0  0  0  0  0  0  0  0  0
   38.8840   32.1430   41.2570 N   0  0  0  0  0  0  0  0  0  0  0  0
   36.3290   31.6840   39.3230 H   0  0  0  0  0  0  0  0  0  0  0  0
   37.4200   34.1200   39.1410 H   0  0  0  0  0  0  0  0  0  0  0  0
   36.0190   28.2640   41.3540 C   0  0  0  0  0  0  0  0  0  0  0  0
   36.9550   27.3630   41.8290 C   0  0  0  0  0  0  0  0  0  0  0  0
   38.2610   27.8230   41.9640 C   0  0  0  0  0  0  0  0  0  0  0  0
   38.5310   29.1110   41.6280 N   0  0  0  0  0  0  0  0  0  0  0  0
   37.6120   29.9550   41.1740 C   0  0  0  0  0  0  0  0  0  0  0  0
   36.3440   29.5200   41.0390 N   0  0  0  0  0  0  0  0  0  0  0  0
   35.0220   27.8450   41.2720 H   0  0  0  0  0  0  0  0  0  0  0  0
   36.8370   26.3390   42.1160 H   0  0  0  0  0  0  0  0  0  0  0  0
   39.4150   27.1050   42.4280 N   0  0  0  0  0  0  0  0  0  0  0  0
   39.8830   27.1310   43.6880 C   0  0  0  0  0  3  0  0  0  0  0  0
   41.0170   26.3880   44.0150 C   0  0  0  0  0  3  0  0  0  0  0  0
   41.6070   25.6530   43.0070 C   0  0  0  0  0  0  0  0  0  0  0  0
   42.7670   24.8980   43.3550 N   0  0  0  0  0  0  0  0  0  0  0  0
   41.1040   25.6580   41.7600 N   0  0  0  0  0  0  0  0  0  0  0  0
   39.9940   26.3870   41.4470 C   0  0  0  0  0  0  0  0  0  0  0  0
   39.5920   26.3330   40.2560 O   0  0  0  0  0  0  0  0  0  0  0  0
   43.8170   24.9130   43.2450 H   0  0  0  0  0  0  0  0  0  0  0  0
   42.4190   24.0580   43.8990 H   0  0  0  0  0  0  0  0  0  0  0  0
   39.6550   34.4530   40.8640 C   0  0  0  0  0  0  0  0  0  0  0  0
   39.0960   35.3090   41.2370 H   0  0  0  0  0  0  0  0  0  0  0  0
   40.4360   34.1850   41.6230 H   0  0  0  0  0  0  0  0  0  0  0  0
   40.3750   34.8160   39.6080 C   0  0  0  0  0  0  0  0  0  0  0  0
   40.1680   35.8860   39.4020 H   0  0  0  0  0  0  0  0  0  0  0  0
   39.8850   34.2530   38.7610 H   0  0  0  0  0  0  0  0  0  0  0  0
   42.7230   34.4550   40.5720 C   0  0  0  0  0  0  0  0  0  0  0  0
   41.7930   34.5210   39.5520 C   0  0  0  0  0  0  0  0  0  0  0  0
   42.2790   34.2660   38.2670 C   0  0  0  0  0  0  0  0  0  0  0  0
   43.5920   33.9710   38.0370 C   0  0  0  0  0  0  0  0  0  0  0  0
   44.3300   33.6870   36.9390 N   0  0  0  0  0  0  0  0  0  0  0  0
   45.6070   33.4660   37.2550 C   0  0  0  0  0  0  0  0  0  0  0  0
   45.7590   33.6010   38.6220 C   0  0  0  0  0  0  0  0  0  0  0  0
   44.5040   33.9100   39.0640 C   0  0  0  0  0  0  0  0  0  0  0  0
   44.0410   34.1580   40.3340 C   0  0  0  0  0  0  0  0  0  0  0  0
   42.3040   34.6600   41.5520 H   0  0  0  0  0  0  0  0  0  0  0  0
   41.6560   34.2840   37.3760 H   0  0  0  0  0  0  0  0  0  0  0  0
   43.9290   33.6520   35.9730 H   0  0  0  0  0  0  0  0  0  0  0  0
   46.3680   33.2210   36.5150 H   0  0  0  0  0  0  0  0  0  0  0  0
   46.7040   33.4710   39.1320 H   0  0  0  0  0  0  0  0  0  0  0  0
   44.9630   34.1090   41.4650 C   0  0  0  0  0  0  0  0  0  0  0  0
   45.5770   35.1410   41.8540 O   0  0  0  0  0  0  0  0  0  0  0  0
   45.1550   33.1910   42.0120 H   0  0  0  0  0  0  0  0  0  0  0  0
  1 12  1  0  0  0  0
  1  5  2  0  0  0  0
  2  1  1  0  0  0  0
  3  2  2  0  0  0  0
  3  4  1  0  0  0  0
  4 26  1  0  0  0  0
  4  5  1  0  0  0  0
  6  2  1  0  0  0  0
  7  3  1  0  0  0  0
  8  9  1  0  0  0  0
  9 10  2  0  0  0  0
  9 15  1  0  0  0  0
 10 16  1  0  0  0  0
 11 10  1  0  0  0  0
 12 11  2  0  0  0  0
 13 12  1  0  0  0  0
 13  8  2  0  0  0  0
 14  8  1  0  0  0  0
 16 17  1  0  0  0  0
 17 18  2  0  0  0  0
 19 20  1  0  0  0  0
 19 18  1  0  0  0  0
 20 25  1  0  0  0  0
 21 19  2  0  0  0  0
 22 21  1  0  0  0  0
 22 16  1  0  0  0  0
 23 22  2  0  0  0  0
 24 20  1  0  0  0  0
 26 27  1  0  0  0  0
 26 28  1  0  0  0  0
 29 26  1  0  0  0  0
 30 29  1  0  0  0  0
 31 29  1  0  0  0  0
 32 41  1  0  0  0  0
 33 29  1  0  0  0  0
 33 32  2  0  0  0  0
 34 33  1  0  0  0  0
 35 34  2  0  0  0  0
 35 39  1  0  0  0  0
 36 37  1  0  0  0  0
 36 35  1  0  0  0  0
 37 38  2  0  0  0  0
 38 39  1  0  0  0  0
 38 45  1  0  0  0  0
 39 40  2  0  0  0  0
 40 32  1  0  0  0  0
 40 46  1  0  0  0  0
 42 34  1  0  0  0  0
 43 36  1  0  0  0  0
 44 37  1  0  0  0  0
 46 47  2  0  0  0  0
 46 48  1  0  0  0  0
M  END
>  <minimizedAffinity>
-7.08174992

$$$$

 OpenBabel03252506303D

 48 52  0  0  0  0  0  0  0  0999 V2000
   38.4580   30.6240   40.8290 C   0  0  0  0  0  0  0  0  0  0  0  0
   38.0840   30.8220   39.4740 C   0  0  0  0  0  0  0  0  0  0  0  0
   38.4470   32.0690   39.1090 C   0  0  0  0  0  0  0  0  0  0  0  0
   39.0190   32.6260   40.1820 N   0  0  0  0  0  0  0  0  0  0  0  0
   39.0280   31.7680   41.2100 N   0  0  0  0  0  0  0  0  0  0  0  0
   37.5870   30.0600   38.8680 H   0  0  0  0  0  0  0  0  0  0  0  0
   38.3040   32.5330   38.1410 H   0  0  0  0  0  0  0  0  0  0  0  0
   36.6970   27.8900   42.4750 C   0  0  0  0  0  0  0  0  0  0  0  0
   37.7090   27.0630   42.9290 C   0  0  0  0  0  0  0  0  0  0  0  0
   39.0160   27.4580   42.6580 C   0  0  0  0  0  0  0  0  0  0  0  0
   39.2130   28.6170   41.9770 N   0  0  0  0  0  0  0  0  0  0  0  0
   38.2230   29.3930   41.5540 C   0  0  0  0  0  0  0  0  0  0  0  0
   36.9530   29.0190   41.8100 N   0  0  0  0  0  0  0  0  0  0  0  0
   35.7040   27.5270   42.7180 H   0  0  0  0  0  0  0  0  0  0  0  0
   37.6520   26.1400   43.4670 H   0  0  0  0  0  0  0  0  0  0  0  0
   40.2390   26.7920   43.0090 N   0  0  0  0  0  0  0  0  0  0  0  0
   41.0230   27.1210   44.0520 C   0  0  0  0  0  3  0  0  0  0  0  0
   42.1900   26.3940   44.2880 C   0  0  0  0  0  3  0  0  0  0  0  0
   42.4810   25.3610   43.4230 C   0  0  0  0  0  0  0  0  0  0  0  0
   43.6790   24.6260   43.6760 N   0  0  0  0  0  0  0  0  0  0  0  0
   41.6680   25.0680   42.3920 N   0  0  0  0  0  0  0  0  0  0  0  0
   40.5270   25.7830   42.1670 C   0  0  0  0  0  0  0  0  0  0  0  0
   39.8250   25.4400   41.1810 O   0  0  0  0  0  0  0  0  0  0  0  0
   44.6630   24.5140   43.3100 H   0  0  0  0  0  0  0  0  0  0  0  0
   43.4710   24.0040   44.5080 H   0  0  0  0  0  0  0  0  0  0  0  0
   39.5610   33.9740   40.2440 C   0  0  0  0  0  0  0  0  0  0  0  0
   38.8070   34.7060   39.9600 H   0  0  0  0  0  0  0  0  0  0  0  0
   39.9040   34.2060   41.2850 H   0  0  0  0  0  0  0  0  0  0  0  0
   40.7540   34.0940   39.3540 C   0  0  0  0  0  0  0  0  0  0  0  0
   40.5330   34.8810   38.6030 H   0  0  0  0  0  0  0  0  0  0  0  0
   40.8340   33.1370   38.7620 H   0  0  0  0  0  0  0  0  0  0  0  0
   43.3060   33.9710   39.5670 C   0  0  0  0  0  0  0  0  0  0  0  0
   42.0360   34.3070   39.9960 C   0  0  0  0  0  0  0  0  0  0  0  0
   41.9610   34.9500   41.2350 C   0  0  0  0  0  0  0  0  0  0  0  0
   43.0760   35.2280   41.9730 C   0  0  0  0  0  0  0  0  0  0  0  0
   43.3100   35.8200   43.1660 N   0  0  0  0  0  0  0  0  0  0  0  0
   44.6130   35.8470   43.4490 C   0  0  0  0  0  0  0  0  0  0  0  0
   45.3070   35.2520   42.4130 C   0  0  0  0  0  0  0  0  0  0  0  0
   44.3320   34.8860   41.5300 C   0  0  0  0  0  0  0  0  0  0  0  0
   44.4220   34.2530   40.3140 C   0  0  0  0  0  0  0  0  0  0  0  0
   43.3170   33.4750   38.6030 H   0  0  0  0  0  0  0  0  0  0  0  0
   41.0270   35.2690   41.6900 H   0  0  0  0  0  0  0  0  0  0  0  0
   42.5480   36.2020   43.7750 H   0  0  0  0  0  0  0  0  0  0  0  0
   45.0130   36.2810   44.3650 H   0  0  0  0  0  0  0  0  0  0  0  0
   46.3840   35.1470   42.4010 H   0  0  0  0  0  0  0  0  0  0  0  0
   45.7290   33.8660   39.7920 C   0  0  0  0  0  0  0  0  0  0  0  0
   45.9070   33.6630   38.5580 O   0  0  0  0  0  0  0  0  0  0  0  0
   46.5920   33.7380   40.4380 H   0  0  0  0  0  0  0  0  0  0  0  0
  1  5  2  0  0  0  0
  1 12  1  0  0  0  0
  2  1  1  0  0  0  0
  3  2  2  0  0  0  0
  3  4  1  0  0  0  0
  4 26  1  0  0  0  0
  4  5  1  0  0  0  0
  6  2  1  0  0  0  0
  7  3  1  0  0  0  0
  8 14  1  0  0  0  0
  8  9  1  0  0  0  0
  9 15  1  0  0  0  0
 10  9  2  0  0  0  0
 10 16  1  0  0  0  0
 11 10  1  0  0  0  0
 12 13  1  0  0  0  0
 12 11  2  0  0  0  0
 13  8  2  0  0  0  0
 16 17  1  0  0  0  0
 17 18  2  0  0  0  0
 19 20  1  0  0  0  0
 19 18  1  0  0  0  0
 20 25  1  0  0  0  0
 21 19  2  0  0  0  0
 22 21  1  0  0  0  0
 22 16  1  0  0  0  0
 23 22  2  0  0  0  0
 24 20  1  0  0  0  0
 26 28  1  0  0  0  0
 27 26  1  0  0  0  0
 29 33  1  0  0  0  0
 29 26  1  0  0  0  0
 30 29  1  0  0  0  0
 31 29  1  0  0  0  0
 32 33  2  0  0  0  0
 32 40  1  0  0  0  0
 33 34  1  0  0  0  0
 34 42  1  0  0  0  0
 34 35  2  0  0  0  0
 35 36  1  0  0  0  0
 36 37  1  0  0  0  0
 36 43  1  0  0  0  0
 37 44  1  0  0  0  0
 38 37  2  0  0  0  0
 39 35  1  0  0  0  0
 39 38  1  0  0  0  0
 40 39  2  0  0  0  0
 41 32  1  0  0  0  0
 45 38  1  0  0  0  0
 46 40  1  0  0  0  0
 46 48  1  0  0  0  0
 47 46  2  0  0  0  0
M  END
>  <minimizedAffinity>
-7.04776669

$$$$

 OpenBabel03252506303D

 48 52  0  0  0  0  0  0  0  0999 V2000
   37.6430   31.5560   38.9600 C   0  0  0  0  0  0  0  0  0  0  0  0
   37.6050   31.0240   37.6440 C   0  0  0  0  0  0  0  0  0  0  0  0
   36.7900   29.9490   37.6430 C   0  0  0  0  0  0  0  0  0  0  0  0
   36.3400   29.8130   38.8940 N   0  0  0  0  0  0  0  0  0  0  0  0
   36.8450   30.7690   39.6840 N   0  0  0  0  0  0  0  0  0  0  0  0
   38.1600   31.4510   36.8050 H   0  0  0  0  0  0  0  0  0  0  0  0
   36.5460   29.3170   36.7980 H   0  0  0  0  0  0  0  0  0  0  0  0
   38.4820   34.8420   40.2940 C   0  0  0  0  0  0  0  0  0  0  0  0
   39.8420   34.9610   40.0670 C   0  0  0  0  0  0  0  0  0  0  0  0
   40.4730   33.8880   39.4440 C   0  0  0  0  0  0  0  0  0  0  0  0
   39.7240   32.8070   39.1020 N   0  0  0  0  0  0  0  0  0  0  0  0
   38.4200   32.7200   39.3320 C   0  0  0  0  0  0  0  0  0  0  0  0
   37.7990   33.7530   39.9350 N   0  0  0  0  0  0  0  0  0  0  0  0
   38.0510   35.7100   40.7810 H   0  0  0  0  0  0  0  0  0  0  0  0
   40.5080   35.7640   40.2990 H   0  0  0  0  0  0  0  0  0  0  0  0
   41.8590   33.7500   39.0950 N   0  0  0  0  0  0  0  0  0  0  0  0
   42.3890   34.0790   37.9030 C   0  0  0  0  0  3  0  0  0  0  0  0
   43.7550   33.8970   37.6870 C   0  0  0  0  0  3  0  0  0  0  0  0
   44.5000   33.3800   38.7260 C   0  0  0  0  0  0  0  0  0  0  0  0
   45.8960   33.1980   38.4900 N   0  0  0  0  0  0  0  0  0  0  0  0
   43.9260   33.0640   39.9010 N   0  0  0  0  0  0  0  0  0  0  0  0
   42.5890   33.2450   40.1070 C   0  0  0  0  0  0  0  0  0  0  0  0
   42.1370   32.9240   41.2360 O   0  0  0  0  0  0  0  0  0  0  0  0
   46.6010   32.4360   38.2980 H   0  0  0  0  0  0  0  0  0  0  0  0
   46.3290   34.1650   38.5300 H   0  0  0  0  0  0  0  0  0  0  0  0
   35.4280   28.7770   39.3540 C   0  0  0  0  0  0  0  0  0  0  0  0
   34.9370   29.0800   40.2770 H   0  0  0  0  0  0  0  0  0  0  0  0
   34.6390   28.5830   38.5830 H   0  0  0  0  0  0  0  0  0  0  0  0
   36.1620   27.4940   39.5600 C   0  0  0  0  0  0  0  0  0  0  0  0
   36.8020   27.3290   38.6680 H   0  0  0  0  0  0  0  0  0  0  0  0
   35.4020   26.6600   39.5340 H   0  0  0  0  0  0  0  0  0  0  0  0
   36.7220   27.9700   42.0160 C   0  0  0  0  0  0  0  0  0  0  0  0
   36.9090   27.3520   40.7940 C   0  0  0  0  0  0  0  0  0  0  0  0
   37.9760   26.4520   40.7220 C   0  0  0  0  0  0  0  0  0  0  0  0
   38.7810   26.2010   41.7960 C   0  0  0  0  0  0  0  0  0  0  0  0
   39.8540   25.4080   42.0210 N   0  0  0  0  0  0  0  0  0  0  0  0
   40.2920   25.5270   43.2750 C   0  0  0  0  0  0  0  0  0  0  0  0
   39.4930   26.4350   43.9440 C   0  0  0  0  0  0  0  0  0  0  0  0
   38.5810   26.8250   43.0040 C   0  0  0  0  0  0  0  0  0  0  0  0
   37.5360   27.7130   43.0900 C   0  0  0  0  0  0  0  0  0  0  0  0
   35.8850   28.6600   42.0270 H   0  0  0  0  0  0  0  0  0  0  0  0
   38.2340   25.8990   39.8230 H   0  0  0  0  0  0  0  0  0  0  0  0
   40.2720   24.7880   41.2880 H   0  0  0  0  0  0  0  0  0  0  0  0
   41.1470   24.9730   43.6610 H   0  0  0  0  0  0  0  0  0  0  0  0
   39.6400   26.7090   44.9800 H   0  0  0  0  0  0  0  0  0  0  0  0
   37.2740   28.4060   44.3480 C   0  0  0  0  0  0  0  0  0  0  0  0
   36.4230   27.9680   45.1730 O   0  0  0  0  0  0  0  0  0  0  0  0
   37.7970   29.3180   44.6230 H   0  0  0  0  0  0  0  0  0  0  0  0
  1 12  1  0  0  0  0
  1  5  2  0  0  0  0
  2  1  1  0  0  0  0
  3  2  2  0  0  0  0
  3  4  1  0  0  0  0
  4 26  1  0  0  0  0
  4  5  1  0  0  0  0
  6  2  1  0  0  0  0
  7  3  1  0  0  0  0
  8 14  1  0  0  0  0
  9  8  1  0  0  0  0
  9 15  1  0  0  0  0
 10  9  2  0  0  0  0
 11 12  2  0  0  0  0
 11 10  1  0  0  0  0
 12 13  1  0  0  0  0
 13  8  2  0  0  0  0
 16 10  1  0  0  0  0
 16 22  1  0  0  0  0
 17 16  1  0  0  0  0
 18 17  2  0  0  0  0
 18 19  1  0  0  0  0
 19 21  2  0  0  0  0
 20 25  1  0  0  0  0
 20 19  1  0  0  0  0
 21 22  1  0  0  0  0
 22 23  2  0  0  0  0
 24 20  1  0  0  0  0
 26 29  1  0  0  0  0
 26 27  1  0  0  0  0
 28 26  1  0  0  0  0
 29 33  1  0  0  0  0
 30 29  1  0  0  0  0
 31 29  1  0  0  0  0
 32 41  1  0  0  0  0
 32 40  1  0  0  0  0
 33 32  2  0  0  0  0
 34 33  1  0  0  0  0
 34 35  2  0  0  0  0
 35 36  1  0  0  0  0
 35 39  1  0  0  0  0
 36 37  1  0  0  0  0
 37 44  1  0  0  0  0
 37 38  2  0  0  0  0
 38 45  1  0  0  0  0
 39 40  2  0  0  0  0
 39 38  1  0  0  0  0
 40 46  1  0  0  0  0
 42 34  1  0  0  0  0
 43 36  1  0  0  0  0
 46 48  1  0  0  0  0
 46 47  2  0  0  0  0
M  END
>  <minimizedAffinity>
-7.01653194

$$$$

 OpenBabel03252506303D

 48 52  0  0  0  0  0  0  0  0999 V2000
   37.7610   32.0130   39.6850 C   0  0  0  0  0  0  0  0  0  0  0  0
   37.3270   31.4260   38.4680 C   0  0  0  0  0  0  0  0  0  0  0  0
   36.5940   30.3310   38.7590 C   0  0  0  0  0  0  0  0  0  0  0  0
   36.5700   30.2350   40.0920 N   0  0  0  0  0  0  0  0  0  0  0  0
   37.2650   31.2350   40.6500 N   0  0  0  0  0  0  0  0  0  0  0  0
   37.5700   31.8320   37.4830 H   0  0  0  0  0  0  0  0  0  0  0  0
   36.1180   29.6590   38.0560 H   0  0  0  0  0  0  0  0  0  0  0  0
   38.7300   35.4760   40.2780 C   0  0  0  0  0  0  0  0  0  0  0  0
   40.0630   35.5200   39.9100 C   0  0  0  0  0  0  0  0  0  0  0  0
   40.6300   34.3350   39.4530 C   0  0  0  0  0  0  0  0  0  0  0  0
   39.8510   33.2240   39.3950 N   0  0  0  0  0  0  0  0  0  0  0  0
   38.5730   33.2100   39.7540 C   0  0  0  0  0  0  0  0  0  0  0  0
   38.0130   34.3520   40.2000 N   0  0  0  0  0  0  0  0  0  0  0  0
   38.3480   36.4300   40.6250 H   0  0  0  0  0  0  0  0  0  0  0  0
   40.7510   36.3390   39.9220 H   0  0  0  0  0  0  0  0  0  0  0  0
   41.9780   34.1040   39.0130 N   0  0  0  0  0  0  0  0  0  0  0  0
   42.3750   34.0780   37.7280 C   0  0  0  0  0  3  0  0  0  0  0  0
   43.7170   33.8430   37.4300 C   0  0  0  0  0  3  0  0  0  0  0  0
   44.5780   33.6450   38.4880 C   0  0  0  0  0  0  0  0  0  0  0  0
   45.9480   33.4050   38.1690 N   0  0  0  0  0  0  0  0  0  0  0  0
   44.1360   33.6790   39.7580 N   0  0  0  0  0  0  0  0  0  0  0  0
   42.8220   33.9100   40.0440 C   0  0  0  0  0  0  0  0  0  0  0  0
   42.4960   33.9250   41.2590 O   0  0  0  0  0  0  0  0  0  0  0  0
   46.6540   32.6200   38.1270 H   0  0  0  0  0  0  0  0  0  0  0  0
   46.3530   34.3430   37.8850 H   0  0  0  0  0  0  0  0  0  0  0  0
   35.8910   29.1970   40.8510 C   0  0  0  0  0  0  0  0  0  0  0  0
   34.8320   29.4260   40.9540 H   0  0  0  0  0  0  0  0  0  0  0  0
   35.9890   28.2090   40.3310 H   0  0  0  0  0  0  0  0  0  0  0  0
   36.5180   29.0450   42.1970 C   0  0  0  0  0  0  0  0  0  0  0  0
   35.7050   29.0950   42.9520 H   0  0  0  0  0  0  0  0  0  0  0  0
   37.1490   29.9610   42.3840 H   0  0  0  0  0  0  0  0  0  0  0  0
   37.1490   26.5620   42.0910 C   0  0  0  0  0  0  0  0  0  0  0  0
   37.3710   27.8900   42.4000 C   0  0  0  0  0  0  0  0  0  0  0  0
   38.5990   28.1790   43.0010 C   0  0  0  0  0  0  0  0  0  0  0  0
   39.5200   27.2070   43.2640 C   0  0  0  0  0  0  0  0  0  0  0  0
   40.7550   27.1840   43.8180 N   0  0  0  0  0  0  0  0  0  0  0  0
   41.2520   25.9470   43.8470 C   0  0  0  0  0  0  0  0  0  0  0  0
   40.3280   25.0810   43.2930 C   0  0  0  0  0  0  0  0  0  0  0  0
   39.2830   25.8900   42.9490 C   0  0  0  0  0  0  0  0  0  0  0  0
   38.0790   25.5900   42.3580 C   0  0  0  0  0  0  0  0  0  0  0  0
   36.1850   26.3830   41.6270 H   0  0  0  0  0  0  0  0  0  0  0  0
   38.9010   29.1810   43.2960 H   0  0  0  0  0  0  0  0  0  0  0  0
   41.2390   28.0420   44.1730 H   0  0  0  0  0  0  0  0  0  0  0  0
   42.2340   25.7110   44.2540 H   0  0  0  0  0  0  0  0  0  0  0  0
   40.4920   24.0150   43.1990 H   0  0  0  0  0  0  0  0  0  0  0  0
   37.7700   24.2080   42.0010 C   0  0  0  0  0  0  0  0  0  0  0  0
   38.0710   23.7420   40.8660 O   0  0  0  0  0  0  0  0  0  0  0  0
   37.2750   23.5320   42.6920 H   0  0  0  0  0  0  0  0  0  0  0  0
  1 12  1  0  0  0  0
  1  5  2  0  0  0  0
  2  3  2  0  0  0  0
  2  1  1  0  0  0  0
  3  4  1  0  0  0  0
  4  5  1  0  0  0  0
  4 26  1  0  0  0  0
  6  2  1  0  0  0  0
  7  3  1  0  0  0  0
  8 14  1  0  0  0  0
  9 15  1  0  0  0  0
  9  8  2  0  0  0  0
 10  9  1  0  0  0  0
 11 10  2  0  0  0  0
 11 12  1  0  0  0  0
 12 13  2  0  0  0  0
 13  8  1  0  0  0  0
 16 10  1  0  0  0  0
 16 22  1  0  0  0  0
 17 16  1  0  0  0  0
 18 17  2  0  0  0  0
 18 19  1  0  0  0  0
 19 21  2  0  0  0  0
 20 19  1  0  0  0  0
 21 22  1  0  0  0  0
 22 23  2  0  0  0  0
 24 20  1  0  0  0  0
 25 20  1  0  0  0  0
 26 27  1  0  0  0  0
 26 29  1  0  0  0  0
 28 26  1  0  0  0  0
 29 31  1  0  0  0  0
 29 33  1  0  0  0  0
 29 30  1  0  0  0  0
 32 40  2  0  0  0  0
 32 33  1  0  0  0  0
 33 34  2  0  0  0  0
 34 35  1  0  0  0  0
 34 42  1  0  0  0  0
 35 36  1  0  0  0  0
 36 37  1  0  0  0  0
 36 43  1  0  0  0  0
 37 44  1  0  0  0  0
 38 37  2  0  0  0  0
 39 35  2  0  0  0  0
 39 38  1  0  0  0  0
 40 39  1  0  0  0  0
 41 32  1  0  0  0  0
 45 38  1  0  0  0  0
 46 40  1  0  0  0  0
 46 48  1  0  0  0  0
 47 46  2  0  0  0  0
M  END
>  <minimizedAffinity>
-6.99335289

$$$$

 OpenBabel03252506303D

 48 52  0  0  0  0  0  0  0  0999 V2000
   39.0560   31.9170   38.5640 C   0  0  0  0  0  0  0  0  0  0  0  0
   38.0590   32.4820   39.4020 C   0  0  0  0  0  0  0  0  0  0  0  0
   36.9310   31.7530   39.2750 C   0  0  0  0  0  0  0  0  0  0  0  0
   37.2060   30.7790   38.4020 N   0  0  0  0  0  0  0  0  0  0  0  0
   38.4720   30.8720   37.9740 N   0  0  0  0  0  0  0  0  0  0  0  0
   38.2260   33.3630   40.0270 H   0  0  0  0  0  0  0  0  0  0  0  0
   35.9870   31.9190   39.7790 H   0  0  0  0  0  0  0  0  0  0  0  0
   42.2910   32.7870   37.1280 C   0  0  0  0  0  0  0  0  0  0  0  0
   42.9560   33.4250   38.1600 C   0  0  0  0  0  0  0  0  0  0  0  0
   42.2740   33.5540   39.3660 C   0  0  0  0  0  0  0  0  0  0  0  0
   41.0140   33.0520   39.4540 N   0  0  0  0  0  0  0  0  0  0  0  0
   40.3990   32.4440   38.4470 C   0  0  0  0  0  0  0  0  0  0  0  0
   41.0510   32.3130   37.2740 N   0  0  0  0  0  0  0  0  0  0  0  0
   42.8750   32.7180   36.2180 H   0  0  0  0  0  0  0  0  0  0  0  0
   43.9380   33.8490   38.1850 H   0  0  0  0  0  0  0  0  0  0  0  0
   42.7250   34.1670   40.5840 N   0  0  0  0  0  0  0  0  0  0  0  0
   42.3110   35.3610   41.0450 C   0  0  0  0  0  3  0  0  0  0  0  0
   42.8260   35.8490   42.2460 C   0  0  0  0  0  3  0  0  0  0  0  0
   43.7500   35.0660   42.9050 C   0  0  0  0  0  0  0  0  0  0  0  0
   44.2700   35.5770   44.1320 N   0  0  0  0  0  0  0  0  0  0  0  0
   44.1360   33.8780   42.4060 N   0  0  0  0  0  0  0  0  0  0  0  0
   43.6270   33.4060   41.2300 C   0  0  0  0  0  0  0  0  0  0  0  0
   44.0440   32.2850   40.8380 O   0  0  0  0  0  0  0  0  0  0  0  0
   45.1410   36.0220   44.5300 H   0  0  0  0  0  0  0  0  0  0  0  0
   43.5020   35.4520   44.8520 H   0  0  0  0  0  0  0  0  0  0  0  0
   36.2740   29.7520   37.9630 C   0  0  0  0  0  0  0  0  0  0  0  0
   35.6710   30.1090   37.1300 H   0  0  0  0  0  0  0  0  0  0  0  0
   36.8320   28.8390   37.6290 H   0  0  0  0  0  0  0  0  0  0  0  0
   35.3930   29.3340   39.0930 C   0  0  0  0  0  0  0  0  0  0  0  0
   34.4270   29.0020   38.6590 H   0  0  0  0  0  0  0  0  0  0  0  0
   35.1440   30.2590   39.6900 H   0  0  0  0  0  0  0  0  0  0  0  0
   36.0940   28.4420   41.3920 C   0  0  0  0  0  0  0  0  0  0  0  0
   35.9300   28.3600   40.0220 C   0  0  0  0  0  0  0  0  0  0  0  0
   36.3410   27.1620   39.4300 C   0  0  0  0  0  0  0  0  0  0  0  0
   36.8700   26.1390   40.1630 C   0  0  0  0  0  0  0  0  0  0  0  0
   37.3400   24.9030   39.8770 N   0  0  0  0  0  0  0  0  0  0  0  0
   37.7580   24.2760   40.9780 C   0  0  0  0  0  0  0  0  0  0  0  0
   37.5700   25.1080   42.0650 C   0  0  0  0  0  0  0  0  0  0  0  0
   37.0250   26.2380   41.5250 C   0  0  0  0  0  0  0  0  0  0  0  0
   36.6260   27.4090   42.1220 C   0  0  0  0  0  0  0  0  0  0  0  0
   35.7630   29.3870   41.8100 H   0  0  0  0  0  0  0  0  0  0  0  0
   36.2680   26.9660   38.3640 H   0  0  0  0  0  0  0  0  0  0  0  0
   37.3640   24.5090   38.9080 H   0  0  0  0  0  0  0  0  0  0  0  0
   38.1730   23.2690   40.9660 H   0  0  0  0  0  0  0  0  0  0  0  0
   37.8300   24.8320   43.0790 H   0  0  0  0  0  0  0  0  0  0  0  0
   36.7670   27.5730   43.5660 C   0  0  0  0  0  0  0  0  0  0  0  0
   37.7630   28.1700   44.0630 O   0  0  0  0  0  0  0  0  0  0  0  0
   36.0280   27.1910   44.2640 H   0  0  0  0  0  0  0  0  0  0  0  0
  1  2  1  0  0  0  0
  2  6  1  0  0  0  0
  3  2  2  0  0  0  0
  3  7  1  0  0  0  0
  4  3  1  0  0  0  0
  5  4  1  0  0  0  0
  5  1  2  0  0  0  0
  8 13  2  0  0  0  0
  8  9  1  0  0  0  0
  9 15  1  0  0  0  0
  9 10  2  0  0  0  0
 10 11  1  0  0  0  0
 10 16  1  0  0  0  0
 12  1  1  0  0  0  0
 12 11  2  0  0  0  0
 13 12  1  0  0  0  0
 14  8  1  0  0  0  0
 16 17  1  0  0  0  0
 16 22  1  0  0  0  0
 17 18  2  0  0  0  0
 18 19  1  0  0  0  0
 19 20  1  0  0  0  0
 20 24  1  0  0  0  0
 20 25  1  0  0  0  0
 21 19  2  0  0  0  0
 22 21  1  0  0  0  0
 23 22  2  0  0  0  0
 26  4  1  0  0  0  0
 26 29  1  0  0  0  0
 27 26  1  0  0  0  0
 28 26  1  0  0  0  0
 29 31  1  0  0  0  0
 29 33  1  0  0  0  0
 30 29  1  0  0  0  0
 32 41  1  0  0  0  0
 32 40  1  0  0  0  0
 33 32  2  0  0  0  0
 34 33  1  0  0  0  0
 34 35  2  0  0  0  0
 35 39  1  0  0  0  0
 36 35  1  0  0  0  0
 36 37  1  0  0  0  0
 37 38  2  0  0  0  0
 38 45  1  0  0  0  0
 39 38  1  0  0  0  0
 39 40  2  0  0  0  0
 40 46  1  0  0  0  0
 42 34  1  0  0  0  0
 43 36  1  0  0  0  0
 44 37  1  0  0  0  0
 46 47  2  0  0  0  0
 46 48  1  0  0  0  0
M  END
>  <minimizedAffinity>
-6.76521301

$$$$

 OpenBabel03252506303D

 48 52  0  0  0  0  0  0  0  0999 V2000
   38.4650   28.9530   42.3400 C   0  0  0  0  0  0  0  0  0  0  0  0
   37.7460   28.4890   43.4730 C   0  0  0  0  0  0  0  0  0  0  0  0
   38.4360   27.4720   44.0290 C   0  0  0  0  0  0  0  0  0  0  0  0
   39.5320   27.3050   43.2820 N   0  0  0  0  0  0  0  0  0  0  0  0
   39.5540   28.1860   42.2740 N   0  0  0  0  0  0  0  0  0  0  0  0
   36.7960   28.9180   43.8010 H   0  0  0  0  0  0  0  0  0  0  0  0
   38.1600   26.8990   44.9060 H   0  0  0  0  0  0  0  0  0  0  0  0
   36.2570   31.3490   40.7060 C   0  0  0  0  0  0  0  0  0  0  0  0
   37.1060   32.1040   39.9160 C   0  0  0  0  0  0  0  0  0  0  0  0
   38.4580   31.7780   39.9530 C   0  0  0  0  0  0  0  0  0  0  0  0
   38.8550   30.7520   40.7500 N   0  0  0  0  0  0  0  0  0  0  0  0
   38.0180   30.0430   41.4980 C   0  0  0  0  0  0  0  0  0  0  0  0
   36.7060   30.3510   41.4700 N   0  0  0  0  0  0  0  0  0  0  0  0
   35.2190   31.6520   40.6330 H   0  0  0  0  0  0  0  0  0  0  0  0
   36.8880   32.9230   39.2640 H   0  0  0  0  0  0  0  0  0  0  0  0
   39.5430   32.3940   39.2410 N   0  0  0  0  0  0  0  0  0  0  0  0
   40.2780   33.4240   39.6970 C   0  0  0  0  0  3  0  0  0  0  0  0
   41.3080   33.9350   38.9080 C   0  0  0  0  0  3  0  0  0  0  0  0
   41.5190   33.3450   37.6800 C   0  0  0  0  0  0  0  0  0  0  0  0
   42.5760   33.8780   36.8820 N   0  0  0  0  0  0  0  0  0  0  0  0
   40.7590   32.3160   37.2640 N   0  0  0  0  0  0  0  0  0  0  0  0
   39.7520   31.8210   38.0420 C   0  0  0  0  0  0  0  0  0  0  0  0
   39.0920   30.8570   37.5740 O   0  0  0  0  0  0  0  0  0  0  0  0
   42.7340   34.4840   36.0320 H   0  0  0  0  0  0  0  0  0  0  0  0
   43.4780   33.5290   37.3160 H   0  0  0  0  0  0  0  0  0  0  0  0
   40.5680   26.3120   43.5150 C   0  0  0  0  0  0  0  0  0  0  0  0
   41.4320   26.4990   42.8790 H   0  0  0  0  0  0  0  0  0  0  0  0
   40.9040   26.3440   44.5830 H   0  0  0  0  0  0  0  0  0  0  0  0
   40.0360   24.9400   43.2670 C   0  0  0  0  0  0  0  0  0  0  0  0
   39.3580   24.6870   44.1090 H   0  0  0  0  0  0  0  0  0  0  0  0
   40.8990   24.2180   43.3590 H   0  0  0  0  0  0  0  0  0  0  0  0
   39.9500   24.7720   40.7100 C   0  0  0  0  0  0  0  0  0  0  0  0
   39.4130   24.6970   41.9820 C   0  0  0  0  0  0  0  0  0  0  0  0
   38.0650   24.3320   42.0530 C   0  0  0  0  0  0  0  0  0  0  0  0
   37.3290   24.0680   40.9340 C   0  0  0  0  0  0  0  0  0  0  0  0
   36.0480   23.7030   40.6970 N   0  0  0  0  0  0  0  0  0  0  0  0
   35.8150   23.5660   39.3910 C   0  0  0  0  0  0  0  0  0  0  0  0
   36.9780   23.8450   38.6980 C   0  0  0  0  0  0  0  0  0  0  0  0
   37.8800   24.1470   39.6770 C   0  0  0  0  0  0  0  0  0  0  0  0
   39.2050   24.5050   39.5910 C   0  0  0  0  0  0  0  0  0  0  0  0
   40.9970   25.0580   40.7010 H   0  0  0  0  0  0  0  0  0  0  0  0
   37.5200   24.2360   42.9880 H   0  0  0  0  0  0  0  0  0  0  0  0
   35.3450   23.5540   41.4580 H   0  0  0  0  0  0  0  0  0  0  0  0
   34.8460   23.2780   38.9880 H   0  0  0  0  0  0  0  0  0  0  0  0
   37.0530   23.8040   37.6190 H   0  0  0  0  0  0  0  0  0  0  0  0
   39.8450   24.6070   38.2820 C   0  0  0  0  0  0  0  0  0  0  0  0
   40.4770   25.6460   37.9420 O   0  0  0  0  0  0  0  0  0  0  0  0
   39.8040   23.8000   37.5570 H   0  0  0  0  0  0  0  0  0  0  0  0
  1  2  1  0  0  0  0
  2  6  1  0  0  0  0
  2  3  2  0  0  0  0
  3  7  1  0  0  0  0
  4 26  1  0  0  0  0
  4  3  1  0  0  0  0
  5  1  2  0  0  0  0
  5  4  1  0  0  0  0
  8 13  1  0  0  0  0
  9 10  1  0  0  0  0
  9  8  2  0  0  0  0
 10 11  2  0  0  0  0
 11 12  1  0  0  0  0
 12  1  1  0  0  0  0
 13 12  2  0  0  0  0
 14  8  1  0  0  0  0
 15  9  1  0  0  0  0
 16 17  1  0  0  0  0
 16 10  1  0  0  0  0
 18 17  2  0  0  0  0
 19 18  1  0  0  0  0
 20 25  1  0  0  0  0
 20 19  1  0  0  0  0
 21 19  2  0  0  0  0
 21 22  1  0  0  0  0
 22 16  1  0  0  0  0
 23 22  2  0  0  0  0
 24 20  1  0  0  0  0
 26 28  1  0  0  0  0
 27 26  1  0  0  0  0
 29 31  1  0  0  0  0
 29 26  1  0  0  0  0
 29 30  1  0  0  0  0
 32 33  1  0  0  0  0
 33 34  2  0  0  0  0
 33 29  1  0  0  0  0
 34 42  1  0  0  0  0
 35 34  1  0  0  0  0
 36 35  1  0  0  0  0
 36 43  1  0  0  0  0
 37 36  1  0  0  0  0
 38 37  2  0  0  0  0
 38 39  1  0  0  0  0
 39 35  2  0  0  0  0
 40 39  1  0  0  0  0
 40 32  2  0  0  0  0
 41 32  1  0  0  0  0
 44 37  1  0  0  0  0
 45 38  1  0  0  0  0
 46 40  1  0  0  0  0
 47 46  2  0  0  0  0
 48 46  1  0  0  0  0
M  END
>  <minimizedAffinity>
-6.72721243

$$$$

 OpenBabel03252506303D

 48 52  0  0  0  0  0  0  0  0999 V2000
   39.3190   31.6770   38.1900 C   0  0  0  0  0  0  0  0  0  0  0  0
   38.3200   32.4740   38.8090 C   0  0  0  0  0  0  0  0  0  0  0  0
   37.1270   31.8670   38.6420 C   0  0  0  0  0  0  0  0  0  0  0  0
   37.3650   30.7470   37.9520 N   0  0  0  0  0  0  0  0  0  0  0  0
   38.6710   30.6280   37.6800 N   0  0  0  0  0  0  0  0  0  0  0  0
   38.5320   33.4140   39.3230 H   0  0  0  0  0  0  0  0  0  0  0  0
   36.1630   32.2150   38.9940 H   0  0  0  0  0  0  0  0  0  0  0  0
   42.7390   32.0990   37.0010 C   0  0  0  0  0  0  0  0  0  0  0  0
   43.4020   32.6600   38.0770 C   0  0  0  0  0  0  0  0  0  0  0  0
   42.6540   32.8950   39.2270 C   0  0  0  0  0  0  0  0  0  0  0  0
   41.3370   32.5620   39.2210 N   0  0  0  0  0  0  0  0  0  0  0  0
   40.7250   32.0230   38.1730 C   0  0  0  0  0  0  0  0  0  0  0  0
   41.4400   31.7920   37.0540 N   0  0  0  0  0  0  0  0  0  0  0  0
   43.3760   31.9400   36.1380 H   0  0  0  0  0  0  0  0  0  0  0  0
   44.4260   32.9530   38.1740 H   0  0  0  0  0  0  0  0  0  0  0  0
   43.0890   33.4620   40.4720 N   0  0  0  0  0  0  0  0  0  0  0  0
   42.8470   34.7240   40.8710 C   0  0  0  0  0  3  0  0  0  0  0  0
   43.3240   35.1560   42.1070 C   0  0  0  0  0  3  0  0  0  0  0  0
   44.0330   34.2490   42.8680 C   0  0  0  0  0  0  0  0  0  0  0  0
   44.5170   34.7060   44.1310 N   0  0  0  0  0  0  0  0  0  0  0  0
   44.2520   32.9970   42.4290 N   0  0  0  0  0  0  0  0  0  0  0  0
   43.7810   32.5800   41.2170 C   0  0  0  0  0  0  0  0  0  0  0  0
   44.0310   31.3920   40.8860 O   0  0  0  0  0  0  0  0  0  0  0  0
   45.4110   35.0080   44.6040 H   0  0  0  0  0  0  0  0  0  0  0  0
   43.6740   34.7380   44.7740 H   0  0  0  0  0  0  0  0  0  0  0  0
   36.3590   29.7780   37.5440 C   0  0  0  0  0  0  0  0  0  0  0  0
   35.7750   30.1590   36.7090 H   0  0  0  0  0  0  0  0  0  0  0  0
   36.8490   28.8220   37.2250 H   0  0  0  0  0  0  0  0  0  0  0  0
   35.4630   29.4470   38.6900 C   0  0  0  0  0  0  0  0  0  0  0  0
   34.5410   28.9900   38.2730 H   0  0  0  0  0  0  0  0  0  0  0  0
   35.1250   30.4210   39.1500 H   0  0  0  0  0  0  0  0  0  0  0  0
   36.4320   27.3240   39.7510 C   0  0  0  0  0  0  0  0  0  0  0  0
   36.0260   28.6450   39.7580 C   0  0  0  0  0  0  0  0  0  0  0  0
   36.1760   29.3220   40.9720 C   0  0  0  0  0  0  0  0  0  0  0  0
   36.6920   28.7120   42.0790 C   0  0  0  0  0  0  0  0  0  0  0  0
   36.9490   29.0990   43.3500 N   0  0  0  0  0  0  0  0  0  0  0  0
   37.4690   28.1010   44.0650 C   0  0  0  0  0  0  0  0  0  0  0  0
   37.5760   26.9820   43.2610 C   0  0  0  0  0  0  0  0  0  0  0  0
   37.0900   27.3970   42.0540 C   0  0  0  0  0  0  0  0  0  0  0  0
   36.9490   26.7180   40.8680 C   0  0  0  0  0  0  0  0  0  0  0  0
   36.2980   26.8370   38.7910 H   0  0  0  0  0  0  0  0  0  0  0  0
   35.8980   30.3620   41.1150 H   0  0  0  0  0  0  0  0  0  0  0  0
   36.7560   30.0640   43.7050 H   0  0  0  0  0  0  0  0  0  0  0  0
   37.7470   28.2030   45.1130 H   0  0  0  0  0  0  0  0  0  0  0  0
   37.9710   26.0350   43.6060 H   0  0  0  0  0  0  0  0  0  0  0  0
   37.3550   25.3180   40.7800 C   0  0  0  0  0  0  0  0  0  0  0  0
   36.9270   24.5690   39.8570 O   0  0  0  0  0  0  0  0  0  0  0  0
   38.0340   24.8690   41.4980 H   0  0  0  0  0  0  0  0  0  0  0  0
  1  2  1  0  0  0  0
  2  6  1  0  0  0  0
  3  2  2  0  0  0  0
  3  7  1  0  0  0  0
  4  3  1  0  0  0  0
  5  4  1  0  0  0  0
  5  1  2  0  0  0  0
  8 13  2  0  0  0  0
  8  9  1  0  0  0  0
  9 15  1  0  0  0  0
  9 10  2  0  0  0  0
 10 16  1  0  0  0  0
 11 10  1  0  0  0  0
 12  1  1  0  0  0  0
 12 11  2  0  0  0  0
 13 12  1  0  0  0  0
 14  8  1  0  0  0  0
 16 17  1  0  0  0  0
 16 22  1  0  0  0  0
 17 18  2  0  0  0  0
 18 19  1  0  0  0  0
 19 20  1  0  0  0  0
 20 24  1  0  0  0  0
 20 25  1  0  0  0  0
 21 19  2  0  0  0  0
 22 21  1  0  0  0  0
 23 22  2  0  0  0  0
 26  4  1  0  0  0  0
 26 29  1  0  0  0  0
 27 26  1  0  0  0  0
 28 26  1  0  0  0  0
 29 31  1  0  0  0  0
 29 33  1  0  0  0  0
 30 29  1  0  0  0  0
 32 33  2  0  0  0  0
 32 40  1  0  0  0  0
 33 34  1  0  0  0  0
 34 42  1  0  0  0  0
 34 35  2  0  0  0  0
 35 36  1  0  0  0  0
 36 43  1  0  0  0  0
 36 37  1  0  0  0  0
 37 44  1  0  0  0  0
 38 45  1  0  0  0  0
 38 37  2  0  0  0  0
 39 35  1  0  0  0  0
 39 38  1  0  0  0  0
 40 39  2  0  0  0  0
 41 32  1  0  0  0  0
 46 40  1  0  0  0  0
 46 48  1  0  0  0  0
 47 46  2  0  0  0  0
M  END
>  <minimizedAffinity>
-6.71685553

$$$$

 OpenBabel03252506303D

 48 52  0  0  0  0  0  0  0  0999 V2000
   36.3030   26.5620   37.7170 C   0  0  0  0  0  0  0  0  0  0  0  0
   35.1990   25.7440   37.3630 C   0  0  0  0  0  0  0  0  0  0  0  0
   35.2890   24.5850   38.0490 C   0  0  0  0  0  0  0  0  0  0  0  0
   36.3950   24.6730   38.7960 N   0  0  0  0  0  0  0  0  0  0  0  0
   37.0040   25.8500   38.6020 N   0  0  0  0  0  0  0  0  0  0  0  0
   34.4290   26.0460   36.6490 H   0  0  0  0  0  0  0  0  0  0  0  0
   34.6050   23.7470   38.0070 H   0  0  0  0  0  0  0  0  0  0  0  0
   36.4760   29.3090   35.3280 C   0  0  0  0  0  0  0  0  0  0  0  0
   36.9380   30.3770   36.0760 C   0  0  0  0  0  0  0  0  0  0  0  0
   37.1910   30.1410   37.4230 C   0  0  0  0  0  0  0  0  0  0  0  0
   36.9730   28.8930   37.9140 N   0  0  0  0  0  0  0  0  0  0  0  0
   36.5290   27.8850   37.1720 C   0  0  0  0  0  0  0  0  0  0  0  0
   36.2800   28.1020   35.8660 N   0  0  0  0  0  0  0  0  0  0  0  0
   36.2990   29.5570   34.2870 H   0  0  0  0  0  0  0  0  0  0  0  0
   37.1370   31.3860   35.7810 H   0  0  0  0  0  0  0  0  0  0  0  0
   37.6700   31.0630   38.4150 N   0  0  0  0  0  0  0  0  0  0  0  0
   36.8870   31.8300   39.1950 C   0  0  0  0  0  3  0  0  0  0  0  0
   37.4750   32.6880   40.1240 C   0  0  0  0  0  3  0  0  0  0  0  0
   38.8530   32.7040   40.1910 C   0  0  0  0  0  0  0  0  0  0  0  0
   39.4420   33.5870   41.1450 N   0  0  0  0  0  0  0  0  0  0  0  0
   39.5960   31.9190   39.3900 N   0  0  0  0  0  0  0  0  0  0  0  0
   39.0140   31.0810   38.4840 C   0  0  0  0  0  0  0  0  0  0  0  0
   39.7840   30.3830   37.7760 O   0  0  0  0  0  0  0  0  0  0  0  0
   39.9510   34.5110   41.2010 H   0  0  0  0  0  0  0  0  0  0  0  0
   39.3010   33.1330   42.0930 H   0  0  0  0  0  0  0  0  0  0  0  0
   36.8860   23.6440   39.6990 C   0  0  0  0  0  0  0  0  0  0  0  0
   36.5040   22.6650   39.4120 H   0  0  0  0  0  0  0  0  0  0  0  0
   38.0060   23.6060   39.6720 H   0  0  0  0  0  0  0  0  0  0  0  0
   36.4940   23.9560   41.1040 C   0  0  0  0  0  0  0  0  0  0  0  0
   36.3240   22.9920   41.6260 H   0  0  0  0  0  0  0  0  0  0  0  0
   35.4810   24.4540   41.0710 H   0  0  0  0  0  0  0  0  0  0  0  0
   37.1350   26.0830   42.3850 C   0  0  0  0  0  0  0  0  0  0  0  0
   37.3740   24.8290   41.8560 C   0  0  0  0  0  0  0  0  0  0  0  0
   38.6550   24.3110   42.0700 C   0  0  0  0  0  0  0  0  0  0  0  0
   39.6070   25.0050   42.7600 C   0  0  0  0  0  0  0  0  0  0  0  0
   40.8910   24.7690   43.1150 N   0  0  0  0  0  0  0  0  0  0  0  0
   41.4000   25.7910   43.8050 C   0  0  0  0  0  0  0  0  0  0  0  0
   40.4330   26.7700   43.9320 C   0  0  0  0  0  0  0  0  0  0  0  0
   39.3510   26.2510   43.2800 C   0  0  0  0  0  0  0  0  0  0  0  0
   38.0960   26.7740   43.0770 C   0  0  0  0  0  0  0  0  0  0  0  0
   36.1300   26.4460   42.1950 H   0  0  0  0  0  0  0  0  0  0  0  0
   38.9750   23.3380   41.7090 H   0  0  0  0  0  0  0  0  0  0  0  0
   41.4010   23.8890   42.8690 H   0  0  0  0  0  0  0  0  0  0  0  0
   42.4210   25.8010   44.1840 H   0  0  0  0  0  0  0  0  0  0  0  0
   40.5960   27.7050   44.4520 H   0  0  0  0  0  0  0  0  0  0  0  0
   37.7660   28.0940   43.6050 C   0  0  0  0  0  0  0  0  0  0  0  0
   37.0060   28.2290   44.6040 O   0  0  0  0  0  0  0  0  0  0  0  0
   38.1590   29.0060   43.1630 H   0  0  0  0  0  0  0  0  0  0  0  0
  1  5  2  0  0  0  0
  2  1  1  0  0  0  0
  2  3  2  0  0  0  0
  3  4  1  0  0  0  0
  4 26  1  0  0  0  0
  5  4  1  0  0  0  0
  6  2  1  0  0  0  0
  7  3  1  0  0  0  0
  8 13  2  0  0  0  0
  8  9  1  0  0  0  0
  9 10  2  0  0  0  0
 10 11  1  0  0  0  0
 10 16  1  0  0  0  0
 12  1  1  0  0  0  0
 12 11  2  0  0  0  0
 13 12  1  0  0  0  0
 14  8  1  0  0  0  0
 15  9  1  0  0  0  0
 16 22  1  0  0  0  0
 16 17  1  0  0  0  0
 17 18  2  0  0  0  0
 18 19  1  0  0  0  0
 19 20  1  0  0  0  0
 20 24  1  0  0  0  0
 20 25  1  0  0  0  0
 21 19  2  0  0  0  0
 22 21  1  0  0  0  0
 23 22  2  0  0  0  0
 26 29  1  0  0  0  0
 27 26  1  0  0  0  0
 28 26  1  0  0  0  0
 29 30  1  0  0  0  0
 29 33  1  0  0  0  0
 31 29  1  0  0  0  0
 32 40  1  0  0  0  0
 33 34  1  0  0  0  0
 33 32  2  0  0  0  0
 34 35  2  0  0  0  0
 35 36  1  0  0  0  0
 35 39  1  0  0  0  0
 36 37  1  0  0  0  0
 37 38  2  0  0  0  0
 37 44  1  0  0  0  0
 38 45  1  0  0  0  0
 39 38  1  0  0  0  0
 40 39  2  0  0  0  0
 40 46  1  0  0  0  0
 41 32  1  0  0  0  0
 42 34  1  0  0  0  0
 43 36  1  0  0  0  0
 46 47  2  0  0  0  0
 48 46  1  0  0  0  0
M  END
>  <minimizedAffinity>
-6.70627928

$$$$
