
 OpenBabel03242511333D

 36 38  0  0  1  0  0  0  0  0999 V2000
   48.9630   32.3100   42.6470 C   0  0  0  0  0  3  0  0  0  0  0  0
   48.0790   33.2880   42.6810 C   0  0  0  0  0  3  0  0  0  0  0  0
   49.7060   32.0750   41.4150 C   0  0  0  0  0  0  0  0  0  0  0  0
   51.0840   31.8160   41.5300 C   0  0  0  0  0  0  0  0  0  0  0  0
   51.8270   31.5860   40.3710 C   0  0  0  0  0  0  0  0  0  0  0  0
   51.1800   31.6230   39.1760 N   0  0  0  0  0  0  0  0  0  0  0  0
   49.8610   31.8730   39.0980 C   0  0  0  0  0  0  0  0  0  0  0  0
   49.1480   32.0940   40.2110 N   0  0  0  0  0  0  0  0  0  0  0  0
   51.5780   31.7910   42.5020 H   0  0  0  0  0  0  0  0  0  0  0  0
   52.8790   31.3900   40.4810 H   0  0  0  0  0  0  0  0  0  0  0  0
   49.2660   31.8940   37.8040 N   0  0  0  0  0  0  0  0  0  0  0  0
   49.1430   33.0530   37.1320 C   0  0  0  0  0  3  0  0  0  0  0  0
   48.5510   33.0130   35.8650 C   0  0  0  0  0  3  0  0  0  0  0  0
   48.1460   31.7780   35.4270 C   0  0  0  0  0  0  0  0  0  0  0  0
   47.5480   31.7560   34.1400 N   0  0  0  0  0  0  0  0  0  0  0  0
   48.2780   30.6280   36.1160 N   0  0  0  0  0  0  0  0  0  0  0  0
   48.8520   30.6860   37.3350 C   0  0  0  0  0  0  0  0  0  0  0  0
   48.9900   29.6330   38.0050 O   0  0  0  0  0  0  0  0  0  0  0  0
   46.8000   31.4470   33.5040 H   0  0  0  0  0  0  0  0  0  0  0  0
   47.9000   32.2420   33.2630 H   0  0  0  0  0  0  0  0  0  0  0  0
   47.2930   33.5830   43.8900 C   0  0  0  0  0  0  0  0  0  0  0  0
   47.8250   34.3080   44.5330 H   0  0  0  0  0  0  0  0  0  0  0  0
   47.1260   32.6190   44.4260 H   0  0  0  0  0  0  0  0  0  0  0  0
   44.7200   36.0940   43.5360 C   0  0  1  0  0  0  0  0  0  0  0  0
   45.9150   35.4240   42.8560 C   0  0  0  0  0  0  0  0  0  0  0  0
   45.9000   34.1010   43.5390 C   0  0  2  0  0  0  0  0  0  0  0  0
   45.0600   34.1410   44.6090 O   0  0  0  0  0  0  0  0  0  0  0  0
   44.7840   35.4640   44.9070 C   0  0  0  0  0  0  0  0  0  0  0  0
   43.7740   35.8520   43.0410 H   0  0  0  0  0  0  0  0  0  0  0  0
   46.7970   36.0440   43.0690 H   0  0  0  0  0  0  0  0  0  0  0  0
   45.6790   35.3650   41.7540 H   0  0  0  0  0  0  0  0  0  0  0  0
   45.4710   33.3480   42.8170 H   0  0  0  0  0  0  0  0  0  0  0  0
   43.8330   35.5180   45.4670 H   0  0  0  0  0  0  0  0  0  0  0  0
   45.5530   35.9340   45.5380 H   0  0  0  0  0  0  0  0  0  0  0  0
   44.9060   37.4700   43.5690 O   0  0  0  0  0  0  0  0  0  0  0  0
   45.4430   37.7830   44.3380 H   0  0  0  0  0  0  0  0  0  0  0  0
  1  2  2  0  0  0  0
  2 21  1  0  0  0  0
  3  4  1  0  0  0  0
  3  1  1  0  0  0  0
  4  9  1  0  0  0  0
  5 10  1  0  0  0  0
  5  4  2  0  0  0  0
  6  5  1  0  0  0  0
  7  6  2  0  0  0  0
  7  8  1  0  0  0  0
  8  3  2  0  0  0  0
 11  7  1  0  0  0  0
 12 11  1  0  0  0  0
 13 12  2  0  0  0  0
 14 13  1  0  0  0  0
 14 16  2  0  0  0  0
 15 14  1  0  0  0  0
 16 17  1  0  0  0  0
 17 11  1  0  0  0  0
 17 18  2  0  0  0  0
 19 15  1  0  0  0  0
 20 15  1  0  0  0  0
 21 23  1  0  0  0  0
 21 22  1  0  0  0  0
 24 29  1  6  0  0  0
 24 35  1  0  0  0  0
 24 28  1  0  0  0  0
 25 30  1  0  0  0  0
 25 24  1  0  0  0  0
 25 26  1  0  0  0  0
 26 32  1  6  0  0  0
 26 21  1  0  0  0  0
 26 27  1  0  0  0  0
 27 28  1  0  0  0  0
 28 33  1  0  0  0  0
 28 34  1  0  0  0  0
 31 25  1  0  0  0  0
 35 36  1  0  0  0  0
M  END
>  <minimizedAffinity>
-5.26754618

>  <minimizedRMSD>
0.476664782

$$$$
