REMARK  Name = 
REMARK  4 active torsions:
REMARK  status: ('A' for Active; 'I' for Inactive)
REMARK    1  A    between atoms: C_1  and  C_4
REMARK    2  A    between atoms: C_1  and  C_9
REMARK    3  A    between atoms: C_2  and  O_7
REMARK    4  A    between atoms: C_8  and  C_10
REMARK                            x       y       z     vdW  Elec       q    Type
REMARK                         _______ _______ _______ _____ _____    ______ ____
ROOT
ATOM      1  C   UNL     1      48.653  32.157  42.845  0.00  0.00    +0.000 C 
ATOM      2  C   UNL     1      48.035  33.313  42.987  0.00  0.00    +0.000 C 
ENDROOT
BRANCH   1   3
ATOM      3  C   UNL     1      49.521  31.960  41.690  0.00  0.00    +0.000 A 
ATOM      4  C   UNL     1      50.906  31.891  41.926  0.00  0.00    +0.000 A 
ATOM      5  C   UNL     1      51.767  31.703  40.843  0.00  0.00    +0.000 A 
ATOM      6  N   UNL     1      51.223  31.594  39.602  0.00  0.00    +0.000 NA
ATOM      7  C   UNL     1      49.894  31.664  39.408  0.00  0.00    +0.000 A 
ATOM      8  N   UNL     1      49.068  31.845  40.448  0.00  0.00    +0.000 NA
ATOM      9  H   UNL     1      51.316  31.981  42.933  0.00  0.00    +0.000 HD
ATOM     10  H   UNL     1      52.822  31.653  41.045  0.00  0.00    +0.000 HD
ATOM     11  N   UNL     1      49.412  31.541  38.074  0.00  0.00    +0.000 N 
ATOM     12  C   UNL     1      48.882  30.378  37.650  0.00  0.00    +0.000 A 
ATOM     13  C   UNL     1      48.425  30.314  36.329  0.00  0.00    +0.000 A 
ATOM     14  C   UNL     1      48.562  31.458  35.586  0.00  0.00    +0.000 A 
ATOM     15  N   UNL     1      48.093  31.375  34.249  0.00  0.00    +0.000 N 
ATOM     16  N   UNL     1      49.096  32.613  36.030  0.00  0.00    +0.000 NA
ATOM     17  C   UNL     1      49.532  32.656  37.306  0.00  0.00    +0.000 A 
ATOM     18  O   UNL     1      50.035  33.717  37.752  0.00  0.00    +0.000 OA
ATOM     19  H   UNL     1      48.219  31.547  33.242  0.00  0.00    +0.000 HD
ATOM     20  H   UNL     1      47.172  30.960  33.919  0.00  0.00    +0.000 HD
ENDBRANCH   1   3
BRANCH   2  21
ATOM     21  C   UNL     1      47.144  33.582  44.128  0.00  0.00    +0.000 C 
ATOM     22  H   UNL     1      47.629  34.267  44.847  0.00  0.00    +0.000 HD
ATOM     23  H   UNL     1      46.905  32.603  44.606  0.00  0.00    +0.000 HD
BRANCH  21  26
ATOM     24  C   UNL     1      44.752  36.202  43.444  0.00  0.00    +0.000 C 
ATOM     25  C   UNL     1      45.931  35.406  42.880  0.00  0.00    +0.000 C 
ATOM     26  C   UNL     1      45.803  34.150  43.668  0.00  0.00    +0.000 C 
ATOM     27  O   UNL     1      44.922  34.331  44.689  0.00  0.00    +0.000 OA
ATOM     28  C   UNL     1      44.717  35.688  44.863  0.00  0.00    +0.000 C 
ATOM     29  H   UNL     1      43.815  35.975  42.925  0.00  0.00    +0.000 HD
ATOM     30  H   UNL     1      46.840  35.989  43.083  0.00  0.00    +0.000 HD
ATOM     31  H   UNL     1      45.739  35.267  41.776  0.00  0.00    +0.000 HD
ATOM     32  H   UNL     1      45.359  33.364  42.991  0.00  0.00    +0.000 HD
ATOM     33  H   UNL     1      43.748  35.846  45.370  0.00  0.00    +0.000 HD
ATOM     34  H   UNL     1      45.486  36.164  45.490  0.00  0.00    +0.000 HD
BRANCH  24  35
ATOM     35  O   UNL     1      45.023  37.562  43.372  0.00  0.00    +0.000 OA
ATOM     36  H   UNL     1      45.545  37.907  44.137  0.00  0.00    +0.000 HD
ENDBRANCH  24  35
ENDBRANCH  21  26
ENDBRANCH   2  21
TORSDOF 4
