
 OpenBabel03242511333D

 36 38  0  0  1  0  0  0  0  0999 V2000
   49.0340   33.2040   42.5270 C   0  0  0  0  0  3  0  0  0  0  0  0
   47.7980   32.9230   42.8870 C   0  0  0  0  0  3  0  0  0  0  0  0
   49.5440   32.6600   41.2740 C   0  0  0  0  0  0  0  0  0  0  0  0
   50.8070   32.0400   41.3040 C   0  0  0  0  0  0  0  0  0  0  0  0
   51.3260   31.5070   40.1230 C   0  0  0  0  0  0  0  0  0  0  0  0
   50.5820   31.6120   38.9900 N   0  0  0  0  0  0  0  0  0  0  0  0
   49.3780   32.2110   38.9920 C   0  0  0  0  0  0  0  0  0  0  0  0
   48.8800   32.7220   40.1270 N   0  0  0  0  0  0  0  0  0  0  0  0
   51.3830   31.9690   42.2280 H   0  0  0  0  0  0  0  0  0  0  0  0
   52.2930   31.0380   40.1680 H   0  0  0  0  0  0  0  0  0  0  0  0
   48.6690   32.2770   37.7600 N   0  0  0  0  0  0  0  0  0  0  0  0
   49.3370   32.4020   36.5990 C   0  0  0  0  0  3  0  0  0  0  0  0
   48.5880   32.4610   35.4180 C   0  0  0  0  0  3  0  0  0  0  0  0
   47.2270   32.3850   35.5620 C   0  0  0  0  0  0  0  0  0  0  0  0
   46.4830   32.4460   34.3560 N   0  0  0  0  0  0  0  0  0  0  0  0
   46.5760   32.2590   36.7360 N   0  0  0  0  0  0  0  0  0  0  0  0
   47.3150   32.2030   37.8630 C   0  0  0  0  0  0  0  0  0  0  0  0
   46.7400   32.0860   38.9740 O   0  0  0  0  0  0  0  0  0  0  0  0
   45.6960   32.8170   33.8030 H   0  0  0  0  0  0  0  0  0  0  0  0
   46.6790   31.9160   33.4560 H   0  0  0  0  0  0  0  0  0  0  0  0
   47.2170   33.4380   44.1380 C   0  0  0  0  0  0  0  0  0  0  0  0
   47.8450   34.2460   44.5540 H   0  0  0  0  0  0  0  0  0  0  0  0
   47.1400   32.5830   44.8500 H   0  0  0  0  0  0  0  0  0  0  0  0
   44.5720   35.8970   44.0280 C   0  0  1  0  0  0  0  0  0  0  0  0
   45.7020   35.2390   43.2330 C   0  0  0  0  0  0  0  0  0  0  0  0
   45.7850   33.9260   43.9290 C   0  0  2  0  0  0  0  0  0  0  0  0
   45.0620   33.9660   45.0810 O   0  0  0  0  0  0  0  0  0  0  0  0
   44.7930   35.2870   45.3910 C   0  0  0  0  0  0  0  0  0  0  0  0
   43.5840   35.6310   43.6380 H   0  0  0  0  0  0  0  0  0  0  0  0
   46.5890   35.8780   43.3440 H   0  0  0  0  0  0  0  0  0  0  0  0
   45.3520   35.1600   42.1630 H   0  0  0  0  0  0  0  0  0  0  0  0
   45.2970   33.1550   43.2660 H   0  0  0  0  0  0  0  0  0  0  0  0
   43.9050   35.3310   46.0480 H   0  0  0  0  0  0  0  0  0  0  0  0
   45.6140   35.7790   45.9320 H   0  0  0  0  0  0  0  0  0  0  0  0
   44.7340   37.2760   44.0250 O   0  0  0  0  0  0  0  0  0  0  0  0
   45.3430   37.6090   44.7280 H   0  0  0  0  0  0  0  0  0  0  0  0
  1  2  2  0  0  0  0
  2 21  1  0  0  0  0
  3  4  1  0  0  0  0
  3  1  1  0  0  0  0
  4  9  1  0  0  0  0
  5 10  1  0  0  0  0
  5  4  2  0  0  0  0
  6  7  2  0  0  0  0
  6  5  1  0  0  0  0
  7  8  1  0  0  0  0
  8  3  2  0  0  0  0
 11 17  1  0  0  0  0
 11  7  1  0  0  0  0
 12 11  1  0  0  0  0
 13 14  1  0  0  0  0
 13 12  2  0  0  0  0
 14 16  2  0  0  0  0
 15 14  1  0  0  0  0
 16 17  1  0  0  0  0
 17 18  2  0  0  0  0
 19 15  1  0  0  0  0
 20 15  1  0  0  0  0
 21 22  1  0  0  0  0
 21 23  1  0  0  0  0
 24 29  1  6  0  0  0
 24 28  1  0  0  0  0
 25 30  1  0  0  0  0
 25 26  1  0  0  0  0
 25 24  1  0  0  0  0
 26 32  1  6  0  0  0
 26 21  1  0  0  0  0
 26 27  1  0  0  0  0
 27 28  1  0  0  0  0
 28 34  1  0  0  0  0
 28 33  1  0  0  0  0
 31 25  1  0  0  0  0
 35 24  1  0  0  0  0
 35 36  1  0  0  0  0
M  END
>  <minimizedAffinity>
-5.58050346

>  <minimizedRMSD>
1.08705044

$$$$
