
 OpenBabel03242511083D

 44 48  0  0  1  0  0  0  0  0999 V2000
   46.9460   32.6110   43.9240 C   0  0  0  0  0  0  0  0  0  0  0  0
   47.0450   31.9210   45.1240 C   0  0  0  0  0  0  0  0  0  0  0  0
   46.4210   32.3380   46.2990 C   0  0  0  0  0  0  0  0  0  0  0  0
   45.6620   33.4880   46.2960 C   0  0  0  0  0  0  0  0  0  0  0  0
   45.5410   34.1890   45.1450 C   0  0  0  0  0  0  0  0  0  0  0  0
   44.7850   35.3420   45.1070 C   0  0  0  0  0  0  0  0  0  0  0  0
   44.6170   36.0940   43.9750 C   0  0  0  0  0  0  0  0  0  0  0  0
   45.2570   35.6430   42.8260 C   0  0  0  0  0  0  0  0  0  0  0  0
   46.0180   34.4810   42.8660 C   0  0  0  0  0  0  0  0  0  0  0  0
   46.1770   33.7410   43.9980 C   0  0  0  0  0  0  0  0  0  0  0  0
   47.6090   31.0070   45.2410 H   0  0  0  0  0  0  0  0  0  0  0  0
   46.5090   31.7880   47.2250 H   0  0  0  0  0  0  0  0  0  0  0  0
   45.1770   33.8140   47.2080 H   0  0  0  0  0  0  0  0  0  0  0  0
   44.3130   35.6430   46.0300 H   0  0  0  0  0  0  0  0  0  0  0  0
   43.9980   36.9850   44.0650 H   0  0  0  0  0  0  0  0  0  0  0  0
   45.0640   36.3050   41.9820 H   0  0  0  0  0  0  0  0  0  0  0  0
   46.5380   34.2710   41.5680 N   0  0  0  0  0  0  0  0  0  0  0  0
   46.1720   33.6290   40.4470 C   0  0  0  0  0  3  0  0  0  0  0  0
   46.9150   33.6550   39.2930 C   0  0  0  0  0  3  0  0  0  0  0  0
   48.1000   34.3520   39.2160 C   0  0  0  0  0  0  0  0  0  0  0  0
   48.7590   34.2880   37.9640 N   0  0  0  0  0  0  0  0  0  0  0  0
   48.5180   35.0170   40.3160 N   0  0  0  0  0  0  0  0  0  0  0  0
   47.7280   34.9460   41.4270 C   0  0  0  0  0  0  0  0  0  0  0  0
   48.3040   35.6400   42.3390 O   0  0  0  0  0  0  0  0  0  0  0  0
   48.1730   34.5370   37.1320 H   0  0  0  0  0  0  0  0  0  0  0  0
   49.7380   33.9930   38.1540 H   0  0  0  0  0  0  0  0  0  0  0  0
   47.6130   32.1050   42.8010 N   0  0  0  0  0  0  0  0  0  0  0  0
   47.2020   32.8160   42.1730 H   0  0  0  0  0  0  0  0  0  0  0  0
   49.8950   31.0190   42.6210 C   0  0  1  0  0  0  0  0  0  0  0  0
   49.0060   30.3910   41.5670 C   0  0  0  0  0  0  0  0  0  0  0  0
   48.4630   30.9500   42.8760 C   0  0  2  0  0  0  0  0  0  0  0  0
   50.4290   31.8970   42.1790 H   0  0  0  0  0  0  0  0  0  0  0  0
   49.0700   29.2720   41.5490 H   0  0  0  0  0  0  0  0  0  0  0  0
   48.7190   30.9260   40.6640 H   0  0  0  0  0  0  0  0  0  0  0  0
   48.1490   30.2420   43.6790 H   0  0  0  0  0  0  0  0  0  0  0  0
   52.9980   29.2270   43.5530 C   0  0  0  0  0  0  0  0  0  0  0  0
   52.5660   28.4750   44.6890 C   0  0  0  0  0  0  0  0  0  0  0  0
   51.2180   28.6140   45.1090 C   0  0  0  0  0  0  0  0  0  0  0  0
   50.4110   29.4380   44.4350 N   0  0  0  0  0  0  0  0  0  0  0  0
   50.8510   30.1380   43.3590 C   0  0  0  0  0  0  0  0  0  0  0  0
   52.1460   30.0360   42.9150 N   0  0  0  0  0  0  0  0  0  0  0  0
   54.0270   29.1170   43.2370 H   0  0  0  0  0  0  0  0  0  0  0  0
   53.2900   27.8410   45.1650 H   0  0  0  0  0  0  0  0  0  0  0  0
   50.9120   28.0420   45.9640 H   0  0  0  0  0  0  0  0  0  0  0  0
  1 10  2  0  0  0  0
  1  2  1  0  0  0  0
  2 11  1  0  0  0  0
  2  3  2  0  0  0  0
  3 12  1  0  0  0  0
  4  3  1  0  0  0  0
  4 13  1  0  0  0  0
  5  4  2  0  0  0  0
  6  5  1  0  0  0  0
  6 14  1  0  0  0  0
  7 15  1  0  0  0  0
  7  6  2  0  0  0  0
  8  9  2  0  0  0  0
  8  7  1  0  0  0  0
  9 10  1  0  0  0  0
 10  5  1  0  0  0  0
 16  8  1  0  0  0  0
 17  9  1  0  0  0  0
 18 17  1  0  0  0  0
 19 18  2  0  0  0  0
 20 19  1  0  0  0  0
 20 22  2  0  0  0  0
 21 26  1  0  0  0  0
 21 20  1  0  0  0  0
 22 23  1  0  0  0  0
 23 17  1  0  0  0  0
 23 24  2  0  0  0  0
 25 21  1  0  0  0  0
 27 31  1  0  0  0  0
 27  1  1  0  0  0  0
 28 27  1  0  0  0  0
 29 32  1  6  0  0  0
 29 31  1  0  0  0  0
 29 40  1  0  0  0  0
 30 29  1  0  0  0  0
 30 31  1  0  0  0  0
 31 35  1  1  0  0  0
 33 30  1  0  0  0  0
 34 30  1  0  0  0  0
 36 37  1  0  0  0  0
 37 38  2  0  0  0  0
 37 43  1  0  0  0  0
 38 44  1  0  0  0  0
 39 38  1  0  0  0  0
 40 39  2  0  0  0  0
 41 40  1  0  0  0  0
 41 36  2  0  0  0  0
 42 36  1  0  0  0  0
M  END
>  <minimizedAffinity>
-5.92729282

>  <minimizedRMSD>
2.47397971

$$$$
