
     RDKit          3D

 37 41  0  0  0  0  0  0  0  0999 V2000
   45.2845   33.9940   40.9462 C   0  0  1  0  0  0  0  0  0  0  0  0
   46.5141   34.1495   40.2221 C   0  0  2  0  0  0  0  0  0  0  0  0
   45.9582   32.7985   40.4777 C   0  0  0  0  0  0  0  0  0  0  0  0
   44.9539   35.6981   42.6612 C   0  0  0  0  0  0  0  0  0  0  0  0
   45.2344   34.3722   42.3632 C   0  0  0  0  0  0  0  0  0  0  0  0
   45.3943   33.4421   43.3832 C   0  0  0  0  0  0  0  0  0  0  0  0
   45.2587   33.9041   44.6588 N   0  0  0  0  0  0  0  0  0  0  0  0
   44.9828   35.1990   44.9488 C   0  0  0  0  0  0  0  0  0  0  0  0
   44.8332   36.0904   43.9295 N   0  0  0  0  0  0  0  0  0  0  0  0
   47.8374   34.3534   40.8402 C   0  0  1  0  0  0  0  0  0  0  0  0
   48.4607   35.3495   40.4262 O   0  0  0  0  0  0  0  0  0  0  0  0
   48.8215   34.9290   41.7570 C   0  0  2  0  0  0  0  0  0  0  0  0
   49.9360   33.9324   42.0951 C   0  0  0  0  0  0  0  0  0  0  0  0
   49.1503   34.5546   43.1139 C   0  0  1  0  0  0  0  0  0  0  0  0
   44.3396   34.3159   40.4133 H   0  0  0  0  0  0  0  0  0  0  0  0
   46.4098   34.4570   39.1379 H   0  0  0  0  0  0  0  0  0  0  0  0
   45.5082   32.2003   39.6486 H   0  0  0  0  0  0  0  0  0  0  0  0
   46.4187   32.1034   41.2285 H   0  0  0  0  0  0  0  0  0  0  0  0
   44.8284   36.4343   41.8778 H   0  0  0  0  0  0  0  0  0  0  0  0
   45.6122   32.4197   43.1714 H   0  0  0  0  0  0  0  0  0  0  0  0
   44.9143   35.3616   46.0114 H   0  0  0  0  0  0  0  0  0  0  0  0
   48.3659   33.4733   40.2517 H   0  0  0  0  0  0  0  0  0  0  0  0
   50.9257   34.2935   41.7552 H   0  0  0  0  0  0  0  0  0  0  0  0
   49.8112   32.8553   41.8833 H   0  0  0  0  0  0  0  0  0  0  0  0
   48.3324   33.9233   43.5730 H   0  0  0  0  0  0  0  0  0  0  0  0
   49.7419   35.5971   43.9448 N   0  0  0  0  0  0  0  0  0  0  0  0
   49.4242   36.8962   43.7869 C   0  0  0  0  0  0  0  0  0  0  0  0
   50.0436   37.7767   44.6243 C   0  0  0  0  0  0  0  0  0  0  0  0
   50.9522   37.4100   45.5953 C   0  0  0  0  0  0  0  0  0  0  0  0
   51.5681   38.3724   46.4413 N   0  0  0  0  0  0  0  0  0  0  0  0
   51.2325   36.0880   45.7073 N   0  0  0  0  0  0  0  0  0  0  0  0
   50.6372   35.2044   44.8969 C   0  0  0  0  0  0  0  0  0  0  0  0
   50.9166   33.9890   45.0244 O   0  0  0  0  0  0  0  0  0  0  0  0
   48.7164   37.1450   43.0248 H   0  0  0  0  0  0  0  0  0  0  0  0
   49.7982   38.8324   44.5102 H   0  0  0  0  0  0  0  0  0  0  0  0
   52.6192   38.4029   46.5846 H   0  0  0  0  0  0  0  0  0  0  0  0
   51.1612   39.1461   47.0195 H   0  0  0  0  0  0  0  0  0  0  0  0
  1  5  1  0
  2  3  1  0
  2  1  1  0
  2 10  1  0
  3  1  1  0
  4  9  2  0
  5  4  1  0
  5  6  2  0
  6  7  1  0
  7  8  2  0
  9  8  1  0
 10 11  1  0
 10 12  1  0
 12 11  1  1
 12 13  1  0
 12 14  1  0
 13 14  1  0
  1 15  1  6
  2 16  1  6
  3 17  1  0
  3 18  1  0
  4 19  1  0
  6 20  1  0
  8 21  1  0
 10 22  1  6
 13 23  1  0
 13 24  1  0
 14 25  1  1
 26 27  1  0
 27 28  2  0
 28 29  1  0
 29 30  1  0
 29 31  2  0
 31 32  1  0
 32 33  2  0
 32 26  1  0
 27 34  1  0
 28 35  1  0
 30 36  1  0
 30 37  1  0
 14 26  1  0
M  ISO  8  15  13  16  13  17  13  18  13  19  14  20  14  21  14  22  13
M  ISO  3  23  13  24  13  25  13
M  END
>  <DihAtoms>  (1) 
11,13,25,26

>  <DihDeg>  (1) 
2.004142989024133

$$$$
