
 OpenBabel03252503433D

 35 37  0  0  1  0  0  0  0  0999 V2000
   45.0830   34.8050   44.9020 C   0  0  0  0  0  0  0  0  0  0  0  0
   45.8710   34.5020   43.7840 C   0  0  0  0  0  0  0  0  0  0  0  0
   46.6660   33.3450   43.8740 C   0  0  0  0  0  0  0  0  0  0  0  0
   46.6370   32.6010   44.9960 N   0  0  0  0  0  0  0  0  0  0  0  0
   45.8670   32.9240   46.0480 C   0  0  0  0  0  0  0  0  0  0  0  0
   45.0780   34.0310   46.0180 N   0  0  0  0  0  0  0  0  0  0  0  0
   44.4300   35.6670   44.9530 H   0  0  0  0  0  0  0  0  0  0  0  0
   47.2720   33.1180   43.0060 H   0  0  0  0  0  0  0  0  0  0  0  0
   47.3480   31.7530   47.6710 C   0  0  2  0  0  0  0  0  0  0  0  0
   45.9050   32.0370   47.1990 C   0  0  1  0  0  0  0  0  0  0  0  0
   45.3770   32.5440   48.3540 O   0  0  0  0  0  0  0  0  0  0  0  0
   45.7820   31.7490   49.3820 C   0  0  0  0  0  0  0  0  0  0  0  0
   46.9910   30.9560   48.9300 C   0  0  2  0  0  0  0  0  0  0  0  0
   47.9090   31.1580   46.9520 H   0  0  0  0  0  0  0  0  0  0  0  0
   45.4240   31.0600   46.9340 H   0  0  0  0  0  0  0  0  0  0  0  0
   44.9870   31.0610   49.7380 H   0  0  0  0  0  0  0  0  0  0  0  0
   46.0900   32.3620   50.2590 H   0  0  0  0  0  0  0  0  0  0  0  0
   46.6890   29.9520   48.5970 H   0  0  0  0  0  0  0  0  0  0  0  0
   47.9140   32.9100   48.0960 O   0  0  0  0  0  0  0  0  0  0  0  0
   48.0710   33.5930   47.4010 H   0  0  0  0  0  0  0  0  0  0  0  0
   48.0060   30.9240   49.8520 O   0  0  0  0  0  0  0  0  0  0  0  0
   48.8720   30.8500   49.3960 H   0  0  0  0  0  0  0  0  0  0  0  0
   45.7930   35.4040   42.6360 C   0  0  0  0  0  0  0  0  0  0  0  0
   46.8030   35.3780   42.1290 H   0  0  0  0  0  0  0  0  0  0  0  0
   45.7020   36.4580   42.9710 H   0  0  0  0  0  0  0  0  0  0  0  0
   44.7410   35.0910   41.6940 N   0  0  0  0  0  0  0  0  0  0  0  0
   43.5090   35.6000   41.8860 C   0  0  0  0  0  0  0  0  0  0  0  0
   42.5050   35.2900   40.9700 C   0  0  0  0  0  0  0  0  0  0  0  0
   42.8610   34.4690   39.9190 C   0  0  0  0  0  0  0  0  0  0  0  0
   41.8740   34.1230   38.9570 N   0  0  0  0  0  0  0  0  0  0  0  0
   44.1140   33.9750   39.7590 N   0  0  0  0  0  0  0  0  0  0  0  0
   45.0660   34.2900   40.6590 C   0  0  0  0  0  0  0  0  0  0  0  0
   46.1900   33.8090   40.4570 O   0  0  0  0  0  0  0  0  0  0  0  0
   42.1340   34.6840   38.0960 H   0  0  0  0  0  0  0  0  0  0  0  0
   41.0270   33.5650   38.7510 H   0  0  0  0  0  0  0  0  0  0  0  0
  1  7  1  0  0  0  0
  1  6  1  0  0  0  0
  2  3  1  0  0  0  0
  2  1  2  0  0  0  0
  3  4  2  0  0  0  0
  4  5  1  0  0  0  0
  5 10  1  0  0  0  0
  6  5  2  0  0  0  0
  8  3  1  0  0  0  0
  9 14  1  6  0  0  0
  9 19  1  0  0  0  0
  9 13  1  0  0  0  0
 10 15  1  6  0  0  0
 10  9  1  0  0  0  0
 10 11  1  0  0  0  0
 11 12  1  0  0  0  0
 12 16  1  0  0  0  0
 12 17  1  0  0  0  0
 13 18  1  6  0  0  0
 13 12  1  0  0  0  0
 13 21  1  0  0  0  0
 20 19  1  0  0  0  0
 22 21  1  0  0  0  0
 23 25  1  0  0  0  0
 23  2  1  0  0  0  0
 24 23  1  0  0  0  0
 26 27  1  0  0  0  0
 26 23  1  0  0  0  0
 28 27  2  0  0  0  0
 29 28  1  0  0  0  0
 30 29  1  0  0  0  0
 31 29  2  0  0  0  0
 31 32  1  0  0  0  0
 32 26  1  0  0  0  0
 33 32  2  0  0  0  0
 34 30  1  0  0  0  0
 35 30  1  0  0  0  0
M  END
>  <minimizedAffinity>
-6.2653656

>  <minimizedRMSD>
1.09022772

$$$$
