
 OpenBabel03252508273D

 42 46  0  0  1  0  0  0  0  0999 V2000
   38.5440   29.3670   42.5250 C   0  0  1  0  0  0  0  0  0  0  0  0
   37.6380   29.0430   43.6380 C   0  0  0  0  0  0  0  0  0  0  0  0
   37.9400   28.0560   42.4450 C   0  0  2  0  0  0  0  0  0  0  0  0
   39.5460   29.6220   43.0270 H   0  0  0  0  0  0  0  0  0  0  0  0
   37.9630   28.5870   44.5880 H   0  0  0  0  0  0  0  0  0  0  0  0
   36.6060   29.4180   43.6890 H   0  0  0  0  0  0  0  0  0  0  0  0
   36.9090   27.8620   41.9960 H   0  0  0  0  0  0  0  0  0  0  0  0
   38.6130   26.7820   42.7140 C   0  0  0  0  0  0  0  0  0  0  0  0
   39.6530   26.5510   43.5560 C   0  0  0  0  0  0  0  0  0  0  0  0
   40.3250   25.3510   43.6980 C   0  0  0  0  0  0  0  0  0  0  0  0
   39.8860   24.2860   42.8970 C   0  0  0  0  0  0  0  0  0  0  0  0
   38.8180   24.4940   42.0240 C   0  0  0  0  0  0  0  0  0  0  0  0
   38.3790   23.4030   41.2990 C   0  0  0  0  0  0  0  0  0  0  0  0
   37.2770   23.5420   40.4710 C   0  0  0  0  0  0  0  0  0  0  0  0
   36.6220   24.7520   40.3700 C   0  0  0  0  0  0  0  0  0  0  0  0
   37.1020   25.8040   41.1130 C   0  0  0  0  0  0  0  0  0  0  0  0
   38.2020   25.7200   41.9470 C   0  0  0  0  0  0  0  0  0  0  0  0
   39.9580   27.4070   44.1550 H   0  0  0  0  0  0  0  0  0  0  0  0
   41.1490   25.2330   44.3910 H   0  0  0  0  0  0  0  0  0  0  0  0
   40.3850   23.3270   42.9720 H   0  0  0  0  0  0  0  0  0  0  0  0
   38.9090   22.4640   41.3970 H   0  0  0  0  0  0  0  0  0  0  0  0
   37.0170   22.6130   39.9400 H   0  0  0  0  0  0  0  0  0  0  0  0
   35.7940   24.6660   39.6870 H   0  0  0  0  0  0  0  0  0  0  0  0
   36.4020   26.5690   40.9370 H   0  0  0  0  0  0  0  0  0  0  0  0
   36.5400   31.5470   40.3200 C   0  0  0  0  0  0  0  0  0  0  0  0
   37.5540   32.2580   39.5930 C   0  0  0  0  0  0  0  0  0  0  0  0
   38.9220   31.9690   39.8990 C   0  0  0  0  0  0  0  0  0  0  0  0
   39.2090   31.0500   40.8500 N   0  0  0  0  0  0  0  0  0  0  0  0
   38.1830   30.4020   41.5090 C   0  0  0  0  0  0  0  0  0  0  0  0
   36.9010   30.6450   41.2520 N   0  0  0  0  0  0  0  0  0  0  0  0
   35.5110   31.7380   40.1150 H   0  0  0  0  0  0  0  0  0  0  0  0
   37.2690   32.9800   38.8450 H   0  0  0  0  0  0  0  0  0  0  0  0
   39.9370   32.6650   39.1870 N   0  0  0  0  0  0  0  0  0  0  0  0
   40.4560   33.8120   39.6010 C   0  0  0  0  0  3  0  0  0  0  0  0
   41.4390   34.4050   38.8320 C   0  0  0  0  0  3  0  0  0  0  0  0
   41.8770   33.8190   37.6530 C   0  0  0  0  0  0  0  0  0  0  0  0
   42.8740   34.3270   36.7830 N   0  0  0  0  0  0  0  0  0  0  0  0
   41.3190   32.6530   37.2750 N   0  0  0  0  0  0  0  0  0  0  0  0
   40.3630   32.0860   38.0330 C   0  0  0  0  0  0  0  0  0  0  0  0
   39.8640   30.9950   37.6460 O   0  0  0  0  0  0  0  0  0  0  0  0
   43.9160   34.2300   36.6820 H   0  0  0  0  0  0  0  0  0  0  0  0
   42.3380   34.9420   36.1110 H   0  0  0  0  0  0  0  0  0  0  0  0
  1  4  1  1  0  0  0
  1  2  1  0  0  0  0
  2  6  1  0  0  0  0
  2  5  1  0  0  0  0
  3  7  1  6  0  0  0
  3  1  1  0  0  0  0
  3  8  1  0  0  0  0
  3  2  1  0  0  0  0
  8  9  1  0  0  0  0
  9 10  2  0  0  0  0
  9 18  1  0  0  0  0
 10 19  1  0  0  0  0
 11 20  1  0  0  0  0
 11 10  1  0  0  0  0
 12 11  2  0  0  0  0
 13 21  1  0  0  0  0
 13 12  1  0  0  0  0
 14 13  2  0  0  0  0
 15 14  1  0  0  0  0
 15 16  2  0  0  0  0
 16 17  1  0  0  0  0
 17 12  1  0  0  0  0
 17  8  2  0  0  0  0
 22 14  1  0  0  0  0
 23 15  1  0  0  0  0
 24 16  1  0  0  0  0
 25 30  1  0  0  0  0
 26 27  1  0  0  0  0
 26 25  2  0  0  0  0
 27 28  2  0  0  0  0
 28 29  1  0  0  0  0
 29  1  1  0  0  0  0
 30 29  2  0  0  0  0
 31 25  1  0  0  0  0
 32 26  1  0  0  0  0
 33 34  1  0  0  0  0
 33 27  1  0  0  0  0
 35 34  2  0  0  0  0
 36 35  1  0  0  0  0
 37 36  1  0  0  0  0
 38 36  2  0  0  0  0
 38 39  1  0  0  0  0
 39 33  1  0  0  0  0
 40 39  2  0  0  0  0
 41 37  1  0  0  0  0
 42 37  1  0  0  0  0
M  END
>  <minimizedAffinity>
-8.04350662

$$$$

 OpenBabel03252508273D

 42 46  0  0  1  0  0  0  0  0999 V2000
   38.6160   29.1310   41.4050 C   0  0  1  0  0  0  0  0  0  0  0  0
   38.3560   28.9220   42.8380 C   0  0  0  0  0  0  0  0  0  0  0  0
   37.3790   28.4410   41.6960 C   0  0  2  0  0  0  0  0  0  0  0  0
   39.6380   28.6400   41.2180 H   0  0  0  0  0  0  0  0  0  0  0  0
   38.7140   28.0500   43.4120 H   0  0  0  0  0  0  0  0  0  0  0  0
   37.9630   29.7150   43.4900 H   0  0  0  0  0  0  0  0  0  0  0  0
   36.4010   28.9740   41.9440 H   0  0  0  0  0  0  0  0  0  0  0  0
   37.1320   27.0070   41.5130 C   0  0  0  0  0  0  0  0  0  0  0  0
   37.3850   26.0000   42.3870 C   0  0  0  0  0  0  0  0  0  0  0  0
   37.2330   24.6500   42.1300 C   0  0  0  0  0  0  0  0  0  0  0  0
   36.7760   24.3030   40.8490 C   0  0  0  0  0  0  0  0  0  0  0  0
   36.5060   25.3170   39.9310 C   0  0  0  0  0  0  0  0  0  0  0  0
   36.0000   24.9340   38.7030 C   0  0  0  0  0  0  0  0  0  0  0  0
   35.6500   25.9090   37.7830 C   0  0  0  0  0  0  0  0  0  0  0  0
   35.8000   27.2460   38.0850 C   0  0  0  0  0  0  0  0  0  0  0  0
   36.3090   27.5710   39.3200 C   0  0  0  0  0  0  0  0  0  0  0  0
   36.6810   26.6380   40.2700 C   0  0  0  0  0  0  0  0  0  0  0  0
   37.7380   26.3190   43.3660 H   0  0  0  0  0  0  0  0  0  0  0  0
   37.4520   23.8950   42.8740 H   0  0  0  0  0  0  0  0  0  0  0  0
   36.6440   23.2570   40.6000 H   0  0  0  0  0  0  0  0  0  0  0  0
   35.8910   23.8780   38.4900 H   0  0  0  0  0  0  0  0  0  0  0  0
   35.2630   25.4920   36.8400 H   0  0  0  0  0  0  0  0  0  0  0  0
   35.4740   27.8500   37.2550 H   0  0  0  0  0  0  0  0  0  0  0  0
   36.2460   28.6200   39.3430 H   0  0  0  0  0  0  0  0  0  0  0  0
   37.3240   32.3760   40.2090 C   0  0  0  0  0  0  0  0  0  0  0  0
   38.4930   32.9720   39.6260 C   0  0  0  0  0  0  0  0  0  0  0  0
   39.7160   32.2300   39.6750 C   0  0  0  0  0  0  0  0  0  0  0  0
   39.7290   31.0100   40.2610 N   0  0  0  0  0  0  0  0  0  0  0  0
   38.5670   30.4960   40.8010 C   0  0  0  0  0  0  0  0  0  0  0  0
   37.4130   31.1580   40.7750 N   0  0  0  0  0  0  0  0  0  0  0  0
   36.3970   32.9020   40.1890 H   0  0  0  0  0  0  0  0  0  0  0  0
   38.4270   33.9470   39.1720 H   0  0  0  0  0  0  0  0  0  0  0  0
   40.8830   32.8070   39.1020 N   0  0  0  0  0  0  0  0  0  0  0  0
   41.1090   32.8400   37.7960 C   0  0  0  0  0  3  0  0  0  0  0  0
   42.2760   33.4260   37.3450 C   0  0  0  0  0  3  0  0  0  0  0  0
   43.1940   33.9690   38.2330 C   0  0  0  0  0  0  0  0  0  0  0  0
   44.4200   34.5940   37.8930 N   0  0  0  0  0  0  0  0  0  0  0  0
   42.9190   33.9110   39.5500 N   0  0  0  0  0  0  0  0  0  0  0  0
   41.7790   33.3380   39.9760 C   0  0  0  0  0  0  0  0  0  0  0  0
   41.5560   33.3030   41.2150 O   0  0  0  0  0  0  0  0  0  0  0  0
   44.7400   35.5720   37.6760 H   0  0  0  0  0  0  0  0  0  0  0  0
   45.1170   33.8000   37.8810 H   0  0  0  0  0  0  0  0  0  0  0  0
  1  4  1  6  0  0  0
  1  3  1  0  0  0  0
  1  2  1  0  0  0  0
  2  5  1  0  0  0  0
  2  6  1  0  0  0  0
  3  7  1  6  0  0  0
  3  2  1  0  0  0  0
  8  3  1  0  0  0  0
  8  9  1  0  0  0  0
  9 18  1  0  0  0  0
 10  9  2  0  0  0  0
 10 19  1  0  0  0  0
 11 10  1  0  0  0  0
 12 17  1  0  0  0  0
 12 11  2  0  0  0  0
 13 12  1  0  0  0  0
 14 15  1  0  0  0  0
 14 13  2  0  0  0  0
 15 16  2  0  0  0  0
 16 24  1  0  0  0  0
 16 17  1  0  0  0  0
 17  8  2  0  0  0  0
 20 11  1  0  0  0  0
 21 13  1  0  0  0  0
 22 14  1  0  0  0  0
 23 15  1  0  0  0  0
 25 30  1  0  0  0  0
 26 27  1  0  0  0  0
 26 25  2  0  0  0  0
 27 28  2  0  0  0  0
 28 29  1  0  0  0  0
 29  1  1  0  0  0  0
 30 29  2  0  0  0  0
 31 25  1  0  0  0  0
 32 26  1  0  0  0  0
 33 27  1  0  0  0  0
 33 39  1  0  0  0  0
 34 33  1  0  0  0  0
 35 34  2  0  0  0  0
 35 36  1  0  0  0  0
 36 38  2  0  0  0  0
 37 36  1  0  0  0  0
 38 39  1  0  0  0  0
 39 40  2  0  0  0  0
 41 37  1  0  0  0  0
 42 37  1  0  0  0  0
M  END
>  <minimizedAffinity>
-6.92311525

$$$$

 OpenBabel03252508273D

 42 46  0  0  1  0  0  0  0  0999 V2000
   33.9530   28.7250   35.6190 C   0  0  1  0  0  0  0  0  0  0  0  0
   32.8690   27.7800   35.9300 C   0  0  0  0  0  0  0  0  0  0  0  0
   32.8660   29.2900   36.3880 C   0  0  2  0  0  0  0  0  0  0  0  0
   34.0370   28.7100   34.4740 H   0  0  0  0  0  0  0  0  0  0  0  0
   32.0050   27.5910   35.2700 H   0  0  0  0  0  0  0  0  0  0  0  0
   32.9410   27.0420   36.7410 H   0  0  0  0  0  0  0  0  0  0  0  0
   32.7930   29.2210   37.5240 H   0  0  0  0  0  0  0  0  0  0  0  0
   31.8350   30.1990   35.8770 C   0  0  0  0  0  0  0  0  0  0  0  0
   31.7850   30.8050   34.6640 C   0  0  0  0  0  0  0  0  0  0  0  0
   30.8470   31.7370   34.2640 C   0  0  0  0  0  0  0  0  0  0  0  0
   29.8630   32.0810   35.2050 C   0  0  0  0  0  0  0  0  0  0  0  0
   29.8880   31.4730   36.4600 C   0  0  0  0  0  0  0  0  0  0  0  0
   28.8680   31.7940   37.3340 C   0  0  0  0  0  0  0  0  0  0  0  0
   28.8100   31.1630   38.5660 C   0  0  0  0  0  0  0  0  0  0  0  0
   29.7560   30.2240   38.9200 C   0  0  0  0  0  0  0  0  0  0  0  0
   30.7500   29.9430   38.0130 C   0  0  0  0  0  0  0  0  0  0  0  0
   30.8580   30.5500   36.7750 C   0  0  0  0  0  0  0  0  0  0  0  0
   32.5690   30.5070   33.9690 H   0  0  0  0  0  0  0  0  0  0  0  0
   30.8630   32.1830   33.2780 H   0  0  0  0  0  0  0  0  0  0  0  0
   29.1080   32.8100   34.9390 H   0  0  0  0  0  0  0  0  0  0  0  0
   28.1360   32.5330   37.0320 H   0  0  0  0  0  0  0  0  0  0  0  0
   27.9590   31.4960   39.1820 H   0  0  0  0  0  0  0  0  0  0  0  0
   29.5450   29.8430   39.9050 H   0  0  0  0  0  0  0  0  0  0  0  0
   31.2800   29.1560   38.4650 H   0  0  0  0  0  0  0  0  0  0  0  0
   37.5950   28.2590   36.0110 C   0  0  0  0  0  0  0  0  0  0  0  0
   37.7520   28.2800   37.4380 C   0  0  0  0  0  0  0  0  0  0  0  0
   36.5790   28.4700   38.2360 C   0  0  0  0  0  0  0  0  0  0  0  0
   35.3800   28.6220   37.6280 N   0  0  0  0  0  0  0  0  0  0  0  0
   35.3010   28.5900   36.2500 C   0  0  0  0  0  0  0  0  0  0  0  0
   36.3700   28.4170   35.4760 N   0  0  0  0  0  0  0  0  0  0  0  0
   38.4480   28.1180   35.3870 H   0  0  0  0  0  0  0  0  0  0  0  0
   38.7310   28.1540   37.8710 H   0  0  0  0  0  0  0  0  0  0  0  0
   36.7190   28.4930   39.6510 N   0  0  0  0  0  0  0  0  0  0  0  0
   36.7470   27.3970   40.3950 C   0  0  0  0  0  3  0  0  0  0  0  0
   36.8860   27.5320   41.7630 C   0  0  0  0  0  3  0  0  0  0  0  0
   36.9960   28.7850   42.3510 C   0  0  0  0  0  0  0  0  0  0  0  0
   37.1440   29.0520   43.7350 N   0  0  0  0  0  0  0  0  0  0  0  0
   36.9630   29.8690   41.5520 N   0  0  0  0  0  0  0  0  0  0  0  0
   36.8260   29.7230   40.2220 C   0  0  0  0  0  0  0  0  0  0  0  0
   36.8000   30.7600   39.5080 O   0  0  0  0  0  0  0  0  0  0  0  0
   37.9460   29.1730   44.4040 H   0  0  0  0  0  0  0  0  0  0  0  0
   36.1510   29.1310   44.0870 H   0  0  0  0  0  0  0  0  0  0  0  0
  1  4  1  6  0  0  0
  1  2  1  0  0  0  0
  1 29  1  0  0  0  0
  1  3  1  0  0  0  0
  2  3  1  0  0  0  0
  2  6  1  0  0  0  0
  3  7  1  1  0  0  0
  5  2  1  0  0  0  0
  8  3  1  0  0  0  0
  8 17  1  0  0  0  0
  9  8  2  0  0  0  0
 10  9  1  0  0  0  0
 10 11  2  0  0  0  0
 11 12  1  0  0  0  0
 12 17  2  0  0  0  0
 12 13  1  0  0  0  0
 13 14  2  0  0  0  0
 14 15  1  0  0  0  0
 14 22  1  0  0  0  0
 15 23  1  0  0  0  0
 16 24  1  0  0  0  0
 16 15  2  0  0  0  0
 17 16  1  0  0  0  0
 18  9  1  0  0  0  0
 19 10  1  0  0  0  0
 20 11  1  0  0  0  0
 21 13  1  0  0  0  0
 25 26  1  0  0  0  0
 26 32  1  0  0  0  0
 26 27  2  0  0  0  0
 27 33  1  0  0  0  0
 28 27  1  0  0  0  0
 29 28  2  0  0  0  0
 30 25  2  0  0  0  0
 30 29  1  0  0  0  0
 31 25  1  0  0  0  0
 33 39  1  0  0  0  0
 33 34  1  0  0  0  0
 34 35  2  0  0  0  0
 35 36  1  0  0  0  0
 36 37  1  0  0  0  0
 37 42  1  0  0  0  0
 37 41  1  0  0  0  0
 38 36  2  0  0  0  0
 39 38  1  0  0  0  0
 40 39  2  0  0  0  0
M  END
>  <minimizedAffinity>
-6.85468769

$$$$

 OpenBabel03252508273D

 42 46  0  0  1  0  0  0  0  0999 V2000
   38.6450   29.3520   41.9690 C   0  0  1  0  0  0  0  0  0  0  0  0
   38.0790   29.3460   43.3270 C   0  0  0  0  0  0  0  0  0  0  0  0
   37.9380   28.1390   42.3200 C   0  0  2  0  0  0  0  0  0  0  0  0
   39.7670   29.5500   42.1190 H   0  0  0  0  0  0  0  0  0  0  0  0
   38.6290   29.0170   44.2250 H   0  0  0  0  0  0  0  0  0  0  0  0
   37.1410   29.8600   43.5800 H   0  0  0  0  0  0  0  0  0  0  0  0
   36.8090   28.0140   42.2160 H   0  0  0  0  0  0  0  0  0  0  0  0
   38.5550   26.8500   42.6460 C   0  0  0  0  0  0  0  0  0  0  0  0
   39.5480   26.6030   43.5380 C   0  0  0  0  0  0  0  0  0  0  0  0
   40.1710   25.3850   43.7370 C   0  0  0  0  0  0  0  0  0  0  0  0
   39.7310   24.3180   42.9390 C   0  0  0  0  0  0  0  0  0  0  0  0
   38.7110   24.5410   42.0150 C   0  0  0  0  0  0  0  0  0  0  0  0
   38.2660   23.4500   41.2940 C   0  0  0  0  0  0  0  0  0  0  0  0
   37.2080   23.6070   40.4140 C   0  0  0  0  0  0  0  0  0  0  0  0
   36.6000   24.8350   40.2580 C   0  0  0  0  0  0  0  0  0  0  0  0
   37.0830   25.8870   40.9990 C   0  0  0  0  0  0  0  0  0  0  0  0
   38.1410   25.7860   41.8840 C   0  0  0  0  0  0  0  0  0  0  0  0
   39.8550   27.4620   44.1330 H   0  0  0  0  0  0  0  0  0  0  0  0
   40.9580   25.2550   44.4680 H   0  0  0  0  0  0  0  0  0  0  0  0
   40.1920   23.3450   43.0570 H   0  0  0  0  0  0  0  0  0  0  0  0
   38.7590   22.4950   41.4350 H   0  0  0  0  0  0  0  0  0  0  0  0
   36.9400   22.6750   39.8910 H   0  0  0  0  0  0  0  0  0  0  0  0
   35.8010   24.7620   39.5410 H   0  0  0  0  0  0  0  0  0  0  0  0
   36.4180   26.6710   40.7760 H   0  0  0  0  0  0  0  0  0  0  0  0
   37.6130   32.3880   40.1380 C   0  0  0  0  0  0  0  0  0  0  0  0
   37.0020   31.8380   38.9600 C   0  0  0  0  0  0  0  0  0  0  0  0
   36.9750   30.4140   38.8250 C   0  0  0  0  0  0  0  0  0  0  0  0
   37.5180   29.6440   39.7950 N   0  0  0  0  0  0  0  0  0  0  0  0
   38.0890   30.2390   40.9030 C   0  0  0  0  0  0  0  0  0  0  0  0
   38.1340   31.5590   41.0630 N   0  0  0  0  0  0  0  0  0  0  0  0
   37.6500   33.4450   40.2710 H   0  0  0  0  0  0  0  0  0  0  0  0
   36.5840   32.4980   38.2180 H   0  0  0  0  0  0  0  0  0  0  0  0
   36.3720   29.8560   37.6630 N   0  0  0  0  0  0  0  0  0  0  0  0
   36.9340   29.8970   36.4640 C   0  0  0  0  0  3  0  0  0  0  0  0
   36.2620   29.3230   35.4020 C   0  0  0  0  0  3  0  0  0  0  0  0
   35.0260   28.7150   35.5810 C   0  0  0  0  0  0  0  0  0  0  0  0
   34.2440   28.0950   34.5750 N   0  0  0  0  0  0  0  0  0  0  0  0
   34.4980   28.6990   36.8190 N   0  0  0  0  0  0  0  0  0  0  0  0
   35.1620   29.2610   37.8450 C   0  0  0  0  0  0  0  0  0  0  0  0
   34.6350   29.2260   38.9880 O   0  0  0  0  0  0  0  0  0  0  0  0
   34.1500   27.1270   34.1740 H   0  0  0  0  0  0  0  0  0  0  0  0
   33.6440   28.8790   34.1980 H   0  0  0  0  0  0  0  0  0  0  0  0
  1  4  1  6  0  0  0
  1  3  1  0  0  0  0
  1  2  1  0  0  0  0
  2  6  1  0  0  0  0
  2  5  1  0  0  0  0
  3  7  1  6  0  0  0
  3  8  1  0  0  0  0
  3  2  1  0  0  0  0
  8  9  1  0  0  0  0
  9 10  2  0  0  0  0
  9 18  1  0  0  0  0
 10 19  1  0  0  0  0
 11 20  1  0  0  0  0
 11 10  1  0  0  0  0
 12 11  2  0  0  0  0
 13 21  1  0  0  0  0
 13 12  1  0  0  0  0
 14 13  2  0  0  0  0
 15 14  1  0  0  0  0
 15 16  2  0  0  0  0
 16 17  1  0  0  0  0
 17 12  1  0  0  0  0
 17  8  2  0  0  0  0
 22 14  1  0  0  0  0
 23 15  1  0  0  0  0
 24 16  1  0  0  0  0
 25 31  1  0  0  0  0
 25 30  1  0  0  0  0
 26 25  2  0  0  0  0
 27 26  1  0  0  0  0
 27 28  2  0  0  0  0
 28 29  1  0  0  0  0
 29 30  2  0  0  0  0
 29  1  1  0  0  0  0
 32 26  1  0  0  0  0
 33 39  1  0  0  0  0
 33 27  1  0  0  0  0
 34 33  1  0  0  0  0
 35 36  1  0  0  0  0
 35 34  2  0  0  0  0
 36 38  2  0  0  0  0
 37 36  1  0  0  0  0
 38 39  1  0  0  0  0
 39 40  2  0  0  0  0
 41 37  1  0  0  0  0
 42 37  1  0  0  0  0
M  END
>  <minimizedAffinity>
-6.79078054

$$$$

 OpenBabel03252508273D

 42 46  0  0  1  0  0  0  0  0999 V2000
   37.6560   31.7240   41.0630 C   0  0  1  0  0  0  0  0  0  0  0  0
   36.5780   31.2590   40.1770 C   0  0  0  0  0  0  0  0  0  0  0  0
   37.7700   30.3420   40.6550 C   0  0  2  0  0  0  0  0  0  0  0  0
   37.1180   32.1120   42.0010 H   0  0  0  0  0  0  0  0  0  0  0  0
   35.6210   30.8400   40.5320 H   0  0  0  0  0  0  0  0  0  0  0  0
   36.5580   31.4820   39.1000 H   0  0  0  0  0  0  0  0  0  0  0  0
   38.2550   30.0090   39.6770 H   0  0  0  0  0  0  0  0  0  0  0  0
   37.4900   29.1730   41.4940 C   0  0  0  0  0  0  0  0  0  0  0  0
   37.4760   29.1040   42.8500 C   0  0  0  0  0  0  0  0  0  0  0  0
   37.3110   27.9540   43.5990 C   0  0  0  0  0  0  0  0  0  0  0  0
   37.1430   26.7580   42.8840 C   0  0  0  0  0  0  0  0  0  0  0  0
   37.1510   26.7980   41.4900 C   0  0  0  0  0  0  0  0  0  0  0  0
   36.9220   25.6080   40.8260 C   0  0  0  0  0  0  0  0  0  0  0  0
   36.8510   25.6090   39.4420 C   0  0  0  0  0  0  0  0  0  0  0  0
   37.0020   26.7820   38.7320 C   0  0  0  0  0  0  0  0  0  0  0  0
   37.2300   27.9360   39.4430 C   0  0  0  0  0  0  0  0  0  0  0  0
   37.3180   27.9880   40.8220 C   0  0  0  0  0  0  0  0  0  0  0  0
   37.6110   30.0570   43.3590 H   0  0  0  0  0  0  0  0  0  0  0  0
   37.3080   27.9690   44.6810 H   0  0  0  0  0  0  0  0  0  0  0  0
   37.0130   25.8310   43.4280 H   0  0  0  0  0  0  0  0  0  0  0  0
   36.8040   24.7010   41.4070 H   0  0  0  0  0  0  0  0  0  0  0  0
   36.6680   24.6090   39.0190 H   0  0  0  0  0  0  0  0  0  0  0  0
   36.9120   26.5870   37.6770 H   0  0  0  0  0  0  0  0  0  0  0  0
   37.2230   28.6850   38.7040 H   0  0  0  0  0  0  0  0  0  0  0  0
   39.3750   34.9260   40.4070 C   0  0  0  0  0  0  0  0  0  0  0  0
   40.5250   34.5040   39.6570 C   0  0  0  0  0  0  0  0  0  0  0  0
   40.6820   33.1040   39.4060 C   0  0  0  0  0  0  0  0  0  0  0  0
   39.7570   32.2370   39.8780 N   0  0  0  0  0  0  0  0  0  0  0  0
   38.6740   32.7110   40.5920 C   0  0  0  0  0  0  0  0  0  0  0  0
   38.4950   34.0050   40.8450 N   0  0  0  0  0  0  0  0  0  0  0  0
   39.2270   35.9620   40.6100 H   0  0  0  0  0  0  0  0  0  0  0  0
   41.2310   35.2370   39.3040 H   0  0  0  0  0  0  0  0  0  0  0  0
   41.8160   32.6720   38.6650 N   0  0  0  0  0  0  0  0  0  0  0  0
   43.0500   32.6990   39.1460 C   0  0  0  0  0  3  0  0  0  0  0  0
   44.0810   32.2560   38.3400 C   0  0  0  0  0  3  0  0  0  0  0  0
   43.8360   31.7900   37.0550 C   0  0  0  0  0  0  0  0  0  0  0  0
   44.8050   31.3100   36.1380 N   0  0  0  0  0  0  0  0  0  0  0  0
   42.5640   31.7810   36.6120 N   0  0  0  0  0  0  0  0  0  0  0  0
   41.5700   32.2160   37.4070 C   0  0  0  0  0  0  0  0  0  0  0  0
   40.3940   32.1930   36.9570 O   0  0  0  0  0  0  0  0  0  0  0  0
   45.2320   30.3790   35.9010 H   0  0  0  0  0  0  0  0  0  0  0  0
   45.1100   32.1750   35.6130 H   0  0  0  0  0  0  0  0  0  0  0  0
  1  4  1  1  0  0  0
  2  5  1  0  0  0  0
  2  3  1  0  0  0  0
  2  1  1  0  0  0  0
  3  7  1  6  0  0  0
  3  1  1  0  0  0  0
  3  8  1  0  0  0  0
  6  2  1  0  0  0  0
  8  9  1  0  0  0  0
  9 18  1  0  0  0  0
  9 10  2  0  0  0  0
 10 19  1  0  0  0  0
 11 20  1  0  0  0  0
 11 10  1  0  0  0  0
 12 11  2  0  0  0  0
 13 21  1  0  0  0  0
 13 12  1  0  0  0  0
 14 13  2  0  0  0  0
 15 14  1  0  0  0  0
 15 16  2  0  0  0  0
 16 17  1  0  0  0  0
 17 12  1  0  0  0  0
 17  8  2  0  0  0  0
 22 14  1  0  0  0  0
 23 15  1  0  0  0  0
 24 16  1  0  0  0  0
 25 31  1  0  0  0  0
 25 30  1  0  0  0  0
 26 25  2  0  0  0  0
 27 26  1  0  0  0  0
 27 28  2  0  0  0  0
 28 29  1  0  0  0  0
 29 30  2  0  0  0  0
 29  1  1  0  0  0  0
 32 26  1  0  0  0  0
 33 34  1  0  0  0  0
 33 27  1  0  0  0  0
 35 34  2  0  0  0  0
 36 35  1  0  0  0  0
 37 36  1  0  0  0  0
 38 36  2  0  0  0  0
 38 39  1  0  0  0  0
 39 33  1  0  0  0  0
 40 39  2  0  0  0  0
 41 37  1  0  0  0  0
 42 37  1  0  0  0  0
M  END
>  <minimizedAffinity>
-6.74077225

$$$$

 OpenBabel03252508273D

 42 46  0  0  1  0  0  0  0  0999 V2000
   36.0340   28.7690   39.2950 C   0  0  1  0  0  0  0  0  0  0  0  0
   35.7390   29.9550   40.1150 C   0  0  0  0  0  0  0  0  0  0  0  0
   35.8300   28.4920   40.7000 C   0  0  2  0  0  0  0  0  0  0  0  0
   37.0380   29.0030   38.7890 H   0  0  0  0  0  0  0  0  0  0  0  0
   36.5100   30.5910   40.5820 H   0  0  0  0  0  0  0  0  0  0  0  0
   34.7420   30.4160   40.1520 H   0  0  0  0  0  0  0  0  0  0  0  0
   34.8030   28.3330   41.1700 H   0  0  0  0  0  0  0  0  0  0  0  0
   36.8780   28.1670   41.6720 C   0  0  0  0  0  0  0  0  0  0  0  0
   37.5600   29.0200   42.4790 C   0  0  0  0  0  0  0  0  0  0  0  0
   38.6150   28.6810   43.3050 C   0  0  0  0  0  0  0  0  0  0  0  0
   39.0090   27.3340   43.3000 C   0  0  0  0  0  0  0  0  0  0  0  0
   38.3250   26.4340   42.4830 C   0  0  0  0  0  0  0  0  0  0  0  0
   38.7040   25.1080   42.5550 C   0  0  0  0  0  0  0  0  0  0  0  0
   38.0090   24.1650   41.8140 C   0  0  0  0  0  0  0  0  0  0  0  0
   36.9490   24.5420   41.0160 C   0  0  0  0  0  0  0  0  0  0  0  0
   36.6150   25.8750   40.9800 C   0  0  0  0  0  0  0  0  0  0  0  0
   37.2810   26.8550   41.6930 C   0  0  0  0  0  0  0  0  0  0  0  0
   37.2190   30.0540   42.4470 H   0  0  0  0  0  0  0  0  0  0  0  0
   39.1160   29.4120   43.9260 H   0  0  0  0  0  0  0  0  0  0  0  0
   39.8330   27.0220   43.9300 H   0  0  0  0  0  0  0  0  0  0  0  0
   39.5380   24.8370   43.1900 H   0  0  0  0  0  0  0  0  0  0  0  0
   38.3970   23.1430   41.9440 H   0  0  0  0  0  0  0  0  0  0  0  0
   36.5340   23.6780   40.5240 H   0  0  0  0  0  0  0  0  0  0  0  0
   35.7470   25.8950   40.3880 H   0  0  0  0  0  0  0  0  0  0  0  0
   34.2010   26.4650   37.0660 C   0  0  0  0  0  0  0  0  0  0  0  0
   33.2700   27.3470   36.4180 C   0  0  0  0  0  0  0  0  0  0  0  0
   33.2940   28.7300   36.7850 C   0  0  0  0  0  0  0  0  0  0  0  0
   34.1790   29.1550   37.7160 N   0  0  0  0  0  0  0  0  0  0  0  0
   35.0470   28.2520   38.2990 C   0  0  0  0  0  0  0  0  0  0  0  0
   35.0530   26.9590   37.9840 N   0  0  0  0  0  0  0  0  0  0  0  0
   34.2100   25.4290   36.8160 H   0  0  0  0  0  0  0  0  0  0  0  0
   32.5870   26.9560   35.6830 H   0  0  0  0  0  0  0  0  0  0  0  0
   32.3790   29.6150   36.1520 N   0  0  0  0  0  0  0  0  0  0  0  0
   32.4580   29.9460   34.8710 C   0  0  0  0  0  3  0  0  0  0  0  0
   31.5160   30.8150   34.3560 C   0  0  0  0  0  3  0  0  0  0  0  0
   30.5060   31.3320   35.1560 C   0  0  0  0  0  0  0  0  0  0  0  0
   29.4860   32.2260   34.7450 N   0  0  0  0  0  0  0  0  0  0  0  0
   30.4670   30.9640   36.4510 N   0  0  0  0  0  0  0  0  0  0  0  0
   31.3910   30.1180   36.9400 C   0  0  0  0  0  0  0  0  0  0  0  0
   31.3220   29.7980   38.1560 O   0  0  0  0  0  0  0  0  0  0  0  0
   28.5110   32.1420   34.3600 H   0  0  0  0  0  0  0  0  0  0  0  0
   29.9050   33.1830   34.9030 H   0  0  0  0  0  0  0  0  0  0  0  0
  1  4  1  6  0  0  0
  1  2  1  0  0  0  0
  1  3  1  0  0  0  0
  2  6  1  0  0  0  0
  2  5  1  0  0  0  0
  2  3  1  0  0  0  0
  3  7  1  1  0  0  0
  3  8  1  0  0  0  0
  8 17  2  0  0  0  0
  8  9  1  0  0  0  0
  9 10  2  0  0  0  0
 10 19  1  0  0  0  0
 11 10  1  0  0  0  0
 11 20  1  0  0  0  0
 12 13  1  0  0  0  0
 12 11  2  0  0  0  0
 13 21  1  0  0  0  0
 14 22  1  0  0  0  0
 14 13  2  0  0  0  0
 15 14  1  0  0  0  0
 16 15  2  0  0  0  0
 16 17  1  0  0  0  0
 17 12  1  0  0  0  0
 18  9  1  0  0  0  0
 23 15  1  0  0  0  0
 24 16  1  0  0  0  0
 25 30  1  0  0  0  0
 26 27  1  0  0  0  0
 26 25  2  0  0  0  0
 27 28  2  0  0  0  0
 28 29  1  0  0  0  0
 29  1  1  0  0  0  0
 30 29  2  0  0  0  0
 31 25  1  0  0  0  0
 32 26  1  0  0  0  0
 33 27  1  0  0  0  0
 33 39  1  0  0  0  0
 34 33  1  0  0  0  0
 35 34  2  0  0  0  0
 35 36  1  0  0  0  0
 36 38  2  0  0  0  0
 37 42  1  0  0  0  0
 37 36  1  0  0  0  0
 38 39  1  0  0  0  0
 39 40  2  0  0  0  0
 41 37  1  0  0  0  0
M  END
>  <minimizedAffinity>
-6.51656342

$$$$

 OpenBabel03252508273D

 42 46  0  0  1  0  0  0  0  0999 V2000
   37.8950   31.7920   41.0490 C   0  0  1  0  0  0  0  0  0  0  0  0
   36.8700   31.2340   40.1530 C   0  0  0  0  0  0  0  0  0  0  0  0
   38.1160   30.4150   40.6670 C   0  0  2  0  0  0  0  0  0  0  0  0
   37.3140   32.1550   41.9710 H   0  0  0  0  0  0  0  0  0  0  0  0
   35.9400   30.7530   40.5000 H   0  0  0  0  0  0  0  0  0  0  0  0
   36.8530   31.4380   39.0730 H   0  0  0  0  0  0  0  0  0  0  0  0
   38.6420   30.1030   39.7030 H   0  0  0  0  0  0  0  0  0  0  0  0
   37.9080   29.2430   41.5220 C   0  0  0  0  0  0  0  0  0  0  0  0
   36.7340   28.6340   41.8300 C   0  0  0  0  0  0  0  0  0  0  0  0
   36.5740   27.5940   42.7260 C   0  0  0  0  0  0  0  0  0  0  0  0
   37.7340   27.1350   43.3690 C   0  0  0  0  0  0  0  0  0  0  0  0
   38.9550   27.7400   43.0710 C   0  0  0  0  0  0  0  0  0  0  0  0
   40.0790   27.2180   43.6800 C   0  0  0  0  0  0  0  0  0  0  0  0
   41.3240   27.7400   43.3630 C   0  0  0  0  0  0  0  0  0  0  0  0
   41.4430   28.7660   42.4490 C   0  0  0  0  0  0  0  0  0  0  0  0
   40.2910   29.2490   41.8740 C   0  0  0  0  0  0  0  0  0  0  0  0
   39.0260   28.7690   42.1620 C   0  0  0  0  0  0  0  0  0  0  0  0
   35.8630   29.0250   41.3060 H   0  0  0  0  0  0  0  0  0  0  0  0
   35.6070   27.1510   42.9250 H   0  0  0  0  0  0  0  0  0  0  0  0
   37.6580   26.3240   44.0820 H   0  0  0  0  0  0  0  0  0  0  0  0
   39.9600   26.4120   44.3930 H   0  0  0  0  0  0  0  0  0  0  0  0
   42.1470   27.2530   43.9080 H   0  0  0  0  0  0  0  0  0  0  0  0
   42.4790   29.0340   42.3300 H   0  0  0  0  0  0  0  0  0  0  0  0
   40.6420   29.9450   41.1690 H   0  0  0  0  0  0  0  0  0  0  0  0
   39.3320   35.0990   40.2510 C   0  0  0  0  0  0  0  0  0  0  0  0
   40.5830   34.7460   39.6410 C   0  0  0  0  0  0  0  0  0  0  0  0
   40.9060   33.3560   39.5340 C   0  0  0  0  0  0  0  0  0  0  0  0
   40.0340   32.4340   40.0030 N   0  0  0  0  0  0  0  0  0  0  0  0
   38.8460   32.8430   40.5770 C   0  0  0  0  0  0  0  0  0  0  0  0
   38.5140   34.1260   40.6950 N   0  0  0  0  0  0  0  0  0  0  0  0
   39.0600   36.1250   40.3460 H   0  0  0  0  0  0  0  0  0  0  0  0
   41.2410   35.5210   39.2840 H   0  0  0  0  0  0  0  0  0  0  0  0
   42.1420   32.9920   38.9320 N   0  0  0  0  0  0  0  0  0  0  0  0
   42.2550   32.6470   37.6580 C   0  0  0  0  0  3  0  0  0  0  0  0
   43.5050   32.3110   37.1750 C   0  0  0  0  0  3  0  0  0  0  0  0
   44.6210   32.3330   38.0000 C   0  0  0  0  0  0  0  0  0  0  0  0
   45.9490   32.0110   37.6230 N   0  0  0  0  0  0  0  0  0  0  0  0
   44.4550   32.6910   39.2880 N   0  0  0  0  0  0  0  0  0  0  0  0
   43.2330   33.0160   39.7460 C   0  0  0  0  0  0  0  0  0  0  0  0
   43.1170   33.3460   40.9550 O   0  0  0  0  0  0  0  0  0  0  0  0
   46.7810   32.5350   37.2510 H   0  0  0  0  0  0  0  0  0  0  0  0
   46.0200   30.9710   37.7960 H   0  0  0  0  0  0  0  0  0  0  0  0
  1  4  1  1  0  0  0
  2  5  1  0  0  0  0
  2  3  1  0  0  0  0
  2  1  1  0  0  0  0
  3  7  1  6  0  0  0
  3  1  1  0  0  0  0
  3  8  1  0  0  0  0
  6  2  1  0  0  0  0
  8  9  2  0  0  0  0
  8 17  1  0  0  0  0
  9 10  1  0  0  0  0
 10 19  1  0  0  0  0
 10 11  2  0  0  0  0
 11 20  1  0  0  0  0
 12 11  1  0  0  0  0
 12 13  1  0  0  0  0
 13 21  1  0  0  0  0
 14 13  2  0  0  0  0
 14 22  1  0  0  0  0
 15 14  1  0  0  0  0
 16 17  1  0  0  0  0
 16 15  2  0  0  0  0
 17 12  2  0  0  0  0
 18  9  1  0  0  0  0
 23 15  1  0  0  0  0
 24 16  1  0  0  0  0
 25 31  1  0  0  0  0
 25 30  1  0  0  0  0
 26 25  2  0  0  0  0
 27 26  1  0  0  0  0
 27 28  2  0  0  0  0
 28 29  1  0  0  0  0
 29 30  2  0  0  0  0
 29  1  1  0  0  0  0
 32 26  1  0  0  0  0
 33 27  1  0  0  0  0
 33 39  1  0  0  0  0
 34 33  1  0  0  0  0
 35 34  2  0  0  0  0
 35 36  1  0  0  0  0
 36 38  2  0  0  0  0
 37 42  1  0  0  0  0
 37 36  1  0  0  0  0
 38 39  1  0  0  0  0
 39 40  2  0  0  0  0
 41 37  1  0  0  0  0
M  END
>  <minimizedAffinity>
-6.50468731

$$$$

 OpenBabel03252508273D

 42 46  0  0  1  0  0  0  0  0999 V2000
   38.2330   31.6650   40.7620 C   0  0  1  0  0  0  0  0  0  0  0  0
   37.6950   32.6690   39.8310 C   0  0  0  0  0  0  0  0  0  0  0  0
   37.7500   31.1250   39.5100 C   0  0  2  0  0  0  0  0  0  0  0  0
   37.6190   31.7980   41.7240 H   0  0  0  0  0  0  0  0  0  0  0  0
   36.6470   33.0120   39.8280 H   0  0  0  0  0  0  0  0  0  0  0  0
   38.3410   33.3020   39.2060 H   0  0  0  0  0  0  0  0  0  0  0  0
   38.3780   31.0750   38.5600 H   0  0  0  0  0  0  0  0  0  0  0  0
   36.5000   30.3820   39.3210 C   0  0  0  0  0  0  0  0  0  0  0  0
   35.6300   29.9580   40.2730 C   0  0  0  0  0  0  0  0  0  0  0  0
   34.5170   29.1680   40.0550 C   0  0  0  0  0  0  0  0  0  0  0  0
   34.2750   28.7750   38.7300 C   0  0  0  0  0  0  0  0  0  0  0  0
   35.1510   29.1970   37.7300 C   0  0  0  0  0  0  0  0  0  0  0  0
   34.8430   28.8390   36.4320 C   0  0  0  0  0  0  0  0  0  0  0  0
   35.6440   29.2930   35.3970 C   0  0  0  0  0  0  0  0  0  0  0  0
   36.7360   30.0960   35.6540 C   0  0  0  0  0  0  0  0  0  0  0  0
   36.9980   30.4200   36.9640 C   0  0  0  0  0  0  0  0  0  0  0  0
   36.2350   29.9870   38.0330 C   0  0  0  0  0  0  0  0  0  0  0  0
   35.8600   30.2870   41.2850 H   0  0  0  0  0  0  0  0  0  0  0  0
   33.8610   28.8650   40.8610 H   0  0  0  0  0  0  0  0  0  0  0  0
   33.4160   28.1530   38.5110 H   0  0  0  0  0  0  0  0  0  0  0  0
   33.9790   28.2090   36.2560 H   0  0  0  0  0  0  0  0  0  0  0  0
   35.3080   28.9450   34.4070 H   0  0  0  0  0  0  0  0  0  0  0  0
   37.2310   30.3500   34.7320 H   0  0  0  0  0  0  0  0  0  0  0  0
   37.8040   31.0920   36.8940 H   0  0  0  0  0  0  0  0  0  0  0  0
   41.3930   31.1900   42.6110 C   0  0  0  0  0  0  0  0  0  0  0  0
   42.3770   31.5510   41.6290 C   0  0  0  0  0  0  0  0  0  0  0  0
   41.9130   31.9420   40.3320 C   0  0  0  0  0  0  0  0  0  0  0  0
   40.5840   31.9570   40.0790 N   0  0  0  0  0  0  0  0  0  0  0  0
   39.6930   31.5990   41.0720 C   0  0  0  0  0  0  0  0  0  0  0  0
   40.0870   31.2290   42.2870 N   0  0  0  0  0  0  0  0  0  0  0  0
   41.7050   30.8950   43.5870 H   0  0  0  0  0  0  0  0  0  0  0  0
   43.4230   31.5220   41.8830 H   0  0  0  0  0  0  0  0  0  0  0  0
   42.8750   32.3030   39.3490 N   0  0  0  0  0  0  0  0  0  0  0  0
   43.4720   31.4210   38.5610 C   0  0  0  0  0  3  0  0  0  0  0  0
   44.3930   31.8790   37.6380 C   0  0  0  0  0  3  0  0  0  0  0  0
   44.6900   33.2310   37.5340 C   0  0  0  0  0  0  0  0  0  0  0  0
   45.6110   33.8200   36.6310 N   0  0  0  0  0  0  0  0  0  0  0  0
   44.0560   34.0880   38.3570 N   0  0  0  0  0  0  0  0  0  0  0  0
   43.1620   33.6290   39.2510 C   0  0  0  0  0  0  0  0  0  0  0  0
   42.5900   34.4610   40.0030 O   0  0  0  0  0  0  0  0  0  0  0  0
   45.5720   34.2220   35.6600 H   0  0  0  0  0  0  0  0  0  0  0  0
   46.5280   33.8050   37.1560 H   0  0  0  0  0  0  0  0  0  0  0  0
  1 29  1  0  0  0  0
  1  4  1  1  0  0  0
  2  1  1  0  0  0  0
  3  7  1  6  0  0  0
  3  2  1  0  0  0  0
  3  1  1  0  0  0  0
  5  2  1  0  0  0  0
  6  2  1  0  0  0  0
  8  3  1  0  0  0  0
  8  9  1  0  0  0  0
  9 18  1  0  0  0  0
 10  9  2  0  0  0  0
 10 19  1  0  0  0  0
 11 10  1  0  0  0  0
 12 17  1  0  0  0  0
 12 11  2  0  0  0  0
 13 12  1  0  0  0  0
 14 15  1  0  0  0  0
 14 13  2  0  0  0  0
 15 16  2  0  0  0  0
 16 17  1  0  0  0  0
 17  8  2  0  0  0  0
 20 11  1  0  0  0  0
 21 13  1  0  0  0  0
 22 14  1  0  0  0  0
 23 15  1  0  0  0  0
 24 16  1  0  0  0  0
 25 31  1  0  0  0  0
 26 32  1  0  0  0  0
 26 25  2  0  0  0  0
 27 26  1  0  0  0  0
 28 27  2  0  0  0  0
 28 29  1  0  0  0  0
 29 30  2  0  0  0  0
 30 25  1  0  0  0  0
 33 27  1  0  0  0  0
 34 33  1  0  0  0  0
 35 34  2  0  0  0  0
 36 35  1  0  0  0  0
 36 38  2  0  0  0  0
 37 42  1  0  0  0  0
 37 36  1  0  0  0  0
 38 39  1  0  0  0  0
 39 33  1  0  0  0  0
 39 40  2  0  0  0  0
 41 37  1  0  0  0  0
M  END
>  <minimizedAffinity>
-6.45943499

$$$$

 OpenBabel03252508273D

 42 46  0  0  1  0  0  0  0  0999 V2000
   36.6570   29.5230   40.1810 C   0  0  1  0  0  0  0  0  0  0  0  0
   35.2900   29.0670   39.8860 C   0  0  0  0  0  0  0  0  0  0  0  0
   36.5580   28.1320   39.7990 C   0  0  2  0  0  0  0  0  0  0  0  0
   36.6050   29.9370   41.2510 H   0  0  0  0  0  0  0  0  0  0  0  0
   34.5910   28.6750   40.6440 H   0  0  0  0  0  0  0  0  0  0  0  0
   34.7910   29.2740   38.9290 H   0  0  0  0  0  0  0  0  0  0  0  0
   36.5460   27.7730   38.7150 H   0  0  0  0  0  0  0  0  0  0  0  0
   36.6710   26.9820   40.7020 C   0  0  0  0  0  0  0  0  0  0  0  0
   36.9540   26.9910   42.0290 C   0  0  0  0  0  0  0  0  0  0  0  0
   37.1550   25.8750   42.8190 C   0  0  0  0  0  0  0  0  0  0  0  0
   37.0570   24.6280   42.1820 C   0  0  0  0  0  0  0  0  0  0  0  0
   36.7650   24.5890   40.8190 C   0  0  0  0  0  0  0  0  0  0  0  0
   36.6170   23.3410   40.2440 C   0  0  0  0  0  0  0  0  0  0  0  0
   36.2590   23.2500   38.9080 C   0  0  0  0  0  0  0  0  0  0  0  0
   36.0480   24.3880   38.1590 C   0  0  0  0  0  0  0  0  0  0  0  0
   36.2110   25.6040   38.7800 C   0  0  0  0  0  0  0  0  0  0  0  0
   36.5750   25.7490   40.1060 C   0  0  0  0  0  0  0  0  0  0  0  0
   37.0220   27.9810   42.4780 H   0  0  0  0  0  0  0  0  0  0  0  0
   37.3770   25.9510   43.8760 H   0  0  0  0  0  0  0  0  0  0  0  0
   37.2100   23.7250   42.7600 H   0  0  0  0  0  0  0  0  0  0  0  0
   36.7860   22.4620   40.8540 H   0  0  0  0  0  0  0  0  0  0  0  0
   36.1720   22.2110   38.5550 H   0  0  0  0  0  0  0  0  0  0  0  0
   35.7750   24.1210   37.1520 H   0  0  0  0  0  0  0  0  0  0  0  0
   35.9180   26.2970   38.0460 H   0  0  0  0  0  0  0  0  0  0  0  0
   37.6990   31.3330   37.1360 C   0  0  0  0  0  0  0  0  0  0  0  0
   38.7300   32.1990   37.6360 C   0  0  0  0  0  0  0  0  0  0  0  0
   39.0310   32.1410   39.0340 C   0  0  0  0  0  0  0  0  0  0  0  0
   38.3450   31.2860   39.8260 N   0  0  0  0  0  0  0  0  0  0  0  0
   37.3660   30.4800   39.2780 C   0  0  0  0  0  0  0  0  0  0  0  0
   37.0580   30.5070   37.9840 N   0  0  0  0  0  0  0  0  0  0  0  0
   37.4500   31.3510   36.1000 H   0  0  0  0  0  0  0  0  0  0  0  0
   39.2460   32.8620   36.9610 H   0  0  0  0  0  0  0  0  0  0  0  0
   40.0500   32.9930   39.5430 N   0  0  0  0  0  0  0  0  0  0  0  0
   39.8220   34.2330   39.9510 C   0  0  0  0  0  3  0  0  0  0  0  0
   40.8840   34.9750   40.4290 C   0  0  0  0  0  3  0  0  0  0  0  0
   42.1640   34.4400   40.4840 C   0  0  0  0  0  0  0  0  0  0  0  0
   43.3290   35.0990   40.9520 N   0  0  0  0  0  0  0  0  0  0  0  0
   42.3450   33.1750   40.0580 N   0  0  0  0  0  0  0  0  0  0  0  0
   41.3020   32.4630   39.5950 C   0  0  0  0  0  0  0  0  0  0  0  0
   41.5110   31.2840   39.2060 O   0  0  0  0  0  0  0  0  0  0  0  0
   43.8260   35.2000   41.8730 H   0  0  0  0  0  0  0  0  0  0  0  0
   43.7180   35.5720   40.0910 H   0  0  0  0  0  0  0  0  0  0  0  0
  1  4  1  1  0  0  0
  2  1  1  0  0  0  0
  2  5  1  0  0  0  0
  3  7  1  6  0  0  0
  3  2  1  0  0  0  0
  3  1  1  0  0  0  0
  3  8  1  0  0  0  0
  6  2  1  0  0  0  0
  8  9  1  0  0  0  0
  9 18  1  0  0  0  0
  9 10  2  0  0  0  0
 10 19  1  0  0  0  0
 11 20  1  0  0  0  0
 11 10  1  0  0  0  0
 12 11  2  0  0  0  0
 13 12  1  0  0  0  0
 13 21  1  0  0  0  0
 14 13  2  0  0  0  0
 15 16  2  0  0  0  0
 15 14  1  0  0  0  0
 16 17  1  0  0  0  0
 17  8  2  0  0  0  0
 17 12  1  0  0  0  0
 22 14  1  0  0  0  0
 23 15  1  0  0  0  0
 24 16  1  0  0  0  0
 25 26  2  0  0  0  0
 25 30  1  0  0  0  0
 26 27  1  0  0  0  0
 27 33  1  0  0  0  0
 27 28  2  0  0  0  0
 29 28  1  0  0  0  0
 29  1  1  0  0  0  0
 30 29  2  0  0  0  0
 31 25  1  0  0  0  0
 32 26  1  0  0  0  0
 33 39  1  0  0  0  0
 33 34  1  0  0  0  0
 34 35  2  0  0  0  0
 35 36  1  0  0  0  0
 36 37  1  0  0  0  0
 37 41  1  0  0  0  0
 38 36  2  0  0  0  0
 39 38  1  0  0  0  0
 40 39  2  0  0  0  0
 42 37  1  0  0  0  0
M  END
>  <minimizedAffinity>
-6.37099695

$$$$
