REMARK  Name = 
REMARK  4 active torsions:
REMARK  status: ('A' for Active; 'I' for Inactive)
REMARK    1  A    between atoms: C_1  and  C_15
REMARK    2  A    between atoms: C_3  and  C_4
REMARK    3  A    between atoms: C_18  and  C_20
REMARK    4  A    between atoms: C_22  and  N_39
REMARK                            x       y       z     vdW  Elec       q    Type
REMARK                         _______ _______ _______ _____ _____    ______ ____
ROOT
ATOM      1  C   UNL     1      45.545  33.938  45.292  0.00  0.00    +0.000 A 
ATOM      2  C   UNL     1      46.468  33.141  44.536  0.00  0.00    +0.000 A 
ATOM      3  C   UNL     1      47.121  32.125  45.185  0.00  0.00    +0.000 A 
ATOM      4  N   UNL     1      46.852  31.940  46.506  0.00  0.00    +0.000 NA
ATOM      5  C   UNL     1      45.977  32.704  47.207  0.00  0.00    +0.000 A 
ATOM      6  N   UNL     1      45.325  33.704  46.593  0.00  0.00    +0.000 NA
ATOM      7  H   UNL     1      45.000  34.756  44.828  0.00  0.00    +0.000 HD
ATOM      8  H   UNL     1      47.816  31.507  44.657  0.00  0.00    +0.000 HD
ENDROOT
BRANCH   2   9
ATOM      9  C   UNL     1      46.684  33.463  43.094  0.00  0.00    +0.000 C 
ATOM     10  C   UNL     1      46.979  34.829  42.679  0.00  0.00    +0.000 C 
ATOM     11  C   UNL     1      48.099  33.855  42.692  0.00  0.00    +0.000 C 
ATOM     12  H   UNL     1      46.167  32.777  42.408  0.00  0.00    +0.000 HD
ATOM     13  H   UNL     1      46.988  35.579  43.527  0.00  0.00    +0.000 HD
ATOM     14  H   UNL     1      46.457  35.204  41.814  0.00  0.00    +0.000 HD
ATOM     15  H   UNL     1      48.870  33.794  43.470  0.00  0.00    +0.000 HD
BRANCH  11  16
ATOM     16  C   UNL     1      48.531  33.304  41.380  0.00  0.00    +0.000 A 
ATOM     17  C   UNL     1      49.359  32.211  41.232  0.00  0.00    +0.000 A 
ATOM     18  C   UNL     1      49.719  31.753  39.975  0.00  0.00    +0.000 A 
ATOM     19  C   UNL     1      49.255  32.384  38.846  0.00  0.00    +0.000 A 
ATOM     20  N   UNL     1      49.580  31.956  37.594  0.00  0.00    +0.000 NA
ATOM     21  C   UNL     1      49.105  32.589  36.510  0.00  0.00    +0.000 A 
ATOM     22  C   UNL     1      48.253  33.719  36.560  0.00  0.00    +0.000 A 
ATOM     23  C   UNL     1      47.911  34.168  37.815  0.00  0.00    +0.000 A 
ATOM     24  C   UNL     1      48.414  33.498  38.939  0.00  0.00    +0.000 A 
ATOM     25  C   UNL     1      48.081  33.920  40.211  0.00  0.00    +0.000 A 
ATOM     26  H   UNL     1      49.716  31.726  42.129  0.00  0.00    +0.000 HD
ATOM     27  H   UNL     1      50.359  30.906  39.906  0.00  0.00    +0.000 HD
ATOM     28  H   UNL     1      49.389  32.214  35.533  0.00  0.00    +0.000 HD
ATOM     29  H   UNL     1      47.908  34.179  35.645  0.00  0.00    +0.000 HD
ATOM     30  H   UNL     1      47.266  35.024  37.916  0.00  0.00    +0.000 HD
ATOM     31  H   UNL     1      47.436  34.787  40.202  0.00  0.00    +0.000 HD
ENDBRANCH  11  16
ENDBRANCH   2   9
BRANCH   5  32
ATOM     32  C   UNL     1      45.768  32.398  48.648  0.00  0.00    +0.000 C 
ATOM     33  C   UNL     1      46.278  31.174  49.247  0.00  0.00    +0.000 C 
ATOM     34  C   UNL     1      44.809  31.206  48.901  0.00  0.00    +0.000 C 
ATOM     35  H   UNL     1      45.484  33.330  49.206  0.00  0.00    +0.000 HD
ATOM     36  H   UNL     1      46.967  30.532  48.630  0.00  0.00    +0.000 HD
ATOM     37  H   UNL     1      46.591  31.129  50.312  0.00  0.00    +0.000 HD
ATOM     38  H   UNL     1      44.566  30.585  48.003  0.00  0.00    +0.000 HD
BRANCH  34  39
ATOM     39  N   UNL     1      43.797  31.315  49.894  0.00  0.00    +0.000 N 
ATOM     40  C   UNL     1      42.695  30.509  49.852  0.00  0.00    +0.000 A 
ATOM     41  C   UNL     1      41.671  30.554  50.778  0.00  0.00    +0.000 A 
ATOM     42  C   UNL     1      41.756  31.465  51.812  0.00  0.00    +0.000 A 
ATOM     43  N   UNL     1      40.747  31.580  52.809  0.00  0.00    +0.000 N 
ATOM     44  N   UNL     1      42.850  32.264  51.852  0.00  0.00    +0.000 NA
ATOM     45  C   UNL     1      43.822  32.178  50.921  0.00  0.00    +0.000 A 
ATOM     46  O   UNL     1      44.790  32.963  51.052  0.00  0.00    +0.000 OA
ATOM     47  H   UNL     1      40.071  30.803  52.976  0.00  0.00    +0.000 HD
ATOM     48  H   UNL     1      40.712  32.478  53.369  0.00  0.00    +0.000 HD
ENDBRANCH  34  39
ENDBRANCH   5  32
TORSDOF 4
