
 OpenBabel03242511083D

 44 48  0  0  1  0  0  0  0  0999 V2000
   45.6030   32.0160   43.6100 C   0  0  0  0  0  0  0  0  0  0  0  0
   46.1830   31.4480   44.7360 C   0  0  0  0  0  0  0  0  0  0  0  0
   46.3500   32.1340   45.9390 C   0  0  0  0  0  0  0  0  0  0  0  0
   45.9260   33.4410   46.0410 C   0  0  0  0  0  0  0  0  0  0  0  0
   45.3550   34.0300   44.9650 C   0  0  0  0  0  0  0  0  0  0  0  0
   44.9150   35.3350   45.0370 C   0  0  0  0  0  0  0  0  0  0  0  0
   44.3250   35.9890   43.9880 C   0  0  0  0  0  0  0  0  0  0  0  0
   44.1780   35.2680   42.8080 C   0  0  0  0  0  0  0  0  0  0  0  0
   44.6210   33.9530   42.7380 C   0  0  0  0  0  0  0  0  0  0  0  0
   45.2070   33.3140   43.7890 C   0  0  0  0  0  0  0  0  0  0  0  0
   46.5480   30.4310   44.7700 H   0  0  0  0  0  0  0  0  0  0  0  0
   46.8040   31.6760   46.8050 H   0  0  0  0  0  0  0  0  0  0  0  0
   46.0550   33.9750   46.9750 H   0  0  0  0  0  0  0  0  0  0  0  0
   45.0560   35.8440   45.9790 H   0  0  0  0  0  0  0  0  0  0  0  0
   44.0180   37.0180   44.1610 H   0  0  0  0  0  0  0  0  0  0  0  0
   43.7000   35.8700   42.0360 H   0  0  0  0  0  0  0  0  0  0  0  0
   44.3420   33.4810   41.4350 N   0  0  0  0  0  0  0  0  0  0  0  0
   43.3660   32.7970   40.8180 C   0  0  0  0  0  3  0  0  0  0  0  0
   43.3750   32.5250   39.4720 C   0  0  0  0  0  3  0  0  0  0  0  0
   44.4060   32.9470   38.6610 C   0  0  0  0  0  0  0  0  0  0  0  0
   44.2820   32.5960   37.2960 N   0  0  0  0  0  0  0  0  0  0  0  0
   45.4170   33.6430   39.2290 N   0  0  0  0  0  0  0  0  0  0  0  0
   45.3390   33.8750   40.5720 C   0  0  0  0  0  0  0  0  0  0  0  0
   46.3850   34.5410   40.8960 O   0  0  0  0  0  0  0  0  0  0  0  0
   43.3750   32.8550   36.8420 H   0  0  0  0  0  0  0  0  0  0  0  0
   45.1720   32.1280   37.0240 H   0  0  0  0  0  0  0  0  0  0  0  0
   45.4830   31.2380   42.4520 N   0  0  0  0  0  0  0  0  0  0  0  0
   44.4700   31.0890   42.5960 H   0  0  0  0  0  0  0  0  0  0  0  0
   47.7320   30.1290   42.0910 C   0  0  1  0  0  0  0  0  0  0  0  0
   47.9300   31.6230   41.9370 C   0  0  0  0  0  0  0  0  0  0  0  0
   46.6120   30.9290   41.6200 C   0  0  2  0  0  0  0  0  0  0  0  0
   47.9140   29.8400   43.1570 H   0  0  0  0  0  0  0  0  0  0  0  0
   48.5250   31.8950   41.0270 H   0  0  0  0  0  0  0  0  0  0  0  0
   47.9220   32.2950   42.7920 H   0  0  0  0  0  0  0  0  0  0  0  0
   46.3230   30.7750   40.5530 H   0  0  0  0  0  0  0  0  0  0  0  0
   48.5600   28.0740   39.1250 C   0  0  0  0  0  0  0  0  0  0  0  0
   49.8080   27.4960   39.5140 C   0  0  0  0  0  0  0  0  0  0  0  0
   50.3360   27.8400   40.7860 C   0  0  0  0  0  0  0  0  0  0  0  0
   49.6530   28.6850   41.5640 N   0  0  0  0  0  0  0  0  0  0  0  0
   48.4690   29.2160   41.1660 C   0  0  0  0  0  0  0  0  0  0  0  0
   47.9190   28.9130   39.9440 N   0  0  0  0  0  0  0  0  0  0  0  0
   48.1620   27.8080   38.1550 H   0  0  0  0  0  0  0  0  0  0  0  0
   50.2810   26.8290   38.8180 H   0  0  0  0  0  0  0  0  0  0  0  0
   51.2740   27.3980   41.0600 H   0  0  0  0  0  0  0  0  0  0  0  0
  1 10  2  0  0  0  0
  1  2  1  0  0  0  0
  2 11  1  0  0  0  0
  2  3  2  0  0  0  0
  3  4  1  0  0  0  0
  3 12  1  0  0  0  0
  4 13  1  0  0  0  0
  5  6  1  0  0  0  0
  5  4  2  0  0  0  0
  6 14  1  0  0  0  0
  7 15  1  0  0  0  0
  7  6  2  0  0  0  0
  8  7  1  0  0  0  0
  9  8  2  0  0  0  0
  9 10  1  0  0  0  0
 10  5  1  0  0  0  0
 16  8  1  0  0  0  0
 17  9  1  0  0  0  0
 18 17  1  0  0  0  0
 19 18  2  0  0  0  0
 20 22  2  0  0  0  0
 20 19  1  0  0  0  0
 21 20  1  0  0  0  0
 22 23  1  0  0  0  0
 23 24  2  0  0  0  0
 23 17  1  0  0  0  0
 25 21  1  0  0  0  0
 26 21  1  0  0  0  0
 27 28  1  0  0  0  0
 27  1  1  0  0  0  0
 29 32  1  1  0  0  0
 30 29  1  0  0  0  0
 30 34  1  0  0  0  0
 31 35  1  6  0  0  0
 31 30  1  0  0  0  0
 31 29  1  0  0  0  0
 31 27  1  0  0  0  0
 33 30  1  0  0  0  0
 36 37  2  0  0  0  0
 36 41  1  0  0  0  0
 37 38  1  0  0  0  0
 38 44  1  0  0  0  0
 38 39  2  0  0  0  0
 40 39  1  0  0  0  0
 40 29  1  0  0  0  0
 41 40  2  0  0  0  0
 42 36  1  0  0  0  0
 43 37  1  0  0  0  0
M  END
>  <minimizedAffinity>
-4.35968924

>  <minimizedRMSD>
1.05093825

$$$$
