
     RDKit          3D

 45 48  0  0  0  0  0  0  0  0999 V2000
   44.7066   32.9971   41.1728 Br  0  0  0  0  0  0  0  0  0  0  0  0
   46.3491   33.9154   40.9123 C   0  0  0  0  0  0  0  0  0  0  0  0
   46.8671   34.7221   41.9041 C   0  0  0  0  0  0  0  0  0  0  0  0
   48.0736   35.4063   41.7329 C   0  0  0  0  0  0  0  0  0  0  0  0
   48.7412   35.2565   40.5407 C   0  0  0  0  0  0  0  0  0  0  0  0
   48.1905   34.4404   39.5727 C   0  0  0  0  0  0  0  0  0  0  0  0
   47.0097   33.7642   39.7268 C   0  0  0  0  0  0  0  0  0  0  0  0
   45.6200   34.0566   45.2778 C   0  0  0  0  0  0  0  0  0  0  0  0
   44.7055   35.1053   45.5152 C   0  0  0  0  0  0  0  0  0  0  0  0
   44.5410   36.0291   44.4879 C   0  0  0  0  0  0  0  0  0  0  0  0
   45.2426   35.8849   43.3446 N   0  0  0  0  0  0  0  0  0  0  0  0
   46.1249   34.8501   43.1492 C   0  0  0  0  0  0  0  0  0  0  0  0
   46.2883   33.9530   44.1397 N   0  0  0  0  0  0  0  0  0  0  0  0
   46.5494   32.9520   38.6475 N   0  0  0  0  0  0  0  0  0  0  0  0
   45.6258   33.3015   37.5889 C   0  0  0  0  0  0  0  0  0  0  0  0
   44.7868   32.1116   37.1709 C   0  0  0  0  0  0  0  0  0  0  0  0
   45.5974   31.0485   36.5991 N   0  0  0  0  0  0  0  0  0  0  0  0
   46.9880   31.2825   37.0108 C   0  0  0  0  0  0  0  0  0  0  0  0
   47.0026   31.5760   38.4930 C   0  0  1  0  0  0  0  0  0  0  0  0
   48.4393   36.0278   42.5409 H   0  0  0  0  0  0  0  0  0  0  0  0
   49.6721   35.7820   40.4035 H   0  0  0  0  0  0  0  0  0  0  0  0
   48.7842   34.3816   38.6672 H   0  0  0  0  0  0  0  0  0  0  0  0
   45.7505   33.3264   46.0890 H   0  0  0  0  0  0  0  0  0  0  0  0
   44.1540   35.2143   46.4204 H   0  0  0  0  0  0  0  0  0  0  0  0
   43.8569   36.8761   44.5745 H   0  0  0  0  0  0  0  0  0  0  0  0
   44.8939   34.0120   38.0634 H   0  0  0  0  0  0  0  0  0  0  0  0
   46.0772   33.7797   36.7197 H   0  0  0  0  0  0  0  0  0  0  0  0
   44.3105   31.6716   38.0934 H   0  0  0  0  0  0  0  0  0  0  0  0
   44.0380   32.4642   36.4625 H   0  0  0  0  0  0  0  0  0  0  0  0
   45.6039   31.1202   35.5510 H   0  0  0  0  0  0  0  0  0  0  0  0
   47.6593   30.4667   36.7434 H   0  0  0  0  0  0  0  0  0  0  0  0
   47.2989   32.1723   36.4224 H   0  0  0  0  0  0  0  0  0  0  0  0
   46.1664   30.9584   38.9222 H   0  0  0  0  0  0  0  0  0  0  0  0
   48.2618   31.3108   39.1349 N   0  0  0  0  0  0  0  0  0  0  0  0
   48.2099   30.5607   40.2517 C   0  0  0  0  0  0  0  0  0  0  0  0
   49.3784   30.2731   40.9097 C   0  0  0  0  0  0  0  0  0  0  0  0
   50.5306   30.7822   40.3674 C   0  0  0  0  0  0  0  0  0  0  0  0
   51.8071   30.5561   40.9540 N   0  0  0  0  0  0  0  0  0  0  0  0
   50.5296   31.5273   39.2479 N   0  0  0  0  0  0  0  0  0  0  0  0
   49.3650   31.8120   38.5950 C   0  0  0  0  0  0  0  0  0  0  0  0
   49.4328   32.5054   37.5665 O   0  0  0  0  0  0  0  0  0  0  0  0
   47.2834   30.1792   40.6458 H   0  0  0  0  0  0  0  0  0  0  0  0
   49.4484   29.6818   41.8115 H   0  0  0  0  0  0  0  0  0  0  0  0
   52.1800   29.7923   40.3689 H   0  0  0  0  0  0  0  0  0  0  0  0
   52.5195   30.7910   41.6730 H   0  0  0  0  0  0  0  0  0  0  0  0
  2  1  1  0
  2  3  2  0
  3 12  1  0
  4  3  1  0
  5  4  2  0
  6  7  2  0
  6  5  1  0
  7  2  1  0
  8  9  2  0
 10  9  1  0
 11 10  2  0
 12 11  1  0
 12 13  2  0
 13  8  1  0
 14  7  1  0
 15 14  1  0
 16 15  1  0
 17 18  1  0
 17 16  1  0
 18 19  1  0
 19 14  1  0
  4 20  1  0
  5 21  1  0
  6 22  1  0
  8 23  1  0
  9 24  1  0
 10 25  1  0
 15 26  1  0
 15 27  1  0
 16 28  1  0
 16 29  1  0
 17 30  1  0
 18 31  1  0
 18 32  1  0
 19 33  1  1
 34 35  1  0
 35 36  2  0
 36 37  1  0
 37 38  1  0
 37 39  2  0
 39 40  1  0
 40 41  2  0
 40 34  1  0
 35 42  1  0
 36 43  1  0
 38 44  1  0
 38 45  1  0
 19 34  1  0
M  ISO  8  20  14  21  14  22  14  23  14  24  14  25  14  26  13  27  13
M  ISO  6  28  13  29  13  30   5  31  13  32  13  33  13
M  END
>  <DihAtoms>  (1) 
17,18,33,34

>  <DihDeg>  (1) 
-144.8381256334498

$$$$
