
 OpenBabel03252508263D

 42 46  0  0  1  0  0  0  0  0999 V2000
   46.4070   32.3110   46.3200 C   0  0  1  0  0  0  0  0  0  0  0  0
   46.6710   32.5360   47.7500 C   0  0  0  0  0  0  0  0  0  0  0  0
   45.3840   31.8030   47.2070 C   0  0  2  0  0  0  0  0  0  0  0  0
   47.3230   31.7300   45.9400 H   0  0  0  0  0  0  0  0  0  0  0  0
   47.2490   31.8470   48.3890 H   0  0  0  0  0  0  0  0  0  0  0  0
   46.4910   33.5030   48.2400 H   0  0  0  0  0  0  0  0  0  0  0  0
   44.5280   32.4390   47.6130 H   0  0  0  0  0  0  0  0  0  0  0  0
   45.1590   30.3930   47.5420 C   0  0  0  0  0  0  0  0  0  0  0  0
   45.0530   29.8370   48.7750 C   0  0  0  0  0  0  0  0  0  0  0  0
   44.9460   28.4850   49.0450 C   0  0  0  0  0  0  0  0  0  0  0  0
   44.9510   27.6220   47.9390 C   0  0  0  0  0  0  0  0  0  0  0  0
   45.0580   28.1650   46.6590 C   0  0  0  0  0  0  0  0  0  0  0  0
   44.9970   27.2850   45.5960 C   0  0  0  0  0  0  0  0  0  0  0  0
   45.0280   27.7840   44.3030 C   0  0  0  0  0  0  0  0  0  0  0  0
   45.1160   29.1410   44.0760 C   0  0  0  0  0  0  0  0  0  0  0  0
   45.1750   29.9720   45.1700 C   0  0  0  0  0  0  0  0  0  0  0  0
   45.1550   29.5250   46.4790 C   0  0  0  0  0  0  0  0  0  0  0  0
   45.0550   30.5470   49.6010 H   0  0  0  0  0  0  0  0  0  0  0  0
   44.8630   28.1060   50.0560 H   0  0  0  0  0  0  0  0  0  0  0  0
   44.8730   26.5540   48.1020 H   0  0  0  0  0  0  0  0  0  0  0  0
   44.9270   26.2240   45.8010 H   0  0  0  0  0  0  0  0  0  0  0  0
   44.9770   26.9950   43.5360 H   0  0  0  0  0  0  0  0  0  0  0  0
   45.1230   29.3370   43.0170 H   0  0  0  0  0  0  0  0  0  0  0  0
   45.1490   30.9350   44.7490 H   0  0  0  0  0  0  0  0  0  0  0  0
   44.7900   35.3250   44.9310 C   0  0  0  0  0  0  0  0  0  0  0  0
   45.4670   35.4800   43.6740 C   0  0  0  0  0  0  0  0  0  0  0  0
   46.4870   34.5320   43.3430 C   0  0  0  0  0  0  0  0  0  0  0  0
   46.7750   33.5370   44.2130 N   0  0  0  0  0  0  0  0  0  0  0  0
   46.0840   33.4460   45.4050 C   0  0  0  0  0  0  0  0  0  0  0  0
   45.1310   34.3090   45.7460 N   0  0  0  0  0  0  0  0  0  0  0  0
   44.0240   36.0130   45.2080 H   0  0  0  0  0  0  0  0  0  0  0  0
   45.1970   36.2910   43.0180 H   0  0  0  0  0  0  0  0  0  0  0  0
   47.1660   34.6730   42.1010 N   0  0  0  0  0  0  0  0  0  0  0  0
   48.2510   35.4190   41.9490 C   0  0  0  0  0  3  0  0  0  0  0  0
   48.8330   35.4860   40.6970 C   0  0  0  0  0  3  0  0  0  0  0  0
   48.2990   34.7920   39.6210 C   0  0  0  0  0  0  0  0  0  0  0  0
   48.8030   34.7810   38.2960 N   0  0  0  0  0  0  0  0  0  0  0  0
   47.1950   34.0470   39.8270 N   0  0  0  0  0  0  0  0  0  0  0  0
   46.6390   33.9900   41.0500 C   0  0  0  0  0  0  0  0  0  0  0  0
   45.6080   33.2830   41.2040 O   0  0  0  0  0  0  0  0  0  0  0  0
   49.4840   34.1980   37.7470 H   0  0  0  0  0  0  0  0  0  0  0  0
   48.3150   35.5940   37.8300 H   0  0  0  0  0  0  0  0  0  0  0  0
  1  4  1  6  0  0  0
  1  3  1  0  0  0  0
  1  2  1  0  0  0  0
  2  6  1  0  0  0  0
  2  5  1  0  0  0  0
  3  8  1  0  0  0  0
  3  7  1  1  0  0  0
  3  2  1  0  0  0  0
  8  9  1  0  0  0  0
  9 10  2  0  0  0  0
  9 18  1  0  0  0  0
 10 19  1  0  0  0  0
 11 20  1  0  0  0  0
 11 10  1  0  0  0  0
 12 11  2  0  0  0  0
 13 21  1  0  0  0  0
 13 12  1  0  0  0  0
 14 13  2  0  0  0  0
 15 14  1  0  0  0  0
 15 16  2  0  0  0  0
 16 17  1  0  0  0  0
 17 12  1  0  0  0  0
 17  8  2  0  0  0  0
 22 14  1  0  0  0  0
 23 15  1  0  0  0  0
 24 16  1  0  0  0  0
 25 31  1  0  0  0  0
 25 30  1  0  0  0  0
 26 25  2  0  0  0  0
 27 26  1  0  0  0  0
 27 28  2  0  0  0  0
 28 29  1  0  0  0  0
 29 30  2  0  0  0  0
 29  1  1  0  0  0  0
 32 26  1  0  0  0  0
 33 27  1  0  0  0  0
 34 33  1  0  0  0  0
 35 34  2  0  0  0  0
 36 38  2  0  0  0  0
 36 35  1  0  0  0  0
 37 36  1  0  0  0  0
 38 39  1  0  0  0  0
 39 40  2  0  0  0  0
 39 33  1  0  0  0  0
 41 37  1  0  0  0  0
 42 37  1  0  0  0  0
M  END
>  <minimizedAffinity>
-6.29394627

>  <minimizedRMSD>
0.711319447

$$$$
