
     RDKit          3D

 50 54  0  0  0  0  0  0  0  0999 V2000
   45.7871   30.0500   48.4408 C   0  0  0  0  0  0  0  0  0  0  0  0
   45.0062   27.6459   48.0110 C   0  0  0  0  0  0  0  0  0  0  0  0
   45.0569   29.0025   47.7538 C   0  0  0  0  0  0  0  0  0  0  0  0
   44.2937   29.4473   46.6701 C   0  0  0  0  0  0  0  0  0  0  0  0
   43.5456   28.5903   45.9149 C   0  0  0  0  0  0  0  0  0  0  0  0
   42.7332   28.7225   44.8423 N   0  0  0  0  0  0  0  0  0  0  0  0
   42.2242   27.5481   44.4689 C   0  0  0  0  0  0  0  0  0  0  0  0
   42.7022   26.5651   45.3149 C   0  0  0  0  0  0  0  0  0  0  0  0
   43.5068   27.2427   46.1852 C   0  0  0  0  0  0  0  0  0  0  0  0
   44.2524   26.7906   47.2481 C   0  0  0  0  0  0  0  0  0  0  0  0
   44.2508   25.3698   47.5834 C   0  0  0  0  0  0  0  0  0  0  0  0
   44.9192   24.9273   48.5594 O   0  0  0  0  0  0  0  0  0  0  0  0
   47.1476   30.3789   47.9250 C   0  0  0  0  0  0  0  0  0  0  0  0
   46.5067   32.7179   45.2982 C   0  0  0  0  0  0  0  0  0  0  0  0
   47.2556   31.7190   44.6227 C   0  0  0  0  0  0  0  0  0  0  0  0
   47.5733   30.7523   45.5087 C   0  0  0  0  0  0  0  0  0  0  0  0
   47.0501   31.1257   46.6813 N   0  0  0  0  0  0  0  0  0  0  0  0
   46.4127   32.2979   46.5611 N   0  0  0  0  0  0  0  0  0  0  0  0
   44.5719   35.7535   44.7295 C   0  0  0  0  0  0  0  0  0  0  0  0
   44.9854   36.1885   43.4827 C   0  0  0  0  0  0  0  0  0  0  0  0
   45.9456   35.4190   42.8345 C   0  0  0  0  0  0  0  0  0  0  0  0
   46.4114   34.3040   43.4565 N   0  0  0  0  0  0  0  0  0  0  0  0
   45.9965   33.9100   44.6538 C   0  0  0  0  0  0  0  0  0  0  0  0
   45.0658   34.6481   45.2921 N   0  0  0  0  0  0  0  0  0  0  0  0
   45.2079   30.9957   48.4850 H   0  0  0  0  0  0  0  0  0  0  0  0
   45.8998   29.7247   49.5162 H   0  0  0  0  0  0  0  0  0  0  0  0
   45.6122   27.3449   48.8591 H   0  0  0  0  0  0  0  0  0  0  0  0
   44.2440   30.4869   46.3594 H   0  0  0  0  0  0  0  0  0  0  0  0
   42.5416   29.6420   44.3784 H   0  0  0  0  0  0  0  0  0  0  0  0
   41.5448   27.4359   43.6249 H   0  0  0  0  0  0  0  0  0  0  0  0
   42.4372   25.5198   45.2236 H   0  0  0  0  0  0  0  0  0  0  0  0
   43.6801   24.6438   47.0124 H   0  0  0  0  0  0  0  0  0  0  0  0
   47.7248   29.4671   47.7816 H   0  0  0  0  0  0  0  0  0  0  0  0
   47.6548   30.9969   48.7098 H   0  0  0  0  0  0  0  0  0  0  0  0
   47.5078   31.7687   43.5614 H   0  0  0  0  0  0  0  0  0  0  0  0
   48.1396   29.8500   45.3150 H   0  0  0  0  0  0  0  0  0  0  0  0
   43.8233   36.3950   45.1825 H   0  0  0  0  0  0  0  0  0  0  0  0
   44.6796   37.0440   42.9186 H   0  0  0  0  0  0  0  0  0  0  0  0
   46.5436   35.6402   41.5466 N   0  0  0  0  0  0  0  0  0  0  0  0
   47.3302   36.6854   41.2318 C   0  0  0  0  0  0  0  0  0  0  0  0
   47.8515   36.7873   39.9430 C   0  0  0  0  0  0  0  0  0  0  0  0
   47.5259   35.7923   39.0446 C   0  0  0  0  0  0  0  0  0  0  0  0
   48.0662   35.9090   37.7292 N   0  0  0  0  0  0  0  0  0  0  0  0
   46.7352   34.7648   39.4038 N   0  0  0  0  0  0  0  0  0  0  0  0
   46.2278   34.6711   40.6682 C   0  0  0  0  0  0  0  0  0  0  0  0
   45.4976   33.6771   40.9169 O   0  0  0  0  0  0  0  0  0  0  0  0
   47.5103   37.3985   42.0260 H   0  0  0  0  0  0  0  0  0  0  0  0
   48.4825   37.6427   39.7212 H   0  0  0  0  0  0  0  0  0  0  0  0
   47.7794   36.1666   36.7457 H   0  0  0  0  0  0  0  0  0  0  0  0
   49.0894   35.6420   37.8058 H   0  0  0  0  0  0  0  0  0  0  0  0
  3  2  2  0
  3  1  1  0
  4  3  1  0
  5  9  1  0
  5  4  2  0
  6  5  1  0
  7  6  1  0
  7  8  2  0
  8  9  1  0
  9 10  2  0
 10 11  1  0
 10  2  1  0
 11 12  2  0
 13  1  1  0
 14 18  2  0
 15 14  1  0
 15 16  2  0
 16 17  1  0
 17 13  1  0
 18 17  1  0
 19 24  2  0
 20 19  1  0
 21 22  1  0
 21 20  2  0
 22 23  2  0
 23 14  1  0
 23 24  1  0
  1 25  1  0
  1 26  1  0
  2 27  1  0
  4 28  1  0
  6 29  1  0
  7 30  1  0
  8 31  1  0
 11 32  1  0
 13 33  1  0
 13 34  1  0
 15 35  1  0
 16 36  1  0
 19 37  1  0
 20 38  1  0
 39 40  1  0
 40 41  2  0
 41 42  1  0
 42 43  1  0
 42 44  2  0
 44 45  1  0
 45 46  2  0
 45 39  1  0
 40 47  1  0
 41 48  1  0
 43 49  1  0
 43 50  1  0
 21 39  1  0
M  ISO  8  25   8  26   8  27  14  28  14  29   9  30  14  31  14  32   6
M  ISO  6  33   8  34   8  35  14  36  14  37  14  38  14
M  END
>  <DihAtoms>  (1) 
21,20,38,39

>  <DihDeg>  (1) 
-85.00674329785465

$$$$
