
 OpenBabel03242510143D

 43 46  0  0  1  0  0  0  0  0999 V2000
   37.2510   28.6320   38.1700 N   0  0  0  0  0  0  0  0  0  0  0  0
   36.5910   27.8670   37.1340 C   0  0  0  0  0  0  0  0  0  0  0  0
   37.3460   27.9430   35.8230 C   0  0  0  0  0  0  0  0  0  0  0  0
   37.3830   29.2970   35.2950 N   0  0  0  0  0  0  0  0  0  0  0  0
   37.0690   30.2120   36.4010 C   0  0  0  0  0  0  0  0  0  0  0  0
   37.8930   29.8100   37.6010 C   0  0  1  0  0  0  0  0  0  0  0  0
   36.6900   26.7940   37.4560 H   0  0  0  0  0  0  0  0  0  0  0  0
   35.5370   28.1000   36.9860 H   0  0  0  0  0  0  0  0  0  0  0  0
   38.4200   27.6590   36.0140 H   0  0  0  0  0  0  0  0  0  0  0  0
   36.8690   27.2580   35.1230 H   0  0  0  0  0  0  0  0  0  0  0  0
   36.6130   29.4360   34.5940 H   0  0  0  0  0  0  0  0  0  0  0  0
   37.1990   31.2620   36.1410 H   0  0  0  0  0  0  0  0  0  0  0  0
   35.9850   30.0510   36.5860 H   0  0  0  0  0  0  0  0  0  0  0  0
   38.8590   29.4200   37.1750 H   0  0  0  0  0  0  0  0  0  0  0  0
   39.7610   27.0190   39.1000 Br  0  0  0  0  0  0  0  0  0  0  0  0
   38.3320   27.6690   40.1690 C   0  0  0  0  0  0  0  0  0  0  0  0
   38.3180   27.4480   41.5310 C   0  0  0  0  0  0  0  0  0  0  0  0
   37.2760   27.9180   42.3360 C   0  0  0  0  0  0  0  0  0  0  0  0
   36.2540   28.6120   41.7350 C   0  0  0  0  0  0  0  0  0  0  0  0
   36.3050   28.8130   40.3690 C   0  0  0  0  0  0  0  0  0  0  0  0
   37.3190   28.3590   39.5690 C   0  0  0  0  0  0  0  0  0  0  0  0
   37.3100   27.7190   43.4000 H   0  0  0  0  0  0  0  0  0  0  0  0
   35.4490   28.9770   42.3510 H   0  0  0  0  0  0  0  0  0  0  0  0
   35.4580   29.3690   39.9820 H   0  0  0  0  0  0  0  0  0  0  0  0
   40.3320   24.6890   42.8390 C   0  0  0  0  0  0  0  0  0  0  0  0
   41.5300   25.3090   43.2520 C   0  0  0  0  0  0  0  0  0  0  0  0
   41.6130   26.6850   43.0650 C   0  0  0  0  0  0  0  0  0  0  0  0
   40.5740   27.3450   42.5130 N   0  0  0  0  0  0  0  0  0  0  0  0
   39.4210   26.7080   42.1230 C   0  0  0  0  0  0  0  0  0  0  0  0
   39.3360   25.3760   42.3020 N   0  0  0  0  0  0  0  0  0  0  0  0
   40.2660   23.6010   42.9860 H   0  0  0  0  0  0  0  0  0  0  0  0
   42.3480   24.7830   43.6880 H   0  0  0  0  0  0  0  0  0  0  0  0
   42.4990   27.2560   43.3520 H   0  0  0  0  0  0  0  0  0  0  0  0
   38.1040   30.8660   38.5540 N   0  0  0  0  0  0  0  0  0  0  0  0
   37.0280   31.6190   38.8490 C   0  0  0  0  0  3  0  0  0  0  0  0
   37.1650   32.6430   39.7520 C   0  0  0  0  0  3  0  0  0  0  0  0
   38.4120   32.8220   40.2940 C   0  0  0  0  0  0  0  0  0  0  0  0
   38.6860   33.8480   41.2410 N   0  0  0  0  0  0  0  0  0  0  0  0
   39.4560   32.0400   39.9650 N   0  0  0  0  0  0  0  0  0  0  0  0
   39.3170   31.0230   39.0670 C   0  0  0  0  0  0  0  0  0  0  0  0
   40.3210   30.3380   38.8070 O   0  0  0  0  0  0  0  0  0  0  0  0
   38.6590   33.3290   42.1320 H   0  0  0  0  0  0  0  0  0  0  0  0
   38.8930   34.8440   41.4500 H   0  0  0  0  0  0  0  0  0  0  0  0
  1 21  1  0  0  0  0
  2  7  1  0  0  0  0
  2  1  1  0  0  0  0
  3  9  1  0  0  0  0
  3  2  1  0  0  0  0
  4  3  1  0  0  0  0
  4  5  1  0  0  0  0
  5 13  1  0  0  0  0
  5  6  1  0  0  0  0
  6 14  1  6  0  0  0
  6  1  1  0  0  0  0
  6 34  1  0  0  0  0
  8  2  1  0  0  0  0
 10  3  1  0  0  0  0
 11  4  1  0  0  0  0
 12  5  1  0  0  0  0
 15 16  1  0  0  0  0
 16 17  1  0  0  0  0
 17 29  1  0  0  0  0
 17 18  2  0  0  0  0
 18 22  1  0  0  0  0
 19 18  1  0  0  0  0
 19 23  1  0  0  0  0
 20 19  2  0  0  0  0
 21 16  2  0  0  0  0
 21 20  1  0  0  0  0
 24 20  1  0  0  0  0
 25 31  1  0  0  0  0
 25 26  1  0  0  0  0
 26 32  1  0  0  0  0
 27 26  2  0  0  0  0
 27 33  1  0  0  0  0
 28 27  1  0  0  0  0
 29 30  1  0  0  0  0
 29 28  2  0  0  0  0
 30 25  2  0  0  0  0
 34 35  1  0  0  0  0
 34 40  1  0  0  0  0
 35 36  2  0  0  0  0
 36 37  1  0  0  0  0
 37 38  1  0  0  0  0
 38 43  1  0  0  0  0
 38 42  1  0  0  0  0
 39 37  2  0  0  0  0
 40 39  1  0  0  0  0
 41 40  2  0  0  0  0
M  END
>  <minimizedAffinity>
-6.05820179

$$$$

 OpenBabel03242510143D

 43 46  0  0  1  0  0  0  0  0999 V2000
   39.0270   31.2020   39.8540 N   0  0  0  0  0  0  0  0  0  0  0  0
   39.9380   32.1200   40.5050 C   0  0  0  0  0  0  0  0  0  0  0  0
   39.9150   33.4830   39.8460 C   0  0  0  0  0  0  0  0  0  0  0  0
   40.3860   33.4320   38.4720 N   0  0  0  0  0  0  0  0  0  0  0  0
   40.3120   32.0320   38.0310 C   0  0  0  0  0  0  0  0  0  0  0  0
   38.9620   31.4790   38.4250 C   0  0  1  0  0  0  0  0  0  0  0  0
   39.4990   32.2910   41.5260 H   0  0  0  0  0  0  0  0  0  0  0  0
   40.9610   31.7610   40.6120 H   0  0  0  0  0  0  0  0  0  0  0  0
   38.8440   33.8330   39.7910 H   0  0  0  0  0  0  0  0  0  0  0  0
   40.5250   34.1560   40.4480 H   0  0  0  0  0  0  0  0  0  0  0  0
   41.4050   33.6820   38.4260 H   0  0  0  0  0  0  0  0  0  0  0  0
   40.5200   31.9030   36.9700 H   0  0  0  0  0  0  0  0  0  0  0  0
   41.1300   31.5290   38.5910 H   0  0  0  0  0  0  0  0  0  0  0  0
   38.2540   32.3500   38.3430 H   0  0  0  0  0  0  0  0  0  0  0  0
   40.6760   28.7340   40.8340 Br  0  0  0  0  0  0  0  0  0  0  0  0
   38.7970   28.9890   40.9230 C   0  0  0  0  0  0  0  0  0  0  0  0
   37.9820   28.0200   41.4720 C   0  0  0  0  0  0  0  0  0  0  0  0
   36.5970   28.1880   41.5480 C   0  0  0  0  0  0  0  0  0  0  0  0
   36.0560   29.3520   41.0590 C   0  0  0  0  0  0  0  0  0  0  0  0
   36.9040   30.2990   40.5180 C   0  0  0  0  0  0  0  0  0  0  0  0
   38.2630   30.1480   40.4370 C   0  0  0  0  0  0  0  0  0  0  0  0
   36.0000   27.3980   41.9870 H   0  0  0  0  0  0  0  0  0  0  0  0
   34.9880   29.4870   41.1150 H   0  0  0  0  0  0  0  0  0  0  0  0
   36.3910   31.1840   40.1570 H   0  0  0  0  0  0  0  0  0  0  0  0
   39.7240   25.6750   43.6730 C   0  0  0  0  0  0  0  0  0  0  0  0
   39.7720   24.4790   42.9260 C   0  0  0  0  0  0  0  0  0  0  0  0
   39.1930   24.5140   41.6620 C   0  0  0  0  0  0  0  0  0  0  0  0
   38.6270   25.6560   41.2200 N   0  0  0  0  0  0  0  0  0  0  0  0
   38.6000   26.8030   41.9770 C   0  0  0  0  0  0  0  0  0  0  0  0
   39.1590   26.7750   43.2010 N   0  0  0  0  0  0  0  0  0  0  0  0
   40.1820   25.6480   44.6730 H   0  0  0  0  0  0  0  0  0  0  0  0
   40.2200   23.5790   43.2800 H   0  0  0  0  0  0  0  0  0  0  0  0
   39.1780   23.6400   41.0070 H   0  0  0  0  0  0  0  0  0  0  0  0
   38.5340   30.3520   37.6410 N   0  0  0  0  0  0  0  0  0  0  0  0
   37.2420   30.3520   37.2630 C   0  0  0  0  0  3  0  0  0  0  0  0
   36.7730   29.3040   36.5120 C   0  0  0  0  0  3  0  0  0  0  0  0
   37.6750   28.3190   36.2000 C   0  0  0  0  0  0  0  0  0  0  0  0
   37.3150   27.1790   35.4280 N   0  0  0  0  0  0  0  0  0  0  0  0
   38.9570   28.3670   36.6020 N   0  0  0  0  0  0  0  0  0  0  0  0
   39.4220   29.4110   37.3490 C   0  0  0  0  0  0  0  0  0  0  0  0
   40.6170   29.3940   37.6880 O   0  0  0  0  0  0  0  0  0  0  0  0
   37.6660   27.4340   34.4920 H   0  0  0  0  0  0  0  0  0  0  0  0
   36.8780   26.2390   35.3660 H   0  0  0  0  0  0  0  0  0  0  0  0
  1 21  1  0  0  0  0
  1  2  1  0  0  0  0
  2  8  1  0  0  0  0
  2  7  1  0  0  0  0
  3 10  1  0  0  0  0
  3  2  1  0  0  0  0
  4  3  1  0  0  0  0
  5  6  1  0  0  0  0
  5  4  1  0  0  0  0
  5 13  1  0  0  0  0
  6 14  1  6  0  0  0
  6  1  1  0  0  0  0
  9  3  1  0  0  0  0
 11  4  1  0  0  0  0
 12  5  1  0  0  0  0
 15 16  1  0  0  0  0
 16 17  1  0  0  0  0
 17 18  2  0  0  0  0
 17 29  1  0  0  0  0
 18 22  1  0  0  0  0
 19 23  1  0  0  0  0
 19 18  1  0  0  0  0
 20 19  2  0  0  0  0
 21 20  1  0  0  0  0
 21 16  2  0  0  0  0
 24 20  1  0  0  0  0
 25 31  1  0  0  0  0
 26 32  1  0  0  0  0
 26 25  2  0  0  0  0
 27 26  1  0  0  0  0
 28 27  2  0  0  0  0
 28 29  1  0  0  0  0
 29 30  2  0  0  0  0
 30 25  1  0  0  0  0
 33 27  1  0  0  0  0
 34  6  1  0  0  0  0
 35 34  1  0  0  0  0
 36 35  2  0  0  0  0
 37 36  1  0  0  0  0
 37 39  2  0  0  0  0
 38 37  1  0  0  0  0
 39 40  1  0  0  0  0
 40 34  1  0  0  0  0
 40 41  2  0  0  0  0
 42 38  1  0  0  0  0
 43 38  1  0  0  0  0
M  END
>  <minimizedAffinity>
-5.9258213

$$$$

 OpenBabel03242510143D

 43 46  0  0  1  0  0  0  0  0999 V2000
   37.8080   30.6020   40.6690 N   0  0  0  0  0  0  0  0  0  0  0  0
   38.1060   31.9970   40.9170 C   0  0  0  0  0  0  0  0  0  0  0  0
   39.5980   32.2370   41.0120 C   0  0  0  0  0  0  0  0  0  0  0  0
   40.1900   31.5430   42.1430 N   0  0  0  0  0  0  0  0  0  0  0  0
   39.2490   30.4940   42.5600 C   0  0  0  0  0  0  0  0  0  0  0  0
   38.7890   29.7490   41.3290 C   0  0  1  0  0  0  0  0  0  0  0  0
   37.7910   32.5330   39.9790 H   0  0  0  0  0  0  0  0  0  0  0  0
   37.5890   32.4370   41.7700 H   0  0  0  0  0  0  0  0  0  0  0  0
   40.0870   31.8020   40.0940 H   0  0  0  0  0  0  0  0  0  0  0  0
   39.7590   33.3130   41.0790 H   0  0  0  0  0  0  0  0  0  0  0  0
   40.2660   32.1890   42.9680 H   0  0  0  0  0  0  0  0  0  0  0  0
   39.6550   29.8280   43.3200 H   0  0  0  0  0  0  0  0  0  0  0  0
   38.4100   31.0540   43.0270 H   0  0  0  0  0  0  0  0  0  0  0  0
   39.6750   29.7570   40.6350 H   0  0  0  0  0  0  0  0  0  0  0  0
   38.4170   30.1420   37.6380 Br  0  0  0  0  0  0  0  0  0  0  0  0
   36.8060   29.7700   38.5730 C   0  0  0  0  0  0  0  0  0  0  0  0
   35.7210   29.2300   37.9140 C   0  0  0  0  0  0  0  0  0  0  0  0
   34.5260   28.9480   38.5830 C   0  0  0  0  0  0  0  0  0  0  0  0
   34.4540   29.2250   39.9270 C   0  0  0  0  0  0  0  0  0  0  0  0
   35.5620   29.7640   40.5510 C   0  0  0  0  0  0  0  0  0  0  0  0
   36.7380   30.0450   39.9090 C   0  0  0  0  0  0  0  0  0  0  0  0
   33.7020   28.5250   38.0210 H   0  0  0  0  0  0  0  0  0  0  0  0
   33.5360   29.0090   40.4470 H   0  0  0  0  0  0  0  0  0  0  0  0
   35.4150   29.9490   41.6090 H   0  0  0  0  0  0  0  0  0  0  0  0
   35.9510   27.4230   34.7410 C   0  0  0  0  0  0  0  0  0  0  0  0
   36.0770   28.4450   33.7770 C   0  0  0  0  0  0  0  0  0  0  0  0
   36.0800   29.7520   34.2540 C   0  0  0  0  0  0  0  0  0  0  0  0
   35.9640   29.9760   35.5790 N   0  0  0  0  0  0  0  0  0  0  0  0
   35.8430   28.9550   36.4900 C   0  0  0  0  0  0  0  0  0  0  0  0
   35.8400   27.6880   36.0340 N   0  0  0  0  0  0  0  0  0  0  0  0
   35.9480   26.3900   34.3660 H   0  0  0  0  0  0  0  0  0  0  0  0
   36.1680   28.2620   32.7310 H   0  0  0  0  0  0  0  0  0  0  0  0
   36.1730   30.6120   33.5870 H   0  0  0  0  0  0  0  0  0  0  0  0
   38.3100   28.4180   41.5880 N   0  0  0  0  0  0  0  0  0  0  0  0
   37.5120   28.2760   42.6620 C   0  0  0  0  0  3  0  0  0  0  0  0
   37.0220   27.0300   42.9610 C   0  0  0  0  0  3  0  0  0  0  0  0
   37.3920   26.0070   42.1260 C   0  0  0  0  0  0  0  0  0  0  0  0
   36.9530   24.6690   42.3270 N   0  0  0  0  0  0  0  0  0  0  0  0
   38.1930   26.2020   41.0640 N   0  0  0  0  0  0  0  0  0  0  0  0
   38.6790   27.4430   40.7680 C   0  0  0  0  0  0  0  0  0  0  0  0
   39.4140   27.5550   39.7720 O   0  0  0  0  0  0  0  0  0  0  0  0
   36.1790   24.5930   41.6500 H   0  0  0  0  0  0  0  0  0  0  0  0
   37.0430   23.7600   42.8210 H   0  0  0  0  0  0  0  0  0  0  0  0
  1  2  1  0  0  0  0
  1  6  1  0  0  0  0
  2  3  1  0  0  0  0
  2  8  1  0  0  0  0
  3 10  1  0  0  0  0
  3  4  1  0  0  0  0
  4  5  1  0  0  0  0
  4 11  1  0  0  0  0
  5 13  1  0  0  0  0
  5 12  1  0  0  0  0
  6 14  1  6  0  0  0
  6 34  1  0  0  0  0
  6  5  1  0  0  0  0
  7  2  1  0  0  0  0
  9  3  1  0  0  0  0
 15 16  1  0  0  0  0
 16 21  1  0  0  0  0
 17 16  2  0  0  0  0
 17 18  1  0  0  0  0
 18 19  2  0  0  0  0
 19 23  1  0  0  0  0
 19 20  1  0  0  0  0
 20 24  1  0  0  0  0
 21 20  2  0  0  0  0
 21  1  1  0  0  0  0
 22 18  1  0  0  0  0
 25 30  1  0  0  0  0
 26 27  1  0  0  0  0
 26 25  2  0  0  0  0
 27 28  2  0  0  0  0
 28 29  1  0  0  0  0
 29 17  1  0  0  0  0
 30 29  2  0  0  0  0
 31 25  1  0  0  0  0
 32 26  1  0  0  0  0
 33 27  1  0  0  0  0
 34 35  1  0  0  0  0
 35 36  2  0  0  0  0
 37 38  1  0  0  0  0
 37 36  1  0  0  0  0
 38 43  1  0  0  0  0
 39 37  2  0  0  0  0
 40 39  1  0  0  0  0
 40 34  1  0  0  0  0
 41 40  2  0  0  0  0
 42 38  1  0  0  0  0
M  END
>  <minimizedAffinity>
-5.8966732

$$$$

 OpenBabel03242510143D

 43 46  0  0  1  0  0  0  0  0999 V2000
   37.5120   25.5930   40.6250 N   0  0  0  0  0  0  0  0  0  0  0  0
   36.5670   25.2030   39.6000 C   0  0  0  0  0  0  0  0  0  0  0  0
   36.4180   23.6980   39.5280 C   0  0  0  0  0  0  0  0  0  0  0  0
   37.6570   23.0470   39.1340 N   0  0  0  0  0  0  0  0  0  0  0  0
   38.7510   24.0020   39.3620 C   0  0  0  0  0  0  0  0  0  0  0  0
   38.5780   24.6050   40.7360 C   0  0  1  0  0  0  0  0  0  0  0  0
   35.5700   25.5690   39.9690 H   0  0  0  0  0  0  0  0  0  0  0  0
   36.7570   25.6200   38.6110 H   0  0  0  0  0  0  0  0  0  0  0  0
   36.1850   23.3140   40.5620 H   0  0  0  0  0  0  0  0  0  0  0  0
   35.6140   23.4750   38.8280 H   0  0  0  0  0  0  0  0  0  0  0  0
   37.6600   22.8650   38.1000 H   0  0  0  0  0  0  0  0  0  0  0  0
   39.7390   23.5670   39.2210 H   0  0  0  0  0  0  0  0  0  0  0  0
   38.6110   24.7670   38.5670 H   0  0  0  0  0  0  0  0  0  0  0  0
   38.1300   23.7840   41.3620 H   0  0  0  0  0  0  0  0  0  0  0  0
   38.2430   28.2760   39.1960 Br  0  0  0  0  0  0  0  0  0  0  0  0
   37.7820   28.0150   41.0200 C   0  0  0  0  0  0  0  0  0  0  0  0
   37.7390   29.0830   41.8920 C   0  0  0  0  0  0  0  0  0  0  0  0
   37.4010   28.9140   43.2380 C   0  0  0  0  0  0  0  0  0  0  0  0
   37.1100   27.6450   43.6790 C   0  0  0  0  0  0  0  0  0  0  0  0
   37.1630   26.6020   42.7760 C   0  0  0  0  0  0  0  0  0  0  0  0
   37.4920   26.7540   41.4550 C   0  0  0  0  0  0  0  0  0  0  0  0
   37.3820   29.7830   43.8840 H   0  0  0  0  0  0  0  0  0  0  0  0
   36.8490   27.5090   44.7160 H   0  0  0  0  0  0  0  0  0  0  0  0
   36.9200   25.6390   43.2110 H   0  0  0  0  0  0  0  0  0  0  0  0
   37.3840   32.3570   40.3000 C   0  0  0  0  0  0  0  0  0  0  0  0
   38.6700   32.9280   40.4080 C   0  0  0  0  0  0  0  0  0  0  0  0
   39.6410   32.1570   41.0380 C   0  0  0  0  0  0  0  0  0  0  0  0
   39.3180   30.9320   41.5040 N   0  0  0  0  0  0  0  0  0  0  0  0
   38.0550   30.4080   41.3800 C   0  0  0  0  0  0  0  0  0  0  0  0
   37.1110   31.1510   40.7710 N   0  0  0  0  0  0  0  0  0  0  0  0
   36.6160   32.9660   39.8020 H   0  0  0  0  0  0  0  0  0  0  0  0
   38.9190   33.8960   40.0390 H   0  0  0  0  0  0  0  0  0  0  0  0
   40.6660   32.5100   41.1710 H   0  0  0  0  0  0  0  0  0  0  0  0
   39.7890   25.1290   41.3080 N   0  0  0  0  0  0  0  0  0  0  0  0
   40.5130   25.9420   40.5170 C   0  0  0  0  0  3  0  0  0  0  0  0
   41.6790   26.4740   41.0050 C   0  0  0  0  0  3  0  0  0  0  0  0
   42.0220   26.1290   42.2870 C   0  0  0  0  0  0  0  0  0  0  0  0
   43.2060   26.6120   42.9110 N   0  0  0  0  0  0  0  0  0  0  0  0
   41.2630   25.3110   43.0380 N   0  0  0  0  0  0  0  0  0  0  0  0
   40.1030   24.7830   42.5490 C   0  0  0  0  0  0  0  0  0  0  0  0
   39.4480   24.0350   43.2950 O   0  0  0  0  0  0  0  0  0  0  0  0
   42.8430   27.3810   43.4940 H   0  0  0  0  0  0  0  0  0  0  0  0
   44.2340   26.5560   43.0500 H   0  0  0  0  0  0  0  0  0  0  0  0
  1  6  1  0  0  0  0
  1 21  1  0  0  0  0
  2  7  1  0  0  0  0
  2  1  1  0  0  0  0
  3  2  1  0  0  0  0
  3  9  1  0  0  0  0
  4  5  1  0  0  0  0
  4  3  1  0  0  0  0
  5  6  1  0  0  0  0
  6 34  1  0  0  0  0
  6 14  1  1  0  0  0
  8  2  1  0  0  0  0
 10  3  1  0  0  0  0
 11  4  1  0  0  0  0
 12  5  1  0  0  0  0
 13  5  1  0  0  0  0
 15 16  1  0  0  0  0
 16 21  2  0  0  0  0
 16 17  1  0  0  0  0
 17 18  2  0  0  0  0
 18 19  1  0  0  0  0
 18 22  1  0  0  0  0
 19 23  1  0  0  0  0
 20 24  1  0  0  0  0
 20 19  2  0  0  0  0
 21 20  1  0  0  0  0
 25 26  2  0  0  0  0
 25 30  1  0  0  0  0
 26 27  1  0  0  0  0
 27 33  1  0  0  0  0
 27 28  2  0  0  0  0
 29 28  1  0  0  0  0
 29 17  1  0  0  0  0
 30 29  2  0  0  0  0
 31 25  1  0  0  0  0
 32 26  1  0  0  0  0
 34 40  1  0  0  0  0
 35 36  2  0  0  0  0
 35 34  1  0  0  0  0
 36 37  1  0  0  0  0
 37 38  1  0  0  0  0
 37 39  2  0  0  0  0
 38 43  1  0  0  0  0
 38 42  1  0  0  0  0
 40 39  1  0  0  0  0
 40 41  2  0  0  0  0
M  END
>  <minimizedAffinity>
-5.82534504

$$$$

 OpenBabel03242510143D

 43 46  0  0  1  0  0  0  0  0999 V2000
   37.9360   28.1860   40.9610 N   0  0  0  0  0  0  0  0  0  0  0  0
   37.9540   27.0340   41.8370 C   0  0  0  0  0  0  0  0  0  0  0  0
   36.7630   27.0310   42.7720 C   0  0  0  0  0  0  0  0  0  0  0  0
   36.7810   28.1660   43.6790 N   0  0  0  0  0  0  0  0  0  0  0  0
   37.6910   29.1720   43.1120 C   0  0  0  0  0  0  0  0  0  0  0  0
   37.3630   29.3370   41.6460 C   0  0  1  0  0  0  0  0  0  0  0  0
   37.7860   26.1510   41.1600 H   0  0  0  0  0  0  0  0  0  0  0  0
   38.8810   26.8870   42.3910 H   0  0  0  0  0  0  0  0  0  0  0  0
   35.8270   27.1460   42.1550 H   0  0  0  0  0  0  0  0  0  0  0  0
   36.7690   26.0880   43.3180 H   0  0  0  0  0  0  0  0  0  0  0  0
   37.2110   27.8920   44.5980 H   0  0  0  0  0  0  0  0  0  0  0  0
   37.6750   30.1190   43.6500 H   0  0  0  0  0  0  0  0  0  0  0  0
   38.7010   28.7300   43.2510 H   0  0  0  0  0  0  0  0  0  0  0  0
   36.2520   29.1770   41.5750 H   0  0  0  0  0  0  0  0  0  0  0  0
   35.7210   27.8900   38.7760 Br  0  0  0  0  0  0  0  0  0  0  0  0
   37.5800   28.1790   38.5180 C   0  0  0  0  0  0  0  0  0  0  0  0
   38.1040   28.2840   37.2460 C   0  0  0  0  0  0  0  0  0  0  0  0
   39.4700   28.4970   37.0340 C   0  0  0  0  0  0  0  0  0  0  0  0
   40.2880   28.6000   38.1330 C   0  0  0  0  0  0  0  0  0  0  0  0
   39.7260   28.4910   39.3890 C   0  0  0  0  0  0  0  0  0  0  0  0
   38.3910   28.2820   39.6120 C   0  0  0  0  0  0  0  0  0  0  0  0
   39.8330   28.5720   36.0170 H   0  0  0  0  0  0  0  0  0  0  0  0
   41.3420   28.7640   37.9750 H   0  0  0  0  0  0  0  0  0  0  0  0
   40.4460   28.5840   40.1950 H   0  0  0  0  0  0  0  0  0  0  0  0
   35.9810   26.8370   34.6420 C   0  0  0  0  0  0  0  0  0  0  0  0
   35.4740   27.9600   33.9550 C   0  0  0  0  0  0  0  0  0  0  0  0
   35.8840   29.2070   34.4160 C   0  0  0  0  0  0  0  0  0  0  0  0
   36.7240   29.2840   35.4680 N   0  0  0  0  0  0  0  0  0  0  0  0
   37.1990   28.1680   36.1130 C   0  0  0  0  0  0  0  0  0  0  0  0
   36.8050   26.9580   35.6710 N   0  0  0  0  0  0  0  0  0  0  0  0
   35.6580   25.8510   34.2790 H   0  0  0  0  0  0  0  0  0  0  0  0
   34.8100   27.8930   33.1240 H   0  0  0  0  0  0  0  0  0  0  0  0
   35.5460   30.1360   33.9510 H   0  0  0  0  0  0  0  0  0  0  0  0
   37.7700   30.5990   41.0890 N   0  0  0  0  0  0  0  0  0  0  0  0
   36.8910   31.1900   40.2600 C   0  0  0  0  0  3  0  0  0  0  0  0
   37.2210   32.3960   39.6960 C   0  0  0  0  0  3  0  0  0  0  0  0
   38.4460   32.9150   40.0290 C   0  0  0  0  0  0  0  0  0  0  0  0
   38.9070   34.1580   39.5130 N   0  0  0  0  0  0  0  0  0  0  0  0
   39.2900   32.2840   40.8650 N   0  0  0  0  0  0  0  0  0  0  0  0
   38.9590   31.0840   41.4240 C   0  0  0  0  0  0  0  0  0  0  0  0
   39.7840   30.5540   42.1870 O   0  0  0  0  0  0  0  0  0  0  0  0
   38.7140   34.8010   40.2950 H   0  0  0  0  0  0  0  0  0  0  0  0
   39.3340   34.7060   38.7400 H   0  0  0  0  0  0  0  0  0  0  0  0
  1  6  1  0  0  0  0
  1  2  1  0  0  0  0
  2  8  1  0  0  0  0
  2  3  1  0  0  0  0
  3 10  1  0  0  0  0
  3  4  1  0  0  0  0
  4 11  1  0  0  0  0
  5 13  1  0  0  0  0
  5 12  1  0  0  0  0
  5  4  1  0  0  0  0
  6 14  1  6  0  0  0
  6  5  1  0  0  0  0
  7  2  1  0  0  0  0
  9  3  1  0  0  0  0
 16 15  1  0  0  0  0
 16 21  1  0  0  0  0
 17 16  2  0  0  0  0
 18 17  1  0  0  0  0
 18 19  2  0  0  0  0
 19 20  1  0  0  0  0
 20 21  2  0  0  0  0
 20 24  1  0  0  0  0
 21  1  1  0  0  0  0
 22 18  1  0  0  0  0
 23 19  1  0  0  0  0
 25 30  1  0  0  0  0
 26 27  1  0  0  0  0
 26 25  2  0  0  0  0
 27 28  2  0  0  0  0
 28 29  1  0  0  0  0
 29 17  1  0  0  0  0
 30 29  2  0  0  0  0
 31 25  1  0  0  0  0
 32 26  1  0  0  0  0
 33 27  1  0  0  0  0
 34 40  1  0  0  0  0
 34  6  1  0  0  0  0
 35 34  1  0  0  0  0
 36 37  1  0  0  0  0
 36 35  2  0  0  0  0
 37 39  2  0  0  0  0
 38 37  1  0  0  0  0
 38 42  1  0  0  0  0
 39 40  1  0  0  0  0
 40 41  2  0  0  0  0
 43 38  1  0  0  0  0
M  END
>  <minimizedAffinity>
-5.79333735

$$$$

 OpenBabel03242510143D

 43 46  0  0  1  0  0  0  0  0999 V2000
   38.2330   30.7650   40.8450 N   0  0  0  0  0  0  0  0  0  0  0  0
   38.8520   32.0740   40.8720 C   0  0  0  0  0  0  0  0  0  0  0  0
   37.9390   33.1310   40.2900 C   0  0  0  0  0  0  0  0  0  0  0  0
   37.6650   32.8990   38.8820 N   0  0  0  0  0  0  0  0  0  0  0  0
   37.9940   31.4960   38.5930 C   0  0  0  0  0  0  0  0  0  0  0  0
   37.3810   30.6310   39.6700 C   0  0  1  0  0  0  0  0  0  0  0  0
   38.9310   32.3360   41.9640 H   0  0  0  0  0  0  0  0  0  0  0  0
   39.8420   32.1270   40.4200 H   0  0  0  0  0  0  0  0  0  0  0  0
   36.9410   33.0650   40.8120 H   0  0  0  0  0  0  0  0  0  0  0  0
   38.4090   34.1020   40.4470 H   0  0  0  0  0  0  0  0  0  0  0  0
   38.3190   33.4640   38.2850 H   0  0  0  0  0  0  0  0  0  0  0  0
   37.7000   31.1820   37.5920 H   0  0  0  0  0  0  0  0  0  0  0  0
   39.1040   31.4640   38.6360 H   0  0  0  0  0  0  0  0  0  0  0  0
   36.4270   31.1550   39.9580 H   0  0  0  0  0  0  0  0  0  0  0  0
   40.9840   29.2830   40.7810 Br  0  0  0  0  0  0  0  0  0  0  0  0
   39.4960   28.9300   41.9070 C   0  0  0  0  0  0  0  0  0  0  0  0
   39.5470   27.9140   42.8390 C   0  0  0  0  0  0  0  0  0  0  0  0
   38.4640   27.6370   43.6780 C   0  0  0  0  0  0  0  0  0  0  0  0
   37.3330   28.4070   43.5520 C   0  0  0  0  0  0  0  0  0  0  0  0
   37.3200   29.4150   42.6080 C   0  0  0  0  0  0  0  0  0  0  0  0
   38.3740   29.6970   41.7800 C   0  0  0  0  0  0  0  0  0  0  0  0
   38.5520   26.8290   44.3930 H   0  0  0  0  0  0  0  0  0  0  0  0
   36.4950   28.1980   44.1960 H   0  0  0  0  0  0  0  0  0  0  0  0
   36.3890   29.9690   42.5780 H   0  0  0  0  0  0  0  0  0  0  0  0
   41.9310   25.1620   42.4790 C   0  0  0  0  0  0  0  0  0  0  0  0
   43.0920   25.6320   43.1270 C   0  0  0  0  0  0  0  0  0  0  0  0
   43.0220   26.9070   43.6790 C   0  0  0  0  0  0  0  0  0  0  0  0
   41.8790   27.6160   43.5740 N   0  0  0  0  0  0  0  0  0  0  0  0
   40.7660   27.1250   42.9360 C   0  0  0  0  0  0  0  0  0  0  0  0
   40.8290   25.8910   42.3990 N   0  0  0  0  0  0  0  0  0  0  0  0
   41.9850   24.1550   42.0420 H   0  0  0  0  0  0  0  0  0  0  0  0
   43.9930   25.0680   43.2070 H   0  0  0  0  0  0  0  0  0  0  0  0
   43.8680   27.3600   44.2010 H   0  0  0  0  0  0  0  0  0  0  0  0
   37.1570   29.2670   39.2760 N   0  0  0  0  0  0  0  0  0  0  0  0
   38.1820   28.6550   38.6550 C   0  0  0  0  0  3  0  0  0  0  0  0
   38.0300   27.3520   38.2550 C   0  0  0  0  0  3  0  0  0  0  0  0
   36.8210   26.7630   38.5240 C   0  0  0  0  0  0  0  0  0  0  0  0
   36.5360   25.4170   38.1610 N   0  0  0  0  0  0  0  0  0  0  0  0
   35.8270   27.4190   39.1490 N   0  0  0  0  0  0  0  0  0  0  0  0
   35.9810   28.7160   39.5460 C   0  0  0  0  0  0  0  0  0  0  0  0
   35.0230   29.2640   40.1180 O   0  0  0  0  0  0  0  0  0  0  0  0
   36.6820   24.9190   39.0520 H   0  0  0  0  0  0  0  0  0  0  0  0
   36.2590   24.7220   37.4410 H   0  0  0  0  0  0  0  0  0  0  0  0
  1  2  1  0  0  0  0
  1 21  1  0  0  0  0
  2  7  1  0  0  0  0
  3 10  1  0  0  0  0
  3  9  1  0  0  0  0
  3  2  1  0  0  0  0
  4  3  1  0  0  0  0
  5 13  1  0  0  0  0
  5  4  1  0  0  0  0
  5  6  1  0  0  0  0
  6 14  1  1  0  0  0
  6  1  1  0  0  0  0
  8  2  1  0  0  0  0
 11  4  1  0  0  0  0
 12  5  1  0  0  0  0
 15 16  1  0  0  0  0
 16 17  1  0  0  0  0
 17 29  1  0  0  0  0
 17 18  2  0  0  0  0
 18 22  1  0  0  0  0
 19 18  1  0  0  0  0
 19 23  1  0  0  0  0
 20 19  2  0  0  0  0
 21 16  2  0  0  0  0
 21 20  1  0  0  0  0
 24 20  1  0  0  0  0
 25 26  1  0  0  0  0
 26 32  1  0  0  0  0
 26 27  2  0  0  0  0
 27 33  1  0  0  0  0
 28 27  1  0  0  0  0
 29 28  2  0  0  0  0
 30 25  2  0  0  0  0
 30 29  1  0  0  0  0
 31 25  1  0  0  0  0
 34 40  1  0  0  0  0
 34  6  1  0  0  0  0
 35 34  1  0  0  0  0
 36 37  1  0  0  0  0
 36 35  2  0  0  0  0
 37 39  2  0  0  0  0
 38 37  1  0  0  0  0
 38 42  1  0  0  0  0
 39 40  1  0  0  0  0
 40 41  2  0  0  0  0
 43 38  1  0  0  0  0
M  END
>  <minimizedAffinity>
-5.69134855

$$$$

 OpenBabel03242510143D

 43 46  0  0  1  0  0  0  0  0999 V2000
   39.2790   29.5410   41.1880 N   0  0  0  0  0  0  0  0  0  0  0  0
   40.6920   29.7840   41.3890 C   0  0  0  0  0  0  0  0  0  0  0  0
   41.0010   31.2660   41.4150 C   0  0  0  0  0  0  0  0  0  0  0  0
   40.7090   31.9050   40.1430 N   0  0  0  0  0  0  0  0  0  0  0  0
   39.8070   31.0160   39.3970 C   0  0  0  0  0  0  0  0  0  0  0  0
   38.7040   30.5670   40.3270 C   0  0  1  0  0  0  0  0  0  0  0  0
   40.9020   29.4320   42.4370 H   0  0  0  0  0  0  0  0  0  0  0  0
   41.3540   29.2640   40.6980 H   0  0  0  0  0  0  0  0  0  0  0  0
   40.3210   31.7580   42.1690 H   0  0  0  0  0  0  0  0  0  0  0  0
   42.0500   31.3840   41.6860 H   0  0  0  0  0  0  0  0  0  0  0  0
   41.5790   31.9680   39.5580 H   0  0  0  0  0  0  0  0  0  0  0  0
   39.4220   31.4620   38.4810 H   0  0  0  0  0  0  0  0  0  0  0  0
   40.4550   30.1620   39.1010 H   0  0  0  0  0  0  0  0  0  0  0  0
   38.5290   31.4400   41.0150 H   0  0  0  0  0  0  0  0  0  0  0  0
   39.3320   26.8840   39.5430 Br  0  0  0  0  0  0  0  0  0  0  0  0
   38.3670   27.2480   41.1380 C   0  0  0  0  0  0  0  0  0  0  0  0
   37.5680   26.2800   41.7100 C   0  0  0  0  0  0  0  0  0  0  0  0
   36.8500   26.5260   42.8840 C   0  0  0  0  0  0  0  0  0  0  0  0
   36.9570   27.7680   43.4620 C   0  0  0  0  0  0  0  0  0  0  0  0
   37.7680   28.7100   42.8600 C   0  0  0  0  0  0  0  0  0  0  0  0
   38.4770   28.4820   41.7100 C   0  0  0  0  0  0  0  0  0  0  0  0
   36.2350   25.7350   43.2940 H   0  0  0  0  0  0  0  0  0  0  0  0
   36.4060   27.9640   44.3670 H   0  0  0  0  0  0  0  0  0  0  0  0
   37.7930   29.6590   43.3830 H   0  0  0  0  0  0  0  0  0  0  0  0
   36.3910   23.5240   39.6120 C   0  0  0  0  0  0  0  0  0  0  0  0
   37.3360   22.5010   39.8350 C   0  0  0  0  0  0  0  0  0  0  0  0
   38.3710   22.7930   40.7170 C   0  0  0  0  0  0  0  0  0  0  0  0
   38.4230   24.0070   41.3030 N   0  0  0  0  0  0  0  0  0  0  0  0
   37.4840   24.9800   41.0620 C   0  0  0  0  0  0  0  0  0  0  0  0
   36.4800   24.7020   40.2090 N   0  0  0  0  0  0  0  0  0  0  0  0
   35.5720   23.2940   38.9150 H   0  0  0  0  0  0  0  0  0  0  0  0
   37.2900   21.5430   39.3690 H   0  0  0  0  0  0  0  0  0  0  0  0
   39.1520   22.0670   40.9540 H   0  0  0  0  0  0  0  0  0  0  0  0
   37.5020   30.1480   39.6590 N   0  0  0  0  0  0  0  0  0  0  0  0
   37.6700   29.4990   38.4920 C   0  0  0  0  0  3  0  0  0  0  0  0
   36.5600   29.0740   37.8060 C   0  0  0  0  0  3  0  0  0  0  0  0
   35.3430   29.3490   38.3760 C   0  0  0  0  0  0  0  0  0  0  0  0
   34.1170   28.9620   37.7650 N   0  0  0  0  0  0  0  0  0  0  0  0
   35.2290   30.0010   39.5460 N   0  0  0  0  0  0  0  0  0  0  0  0
   36.3350   30.4230   40.2260 C   0  0  0  0  0  0  0  0  0  0  0  0
   36.1600   31.0200   41.3020 O   0  0  0  0  0  0  0  0  0  0  0  0
   33.8770   28.1080   38.2910 H   0  0  0  0  0  0  0  0  0  0  0  0
   33.3740   29.1310   37.0600 H   0  0  0  0  0  0  0  0  0  0  0  0
  1  2  1  0  0  0  0
  1 21  1  0  0  0  0
  2  3  1  0  0  0  0
  2  7  1  0  0  0  0
  3 10  1  0  0  0  0
  3  9  1  0  0  0  0
  4  3  1  0  0  0  0
  5  4  1  0  0  0  0
  5  6  1  0  0  0  0
  6 14  1  1  0  0  0
  6  1  1  0  0  0  0
  8  2  1  0  0  0  0
 11  4  1  0  0  0  0
 12  5  1  0  0  0  0
 13  5  1  0  0  0  0
 15 16  1  0  0  0  0
 16 21  2  0  0  0  0
 16 17  1  0  0  0  0
 17 18  2  0  0  0  0
 18 22  1  0  0  0  0
 18 19  1  0  0  0  0
 19 23  1  0  0  0  0
 20 24  1  0  0  0  0
 20 19  2  0  0  0  0
 21 20  1  0  0  0  0
 25 26  2  0  0  0  0
 25 30  1  0  0  0  0
 26 27  1  0  0  0  0
 27 33  1  0  0  0  0
 27 28  2  0  0  0  0
 29 28  1  0  0  0  0
 29 17  1  0  0  0  0
 30 29  2  0  0  0  0
 31 25  1  0  0  0  0
 32 26  1  0  0  0  0
 34 40  1  0  0  0  0
 34  6  1  0  0  0  0
 35 34  1  0  0  0  0
 36 37  1  0  0  0  0
 36 35  2  0  0  0  0
 37 39  2  0  0  0  0
 38 42  1  0  0  0  0
 38 37  1  0  0  0  0
 39 40  1  0  0  0  0
 40 41  2  0  0  0  0
 43 38  1  0  0  0  0
M  END
>  <minimizedAffinity>
-5.64796448

$$$$

 OpenBabel03242510143D

 43 46  0  0  1  0  0  0  0  0999 V2000
   37.9830   30.3890   40.3880 N   0  0  0  0  0  0  0  0  0  0  0  0
   36.9180   31.1660   39.7910 C   0  0  0  0  0  0  0  0  0  0  0  0
   37.3000   31.6610   38.4120 C   0  0  0  0  0  0  0  0  0  0  0  0
   38.4260   32.5790   38.4560 N   0  0  0  0  0  0  0  0  0  0  0  0
   39.1020   32.3890   39.7470 C   0  0  0  0  0  0  0  0  0  0  0  0
   39.2820   30.9060   39.9760 C   0  0  1  0  0  0  0  0  0  0  0  0
   36.0870   30.4290   39.6070 H   0  0  0  0  0  0  0  0  0  0  0  0
   36.5410   31.9840   40.4040 H   0  0  0  0  0  0  0  0  0  0  0  0
   37.6470   30.7790   37.8010 H   0  0  0  0  0  0  0  0  0  0  0  0
   36.4220   32.1330   37.9710 H   0  0  0  0  0  0  0  0  0  0  0  0
   38.0860   33.5730   38.4660 H   0  0  0  0  0  0  0  0  0  0  0  0
   40.0390   32.9380   39.8280 H   0  0  0  0  0  0  0  0  0  0  0  0
   38.3980   32.8270   40.4870 H   0  0  0  0  0  0  0  0  0  0  0  0
   39.4420   30.4690   38.9510 H   0  0  0  0  0  0  0  0  0  0  0  0
   37.9650   27.5930   38.9910 Br  0  0  0  0  0  0  0  0  0  0  0  0
   37.8550   27.9670   40.8490 C   0  0  0  0  0  0  0  0  0  0  0  0
   37.7520   26.9420   41.7670 C   0  0  0  0  0  0  0  0  0  0  0  0
   37.6710   27.1950   43.1390 C   0  0  0  0  0  0  0  0  0  0  0  0
   37.6940   28.5030   43.5600 C   0  0  0  0  0  0  0  0  0  0  0  0
   37.7990   29.5010   42.6120 C   0  0  0  0  0  0  0  0  0  0  0  0
   37.8800   29.2680   41.2650 C   0  0  0  0  0  0  0  0  0  0  0  0
   37.5900   26.3570   43.8200 H   0  0  0  0  0  0  0  0  0  0  0  0
   37.6310   28.7040   44.6170 H   0  0  0  0  0  0  0  0  0  0  0  0
   37.8090   30.5000   43.0340 H   0  0  0  0  0  0  0  0  0  0  0  0
   38.8620   23.6080   40.7510 C   0  0  0  0  0  0  0  0  0  0  0  0
   37.6760   22.9670   40.3340 C   0  0  0  0  0  0  0  0  0  0  0  0
   36.5050   23.7150   40.4160 C   0  0  0  0  0  0  0  0  0  0  0  0
   36.5560   24.9810   40.8770 N   0  0  0  0  0  0  0  0  0  0  0  0
   37.7310   25.5730   41.2740 C   0  0  0  0  0  0  0  0  0  0  0  0
   38.8660   24.8540   41.1970 N   0  0  0  0  0  0  0  0  0  0  0  0
   39.7880   23.0180   40.6870 H   0  0  0  0  0  0  0  0  0  0  0  0
   37.6410   21.9660   39.9710 H   0  0  0  0  0  0  0  0  0  0  0  0
   35.5360   23.3080   40.1180 H   0  0  0  0  0  0  0  0  0  0  0  0
   40.3460   30.5740   40.8840 N   0  0  0  0  0  0  0  0  0  0  0  0
   40.4300   31.3260   41.9970 C   0  0  0  0  0  3  0  0  0  0  0  0
   41.4250   31.0570   42.9030 C   0  0  0  0  0  3  0  0  0  0  0  0
   42.2730   30.0230   42.5960 C   0  0  0  0  0  0  0  0  0  0  0  0
   43.3450   29.6450   43.4520 N   0  0  0  0  0  0  0  0  0  0  0  0
   42.1460   29.3010   41.4690 N   0  0  0  0  0  0  0  0  0  0  0  0
   41.1550   29.5700   40.5700 C   0  0  0  0  0  0  0  0  0  0  0  0
   41.0930   28.8650   39.5480 O   0  0  0  0  0  0  0  0  0  0  0  0
   42.9500   28.8290   43.9430 H   0  0  0  0  0  0  0  0  0  0  0  0
   44.3100   29.7990   43.8030 H   0  0  0  0  0  0  0  0  0  0  0  0
  1 21  1  0  0  0  0
  2  1  1  0  0  0  0
  2  8  1  0  0  0  0
  3  4  1  0  0  0  0
  3  2  1  0  0  0  0
  4 11  1  0  0  0  0
  4  5  1  0  0  0  0
  5 12  1  0  0  0  0
  5  6  1  0  0  0  0
  5 13  1  0  0  0  0
  6 14  1  6  0  0  0
  6  1  1  0  0  0  0
  6 34  1  0  0  0  0
  7  2  1  0  0  0  0
  9  3  1  0  0  0  0
 10  3  1  0  0  0  0
 15 16  1  0  0  0  0
 16 21  2  0  0  0  0
 16 17  1  0  0  0  0
 17 18  2  0  0  0  0
 18 19  1  0  0  0  0
 18 22  1  0  0  0  0
 19 23  1  0  0  0  0
 20 24  1  0  0  0  0
 20 19  2  0  0  0  0
 21 20  1  0  0  0  0
 25 30  1  0  0  0  0
 26 27  1  0  0  0  0
 26 25  2  0  0  0  0
 27 28  2  0  0  0  0
 28 29  1  0  0  0  0
 29 17  1  0  0  0  0
 30 29  2  0  0  0  0
 31 25  1  0  0  0  0
 32 26  1  0  0  0  0
 33 27  1  0  0  0  0
 34 35  1  0  0  0  0
 35 36  2  0  0  0  0
 37 36  1  0  0  0  0
 37 38  1  0  0  0  0
 38 43  1  0  0  0  0
 38 42  1  0  0  0  0
 39 37  2  0  0  0  0
 40 34  1  0  0  0  0
 40 39  1  0  0  0  0
 41 40  2  0  0  0  0
M  END
>  <minimizedAffinity>
-5.61341763

$$$$

 OpenBabel03242510143D

 43 46  0  0  1  0  0  0  0  0999 V2000
   38.2000   28.0520   40.8290 N   0  0  0  0  0  0  0  0  0  0  0  0
   38.4710   26.8670   41.6150 C   0  0  0  0  0  0  0  0  0  0  0  0
   37.4440   26.6830   42.7120 C   0  0  0  0  0  0  0  0  0  0  0  0
   37.4810   27.7670   43.6790 N   0  0  0  0  0  0  0  0  0  0  0  0
   38.1830   28.8960   43.0530 C   0  0  0  0  0  0  0  0  0  0  0  0
   37.6210   29.0950   41.6650 C   0  0  1  0  0  0  0  0  0  0  0  0
   38.2950   26.0050   40.9140 H   0  0  0  0  0  0  0  0  0  0  0  0
   39.4820   26.7990   42.0180 H   0  0  0  0  0  0  0  0  0  0  0  0
   36.4170   26.7220   42.2470 H   0  0  0  0  0  0  0  0  0  0  0  0
   37.6320   25.7210   43.1880 H   0  0  0  0  0  0  0  0  0  0  0  0
   38.0720   27.4980   44.5050 H   0  0  0  0  0  0  0  0  0  0  0  0
   38.1510   29.8070   43.6490 H   0  0  0  0  0  0  0  0  0  0  0  0
   39.2440   28.5660   43.0130 H   0  0  0  0  0  0  0  0  0  0  0  0
   36.5340   28.8140   41.7460 H   0  0  0  0  0  0  0  0  0  0  0  0
   41.1780   28.5680   40.0290 Br  0  0  0  0  0  0  0  0  0  0  0  0
   39.6590   28.5070   38.8900 C   0  0  0  0  0  0  0  0  0  0  0  0
   39.7930   28.7040   37.5310 C   0  0  0  0  0  0  0  0  0  0  0  0
   38.6890   28.6620   36.6750 C   0  0  0  0  0  0  0  0  0  0  0  0
   37.4520   28.4210   37.2220 C   0  0  0  0  0  0  0  0  0  0  0  0
   37.3590   28.2280   38.5860 C   0  0  0  0  0  0  0  0  0  0  0  0
   38.4320   28.2660   39.4370 C   0  0  0  0  0  0  0  0  0  0  0  0
   38.8460   28.8230   35.6150 H   0  0  0  0  0  0  0  0  0  0  0  0
   36.5980   28.3870   36.5670 H   0  0  0  0  0  0  0  0  0  0  0  0
   36.3470   28.0440   38.9300 H   0  0  0  0  0  0  0  0  0  0  0  0
   43.1080   28.1570   36.0840 C   0  0  0  0  0  0  0  0  0  0  0  0
   43.6520   29.4540   35.9820 C   0  0  0  0  0  0  0  0  0  0  0  0
   42.8480   30.5010   36.4220 C   0  0  0  0  0  0  0  0  0  0  0  0
   41.6200   30.2350   36.9120 N   0  0  0  0  0  0  0  0  0  0  0  0
   41.1230   28.9580   36.9970 C   0  0  0  0  0  0  0  0  0  0  0  0
   41.8970   27.9410   36.5730 N   0  0  0  0  0  0  0  0  0  0  0  0
   43.7430   27.3290   35.7370 H   0  0  0  0  0  0  0  0  0  0  0  0
   44.6240   29.6590   35.5940 H   0  0  0  0  0  0  0  0  0  0  0  0
   43.1790   31.5410   36.3840 H   0  0  0  0  0  0  0  0  0  0  0  0
   37.8040   30.4210   41.1390 N   0  0  0  0  0  0  0  0  0  0  0  0
   39.0140   30.9740   41.3390 C   0  0  0  0  0  3  0  0  0  0  0  0
   39.2510   32.2380   40.8600 C   0  0  0  0  0  3  0  0  0  0  0  0
   38.2150   32.8500   40.2010 C   0  0  0  0  0  0  0  0  0  0  0  0
   38.3320   34.1590   39.6580 N   0  0  0  0  0  0  0  0  0  0  0  0
   37.0230   32.2520   40.0270 N   0  0  0  0  0  0  0  0  0  0  0  0
   36.7900   30.9950   40.5050 C   0  0  0  0  0  0  0  0  0  0  0  0
   35.6670   30.5010   40.3100 O   0  0  0  0  0  0  0  0  0  0  0  0
   38.5040   33.9630   38.6600 H   0  0  0  0  0  0  0  0  0  0  0  0
   38.3250   35.1900   39.7900 H   0  0  0  0  0  0  0  0  0  0  0  0
  1  2  1  0  0  0  0
  1  6  1  0  0  0  0
  2  8  1  0  0  0  0
  2  3  1  0  0  0  0
  3 10  1  0  0  0  0
  3  4  1  0  0  0  0
  4 11  1  0  0  0  0
  5 12  1  0  0  0  0
  5  4  1  0  0  0  0
  6 14  1  1  0  0  0
  6  5  1  0  0  0  0
  7  2  1  0  0  0  0
  9  3  1  0  0  0  0
 13  5  1  0  0  0  0
 16 21  1  0  0  0  0
 16 15  1  0  0  0  0
 17 16  2  0  0  0  0
 18 19  2  0  0  0  0
 18 17  1  0  0  0  0
 19 20  1  0  0  0  0
 20 24  1  0  0  0  0
 20 21  2  0  0  0  0
 21  1  1  0  0  0  0
 22 18  1  0  0  0  0
 23 19  1  0  0  0  0
 25 30  1  0  0  0  0
 26 25  2  0  0  0  0
 26 27  1  0  0  0  0
 27 28  2  0  0  0  0
 28 29  1  0  0  0  0
 29 17  1  0  0  0  0
 30 29  2  0  0  0  0
 31 25  1  0  0  0  0
 32 26  1  0  0  0  0
 33 27  1  0  0  0  0
 34 35  1  0  0  0  0
 34  6  1  0  0  0  0
 36 35  2  0  0  0  0
 37 36  1  0  0  0  0
 38 43  1  0  0  0  0
 38 37  1  0  0  0  0
 39 37  2  0  0  0  0
 39 40  1  0  0  0  0
 40 34  1  0  0  0  0
 41 40  2  0  0  0  0
 42 38  1  0  0  0  0
M  END
>  <minimizedAffinity>
-5.56589842

$$$$
