
 OpenBabel03252506283D

 48 52  0  0  0  0  0  0  0  0999 V2000
   47.8590   30.0460   47.0310 C   0  0  0  0  0  0  0  0  0  0  0  0
   48.0190   30.7960   48.2250 C   0  0  0  0  0  0  0  0  0  0  0  0
   47.5000   32.0260   48.0290 C   0  0  0  0  0  0  0  0  0  0  0  0
   47.0380   32.0460   46.7750 N   0  0  0  0  0  0  0  0  0  0  0  0
   47.2500   30.8670   46.1750 N   0  0  0  0  0  0  0  0  0  0  0  0
   48.4910   30.4000   49.1280 H   0  0  0  0  0  0  0  0  0  0  0  0
   47.4630   32.8400   48.7420 H   0  0  0  0  0  0  0  0  0  0  0  0
   49.6670   27.1390   45.7780 C   0  0  0  0  0  0  0  0  0  0  0  0
   49.1870   26.0900   46.5410 C   0  0  0  0  0  0  0  0  0  0  0  0
   48.2280   26.3950   47.5010 C   0  0  0  0  0  0  0  0  0  0  0  0
   47.8260   27.6870   47.6260 N   0  0  0  0  0  0  0  0  0  0  0  0
   48.3030   28.6760   46.8790 C   0  0  0  0  0  0  0  0  0  0  0  0
   49.2330   28.3910   45.9460 N   0  0  0  0  0  0  0  0  0  0  0  0
   50.4100   26.8360   45.0480 H   0  0  0  0  0  0  0  0  0  0  0  0
   49.4410   25.0510   46.5160 H   0  0  0  0  0  0  0  0  0  0  0  0
   47.5710   25.5070   48.4190 N   0  0  0  0  0  0  0  0  0  0  0  0
   48.1940   24.7690   49.3550 C   0  0  0  0  0  3  0  0  0  0  0  0
   47.4430   23.9410   50.1890 C   0  0  0  0  0  3  0  0  0  0  0  0
   46.0760   23.9250   50.0030 C   0  0  0  0  0  0  0  0  0  0  0  0
   45.3180   23.0740   50.8630 N   0  0  0  0  0  0  0  0  0  0  0  0
   45.4950   24.6810   49.0540 N   0  0  0  0  0  0  0  0  0  0  0  0
   46.2370   25.4880   48.2400 C   0  0  0  0  0  0  0  0  0  0  0  0
   45.6130   26.1600   47.3800 O   0  0  0  0  0  0  0  0  0  0  0  0
   44.8030   22.1520   50.8550 H   0  0  0  0  0  0  0  0  0  0  0  0
   45.2840   23.5610   51.8040 H   0  0  0  0  0  0  0  0  0  0  0  0
   46.3920   33.1800   46.1320 C   0  0  0  0  0  0  0  0  0  0  0  0
   45.3110   33.1230   46.2460 H   0  0  0  0  0  0  0  0  0  0  0  0
   46.7450   34.1390   46.5910 H   0  0  0  0  0  0  0  0  0  0  0  0
   46.7540   33.2300   44.6850 C   0  0  0  0  0  0  0  0  0  0  0  0
   47.5320   32.4590   44.5070 H   0  0  0  0  0  0  0  0  0  0  0  0
   47.2700   34.2170   44.4980 H   0  0  0  0  0  0  0  0  0  0  0  0
   45.0550   34.1170   42.9810 C   0  0  0  0  0  0  0  0  0  0  0  0
   45.6670   33.1300   43.7310 C   0  0  0  0  0  0  0  0  0  0  0  0
   45.1740   31.8340   43.5510 C   0  0  0  0  0  0  0  0  0  0  0  0
   44.1520   31.5650   42.6880 C   0  0  0  0  0  0  0  0  0  0  0  0
   43.4850   30.4480   42.3150 N   0  0  0  0  0  0  0  0  0  0  0  0
   42.5420   30.7230   41.4130 C   0  0  0  0  0  0  0  0  0  0  0  0
   42.5560   32.0800   41.1510 C   0  0  0  0  0  0  0  0  0  0  0  0
   43.5540   32.5590   41.9500 C   0  0  0  0  0  0  0  0  0  0  0  0
   44.0280   33.8380   42.1160 C   0  0  0  0  0  0  0  0  0  0  0  0
   45.4680   35.1060   43.1510 H   0  0  0  0  0  0  0  0  0  0  0  0
   45.5640   30.9670   44.0770 H   0  0  0  0  0  0  0  0  0  0  0  0
   43.6980   29.4980   42.7000 H   0  0  0  0  0  0  0  0  0  0  0  0
   41.8910   29.9620   40.9840 H   0  0  0  0  0  0  0  0  0  0  0  0
   41.8840   32.5580   40.4510 H   0  0  0  0  0  0  0  0  0  0  0  0
   43.4320   34.9360   41.3600 C   0  0  0  0  0  0  0  0  0  0  0  0
   43.7550   36.1360   41.5840 O   0  0  0  0  0  0  0  0  0  0  0  0
   42.6960   34.7660   40.5800 H   0  0  0  0  0  0  0  0  0  0  0  0
  1  2  1  0  0  0  0
  2  6  1  0  0  0  0
  3  2  2  0  0  0  0
  3  7  1  0  0  0  0
  4  3  1  0  0  0  0
  5  4  1  0  0  0  0
  5  1  2  0  0  0  0
  8 13  2  0  0  0  0
  8  9  1  0  0  0  0
  9 10  2  0  0  0  0
 10 11  1  0  0  0  0
 10 16  1  0  0  0  0
 12  1  1  0  0  0  0
 12 11  2  0  0  0  0
 13 12  1  0  0  0  0
 14  8  1  0  0  0  0
 15  9  1  0  0  0  0
 16 17  1  0  0  0  0
 17 18  2  0  0  0  0
 19 18  1  0  0  0  0
 19 20  1  0  0  0  0
 20 25  1  0  0  0  0
 21 19  2  0  0  0  0
 22 16  1  0  0  0  0
 22 21  1  0  0  0  0
 23 22  2  0  0  0  0
 24 20  1  0  0  0  0
 26 27  1  0  0  0  0
 26 28  1  0  0  0  0
 26  4  1  0  0  0  0
 29 26  1  0  0  0  0
 30 29  1  0  0  0  0
 31 29  1  0  0  0  0
 32 41  1  0  0  0  0
 32 33  1  0  0  0  0
 33 29  1  0  0  0  0
 34 33  2  0  0  0  0
 34 42  1  0  0  0  0
 35 34  1  0  0  0  0
 36 35  1  0  0  0  0
 36 43  1  0  0  0  0
 37 36  1  0  0  0  0
 38 37  2  0  0  0  0
 38 39  1  0  0  0  0
 39 40  1  0  0  0  0
 39 35  2  0  0  0  0
 40 32  2  0  0  0  0
 44 37  1  0  0  0  0
 45 38  1  0  0  0  0
 46 47  2  0  0  0  0
 46 40  1  0  0  0  0
 48 46  1  0  0  0  0
M  END
>  <minimizedAffinity>
-5.1626482

>  <minimizedRMSD>
9.48037815

$$$$
