
 OpenBabel03252500573D

 39 41  0  0  0  0  0  0  0  0999 V2000
   43.5120   35.4380   39.7930 O   0  0  0  0  0  0  0  0  0  0  0  0
   43.3370   34.9110   41.2110 P   0  0  1  0  0  0  0  0  0  0  0  0
   43.5320   33.2200   41.1840 O   0  0  0  0  0  0  0  0  0  0  0  0
   43.6220   32.9080   42.1080 H   0  0  0  0  0  0  0  0  0  0  0  0
   44.5600   35.5450   42.2100 O   0  0  0  0  0  0  0  0  0  0  0  0
   46.5780   34.4620   42.7460 C   0  0  0  0  0  0  0  0  0  0  0  0
   45.3150   34.8490   43.1420 C   0  0  0  0  0  0  0  0  0  0  0  0
   44.8940   34.5170   44.4360 C   0  0  0  0  0  0  0  0  0  0  0  0
   45.7530   33.8370   45.2170 N   0  0  0  0  0  0  0  0  0  0  0  0
   46.9740   33.4680   44.8180 C   0  0  0  0  0  0  0  0  0  0  0  0
   47.3770   33.7850   43.5840 N   0  0  0  0  0  0  0  0  0  0  0  0
   43.9190   34.8270   44.7170 H   0  0  0  0  0  0  0  0  0  0  0  0
   47.6810   32.9200   45.4340 H   0  0  0  0  0  0  0  0  0  0  0  0
   47.0760   34.7800   41.4060 C   0  0  0  0  0  0  0  0  0  0  0  0
   46.4090   35.5220   40.9160 H   0  0  0  0  0  0  0  0  0  0  0  0
   47.1130   33.8800   40.7600 H   0  0  0  0  0  0  0  0  0  0  0  0
   48.4580   35.3600   41.5270 C   0  0  0  0  0  0  0  0  0  0  0  0
   49.1750   34.5630   41.7240 H   0  0  0  0  0  0  0  0  0  0  0  0
   48.4410   36.1190   42.3350 H   0  0  0  0  0  0  0  0  0  0  0  0
   48.7120   35.8290   40.5450 H   0  0  0  0  0  0  0  0  0  0  0  0
   41.7800   35.2340   41.7880 O   0  0  0  0  0  0  0  0  0  0  0  0
   40.7500   34.3930   41.3980 C   0  0  0  0  0  0  0  0  0  0  0  0
   39.7070   34.9290   40.6630 C   0  0  0  0  0  0  0  0  0  0  0  0
   38.6350   34.1570   40.2310 C   0  0  0  0  0  0  0  0  0  0  0  0
   38.6310   32.8270   40.5530 N   0  0  0  0  0  0  0  0  0  0  0  0
   39.6390   32.3220   41.2600 C   0  0  0  0  0  0  0  0  0  0  0  0
   40.6630   33.0680   41.6700 N   0  0  0  0  0  0  0  0  0  0  0  0
   39.7300   35.9690   40.4220 H   0  0  0  0  0  0  0  0  0  0  0  0
   37.8310   34.6200   39.6520 H   0  0  0  0  0  0  0  0  0  0  0  0
   39.5690   30.9310   41.5590 N   0  0  0  0  0  0  0  0  0  0  0  0
   40.6740   30.2630   41.9800 C   0  0  0  0  0  3  0  0  0  0  0  0
   40.4950   28.9190   42.2430 C   0  0  0  0  0  3  0  0  0  0  0  0
   39.3050   28.2310   42.1080 C   0  0  0  0  0  0  0  0  0  0  0  0
   39.1910   26.8440   42.3950 N   0  0  0  0  0  0  0  0  0  0  0  0
   38.2670   28.9750   41.6860 N   0  0  0  0  0  0  0  0  0  0  0  0
   38.3950   30.3000   41.4160 C   0  0  0  0  0  0  0  0  0  0  0  0
   37.3810   30.9290   41.0260 O   0  0  0  0  0  0  0  0  0  0  0  0
   40.0590   26.3410   42.6700 H   0  0  0  0  0  0  0  0  0  0  0  0
   38.2380   26.4210   42.3110 H   0  0  0  0  0  0  0  0  0  0  0  0
  2  1  2  6  0  0  0
  2 21  1  0  0  0  0
  2  5  1  0  0  0  0
  3  2  1  0  0  0  0
  3  4  1  0  0  0  0
  5  7  1  0  0  0  0
  6  7  2  0  0  0  0
  6 11  1  0  0  0  0
  7  8  1  0  0  0  0
  8 12  1  0  0  0  0
  8  9  2  0  0  0  0
 10  9  1  0  0  0  0
 10 13  1  0  0  0  0
 11 10  2  0  0  0  0
 14 17  1  0  0  0  0
 14  6  1  0  0  0  0
 15 14  1  0  0  0  0
 16 14  1  0  0  0  0
 17 18  1  0  0  0  0
 17 19  1  0  0  0  0
 20 17  1  0  0  0  0
 22 27  1  0  0  0  0
 22 21  1  0  0  0  0
 23 22  2  0  0  0  0
 24 25  2  0  0  0  0
 24 23  1  0  0  0  0
 25 26  1  0  0  0  0
 26 30  1  0  0  0  0
 26 27  2  0  0  0  0
 28 23  1  0  0  0  0
 29 24  1  0  0  0  0
 30 31  1  0  0  0  0
 31 32  2  0  0  0  0
 33 32  1  0  0  0  0
 33 34  1  0  0  0  0
 34 38  1  0  0  0  0
 35 33  2  0  0  0  0
 36 30  1  0  0  0  0
 36 35  1  0  0  0  0
 37 36  2  0  0  0  0
 39 34  1  0  0  0  0
M  END
>  <minimizedAffinity>
-5.91235828

>  <minimizedRMSD>
1.16965175

$$$$
