
 OpenBabel03252500573D

 39 41  0  0  0  0  0  0  0  0999 V2000
   43.8060   35.3510   40.3080 O   0  0  0  0  0  0  0  0  0  0  0  0
   43.3120   34.9930   41.7030 P   0  0  1  0  0  0  0  0  0  0  0  0
   43.3400   33.2980   41.8660 O   0  0  0  0  0  0  0  0  0  0  0  0
   43.2200   33.0800   42.8130 H   0  0  0  0  0  0  0  0  0  0  0  0
   44.3770   35.6310   42.8670 O   0  0  0  0  0  0  0  0  0  0  0  0
   46.3330   34.4020   43.3100 C   0  0  0  0  0  0  0  0  0  0  0  0
   45.1410   34.9130   43.7760 C   0  0  0  0  0  0  0  0  0  0  0  0
   44.7920   34.6740   45.1110 C   0  0  0  0  0  0  0  0  0  0  0  0
   45.6480   33.9570   45.8610 N   0  0  0  0  0  0  0  0  0  0  0  0
   46.8020   33.4680   45.3950 C   0  0  0  0  0  0  0  0  0  0  0  0
   47.1350   33.6960   44.1210 N   0  0  0  0  0  0  0  0  0  0  0  0
   43.8700   35.0790   45.4460 H   0  0  0  0  0  0  0  0  0  0  0  0
   47.5050   32.8880   45.9850 H   0  0  0  0  0  0  0  0  0  0  0  0
   46.7540   34.6180   41.9240 C   0  0  0  0  0  0  0  0  0  0  0  0
   46.0320   35.2860   41.4050 H   0  0  0  0  0  0  0  0  0  0  0  0
   46.8010   33.6660   41.3590 H   0  0  0  0  0  0  0  0  0  0  0  0
   48.1130   35.2620   41.9240 C   0  0  0  0  0  0  0  0  0  0  0  0
   48.8740   34.5160   42.1540 H   0  0  0  0  0  0  0  0  0  0  0  0
   48.1000   36.0890   42.6620 H   0  0  0  0  0  0  0  0  0  0  0  0
   48.3000   35.6510   40.8930 H   0  0  0  0  0  0  0  0  0  0  0  0
   41.7130   35.4980   41.9260 O   0  0  0  0  0  0  0  0  0  0  0  0
   40.6990   34.7150   41.3960 C   0  0  0  0  0  0  0  0  0  0  0  0
   39.8080   35.3040   40.5160 C   0  0  0  0  0  0  0  0  0  0  0  0
   38.7630   34.5930   39.9380 C   0  0  0  0  0  0  0  0  0  0  0  0
   38.6300   33.2690   40.2620 N   0  0  0  0  0  0  0  0  0  0  0  0
   39.4940   32.7140   41.1100 C   0  0  0  0  0  0  0  0  0  0  0  0
   40.4920   33.4030   41.6600 N   0  0  0  0  0  0  0  0  0  0  0  0
   39.9290   36.3370   40.2750 H   0  0  0  0  0  0  0  0  0  0  0  0
   38.0810   35.0940   39.2470 H   0  0  0  0  0  0  0  0  0  0  0  0
   39.2950   31.3340   41.4020 N   0  0  0  0  0  0  0  0  0  0  0  0
   40.1400   30.6810   42.2410 C   0  0  0  0  0  3  0  0  0  0  0  0
   39.8570   29.3480   42.4560 C   0  0  0  0  0  3  0  0  0  0  0  0
   38.8050   28.6540   41.8930 C   0  0  0  0  0  0  0  0  0  0  0  0
   38.5700   27.2780   42.1580 N   0  0  0  0  0  0  0  0  0  0  0  0
   38.0220   29.3830   41.0760 N   0  0  0  0  0  0  0  0  0  0  0  0
   38.2610   30.6980   40.8350 C   0  0  0  0  0  0  0  0  0  0  0  0
   37.4860   31.3120   40.0610 O   0  0  0  0  0  0  0  0  0  0  0  0
   39.2570   26.7850   42.7630 H   0  0  0  0  0  0  0  0  0  0  0  0
   37.7190   26.8520   41.7230 H   0  0  0  0  0  0  0  0  0  0  0  0
  2  1  2  6  0  0  0
  2  3  1  0  0  0  0
  2 21  1  0  0  0  0
  2  5  1  0  0  0  0
  3  4  1  0  0  0  0
  5  7  1  0  0  0  0
  6  7  2  0  0  0  0
  6 11  1  0  0  0  0
  7  8  1  0  0  0  0
  8 12  1  0  0  0  0
  8  9  2  0  0  0  0
 10  9  1  0  0  0  0
 10 13  1  0  0  0  0
 11 10  2  0  0  0  0
 14  6  1  0  0  0  0
 15 14  1  0  0  0  0
 16 14  1  0  0  0  0
 17 14  1  0  0  0  0
 17 18  1  0  0  0  0
 17 19  1  0  0  0  0
 20 17  1  0  0  0  0
 22 27  1  0  0  0  0
 22 21  1  0  0  0  0
 23 22  2  0  0  0  0
 24 25  2  0  0  0  0
 24 23  1  0  0  0  0
 25 26  1  0  0  0  0
 26 30  1  0  0  0  0
 26 27  2  0  0  0  0
 28 23  1  0  0  0  0
 29 24  1  0  0  0  0
 30 31  1  0  0  0  0
 31 32  2  0  0  0  0
 33 34  1  0  0  0  0
 33 32  1  0  0  0  0
 34 38  1  0  0  0  0
 35 33  2  0  0  0  0
 36 35  1  0  0  0  0
 36 30  1  0  0  0  0
 37 36  2  0  0  0  0
 39 34  1  0  0  0  0
M  END
>  <minimizedAffinity>
-6.05549717

>  <minimizedRMSD>
0.829635561

$$$$
