
 OpenBabel03242511333D

 36 38  0  0  1  0  0  0  0  0999 V2000
   48.9130   33.2580   42.6410 C   0  0  0  0  0  3  0  0  0  0  0  0
   47.7170   32.8830   43.0490 C   0  0  0  0  0  3  0  0  0  0  0  0
   49.4460   32.6940   41.4070 C   0  0  0  0  0  0  0  0  0  0  0  0
   50.6990   32.0600   41.4730 C   0  0  0  0  0  0  0  0  0  0  0  0
   51.2400   31.5080   40.3100 C   0  0  0  0  0  0  0  0  0  0  0  0
   50.5240   31.6100   39.1590 N   0  0  0  0  0  0  0  0  0  0  0  0
   49.3270   32.2230   39.1270 C   0  0  0  0  0  0  0  0  0  0  0  0
   48.8090   32.7530   40.2440 N   0  0  0  0  0  0  0  0  0  0  0  0
   51.2530   31.9910   42.4110 H   0  0  0  0  0  0  0  0  0  0  0  0
   52.1990   31.0280   40.3820 H   0  0  0  0  0  0  0  0  0  0  0  0
   48.6470   32.2850   37.8770 N   0  0  0  0  0  0  0  0  0  0  0  0
   49.1850   32.9590   36.8440 C   0  0  0  0  0  3  0  0  0  0  0  0
   48.4730   32.9860   35.6410 C   0  0  0  0  0  3  0  0  0  0  0  0
   47.2790   32.3110   35.6300 C   0  0  0  0  0  0  0  0  0  0  0  0
   46.5710   32.3480   34.4010 N   0  0  0  0  0  0  0  0  0  0  0  0
   46.7570   31.6410   36.6760 N   0  0  0  0  0  0  0  0  0  0  0  0
   47.4580   31.6270   37.8290 C   0  0  0  0  0  0  0  0  0  0  0  0
   47.0000   31.0110   38.8230 O   0  0  0  0  0  0  0  0  0  0  0  0
   45.6960   32.4770   33.8740 H   0  0  0  0  0  0  0  0  0  0  0  0
   46.9670   32.1880   33.4300 H   0  0  0  0  0  0  0  0  0  0  0  0
   47.1170   33.4110   44.2850 C   0  0  0  0  0  0  0  0  0  0  0  0
   47.7530   34.2040   44.7180 H   0  0  0  0  0  0  0  0  0  0  0  0
   47.0020   32.5570   44.9940 H   0  0  0  0  0  0  0  0  0  0  0  0
   44.5500   35.9420   44.0360 C   0  0  1  0  0  0  0  0  0  0  0  0
   45.6650   35.2120   43.2840 C   0  0  0  0  0  0  0  0  0  0  0  0
   45.7020   33.9320   44.0420 C   0  0  2  0  0  0  0  0  0  0  0  0
   44.9720   34.0480   45.1840 O   0  0  0  0  0  0  0  0  0  0  0  0
   44.7420   35.3900   45.4290 C   0  0  0  0  0  0  0  0  0  0  0  0
   43.5580   35.6880   43.6510 H   0  0  0  0  0  0  0  0  0  0  0  0
   46.5710   35.8280   43.3720 H   0  0  0  0  0  0  0  0  0  0  0  0
   45.3200   35.0930   42.2150 H   0  0  0  0  0  0  0  0  0  0  0  0
   45.1950   33.1450   43.4110 H   0  0  0  0  0  0  0  0  0  0  0  0
   43.8510   35.4930   46.0750 H   0  0  0  0  0  0  0  0  0  0  0  0
   45.5750   35.8830   45.9530 H   0  0  0  0  0  0  0  0  0  0  0  0
   44.7550   37.3130   43.9690 O   0  0  0  0  0  0  0  0  0  0  0  0
   45.3690   37.6610   44.6620 H   0  0  0  0  0  0  0  0  0  0  0  0
  1  2  2  0  0  0  0
  2 21  1  0  0  0  0
  3  4  1  0  0  0  0
  3  1  1  0  0  0  0
  4  9  1  0  0  0  0
  5 10  1  0  0  0  0
  5  4  2  0  0  0  0
  6  5  1  0  0  0  0
  7  6  2  0  0  0  0
  7  8  1  0  0  0  0
  8  3  2  0  0  0  0
 11  7  1  0  0  0  0
 12 11  1  0  0  0  0
 13 12  2  0  0  0  0
 14 13  1  0  0  0  0
 14 16  2  0  0  0  0
 15 14  1  0  0  0  0
 16 17  1  0  0  0  0
 17 11  1  0  0  0  0
 17 18  2  0  0  0  0
 19 15  1  0  0  0  0
 20 15  1  0  0  0  0
 21 22  1  0  0  0  0
 21 23  1  0  0  0  0
 24 29  1  6  0  0  0
 24 28  1  0  0  0  0
 25 30  1  0  0  0  0
 25 24  1  0  0  0  0
 25 26  1  0  0  0  0
 26 32  1  6  0  0  0
 26 21  1  0  0  0  0
 26 27  1  0  0  0  0
 27 28  1  0  0  0  0
 28 34  1  0  0  0  0
 28 33  1  0  0  0  0
 31 25  1  0  0  0  0
 35 24  1  0  0  0  0
 35 36  1  0  0  0  0
M  END
>  <minimizedAffinity>
-5.49337339

>  <minimizedRMSD>
1.08486056

$$$$
