
 OpenBabel03242511333D

 36 38  0  0  1  0  0  0  0  0999 V2000
   48.6400   32.1280   42.1690 C   0  0  0  0  0  3  0  0  0  0  0  0
   48.1680   33.3200   42.4750 C   0  0  0  0  0  3  0  0  0  0  0  0
   49.3500   31.9540   40.9070 C   0  0  0  0  0  0  0  0  0  0  0  0
   50.7320   31.7010   40.9720 C   0  0  0  0  0  0  0  0  0  0  0  0
   51.4430   31.5290   39.7830 C   0  0  0  0  0  0  0  0  0  0  0  0
   50.7620   31.6140   38.6100 N   0  0  0  0  0  0  0  0  0  0  0  0
   49.4400   31.8570   38.5800 C   0  0  0  0  0  0  0  0  0  0  0  0
   48.7580   32.0230   39.7220 N   0  0  0  0  0  0  0  0  0  0  0  0
   51.2540   31.6370   41.9280 H   0  0  0  0  0  0  0  0  0  0  0  0
   52.4990   31.3370   39.8540 H   0  0  0  0  0  0  0  0  0  0  0  0
   48.8080   31.9310   37.3060 N   0  0  0  0  0  0  0  0  0  0  0  0
   48.3560   30.8130   36.7080 C   0  0  0  0  0  3  0  0  0  0  0  0
   47.7430   30.9440   35.4570 C   0  0  0  0  0  3  0  0  0  0  0  0
   47.6630   32.2170   34.9540 C   0  0  0  0  0  0  0  0  0  0  0  0
   47.0400   32.3320   33.6860 N   0  0  0  0  0  0  0  0  0  0  0  0
   48.1230   33.3260   35.5700 N   0  0  0  0  0  0  0  0  0  0  0  0
   48.7100   33.1790   36.7750 C   0  0  0  0  0  0  0  0  0  0  0  0
   49.1500   34.1900   37.3760 O   0  0  0  0  0  0  0  0  0  0  0  0
   47.0170   32.7090   32.7270 H   0  0  0  0  0  0  0  0  0  0  0  0
   46.1330   31.8730   33.3740 H   0  0  0  0  0  0  0  0  0  0  0  0
   47.4420   33.5690   43.7320 C   0  0  0  0  0  0  0  0  0  0  0  0
   47.9760   34.3150   44.3480 H   0  0  0  0  0  0  0  0  0  0  0  0
   47.3540   32.5950   44.2680 H   0  0  0  0  0  0  0  0  0  0  0  0
   44.6990   35.9210   43.6850 C   0  0  1  0  0  0  0  0  0  0  0  0
   45.9130   35.3990   42.9130 C   0  0  0  0  0  0  0  0  0  0  0  0
   46.0070   34.0210   43.4680 C   0  0  2  0  0  0  0  0  0  0  0  0
   45.2020   33.9050   44.5580 O   0  0  0  0  0  0  0  0  0  0  0  0
   44.8500   35.1720   44.9870 C   0  0  0  0  0  0  0  0  0  0  0  0
   43.7560   35.6610   43.1940 H   0  0  0  0  0  0  0  0  0  0  0  0
   46.7590   36.0560   43.1590 H   0  0  0  0  0  0  0  0  0  0  0  0
   45.6450   35.4260   41.8160 H   0  0  0  0  0  0  0  0  0  0  0  0
   45.6060   33.3100   42.6900 H   0  0  0  0  0  0  0  0  0  0  0  0
   43.9160   35.1090   45.5750 H   0  0  0  0  0  0  0  0  0  0  0  0
   45.6060   35.6330   45.6390 H   0  0  0  0  0  0  0  0  0  0  0  0
   44.7960   37.2970   43.8420 O   0  0  0  0  0  0  0  0  0  0  0  0
   45.3360   37.5730   44.6220 H   0  0  0  0  0  0  0  0  0  0  0  0
  1  2  2  0  0  0  0
  2 21  1  0  0  0  0
  3  4  1  0  0  0  0
  3  1  1  0  0  0  0
  4  9  1  0  0  0  0
  5 10  1  0  0  0  0
  5  4  2  0  0  0  0
  6  5  1  0  0  0  0
  7  6  2  0  0  0  0
  7  8  1  0  0  0  0
  8  3  2  0  0  0  0
 11  7  1  0  0  0  0
 12 11  1  0  0  0  0
 13 12  2  0  0  0  0
 14 13  1  0  0  0  0
 14 16  2  0  0  0  0
 15 14  1  0  0  0  0
 16 17  1  0  0  0  0
 17 11  1  0  0  0  0
 17 18  2  0  0  0  0
 19 15  1  0  0  0  0
 20 15  1  0  0  0  0
 21 23  1  0  0  0  0
 21 22  1  0  0  0  0
 24 29  1  6  0  0  0
 24 35  1  0  0  0  0
 24 28  1  0  0  0  0
 25 30  1  0  0  0  0
 25 26  1  0  0  0  0
 25 24  1  0  0  0  0
 26 32  1  6  0  0  0
 26 21  1  0  0  0  0
 26 27  1  0  0  0  0
 27 28  1  0  0  0  0
 28 33  1  0  0  0  0
 28 34  1  0  0  0  0
 31 25  1  0  0  0  0
 35 36  1  0  0  0  0
M  END
>  <minimizedAffinity>
-5.46140385

>  <minimizedRMSD>
0.911067724

$$$$
