
 OpenBabel03252506283D

 48 52  0  0  0  0  0  0  0  0999 V2000
   46.3520   32.8420   46.0980 C   0  0  0  0  0  0  0  0  0  0  0  0
   47.3990   31.9130   45.8650 C   0  0  0  0  0  0  0  0  0  0  0  0
   47.4950   31.1000   46.9370 C   0  0  0  0  0  0  0  0  0  0  0  0
   46.5560   31.5000   47.8000 N   0  0  0  0  0  0  0  0  0  0  0  0
   45.8710   32.5390   47.3050 N   0  0  0  0  0  0  0  0  0  0  0  0
   47.9990   31.8980   44.9520 H   0  0  0  0  0  0  0  0  0  0  0  0
   48.1940   30.2850   47.0780 H   0  0  0  0  0  0  0  0  0  0  0  0
   44.6000   35.6890   44.6450 C   0  0  0  0  0  0  0  0  0  0  0  0
   45.1840   35.8440   43.4000 C   0  0  0  0  0  0  0  0  0  0  0  0
   46.1970   34.9510   43.0630 C   0  0  0  0  0  0  0  0  0  0  0  0
   46.5430   33.9950   43.9640 N   0  0  0  0  0  0  0  0  0  0  0  0
   45.9650   33.8690   45.1530 C   0  0  0  0  0  0  0  0  0  0  0  0
   44.9830   34.7280   45.4900 N   0  0  0  0  0  0  0  0  0  0  0  0
   43.8180   36.4130   44.8460 H   0  0  0  0  0  0  0  0  0  0  0  0
   44.9800   36.5590   42.6310 H   0  0  0  0  0  0  0  0  0  0  0  0
   46.9630   34.8900   41.8500 N   0  0  0  0  0  0  0  0  0  0  0  0
   48.1620   35.4710   41.6640 C   0  0  0  0  0  3  0  0  0  0  0  0
   48.8060   35.3380   40.4360 C   0  0  0  0  0  3  0  0  0  0  0  0
   48.1670   34.6020   39.4590 C   0  0  0  0  0  0  0  0  0  0  0  0
   48.8380   34.4730   38.2070 N   0  0  0  0  0  0  0  0  0  0  0  0
   46.9670   34.0380   39.6880 N   0  0  0  0  0  0  0  0  0  0  0  0
   46.3420   34.1730   40.8950 C   0  0  0  0  0  0  0  0  0  0  0  0
   45.2230   33.6120   41.0220 O   0  0  0  0  0  0  0  0  0  0  0  0
   48.8020   34.8390   37.2160 H   0  0  0  0  0  0  0  0  0  0  0  0
   49.6200   33.7730   38.3620 H   0  0  0  0  0  0  0  0  0  0  0  0
   46.2980   30.9040   49.1020 C   0  0  0  0  0  0  0  0  0  0  0  0
   47.0700   30.1790   49.3530 H   0  0  0  0  0  0  0  0  0  0  0  0
   46.2860   31.6950   49.8950 H   0  0  0  0  0  0  0  0  0  0  0  0
   44.9560   30.2520   49.1160 C   0  0  0  0  0  0  0  0  0  0  0  0
   44.2020   31.0310   48.8800 H   0  0  0  0  0  0  0  0  0  0  0  0
   44.7380   29.9450   50.1810 H   0  0  0  0  0  0  0  0  0  0  0  0
   44.9550   27.7380   48.6100 C   0  0  0  0  0  0  0  0  0  0  0  0
   44.7880   29.0720   48.2910 C   0  0  0  0  0  0  0  0  0  0  0  0
   44.3970   29.3390   46.9750 C   0  0  0  0  0  0  0  0  0  0  0  0
   44.1950   28.3410   46.0660 C   0  0  0  0  0  0  0  0  0  0  0  0
   43.8260   28.2940   44.7650 N   0  0  0  0  0  0  0  0  0  0  0  0
   43.7700   27.0380   44.3210 C   0  0  0  0  0  0  0  0  0  0  0  0
   44.1130   26.1840   45.3510 C   0  0  0  0  0  0  0  0  0  0  0  0
   44.3660   27.0190   46.4010 C   0  0  0  0  0  0  0  0  0  0  0  0
   44.7490   26.7410   47.6910 C   0  0  0  0  0  0  0  0  0  0  0  0
   45.2580   27.5760   49.6390 H   0  0  0  0  0  0  0  0  0  0  0  0
   44.2300   30.3420   46.5920 H   0  0  0  0  0  0  0  0  0  0  0  0
   43.6150   29.1490   44.1980 H   0  0  0  0  0  0  0  0  0  0  0  0
   43.4940   26.7810   43.2990 H   0  0  0  0  0  0  0  0  0  0  0  0
   44.1450   25.1070   45.2470 H   0  0  0  0  0  0  0  0  0  0  0  0
   44.9480   25.3550   48.1060 C   0  0  0  0  0  0  0  0  0  0  0  0
   45.3050   25.0690   49.2830 O   0  0  0  0  0  0  0  0  0  0  0  0
   44.7970   24.5230   47.4250 H   0  0  0  0  0  0  0  0  0  0  0  0
  1  5  2  0  0  0  0
  2  1  1  0  0  0  0
  2  3  2  0  0  0  0
  3  7  1  0  0  0  0
  3  4  1  0  0  0  0
  4 26  1  0  0  0  0
  5  4  1  0  0  0  0
  6  2  1  0  0  0  0
  8 14  1  0  0  0  0
  8 13  1  0  0  0  0
  9  8  2  0  0  0  0
 10  9  1  0  0  0  0
 10 11  2  0  0  0  0
 11 12  1  0  0  0  0
 12 13  2  0  0  0  0
 12  1  1  0  0  0  0
 15  9  1  0  0  0  0
 16 10  1  0  0  0  0
 17 16  1  0  0  0  0
 18 17  2  0  0  0  0
 19 21  2  0  0  0  0
 19 18  1  0  0  0  0
 20 25  1  0  0  0  0
 20 19  1  0  0  0  0
 21 22  1  0  0  0  0
 22 23  2  0  0  0  0
 22 16  1  0  0  0  0
 24 20  1  0  0  0  0
 26 29  1  0  0  0  0
 26 27  1  0  0  0  0
 26 28  1  0  0  0  0
 29 31  1  0  0  0  0
 30 29  1  0  0  0  0
 32 41  1  0  0  0  0
 33 32  1  0  0  0  0
 33 29  1  0  0  0  0
 34 33  2  0  0  0  0
 35 39  2  0  0  0  0
 35 34  1  0  0  0  0
 36 35  1  0  0  0  0
 37 36  1  0  0  0  0
 37 38  2  0  0  0  0
 38 39  1  0  0  0  0
 39 40  1  0  0  0  0
 40 46  1  0  0  0  0
 40 32  2  0  0  0  0
 42 34  1  0  0  0  0
 43 36  1  0  0  0  0
 44 37  1  0  0  0  0
 45 38  1  0  0  0  0
 46 47  2  0  0  0  0
 48 46  1  0  0  0  0
M  END
>  <minimizedAffinity>
-6.54833889

>  <minimizedRMSD>
1.06759787

$$$$
