
 OpenBabel03242511523D

 35 39  0  0  1  0  0  0  0  0999 V2000
   46.4630   35.0640   41.7640 C   0  0  1  0  0  0  0  0  0  0  0  0
   47.4570   35.5780   42.3120 O   0  0  0  0  0  0  0  0  0  0  0  0
   47.7650   34.4950   41.4120 C   0  0  2  0  0  0  0  0  0  0  0  0
   48.0680   34.6500   39.9170 C   0  0  0  0  0  0  0  0  0  0  0  0
   48.0820   33.3720   40.5590 C   0  0  1  0  0  0  0  0  0  0  0  0
   46.1910   35.8730   40.9450 H   0  0  0  0  0  0  0  0  0  0  0  0
   48.9640   35.2770   39.7450 H   0  0  0  0  0  0  0  0  0  0  0  0
   47.2630   34.9000   39.2030 H   0  0  0  0  0  0  0  0  0  0  0  0
   47.1750   32.7170   40.3910 H   0  0  0  0  0  0  0  0  0  0  0  0
   49.3550   32.7080   40.8140 N   0  0  0  0  0  0  0  0  0  0  0  0
   50.0810   32.9660   41.9180 C   0  0  0  0  0  3  0  0  0  0  0  0
   51.2540   32.2820   42.0440 C   0  0  0  0  0  3  0  0  0  0  0  0
   51.7160   31.3660   41.1230 C   0  0  0  0  0  0  0  0  0  0  0  0
   52.9480   30.6800   41.3070 N   0  0  0  0  0  0  0  0  0  0  0  0
   50.9420   31.1470   40.0310 N   0  0  0  0  0  0  0  0  0  0  0  0
   49.7860   31.8060   39.8850 C   0  0  0  0  0  0  0  0  0  0  0  0
   49.0920   31.5830   38.8650 O   0  0  0  0  0  0  0  0  0  0  0  0
   53.6860   30.6360   40.5450 H   0  0  0  0  0  0  0  0  0  0  0  0
   53.3280   30.1480   42.1270 H   0  0  0  0  0  0  0  0  0  0  0  0
   44.6920   34.2440   43.4500 C   0  0  1  0  0  0  0  0  0  0  0  0
   45.2010   35.2040   42.5140 C   0  0  2  0  0  0  0  0  0  0  0  0
   44.1700   34.2210   42.0980 C   0  0  0  0  0  0  0  0  0  0  0  0
   44.0240   34.6440   44.2720 H   0  0  0  0  0  0  0  0  0  0  0  0
   44.7810   36.2510   42.6060 H   0  0  0  0  0  0  0  0  0  0  0  0
   43.1180   34.5440   41.9060 H   0  0  0  0  0  0  0  0  0  0  0  0
   44.4170   33.3520   41.4330 H   0  0  0  0  0  0  0  0  0  0  0  0
   46.2310   33.4620   45.1750 C   0  0  0  0  0  0  0  0  0  0  0  0
   45.5870   33.2060   43.9720 C   0  0  0  0  0  0  0  0  0  0  0  0
   45.7510   31.9810   43.3360 C   0  0  0  0  0  0  0  0  0  0  0  0
   46.5590   31.0730   43.9550 N   0  0  0  0  0  0  0  0  0  0  0  0
   47.1850   31.3240   45.1300 C   0  0  0  0  0  0  0  0  0  0  0  0
   47.0090   32.5340   45.7310 N   0  0  0  0  0  0  0  0  0  0  0  0
   46.1150   34.4110   45.6820 H   0  0  0  0  0  0  0  0  0  0  0  0
   45.2650   31.7690   42.4110 H   0  0  0  0  0  0  0  0  0  0  0  0
   47.7740   30.4820   45.4540 H   0  0  0  0  0  0  0  0  0  0  0  0
  1  6  1  6  0  0  0
  1  2  1  0  0  0  0
  1 21  1  0  0  0  0
  3  1  1  0  0  0  0
  3  2  1  1  0  0  0
  4  5  1  0  0  0  0
  4  3  1  0  0  0  0
  5  9  1  6  0  0  0
  5 10  1  0  0  0  0
  5  3  1  0  0  0  0
  7  4  1  0  0  0  0
  8  4  1  0  0  0  0
 10 11  1  0  0  0  0
 11 12  2  0  0  0  0
 13 14  1  0  0  0  0
 13 12  1  0  0  0  0
 14 19  1  0  0  0  0
 15 13  2  0  0  0  0
 16 15  1  0  0  0  0
 16 10  1  0  0  0  0
 17 16  2  0  0  0  0
 18 14  1  0  0  0  0
 20 28  1  0  0  0  0
 20 23  1  1  0  0  0
 21 24  1  1  0  0  0
 21 20  1  0  0  0  0
 22 21  1  0  0  0  0
 22 20  1  0  0  0  0
 25 22  1  0  0  0  0
 26 22  1  0  0  0  0
 27 33  1  0  0  0  0
 27 32  1  0  0  0  0
 28 27  2  0  0  0  0
 29 30  2  0  0  0  0
 29 28  1  0  0  0  0
 30 31  1  0  0  0  0
 31 35  1  0  0  0  0
 31 32  2  0  0  0  0
 34 29  1  0  0  0  0
M  END
>  <minimizedAffinity>
-4.72818565

>  <minimizedRMSD>
4.67791414

$$$$
