
     RDKit          3D

 40 42  0  0  0  0  0  0  0  0999 V2000
   47.1436   33.5823   44.1280 C   0  0  0  0  0  0  0  0  0  0  0  0
   44.7524   36.2015   43.4435 C   0  0  1  0  0  0  0  0  0  0  0  0
   45.9306   35.4062   42.8800 C   0  0  0  0  0  0  0  0  0  0  0  0
   45.8031   34.1503   43.6683 C   0  0  2  0  0  0  0  0  0  0  0  0
   44.9217   34.3309   44.6890 O   0  0  0  0  0  0  0  0  0  0  0  0
   44.7173   35.6884   44.8626 C   0  0  0  0  0  0  0  0  0  0  0  0
   45.0235   37.5616   43.3718 O   0  0  0  0  0  0  0  0  0  0  0  0
   48.6532   32.1573   42.8448 C   0  0  0  0  0  0  0  0  0  0  0  0
   48.0352   33.3130   42.9868 C   0  0  0  0  0  0  0  0  0  0  0  0
   49.5214   31.9601   41.6901 C   0  0  0  0  0  0  0  0  0  0  0  0
   50.9056   31.8910   41.9256 C   0  0  0  0  0  0  0  0  0  0  0  0
   51.7667   31.7028   40.8428 C   0  0  0  0  0  0  0  0  0  0  0  0
   51.2226   31.5943   39.6021 N   0  0  0  0  0  0  0  0  0  0  0  0
   49.8938   31.6644   39.4084 C   0  0  0  0  0  0  0  0  0  0  0  0
   49.0683   31.8450   40.4482 N   0  0  0  0  0  0  0  0  0  0  0  0
   47.6289   34.2672   44.8473 H   0  0  0  0  0  0  0  0  0  0  0  0
   46.9049   32.6033   44.6061 H   0  0  0  0  0  0  0  0  0  0  0  0
   43.8150   35.9748   42.9255 H   0  0  0  0  0  0  0  0  0  0  0  0
   46.8403   35.9895   43.0827 H   0  0  0  0  0  0  0  0  0  0  0  0
   45.7388   35.2674   41.7763 H   0  0  0  0  0  0  0  0  0  0  0  0
   45.3591   33.3635   42.9914 H   0  0  0  0  0  0  0  0  0  0  0  0
   43.7481   35.8455   45.3701 H   0  0  0  0  0  0  0  0  0  0  0  0
   45.4864   36.1645   45.4901 H   0  0  0  0  0  0  0  0  0  0  0  0
   45.5454   37.9072   44.1372 H   0  0  0  0  0  0  0  0  0  0  0  0
   48.5591   31.3316   43.5370 H   0  0  0  0  0  0  0  0  0  0  0  0
   48.1689   34.1200   42.2484 H   0  0  0  0  0  0  0  0  0  0  0  0
   51.3156   31.9814   42.9333 H   0  0  0  0  0  0  0  0  0  0  0  0
   52.8221   31.6529   41.0453 H   0  0  0  0  0  0  0  0  0  0  0  0
   49.4118   31.5405   38.0743 N   0  0  0  0  0  0  0  0  0  0  0  0
   48.3964   30.7025   37.7948 C   0  0  0  0  0  0  0  0  0  0  0  0
   47.9639   30.6212   36.4669 C   0  0  0  0  0  0  0  0  0  0  0  0
   48.6266   31.4150   35.5664 C   0  0  0  0  0  0  0  0  0  0  0  0
   48.1754   31.3203   34.2248 N   0  0  0  0  0  0  0  0  0  0  0  0
   49.6424   32.2489   35.8660 N   0  0  0  0  0  0  0  0  0  0  0  0
   50.0454   32.3134   37.1522 C   0  0  0  0  0  0  0  0  0  0  0  0
   50.9894   33.0802   37.4665 O   0  0  0  0  0  0  0  0  0  0  0  0
   47.9195   30.1075   38.5462 H   0  0  0  0  0  0  0  0  0  0  0  0
   47.1493   29.9629   36.1813 H   0  0  0  0  0  0  0  0  0  0  0  0
   48.3686   31.2295   33.2170 H   0  0  0  0  0  0  0  0  0  0  0  0
   47.1680   31.3292   33.8867 H   0  0  0  0  0  0  0  0  0  0  0  0
  2  7  1  0
  2  6  1  0
  3  2  1  0
  3  4  1  0
  4  1  1  0
  4  5  1  0
  5  6  1  0
  8  9  2  0
  9  1  1  0
 10 11  2  0
 10  8  1  0
 12 11  1  0
 13 12  2  0
 14 13  1  0
 14 15  2  0
 15 10  1  0
  1 16  1  0
  1 17  1  0
  2 18  1  6
  3 19  1  0
  3 20  1  0
  4 21  1  6
  6 22  1  0
  6 23  1  0
  7 24  1  0
  8 25  1  0
  9 26  1  0
 11 27  1  0
 12 28  1  0
 29 30  1  0
 30 31  2  0
 31 32  1  0
 32 33  1  0
 32 34  2  0
 34 35  1  0
 35 36  2  0
 35 29  1  0
 30 37  1  0
 31 38  1  0
 33 39  1  0
 33 40  1  0
 14 29  1  0
M  ISO  8  16   8  17   8  18  13  19  13  20  13  21  13  22  13  23  13
M  ISO  3  24   3  27  14  28  14
M  END
>  <DihAtoms>  (1) 
12,13,28,29

>  <DihDeg>  (1) 
41.69550696845986

$$$$
