
 OpenBabel03252507073D

 25 26  0  0  0  0  0  0  0  0999 V2000
   44.5740   36.0150   44.5800 C   0  0  0  0  0  0  0  0  0  0  0  0
   45.0770   35.6590   43.3130 C   0  0  0  0  0  0  0  0  0  0  0  0
   45.7720   34.4670   43.2060 C   0  0  0  0  0  0  0  0  0  0  0  0
   45.9380   33.7000   44.3200 N   0  0  0  0  0  0  0  0  0  0  0  0
   45.4480   34.0660   45.5100 C   0  0  0  0  0  0  0  0  0  0  0  0
   44.7620   35.2250   45.6510 N   0  0  0  0  0  0  0  0  0  0  0  0
   44.0220   36.9140   44.7730 H   0  0  0  0  0  0  0  0  0  0  0  0
   44.8740   36.3610   42.5070 H   0  0  0  0  0  0  0  0  0  0  0  0
   45.7150   33.1430   46.5610 N   0  0  0  0  0  0  0  0  0  0  0  0
   44.7140   32.9350   47.4360 C   0  0  0  0  0  3  0  0  0  0  0  0
   44.9740   32.0420   48.4540 C   0  0  0  0  0  3  0  0  0  0  0  0
   46.2190   31.4470   48.4870 C   0  0  0  0  0  0  0  0  0  0  0  0
   46.5990   30.5110   49.4880 N   0  0  0  0  0  0  0  0  0  0  0  0
   47.1880   31.7040   47.5680 N   0  0  0  0  0  0  0  0  0  0  0  0
   46.9370   32.5830   46.5640 C   0  0  0  0  0  0  0  0  0  0  0  0
   47.7820   32.8700   45.6780 O   0  0  0  0  0  0  0  0  0  0  0  0
   47.2110   31.0590   50.1340 H   0  0  0  0  0  0  0  0  0  0  0  0
   46.5810   29.5560   49.9110 H   0  0  0  0  0  0  0  0  0  0  0  0
   46.2560   34.1410   41.9420 O   0  0  0  0  0  0  0  0  0  0  0  0
   48.2400   32.4720   41.3950 O   0  0  0  0  0  0  0  0  0  0  0  0
   47.9450   33.9330   41.7290 P   0  0  0  0  0  0  0  0  0  0  0  0
   48.4560   34.9630   40.5130 O   0  0  0  0  0  0  0  0  0  0  0  0
   48.7490   35.8180   40.8920 H   0  0  0  0  0  0  0  0  0  0  0  0
   48.6910   34.2770   43.2100 O   0  0  0  0  0  0  0  0  0  0  0  0
   48.5730   33.4470   43.7620 H   0  0  0  0  0  0  0  0  0  0  0  0
  1  7  1  0  0  0  0
  1  6  1  0  0  0  0
  2  1  2  0  0  0  0
  3  2  1  0  0  0  0
  3  4  2  0  0  0  0
  4  5  1  0  0  0  0
  5  6  2  0  0  0  0
  5  9  1  0  0  0  0
  8  2  1  0  0  0  0
  9 15  1  0  0  0  0
  9 10  1  0  0  0  0
 10 11  2  0  0  0  0
 11 12  1  0  0  0  0
 12 13  1  0  0  0  0
 13 18  1  0  0  0  0
 13 17  1  0  0  0  0
 14 12  2  0  0  0  0
 15 14  1  0  0  0  0
 16 15  2  0  0  0  0
 19  3  1  0  0  0  0
 20 21  2  0  0  0  0
 21 19  1  0  0  0  0
 21 24  1  0  0  0  0
 22 23  1  0  0  0  0
 22 21  1  0  0  0  0
 24 25  1  0  0  0  0
M  END
>  <minimizedAffinity>
-4.83019495

>  <minimizedRMSD>
0.850454688

$$$$
