
 OpenBabel03242511083D

 44 48  0  0  1  0  0  0  0  0999 V2000
   46.6620   32.2220   43.4650 C   0  0  0  0  0  0  0  0  0  0  0  0
   46.7790   31.5070   44.6490 C   0  0  0  0  0  0  0  0  0  0  0  0
   46.3440   31.9930   45.8820 C   0  0  0  0  0  0  0  0  0  0  0  0
   45.7640   33.2410   45.9550 C   0  0  0  0  0  0  0  0  0  0  0  0
   45.6320   33.9680   44.8220 C   0  0  0  0  0  0  0  0  0  0  0  0
   45.0510   35.2190   44.8610 C   0  0  0  0  0  0  0  0  0  0  0  0
   44.8820   36.0040   43.7510 C   0  0  0  0  0  0  0  0  0  0  0  0
   45.3310   35.4810   42.5430 C   0  0  0  0  0  0  0  0  0  0  0  0
   45.9150   34.2210   42.5070 C   0  0  0  0  0  0  0  0  0  0  0  0
   46.0770   33.4500   43.6170 C   0  0  0  0  0  0  0  0  0  0  0  0
   47.2140   30.5200   44.7090 H   0  0  0  0  0  0  0  0  0  0  0  0
   46.4440   31.4230   46.7940 H   0  0  0  0  0  0  0  0  0  0  0  0
   45.4250   33.6200   46.9120 H   0  0  0  0  0  0  0  0  0  0  0  0
   44.7220   35.5720   45.8260 H   0  0  0  0  0  0  0  0  0  0  0  0
   44.4110   36.9730   43.9030 H   0  0  0  0  0  0  0  0  0  0  0  0
   45.1530   36.1770   41.7230 H   0  0  0  0  0  0  0  0  0  0  0  0
   46.2660   33.9570   41.1630 N   0  0  0  0  0  0  0  0  0  0  0  0
   45.7470   33.2960   40.1160 C   0  0  0  0  0  3  0  0  0  0  0  0
   46.3430   33.2640   38.8800 C   0  0  0  0  0  3  0  0  0  0  0  0
   47.5310   33.9180   38.6370 C   0  0  0  0  0  0  0  0  0  0  0  0
   48.0290   33.7980   37.3170 N   0  0  0  0  0  0  0  0  0  0  0  0
   48.1000   34.6010   39.6560 N   0  0  0  0  0  0  0  0  0  0  0  0
   47.4490   34.5880   40.8560 C   0  0  0  0  0  0  0  0  0  0  0  0
   48.1520   35.2880   41.6690 O   0  0  0  0  0  0  0  0  0  0  0  0
   47.3540   34.0410   36.5550 H   0  0  0  0  0  0  0  0  0  0  0  0
   49.0150   33.4740   37.3970 H   0  0  0  0  0  0  0  0  0  0  0  0
   47.1320   31.6400   42.2810 N   0  0  0  0  0  0  0  0  0  0  0  0
   46.1960   31.6510   41.8440 H   0  0  0  0  0  0  0  0  0  0  0  0
   49.3770   30.9630   43.2420 C   0  0  1  0  0  0  0  0  0  0  0  0
   49.5730   32.2700   42.5010 C   0  0  0  0  0  0  0  0  0  0  0  0
   48.5060   31.2550   42.1130 C   0  0  2  0  0  0  0  0  0  0  0  0
   49.1370   31.1780   44.3130 H   0  0  0  0  0  0  0  0  0  0  0  0
   50.4680   32.2620   41.8260 H   0  0  0  0  0  0  0  0  0  0  0  0
   49.2100   33.2160   42.8980 H   0  0  0  0  0  0  0  0  0  0  0  0
   48.6620   30.6240   41.2060 H   0  0  0  0  0  0  0  0  0  0  0  0
   51.4610   28.2020   41.9210 C   0  0  0  0  0  0  0  0  0  0  0  0
   52.3700   27.9860   43.0020 C   0  0  0  0  0  0  0  0  0  0  0  0
   52.2460   28.8060   44.1540 C   0  0  0  0  0  0  0  0  0  0  0  0
   51.2940   29.7420   44.1830 N   0  0  0  0  0  0  0  0  0  0  0  0
   50.4450   29.9230   43.1400 C   0  0  0  0  0  0  0  0  0  0  0  0
   50.5260   29.1540   42.0050 N   0  0  0  0  0  0  0  0  0  0  0  0
   51.5600   27.5740   41.0460 H   0  0  0  0  0  0  0  0  0  0  0  0
   53.1020   27.2090   42.8830 H   0  0  0  0  0  0  0  0  0  0  0  0
   52.9380   28.6290   44.9550 H   0  0  0  0  0  0  0  0  0  0  0  0
  1 10  2  0  0  0  0
  1  2  1  0  0  0  0
  2 11  1  0  0  0  0
  2  3  2  0  0  0  0
  3  4  1  0  0  0  0
  3 12  1  0  0  0  0
  4 13  1  0  0  0  0
  5  6  1  0  0  0  0
  5  4  2  0  0  0  0
  6 14  1  0  0  0  0
  7 15  1  0  0  0  0
  7  6  2  0  0  0  0
  8  7  1  0  0  0  0
  9  8  2  0  0  0  0
  9 10  1  0  0  0  0
 10  5  1  0  0  0  0
 16  8  1  0  0  0  0
 17  9  1  0  0  0  0
 18 17  1  0  0  0  0
 19 18  2  0  0  0  0
 20 19  1  0  0  0  0
 20 22  2  0  0  0  0
 21 26  1  0  0  0  0
 21 20  1  0  0  0  0
 22 23  1  0  0  0  0
 23 17  1  0  0  0  0
 23 24  2  0  0  0  0
 25 21  1  0  0  0  0
 27  1  1  0  0  0  0
 28 27  1  0  0  0  0
 29 32  1  1  0  0  0
 30 34  1  0  0  0  0
 30 29  1  0  0  0  0
 31 35  1  6  0  0  0
 31 27  1  0  0  0  0
 31 30  1  0  0  0  0
 31 29  1  0  0  0  0
 33 30  1  0  0  0  0
 36 41  2  0  0  0  0
 36 37  1  0  0  0  0
 37 38  2  0  0  0  0
 38 39  1  0  0  0  0
 38 44  1  0  0  0  0
 40 29  1  0  0  0  0
 40 39  2  0  0  0  0
 41 40  1  0  0  0  0
 42 36  1  0  0  0  0
 43 37  1  0  0  0  0
M  END
>  <minimizedAffinity>
-5.19940853

>  <minimizedRMSD>
1.69674289

$$$$
