
 OpenBabel03252506283D

 48 52  0  0  0  0  0  0  0  0999 V2000
   46.3520   32.8420   46.0970 C   0  0  0  0  0  0  0  0  0  0  0  0
   47.3990   31.9130   45.8640 C   0  0  0  0  0  0  0  0  0  0  0  0
   47.4950   31.1010   46.9370 C   0  0  0  0  0  0  0  0  0  0  0  0
   46.5560   31.5010   47.8000 N   0  0  0  0  0  0  0  0  0  0  0  0
   45.8710   32.5390   47.3040 N   0  0  0  0  0  0  0  0  0  0  0  0
   47.9990   31.8980   44.9510 H   0  0  0  0  0  0  0  0  0  0  0  0
   48.1940   30.2850   47.0780 H   0  0  0  0  0  0  0  0  0  0  0  0
   44.6000   35.6890   44.6440 C   0  0  0  0  0  0  0  0  0  0  0  0
   45.1840   35.8440   43.3990 C   0  0  0  0  0  0  0  0  0  0  0  0
   46.1970   34.9510   43.0630 C   0  0  0  0  0  0  0  0  0  0  0  0
   46.5430   33.9950   43.9640 N   0  0  0  0  0  0  0  0  0  0  0  0
   45.9650   33.8690   45.1520 C   0  0  0  0  0  0  0  0  0  0  0  0
   44.9830   34.7290   45.4890 N   0  0  0  0  0  0  0  0  0  0  0  0
   43.8180   36.4130   44.8450 H   0  0  0  0  0  0  0  0  0  0  0  0
   44.9800   36.5590   42.6310 H   0  0  0  0  0  0  0  0  0  0  0  0
   46.9630   34.8890   41.8490 N   0  0  0  0  0  0  0  0  0  0  0  0
   48.1610   35.4710   41.6640 C   0  0  0  0  0  3  0  0  0  0  0  0
   48.8070   35.3370   40.4360 C   0  0  0  0  0  3  0  0  0  0  0  0
   48.1680   34.6020   39.4590 C   0  0  0  0  0  0  0  0  0  0  0  0
   48.8390   34.4740   38.2060 N   0  0  0  0  0  0  0  0  0  0  0  0
   46.9680   34.0380   39.6880 N   0  0  0  0  0  0  0  0  0  0  0  0
   46.3420   34.1730   40.8940 C   0  0  0  0  0  0  0  0  0  0  0  0
   45.2230   33.6120   41.0210 O   0  0  0  0  0  0  0  0  0  0  0  0
   48.8030   34.8410   37.2160 H   0  0  0  0  0  0  0  0  0  0  0  0
   49.6200   33.7740   38.3610 H   0  0  0  0  0  0  0  0  0  0  0  0
   46.2980   30.9050   49.1020 C   0  0  0  0  0  0  0  0  0  0  0  0
   47.0700   30.1800   49.3530 H   0  0  0  0  0  0  0  0  0  0  0  0
   46.2860   31.6960   49.8950 H   0  0  0  0  0  0  0  0  0  0  0  0
   44.9560   30.2520   49.1160 C   0  0  0  0  0  0  0  0  0  0  0  0
   44.2020   31.0320   48.8800 H   0  0  0  0  0  0  0  0  0  0  0  0
   44.7380   29.9460   50.1810 H   0  0  0  0  0  0  0  0  0  0  0  0
   44.9540   27.7390   48.6110 C   0  0  0  0  0  0  0  0  0  0  0  0
   44.7870   29.0730   48.2910 C   0  0  0  0  0  0  0  0  0  0  0  0
   44.3990   29.3400   46.9750 C   0  0  0  0  0  0  0  0  0  0  0  0
   44.1960   28.3420   46.0650 C   0  0  0  0  0  0  0  0  0  0  0  0
   43.8280   28.2950   44.7640 N   0  0  0  0  0  0  0  0  0  0  0  0
   43.7730   27.0390   44.3200 C   0  0  0  0  0  0  0  0  0  0  0  0
   44.1140   26.1840   45.3510 C   0  0  0  0  0  0  0  0  0  0  0  0
   44.3660   27.0200   46.4010 C   0  0  0  0  0  0  0  0  0  0  0  0
   44.7480   26.7410   47.6910 C   0  0  0  0  0  0  0  0  0  0  0  0
   45.2560   27.5770   49.6400 H   0  0  0  0  0  0  0  0  0  0  0  0
   44.2330   30.3430   46.5910 H   0  0  0  0  0  0  0  0  0  0  0  0
   43.6190   29.1500   44.1970 H   0  0  0  0  0  0  0  0  0  0  0  0
   43.4970   26.7820   43.2980 H   0  0  0  0  0  0  0  0  0  0  0  0
   44.1450   25.1080   45.2470 H   0  0  0  0  0  0  0  0  0  0  0  0
   44.9450   25.3550   48.1070 C   0  0  0  0  0  0  0  0  0  0  0  0
   45.3050   25.0690   49.2830 O   0  0  0  0  0  0  0  0  0  0  0  0
   44.7900   24.5230   47.4270 H   0  0  0  0  0  0  0  0  0  0  0  0
  1  5  2  0  0  0  0
  2  1  1  0  0  0  0
  2  3  2  0  0  0  0
  3  7  1  0  0  0  0
  3  4  1  0  0  0  0
  4 26  1  0  0  0  0
  5  4  1  0  0  0  0
  6  2  1  0  0  0  0
  8 14  1  0  0  0  0
  8 13  1  0  0  0  0
  9  8  2  0  0  0  0
 10  9  1  0  0  0  0
 10 11  2  0  0  0  0
 11 12  1  0  0  0  0
 12 13  2  0  0  0  0
 12  1  1  0  0  0  0
 15  9  1  0  0  0  0
 16 10  1  0  0  0  0
 17 16  1  0  0  0  0
 18 17  2  0  0  0  0
 19 21  2  0  0  0  0
 19 18  1  0  0  0  0
 20 25  1  0  0  0  0
 20 19  1  0  0  0  0
 21 22  1  0  0  0  0
 22 23  2  0  0  0  0
 22 16  1  0  0  0  0
 24 20  1  0  0  0  0
 26 29  1  0  0  0  0
 26 27  1  0  0  0  0
 26 28  1  0  0  0  0
 29 31  1  0  0  0  0
 30 29  1  0  0  0  0
 32 41  1  0  0  0  0
 33 32  1  0  0  0  0
 33 29  1  0  0  0  0
 34 33  2  0  0  0  0
 35 39  2  0  0  0  0
 35 34  1  0  0  0  0
 36 35  1  0  0  0  0
 37 36  1  0  0  0  0
 37 38  2  0  0  0  0
 38 39  1  0  0  0  0
 39 40  1  0  0  0  0
 40 46  1  0  0  0  0
 40 32  2  0  0  0  0
 42 34  1  0  0  0  0
 43 36  1  0  0  0  0
 44 37  1  0  0  0  0
 45 38  1  0  0  0  0
 46 47  2  0  0  0  0
 48 46  1  0  0  0  0
M  END
>  <minimizedAffinity>
-6.54918337

>  <minimizedRMSD>
1.03727043

$$$$
