REMARK  Name = 
REMARK  6 active torsions:
REMARK  status: ('A' for Active; 'I' for Inactive)
REMARK    1  A    between atoms: C_1  and  C_3
REMARK    2  A    between atoms: C_1  and  C_13
REMARK    3  A    between atoms: C_10  and  C_11
REMARK    4  A    between atoms: C_13  and  N_17
REMARK    5  A    between atoms: C_14  and  C_23
REMARK    6  A    between atoms: C_21  and  N_39
REMARK                            x       y       z     vdW  Elec       q    Type
REMARK                         _______ _______ _______ _____ _____    ______ ____
ROOT
ATOM      1  C   UNL     1      46.507  32.718  45.298  0.00  0.00    +0.000 A 
ATOM      2  C   UNL     1      47.256  31.719  44.623  0.00  0.00    +0.000 A 
ATOM      3  C   UNL     1      47.573  30.752  45.509  0.00  0.00    +0.000 A 
ATOM      4  N   UNL     1      47.050  31.126  46.681  0.00  0.00    +0.000 N 
ATOM      5  N   UNL     1      46.413  32.298  46.561  0.00  0.00    +0.000 NA
ATOM      6  H   UNL     1      47.508  31.769  43.561  0.00  0.00    +0.000 HD
ATOM      7  H   UNL     1      48.140  29.850  45.315  0.00  0.00    +0.000 HD
ENDROOT
BRANCH   1  12
ATOM      8  C   UNL     1      44.572  35.754  44.730  0.00  0.00    +0.000 A 
ATOM      9  C   UNL     1      44.985  36.188  43.483  0.00  0.00    +0.000 A 
ATOM     10  C   UNL     1      45.946  35.419  42.834  0.00  0.00    +0.000 A 
ATOM     11  N   UNL     1      46.411  34.304  43.456  0.00  0.00    +0.000 NA
ATOM     12  C   UNL     1      45.996  33.910  44.654  0.00  0.00    +0.000 A 
ATOM     13  N   UNL     1      45.066  34.648  45.292  0.00  0.00    +0.000 NA
ATOM     14  H   UNL     1      43.823  36.395  45.182  0.00  0.00    +0.000 HD
ATOM     15  H   UNL     1      44.680  37.044  42.919  0.00  0.00    +0.000 HD
BRANCH  10  16
ATOM     16  N   UNL     1      46.544  35.640  41.547  0.00  0.00    +0.000 N 
ATOM     17  C   UNL     1      46.824  36.848  41.025  0.00  0.00    +0.000 A 
ATOM     18  C   UNL     1      47.406  36.931  39.761  0.00  0.00    +0.000 A 
ATOM     19  C   UNL     1      47.668  35.747  39.103  0.00  0.00    +0.000 A 
ATOM     20  N   UNL     1      48.264  35.846  37.810  0.00  0.00    +0.000 N 
ATOM     21  N   UNL     1      47.371  34.561  39.664  0.00  0.00    +0.000 NA
ATOM     22  C   UNL     1      46.800  34.487  40.902  0.00  0.00    +0.000 A 
ATOM     23  O   UNL     1      46.556  33.337  41.350  0.00  0.00    +0.000 OA
ATOM     24  H   UNL     1      48.020  35.752  36.786  0.00  0.00    +0.000 HD
ATOM     25  H   UNL     1      49.281  36.095  37.973  0.00  0.00    +0.000 HD
ENDBRANCH  10  16
ENDBRANCH   1  12
BRANCH   4  26
ATOM     26  C   UNL     1      47.148  30.379  47.925  0.00  0.00    +0.000 C 
ATOM     27  H   UNL     1      47.725  29.467  47.782  0.00  0.00    +0.000 HD
ATOM     28  H   UNL     1      47.655  30.997  48.710  0.00  0.00    +0.000 HD
BRANCH  26  29
ATOM     29  C   UNL     1      45.787  30.050  48.441  0.00  0.00    +0.000 C 
ATOM     30  H   UNL     1      45.208  30.996  48.485  0.00  0.00    +0.000 HD
ATOM     31  H   UNL     1      45.900  29.725  49.516  0.00  0.00    +0.000 HD
BRANCH  29  33
ATOM     32  C   UNL     1      45.006  27.646  48.011  0.00  0.00    +0.000 A 
ATOM     33  C   UNL     1      45.057  29.003  47.754  0.00  0.00    +0.000 A 
ATOM     34  C   UNL     1      44.294  29.447  46.670  0.00  0.00    +0.000 A 
ATOM     35  C   UNL     1      43.546  28.590  45.915  0.00  0.00    +0.000 A 
ATOM     36  N   UNL     1      42.733  28.723  44.842  0.00  0.00    +0.000 N 
ATOM     37  C   UNL     1      42.224  27.548  44.469  0.00  0.00    +0.000 A 
ATOM     38  C   UNL     1      42.702  26.565  45.315  0.00  0.00    +0.000 A 
ATOM     39  C   UNL     1      43.507  27.243  46.185  0.00  0.00    +0.000 A 
ATOM     40  C   UNL     1      44.252  26.791  47.248  0.00  0.00    +0.000 A 
ATOM     41  H   UNL     1      45.612  27.345  48.859  0.00  0.00    +0.000 HD
ATOM     42  H   UNL     1      44.244  30.487  46.359  0.00  0.00    +0.000 HD
ATOM     43  H   UNL     1      42.542  29.642  44.378  0.00  0.00    +0.000 HD
ATOM     44  H   UNL     1      41.545  27.436  43.625  0.00  0.00    +0.000 HD
ATOM     45  H   UNL     1      42.437  25.520  45.224  0.00  0.00    +0.000 HD
BRANCH  40  46
ATOM     46  C   UNL     1      44.251  25.370  47.583  0.00  0.00    +0.000 C 
ATOM     47  O   UNL     1      44.919  24.927  48.559  0.00  0.00    +0.000 OA
ATOM     48  H   UNL     1      43.680  24.644  47.012  0.00  0.00    +0.000 HD
ENDBRANCH  40  46
ENDBRANCH  29  33
ENDBRANCH  26  29
ENDBRANCH   4  26
TORSDOF 6
