
 OpenBabel03252508253D

 42 46  0  0  1  0  0  0  0  0999 V2000
   47.6660   32.3600   42.8600 C   0  0  1  0  0  0  0  0  0  0  0  0
   46.5140   31.4640   42.6770 C   0  0  0  0  0  0  0  0  0  0  0  0
   47.1160   31.8320   44.0880 C   0  0  2  0  0  0  0  0  0  0  0  0
   47.3600   33.3410   42.3470 H   0  0  0  0  0  0  0  0  0  0  0  0
   45.4670   31.8060   42.6190 H   0  0  0  0  0  0  0  0  0  0  0  0
   46.6240   30.4120   42.3780 H   0  0  0  0  0  0  0  0  0  0  0  0
   47.4040   30.8170   44.5240 H   0  0  0  0  0  0  0  0  0  0  0  0
   46.2970   32.5740   45.0520 C   0  0  0  0  0  0  0  0  0  0  0  0
   45.6740   33.7660   44.8710 C   0  0  0  0  0  0  0  0  0  0  0  0
   44.9990   34.4800   45.8430 C   0  0  0  0  0  0  0  0  0  0  0  0
   44.9620   33.9130   47.1270 C   0  0  0  0  0  0  0  0  0  0  0  0
   45.5920   32.6870   47.3410 C   0  0  0  0  0  0  0  0  0  0  0  0
   45.4800   32.1360   48.6030 C   0  0  0  0  0  0  0  0  0  0  0  0
   46.0300   30.8870   48.8460 C   0  0  0  0  0  0  0  0  0  0  0  0
   46.6790   30.1980   47.8430 C   0  0  0  0  0  0  0  0  0  0  0  0
   46.7630   30.7940   46.6070 C   0  0  0  0  0  0  0  0  0  0  0  0
   46.2400   32.0400   46.3150 C   0  0  0  0  0  0  0  0  0  0  0  0
   45.7310   34.1660   43.8600 H   0  0  0  0  0  0  0  0  0  0  0  0
   44.5200   35.4270   45.6320 H   0  0  0  0  0  0  0  0  0  0  0  0
   44.4470   34.4370   47.9220 H   0  0  0  0  0  0  0  0  0  0  0  0
   44.9630   32.6950   49.3730 H   0  0  0  0  0  0  0  0  0  0  0  0
   45.8840   30.5470   49.8830 H   0  0  0  0  0  0  0  0  0  0  0  0
   47.0330   29.2520   48.2170 H   0  0  0  0  0  0  0  0  0  0  0  0
   47.2130   30.0560   46.0090 H   0  0  0  0  0  0  0  0  0  0  0  0
   50.7860   32.0940   40.9030 C   0  0  0  0  0  0  0  0  0  0  0  0
   51.5360   31.1290   41.6570 C   0  0  0  0  0  0  0  0  0  0  0  0
   50.9390   30.6000   42.8460 C   0  0  0  0  0  0  0  0  0  0  0  0
   49.7070   31.0210   43.2130 N   0  0  0  0  0  0  0  0  0  0  0  0
   49.0410   31.9500   42.4390 C   0  0  0  0  0  0  0  0  0  0  0  0
   49.5650   32.4650   41.3300 N   0  0  0  0  0  0  0  0  0  0  0  0
   51.2010   32.5080   40.0120 H   0  0  0  0  0  0  0  0  0  0  0  0
   52.5140   30.8290   41.3190 H   0  0  0  0  0  0  0  0  0  0  0  0
   51.6700   29.6440   43.6030 N   0  0  0  0  0  0  0  0  0  0  0  0
   52.5830   29.9770   44.5050 C   0  0  0  0  0  3  0  0  0  0  0  0
   53.2350   28.9670   45.1850 C   0  0  0  0  0  3  0  0  0  0  0  0
   52.9460   27.6320   44.9350 C   0  0  0  0  0  0  0  0  0  0  0  0
   53.5440   26.5120   45.5650 N   0  0  0  0  0  0  0  0  0  0  0  0
   52.0110   27.3440   44.0100 N   0  0  0  0  0  0  0  0  0  0  0  0
   51.3830   28.3370   43.3540 C   0  0  0  0  0  0  0  0  0  0  0  0
   50.5150   28.0300   42.4960 O   0  0  0  0  0  0  0  0  0  0  0  0
   53.3470   25.9230   46.4130 H   0  0  0  0  0  0  0  0  0  0  0  0
   54.3830   26.2960   44.9600 H   0  0  0  0  0  0  0  0  0  0  0  0
  1  4  1  6  0  0  0
  1  3  1  0  0  0  0
  2  1  1  0  0  0  0
  2  3  1  0  0  0  0
  3  7  1  1  0  0  0
  3  8  1  0  0  0  0
  5  2  1  0  0  0  0
  6  2  1  0  0  0  0
  8 17  1  0  0  0  0
  9  8  2  0  0  0  0
  9 10  1  0  0  0  0
 10 11  2  0  0  0  0
 11 12  1  0  0  0  0
 11 20  1  0  0  0  0
 12 13  1  0  0  0  0
 13 14  2  0  0  0  0
 13 21  1  0  0  0  0
 14 22  1  0  0  0  0
 15 23  1  0  0  0  0
 15 14  1  0  0  0  0
 16 15  2  0  0  0  0
 17 16  1  0  0  0  0
 17 12  2  0  0  0  0
 18  9  1  0  0  0  0
 19 10  1  0  0  0  0
 24 16  1  0  0  0  0
 25 30  2  0  0  0  0
 25 26  1  0  0  0  0
 26 27  2  0  0  0  0
 27 28  1  0  0  0  0
 27 33  1  0  0  0  0
 29  1  1  0  0  0  0
 29 28  2  0  0  0  0
 30 29  1  0  0  0  0
 31 25  1  0  0  0  0
 32 26  1  0  0  0  0
 33 34  1  0  0  0  0
 34 35  2  0  0  0  0
 36 35  1  0  0  0  0
 36 37  1  0  0  0  0
 37 41  1  0  0  0  0
 38 36  2  0  0  0  0
 39 33  1  0  0  0  0
 39 38  1  0  0  0  0
 40 39  2  0  0  0  0
 42 37  1  0  0  0  0
M  END
>  <minimizedAffinity>
-4.4723177

>  <minimizedRMSD>
7.09038258

$$$$
