
     RDKit          3D

 39 42  0  0  0  0  0  0  0  0999 V2000
   46.2690   32.1204   44.4350 C   0  0  1  0  0  0  0  0  0  0  0  0
   46.5781   31.5061   43.1966 C   0  0  0  0  0  0  0  0  0  0  0  0
   47.7053   32.1450   44.0270 C   0  0  1  0  0  0  0  0  0  0  0  0
   45.0277   34.0314   43.2070 C   0  0  0  0  0  0  0  0  0  0  0  0
   45.5298   33.4615   44.4049 C   0  0  0  0  0  0  0  0  0  0  0  0
   45.3503   34.1647   45.5702 C   0  0  0  0  0  0  0  0  0  0  0  0
   44.7108   35.3574   45.5296 N   0  0  0  0  0  0  0  0  0  0  0  0
   44.2364   35.8941   44.3872 C   0  0  0  0  0  0  0  0  0  0  0  0
   44.4026   35.2031   43.1830 N   0  0  0  0  0  0  0  0  0  0  0  0
   48.1876   33.3864   43.5092 N   0  0  0  0  0  0  0  0  0  0  0  0
   49.2443   33.4805   42.6196 C   0  0  0  0  0  0  0  0  0  0  0  0
   50.3679   32.9094   42.6248 O   0  0  0  0  0  0  0  0  0  0  0  0
   49.1274   34.3856   41.4019 C   0  0  2  0  0  0  0  0  0  0  0  0
   49.1260   35.9226   41.6778 C   0  0  0  0  0  0  0  0  0  0  0  0
   47.9288   35.1718   41.1463 C   0  0  1  0  0  0  0  0  0  0  0  0
   46.0663   31.5256   45.3556 H   0  0  0  0  0  0  0  0  0  0  0  0
   46.5371   30.3903   43.1210 H   0  0  0  0  0  0  0  0  0  0  0  0
   46.4387   31.9649   42.2024 H   0  0  0  0  0  0  0  0  0  0  0  0
   48.4287   31.3548   44.2817 H   0  0  0  0  0  0  0  0  0  0  0  0
   45.1560   33.4968   42.2885 H   0  0  0  0  0  0  0  0  0  0  0  0
   45.7398   33.7129   46.4721 H   0  0  0  0  0  0  0  0  0  0  0  0
   43.7718   36.8336   44.5889 H   0  0  0  0  0  0  0  0  0  0  0  0
   47.7372   34.2886   43.8006 H   0  0  0  0  0  0  0  0  0  0  0  0
   49.8764   34.1966   40.5897 H   0  0  0  0  0  0  0  0  0  0  0  0
   49.1999   36.2541   42.7066 H   0  0  0  0  0  0  0  0  0  0  0  0
   49.6241   36.5789   40.9431 H   0  0  0  0  0  0  0  0  0  0  0  0
   47.0834   35.3577   41.7784 H   0  0  0  0  0  0  0  0  0  0  0  0
   47.5889   35.3463   39.7261 N   0  0  0  0  0  0  0  0  0  0  0  0
   46.6144   34.7038   39.0686 C   0  0  0  0  0  0  0  0  0  0  0  0
   46.4044   34.9672   37.7260 C   0  0  0  0  0  0  0  0  0  0  0  0
   47.1974   35.8899   37.0664 C   0  0  0  0  0  0  0  0  0  0  0  0
   47.0184   36.1973   35.6744 N   0  0  0  0  0  0  0  0  0  0  0  0
   48.1821   36.5286   37.7623 N   0  0  0  0  0  0  0  0  0  0  0  0
   48.3727   36.2545   39.0855 C   0  0  0  0  0  0  0  0  0  0  0  0
   49.3176   36.9163   39.6070 O   0  0  0  0  0  0  0  0  0  0  0  0
   46.0405   34.0058   39.6362 H   0  0  0  0  0  0  0  0  0  0  0  0
   45.6292   34.4590   37.1945 H   0  0  0  0  0  0  0  0  0  0  0  0
   47.4638   35.6818   34.8836 H   0  0  0  0  0  0  0  0  0  0  0  0
   46.3656   37.0277   35.5583 H   0  0  0  0  0  0  0  0  0  0  0  0
  2  3  1  0
  2  1  1  0
  3  1  1  0
  4  5  2  0
  5  1  1  0
  5  6  1  0
  7  6  2  0
  8  7  1  0
  9  4  1  0
  9  8  2  0
 10  3  1  0
 11 10  1  0
 12 11  2  0
 13 14  1  0
 13 11  1  0
 15 13  1  0
 15 14  1  0
  1 16  1  1
  2 17  1  0
  2 18  1  0
  3 19  1  1
  4 20  1  0
  6 21  1  0
  8 22  1  0
 10 23  1  0
 13 24  1  6
 14 25  1  0
 14 26  1  0
 15 27  1  1
 28 29  1  0
 29 30  2  0
 30 31  1  0
 31 32  1  0
 31 33  2  0
 33 34  1  0
 34 35  2  0
 34 28  1  0
 29 36  1  0
 30 37  1  0
 32 38  1  0
 32 39  1  0
 15 28  1  0
M  ISO  8  16  13  17  13  18  13  19  13  20  14  21  14  22  14  24  13
M  ISO  3  25  13  26  13  27  13
M  END
>  <DihAtoms>  (1) 
12,14,27,28

>  <DihDeg>  (1) 
-105.9773703066399

$$$$
