REMARK  Name = 
REMARK  3 active torsions:
REMARK  status: ('A' for Active; 'I' for Inactive)
REMARK    1  A    between atoms: C_3  and  C_12
REMARK    2  A    between atoms: C_7  and  N_14
REMARK    3  A    between atoms: C_19  and  N_34
REMARK                            x       y       z     vdW  Elec       q    Type
REMARK                         _______ _______ _______ _____ _____    ______ ____
ROOT
ATOM      1  N   UNL     1      46.549  32.952  38.648  0.00  0.00    +0.000 N 
ATOM      2  C   UNL     1      45.626  33.301  37.589  0.00  0.00    +0.000 C 
ATOM      3  C   UNL     1      44.787  32.112  37.171  0.00  0.00    +0.000 C 
ATOM      4  N   UNL     1      45.597  31.049  36.599  0.00  0.00    +0.000 NA
ATOM      5  C   UNL     1      46.988  31.282  37.011  0.00  0.00    +0.000 C 
ATOM      6  C   UNL     1      47.003  31.576  38.493  0.00  0.00    +0.000 C 
ATOM      7  H   UNL     1      44.894  34.012  38.063  0.00  0.00    +0.000 HD
ATOM      8  H   UNL     1      46.077  33.780  36.720  0.00  0.00    +0.000 HD
ATOM      9  H   UNL     1      44.310  31.672  38.093  0.00  0.00    +0.000 HD
ATOM     10  H   UNL     1      44.038  32.464  36.462  0.00  0.00    +0.000 HD
ATOM     11  H   UNL     1      45.604  31.120  35.551  0.00  0.00    +0.000 HD
ATOM     12  H   UNL     1      47.659  30.467  36.743  0.00  0.00    +0.000 HD
ATOM     13  H   UNL     1      47.299  32.172  36.422  0.00  0.00    +0.000 HD
ATOM     14  H   UNL     1      46.166  30.958  38.922  0.00  0.00    +0.000 HD
ENDROOT
BRANCH   1  21
ATOM     15 BR   UNL     1      44.707  32.997  41.173  0.00  0.00    +0.000 Br
ATOM     16  C   UNL     1      46.349  33.915  40.912  0.00  0.00    +0.000 A 
ATOM     17  C   UNL     1      46.867  34.722  41.904  0.00  0.00    +0.000 A 
ATOM     18  C   UNL     1      48.074  35.406  41.733  0.00  0.00    +0.000 A 
ATOM     19  C   UNL     1      48.741  35.257  40.541  0.00  0.00    +0.000 A 
ATOM     20  C   UNL     1      48.191  34.440  39.573  0.00  0.00    +0.000 A 
ATOM     21  C   UNL     1      47.010  33.764  39.727  0.00  0.00    +0.000 A 
ATOM     22  H   UNL     1      48.439  36.028  42.541  0.00  0.00    +0.000 HD
ATOM     23  H   UNL     1      49.672  35.782  40.404  0.00  0.00    +0.000 HD
ATOM     24  H   UNL     1      48.784  34.382  38.667  0.00  0.00    +0.000 HD
BRANCH  17  29
ATOM     25  C   UNL     1      45.620  34.057  45.278  0.00  0.00    +0.000 A 
ATOM     26  C   UNL     1      44.706  35.105  45.515  0.00  0.00    +0.000 A 
ATOM     27  C   UNL     1      44.541  36.029  44.488  0.00  0.00    +0.000 A 
ATOM     28  N   UNL     1      45.243  35.885  43.345  0.00  0.00    +0.000 NA
ATOM     29  C   UNL     1      46.125  34.850  43.149  0.00  0.00    +0.000 A 
ATOM     30  N   UNL     1      46.288  33.953  44.140  0.00  0.00    +0.000 NA
ATOM     31  H   UNL     1      45.751  33.326  46.089  0.00  0.00    +0.000 HD
ATOM     32  H   UNL     1      44.154  35.214  46.420  0.00  0.00    +0.000 HD
ATOM     33  H   UNL     1      43.857  36.876  44.575  0.00  0.00    +0.000 HD
ENDBRANCH  17  29
ENDBRANCH   1  21
BRANCH   6  34
ATOM     34  N   UNL     1      48.262  31.311  39.135  0.00  0.00    +0.000 N 
ATOM     35  C   UNL     1      48.196  30.842  40.395  0.00  0.00    +0.000 A 
ATOM     36  C   UNL     1      49.364  30.569  41.061  0.00  0.00    +0.000 A 
ATOM     37  C   UNL     1      50.530  30.801  40.377  0.00  0.00    +0.000 A 
ATOM     38  N   UNL     1      51.807  30.559  40.956  0.00  0.00    +0.000 N 
ATOM     39  N   UNL     1      50.542  31.271  39.117  0.00  0.00    +0.000 NA
ATOM     40  C   UNL     1      49.378  31.541  38.457  0.00  0.00    +0.000 A 
ATOM     41  O   UNL     1      49.459  31.973  37.295  0.00  0.00    +0.000 OA
ATOM     42  H   UNL     1      52.057  29.644  40.549  0.00  0.00    +0.000 HD
ATOM     43  H   UNL     1      52.583  30.861  41.577  0.00  0.00    +0.000 HD
ENDBRANCH   6  34
TORSDOF 3
