
 OpenBabel03242511333D

 36 38  0  0  1  0  0  0  0  0999 V2000
   48.6230   32.1400   42.9330 C   0  0  0  0  0  3  0  0  0  0  0  0
   47.9980   33.2990   43.0140 C   0  0  0  0  0  3  0  0  0  0  0  0
   49.4800   31.8820   41.7820 C   0  0  0  0  0  0  0  0  0  0  0  0
   50.8710   31.8960   41.9960 C   0  0  0  0  0  0  0  0  0  0  0  0
   51.7220   31.6530   40.9160 C   0  0  0  0  0  0  0  0  0  0  0  0
   51.1640   31.4120   39.7000 N   0  0  0  0  0  0  0  0  0  0  0  0
   49.8300   31.4050   39.5270 C   0  0  0  0  0  0  0  0  0  0  0  0
   49.0130   31.6390   40.5640 N   0  0  0  0  0  0  0  0  0  0  0  0
   51.2920   32.0920   42.9830 H   0  0  0  0  0  0  0  0  0  0  0  0
   52.7810   31.6680   41.1010 H   0  0  0  0  0  0  0  0  0  0  0  0
   49.3330   31.1450   38.2190 N   0  0  0  0  0  0  0  0  0  0  0  0
   48.1720   30.4840   38.0530 C   0  0  0  0  0  3  0  0  0  0  0  0
   47.7330   30.2550   36.7450 C   0  0  0  0  0  3  0  0  0  0  0  0
   48.5390   30.7330   35.7440 C   0  0  0  0  0  0  0  0  0  0  0  0
   48.0780   30.4930   34.4250 N   0  0  0  0  0  0  0  0  0  0  0  0
   49.6990   31.3940   35.9310 N   0  0  0  0  0  0  0  0  0  0  0  0
   50.1060   31.6050   37.2000 C   0  0  0  0  0  0  0  0  0  0  0  0
   51.1840   32.2160   37.4100 O   0  0  0  0  0  0  0  0  0  0  0  0
   48.2490   30.1900   33.4550 H   0  0  0  0  0  0  0  0  0  0  0  0
   47.0920   30.6380   34.0550 H   0  0  0  0  0  0  0  0  0  0  0  0
   47.1170   33.6280   44.1470 C   0  0  0  0  0  0  0  0  0  0  0  0
   47.6170   34.3310   44.8370 H   0  0  0  0  0  0  0  0  0  0  0  0
   46.8620   32.6730   44.6630 H   0  0  0  0  0  0  0  0  0  0  0  0
   44.7480   36.2600   43.4290 C   0  0  1  0  0  0  0  0  0  0  0  0
   45.9290   35.4560   42.8810 C   0  0  0  0  0  0  0  0  0  0  0  0
   45.7850   34.2030   43.6700 C   0  0  2  0  0  0  0  0  0  0  0  0
   44.8930   34.3910   44.6800 O   0  0  0  0  0  0  0  0  0  0  0  0
   44.6930   35.7490   44.8490 C   0  0  0  0  0  0  0  0  0  0  0  0
   43.8160   36.0370   42.8990 H   0  0  0  0  0  0  0  0  0  0  0  0
   46.8390   36.0340   43.0930 H   0  0  0  0  0  0  0  0  0  0  0  0
   45.7500   35.3160   41.7750 H   0  0  0  0  0  0  0  0  0  0  0  0
   45.3440   33.4180   42.9890 H   0  0  0  0  0  0  0  0  0  0  0  0
   43.7190   35.9140   45.3440 H   0  0  0  0  0  0  0  0  0  0  0  0
   45.4580   36.2220   45.4840 H   0  0  0  0  0  0  0  0  0  0  0  0
   45.0280   37.6180   43.3570 O   0  0  0  0  0  0  0  0  0  0  0  0
   45.5430   37.9620   44.1280 H   0  0  0  0  0  0  0  0  0  0  0  0
  1  2  2  0  0  0  0
  2 21  1  0  0  0  0
  3  4  1  0  0  0  0
  3  1  1  0  0  0  0
  4  9  1  0  0  0  0
  5 10  1  0  0  0  0
  5  4  2  0  0  0  0
  6  5  1  0  0  0  0
  7  6  2  0  0  0  0
  7  8  1  0  0  0  0
  8  3  2  0  0  0  0
 11  7  1  0  0  0  0
 12 11  1  0  0  0  0
 13 12  2  0  0  0  0
 14 16  2  0  0  0  0
 14 13  1  0  0  0  0
 15 14  1  0  0  0  0
 16 17  1  0  0  0  0
 17 18  2  0  0  0  0
 17 11  1  0  0  0  0
 19 15  1  0  0  0  0
 20 15  1  0  0  0  0
 21 23  1  0  0  0  0
 21 22  1  0  0  0  0
 24 29  1  6  0  0  0
 24 28  1  0  0  0  0
 25 30  1  0  0  0  0
 25 24  1  0  0  0  0
 25 26  1  0  0  0  0
 26 32  1  6  0  0  0
 26 21  1  0  0  0  0
 26 27  1  0  0  0  0
 27 28  1  0  0  0  0
 28 33  1  0  0  0  0
 28 34  1  0  0  0  0
 31 25  1  0  0  0  0
 35 24  1  0  0  0  0
 35 36  1  0  0  0  0
M  END
>  <minimizedAffinity>
-4.93949652

>  <minimizedRMSD>
0.362650305

$$$$
