
 OpenBabel03252505183D

 28 30  0  0  0  0  0  0  0  0999 V2000
   44.5550   35.8750   44.6100 C   0  0  0  0  0  0  0  0  0  0  0  0
   45.2260   35.8580   43.3650 C   0  0  0  0  0  0  0  0  0  0  0  0
   46.1470   34.8490   43.1990 C   0  0  0  0  0  0  0  0  0  0  0  0
   46.3920   33.9180   44.1890 N   0  0  0  0  0  0  0  0  0  0  0  0
   45.7120   33.9880   45.3680 C   0  0  0  0  0  0  0  0  0  0  0  0
   44.8080   34.9540   45.5670 N   0  0  0  0  0  0  0  0  0  0  0  0
   43.8170   36.6390   44.8130 H   0  0  0  0  0  0  0  0  0  0  0  0
   45.0220   36.5870   42.6130 H   0  0  0  0  0  0  0  0  0  0  0  0
   45.9870   32.9620   46.3850 C   0  0  0  0  0  0  0  0  0  0  0  0
   45.2430   33.0060   47.5580 C   0  0  0  0  0  0  0  0  0  0  0  0
   45.4580   32.0550   48.5340 C   0  0  0  0  0  0  0  0  0  0  0  0
   46.4220   31.0850   48.2920 C   0  0  0  0  0  0  0  0  0  0  0  0
   47.1400   31.0900   47.0930 C   0  0  0  0  0  0  0  0  0  0  0  0
   46.9170   32.0360   46.1360 N   0  0  0  0  0  0  0  0  0  0  0  0
   44.4960   33.7800   47.7150 H   0  0  0  0  0  0  0  0  0  0  0  0
   44.9150   32.0300   49.4720 H   0  0  0  0  0  0  0  0  0  0  0  0
   46.6470   30.3050   49.0110 H   0  0  0  0  0  0  0  0  0  0  0  0
   48.1470   30.0610   46.8610 C   0  0  0  0  0  0  0  0  0  0  0  0
   48.1150   29.4640   45.9770 H   0  0  0  0  0  0  0  0  0  0  0  0
   49.0590   29.8680   47.6960 O   0  0  0  0  0  0  0  0  0  0  0  0
   46.8970   34.7090   41.9050 C   0  0  0  0  0  0  0  0  0  0  0  0
   48.2590   35.4030   41.9190 C   0  0  0  0  0  0  0  0  0  0  0  0
   48.0500   33.8540   41.8400 C   0  0  0  0  0  0  0  0  0  0  0  0
   46.2730   34.8860   41.0060 H   0  0  0  0  0  0  0  0  0  0  0  0
   48.5280   35.8970   40.9880 H   0  0  0  0  0  0  0  0  0  0  0  0
   48.6510   35.7570   42.8970 H   0  0  0  0  0  0  0  0  0  0  0  0
   48.3350   33.4020   40.8470 H   0  0  0  0  0  0  0  0  0  0  0  0
   48.4780   33.2800   42.6710 H   0  0  0  0  0  0  0  0  0  0  0  0
  1  7  1  0  0  0  0
  1  6  1  0  0  0  0
  2  1  2  0  0  0  0
  3  2  1  0  0  0  0
  3  4  2  0  0  0  0
  4  5  1  0  0  0  0
  5  6  2  0  0  0  0
  5  9  1  0  0  0  0
  8  2  1  0  0  0  0
  9 10  1  0  0  0  0
 10 15  1  0  0  0  0
 10 11  2  0  0  0  0
 11 16  1  0  0  0  0
 12 11  1  0  0  0  0
 12 17  1  0  0  0  0
 13 12  2  0  0  0  0
 14  9  2  0  0  0  0
 14 13  1  0  0  0  0
 18 13  1  0  0  0  0
 18 20  2  0  0  0  0
 19 18  1  0  0  0  0
 21 22  1  0  0  0  0
 21  3  1  0  0  0  0
 22 26  1  0  0  0  0
 23 21  1  0  0  0  0
 23 22  1  0  0  0  0
 23 28  1  0  0  0  0
 24 21  1  0  0  0  0
 25 22  1  0  0  0  0
 27 23  1  0  0  0  0
M  END
>  <minimizedAffinity>
-5.2923522

>  <minimizedRMSD>
0.273618281

$$$$
