
 OpenBabel03242522173D

 35 37  0  0  0  0  0  0  0  0999 V2000
   37.7430   29.2400   43.1990 C   0  0  0  0  0  0  0  0  0  0  0  0
   38.8380   29.1820   43.4160 H   0  0  0  0  0  0  0  0  0  0  0  0
   37.1960   29.7850   44.0180 H   0  0  0  0  0  0  0  0  0  0  0  0
   38.1690   31.3320   40.1750 C   0  0  0  0  0  0  0  0  0  0  0  0
   36.9630   31.1240   39.5940 C   0  0  0  0  0  0  0  0  0  0  0  0
   36.1460   29.9870   40.7980 S   0  0  0  0  0  0  0  0  0  0  0  0
   37.6410   30.0020   41.9040 C   0  0  0  0  0  0  0  0  0  0  0  0
   38.3060   30.7000   41.2900 N   0  0  0  0  0  0  0  0  0  0  0  0
   36.6360   31.5540   38.6590 H   0  0  0  0  0  0  0  0  0  0  0  0
   40.5660   34.1610   39.5450 C   0  0  0  0  0  0  0  0  0  0  0  0
   39.5530   33.4030   40.1610 C   0  0  0  0  0  0  0  0  0  0  0  0
   39.2270   32.1960   39.5910 C   0  0  0  0  0  0  0  0  0  0  0  0
   39.9140   31.8190   38.4630 N   0  0  0  0  0  0  0  0  0  0  0  0
   40.8690   32.5770   37.9170 C   0  0  0  0  0  0  0  0  0  0  0  0
   41.1960   33.7380   38.4490 N   0  0  0  0  0  0  0  0  0  0  0  0
   40.8450   35.1180   39.9730 H   0  0  0  0  0  0  0  0  0  0  0  0
   41.2630   32.0680   37.0360 H   0  0  0  0  0  0  0  0  0  0  0  0
   38.9540   33.9430   41.3140 N   0  0  0  0  0  0  0  0  0  0  0  0
   38.8540   34.9590   41.4610 H   0  0  0  0  0  0  0  0  0  0  0  0
   38.6150   33.2260   42.0160 H   0  0  0  0  0  0  0  0  0  0  0  0
   37.1560   27.8870   43.0710 C   0  0  0  0  0  0  0  0  0  0  0  0
   36.5550   27.8770   42.1180 H   0  0  0  0  0  0  0  0  0  0  0  0
   36.3900   27.6810   43.8700 H   0  0  0  0  0  0  0  0  0  0  0  0
   38.0570   26.7550   43.0320 C   0  0  0  0  0  0  0  0  0  0  0  0
   39.2640   26.5430   43.6220 C   0  0  0  0  0  0  0  0  0  0  0  0
   40.0570   25.4330   43.5290 C   0  0  0  0  0  0  0  0  0  0  0  0
   39.5670   24.4280   42.7480 C   0  0  0  0  0  0  0  0  0  0  0  0
   38.3310   24.6260   42.1340 C   0  0  0  0  0  0  0  0  0  0  0  0
   37.5860   25.7380   42.2560 N   0  0  0  0  0  0  0  0  0  0  0  0
   39.5930   27.3990   44.2380 H   0  0  0  0  0  0  0  0  0  0  0  0
   40.9980   25.3660   44.0390 H   0  0  0  0  0  0  0  0  0  0  0  0
   40.0950   23.5070   42.5950 H   0  0  0  0  0  0  0  0  0  0  0  0
   37.8200   23.5120   41.2860 C   0  0  0  0  0  0  0  0  0  0  0  0
   38.3340   22.5860   41.2130 H   0  0  0  0  0  0  0  0  0  0  0  0
   36.7560   23.6350   40.6280 O   0  0  0  0  0  0  0  0  0  0  0  0
  1  2  1  0  0  0  0
  1  3  1  0  0  0  0
  4  8  1  0  0  0  0
  5  4  2  0  0  0  0
  5  6  1  0  0  0  0
  6  7  1  0  0  0  0
  7  1  1  0  0  0  0
  8  7  2  0  0  0  0
  9  5  1  0  0  0  0
 10 16  1  0  0  0  0
 10 11  1  0  0  0  0
 11 18  1  0  0  0  0
 12 11  2  0  0  0  0
 12  4  1  0  0  0  0
 13 12  1  0  0  0  0
 14 15  1  0  0  0  0
 14 13  2  0  0  0  0
 15 10  2  0  0  0  0
 17 14  1  0  0  0  0
 18 19  1  0  0  0  0
 18 20  1  0  0  0  0
 21  1  1  0  0  0  0
 21 23  1  0  0  0  0
 22 21  1  0  0  0  0
 24 21  1  0  0  0  0
 24 25  1  0  0  0  0
 25 30  1  0  0  0  0
 26 25  2  0  0  0  0
 26 31  1  0  0  0  0
 27 26  1  0  0  0  0
 28 29  1  0  0  0  0
 28 27  2  0  0  0  0
 29 24  2  0  0  0  0
 32 27  1  0  0  0  0
 33 28  1  0  0  0  0
 34 33  1  0  0  0  0
 35 33  2  0  0  0  0
M  END
>  <minimizedAffinity>
-5.75848532

$$$$

 OpenBabel03242522173D

 35 37  0  0  0  0  0  0  0  0999 V2000
   37.6070   29.0960   43.0600 C   0  0  0  0  0  0  0  0  0  0  0  0
   38.6930   28.8560   43.1780 H   0  0  0  0  0  0  0  0  0  0  0  0
   37.2250   29.6850   43.9400 H   0  0  0  0  0  0  0  0  0  0  0  0
   38.0780   31.3210   40.1390 C   0  0  0  0  0  0  0  0  0  0  0  0
   36.8720   31.1570   39.5440 C   0  0  0  0  0  0  0  0  0  0  0  0
   36.0340   29.9760   40.6900 S   0  0  0  0  0  0  0  0  0  0  0  0
   37.5220   29.9190   41.8020 C   0  0  0  0  0  0  0  0  0  0  0  0
   38.2000   30.6350   41.2240 N   0  0  0  0  0  0  0  0  0  0  0  0
   36.5560   31.6350   38.6290 H   0  0  0  0  0  0  0  0  0  0  0  0
   40.4900   34.1610   39.6320 C   0  0  0  0  0  0  0  0  0  0  0  0
   39.4610   33.3910   40.2050 C   0  0  0  0  0  0  0  0  0  0  0  0
   39.1500   32.1970   39.6020 C   0  0  0  0  0  0  0  0  0  0  0  0
   39.8670   31.8430   38.4840 N   0  0  0  0  0  0  0  0  0  0  0  0
   40.8360   32.6130   37.9790 C   0  0  0  0  0  0  0  0  0  0  0  0
   41.1480   33.7610   38.5450 N   0  0  0  0  0  0  0  0  0  0  0  0
   40.7580   35.1090   40.0880 H   0  0  0  0  0  0  0  0  0  0  0  0
   41.2520   32.1220   37.0990 H   0  0  0  0  0  0  0  0  0  0  0  0
   38.8330   33.9060   41.3540 N   0  0  0  0  0  0  0  0  0  0  0  0
   38.7290   34.9200   41.5200 H   0  0  0  0  0  0  0  0  0  0  0  0
   38.4760   33.1750   42.0320 H   0  0  0  0  0  0  0  0  0  0  0  0
   36.8010   27.8590   42.9460 C   0  0  0  0  0  0  0  0  0  0  0  0
   36.0900   28.0070   42.0840 H   0  0  0  0  0  0  0  0  0  0  0  0
   36.1200   27.7150   43.8300 H   0  0  0  0  0  0  0  0  0  0  0  0
   37.4990   26.6100   42.7280 C   0  0  0  0  0  0  0  0  0  0  0  0
   37.0950   25.4370   42.1690 C   0  0  0  0  0  0  0  0  0  0  0  0
   37.8260   24.2930   42.0030 C   0  0  0  0  0  0  0  0  0  0  0  0
   39.1100   24.3490   42.4580 C   0  0  0  0  0  0  0  0  0  0  0  0
   39.5440   25.5420   43.0360 C   0  0  0  0  0  0  0  0  0  0  0  0
   38.7860   26.6440   43.1770 N   0  0  0  0  0  0  0  0  0  0  0  0
   36.0460   25.4700   41.8230 H   0  0  0  0  0  0  0  0  0  0  0  0
   37.4090   23.4180   41.5450 H   0  0  0  0  0  0  0  0  0  0  0  0
   39.7830   23.5190   42.3870 H   0  0  0  0  0  0  0  0  0  0  0  0
   40.9510   25.5760   43.5250 C   0  0  0  0  0  0  0  0  0  0  0  0
   41.4500   24.6960   43.8460 H   0  0  0  0  0  0  0  0  0  0  0  0
   41.5950   26.6540   43.5710 O   0  0  0  0  0  0  0  0  0  0  0  0
  1  2  1  0  0  0  0
  1  3  1  0  0  0  0
  4  8  1  0  0  0  0
  5  4  2  0  0  0  0
  5  6  1  0  0  0  0
  6  7  1  0  0  0  0
  7  1  1  0  0  0  0
  8  7  2  0  0  0  0
  9  5  1  0  0  0  0
 10 16  1  0  0  0  0
 10 11  1  0  0  0  0
 11 18  1  0  0  0  0
 12  4  1  0  0  0  0
 12 11  2  0  0  0  0
 13 12  1  0  0  0  0
 14 13  2  0  0  0  0
 14 15  1  0  0  0  0
 15 10  2  0  0  0  0
 17 14  1  0  0  0  0
 18 19  1  0  0  0  0
 18 20  1  0  0  0  0
 21  1  1  0  0  0  0
 21 23  1  0  0  0  0
 22 21  1  0  0  0  0
 24 21  1  0  0  0  0
 24 29  1  0  0  0  0
 25 24  2  0  0  0  0
 26 25  1  0  0  0  0
 26 27  2  0  0  0  0
 27 28  1  0  0  0  0
 28 29  2  0  0  0  0
 28 33  1  0  0  0  0
 30 25  1  0  0  0  0
 31 26  1  0  0  0  0
 32 27  1  0  0  0  0
 33 35  2  0  0  0  0
 33 34  1  0  0  0  0
M  END
>  <minimizedAffinity>
-5.72507906

$$$$

 OpenBabel03242522173D

 35 37  0  0  0  0  0  0  0  0999 V2000
   35.5860   28.3860   39.5400 C   0  0  0  0  0  0  0  0  0  0  0  0
   35.1940   28.9530   40.4200 H   0  0  0  0  0  0  0  0  0  0  0  0
   34.7450   27.9650   38.9240 H   0  0  0  0  0  0  0  0  0  0  0  0
   37.7340   31.1010   38.2270 C   0  0  0  0  0  0  0  0  0  0  0  0
   37.5170   30.9270   36.9010 C   0  0  0  0  0  0  0  0  0  0  0  0
   36.3460   29.5000   36.8850 S   0  0  0  0  0  0  0  0  0  0  0  0
   36.3660   29.3960   38.7410 C   0  0  0  0  0  0  0  0  0  0  0  0
   37.0850   30.2590   38.9560 N   0  0  0  0  0  0  0  0  0  0  0  0
   37.9570   31.5200   36.1120 H   0  0  0  0  0  0  0  0  0  0  0  0
   39.0800   33.9950   40.2150 C   0  0  0  0  0  0  0  0  0  0  0  0
   38.1720   33.0320   39.7380 C   0  0  0  0  0  0  0  0  0  0  0  0
   38.6240   32.1500   38.7870 C   0  0  0  0  0  0  0  0  0  0  0  0
   39.9280   32.2740   38.3720 N   0  0  0  0  0  0  0  0  0  0  0  0
   40.7500   33.2080   38.8580 C   0  0  0  0  0  0  0  0  0  0  0  0
   40.3350   34.0630   39.7720 N   0  0  0  0  0  0  0  0  0  0  0  0
   38.7510   34.7050   40.9680 H   0  0  0  0  0  0  0  0  0  0  0  0
   41.7230   33.1050   38.3770 H   0  0  0  0  0  0  0  0  0  0  0  0
   36.8720   33.0480   40.2750 N   0  0  0  0  0  0  0  0  0  0  0  0
   36.4180   33.9170   40.5970 H   0  0  0  0  0  0  0  0  0  0  0  0
   36.3980   32.1030   40.3220 H   0  0  0  0  0  0  0  0  0  0  0  0
   36.4500   27.2660   39.9750 C   0  0  0  0  0  0  0  0  0  0  0  0
   37.2830   27.1780   39.2210 H   0  0  0  0  0  0  0  0  0  0  0  0
   35.9220   26.2740   39.9030 H   0  0  0  0  0  0  0  0  0  0  0  0
   37.0550   27.3410   41.2880 C   0  0  0  0  0  0  0  0  0  0  0  0
   36.6060   27.8670   42.4590 C   0  0  0  0  0  0  0  0  0  0  0  0
   37.2500   27.8990   43.6640 C   0  0  0  0  0  0  0  0  0  0  0  0
   38.4900   27.3310   43.6790 C   0  0  0  0  0  0  0  0  0  0  0  0
   38.9700   26.7860   42.4880 C   0  0  0  0  0  0  0  0  0  0  0  0
   38.2970   26.7790   41.3240 N   0  0  0  0  0  0  0  0  0  0  0  0
   35.5950   28.3070   42.3680 H   0  0  0  0  0  0  0  0  0  0  0  0
   36.8030   28.3400   44.5330 H   0  0  0  0  0  0  0  0  0  0  0  0
   39.0960   27.2930   44.5620 H   0  0  0  0  0  0  0  0  0  0  0  0
   40.3270   26.1720   42.5320 C   0  0  0  0  0  0  0  0  0  0  0  0
   41.0040   26.2600   41.7190 H   0  0  0  0  0  0  0  0  0  0  0  0
   40.7140   25.5290   43.5400 O   0  0  0  0  0  0  0  0  0  0  0  0
  1 21  1  0  0  0  0
  1  2  1  0  0  0  0
  3  1  1  0  0  0  0
  4 12  1  0  0  0  0
  4  8  1  0  0  0  0
  5  4  2  0  0  0  0
  6  5  1  0  0  0  0
  6  7  1  0  0  0  0
  7  8  2  0  0  0  0
  7  1  1  0  0  0  0
  9  5  1  0  0  0  0
 10 16  1  0  0  0  0
 11 10  2  0  0  0  0
 11 18  1  0  0  0  0
 12 11  1  0  0  0  0
 13 12  2  0  0  0  0
 13 14  1  0  0  0  0
 14 15  2  0  0  0  0
 15 10  1  0  0  0  0
 17 14  1  0  0  0  0
 18 20  1  0  0  0  0
 18 19  1  0  0  0  0
 21 24  1  0  0  0  0
 22 21  1  0  0  0  0
 23 21  1  0  0  0  0
 24 29  2  0  0  0  0
 24 25  1  0  0  0  0
 25 26  2  0  0  0  0
 26 27  1  0  0  0  0
 26 31  1  0  0  0  0
 27 32  1  0  0  0  0
 28 33  1  0  0  0  0
 28 27  2  0  0  0  0
 29 28  1  0  0  0  0
 30 25  1  0  0  0  0
 33 35  2  0  0  0  0
 34 33  1  0  0  0  0
M  END
>  <minimizedAffinity>
-5.47501612

$$$$

 OpenBabel03242522173D

 35 37  0  0  0  0  0  0  0  0999 V2000
   37.2720   29.0670   38.8160 C   0  0  0  0  0  0  0  0  0  0  0  0
   36.1840   29.0820   39.0710 H   0  0  0  0  0  0  0  0  0  0  0  0
   37.4260   28.9790   37.7050 H   0  0  0  0  0  0  0  0  0  0  0  0
   39.1530   32.1570   39.6030 C   0  0  0  0  0  0  0  0  0  0  0  0
   38.2950   32.7140   40.4920 C   0  0  0  0  0  0  0  0  0  0  0  0
   36.9360   31.4650   40.5510 S   0  0  0  0  0  0  0  0  0  0  0  0
   37.8090   30.3820   39.3170 C   0  0  0  0  0  0  0  0  0  0  0  0
   38.7370   31.0270   39.1450 N   0  0  0  0  0  0  0  0  0  0  0  0
   38.4420   33.6560   41.0000 H   0  0  0  0  0  0  0  0  0  0  0  0
   42.0480   33.4400   37.5760 C   0  0  0  0  0  0  0  0  0  0  0  0
   40.8160   32.8320   37.8760 C   0  0  0  0  0  0  0  0  0  0  0  0
   40.4370   32.7820   39.1960 C   0  0  0  0  0  0  0  0  0  0  0  0
   41.2900   33.3300   40.1240 N   0  0  0  0  0  0  0  0  0  0  0  0
   42.4510   33.8960   39.7850 C   0  0  0  0  0  0  0  0  0  0  0  0
   42.8310   33.9540   38.5240 N   0  0  0  0  0  0  0  0  0  0  0  0
   42.3730   33.4950   36.5420 H   0  0  0  0  0  0  0  0  0  0  0  0
   42.9450   34.2540   40.6890 H   0  0  0  0  0  0  0  0  0  0  0  0
   40.0670   32.3230   36.7990 N   0  0  0  0  0  0  0  0  0  0  0  0
   40.5100   31.9530   35.9430 H   0  0  0  0  0  0  0  0  0  0  0  0
   39.0170   32.3490   36.9350 H   0  0  0  0  0  0  0  0  0  0  0  0
   37.9540   27.9280   39.4700 C   0  0  0  0  0  0  0  0  0  0  0  0
   39.0530   28.0240   39.2400 H   0  0  0  0  0  0  0  0  0  0  0  0
   37.6710   26.9420   39.0060 H   0  0  0  0  0  0  0  0  0  0  0  0
   37.8180   27.7850   40.9040 C   0  0  0  0  0  0  0  0  0  0  0  0
   36.7220   27.7600   41.7090 C   0  0  0  0  0  0  0  0  0  0  0  0
   36.6840   27.6220   43.0690 C   0  0  0  0  0  0  0  0  0  0  0  0
   37.8980   27.4970   43.6780 C   0  0  0  0  0  0  0  0  0  0  0  0
   39.0350   27.5220   42.8710 C   0  0  0  0  0  0  0  0  0  0  0  0
   39.0220   27.6590   41.5340 N   0  0  0  0  0  0  0  0  0  0  0  0
   35.7780   27.8650   41.1440 H   0  0  0  0  0  0  0  0  0  0  0  0
   35.7590   27.6140   43.6110 H   0  0  0  0  0  0  0  0  0  0  0  0
   38.0020   27.3840   44.7380 H   0  0  0  0  0  0  0  0  0  0  0  0
   40.3480   27.3830   43.5620 C   0  0  0  0  0  0  0  0  0  0  0  0
   40.4910   26.6870   44.3510 H   0  0  0  0  0  0  0  0  0  0  0  0
   41.3330   28.0900   43.2290 O   0  0  0  0  0  0  0  0  0  0  0  0
  1  2  1  0  0  0  0
  1  7  1  0  0  0  0
  1 21  1  0  0  0  0
  3  1  1  0  0  0  0
  4  5  2  0  0  0  0
  5  6  1  0  0  0  0
  5  9  1  0  0  0  0
  7  6  1  0  0  0  0
  8  7  2  0  0  0  0
  8  4  1  0  0  0  0
 10 11  2  0  0  0  0
 10 15  1  0  0  0  0
 11 12  1  0  0  0  0
 12  4  1  0  0  0  0
 12 13  2  0  0  0  0
 14 13  1  0  0  0  0
 14 17  1  0  0  0  0
 15 14  2  0  0  0  0
 16 10  1  0  0  0  0
 18 20  1  0  0  0  0
 18 11  1  0  0  0  0
 19 18  1  0  0  0  0
 21 24  1  0  0  0  0
 22 21  1  0  0  0  0
 23 21  1  0  0  0  0
 24 29  2  0  0  0  0
 24 25  1  0  0  0  0
 25 26  2  0  0  0  0
 26 31  1  0  0  0  0
 26 27  1  0  0  0  0
 27 32  1  0  0  0  0
 28 33  1  0  0  0  0
 28 27  2  0  0  0  0
 29 28  1  0  0  0  0
 30 25  1  0  0  0  0
 33 34  1  0  0  0  0
 35 33  2  0  0  0  0
M  END
>  <minimizedAffinity>
-5.38338184

$$$$

 OpenBabel03242522173D

 35 37  0  0  0  0  0  0  0  0999 V2000
   37.4430   29.0500   38.7910 C   0  0  0  0  0  0  0  0  0  0  0  0
   37.1430   29.1900   37.7230 H   0  0  0  0  0  0  0  0  0  0  0  0
   38.2880   28.3120   38.8800 H   0  0  0  0  0  0  0  0  0  0  0  0
   39.1320   32.2590   39.5370 C   0  0  0  0  0  0  0  0  0  0  0  0
   38.1880   32.8220   40.3290 C   0  0  0  0  0  0  0  0  0  0  0  0
   36.8800   31.5190   40.3590 S   0  0  0  0  0  0  0  0  0  0  0  0
   37.8870   30.4120   39.2540 C   0  0  0  0  0  0  0  0  0  0  0  0
   38.7980   31.0880   39.1140 N   0  0  0  0  0  0  0  0  0  0  0  0
   38.2580   33.7950   40.7920 H   0  0  0  0  0  0  0  0  0  0  0  0
   42.1000   33.5910   37.6510 C   0  0  0  0  0  0  0  0  0  0  0  0
   40.8730   32.9470   37.8940 C   0  0  0  0  0  0  0  0  0  0  0  0
   40.4170   32.9170   39.1900 C   0  0  0  0  0  0  0  0  0  0  0  0
   41.1930   33.5180   40.1520 N   0  0  0  0  0  0  0  0  0  0  0  0
   42.3530   34.1170   39.8670 C   0  0  0  0  0  0  0  0  0  0  0  0
   42.8060   34.1560   38.6300 N   0  0  0  0  0  0  0  0  0  0  0  0
   42.4840   33.6310   36.6370 H   0  0  0  0  0  0  0  0  0  0  0  0
   42.7790   34.5150   40.7880 H   0  0  0  0  0  0  0  0  0  0  0  0
   40.2080   32.3850   36.7890 N   0  0  0  0  0  0  0  0  0  0  0  0
   40.7140   32.0090   35.9720 H   0  0  0  0  0  0  0  0  0  0  0  0
   39.1520   32.3780   36.8610 H   0  0  0  0  0  0  0  0  0  0  0  0
   36.3070   28.5540   39.5990 C   0  0  0  0  0  0  0  0  0  0  0  0
   35.6900   27.8890   38.9300 H   0  0  0  0  0  0  0  0  0  0  0  0
   35.5970   29.3790   39.8820 H   0  0  0  0  0  0  0  0  0  0  0  0
   36.6030   27.8070   40.8030 C   0  0  0  0  0  0  0  0  0  0  0  0
   36.4870   28.1330   42.1190 C   0  0  0  0  0  0  0  0  0  0  0  0
   36.7950   27.3600   43.2040 C   0  0  0  0  0  0  0  0  0  0  0  0
   37.2760   26.1160   42.9170 C   0  0  0  0  0  0  0  0  0  0  0  0
   37.4040   25.7620   41.5740 C   0  0  0  0  0  0  0  0  0  0  0  0
   37.0860   26.5590   40.5390 N   0  0  0  0  0  0  0  0  0  0  0  0
   36.0900   29.1530   42.2700 H   0  0  0  0  0  0  0  0  0  0  0  0
   36.6640   27.7150   44.2070 H   0  0  0  0  0  0  0  0  0  0  0  0
   37.5550   25.4160   43.6800 H   0  0  0  0  0  0  0  0  0  0  0  0
   37.9320   24.3980   41.2900 C   0  0  0  0  0  0  0  0  0  0  0  0
   38.9660   24.1720   41.3730 H   0  0  0  0  0  0  0  0  0  0  0  0
   37.1630   23.4660   40.9410 O   0  0  0  0  0  0  0  0  0  0  0  0
  1  3  1  0  0  0  0
  1  7  1  0  0  0  0
  1 21  1  0  0  0  0
  2  1  1  0  0  0  0
  4  5  2  0  0  0  0
  5  6  1  0  0  0  0
  5  9  1  0  0  0  0
  7  6  1  0  0  0  0
  8  7  2  0  0  0  0
  8  4  1  0  0  0  0
 10 11  2  0  0  0  0
 10 15  1  0  0  0  0
 11 12  1  0  0  0  0
 12  4  1  0  0  0  0
 12 13  2  0  0  0  0
 14 13  1  0  0  0  0
 14 17  1  0  0  0  0
 15 14  2  0  0  0  0
 16 10  1  0  0  0  0
 18 20  1  0  0  0  0
 18 11  1  0  0  0  0
 19 18  1  0  0  0  0
 21 23  1  0  0  0  0
 21 24  1  0  0  0  0
 22 21  1  0  0  0  0
 24 25  1  0  0  0  0
 25 30  1  0  0  0  0
 25 26  2  0  0  0  0
 26 31  1  0  0  0  0
 27 26  1  0  0  0  0
 27 32  1  0  0  0  0
 28 27  2  0  0  0  0
 29 24  2  0  0  0  0
 29 28  1  0  0  0  0
 33 34  1  0  0  0  0
 33 28  1  0  0  0  0
 35 33  2  0  0  0  0
M  END
>  <minimizedAffinity>
-5.34443808

$$$$

 OpenBabel03242522173D

 35 37  0  0  0  0  0  0  0  0999 V2000
   36.1760   28.2210   40.5860 C   0  0  0  0  0  0  0  0  0  0  0  0
   36.6840   27.6890   39.7440 H   0  0  0  0  0  0  0  0  0  0  0  0
   35.7310   27.4890   41.3160 H   0  0  0  0  0  0  0  0  0  0  0  0
   38.7760   30.6390   41.6340 C   0  0  0  0  0  0  0  0  0  0  0  0
   39.1380   30.0730   42.8110 C   0  0  0  0  0  0  0  0  0  0  0  0
   38.0350   28.5930   42.8830 S   0  0  0  0  0  0  0  0  0  0  0  0
   37.2590   29.0280   41.2500 C   0  0  0  0  0  0  0  0  0  0  0  0
   37.8490   29.9820   41.0260 N   0  0  0  0  0  0  0  0  0  0  0  0
   39.8940   30.4530   43.4820 H   0  0  0  0  0  0  0  0  0  0  0  0
   39.2520   34.0280   40.0780 C   0  0  0  0  0  0  0  0  0  0  0  0
   38.6000   32.8800   40.5640 C   0  0  0  0  0  0  0  0  0  0  0  0
   39.3810   31.8850   41.0990 C   0  0  0  0  0  0  0  0  0  0  0  0
   40.7400   32.0840   41.1200 N   0  0  0  0  0  0  0  0  0  0  0  0
   41.3100   33.1950   40.6440 C   0  0  0  0  0  0  0  0  0  0  0  0
   40.5770   34.1610   40.1280 N   0  0  0  0  0  0  0  0  0  0  0  0
   38.6610   34.8320   39.6500 H   0  0  0  0  0  0  0  0  0  0  0  0
   42.3910   33.1180   40.7720 H   0  0  0  0  0  0  0  0  0  0  0  0
   37.1970   32.8440   40.4630 N   0  0  0  0  0  0  0  0  0  0  0  0
   36.6840   33.3170   39.7030 H   0  0  0  0  0  0  0  0  0  0  0  0
   36.7100   32.2950   41.2270 H   0  0  0  0  0  0  0  0  0  0  0  0
   35.0910   29.0930   40.0840 C   0  0  0  0  0  0  0  0  0  0  0  0
   35.3940   30.1560   40.3010 H   0  0  0  0  0  0  0  0  0  0  0  0
   34.1390   28.9630   40.6690 H   0  0  0  0  0  0  0  0  0  0  0  0
   34.7500   29.0140   38.6790 C   0  0  0  0  0  0  0  0  0  0  0  0
   33.5480   28.9360   38.0460 C   0  0  0  0  0  0  0  0  0  0  0  0
   33.3140   28.8620   36.7010 C   0  0  0  0  0  0  0  0  0  0  0  0
   34.4270   28.8680   35.9130 C   0  0  0  0  0  0  0  0  0  0  0  0
   35.6690   28.9470   36.5420 C   0  0  0  0  0  0  0  0  0  0  0  0
   35.8490   29.0180   37.8720 N   0  0  0  0  0  0  0  0  0  0  0  0
   32.6960   28.9380   38.7490 H   0  0  0  0  0  0  0  0  0  0  0  0
   32.3210   28.8040   36.3020 H   0  0  0  0  0  0  0  0  0  0  0  0
   34.3770   28.8130   34.8430 H   0  0  0  0  0  0  0  0  0  0  0  0
   36.8680   28.9510   35.6570 C   0  0  0  0  0  0  0  0  0  0  0  0
   36.8530   29.4140   34.7020 H   0  0  0  0  0  0  0  0  0  0  0  0
   37.9400   28.4040   36.0180 O   0  0  0  0  0  0  0  0  0  0  0  0
  1  7  1  0  0  0  0
  1  3  1  0  0  0  0
  2  1  1  0  0  0  0
  4  5  2  0  0  0  0
  5  6  1  0  0  0  0
  5  9  1  0  0  0  0
  7  6  1  0  0  0  0
  8  7  2  0  0  0  0
  8  4  1  0  0  0  0
 10 15  2  0  0  0  0
 10 11  1  0  0  0  0
 11 12  2  0  0  0  0
 12 13  1  0  0  0  0
 12  4  1  0  0  0  0
 14 17  1  0  0  0  0
 14 13  2  0  0  0  0
 15 14  1  0  0  0  0
 16 10  1  0  0  0  0
 18 11  1  0  0  0  0
 18 20  1  0  0  0  0
 19 18  1  0  0  0  0
 21 22  1  0  0  0  0
 21  1  1  0  0  0  0
 21 23  1  0  0  0  0
 24 21  1  0  0  0  0
 25 24  1  0  0  0  0
 25 30  1  0  0  0  0
 26 25  2  0  0  0  0
 27 28  2  0  0  0  0
 27 26  1  0  0  0  0
 28 29  1  0  0  0  0
 29 24  2  0  0  0  0
 31 26  1  0  0  0  0
 32 27  1  0  0  0  0
 33 35  2  0  0  0  0
 33 28  1  0  0  0  0
 34 33  1  0  0  0  0
M  END
>  <minimizedAffinity>
-5.19217968

$$$$

 OpenBabel03242522173D

 35 37  0  0  0  0  0  0  0  0999 V2000
   36.7570   24.3180   40.1370 C   0  0  0  0  0  0  0  0  0  0  0  0
   36.0170   23.5310   39.8470 H   0  0  0  0  0  0  0  0  0  0  0  0
   37.8030   24.0140   39.8550 H   0  0  0  0  0  0  0  0  0  0  0  0
   36.0590   27.6980   38.7980 C   0  0  0  0  0  0  0  0  0  0  0  0
   35.4100   27.3510   37.6600 C   0  0  0  0  0  0  0  0  0  0  0  0
   35.4290   25.5070   37.7510 S   0  0  0  0  0  0  0  0  0  0  0  0
   36.3440   25.5460   39.3700 C   0  0  0  0  0  0  0  0  0  0  0  0
   36.4330   26.6790   39.4920 N   0  0  0  0  0  0  0  0  0  0  0  0
   35.0100   28.0420   36.9320 H   0  0  0  0  0  0  0  0  0  0  0  0
   36.4360   30.8480   40.8160 C   0  0  0  0  0  0  0  0  0  0  0  0
   36.1760   29.4990   40.5140 C   0  0  0  0  0  0  0  0  0  0  0  0
   36.3140   29.1030   39.2060 C   0  0  0  0  0  0  0  0  0  0  0  0
   36.6960   30.0530   38.2900 N   0  0  0  0  0  0  0  0  0  0  0  0
   36.9310   31.3240   38.6300 C   0  0  0  0  0  0  0  0  0  0  0  0
   36.8050   31.7220   39.8790 N   0  0  0  0  0  0  0  0  0  0  0  0
   36.3360   31.1900   41.8410 H   0  0  0  0  0  0  0  0  0  0  0  0
   37.2170   31.8800   37.7360 H   0  0  0  0  0  0  0  0  0  0  0  0
   35.7950   28.6620   41.5780 N   0  0  0  0  0  0  0  0  0  0  0  0
   35.2680   29.0090   42.3940 H   0  0  0  0  0  0  0  0  0  0  0  0
   36.0910   27.6500   41.4760 H   0  0  0  0  0  0  0  0  0  0  0  0
   36.7230   24.5630   41.5960 C   0  0  0  0  0  0  0  0  0  0  0  0
   36.4380   23.5900   42.0890 H   0  0  0  0  0  0  0  0  0  0  0  0
   35.8910   25.2620   41.8880 H   0  0  0  0  0  0  0  0  0  0  0  0
   37.9320   25.0380   42.2350 C   0  0  0  0  0  0  0  0  0  0  0  0
   39.0420   24.3820   42.6670 C   0  0  0  0  0  0  0  0  0  0  0  0
   40.1490   24.9130   43.2680 C   0  0  0  0  0  0  0  0  0  0  0  0
   40.1220   26.2650   43.4510 C   0  0  0  0  0  0  0  0  0  0  0  0
   38.9920   26.9570   43.0160 C   0  0  0  0  0  0  0  0  0  0  0  0
   37.9260   26.3890   42.4280 N   0  0  0  0  0  0  0  0  0  0  0  0
   38.9910   23.2930   42.4830 H   0  0  0  0  0  0  0  0  0  0  0  0
   40.9760   24.3030   43.5710 H   0  0  0  0  0  0  0  0  0  0  0  0
   40.9280   26.8000   43.9120 H   0  0  0  0  0  0  0  0  0  0  0  0
   38.9900   28.4320   43.2290 C   0  0  0  0  0  0  0  0  0  0  0  0
   39.8650   29.0160   43.0890 H   0  0  0  0  0  0  0  0  0  0  0  0
   37.9440   29.0330   43.5810 O   0  0  0  0  0  0  0  0  0  0  0  0
  1 21  1  0  0  0  0
  2  1  1  0  0  0  0
  3  1  1  0  0  0  0
  4 12  1  0  0  0  0
  4  8  1  0  0  0  0
  5  6  1  0  0  0  0
  5  4  2  0  0  0  0
  6  7  1  0  0  0  0
  7  8  2  0  0  0  0
  7  1  1  0  0  0  0
  9  5  1  0  0  0  0
 10 16  1  0  0  0  0
 11 10  1  0  0  0  0
 11 18  1  0  0  0  0
 12 11  2  0  0  0  0
 13 14  2  0  0  0  0
 13 12  1  0  0  0  0
 14 15  1  0  0  0  0
 15 10  2  0  0  0  0
 17 14  1  0  0  0  0
 18 19  1  0  0  0  0
 20 18  1  0  0  0  0
 21 23  1  0  0  0  0
 21 22  1  0  0  0  0
 21 24  1  0  0  0  0
 24 29  2  0  0  0  0
 24 25  1  0  0  0  0
 25 26  2  0  0  0  0
 26 27  1  0  0  0  0
 26 31  1  0  0  0  0
 27 32  1  0  0  0  0
 28 33  1  0  0  0  0
 28 27  2  0  0  0  0
 29 28  1  0  0  0  0
 30 25  1  0  0  0  0
 33 35  2  0  0  0  0
 34 33  1  0  0  0  0
M  END
>  <minimizedAffinity>
-5.16856098

$$$$

 OpenBabel03242522173D

 35 37  0  0  0  0  0  0  0  0999 V2000
   38.7920   27.3550   43.5590 C   0  0  0  0  0  0  0  0  0  0  0  0
   39.4080   26.4780   43.2430 H   0  0  0  0  0  0  0  0  0  0  0  0
   38.8380   27.5020   44.6730 H   0  0  0  0  0  0  0  0  0  0  0  0
   39.5930   30.4400   41.6750 C   0  0  0  0  0  0  0  0  0  0  0  0
   40.9450   30.3990   41.7560 C   0  0  0  0  0  0  0  0  0  0  0  0
   41.2270   28.8530   42.7260 S   0  0  0  0  0  0  0  0  0  0  0  0
   39.3990   28.5360   42.8490 C   0  0  0  0  0  0  0  0  0  0  0  0
   39.0250   29.4470   42.2690 N   0  0  0  0  0  0  0  0  0  0  0  0
   41.6200   31.1270   41.3310 H   0  0  0  0  0  0  0  0  0  0  0  0
   37.0570   32.3090   39.6220 C   0  0  0  0  0  0  0  0  0  0  0  0
   37.7100   31.2330   40.2510 C   0  0  0  0  0  0  0  0  0  0  0  0
   38.8410   31.5140   40.9780 C   0  0  0  0  0  0  0  0  0  0  0  0
   39.2510   32.8250   41.0370 N   0  0  0  0  0  0  0  0  0  0  0  0
   38.5940   33.8100   40.4180 C   0  0  0  0  0  0  0  0  0  0  0  0
   37.5060   33.5600   39.7170 N   0  0  0  0  0  0  0  0  0  0  0  0
   36.1610   32.1170   39.0410 H   0  0  0  0  0  0  0  0  0  0  0  0
   39.1090   34.7520   40.6110 H   0  0  0  0  0  0  0  0  0  0  0  0
   37.1500   29.9530   40.0870 N   0  0  0  0  0  0  0  0  0  0  0  0
   36.6360   29.6790   39.2350 H   0  0  0  0  0  0  0  0  0  0  0  0
   37.2980   29.2940   40.9030 H   0  0  0  0  0  0  0  0  0  0  0  0
   37.3740   27.1720   43.1740 C   0  0  0  0  0  0  0  0  0  0  0  0
   36.9840   28.1800   42.8570 H   0  0  0  0  0  0  0  0  0  0  0  0
   36.7280   26.9030   44.0560 H   0  0  0  0  0  0  0  0  0  0  0  0
   37.0720   26.2330   42.1140 C   0  0  0  0  0  0  0  0  0  0  0  0
   36.9590   24.8780   42.1140 C   0  0  0  0  0  0  0  0  0  0  0  0
   36.6700   24.0610   41.0570 C   0  0  0  0  0  0  0  0  0  0  0  0
   36.4750   24.6960   39.8650 C   0  0  0  0  0  0  0  0  0  0  0  0
   36.5860   26.0860   39.8430 C   0  0  0  0  0  0  0  0  0  0  0  0
   36.8730   26.8470   40.9130 N   0  0  0  0  0  0  0  0  0  0  0  0
   37.1300   24.4370   43.1140 H   0  0  0  0  0  0  0  0  0  0  0  0
   36.6040   22.9970   41.1650 H   0  0  0  0  0  0  0  0  0  0  0  0
   36.2430   24.1670   38.9620 H   0  0  0  0  0  0  0  0  0  0  0  0
   36.3680   26.7530   38.5280 C   0  0  0  0  0  0  0  0  0  0  0  0
   36.8010   26.3780   37.6350 H   0  0  0  0  0  0  0  0  0  0  0  0
   35.6590   27.7870   38.4370 O   0  0  0  0  0  0  0  0  0  0  0  0
  1  3  1  0  0  0  0
  2  1  1  0  0  0  0
  4  5  2  0  0  0  0
  4  8  1  0  0  0  0
  5  6  1  0  0  0  0
  6  7  1  0  0  0  0
  7  1  1  0  0  0  0
  8  7  2  0  0  0  0
  9  5  1  0  0  0  0
 10 15  2  0  0  0  0
 10 11  1  0  0  0  0
 11 12  2  0  0  0  0
 12 13  1  0  0  0  0
 12  4  1  0  0  0  0
 14 17  1  0  0  0  0
 14 13  2  0  0  0  0
 15 14  1  0  0  0  0
 16 10  1  0  0  0  0
 18 11  1  0  0  0  0
 18 20  1  0  0  0  0
 19 18  1  0  0  0  0
 21  1  1  0  0  0  0
 21 23  1  0  0  0  0
 22 21  1  0  0  0  0
 24 25  1  0  0  0  0
 24 21  1  0  0  0  0
 25 30  1  0  0  0  0
 26 31  1  0  0  0  0
 26 25  2  0  0  0  0
 27 26  1  0  0  0  0
 28 27  2  0  0  0  0
 28 29  1  0  0  0  0
 29 24  2  0  0  0  0
 32 27  1  0  0  0  0
 33 28  1  0  0  0  0
 34 33  1  0  0  0  0
 35 33  2  0  0  0  0
M  END
>  <minimizedAffinity>
-5.07918787

$$$$

 OpenBabel03242522173D

 35 37  0  0  0  0  0  0  0  0999 V2000
   33.2680   28.8470   36.2620 C   0  0  0  0  0  0  0  0  0  0  0  0
   33.3480   29.6580   35.4970 H   0  0  0  0  0  0  0  0  0  0  0  0
   33.0370   27.8570   35.7780 H   0  0  0  0  0  0  0  0  0  0  0  0
   36.2210   28.4460   38.4580 C   0  0  0  0  0  0  0  0  0  0  0  0
   37.1760   28.9360   37.6310 C   0  0  0  0  0  0  0  0  0  0  0  0
   36.1950   29.3810   36.1300 S   0  0  0  0  0  0  0  0  0  0  0  0
   34.6180   28.8010   36.9270 C   0  0  0  0  0  0  0  0  0  0  0  0
   35.0440   28.4650   37.9330 N   0  0  0  0  0  0  0  0  0  0  0  0
   38.2270   29.0150   37.8650 H   0  0  0  0  0  0  0  0  0  0  0  0
   36.4010   28.0910   42.1970 C   0  0  0  0  0  0  0  0  0  0  0  0
   36.0990   28.6410   40.9380 C   0  0  0  0  0  0  0  0  0  0  0  0
   36.4980   27.9390   39.8260 C   0  0  0  0  0  0  0  0  0  0  0  0
   37.1610   26.7520   40.0270 N   0  0  0  0  0  0  0  0  0  0  0  0
   37.4230   26.2740   41.2470 C   0  0  0  0  0  0  0  0  0  0  0  0
   37.0480   26.9330   42.3250 N   0  0  0  0  0  0  0  0  0  0  0  0
   36.0980   28.6230   43.0930 H   0  0  0  0  0  0  0  0  0  0  0  0
   37.9540   25.3270   41.1460 H   0  0  0  0  0  0  0  0  0  0  0  0
   35.4120   29.8690   40.9180 N   0  0  0  0  0  0  0  0  0  0  0  0
   35.5230   30.5770   41.6590 H   0  0  0  0  0  0  0  0  0  0  0  0
   34.7740   30.0080   40.0840 H   0  0  0  0  0  0  0  0  0  0  0  0
   32.2000   29.1450   37.2410 C   0  0  0  0  0  0  0  0  0  0  0  0
   32.7040   29.3670   38.2240 H   0  0  0  0  0  0  0  0  0  0  0  0
   31.5670   28.2420   37.4660 H   0  0  0  0  0  0  0  0  0  0  0  0
   31.3000   30.2430   36.9550 C   0  0  0  0  0  0  0  0  0  0  0  0
   30.2880   30.7920   37.6780 C   0  0  0  0  0  0  0  0  0  0  0  0
   29.4790   31.8370   37.3270 C   0  0  0  0  0  0  0  0  0  0  0  0
   29.7280   32.3830   36.1020 C   0  0  0  0  0  0  0  0  0  0  0  0
   30.7610   31.8340   35.3440 C   0  0  0  0  0  0  0  0  0  0  0  0
   31.5320   30.8040   35.7330 N   0  0  0  0  0  0  0  0  0  0  0  0
   30.1480   30.2980   38.6570 H   0  0  0  0  0  0  0  0  0  0  0  0
   28.7050   32.1960   37.9760 H   0  0  0  0  0  0  0  0  0  0  0  0
   29.1630   33.2060   35.7120 H   0  0  0  0  0  0  0  0  0  0  0  0
   31.0120   32.4500   34.0100 C   0  0  0  0  0  0  0  0  0  0  0  0
   31.9950   32.6630   33.6710 H   0  0  0  0  0  0  0  0  0  0  0  0
   30.0610   32.7360   33.2410 O   0  0  0  0  0  0  0  0  0  0  0  0
  1  7  1  0  0  0  0
  1 21  1  0  0  0  0
  2  1  1  0  0  0  0
  3  1  1  0  0  0  0
  4 12  1  0  0  0  0
  5  9  1  0  0  0  0
  5  4  2  0  0  0  0
  6  7  1  0  0  0  0
  6  5  1  0  0  0  0
  7  8  2  0  0  0  0
  8  4  1  0  0  0  0
 10 15  1  0  0  0  0
 10 16  1  0  0  0  0
 11 10  2  0  0  0  0
 12 13  2  0  0  0  0
 12 11  1  0  0  0  0
 13 14  1  0  0  0  0
 14 15  2  0  0  0  0
 17 14  1  0  0  0  0
 18 11  1  0  0  0  0
 18 19  1  0  0  0  0
 20 18  1  0  0  0  0
 21 23  1  0  0  0  0
 21 22  1  0  0  0  0
 24 21  1  0  0  0  0
 24 25  1  0  0  0  0
 25 30  1  0  0  0  0
 26 25  2  0  0  0  0
 26 31  1  0  0  0  0
 27 26  1  0  0  0  0
 28 29  1  0  0  0  0
 28 27  2  0  0  0  0
 29 24  2  0  0  0  0
 32 27  1  0  0  0  0
 33 28  1  0  0  0  0
 34 33  1  0  0  0  0
 35 33  2  0  0  0  0
M  END
>  <minimizedAffinity>
-4.93833208

$$$$
