
 OpenBabel03242523003D

 25 26  0  0  0  0  0  0  0  0999 V2000
   37.1230   29.8300   37.6680 Cl  0  0  0  0  0  0  0  0  0  0  0  0
   37.1050   29.1030   39.2480 C   0  0  0  0  0  0  0  0  0  0  0  0
   37.5230   29.7620   40.3540 C   0  0  0  0  0  0  0  0  0  0  0  0
   37.4590   29.0740   41.5540 C   0  0  0  0  0  0  0  0  0  0  0  0
   37.0060   27.8040   41.6420 C   0  0  0  0  0  0  0  0  0  0  0  0
   36.5840   27.1370   40.5160 C   0  0  0  0  0  0  0  0  0  0  0  0
   36.6400   27.8010   39.3220 C   0  0  0  0  0  0  0  0  0  0  0  0
   37.7890   29.5870   42.4520 H   0  0  0  0  0  0  0  0  0  0  0  0
   36.2120   26.1120   40.5450 H   0  0  0  0  0  0  0  0  0  0  0  0
   36.3020   27.2630   38.4390 H   0  0  0  0  0  0  0  0  0  0  0  0
   37.6470   33.5180   39.9180 C   0  0  0  0  0  0  0  0  0  0  0  0
   37.1520   32.2160   40.0520 C   0  0  0  0  0  0  0  0  0  0  0  0
   38.0010   31.1280   40.2120 C   0  0  0  0  0  0  0  0  0  0  0  0
   39.3250   31.4130   40.2300 N   0  0  0  0  0  0  0  0  0  0  0  0
   39.7940   32.6640   40.1020 C   0  0  0  0  0  0  0  0  0  0  0  0
   38.9680   33.7090   39.9470 N   0  0  0  0  0  0  0  0  0  0  0  0
   36.9880   34.3590   39.7950 H   0  0  0  0  0  0  0  0  0  0  0  0
   36.0750   32.0510   40.0290 H   0  0  0  0  0  0  0  0  0  0  0  0
   41.2300   32.9230   40.1280 C   0  0  0  0  0  0  0  0  0  0  0  0
   41.9660   32.2010   39.8000 H   0  0  0  0  0  0  0  0  0  0  0  0
   41.7050   34.0120   40.5360 O   0  0  0  0  0  0  0  0  0  0  0  0
   36.9400   27.0670   42.9350 C   0  0  0  0  0  0  0  0  0  0  0  0
   36.9410   25.7290   42.6680 F   0  0  0  0  0  0  0  0  0  0  0  0
   35.8290   27.4430   43.6700 F   0  0  0  0  0  0  0  0  0  0  0  0
   38.0740   27.3990   43.6800 F   0  0  0  0  0  0  0  0  0  0  0  0
  1  2  1  0  0  0  0
  2  7  2  0  0  0  0
  2  3  1  0  0  0  0
  3  4  2  0  0  0  0
  4  5  1  0  0  0  0
  4  8  1  0  0  0  0
  5 22  1  0  0  0  0
  6  9  1  0  0  0  0
  6  5  2  0  0  0  0
  7  6  1  0  0  0  0
 10  7  1  0  0  0  0
 11 16  2  0  0  0  0
 11 12  1  0  0  0  0
 12 13  2  0  0  0  0
 13 14  1  0  0  0  0
 13  3  1  0  0  0  0
 15 19  1  0  0  0  0
 15 14  2  0  0  0  0
 16 15  1  0  0  0  0
 17 11  1  0  0  0  0
 18 12  1  0  0  0  0
 19 21  2  0  0  0  0
 20 19  1  0  0  0  0
 22 24  1  0  0  0  0
 22 25  1  0  0  0  0
 23 22  1  0  0  0  0
M  END
>  <minimizedAffinity>
-5.17834949

$$$$

 OpenBabel03242523003D

 25 26  0  0  0  0  0  0  0  0999 V2000
   37.2170   29.3150   37.5200 Cl  0  0  0  0  0  0  0  0  0  0  0  0
   37.1570   28.6730   39.1370 C   0  0  0  0  0  0  0  0  0  0  0  0
   37.4900   29.4100   40.2220 C   0  0  0  0  0  0  0  0  0  0  0  0
   37.4010   28.7860   41.4550 C   0  0  0  0  0  0  0  0  0  0  0  0
   37.0020   27.5020   41.5930 C   0  0  0  0  0  0  0  0  0  0  0  0
   36.6650   26.7560   40.4880 C   0  0  0  0  0  0  0  0  0  0  0  0
   36.7480   27.3570   39.2620 C   0  0  0  0  0  0  0  0  0  0  0  0
   37.6630   29.3620   42.3360 H   0  0  0  0  0  0  0  0  0  0  0  0
   36.3390   25.7170   40.5570 H   0  0  0  0  0  0  0  0  0  0  0  0
   36.4770   26.7560   38.3970 H   0  0  0  0  0  0  0  0  0  0  0  0
   37.4600   33.1570   39.6980 C   0  0  0  0  0  0  0  0  0  0  0  0
   37.0190   31.8430   39.8850 C   0  0  0  0  0  0  0  0  0  0  0  0
   37.9120   30.7880   40.0250 C   0  0  0  0  0  0  0  0  0  0  0  0
   39.2250   31.1180   39.9690 N   0  0  0  0  0  0  0  0  0  0  0  0
   39.6420   32.3810   39.7900 C   0  0  0  0  0  0  0  0  0  0  0  0
   38.7730   33.3940   39.6540 N   0  0  0  0  0  0  0  0  0  0  0  0
   36.7650   33.9720   39.5900 H   0  0  0  0  0  0  0  0  0  0  0  0
   35.9480   31.6410   39.9220 H   0  0  0  0  0  0  0  0  0  0  0  0
   41.0670   32.6890   39.7360 C   0  0  0  0  0  0  0  0  0  0  0  0
   41.4560   33.6160   39.3370 H   0  0  0  0  0  0  0  0  0  0  0  0
   41.9400   31.8880   40.1540 O   0  0  0  0  0  0  0  0  0  0  0  0
   36.9070   26.8340   42.9210 C   0  0  0  0  0  0  0  0  0  0  0  0
   38.0650   27.0680   43.6040 F   0  0  0  0  0  0  0  0  0  0  0  0
   36.6580   25.4790   42.7840 F   0  0  0  0  0  0  0  0  0  0  0  0
   35.8320   27.3960   43.6120 F   0  0  0  0  0  0  0  0  0  0  0  0
  1  2  1  0  0  0  0
  2  7  2  0  0  0  0
  2  3  1  0  0  0  0
  3  4  2  0  0  0  0
  4  5  1  0  0  0  0
  4  8  1  0  0  0  0
  5 22  1  0  0  0  0
  6  9  1  0  0  0  0
  6  5  2  0  0  0  0
  7  6  1  0  0  0  0
 10  7  1  0  0  0  0
 11 12  1  0  0  0  0
 12 18  1  0  0  0  0
 12 13  2  0  0  0  0
 13  3  1  0  0  0  0
 14 13  1  0  0  0  0
 15 14  2  0  0  0  0
 16 11  2  0  0  0  0
 16 15  1  0  0  0  0
 17 11  1  0  0  0  0
 19 15  1  0  0  0  0
 19 21  2  0  0  0  0
 20 19  1  0  0  0  0
 22 23  1  0  0  0  0
 22 25  1  0  0  0  0
 24 22  1  0  0  0  0
M  END
>  <minimizedAffinity>
-4.94684839

$$$$

 OpenBabel03242523003D

 25 26  0  0  0  0  0  0  0  0999 V2000
   39.4760   26.1240   43.5330 Cl  0  0  0  0  0  0  0  0  0  0  0  0
   38.4220   27.1680   42.6220 C   0  0  0  0  0  0  0  0  0  0  0  0
   37.8480   26.7810   41.4590 C   0  0  0  0  0  0  0  0  0  0  0  0
   37.0290   27.7020   40.8280 C   0  0  0  0  0  0  0  0  0  0  0  0
   36.7990   28.9360   41.3300 C   0  0  0  0  0  0  0  0  0  0  0  0
   37.3860   29.3260   42.5110 C   0  0  0  0  0  0  0  0  0  0  0  0
   38.1980   28.4280   43.1480 C   0  0  0  0  0  0  0  0  0  0  0  0
   36.5590   27.4090   39.8950 H   0  0  0  0  0  0  0  0  0  0  0  0
   37.2270   30.3120   42.9490 H   0  0  0  0  0  0  0  0  0  0  0  0
   38.6550   28.7490   44.0820 H   0  0  0  0  0  0  0  0  0  0  0  0
   37.6750   23.0550   40.8270 C   0  0  0  0  0  0  0  0  0  0  0  0
   37.3840   24.3270   41.3300 C   0  0  0  0  0  0  0  0  0  0  0  0
   38.1220   25.4440   40.9570 C   0  0  0  0  0  0  0  0  0  0  0  0
   39.1310   25.2160   40.0830 N   0  0  0  0  0  0  0  0  0  0  0  0
   39.4060   23.9930   39.6030 C   0  0  0  0  0  0  0  0  0  0  0  0
   38.6890   22.9200   39.9690 N   0  0  0  0  0  0  0  0  0  0  0  0
   37.1010   22.1920   41.1160 H   0  0  0  0  0  0  0  0  0  0  0  0
   36.5570   24.4460   42.0310 H   0  0  0  0  0  0  0  0  0  0  0  0
   40.5040   23.7960   38.6630 C   0  0  0  0  0  0  0  0  0  0  0  0
   40.7100   22.8470   38.1860 H   0  0  0  0  0  0  0  0  0  0  0  0
   41.2870   24.7260   38.3460 O   0  0  0  0  0  0  0  0  0  0  0  0
   35.9180   29.9250   40.6480 C   0  0  0  0  0  0  0  0  0  0  0  0
   34.6670   29.3900   40.5500 F   0  0  0  0  0  0  0  0  0  0  0  0
   36.4240   30.2760   39.4090 F   0  0  0  0  0  0  0  0  0  0  0  0
   35.8760   31.0790   41.4330 F   0  0  0  0  0  0  0  0  0  0  0  0
  2  7  1  0  0  0  0
  2  1  1  0  0  0  0
  3  2  2  0  0  0  0
  4  5  2  0  0  0  0
  4  3  1  0  0  0  0
  5  6  1  0  0  0  0
  6  9  1  0  0  0  0
  6  7  2  0  0  0  0
  7 10  1  0  0  0  0
  8  4  1  0  0  0  0
 11 17  1  0  0  0  0
 11 12  1  0  0  0  0
 12 18  1  0  0  0  0
 13 12  2  0  0  0  0
 13  3  1  0  0  0  0
 14 13  1  0  0  0  0
 15 16  1  0  0  0  0
 15 14  2  0  0  0  0
 16 11  2  0  0  0  0
 19 15  1  0  0  0  0
 20 19  1  0  0  0  0
 21 19  2  0  0  0  0
 22  5  1  0  0  0  0
 22 25  1  0  0  0  0
 23 22  1  0  0  0  0
 24 22  1  0  0  0  0
M  END
>  <minimizedAffinity>
-4.72924328

$$$$

 OpenBabel03242523003D

 25 26  0  0  0  0  0  0  0  0999 V2000
   37.5070   31.1110   38.5250 Cl  0  0  0  0  0  0  0  0  0  0  0  0
   37.3160   29.8820   39.7410 C   0  0  0  0  0  0  0  0  0  0  0  0
   36.3600   28.9280   39.6640 C   0  0  0  0  0  0  0  0  0  0  0  0
   36.3110   28.0050   40.6950 C   0  0  0  0  0  0  0  0  0  0  0  0
   37.1670   28.0350   41.7400 C   0  0  0  0  0  0  0  0  0  0  0  0
   38.1370   29.0070   41.8160 C   0  0  0  0  0  0  0  0  0  0  0  0
   38.2000   29.9270   40.8060 C   0  0  0  0  0  0  0  0  0  0  0  0
   35.5510   27.2310   40.6490 H   0  0  0  0  0  0  0  0  0  0  0  0
   38.8460   29.0670   42.6430 H   0  0  0  0  0  0  0  0  0  0  0  0
   38.9720   30.6890   40.8780 H   0  0  0  0  0  0  0  0  0  0  0  0
   33.2440   29.0000   37.5190 C   0  0  0  0  0  0  0  0  0  0  0  0
   34.0790   28.9970   38.6420 C   0  0  0  0  0  0  0  0  0  0  0  0
   35.4620   28.9330   38.5200 C   0  0  0  0  0  0  0  0  0  0  0  0
   35.9380   28.8740   37.2530 N   0  0  0  0  0  0  0  0  0  0  0  0
   35.1320   28.8780   36.1800 C   0  0  0  0  0  0  0  0  0  0  0  0
   33.7980   28.9390   36.3060 N   0  0  0  0  0  0  0  0  0  0  0  0
   32.1730   29.0510   37.6170 H   0  0  0  0  0  0  0  0  0  0  0  0
   33.6350   29.0470   39.6360 H   0  0  0  0  0  0  0  0  0  0  0  0
   35.6910   28.8130   34.8340 C   0  0  0  0  0  0  0  0  0  0  0  0
   35.0810   28.8170   33.9410 H   0  0  0  0  0  0  0  0  0  0  0  0
   36.9280   28.7500   34.6270 O   0  0  0  0  0  0  0  0  0  0  0  0
   37.1110   27.0410   42.8480 C   0  0  0  0  0  0  0  0  0  0  0  0
   38.1700   27.2630   43.6800 F   0  0  0  0  0  0  0  0  0  0  0  0
   37.1050   25.7460   42.3590 F   0  0  0  0  0  0  0  0  0  0  0  0
   35.9170   27.2370   43.5450 F   0  0  0  0  0  0  0  0  0  0  0  0
  1  2  1  0  0  0  0
  2  7  1  0  0  0  0
  3  2  2  0  0  0  0
  3  4  1  0  0  0  0
  4  5  2  0  0  0  0
  5  6  1  0  0  0  0
  5 22  1  0  0  0  0
  6  9  1  0  0  0  0
  7 10  1  0  0  0  0
  7  6  2  0  0  0  0
  8  4  1  0  0  0  0
 11 17  1  0  0  0  0
 11 12  1  0  0  0  0
 12 18  1  0  0  0  0
 13 12  2  0  0  0  0
 13  3  1  0  0  0  0
 14 13  1  0  0  0  0
 15 16  1  0  0  0  0
 15 14  2  0  0  0  0
 16 11  2  0  0  0  0
 19 15  1  0  0  0  0
 20 19  1  0  0  0  0
 21 19  2  0  0  0  0
 22 25  1  0  0  0  0
 22 23  1  0  0  0  0
 24 22  1  0  0  0  0
M  END
>  <minimizedAffinity>
-4.71680546

$$$$

 OpenBabel03242523003D

 25 26  0  0  0  0  0  0  0  0999 V2000
   36.0100   27.8720   38.7660 Cl  0  0  0  0  0  0  0  0  0  0  0  0
   36.7160   29.4000   39.2060 C   0  0  0  0  0  0  0  0  0  0  0  0
   37.3940   29.5790   40.3630 C   0  0  0  0  0  0  0  0  0  0  0  0
   37.9100   30.8420   40.5990 C   0  0  0  0  0  0  0  0  0  0  0  0
   37.7560   31.8650   39.7280 C   0  0  0  0  0  0  0  0  0  0  0  0
   37.0650   31.6800   38.5530 C   0  0  0  0  0  0  0  0  0  0  0  0
   36.5500   30.4380   38.3050 C   0  0  0  0  0  0  0  0  0  0  0  0
   38.4570   31.0040   41.5220 H   0  0  0  0  0  0  0  0  0  0  0  0
   36.9190   32.4790   37.8260 H   0  0  0  0  0  0  0  0  0  0  0  0
   36.0070   30.3040   37.3720 H   0  0  0  0  0  0  0  0  0  0  0  0
   36.7920   27.0730   43.1340 C   0  0  0  0  0  0  0  0  0  0  0  0
   36.6250   28.1690   42.2800 C   0  0  0  0  0  0  0  0  0  0  0  0
   37.5360   28.4500   41.2690 C   0  0  0  0  0  0  0  0  0  0  0  0
   38.5850   27.5990   41.1710 N   0  0  0  0  0  0  0  0  0  0  0  0
   38.7410   26.5490   41.9930 C   0  0  0  0  0  0  0  0  0  0  0  0
   37.8560   26.2850   42.9670 N   0  0  0  0  0  0  0  0  0  0  0  0
   36.0840   26.8580   43.9150 H   0  0  0  0  0  0  0  0  0  0  0  0
   35.7580   28.8180   42.4090 H   0  0  0  0  0  0  0  0  0  0  0  0
   39.8880   25.6590   41.8490 C   0  0  0  0  0  0  0  0  0  0  0  0
   39.7960   24.6180   41.5730 H   0  0  0  0  0  0  0  0  0  0  0  0
   41.0660   26.0520   42.0380 O   0  0  0  0  0  0  0  0  0  0  0  0
   38.3120   33.2230   39.9850 C   0  0  0  0  0  0  0  0  0  0  0  0
   39.4180   33.3900   39.2040 F   0  0  0  0  0  0  0  0  0  0  0  0
   38.6000   33.4010   41.3270 F   0  0  0  0  0  0  0  0  0  0  0  0
   37.3400   34.1610   39.6310 F   0  0  0  0  0  0  0  0  0  0  0  0
  1  2  1  0  0  0  0
  2  3  1  0  0  0  0
  3  4  2  0  0  0  0
  3 13  1  0  0  0  0
  4  8  1  0  0  0  0
  5 22  1  0  0  0  0
  5  4  1  0  0  0  0
  6  5  2  0  0  0  0
  7  6  1  0  0  0  0
  7  2  2  0  0  0  0
  9  6  1  0  0  0  0
 10  7  1  0  0  0  0
 11 17  1  0  0  0  0
 12 18  1  0  0  0  0
 12 11  2  0  0  0  0
 13 12  1  0  0  0  0
 14 13  2  0  0  0  0
 14 15  1  0  0  0  0
 15 16  2  0  0  0  0
 16 11  1  0  0  0  0
 19 15  1  0  0  0  0
 19 21  2  0  0  0  0
 20 19  1  0  0  0  0
 22 24  1  0  0  0  0
 23 22  1  0  0  0  0
 25 22  1  0  0  0  0
M  END
>  <minimizedAffinity>
-4.63608837

$$$$

 OpenBabel03242523003D

 25 26  0  0  0  0  0  0  0  0999 V2000
   39.3390   30.1330   39.8750 Cl  0  0  0  0  0  0  0  0  0  0  0  0
   37.7540   29.6440   39.3490 C   0  0  0  0  0  0  0  0  0  0  0  0
   37.0040   28.7540   40.0390 C   0  0  0  0  0  0  0  0  0  0  0  0
   35.7590   28.4450   39.5170 C   0  0  0  0  0  0  0  0  0  0  0  0
   35.2930   28.9950   38.3730 C   0  0  0  0  0  0  0  0  0  0  0  0
   36.0590   29.8980   37.6740 C   0  0  0  0  0  0  0  0  0  0  0  0
   37.2910   30.2140   38.1750 C   0  0  0  0  0  0  0  0  0  0  0  0
   35.1430   27.7330   40.0570 H   0  0  0  0  0  0  0  0  0  0  0  0
   35.7190   30.3630   36.7470 H   0  0  0  0  0  0  0  0  0  0  0  0
   37.8860   30.9300   37.6130 H   0  0  0  0  0  0  0  0  0  0  0  0
   37.8520   28.1700   43.6800 C   0  0  0  0  0  0  0  0  0  0  0  0
   37.3160   28.7400   42.5200 C   0  0  0  0  0  0  0  0  0  0  0  0
   37.5450   28.1890   41.2650 C   0  0  0  0  0  0  0  0  0  0  0  0
   38.3150   27.0740   41.2440 N   0  0  0  0  0  0  0  0  0  0  0  0
   38.8270   26.5320   42.3600 C   0  0  0  0  0  0  0  0  0  0  0  0
   38.6010   27.0710   43.5680 N   0  0  0  0  0  0  0  0  0  0  0  0
   37.6720   28.5980   44.6500 H   0  0  0  0  0  0  0  0  0  0  0  0
   36.7030   29.6380   42.6020 H   0  0  0  0  0  0  0  0  0  0  0  0
   39.6510   25.3300   42.2890 C   0  0  0  0  0  0  0  0  0  0  0  0
   40.3070   25.1130   41.4570 H   0  0  0  0  0  0  0  0  0  0  0  0
   39.6490   24.4640   43.1990 O   0  0  0  0  0  0  0  0  0  0  0  0
   33.9540   28.6600   37.8140 C   0  0  0  0  0  0  0  0  0  0  0  0
   33.0010   29.1890   38.6360 F   0  0  0  0  0  0  0  0  0  0  0  0
   33.8000   27.2930   37.6630 F   0  0  0  0  0  0  0  0  0  0  0  0
   33.8570   29.2400   36.5480 F   0  0  0  0  0  0  0  0  0  0  0  0
  2  1  1  0  0  0  0
  2  3  1  0  0  0  0
  3 13  1  0  0  0  0
  4  3  2  0  0  0  0
  4  8  1  0  0  0  0
  5  4  1  0  0  0  0
  6  7  1  0  0  0  0
  6  5  2  0  0  0  0
  7  2  2  0  0  0  0
  9  6  1  0  0  0  0
 10  7  1  0  0  0  0
 11 17  1  0  0  0  0
 12 18  1  0  0  0  0
 12 11  2  0  0  0  0
 13 12  1  0  0  0  0
 14 13  2  0  0  0  0
 14 15  1  0  0  0  0
 15 16  2  0  0  0  0
 16 11  1  0  0  0  0
 19 15  1  0  0  0  0
 19 21  2  0  0  0  0
 20 19  1  0  0  0  0
 22  5  1  0  0  0  0
 22 23  1  0  0  0  0
 24 22  1  0  0  0  0
 25 22  1  0  0  0  0
M  END
>  <minimizedAffinity>
-4.63333225

$$$$

 OpenBabel03242523003D

 25 26  0  0  0  0  0  0  0  0999 V2000
   36.0060   26.2680   38.8450 Cl  0  0  0  0  0  0  0  0  0  0  0  0
   36.5470   27.8990   38.5710 C   0  0  0  0  0  0  0  0  0  0  0  0
   37.1550   28.6320   39.5320 C   0  0  0  0  0  0  0  0  0  0  0  0
   37.5400   29.9180   39.1900 C   0  0  0  0  0  0  0  0  0  0  0  0
   37.3280   30.4380   37.9600 C   0  0  0  0  0  0  0  0  0  0  0  0
   36.7090   29.6900   36.9860 C   0  0  0  0  0  0  0  0  0  0  0  0
   36.3230   28.4180   37.3070 C   0  0  0  0  0  0  0  0  0  0  0  0
   38.0290   30.5200   39.9480 H   0  0  0  0  0  0  0  0  0  0  0  0
   36.5200   30.0730   35.9830 H   0  0  0  0  0  0  0  0  0  0  0  0
   35.8350   27.8370   36.5270 H   0  0  0  0  0  0  0  0  0  0  0  0
   36.6800   27.5500   43.1260 C   0  0  0  0  0  0  0  0  0  0  0  0
   36.4480   28.1410   41.8800 C   0  0  0  0  0  0  0  0  0  0  0  0
   37.3630   28.0310   40.8400 C   0  0  0  0  0  0  0  0  0  0  0  0
   38.4820   27.3190   41.1150 N   0  0  0  0  0  0  0  0  0  0  0  0
   38.7000   26.7540   42.3130 C   0  0  0  0  0  0  0  0  0  0  0  0
   37.8110   26.8660   43.3120 N   0  0  0  0  0  0  0  0  0  0  0  0
   35.9690   27.6360   43.9290 H   0  0  0  0  0  0  0  0  0  0  0  0
   35.5260   28.7020   41.7190 H   0  0  0  0  0  0  0  0  0  0  0  0
   39.9210   25.9960   42.5630 C   0  0  0  0  0  0  0  0  0  0  0  0
   40.8830   26.2780   42.1590 H   0  0  0  0  0  0  0  0  0  0  0  0
   39.9300   24.9590   43.2720 O   0  0  0  0  0  0  0  0  0  0  0  0
   37.7430   31.8210   37.5960 C   0  0  0  0  0  0  0  0  0  0  0  0
   37.0380   32.6990   38.3680 F   0  0  0  0  0  0  0  0  0  0  0  0
   37.5570   32.0620   36.2460 F   0  0  0  0  0  0  0  0  0  0  0  0
   39.1070   31.9490   37.8660 F   0  0  0  0  0  0  0  0  0  0  0  0
  2  1  1  0  0  0  0
  2  3  1  0  0  0  0
  3 13  1  0  0  0  0
  4  3  2  0  0  0  0
  4  8  1  0  0  0  0
  5  4  1  0  0  0  0
  6  7  1  0  0  0  0
  6  5  2  0  0  0  0
  7  2  2  0  0  0  0
  9  6  1  0  0  0  0
 10  7  1  0  0  0  0
 11 16  1  0  0  0  0
 11 17  1  0  0  0  0
 12 11  2  0  0  0  0
 13 14  2  0  0  0  0
 13 12  1  0  0  0  0
 14 15  1  0  0  0  0
 15 19  1  0  0  0  0
 15 16  2  0  0  0  0
 18 12  1  0  0  0  0
 19 21  2  0  0  0  0
 20 19  1  0  0  0  0
 22 25  1  0  0  0  0
 22  5  1  0  0  0  0
 22 23  1  0  0  0  0
 24 22  1  0  0  0  0
M  END
>  <minimizedAffinity>
-4.52544928

$$$$

 OpenBabel03242523003D

 25 26  0  0  0  0  0  0  0  0999 V2000
   40.5840   27.1430   43.1680 Cl  0  0  0  0  0  0  0  0  0  0  0  0
   39.5470   28.3050   42.3920 C   0  0  0  0  0  0  0  0  0  0  0  0
   38.4710   27.9390   41.6570 C   0  0  0  0  0  0  0  0  0  0  0  0
   37.7230   28.9570   41.0900 C   0  0  0  0  0  0  0  0  0  0  0  0
   38.0340   30.2630   41.2490 C   0  0  0  0  0  0  0  0  0  0  0  0
   39.1290   30.6320   41.9950 C   0  0  0  0  0  0  0  0  0  0  0  0
   39.8790   29.6390   42.5620 C   0  0  0  0  0  0  0  0  0  0  0  0
   36.8560   28.6820   40.4980 H   0  0  0  0  0  0  0  0  0  0  0  0
   39.4130   31.6740   42.1460 H   0  0  0  0  0  0  0  0  0  0  0  0
   40.7410   29.9430   43.1510 H   0  0  0  0  0  0  0  0  0  0  0  0
   36.9480   24.5050   42.1080 C   0  0  0  0  0  0  0  0  0  0  0  0
   37.2090   25.8700   42.2720 C   0  0  0  0  0  0  0  0  0  0  0  0
   38.1740   26.5220   41.5150 C   0  0  0  0  0  0  0  0  0  0  0  0
   38.8370   25.7530   40.6180 N   0  0  0  0  0  0  0  0  0  0  0  0
   38.5830   24.4440   40.4660 C   0  0  0  0  0  0  0  0  0  0  0  0
   37.6490   23.8210   41.2010 N   0  0  0  0  0  0  0  0  0  0  0  0
   36.2000   24.0020   42.6950 H   0  0  0  0  0  0  0  0  0  0  0  0
   36.6400   26.4350   43.0100 H   0  0  0  0  0  0  0  0  0  0  0  0
   39.3230   23.6550   39.4860 C   0  0  0  0  0  0  0  0  0  0  0  0
   40.3860   23.7640   39.3230 H   0  0  0  0  0  0  0  0  0  0  0  0
   38.7650   22.7920   38.7650 O   0  0  0  0  0  0  0  0  0  0  0  0
   37.2280   31.3560   40.6370 C   0  0  0  0  0  0  0  0  0  0  0  0
   37.1560   31.1360   39.2920 F   0  0  0  0  0  0  0  0  0  0  0  0
   37.7660   32.5980   40.9250 F   0  0  0  0  0  0  0  0  0  0  0  0
   35.9470   31.3090   41.1900 F   0  0  0  0  0  0  0  0  0  0  0  0
  2  7  1  0  0  0  0
  2  1  1  0  0  0  0
  3  2  2  0  0  0  0
  4  5  2  0  0  0  0
  4  3  1  0  0  0  0
  5  6  1  0  0  0  0
  6  9  1  0  0  0  0
  6  7  2  0  0  0  0
  7 10  1  0  0  0  0
  8  4  1  0  0  0  0
 11 12  1  0  0  0  0
 11 17  1  0  0  0  0
 12 18  1  0  0  0  0
 13  3  1  0  0  0  0
 13 12  2  0  0  0  0
 14 13  1  0  0  0  0
 15 14  2  0  0  0  0
 15 16  1  0  0  0  0
 16 11  2  0  0  0  0
 19 15  1  0  0  0  0
 20 19  1  0  0  0  0
 21 19  2  0  0  0  0
 22 24  1  0  0  0  0
 22 25  1  0  0  0  0
 22  5  1  0  0  0  0
 23 22  1  0  0  0  0
M  END
>  <minimizedAffinity>
-4.46735668

$$$$

 OpenBabel03242523003D

 25 26  0  0  0  0  0  0  0  0999 V2000
   36.0970   25.1610   37.7160 Cl  0  0  0  0  0  0  0  0  0  0  0  0
   36.3640   26.1210   39.1420 C   0  0  0  0  0  0  0  0  0  0  0  0
   36.0380   27.4320   39.2040 C   0  0  0  0  0  0  0  0  0  0  0  0
   36.3000   28.0880   40.3960 C   0  0  0  0  0  0  0  0  0  0  0  0
   36.8550   27.4680   41.4610 C   0  0  0  0  0  0  0  0  0  0  0  0
   37.1870   26.1350   41.3940 C   0  0  0  0  0  0  0  0  0  0  0  0
   36.9350   25.4720   40.2240 C   0  0  0  0  0  0  0  0  0  0  0  0
   36.0440   29.1410   40.4640 H   0  0  0  0  0  0  0  0  0  0  0  0
   37.6370   25.5990   42.2300 H   0  0  0  0  0  0  0  0  0  0  0  0
   37.2010   24.4180   40.1850 H   0  0  0  0  0  0  0  0  0  0  0  0
   33.5280   28.8000   36.7250 C   0  0  0  0  0  0  0  0  0  0  0  0
   34.0680   28.1920   37.8630 C   0  0  0  0  0  0  0  0  0  0  0  0
   35.4410   28.0580   38.0350 C   0  0  0  0  0  0  0  0  0  0  0  0
   36.2090   28.5520   37.0340 N   0  0  0  0  0  0  0  0  0  0  0  0
   35.6850   29.1340   35.9440 C   0  0  0  0  0  0  0  0  0  0  0  0
   34.3580   29.2590   35.7860 N   0  0  0  0  0  0  0  0  0  0  0  0
   32.4650   28.9030   36.5950 H   0  0  0  0  0  0  0  0  0  0  0  0
   33.3970   27.8140   38.6350 H   0  0  0  0  0  0  0  0  0  0  0  0
   36.5530   29.6520   34.8920 C   0  0  0  0  0  0  0  0  0  0  0  0
   37.3290   30.3820   35.0730 H   0  0  0  0  0  0  0  0  0  0  0  0
   36.4500   29.2760   33.6970 O   0  0  0  0  0  0  0  0  0  0  0  0
   37.1360   28.1770   42.7400 C   0  0  0  0  0  0  0  0  0  0  0  0
   36.2500   27.7350   43.6800 F   0  0  0  0  0  0  0  0  0  0  0  0
   37.0710   29.5500   42.5780 F   0  0  0  0  0  0  0  0  0  0  0  0
   38.4370   27.8570   43.1350 F   0  0  0  0  0  0  0  0  0  0  0  0
  1  2  1  0  0  0  0
  2  3  2  0  0  0  0
  2  7  1  0  0  0  0
  3  4  1  0  0  0  0
  4  8  1  0  0  0  0
  4  5  2  0  0  0  0
  5 22  1  0  0  0  0
  6  5  1  0  0  0  0
  6  9  1  0  0  0  0
  7  6  2  0  0  0  0
 10  7  1  0  0  0  0
 11 12  1  0  0  0  0
 12 13  2  0  0  0  0
 12 18  1  0  0  0  0
 13  3  1  0  0  0  0
 14 13  1  0  0  0  0
 15 14  2  0  0  0  0
 16 15  1  0  0  0  0
 16 11  2  0  0  0  0
 17 11  1  0  0  0  0
 19 20  1  0  0  0  0
 19 15  1  0  0  0  0
 21 19  2  0  0  0  0
 22 25  1  0  0  0  0
 22 23  1  0  0  0  0
 24 22  1  0  0  0  0
M  END
>  <minimizedAffinity>
-4.45153379

$$$$
