
 OpenBabel03242511563D

 35 37  0  0  1  0  0  0  0  0999 V2000
   47.1660   34.0740   42.4840 C   0  0  2  0  0  0  0  0  0  0  0  0
   48.5210   34.6790   42.6000 C   0  0  0  0  0  0  0  0  0  0  0  0
   48.8140   35.6640   41.5300 C   0  0  0  0  0  0  0  0  0  0  0  0
   48.6530   35.0570   40.1560 C   0  0  0  0  0  0  0  0  0  0  0  0
   47.3970   34.2470   40.0010 C   0  0  0  0  0  0  0  0  0  0  0  0
   46.4760   34.3360   41.1800 C   0  0  1  0  0  0  0  0  0  0  0  0
   47.3060   32.9620   42.6070 H   0  0  0  0  0  0  0  0  0  0  0  0
   49.3400   33.9320   42.5980 H   0  0  0  0  0  0  0  0  0  0  0  0
   48.5980   35.1920   43.5860 H   0  0  0  0  0  0  0  0  0  0  0  0
   48.2050   36.5780   41.6130 H   0  0  0  0  0  0  0  0  0  0  0  0
   49.8770   35.9880   41.6140 H   0  0  0  0  0  0  0  0  0  0  0  0
   49.5130   34.3330   40.0620 H   0  0  0  0  0  0  0  0  0  0  0  0
   48.8100   35.8160   39.3720 H   0  0  0  0  0  0  0  0  0  0  0  0
   47.6080   33.1830   39.6940 H   0  0  0  0  0  0  0  0  0  0  0  0
   46.8560   34.6700   39.1280 H   0  0  0  0  0  0  0  0  0  0  0  0
   45.9460   35.2920   41.0990 H   0  0  0  0  0  0  0  0  0  0  0  0
   46.2710   34.4680   43.5900 C   0  0  0  0  0  0  0  0  0  0  0  0
   45.5830   35.6620   43.3760 C   0  0  0  0  0  0  0  0  0  0  0  0
   44.6960   36.1440   44.3490 C   0  0  0  0  0  0  0  0  0  0  0  0
   44.5710   35.3630   45.4910 N   0  0  0  0  0  0  0  0  0  0  0  0
   45.2570   34.2110   45.6640 C   0  0  0  0  0  0  0  0  0  0  0  0
   46.1000   33.7790   44.7050 N   0  0  0  0  0  0  0  0  0  0  0  0
   45.5660   36.3850   42.5760 H   0  0  0  0  0  0  0  0  0  0  0  0
   44.0970   37.0310   44.3400 H   0  0  0  0  0  0  0  0  0  0  0  0
   45.1060   33.6580   46.5840 H   0  0  0  0  0  0  0  0  0  0  0  0
   45.4250   33.2640   41.0140 C   0  0  2  0  0  0  0  0  0  0  0  0
   44.5750   33.2930   39.7590 C   0  0  0  0  0  0  0  0  0  0  0  0
   43.9820   33.5660   41.0890 C   0  0  1  0  0  0  0  0  0  0  0  0
   45.7830   32.2530   41.2860 H   0  0  0  0  0  0  0  0  0  0  0  0
   44.3780   32.3520   39.2270 H   0  0  0  0  0  0  0  0  0  0  0  0
   44.7120   34.1980   39.1070 H   0  0  0  0  0  0  0  0  0  0  0  0
   43.5830   34.5580   41.3290 H   0  0  0  0  0  0  0  0  0  0  0  0
   43.1310   32.4410   41.6080 C   0  0  0  0  0  0  0  0  0  0  0  0
   43.5620   31.5510   42.0820 H   0  0  0  0  0  0  0  0  0  0  0  0
   41.9140   32.4800   41.5190 O   0  0  0  0  0  0  0  0  0  0  0  0
  1  2  1  0  0  0  0
  1  7  1  1  0  0  0
  1 17  1  0  0  0  0
  2  9  1  0  0  0  0
  3 10  1  0  0  0  0
  3 11  1  0  0  0  0
  3  2  1  0  0  0  0
  4  3  1  0  0  0  0
  5  4  1  0  0  0  0
  5  6  1  0  0  0  0
  6 16  1  1  0  0  0
  6  1  1  0  0  0  0
  8  2  1  0  0  0  0
 12  4  1  0  0  0  0
 13  4  1  0  0  0  0
 14  5  1  0  0  0  0
 15  5  1  0  0  0  0
 17 22  1  0  0  0  0
 18 17  2  0  0  0  0
 18 19  1  0  0  0  0
 19 20  2  0  0  0  0
 20 21  1  0  0  0  0
 21 25  1  0  0  0  0
 22 21  2  0  0  0  0
 23 18  1  0  0  0  0
 24 19  1  0  0  0  0
 26 28  1  0  0  0  0
 26  6  1  0  0  0  0
 26 29  1  1  0  0  0
 27 26  1  0  0  0  0
 27 28  1  0  0  0  0
 28 32  1  1  0  0  0
 28 33  1  0  0  0  0
 30 27  1  0  0  0  0
 31 27  1  0  0  0  0
 33 34  1  0  0  0  0
 35 33  2  0  0  0  0
M  END
>  <minimizedAffinity>
-5.2378931

>  <minimizedRMSD>
0.183154836

$$$$
