
 OpenBabel03252507253D

 21 22  0  0  0  0  0  0  0  0999 V2000
   45.6360   33.9650   45.4820 C   0  0  0  0  0  0  0  0  0  0  0  0
   44.7100   34.9820   45.7240 C   0  0  0  0  0  0  0  0  0  0  0  0
   44.5020   35.9290   44.6940 C   0  0  0  0  0  0  0  0  0  0  0  0
   45.2110   35.8030   43.5240 N   0  0  0  0  0  0  0  0  0  0  0  0
   46.0950   34.7890   43.3580 C   0  0  0  0  0  0  0  0  0  0  0  0
   46.3060   33.8890   44.3110 N   0  0  0  0  0  0  0  0  0  0  0  0
   44.1600   35.0680   46.6470 H   0  0  0  0  0  0  0  0  0  0  0  0
   43.7980   36.7280   44.8410 H   0  0  0  0  0  0  0  0  0  0  0  0
   46.8180   34.7060   42.0950 C   0  0  0  0  0  0  0  0  0  0  0  0
   48.0100   35.3960   41.9220 C   0  0  0  0  0  0  0  0  0  0  0  0
   48.7690   35.3860   40.7700 C   0  0  0  0  0  0  0  0  0  0  0  0
   48.2400   34.6040   39.7520 C   0  0  0  0  0  0  0  0  0  0  0  0
   47.0520   33.9060   39.9030 C   0  0  0  0  0  0  0  0  0  0  0  0
   46.3360   33.9540   41.0780 N   0  0  0  0  0  0  0  0  0  0  0  0
   48.3750   35.9940   42.7570 H   0  0  0  0  0  0  0  0  0  0  0  0
   49.6730   35.9370   40.7010 H   0  0  0  0  0  0  0  0  0  0  0  0
   48.7710   34.5390   38.8130 H   0  0  0  0  0  0  0  0  0  0  0  0
   46.6310   33.2950   39.1190 H   0  0  0  0  0  0  0  0  0  0  0  0
   45.8700   32.9730   46.5260 C   0  0  0  0  0  0  0  0  0  0  0  0
   46.6620   32.2470   46.4030 H   0  0  0  0  0  0  0  0  0  0  0  0
   45.1670   32.9500   47.5680 O   0  0  0  0  0  0  0  0  0  0  0  0
  1  2  1  0  0  0  0
  1 19  1  0  0  0  0
  2  7  1  0  0  0  0
  3  8  1  0  0  0  0
  3  2  2  0  0  0  0
  4  3  1  0  0  0  0
  5  4  2  0  0  0  0
  5  6  1  0  0  0  0
  6  1  2  0  0  0  0
  9  5  1  0  0  0  0
 10  9  1  0  0  0  0
 10 15  1  0  0  0  0
 11 10  2  0  0  0  0
 12 13  2  0  0  0  0
 12 11  1  0  0  0  0
 13 14  1  0  0  0  0
 14  9  2  0  0  0  0
 16 11  1  0  0  0  0
 17 12  1  0  0  0  0
 18 13  1  0  0  0  0
 19 21  2  0  0  0  0
 20 19  1  0  0  0  0
M  END
>  <minimizedAffinity>
-5.04842043

>  <minimizedRMSD>
0.0983543545

$$$$
