
 OpenBabel03252505023D

 28 29  0  0  1  0  0  0  0  0999 V2000
   46.4620   32.8860   46.5730 C   0  0  2  0  0  0  0  0  0  0  0  0
   46.9700   31.6000   46.0130 C   0  0  0  0  0  0  0  0  0  0  0  0
   46.0440   30.4510   46.0650 C   0  0  0  0  0  0  0  0  0  0  0  0
   45.6530   30.3100   47.5310 C   0  0  0  0  0  0  0  0  0  0  0  0
   44.8540   31.4550   48.0070 C   0  0  0  0  0  0  0  0  0  0  0  0
   45.3220   32.7880   47.4720 C   0  0  0  0  0  0  0  0  0  0  0  0
   47.2890   33.4060   47.0970 H   0  0  0  0  0  0  0  0  0  0  0  0
   47.3770   31.7420   44.9840 H   0  0  0  0  0  0  0  0  0  0  0  0
   47.8780   31.2990   46.6050 H   0  0  0  0  0  0  0  0  0  0  0  0
   46.5540   29.5420   45.7510 H   0  0  0  0  0  0  0  0  0  0  0  0
   45.1540   30.6550   45.4210 H   0  0  0  0  0  0  0  0  0  0  0  0
   46.5810   30.1520   48.0970 H   0  0  0  0  0  0  0  0  0  0  0  0
   44.9610   29.4540   47.5560 H   0  0  0  0  0  0  0  0  0  0  0  0
   43.9990   31.5200   48.6650 H   0  0  0  0  0  0  0  0  0  0  0  0
   44.7610   35.3390   44.3750 C   0  0  0  0  0  0  0  0  0  0  0  0
   45.5670   35.3080   43.2070 C   0  0  0  0  0  0  0  0  0  0  0  0
   46.6810   34.4330   43.2150 C   0  0  0  0  0  0  0  0  0  0  0  0
   46.9210   33.6810   44.3160 N   0  0  0  0  0  0  0  0  0  0  0  0
   46.1210   33.7480   45.4050 C   0  0  0  0  0  0  0  0  0  0  0  0
   45.0370   34.5760   45.4430 N   0  0  0  0  0  0  0  0  0  0  0  0
   43.9110   36.0010   44.3800 H   0  0  0  0  0  0  0  0  0  0  0  0
   45.3740   35.9030   42.3400 H   0  0  0  0  0  0  0  0  0  0  0  0
   47.5410   34.3620   42.0400 C   0  0  0  0  0  0  0  0  0  0  0  0
   47.6190   33.4190   41.5310 H   0  0  0  0  0  0  0  0  0  0  0  0
   48.1570   35.3870   41.6600 O   0  0  0  0  0  0  0  0  0  0  0  0
   44.6310   33.9680   47.8550 N   0  0  0  0  0  0  0  0  0  0  0  0
   43.7970   34.5570   47.5990 H   0  0  0  0  0  0  0  0  0  0  0  0
   45.0860   34.4400   48.6730 H   0  0  0  0  0  0  0  0  0  0  0  0
  1  7  1  1  0  0  0
  1  6  1  0  0  0  0
  2  3  1  0  0  0  0
  2  1  1  0  0  0  0
  2  9  1  0  0  0  0
  3  4  1  0  0  0  0
  4 13  1  0  0  0  0
  4  5  1  0  0  0  0
  4 12  1  0  0  0  0
  5 14  1  0  0  0  0
  6 26  1  0  0  0  0
  6  5  2  0  0  0  0
  8  2  1  0  0  0  0
 10  3  1  0  0  0  0
 11  3  1  0  0  0  0
 15 21  1  0  0  0  0
 15 20  1  0  0  0  0
 16 17  1  0  0  0  0
 16 15  2  0  0  0  0
 17 18  2  0  0  0  0
 18 19  1  0  0  0  0
 19 20  2  0  0  0  0
 19  1  1  0  0  0  0
 22 16  1  0  0  0  0
 23 17  1  0  0  0  0
 24 23  1  0  0  0  0
 25 23  2  0  0  0  0
 26 28  1  0  0  0  0
 27 26  1  0  0  0  0
M  END
>  <minimizedAffinity>
-5.24036932

>  <minimizedRMSD>
0.427627832

$$$$
