
 OpenBabel03252501253D

 29 31  0  0  0  0  0  0  0  0999 V2000
   46.2420   33.1160   44.8420 C   0  0  0  0  0  0  0  0  0  0  0  0
   47.3100   33.6250   44.1240 C   0  0  0  0  0  0  0  0  0  0  0  0
   46.8850   34.0950   42.9300 C   0  0  0  0  0  0  0  0  0  0  0  0
   45.5560   33.8790   42.9050 N   0  0  0  0  0  0  0  0  0  0  0  0
   45.1770   33.2930   44.0540 N   0  0  0  0  0  0  0  0  0  0  0  0
   48.3350   33.6190   44.5210 H   0  0  0  0  0  0  0  0  0  0  0  0
   47.4740   34.5530   42.1450 H   0  0  0  0  0  0  0  0  0  0  0  0
   45.4450   32.5620   40.4100 F   0  0  0  0  0  0  0  0  0  0  0  0
   44.5750   33.5410   40.6740 C   0  0  0  0  0  0  0  0  0  0  0  0
   44.6300   34.1830   41.8900 C   0  0  0  0  0  0  0  0  0  0  0  0
   43.7320   35.2080   42.1850 C   0  0  0  0  0  0  0  0  0  0  0  0
   42.7720   35.6140   41.2920 C   0  0  0  0  0  0  0  0  0  0  0  0
   42.7370   34.9570   40.0800 C   0  0  0  0  0  0  0  0  0  0  0  0
   43.6150   33.9410   39.7680 C   0  0  0  0  0  0  0  0  0  0  0  0
   43.7570   35.7310   43.1440 H   0  0  0  0  0  0  0  0  0  0  0  0
   42.0600   36.4060   41.4880 H   0  0  0  0  0  0  0  0  0  0  0  0
   41.9840   35.2660   39.3650 H   0  0  0  0  0  0  0  0  0  0  0  0
   43.5050   33.3010   38.4630 C   0  0  0  0  0  0  0  0  0  0  0  0
   42.6630   32.7480   38.1230 H   0  0  0  0  0  0  0  0  0  0  0  0
   44.4350   33.3640   37.6170 O   0  0  0  0  0  0  0  0  0  0  0  0
   47.2940   31.0160   47.6400 C   0  0  0  0  0  0  0  0  0  0  0  0
   46.4150   31.4220   48.6670 C   0  0  0  0  0  0  0  0  0  0  0  0
   45.4690   32.4120   48.3920 C   0  0  0  0  0  0  0  0  0  0  0  0
   45.4780   32.9090   47.1320 N   0  0  0  0  0  0  0  0  0  0  0  0
   46.3060   32.5270   46.1620 C   0  0  0  0  0  0  0  0  0  0  0  0
   47.2240   31.5730   46.4140 N   0  0  0  0  0  0  0  0  0  0  0  0
   47.9920   30.2490   47.9330 H   0  0  0  0  0  0  0  0  0  0  0  0
   46.4440   30.9950   49.6660 H   0  0  0  0  0  0  0  0  0  0  0  0
   44.7590   32.7750   49.1350 H   0  0  0  0  0  0  0  0  0  0  0  0
  1 25  1  0  0  0  0
  2  6  1  0  0  0  0
  2  1  1  0  0  0  0
  3  2  2  0  0  0  0
  4  3  1  0  0  0  0
  4  5  1  0  0  0  0
  5  1  2  0  0  0  0
  7  3  1  0  0  0  0
  8  9  1  0  0  0  0
  9 10  1  0  0  0  0
 10 11  2  0  0  0  0
 10  4  1  0  0  0  0
 11 15  1  0  0  0  0
 12 16  1  0  0  0  0
 12 11  1  0  0  0  0
 13 12  2  0  0  0  0
 14 13  1  0  0  0  0
 14  9  2  0  0  0  0
 17 13  1  0  0  0  0
 18 14  1  0  0  0  0
 19 18  1  0  0  0  0
 20 18  2  0  0  0  0
 21 27  1  0  0  0  0
 21 22  1  0  0  0  0
 22 28  1  0  0  0  0
 23 22  2  0  0  0  0
 23 29  1  0  0  0  0
 24 23  1  0  0  0  0
 25 26  1  0  0  0  0
 25 24  2  0  0  0  0
 26 21  2  0  0  0  0
M  END
>  <minimizedAffinity>
-4.71242952

>  <minimizedRMSD>
0.301558375

$$$$
