
 OpenBabel03252509183D

 35 37  0  0  1  0  0  0  0  0999 V2000
   36.5660   26.9020   40.9000 C   0  0  1  0  0  0  0  0  0  0  0  0
   36.5730   26.1470   39.6170 C   0  0  0  0  0  0  0  0  0  0  0  0
   37.1890   24.7850   39.6900 C   0  0  0  0  0  0  0  0  0  0  0  0
   36.7780   24.0150   40.9240 C   0  0  0  0  0  0  0  0  0  0  0  0
   36.8220   24.8570   42.1760 C   0  0  0  0  0  0  0  0  0  0  0  0
   37.5310   26.1840   41.8750 C   0  0  2  0  0  0  0  0  0  0  0  0
   35.5840   26.8050   41.3840 H   0  0  0  0  0  0  0  0  0  0  0  0
   37.1820   26.7240   38.8670 H   0  0  0  0  0  0  0  0  0  0  0  0
   35.5660   26.0310   39.1430 H   0  0  0  0  0  0  0  0  0  0  0  0
   38.3000   24.9040   39.7570 H   0  0  0  0  0  0  0  0  0  0  0  0
   36.9160   24.1880   38.8210 H   0  0  0  0  0  0  0  0  0  0  0  0
   37.4650   23.1470   40.9810 H   0  0  0  0  0  0  0  0  0  0  0  0
   35.7690   23.6160   40.8090 H   0  0  0  0  0  0  0  0  0  0  0  0
   35.8070   25.1310   42.5000 H   0  0  0  0  0  0  0  0  0  0  0  0
   37.4090   24.3690   42.9710 H   0  0  0  0  0  0  0  0  0  0  0  0
   38.5210   26.0400   41.4410 H   0  0  0  0  0  0  0  0  0  0  0  0
   38.1610   30.6210   40.2270 C   0  0  0  0  0  0  0  0  0  0  0  0
   36.8230   30.6810   40.6460 C   0  0  0  0  0  0  0  0  0  0  0  0
   36.1960   29.5170   40.9010 C   0  0  0  0  0  0  0  0  0  0  0  0
   36.8730   28.2920   40.7480 C   0  0  0  0  0  0  0  0  0  0  0  0
   38.5310   28.8240   40.2000 S   0  0  0  0  0  0  0  0  0  0  0  0
   36.3030   31.6190   40.7630 H   0  0  0  0  0  0  0  0  0  0  0  0
   35.1810   29.3580   41.2300 H   0  0  0  0  0  0  0  0  0  0  0  0
   40.6420   33.0120   38.8230 C   0  0  0  0  0  0  0  0  0  0  0  0
   40.3340   34.1580   39.5730 C   0  0  0  0  0  0  0  0  0  0  0  0
   39.2950   34.0670   40.5230 C   0  0  0  0  0  0  0  0  0  0  0  0
   38.6500   32.8680   40.6570 N   0  0  0  0  0  0  0  0  0  0  0  0
   38.9910   31.7940   39.9060 C   0  0  0  0  0  0  0  0  0  0  0  0
   39.9880   31.8670   38.9880 N   0  0  0  0  0  0  0  0  0  0  0  0
   41.4310   33.0720   38.0980 H   0  0  0  0  0  0  0  0  0  0  0  0
   40.8690   35.0720   39.4290 H   0  0  0  0  0  0  0  0  0  0  0  0
   39.0210   34.9080   41.1200 H   0  0  0  0  0  0  0  0  0  0  0  0
   37.5470   26.9840   43.1320 C   0  0  0  0  0  0  0  0  0  0  0  0
   36.5680   27.2170   43.5660 H   0  0  0  0  0  0  0  0  0  0  0  0
   38.5760   27.3770   43.6750 O   0  0  0  0  0  0  0  0  0  0  0  0
  1  7  1  1  0  0  0
  1  6  1  0  0  0  0
  2  3  1  0  0  0  0
  2  1  1  0  0  0  0
  3 10  1  0  0  0  0
  3  4  1  0  0  0  0
  4 12  1  0  0  0  0
  4  5  1  0  0  0  0
  5 14  1  0  0  0  0
  5 15  1  0  0  0  0
  6 16  1  6  0  0  0
  6  5  1  0  0  0  0
  6 33  1  0  0  0  0
  8  2  1  0  0  0  0
  9  2  1  0  0  0  0
 11  3  1  0  0  0  0
 13  4  1  0  0  0  0
 17 18  2  0  0  0  0
 18 22  1  0  0  0  0
 18 19  1  0  0  0  0
 19 23  1  0  0  0  0
 20  1  1  0  0  0  0
 20 19  2  0  0  0  0
 21 17  1  0  0  0  0
 21 20  1  0  0  0  0
 24 29  2  0  0  0  0
 24 25  1  0  0  0  0
 25 26  2  0  0  0  0
 26 27  1  0  0  0  0
 26 32  1  0  0  0  0
 28 17  1  0  0  0  0
 28 27  2  0  0  0  0
 29 28  1  0  0  0  0
 30 24  1  0  0  0  0
 31 25  1  0  0  0  0
 33 34  1  0  0  0  0
 33 35  2  0  0  0  0
M  END
>  <minimizedAffinity>
-4.89241648

$$$$

 OpenBabel03252509183D

 35 37  0  0  1  0  0  0  0  0999 V2000
   37.5310   25.7990   41.5960 C   0  0  1  0  0  0  0  0  0  0  0  0
   36.7210   25.2480   40.4740 C   0  0  0  0  0  0  0  0  0  0  0  0
   37.3600   24.1180   39.7310 C   0  0  0  0  0  0  0  0  0  0  0  0
   38.0230   23.1110   40.6420 C   0  0  0  0  0  0  0  0  0  0  0  0
   38.8380   23.7620   41.7330 C   0  0  0  0  0  0  0  0  0  0  0  0
   38.9750   25.2630   41.4420 C   0  0  2  0  0  0  0  0  0  0  0  0
   37.1910   25.3680   42.5480 H   0  0  0  0  0  0  0  0  0  0  0  0
   36.5580   26.0660   39.7180 H   0  0  0  0  0  0  0  0  0  0  0  0
   35.6930   24.9170   40.7660 H   0  0  0  0  0  0  0  0  0  0  0  0
   38.1750   24.5350   39.0870 H   0  0  0  0  0  0  0  0  0  0  0  0
   36.6250   23.5850   39.1280 H   0  0  0  0  0  0  0  0  0  0  0  0
   38.6450   22.4720   39.9830 H   0  0  0  0  0  0  0  0  0  0  0  0
   37.2780   22.4620   41.1050 H   0  0  0  0  0  0  0  0  0  0  0  0
   38.3200   23.6950   42.7010 H   0  0  0  0  0  0  0  0  0  0  0  0
   39.8640   23.3610   41.7670 H   0  0  0  0  0  0  0  0  0  0  0  0
   39.3830   25.4600   40.4510 H   0  0  0  0  0  0  0  0  0  0  0  0
   37.6300   29.8700   41.1030 C   0  0  0  0  0  0  0  0  0  0  0  0
   37.1980   29.4980   42.3850 C   0  0  0  0  0  0  0  0  0  0  0  0
   37.1300   28.1820   42.6620 C   0  0  0  0  0  0  0  0  0  0  0  0
   37.4830   27.2270   41.6890 C   0  0  0  0  0  0  0  0  0  0  0  0
   37.9510   28.2690   40.2660 S   0  0  0  0  0  0  0  0  0  0  0  0
   36.9260   30.2280   43.1300 H   0  0  0  0  0  0  0  0  0  0  0  0
   36.8260   27.7030   43.5800 H   0  0  0  0  0  0  0  0  0  0  0  0
   37.2130   33.1750   39.4450 C   0  0  0  0  0  0  0  0  0  0  0  0
   38.3100   33.8640   39.9860 C   0  0  0  0  0  0  0  0  0  0  0  0
   39.1430   33.1740   40.8910 C   0  0  0  0  0  0  0  0  0  0  0  0
   38.8330   31.8760   41.1880 N   0  0  0  0  0  0  0  0  0  0  0  0
   37.7610   31.2610   40.6350 C   0  0  0  0  0  0  0  0  0  0  0  0
   36.9500   31.9120   39.7630 N   0  0  0  0  0  0  0  0  0  0  0  0
   36.5730   33.6930   38.7560 H   0  0  0  0  0  0  0  0  0  0  0  0
   38.5080   34.8800   39.7210 H   0  0  0  0  0  0  0  0  0  0  0  0
   39.9910   33.6510   41.3310 H   0  0  0  0  0  0  0  0  0  0  0  0
   39.7780   25.8660   42.5430 C   0  0  0  0  0  0  0  0  0  0  0  0
   40.3410   26.7700   42.2870 H   0  0  0  0  0  0  0  0  0  0  0  0
   39.8310   25.4030   43.6790 O   0  0  0  0  0  0  0  0  0  0  0  0
  1 20  1  0  0  0  0
  1  7  1  1  0  0  0
  2  9  1  0  0  0  0
  2  1  1  0  0  0  0
  3  2  1  0  0  0  0
  3  4  1  0  0  0  0
  4 13  1  0  0  0  0
  4  5  1  0  0  0  0
  5 15  1  0  0  0  0
  5 14  1  0  0  0  0
  6 16  1  6  0  0  0
  6  1  1  0  0  0  0
  6  5  1  0  0  0  0
  6 33  1  0  0  0  0
  8  2  1  0  0  0  0
 10  3  1  0  0  0  0
 11  3  1  0  0  0  0
 12  4  1  0  0  0  0
 17 18  2  0  0  0  0
 18 19  1  0  0  0  0
 18 22  1  0  0  0  0
 19 23  1  0  0  0  0
 20 19  2  0  0  0  0
 21 17  1  0  0  0  0
 21 20  1  0  0  0  0
 24 29  2  0  0  0  0
 24 25  1  0  0  0  0
 25 26  2  0  0  0  0
 26 27  1  0  0  0  0
 26 32  1  0  0  0  0
 28 17  1  0  0  0  0
 28 27  2  0  0  0  0
 29 28  1  0  0  0  0
 30 24  1  0  0  0  0
 31 25  1  0  0  0  0
 33 35  2  0  0  0  0
 34 33  1  0  0  0  0
M  END
>  <minimizedAffinity>
-4.87805271

$$$$

 OpenBabel03252509183D

 35 37  0  0  1  0  0  0  0  0999 V2000
   38.3530   26.1260   41.9750 C   0  0  1  0  0  0  0  0  0  0  0  0
   36.9480   25.6320   41.9530 C   0  0  0  0  0  0  0  0  0  0  0  0
   36.7060   24.4620   41.0530 C   0  0  0  0  0  0  0  0  0  0  0  0
   37.7890   23.4120   41.1420 C   0  0  0  0  0  0  0  0  0  0  0  0
   39.1770   24.0060   41.1370 C   0  0  0  0  0  0  0  0  0  0  0  0
   39.0930   25.4950   40.7710 C   0  0  2  0  0  0  0  0  0  0  0  0
   38.8780   25.7190   42.8490 H   0  0  0  0  0  0  0  0  0  0  0  0
   36.2860   26.4590   41.5740 H   0  0  0  0  0  0  0  0  0  0  0  0
   36.5360   25.3700   42.9590 H   0  0  0  0  0  0  0  0  0  0  0  0
   36.7140   24.8230   39.9940 H   0  0  0  0  0  0  0  0  0  0  0  0
   35.7580   23.9800   41.2890 H   0  0  0  0  0  0  0  0  0  0  0  0
   37.6230   22.7330   40.2810 H   0  0  0  0  0  0  0  0  0  0  0  0
   37.6710   22.8140   42.0470 H   0  0  0  0  0  0  0  0  0  0  0  0
   39.6210   23.9740   42.1420 H   0  0  0  0  0  0  0  0  0  0  0  0
   39.8150   23.5370   40.3700 H   0  0  0  0  0  0  0  0  0  0  0  0
   38.5690   25.6650   39.8310 H   0  0  0  0  0  0  0  0  0  0  0  0
   38.3280   30.1730   41.3050 C   0  0  0  0  0  0  0  0  0  0  0  0
   38.8240   29.8450   42.5760 C   0  0  0  0  0  0  0  0  0  0  0  0
   38.8820   28.5410   42.9050 C   0  0  0  0  0  0  0  0  0  0  0  0
   38.4570   27.5540   41.9950 C   0  0  0  0  0  0  0  0  0  0  0  0
   37.9320   28.5460   40.5550 S   0  0  0  0  0  0  0  0  0  0  0  0
   39.1490   30.6000   43.2740 H   0  0  0  0  0  0  0  0  0  0  0  0
   39.2300   28.0940   43.8240 H   0  0  0  0  0  0  0  0  0  0  0  0
   37.2000   33.3260   39.6810 C   0  0  0  0  0  0  0  0  0  0  0  0
   38.2880   34.1610   39.9800 C   0  0  0  0  0  0  0  0  0  0  0  0
   39.3570   33.6160   40.7210 C   0  0  0  0  0  0  0  0  0  0  0  0
   39.2700   32.3060   41.1040 N   0  0  0  0  0  0  0  0  0  0  0  0
   38.1960   31.5460   40.7870 C   0  0  0  0  0  0  0  0  0  0  0  0
   37.1600   32.0570   40.0750 N   0  0  0  0  0  0  0  0  0  0  0  0
   36.3820   33.7330   39.1180 H   0  0  0  0  0  0  0  0  0  0  0  0
   38.3060   35.1800   39.6560 H   0  0  0  0  0  0  0  0  0  0  0  0
   40.2080   34.2070   40.9740 H   0  0  0  0  0  0  0  0  0  0  0  0
   40.4800   26.0420   40.7830 C   0  0  0  0  0  0  0  0  0  0  0  0
   41.0260   25.9430   41.7270 H   0  0  0  0  0  0  0  0  0  0  0  0
   41.0080   26.5780   39.8120 O   0  0  0  0  0  0  0  0  0  0  0  0
  1 20  1  0  0  0  0
  1  7  1  1  0  0  0
  2  1  1  0  0  0  0
  2  9  1  0  0  0  0
  3  4  1  0  0  0  0
  3 11  1  0  0  0  0
  3  2  1  0  0  0  0
  4 13  1  0  0  0  0
  5  4  1  0  0  0  0
  5 14  1  0  0  0  0
  6 16  1  6  0  0  0
  6 33  1  0  0  0  0
  6  5  1  0  0  0  0
  6  1  1  0  0  0  0
  8  2  1  0  0  0  0
 10  3  1  0  0  0  0
 12  4  1  0  0  0  0
 15  5  1  0  0  0  0
 17 18  2  0  0  0  0
 18 19  1  0  0  0  0
 18 22  1  0  0  0  0
 19 23  1  0  0  0  0
 20 19  2  0  0  0  0
 21 17  1  0  0  0  0
 21 20  1  0  0  0  0
 24 25  2  0  0  0  0
 24 29  1  0  0  0  0
 25 26  1  0  0  0  0
 26 32  1  0  0  0  0
 26 27  2  0  0  0  0
 28 27  1  0  0  0  0
 28 17  1  0  0  0  0
 29 28  2  0  0  0  0
 30 24  1  0  0  0  0
 31 25  1  0  0  0  0
 33 34  1  0  0  0  0
 35 33  2  0  0  0  0
M  END
>  <minimizedAffinity>
-4.81369114

$$$$

 OpenBabel03252509183D

 35 37  0  0  1  0  0  0  0  0999 V2000
   37.4060   27.3140   42.1430 C   0  0  1  0  0  0  0  0  0  0  0  0
   37.3620   25.8260   42.1200 C   0  0  0  0  0  0  0  0  0  0  0  0
   38.6820   25.1540   42.3320 C   0  0  0  0  0  0  0  0  0  0  0  0
   39.5000   25.7890   43.4330 C   0  0  0  0  0  0  0  0  0  0  0  0
   39.5010   27.2960   43.3620 C   0  0  0  0  0  0  0  0  0  0  0  0
   38.8880   27.7450   42.0280 C   0  0  2  0  0  0  0  0  0  0  0  0
   37.1020   27.6810   43.1330 H   0  0  0  0  0  0  0  0  0  0  0  0
   37.0030   25.4960   41.1060 H   0  0  0  0  0  0  0  0  0  0  0  0
   36.6390   25.3740   42.8440 H   0  0  0  0  0  0  0  0  0  0  0  0
   39.2880   25.2640   41.3970 H   0  0  0  0  0  0  0  0  0  0  0  0
   38.5470   24.1030   42.5830 H   0  0  0  0  0  0  0  0  0  0  0  0
   40.5200   25.3660   43.3330 H   0  0  0  0  0  0  0  0  0  0  0  0
   39.1240   25.4870   44.4120 H   0  0  0  0  0  0  0  0  0  0  0  0
   38.8560   27.7260   44.1420 H   0  0  0  0  0  0  0  0  0  0  0  0
   40.5260   27.7010   43.3800 H   0  0  0  0  0  0  0  0  0  0  0  0
   39.3810   27.2920   41.1680 H   0  0  0  0  0  0  0  0  0  0  0  0
   35.3930   28.5620   38.7930 C   0  0  0  0  0  0  0  0  0  0  0  0
   34.9780   29.2400   39.9490 C   0  0  0  0  0  0  0  0  0  0  0  0
   35.5750   28.9150   41.1120 C   0  0  0  0  0  0  0  0  0  0  0  0
   36.5780   27.9270   41.1480 C   0  0  0  0  0  0  0  0  0  0  0  0
   36.6900   27.4140   39.4000 S   0  0  0  0  0  0  0  0  0  0  0  0
   34.2100   29.9960   39.9220 H   0  0  0  0  0  0  0  0  0  0  0  0
   35.3960   29.3200   42.0960 H   0  0  0  0  0  0  0  0  0  0  0  0
   34.8870   29.0730   35.1420 C   0  0  0  0  0  0  0  0  0  0  0  0
   33.4940   29.2450   35.1080 C   0  0  0  0  0  0  0  0  0  0  0  0
   32.7880   29.1790   36.3260 C   0  0  0  0  0  0  0  0  0  0  0  0
   33.5030   28.9520   37.4710 N   0  0  0  0  0  0  0  0  0  0  0  0
   34.8470   28.7940   37.4450 C   0  0  0  0  0  0  0  0  0  0  0  0
   35.5390   28.8540   36.2790 N   0  0  0  0  0  0  0  0  0  0  0  0
   35.4320   29.1210   34.2190 H   0  0  0  0  0  0  0  0  0  0  0  0
   32.9830   29.4200   34.1850 H   0  0  0  0  0  0  0  0  0  0  0  0
   31.7290   29.3040   36.3560 H   0  0  0  0  0  0  0  0  0  0  0  0
   38.9030   29.2350   42.0020 C   0  0  0  0  0  0  0  0  0  0  0  0
   38.9700   29.6960   41.0100 H   0  0  0  0  0  0  0  0  0  0  0  0
   38.8490   29.9340   43.0090 O   0  0  0  0  0  0  0  0  0  0  0  0
  1  7  1  1  0  0  0
  2  1  1  0  0  0  0
  2  3  1  0  0  0  0
  2  9  1  0  0  0  0
  3 11  1  0  0  0  0
  3  4  1  0  0  0  0
  4 13  1  0  0  0  0
  5 15  1  0  0  0  0
  5  4  1  0  0  0  0
  5 14  1  0  0  0  0
  6 16  1  6  0  0  0
  6  1  1  0  0  0  0
  6  5  1  0  0  0  0
  8  2  1  0  0  0  0
 10  3  1  0  0  0  0
 12  4  1  0  0  0  0
 17 21  1  0  0  0  0
 17 18  2  0  0  0  0
 18 19  1  0  0  0  0
 19 20  2  0  0  0  0
 19 23  1  0  0  0  0
 20  1  1  0  0  0  0
 21 20  1  0  0  0  0
 22 18  1  0  0  0  0
 24 29  1  0  0  0  0
 25 24  2  0  0  0  0
 25 26  1  0  0  0  0
 26 32  1  0  0  0  0
 26 27  2  0  0  0  0
 28 27  1  0  0  0  0
 28 17  1  0  0  0  0
 29 28  2  0  0  0  0
 30 24  1  0  0  0  0
 31 25  1  0  0  0  0
 33  6  1  0  0  0  0
 33 35  2  0  0  0  0
 34 33  1  0  0  0  0
M  END
>  <minimizedAffinity>
-4.76409054

$$$$

 OpenBabel03252509183D

 35 37  0  0  1  0  0  0  0  0999 V2000
   36.6980   30.8710   39.5260 C   0  0  1  0  0  0  0  0  0  0  0  0
   36.5690   30.4540   38.1020 C   0  0  0  0  0  0  0  0  0  0  0  0
   36.2120   29.0150   37.8970 C   0  0  0  0  0  0  0  0  0  0  0  0
   35.1370   28.5320   38.8420 C   0  0  0  0  0  0  0  0  0  0  0  0
   35.3640   28.9870   40.2640 C   0  0  0  0  0  0  0  0  0  0  0  0
   36.7700   29.5880   40.3890 C   0  0  2  0  0  0  0  0  0  0  0  0
   35.7710   31.3580   39.8570 H   0  0  0  0  0  0  0  0  0  0  0  0
   37.5630   30.6030   37.5960 H   0  0  0  0  0  0  0  0  0  0  0  0
   35.8460   31.0640   37.5060 H   0  0  0  0  0  0  0  0  0  0  0  0
   37.1160   28.3930   38.1160 H   0  0  0  0  0  0  0  0  0  0  0  0
   35.8610   28.8430   36.8810 H   0  0  0  0  0  0  0  0  0  0  0  0
   35.1320   27.4270   38.7540 H   0  0  0  0  0  0  0  0  0  0  0  0
   34.1550   28.8820   38.5180 H   0  0  0  0  0  0  0  0  0  0  0  0
   34.6710   29.7990   40.5310 H   0  0  0  0  0  0  0  0  0  0  0  0
   35.3270   28.1410   40.9700 H   0  0  0  0  0  0  0  0  0  0  0  0
   37.5480   28.9060   40.0460 H   0  0  0  0  0  0  0  0  0  0  0  0
   40.2850   32.8330   39.8680 C   0  0  0  0  0  0  0  0  0  0  0  0
   39.2120   33.5910   40.3620 C   0  0  0  0  0  0  0  0  0  0  0  0
   37.9830   33.0440   40.3040 C   0  0  0  0  0  0  0  0  0  0  0  0
   37.7980   31.7560   39.7650 C   0  0  0  0  0  0  0  0  0  0  0  0
   39.4970   31.2750   39.3020 S   0  0  0  0  0  0  0  0  0  0  0  0
   39.3520   34.5770   40.7740 H   0  0  0  0  0  0  0  0  0  0  0  0
   37.0440   33.4640   40.6300 H   0  0  0  0  0  0  0  0  0  0  0  0
   43.7620   33.7810   38.9430 C   0  0  0  0  0  0  0  0  0  0  0  0
   44.2570   34.1610   40.2000 C   0  0  0  0  0  0  0  0  0  0  0  0
   43.3880   34.0790   41.3070 C   0  0  0  0  0  0  0  0  0  0  0  0
   42.1120   33.6340   41.0900 N   0  0  0  0  0  0  0  0  0  0  0  0
   41.6880   33.2790   39.8550 C   0  0  0  0  0  0  0  0  0  0  0  0
   42.5140   33.3530   38.7800 N   0  0  0  0  0  0  0  0  0  0  0  0
   44.4170   33.8410   38.0960 H   0  0  0  0  0  0  0  0  0  0  0  0
   45.2640   34.5040   40.3160 H   0  0  0  0  0  0  0  0  0  0  0  0
   43.7140   34.3550   42.2850 H   0  0  0  0  0  0  0  0  0  0  0  0
   36.9500   30.0280   41.8020 C   0  0  0  0  0  0  0  0  0  0  0  0
   36.6840   31.0690   42.0170 H   0  0  0  0  0  0  0  0  0  0  0  0
   37.3710   29.2970   42.6930 O   0  0  0  0  0  0  0  0  0  0  0  0
  1 20  1  0  0  0  0
  1  7  1  1  0  0  0
  1  6  1  0  0  0  0
  2  1  1  0  0  0  0
  3  2  1  0  0  0  0
  3 10  1  0  0  0  0
  3  4  1  0  0  0  0
  4  5  1  0  0  0  0
  5  6  1  0  0  0  0
  5 14  1  0  0  0  0
  5 15  1  0  0  0  0
  6 16  1  6  0  0  0
  6 33  1  0  0  0  0
  8  2  1  0  0  0  0
  9  2  1  0  0  0  0
 11  3  1  0  0  0  0
 12  4  1  0  0  0  0
 13  4  1  0  0  0  0
 17 18  2  0  0  0  0
 18 22  1  0  0  0  0
 19 18  1  0  0  0  0
 19 23  1  0  0  0  0
 20 19  2  0  0  0  0
 21 20  1  0  0  0  0
 21 17  1  0  0  0  0
 24 25  1  0  0  0  0
 25 31  1  0  0  0  0
 25 26  2  0  0  0  0
 26 32  1  0  0  0  0
 27 26  1  0  0  0  0
 28 17  1  0  0  0  0
 28 27  2  0  0  0  0
 29 24  2  0  0  0  0
 29 28  1  0  0  0  0
 30 24  1  0  0  0  0
 33 34  1  0  0  0  0
 33 35  2  0  0  0  0
M  END
>  <minimizedAffinity>
-4.60223675

$$$$

 OpenBabel03252509183D

 35 37  0  0  1  0  0  0  0  0999 V2000
   38.8090   28.8110   41.7040 C   0  0  1  0  0  0  0  0  0  0  0  0
   39.2060   27.8350   42.7560 C   0  0  0  0  0  0  0  0  0  0  0  0
   38.1030   27.4180   43.6780 C   0  0  0  0  0  0  0  0  0  0  0  0
   36.8030   27.1440   42.9580 C   0  0  0  0  0  0  0  0  0  0  0  0
   36.4750   28.1960   41.9270 C   0  0  0  0  0  0  0  0  0  0  0  0
   37.4270   29.3890   42.0940 C   0  0  2  0  0  0  0  0  0  0  0  0
   38.6170   28.2840   40.7600 H   0  0  0  0  0  0  0  0  0  0  0  0
   39.9910   28.3120   43.4060 H   0  0  0  0  0  0  0  0  0  0  0  0
   39.6830   26.9030   42.3650 H   0  0  0  0  0  0  0  0  0  0  0  0
   37.8920   28.2630   44.3810 H   0  0  0  0  0  0  0  0  0  0  0  0
   38.3750   26.5170   44.2260 H   0  0  0  0  0  0  0  0  0  0  0  0
   36.0280   27.0790   43.7480 H   0  0  0  0  0  0  0  0  0  0  0  0
   36.8360   26.1710   42.4630 H   0  0  0  0  0  0  0  0  0  0  0  0
   36.6530   27.8180   40.9090 H   0  0  0  0  0  0  0  0  0  0  0  0
   35.4560   28.5950   42.0650 H   0  0  0  0  0  0  0  0  0  0  0  0
   37.4200   29.7900   43.1080 H   0  0  0  0  0  0  0  0  0  0  0  0
   41.6110   31.4580   40.2990 C   0  0  0  0  0  0  0  0  0  0  0  0
   41.2960   31.6800   41.6490 C   0  0  0  0  0  0  0  0  0  0  0  0
   40.3880   30.8660   42.2190 C   0  0  0  0  0  0  0  0  0  0  0  0
   39.7850   29.8340   41.4740 C   0  0  0  0  0  0  0  0  0  0  0  0
   40.5630   30.0250   39.8340 S   0  0  0  0  0  0  0  0  0  0  0  0
   41.7560   32.4710   42.2200 H   0  0  0  0  0  0  0  0  0  0  0  0
   40.0180   30.8760   43.2330 H   0  0  0  0  0  0  0  0  0  0  0  0
   44.1050   33.9510   39.1120 C   0  0  0  0  0  0  0  0  0  0  0  0
   44.3070   33.4940   37.8010 C   0  0  0  0  0  0  0  0  0  0  0  0
   43.5870   32.3580   37.3780 C   0  0  0  0  0  0  0  0  0  0  0  0
   42.7340   31.7690   38.2700 N   0  0  0  0  0  0  0  0  0  0  0  0
   42.5780   32.2540   39.5240 C   0  0  0  0  0  0  0  0  0  0  0  0
   43.2640   33.3460   39.9450 N   0  0  0  0  0  0  0  0  0  0  0  0
   44.6490   34.8150   39.4420 H   0  0  0  0  0  0  0  0  0  0  0  0
   44.9870   33.9910   37.1420 H   0  0  0  0  0  0  0  0  0  0  0  0
   43.7030   31.9690   36.3910 H   0  0  0  0  0  0  0  0  0  0  0  0
   37.0730   30.3990   41.0560 C   0  0  0  0  0  0  0  0  0  0  0  0
   37.7460   30.4560   40.1940 H   0  0  0  0  0  0  0  0  0  0  0  0
   36.0970   31.1390   41.1330 O   0  0  0  0  0  0  0  0  0  0  0  0
  1  7  1  6  0  0  0
  1  6  1  0  0  0  0
  1  2  1  0  0  0  0
  2  8  1  0  0  0  0
  2  3  1  0  0  0  0
  3 11  1  0  0  0  0
  3 10  1  0  0  0  0
  4  3  1  0  0  0  0
  4 12  1  0  0  0  0
  5 15  1  0  0  0  0
  5  6  1  0  0  0  0
  5  4  1  0  0  0  0
  6 16  1  1  0  0  0
  9  2  1  0  0  0  0
 13  4  1  0  0  0  0
 14  5  1  0  0  0  0
 17 18  2  0  0  0  0
 18 19  1  0  0  0  0
 18 22  1  0  0  0  0
 19 23  1  0  0  0  0
 20  1  1  0  0  0  0
 20 19  2  0  0  0  0
 21 17  1  0  0  0  0
 21 20  1  0  0  0  0
 24 30  1  0  0  0  0
 24 29  1  0  0  0  0
 25 24  2  0  0  0  0
 26 25  1  0  0  0  0
 26 27  2  0  0  0  0
 27 28  1  0  0  0  0
 28 29  2  0  0  0  0
 28 17  1  0  0  0  0
 31 25  1  0  0  0  0
 32 26  1  0  0  0  0
 33 35  2  0  0  0  0
 33  6  1  0  0  0  0
 34 33  1  0  0  0  0
M  END
>  <minimizedAffinity>
-4.601789

$$$$

 OpenBabel03252509183D

 35 37  0  0  1  0  0  0  0  0999 V2000
   38.0800   27.0720   41.3970 C   0  0  1  0  0  0  0  0  0  0  0  0
   38.8210   28.0210   42.2720 C   0  0  0  0  0  0  0  0  0  0  0  0
   39.1820   27.4840   43.6210 C   0  0  0  0  0  0  0  0  0  0  0  0
   39.7000   26.0650   43.5740 C   0  0  0  0  0  0  0  0  0  0  0  0
   38.8740   25.1740   42.6790 C   0  0  0  0  0  0  0  0  0  0  0  0
   37.5830   25.9030   42.2820 C   0  0  2  0  0  0  0  0  0  0  0  0
   38.7760   26.5910   40.6950 H   0  0  0  0  0  0  0  0  0  0  0  0
   38.1670   28.9180   42.4590 H   0  0  0  0  0  0  0  0  0  0  0  0
   39.7550   28.4350   41.8180 H   0  0  0  0  0  0  0  0  0  0  0  0
   38.2550   27.4520   44.2480 H   0  0  0  0  0  0  0  0  0  0  0  0
   39.9460   28.1000   44.0930 H   0  0  0  0  0  0  0  0  0  0  0  0
   39.7050   25.7110   44.6250 H   0  0  0  0  0  0  0  0  0  0  0  0
   40.7340   26.0450   43.2250 H   0  0  0  0  0  0  0  0  0  0  0  0
   39.4000   24.9710   41.7340 H   0  0  0  0  0  0  0  0  0  0  0  0
   38.5590   24.2550   43.2010 H   0  0  0  0  0  0  0  0  0  0  0  0
   37.0190   26.2540   43.1470 H   0  0  0  0  0  0  0  0  0  0  0  0
   35.3660   28.4470   38.6450 C   0  0  0  0  0  0  0  0  0  0  0  0
   35.0910   28.9050   39.9430 C   0  0  0  0  0  0  0  0  0  0  0  0
   35.9210   28.5200   40.9300 C   0  0  0  0  0  0  0  0  0  0  0  0
   37.0210   27.6850   40.6540 C   0  0  0  0  0  0  0  0  0  0  0  0
   36.8750   27.4240   38.8530 S   0  0  0  0  0  0  0  0  0  0  0  0
   34.2480   29.5440   40.1560 H   0  0  0  0  0  0  0  0  0  0  0  0
   35.8770   28.7650   41.9800 H   0  0  0  0  0  0  0  0  0  0  0  0
   34.1320   29.1640   35.2090 C   0  0  0  0  0  0  0  0  0  0  0  0
   32.7760   29.4050   35.4780 C   0  0  0  0  0  0  0  0  0  0  0  0
   32.3400   29.3130   36.8160 C   0  0  0  0  0  0  0  0  0  0  0  0
   33.2650   28.9940   37.7720 N   0  0  0  0  0  0  0  0  0  0  0  0
   34.5620   28.7720   37.4550 C   0  0  0  0  0  0  0  0  0  0  0  0
   34.9960   28.8570   36.1720 N   0  0  0  0  0  0  0  0  0  0  0  0
   34.4720   29.2320   34.1930 H   0  0  0  0  0  0  0  0  0  0  0  0
   32.0930   29.6510   34.6930 H   0  0  0  0  0  0  0  0  0  0  0  0
   31.3200   29.4870   37.0760 H   0  0  0  0  0  0  0  0  0  0  0  0
   36.8020   24.9930   41.3970 C   0  0  0  0  0  0  0  0  0  0  0  0
   35.8140   25.3530   41.0920 H   0  0  0  0  0  0  0  0  0  0  0  0
   37.2110   23.9000   41.0160 O   0  0  0  0  0  0  0  0  0  0  0  0
  1  7  1  6  0  0  0
  1  2  1  0  0  0  0
  1  6  1  0  0  0  0
  2  8  1  0  0  0  0
  2  3  1  0  0  0  0
  3 11  1  0  0  0  0
  3 10  1  0  0  0  0
  4  3  1  0  0  0  0
  4 12  1  0  0  0  0
  5 15  1  0  0  0  0
  5  4  1  0  0  0  0
  6  5  1  0  0  0  0
  6 16  1  1  0  0  0
  9  2  1  0  0  0  0
 13  4  1  0  0  0  0
 14  5  1  0  0  0  0
 17 21  1  0  0  0  0
 17 18  2  0  0  0  0
 18 22  1  0  0  0  0
 18 19  1  0  0  0  0
 19 23  1  0  0  0  0
 20 19  2  0  0  0  0
 20  1  1  0  0  0  0
 21 20  1  0  0  0  0
 24 25  2  0  0  0  0
 24 29  1  0  0  0  0
 25 26  1  0  0  0  0
 26 32  1  0  0  0  0
 26 27  2  0  0  0  0
 28 27  1  0  0  0  0
 28 17  1  0  0  0  0
 29 28  2  0  0  0  0
 30 24  1  0  0  0  0
 31 25  1  0  0  0  0
 33  6  1  0  0  0  0
 34 33  1  0  0  0  0
 35 33  2  0  0  0  0
M  END
>  <minimizedAffinity>
-4.54582262

$$$$

 OpenBabel03252509183D

 35 37  0  0  1  0  0  0  0  0999 V2000
   39.4380   31.6620   41.5430 C   0  0  1  0  0  0  0  0  0  0  0  0
   40.8970   31.8450   41.3100 C   0  0  0  0  0  0  0  0  0  0  0  0
   41.2440   32.7400   40.1630 C   0  0  0  0  0  0  0  0  0  0  0  0
   40.3900   33.9850   40.1030 C   0  0  0  0  0  0  0  0  0  0  0  0
   38.9250   33.6980   40.3310 C   0  0  0  0  0  0  0  0  0  0  0  0
   38.6910   32.1810   40.2910 C   0  0  2  0  0  0  0  0  0  0  0  0
   39.1010   32.3330   42.3460 H   0  0  0  0  0  0  0  0  0  0  0  0
   41.3470   30.8420   41.0710 H   0  0  0  0  0  0  0  0  0  0  0  0
   41.4640   32.2110   42.2020 H   0  0  0  0  0  0  0  0  0  0  0  0
   41.0460   32.1860   39.2100 H   0  0  0  0  0  0  0  0  0  0  0  0
   42.2850   33.0550   40.2170 H   0  0  0  0  0  0  0  0  0  0  0  0
   40.5770   34.4330   39.1060 H   0  0  0  0  0  0  0  0  0  0  0  0
   40.7200   34.7130   40.8470 H   0  0  0  0  0  0  0  0  0  0  0  0
   38.6140   34.0180   41.3360 H   0  0  0  0  0  0  0  0  0  0  0  0
   38.3000   34.1260   39.5300 H   0  0  0  0  0  0  0  0  0  0  0  0
   39.0620   31.7250   39.3730 H   0  0  0  0  0  0  0  0  0  0  0  0
   38.6640   27.6400   41.7750 C   0  0  0  0  0  0  0  0  0  0  0  0
   38.3460   28.3140   42.9630 C   0  0  0  0  0  0  0  0  0  0  0  0
   38.5560   29.6440   43.0020 C   0  0  0  0  0  0  0  0  0  0  0  0
   39.0760   30.3180   41.8800 C   0  0  0  0  0  0  0  0  0  0  0  0
   39.2860   28.9680   40.6710 S   0  0  0  0  0  0  0  0  0  0  0  0
   37.9490   27.7990   43.8230 H   0  0  0  0  0  0  0  0  0  0  0  0
   38.3750   30.3300   43.8150 H   0  0  0  0  0  0  0  0  0  0  0  0
   37.5550   24.0890   41.8290 C   0  0  0  0  0  0  0  0  0  0  0  0
   38.4840   23.5260   40.9400 C   0  0  0  0  0  0  0  0  0  0  0  0
   39.4460   24.3780   40.3610 C   0  0  0  0  0  0  0  0  0  0  0  0
   39.4180   25.7030   40.6990 N   0  0  0  0  0  0  0  0  0  0  0  0
   38.4980   26.1920   41.5640 C   0  0  0  0  0  0  0  0  0  0  0  0
   37.5650   25.3840   42.1290 N   0  0  0  0  0  0  0  0  0  0  0  0
   36.8190   23.4470   42.2740 H   0  0  0  0  0  0  0  0  0  0  0  0
   38.4630   22.4820   40.7080 H   0  0  0  0  0  0  0  0  0  0  0  0
   40.1760   24.0010   39.6790 H   0  0  0  0  0  0  0  0  0  0  0  0
   37.2380   31.9420   40.5240 C   0  0  0  0  0  0  0  0  0  0  0  0
   36.8390   32.3100   41.4750 H   0  0  0  0  0  0  0  0  0  0  0  0
   36.5060   31.3690   39.7230 O   0  0  0  0  0  0  0  0  0  0  0  0
  1 20  1  0  0  0  0
  1  7  1  1  0  0  0
  2  1  1  0  0  0  0
  2  9  1  0  0  0  0
  3 11  1  0  0  0  0
  3  2  1  0  0  0  0
  4  3  1  0  0  0  0
  4  5  1  0  0  0  0
  4 13  1  0  0  0  0
  5 14  1  0  0  0  0
  6 16  1  6  0  0  0
  6  5  1  0  0  0  0
  6 33  1  0  0  0  0
  6  1  1  0  0  0  0
  8  2  1  0  0  0  0
 10  3  1  0  0  0  0
 12  4  1  0  0  0  0
 15  5  1  0  0  0  0
 17 18  2  0  0  0  0
 18 19  1  0  0  0  0
 18 22  1  0  0  0  0
 19 23  1  0  0  0  0
 20 19  2  0  0  0  0
 21 17  1  0  0  0  0
 21 20  1  0  0  0  0
 24 29  1  0  0  0  0
 24 30  1  0  0  0  0
 25 24  2  0  0  0  0
 26 27  2  0  0  0  0
 26 25  1  0  0  0  0
 27 28  1  0  0  0  0
 28 17  1  0  0  0  0
 28 29  2  0  0  0  0
 31 25  1  0  0  0  0
 32 26  1  0  0  0  0
 33 34  1  0  0  0  0
 35 33  2  0  0  0  0
M  END
>  <minimizedAffinity>
-4.53171396

$$$$

 OpenBabel03252509183D

 35 37  0  0  1  0  0  0  0  0999 V2000
   37.2580   27.9940   42.0200 C   0  0  1  0  0  0  0  0  0  0  0  0
   37.2020   26.5860   42.4990 C   0  0  0  0  0  0  0  0  0  0  0  0
   38.5300   25.9800   42.8300 C   0  0  0  0  0  0  0  0  0  0  0  0
   39.4340   26.9190   43.5960 C   0  0  0  0  0  0  0  0  0  0  0  0
   39.4400   28.3160   43.0250 C   0  0  0  0  0  0  0  0  0  0  0  0
   38.7290   28.3140   41.6640 C   0  0  2  0  0  0  0  0  0  0  0  0
   37.0330   28.6800   42.8490 H   0  0  0  0  0  0  0  0  0  0  0  0
   36.7650   25.9480   41.6820 H   0  0  0  0  0  0  0  0  0  0  0  0
   36.5330   26.4240   43.3810 H   0  0  0  0  0  0  0  0  0  0  0  0
   39.0630   25.7530   41.8730 H   0  0  0  0  0  0  0  0  0  0  0  0
   38.4070   25.0780   43.4280 H   0  0  0  0  0  0  0  0  0  0  0  0
   40.4410   26.4550   43.5730 H   0  0  0  0  0  0  0  0  0  0  0  0
   39.1320   26.9740   44.6440 H   0  0  0  0  0  0  0  0  0  0  0  0
   38.8600   29.0020   43.6590 H   0  0  0  0  0  0  0  0  0  0  0  0
   40.4660   28.6710   42.8350 H   0  0  0  0  0  0  0  0  0  0  0  0
   39.1530   27.5850   40.9730 H   0  0  0  0  0  0  0  0  0  0  0  0
   35.0430   28.1520   38.5700 C   0  0  0  0  0  0  0  0  0  0  0  0
   34.6540   29.1280   39.5000 C   0  0  0  0  0  0  0  0  0  0  0  0
   35.3170   29.1740   40.6710 C   0  0  0  0  0  0  0  0  0  0  0  0
   36.3600   28.2660   40.9380 C   0  0  0  0  0  0  0  0  0  0  0  0
   36.4120   27.2660   39.4120 S   0  0  0  0  0  0  0  0  0  0  0  0
   33.8550   29.8240   39.2970 H   0  0  0  0  0  0  0  0  0  0  0  0
   35.1680   29.8450   41.5020 H   0  0  0  0  0  0  0  0  0  0  0  0
   33.2230   26.8810   35.5840 C   0  0  0  0  0  0  0  0  0  0  0  0
   33.4170   27.9540   34.7000 C   0  0  0  0  0  0  0  0  0  0  0  0
   34.1580   29.0630   35.1590 C   0  0  0  0  0  0  0  0  0  0  0  0
   34.6430   29.0270   36.4370 N   0  0  0  0  0  0  0  0  0  0  0  0
   34.4260   27.9640   37.2460 C   0  0  0  0  0  0  0  0  0  0  0  0
   33.7140   26.8900   36.8190 N   0  0  0  0  0  0  0  0  0  0  0  0
   32.6590   26.0330   35.2440 H   0  0  0  0  0  0  0  0  0  0  0  0
   33.0150   27.9320   33.7100 H   0  0  0  0  0  0  0  0  0  0  0  0
   34.3350   29.9050   34.5280 H   0  0  0  0  0  0  0  0  0  0  0  0
   38.7530   29.7090   41.1390 C   0  0  0  0  0  0  0  0  0  0  0  0
   38.0530   30.4100   41.6080 H   0  0  0  0  0  0  0  0  0  0  0  0
   39.4960   30.0840   40.2370 O   0  0  0  0  0  0  0  0  0  0  0  0
  1  2  1  0  0  0  0
  1  7  1  1  0  0  0
  2  3  1  0  0  0  0
  2  9  1  0  0  0  0
  3 11  1  0  0  0  0
  3  4  1  0  0  0  0
  4 13  1  0  0  0  0
  5  4  1  0  0  0  0
  5 14  1  0  0  0  0
  6 16  1  6  0  0  0
  6  1  1  0  0  0  0
  6  5  1  0  0  0  0
  8  2  1  0  0  0  0
 10  3  1  0  0  0  0
 12  4  1  0  0  0  0
 15  5  1  0  0  0  0
 17 21  1  0  0  0  0
 17 18  2  0  0  0  0
 18 19  1  0  0  0  0
 19 20  2  0  0  0  0
 19 23  1  0  0  0  0
 20  1  1  0  0  0  0
 21 20  1  0  0  0  0
 22 18  1  0  0  0  0
 24 29  1  0  0  0  0
 25 26  1  0  0  0  0
 25 24  2  0  0  0  0
 26 27  2  0  0  0  0
 27 28  1  0  0  0  0
 28 17  1  0  0  0  0
 29 28  2  0  0  0  0
 30 24  1  0  0  0  0
 31 25  1  0  0  0  0
 32 26  1  0  0  0  0
 33 34  1  0  0  0  0
 33  6  1  0  0  0  0
 35 33  2  0  0  0  0
M  END
>  <minimizedAffinity>
-4.4509778

$$$$
