
 OpenBabel03242511593D

 35 37  0  0  1  0  0  0  0  0999 V2000
   37.6190   26.5610   40.1070 C   0  0  2  0  0  0  0  0  0  0  0  0
   37.3460   25.4240   39.1850 C   0  0  0  0  0  0  0  0  0  0  0  0
   36.2540   24.5380   39.6590 C   0  0  0  0  0  0  0  0  0  0  0  0
   36.5330   24.0030   41.0440 C   0  0  0  0  0  0  0  0  0  0  0  0
   37.0160   25.0520   42.0060 C   0  0  0  0  0  0  0  0  0  0  0  0
   36.9690   26.4430   41.4510 C   0  0  1  0  0  0  0  0  0  0  0  0
   38.7380   26.5940   40.2430 H   0  0  0  0  0  0  0  0  0  0  0  0
   38.2330   24.7860   38.9950 H   0  0  0  0  0  0  0  0  0  0  0  0
   37.0630   25.8340   38.1890 H   0  0  0  0  0  0  0  0  0  0  0  0
   35.2670   25.0270   39.6340 H   0  0  0  0  0  0  0  0  0  0  0  0
   36.1820   23.6540   38.9830 H   0  0  0  0  0  0  0  0  0  0  0  0
   37.3880   23.2810   40.9030 H   0  0  0  0  0  0  0  0  0  0  0  0
   35.6850   23.4010   41.4090 H   0  0  0  0  0  0  0  0  0  0  0  0
   38.0180   24.7960   42.4520 H   0  0  0  0  0  0  0  0  0  0  0  0
   36.3260   25.0210   42.8760 H   0  0  0  0  0  0  0  0  0  0  0  0
   35.9250   26.7760   41.5130 H   0  0  0  0  0  0  0  0  0  0  0  0
   37.2700   27.8680   39.5160 C   0  0  0  0  0  0  0  0  0  0  0  0
   35.9020   28.0780   39.3510 C   0  0  0  0  0  0  0  0  0  0  0  0
   35.4400   29.2850   38.8050 C   0  0  0  0  0  0  0  0  0  0  0  0
   36.4200   30.2050   38.4590 N   0  0  0  0  0  0  0  0  0  0  0  0
   37.7380   29.9650   38.6320 C   0  0  0  0  0  0  0  0  0  0  0  0
   38.1450   28.7940   39.1620 N   0  0  0  0  0  0  0  0  0  0  0  0
   35.0220   27.4860   39.5470 H   0  0  0  0  0  0  0  0  0  0  0  0
   34.4340   29.6000   38.6150 H   0  0  0  0  0  0  0  0  0  0  0  0
   38.4430   30.7340   38.3370 H   0  0  0  0  0  0  0  0  0  0  0  0
   37.7430   27.3330   42.3950 C   0  0  2  0  0  0  0  0  0  0  0  0
   37.0600   27.7720   43.6760 C   0  0  0  0  0  0  0  0  0  0  0  0
   37.3810   28.7480   42.6090 C   0  0  1  0  0  0  0  0  0  0  0  0
   38.7920   27.0130   42.5370 H   0  0  0  0  0  0  0  0  0  0  0  0
   37.6260   27.7460   44.6170 H   0  0  0  0  0  0  0  0  0  0  0  0
   35.9730   27.5000   43.7570 H   0  0  0  0  0  0  0  0  0  0  0  0
   36.5820   29.2580   42.0600 H   0  0  0  0  0  0  0  0  0  0  0  0
   38.5380   29.6470   42.9480 C   0  0  0  0  0  0  0  0  0  0  0  0
   39.0160   29.6390   43.9350 H   0  0  0  0  0  0  0  0  0  0  0  0
   38.9910   30.4260   42.1250 O   0  0  0  0  0  0  0  0  0  0  0  0
  1  7  1  1  0  0  0
  1  6  1  0  0  0  0
  2  3  1  0  0  0  0
  2  1  1  0  0  0  0
  3  4  1  0  0  0  0
  4 13  1  0  0  0  0
  4  5  1  0  0  0  0
  5 14  1  0  0  0  0
  5 15  1  0  0  0  0
  6 16  1  6  0  0  0
  6  5  1  0  0  0  0
  6 26  1  0  0  0  0
  8  2  1  0  0  0  0
  9  2  1  0  0  0  0
 10  3  1  0  0  0  0
 11  3  1  0  0  0  0
 12  4  1  0  0  0  0
 17  1  1  0  0  0  0
 18 17  1  0  0  0  0
 18 23  1  0  0  0  0
 19 18  2  0  0  0  0
 20 21  2  0  0  0  0
 20 19  1  0  0  0  0
 21 22  1  0  0  0  0
 22 17  2  0  0  0  0
 24 19  1  0  0  0  0
 25 21  1  0  0  0  0
 26 29  1  1  0  0  0
 26 28  1  0  0  0  0
 26 27  1  0  0  0  0
 27 31  1  0  0  0  0
 27 30  1  0  0  0  0
 28 32  1  6  0  0  0
 28 33  1  0  0  0  0
 28 27  1  0  0  0  0
 33 34  1  0  0  0  0
 35 33  2  0  0  0  0
M  END
>  <minimizedAffinity>
-4.56515026

$$$$

 OpenBabel03242511593D

 35 37  0  0  1  0  0  0  0  0999 V2000
   38.5310   27.4430   42.8950 C   0  0  2  0  0  0  0  0  0  0  0  0
   39.3710   26.4970   43.6800 C   0  0  0  0  0  0  0  0  0  0  0  0
   39.6810   25.2450   42.9460 C   0  0  0  0  0  0  0  0  0  0  0  0
   38.4250   24.5400   42.4910 C   0  0  0  0  0  0  0  0  0  0  0  0
   37.4160   25.4590   41.8610 C   0  0  0  0  0  0  0  0  0  0  0  0
   37.9200   26.8560   41.6590 C   0  0  1  0  0  0  0  0  0  0  0  0
   37.7070   27.7800   43.5860 H   0  0  0  0  0  0  0  0  0  0  0  0
   38.9210   26.2100   44.6520 H   0  0  0  0  0  0  0  0  0  0  0  0
   40.3280   27.0030   43.9400 H   0  0  0  0  0  0  0  0  0  0  0  0
   40.3540   25.4090   42.0890 H   0  0  0  0  0  0  0  0  0  0  0  0
   40.2120   24.5430   43.6300 H   0  0  0  0  0  0  0  0  0  0  0  0
   37.9550   24.1550   43.4420 H   0  0  0  0  0  0  0  0  0  0  0  0
   38.6720   23.6480   41.8920 H   0  0  0  0  0  0  0  0  0  0  0  0
   36.4200   25.4270   42.3870 H   0  0  0  0  0  0  0  0  0  0  0  0
   37.1950   25.0400   40.8560 H   0  0  0  0  0  0  0  0  0  0  0  0
   38.5570   26.8390   40.7670 H   0  0  0  0  0  0  0  0  0  0  0  0
   39.2530   28.6780   42.5340 C   0  0  0  0  0  0  0  0  0  0  0  0
   40.2860   28.4940   41.6150 C   0  0  0  0  0  0  0  0  0  0  0  0
   41.0460   29.5920   41.1860 C   0  0  0  0  0  0  0  0  0  0  0  0
   40.6950   30.8190   41.7320 N   0  0  0  0  0  0  0  0  0  0  0  0
   39.6870   30.9590   42.6220 C   0  0  0  0  0  0  0  0  0  0  0  0
   38.9780   29.8810   43.0100 N   0  0  0  0  0  0  0  0  0  0  0  0
   40.6960   27.6340   41.1090 H   0  0  0  0  0  0  0  0  0  0  0  0
   41.8620   29.6210   40.4940 H   0  0  0  0  0  0  0  0  0  0  0  0
   39.4740   31.9510   43.0040 H   0  0  0  0  0  0  0  0  0  0  0  0
   36.7310   27.7170   41.3030 C   0  0  2  0  0  0  0  0  0  0  0  0
   36.1870   27.6260   39.8900 C   0  0  0  0  0  0  0  0  0  0  0  0
   36.8450   28.8610   40.3770 C   0  0  1  0  0  0  0  0  0  0  0  0
   35.9460   27.7250   42.0830 H   0  0  0  0  0  0  0  0  0  0  0  0
   35.1010   27.5770   39.7400 H   0  0  0  0  0  0  0  0  0  0  0  0
   36.8030   27.0120   39.1780 H   0  0  0  0  0  0  0  0  0  0  0  0
   37.7930   29.1970   39.9430 H   0  0  0  0  0  0  0  0  0  0  0  0
   35.8830   29.9850   40.6470 C   0  0  0  0  0  0  0  0  0  0  0  0
   34.8260   29.9330   40.3600 H   0  0  0  0  0  0  0  0  0  0  0  0
   36.2500   31.0070   41.2040 O   0  0  0  0  0  0  0  0  0  0  0  0
  1  7  1  1  0  0  0
  1  2  1  0  0  0  0
  2  9  1  0  0  0  0
  2  8  1  0  0  0  0
  3 11  1  0  0  0  0
  3  2  1  0  0  0  0
  4  3  1  0  0  0  0
  4 12  1  0  0  0  0
  5 14  1  0  0  0  0
  5  4  1  0  0  0  0
  6 16  1  6  0  0  0
  6  5  1  0  0  0  0
  6  1  1  0  0  0  0
 10  3  1  0  0  0  0
 13  4  1  0  0  0  0
 15  5  1  0  0  0  0
 17  1  1  0  0  0  0
 17 22  1  0  0  0  0
 18 17  2  0  0  0  0
 19 18  1  0  0  0  0
 19 20  2  0  0  0  0
 20 21  1  0  0  0  0
 21 25  1  0  0  0  0
 21 22  2  0  0  0  0
 23 18  1  0  0  0  0
 24 19  1  0  0  0  0
 26  6  1  0  0  0  0
 26 29  1  1  0  0  0
 27 28  1  0  0  0  0
 27 26  1  0  0  0  0
 28 32  1  6  0  0  0
 28 33  1  0  0  0  0
 28 26  1  0  0  0  0
 30 27  1  0  0  0  0
 31 27  1  0  0  0  0
 33 35  2  0  0  0  0
 34 33  1  0  0  0  0
M  END
>  <minimizedAffinity>
-4.51698971

$$$$

 OpenBabel03242511593D

 35 37  0  0  1  0  0  0  0  0999 V2000
   37.6110   26.6470   42.3120 C   0  0  2  0  0  0  0  0  0  0  0  0
   36.6120   27.6910   42.6720 C   0  0  0  0  0  0  0  0  0  0  0  0
   37.1030   29.0720   42.4420 C   0  0  0  0  0  0  0  0  0  0  0  0
   38.3910   29.3360   43.1840 C   0  0  0  0  0  0  0  0  0  0  0  0
   39.4000   28.2310   43.0460 C   0  0  0  0  0  0  0  0  0  0  0  0
   38.9960   27.1670   42.0720 C   0  0  1  0  0  0  0  0  0  0  0  0
   37.6360   25.9240   43.1770 H   0  0  0  0  0  0  0  0  0  0  0  0
   36.2700   27.6300   43.7250 H   0  0  0  0  0  0  0  0  0  0  0  0
   35.6960   27.5320   42.0590 H   0  0  0  0  0  0  0  0  0  0  0  0
   37.2270   29.3070   41.3720 H   0  0  0  0  0  0  0  0  0  0  0  0
   36.3520   29.7960   42.8360 H   0  0  0  0  0  0  0  0  0  0  0  0
   38.0930   29.3620   44.2710 H   0  0  0  0  0  0  0  0  0  0  0  0
   38.7780   30.3420   42.9510 H   0  0  0  0  0  0  0  0  0  0  0  0
   39.7150   27.8110   44.0440 H   0  0  0  0  0  0  0  0  0  0  0  0
   40.3280   28.7000   42.6550 H   0  0  0  0  0  0  0  0  0  0  0  0
   39.1960   27.5610   41.0680 H   0  0  0  0  0  0  0  0  0  0  0  0
   37.1940   25.8370   41.1510 C   0  0  0  0  0  0  0  0  0  0  0  0
   36.7000   24.5740   41.4780 C   0  0  0  0  0  0  0  0  0  0  0  0
   36.2640   23.7090   40.4640 C   0  0  0  0  0  0  0  0  0  0  0  0
   36.3650   24.1980   39.1680 N   0  0  0  0  0  0  0  0  0  0  0  0
   36.8500   25.4280   38.8900 C   0  0  0  0  0  0  0  0  0  0  0  0
   37.2590   26.2330   39.8910 N   0  0  0  0  0  0  0  0  0  0  0  0
   36.5650   24.0380   42.4040 H   0  0  0  0  0  0  0  0  0  0  0  0
   35.8630   22.7190   40.5450 H   0  0  0  0  0  0  0  0  0  0  0  0
   36.8980   25.7380   37.8520 H   0  0  0  0  0  0  0  0  0  0  0  0
   39.9420   26.0030   42.2560 C   0  0  2  0  0  0  0  0  0  0  0  0
   39.8680   25.2280   43.5570 C   0  0  0  0  0  0  0  0  0  0  0  0
   41.0560   26.0470   43.2220 C   0  0  1  0  0  0  0  0  0  0  0  0
   40.0250   25.3600   41.3590 H   0  0  0  0  0  0  0  0  0  0  0  0
   39.9010   24.1310   43.5260 H   0  0  0  0  0  0  0  0  0  0  0  0
   39.1950   25.6700   44.3410 H   0  0  0  0  0  0  0  0  0  0  0  0
   41.3090   26.9320   43.8150 H   0  0  0  0  0  0  0  0  0  0  0  0
   42.2570   25.2290   42.8330 C   0  0  0  0  0  0  0  0  0  0  0  0
   42.2590   24.5740   41.9540 H   0  0  0  0  0  0  0  0  0  0  0  0
   43.2830   25.2670   43.4920 O   0  0  0  0  0  0  0  0  0  0  0  0
  1  2  1  0  0  0  0
  1  7  1  1  0  0  0
  2  8  1  0  0  0  0
  3  2  1  0  0  0  0
  3 11  1  0  0  0  0
  3  4  1  0  0  0  0
  4 12  1  0  0  0  0
  5  4  1  0  0  0  0
  5 14  1  0  0  0  0
  6 16  1  6  0  0  0
  6 26  1  0  0  0  0
  6  1  1  0  0  0  0
  6  5  1  0  0  0  0
  9  2  1  0  0  0  0
 10  3  1  0  0  0  0
 13  4  1  0  0  0  0
 15  5  1  0  0  0  0
 17 18  1  0  0  0  0
 17  1  1  0  0  0  0
 18 23  1  0  0  0  0
 19 24  1  0  0  0  0
 19 18  2  0  0  0  0
 20 19  1  0  0  0  0
 21 20  2  0  0  0  0
 21 22  1  0  0  0  0
 22 17  2  0  0  0  0
 25 21  1  0  0  0  0
 26 29  1  6  0  0  0
 26 28  1  0  0  0  0
 26 27  1  0  0  0  0
 27 31  1  0  0  0  0
 28 27  1  0  0  0  0
 28 32  1  1  0  0  0
 30 27  1  0  0  0  0
 33 28  1  0  0  0  0
 33 35  2  0  0  0  0
 34 33  1  0  0  0  0
M  END
>  <minimizedAffinity>
-4.51503801

$$$$

 OpenBabel03242511593D

 35 37  0  0  1  0  0  0  0  0999 V2000
   37.1830   29.2400   41.8440 C   0  0  2  0  0  0  0  0  0  0  0  0
   37.9230   29.1710   43.1330 C   0  0  0  0  0  0  0  0  0  0  0  0
   38.8400   28.0080   43.2200 C   0  0  0  0  0  0  0  0  0  0  0  0
   38.1090   26.7060   42.9920 C   0  0  0  0  0  0  0  0  0  0  0  0
   37.1720   26.7410   41.8170 C   0  0  0  0  0  0  0  0  0  0  0  0
   37.2690   27.9990   41.0090 C   0  0  1  0  0  0  0  0  0  0  0  0
   36.1030   29.4280   42.1090 H   0  0  0  0  0  0  0  0  0  0  0  0
   37.2600   29.1390   44.0220 H   0  0  0  0  0  0  0  0  0  0  0  0
   38.5200   30.1040   43.2510 H   0  0  0  0  0  0  0  0  0  0  0  0
   39.6950   28.0880   42.5290 H   0  0  0  0  0  0  0  0  0  0  0  0
   39.2710   27.9580   44.2460 H   0  0  0  0  0  0  0  0  0  0  0  0
   37.4660   26.5760   43.9090 H   0  0  0  0  0  0  0  0  0  0  0  0
   38.8130   25.8570   42.9930 H   0  0  0  0  0  0  0  0  0  0  0  0
   36.1120   26.4900   42.1060 H   0  0  0  0  0  0  0  0  0  0  0  0
   37.4690   25.9000   41.1540 H   0  0  0  0  0  0  0  0  0  0  0  0
   38.1600   27.9030   40.3770 H   0  0  0  0  0  0  0  0  0  0  0  0
   37.5790   30.4000   41.0220 C   0  0  0  0  0  0  0  0  0  0  0  0
   38.8800   30.3360   40.5240 C   0  0  0  0  0  0  0  0  0  0  0  0
   39.3750   31.3760   39.7230 C   0  0  0  0  0  0  0  0  0  0  0  0
   38.4970   32.4240   39.4840 N   0  0  0  0  0  0  0  0  0  0  0  0
   37.2430   32.4520   39.9860 C   0  0  0  0  0  0  0  0  0  0  0  0
   36.8010   31.4340   40.7510 N   0  0  0  0  0  0  0  0  0  0  0  0
   39.6840   29.6240   40.6160 H   0  0  0  0  0  0  0  0  0  0  0  0
   40.3390   31.4780   39.2680 H   0  0  0  0  0  0  0  0  0  0  0  0
   36.6160   33.3070   39.7540 H   0  0  0  0  0  0  0  0  0  0  0  0
   36.0910   28.0200   40.0630 C   0  0  2  0  0  0  0  0  0  0  0  0
   36.0900   27.0350   38.9100 C   0  0  0  0  0  0  0  0  0  0  0  0
   36.2160   28.4920   38.6700 C   0  0  1  0  0  0  0  0  0  0  0  0
   35.1160   28.1020   40.5800 H   0  0  0  0  0  0  0  0  0  0  0  0
   35.1650   26.4940   38.6730 H   0  0  0  0  0  0  0  0  0  0  0  0
   37.0400   26.4500   38.7780 H   0  0  0  0  0  0  0  0  0  0  0  0
   37.1380   28.9110   38.2530 H   0  0  0  0  0  0  0  0  0  0  0  0
   34.9700   29.1160   38.1050 C   0  0  0  0  0  0  0  0  0  0  0  0
   34.9930   29.7910   37.2410 H   0  0  0  0  0  0  0  0  0  0  0  0
   33.8760   28.8870   38.5940 O   0  0  0  0  0  0  0  0  0  0  0  0
  1  7  1  1  0  0  0
  1  2  1  0  0  0  0
  2  3  1  0  0  0  0
  2  9  1  0  0  0  0
  2  8  1  0  0  0  0
  3 11  1  0  0  0  0
  4 13  1  0  0  0  0
  4  3  1  0  0  0  0
  4 12  1  0  0  0  0
  5 14  1  0  0  0  0
  5  4  1  0  0  0  0
  6 16  1  6  0  0  0
  6  5  1  0  0  0  0
  6  1  1  0  0  0  0
 10  3  1  0  0  0  0
 15  5  1  0  0  0  0
 17  1  1  0  0  0  0
 18 23  1  0  0  0  0
 18 17  2  0  0  0  0
 19 18  1  0  0  0  0
 20 19  2  0  0  0  0
 20 21  1  0  0  0  0
 21 22  2  0  0  0  0
 22 17  1  0  0  0  0
 24 19  1  0  0  0  0
 25 21  1  0  0  0  0
 26 29  1  1  0  0  0
 26  6  1  0  0  0  0
 27 26  1  0  0  0  0
 28 32  1  6  0  0  0
 28 27  1  0  0  0  0
 28 26  1  0  0  0  0
 30 27  1  0  0  0  0
 31 27  1  0  0  0  0
 33 35  2  0  0  0  0
 33 28  1  0  0  0  0
 34 33  1  0  0  0  0
M  END
>  <minimizedAffinity>
-4.51313353

$$$$

 OpenBabel03242511593D

 35 37  0  0  1  0  0  0  0  0999 V2000
   38.6970   29.0620   42.6470 C   0  0  2  0  0  0  0  0  0  0  0  0
   39.0370   27.8420   43.4290 C   0  0  0  0  0  0  0  0  0  0  0  0
   38.4360   26.6050   42.8720 C   0  0  0  0  0  0  0  0  0  0  0  0
   36.9350   26.7210   42.7530 C   0  0  0  0  0  0  0  0  0  0  0  0
   36.4790   28.0210   42.1530 C   0  0  0  0  0  0  0  0  0  0  0  0
   37.6010   28.8730   41.6430 C   0  0  1  0  0  0  0  0  0  0  0  0
   38.3760   29.8380   43.3990 H   0  0  0  0  0  0  0  0  0  0  0  0
   38.7410   27.9040   44.4960 H   0  0  0  0  0  0  0  0  0  0  0  0
   40.1440   27.7240   43.4410 H   0  0  0  0  0  0  0  0  0  0  0  0
   38.8720   26.3190   41.9010 H   0  0  0  0  0  0  0  0  0  0  0  0
   38.6370   25.7560   43.5660 H   0  0  0  0  0  0  0  0  0  0  0  0
   36.5630   26.7130   43.8180 H   0  0  0  0  0  0  0  0  0  0  0  0
   36.5090   25.8220   42.2770 H   0  0  0  0  0  0  0  0  0  0  0  0
   35.7790   28.5850   42.8340 H   0  0  0  0  0  0  0  0  0  0  0  0
   35.8420   27.7590   41.2820 H   0  0  0  0  0  0  0  0  0  0  0  0
   37.9010   28.4580   40.6740 H   0  0  0  0  0  0  0  0  0  0  0  0
   39.8710   29.6500   41.9720 C   0  0  0  0  0  0  0  0  0  0  0  0
   40.3620   30.8070   42.5750 C   0  0  0  0  0  0  0  0  0  0  0  0
   41.4800   31.4590   42.0330 C   0  0  0  0  0  0  0  0  0  0  0  0
   42.0250   30.8770   40.8970 N   0  0  0  0  0  0  0  0  0  0  0  0
   41.5200   29.7540   40.3390 C   0  0  0  0  0  0  0  0  0  0  0  0
   40.4460   29.1550   40.8890 N   0  0  0  0  0  0  0  0  0  0  0  0
   40.0650   31.3910   43.4310 H   0  0  0  0  0  0  0  0  0  0  0  0
   41.9750   32.3460   42.3710 H   0  0  0  0  0  0  0  0  0  0  0  0
   42.0020   29.3610   39.4510 H   0  0  0  0  0  0  0  0  0  0  0  0
   37.0320   30.2420   41.3490 C   0  0  2  0  0  0  0  0  0  0  0  0
   35.9920   30.3560   40.2520 C   0  0  0  0  0  0  0  0  0  0  0  0
   37.3350   30.9610   40.0960 C   0  0  1  0  0  0  0  0  0  0  0  0
   36.7830   30.8180   42.2600 H   0  0  0  0  0  0  0  0  0  0  0  0
   35.1010   30.9750   40.4250 H   0  0  0  0  0  0  0  0  0  0  0  0
   35.8220   29.4200   39.6530 H   0  0  0  0  0  0  0  0  0  0  0  0
   38.0300   30.5880   39.3370 H   0  0  0  0  0  0  0  0  0  0  0  0
   37.3340   32.4600   40.2180 C   0  0  0  0  0  0  0  0  0  0  0  0
   36.4890   33.0740   39.8830 H   0  0  0  0  0  0  0  0  0  0  0  0
   38.2860   33.0520   40.7000 O   0  0  0  0  0  0  0  0  0  0  0  0
  1  7  1  1  0  0  0
  1  2  1  0  0  0  0
  2  9  1  0  0  0  0
  2  8  1  0  0  0  0
  3  2  1  0  0  0  0
  3 11  1  0  0  0  0
  4  3  1  0  0  0  0
  4 12  1  0  0  0  0
  5  4  1  0  0  0  0
  5 14  1  0  0  0  0
  6 16  1  6  0  0  0
  6  5  1  0  0  0  0
  6  1  1  0  0  0  0
 10  3  1  0  0  0  0
 13  4  1  0  0  0  0
 15  5  1  0  0  0  0
 17 18  1  0  0  0  0
 17  1  1  0  0  0  0
 18 23  1  0  0  0  0
 19 24  1  0  0  0  0
 19 18  2  0  0  0  0
 20 19  1  0  0  0  0
 21 22  1  0  0  0  0
 21 20  2  0  0  0  0
 22 17  2  0  0  0  0
 25 21  1  0  0  0  0
 26  6  1  0  0  0  0
 26 29  1  1  0  0  0
 27 30  1  0  0  0  0
 27 26  1  0  0  0  0
 28 32  1  6  0  0  0
 28 33  1  0  0  0  0
 28 27  1  0  0  0  0
 28 26  1  0  0  0  0
 31 27  1  0  0  0  0
 33 35  2  0  0  0  0
 34 33  1  0  0  0  0
M  END
>  <minimizedAffinity>
-4.39480114

$$$$

 OpenBabel03242511593D

 35 37  0  0  1  0  0  0  0  0999 V2000
   37.2030   28.2990   40.7940 C   0  0  2  0  0  0  0  0  0  0  0  0
   36.9010   27.1750   41.7210 C   0  0  0  0  0  0  0  0  0  0  0  0
   36.5840   27.6240   43.1000 C   0  0  0  0  0  0  0  0  0  0  0  0
   37.6950   28.4670   43.6800 C   0  0  0  0  0  0  0  0  0  0  0  0
   38.2120   29.5130   42.7310 C   0  0  0  0  0  0  0  0  0  0  0  0
   37.4180   29.6210   41.4660 C   0  0  1  0  0  0  0  0  0  0  0  0
   38.1440   28.0100   40.2440 H   0  0  0  0  0  0  0  0  0  0  0  0
   37.7200   26.4300   41.7950 H   0  0  0  0  0  0  0  0  0  0  0  0
   36.0290   26.6080   41.3230 H   0  0  0  0  0  0  0  0  0  0  0  0
   35.6260   28.1660   43.1610 H   0  0  0  0  0  0  0  0  0  0  0  0
   36.4810   26.7320   43.7600 H   0  0  0  0  0  0  0  0  0  0  0  0
   38.5430   27.7430   43.8490 H   0  0  0  0  0  0  0  0  0  0  0  0
   37.4180   28.8480   44.6760 H   0  0  0  0  0  0  0  0  0  0  0  0
   39.3190   29.4110   42.5440 H   0  0  0  0  0  0  0  0  0  0  0  0
   38.1240   30.4860   43.2600 H   0  0  0  0  0  0  0  0  0  0  0  0
   36.5140   30.1940   41.7040 H   0  0  0  0  0  0  0  0  0  0  0  0
   36.1810   28.4560   39.7400 C   0  0  0  0  0  0  0  0  0  0  0  0
   34.9660   28.9730   40.1880 C   0  0  0  0  0  0  0  0  0  0  0  0
   33.9140   29.1760   39.2830 C   0  0  0  0  0  0  0  0  0  0  0  0
   34.1790   28.8300   37.9640 N   0  0  0  0  0  0  0  0  0  0  0  0
   35.3690   28.3300   37.5670 C   0  0  0  0  0  0  0  0  0  0  0  0
   36.3570   28.1500   38.4660 N   0  0  0  0  0  0  0  0  0  0  0  0
   34.5900   29.2780   41.1520 H   0  0  0  0  0  0  0  0  0  0  0  0
   32.9320   29.5600   39.4630 H   0  0  0  0  0  0  0  0  0  0  0  0
   35.4980   28.0830   36.5190 H   0  0  0  0  0  0  0  0  0  0  0  0
   38.2100   30.4790   40.5070 C   0  0  2  0  0  0  0  0  0  0  0  0
   38.2460   31.9740   40.7580 C   0  0  0  0  0  0  0  0  0  0  0  0
   37.5560   31.4150   39.5730 C   0  0  1  0  0  0  0  0  0  0  0  0
   39.1950   30.0470   40.2440 H   0  0  0  0  0  0  0  0  0  0  0  0
   39.2020   32.5060   40.6650 H   0  0  0  0  0  0  0  0  0  0  0  0
   37.5650   32.3400   41.5730 H   0  0  0  0  0  0  0  0  0  0  0  0
   36.4690   31.5040   39.4660 H   0  0  0  0  0  0  0  0  0  0  0  0
   38.3000   31.6390   38.2850 C   0  0  0  0  0  0  0  0  0  0  0  0
   37.8900   31.3410   37.3120 H   0  0  0  0  0  0  0  0  0  0  0  0
   39.3990   32.1680   38.2780 O   0  0  0  0  0  0  0  0  0  0  0  0
  1  7  1  6  0  0  0
  1  6  1  0  0  0  0
  1  2  1  0  0  0  0
  2  8  1  0  0  0  0
  2  3  1  0  0  0  0
  3 10  1  0  0  0  0
  3  4  1  0  0  0  0
  3 11  1  0  0  0  0
  4 12  1  0  0  0  0
  4 13  1  0  0  0  0
  5 15  1  0  0  0  0
  5  4  1  0  0  0  0
  6 16  1  1  0  0  0
  6  5  1  0  0  0  0
  9  2  1  0  0  0  0
 14  5  1  0  0  0  0
 17 18  1  0  0  0  0
 17  1  1  0  0  0  0
 18 23  1  0  0  0  0
 19 24  1  0  0  0  0
 19 18  2  0  0  0  0
 20 19  1  0  0  0  0
 21 20  2  0  0  0  0
 21 22  1  0  0  0  0
 22 17  2  0  0  0  0
 25 21  1  0  0  0  0
 26 29  1  6  0  0  0
 26 27  1  0  0  0  0
 26  6  1  0  0  0  0
 27 31  1  0  0  0  0
 28 32  1  6  0  0  0
 28 26  1  0  0  0  0
 28 27  1  0  0  0  0
 30 27  1  0  0  0  0
 33 28  1  0  0  0  0
 34 33  1  0  0  0  0
 35 33  2  0  0  0  0
M  END
>  <minimizedAffinity>
-4.39151335

$$$$

 OpenBabel03242511593D

 35 37  0  0  1  0  0  0  0  0999 V2000
   37.9110   26.8160   42.5950 C   0  0  2  0  0  0  0  0  0  0  0  0
   38.7780   27.5790   43.5330 C   0  0  0  0  0  0  0  0  0  0  0  0
   40.2090   27.1960   43.4490 C   0  0  0  0  0  0  0  0  0  0  0  0
   40.4030   25.7150   43.6790 C   0  0  0  0  0  0  0  0  0  0  0  0
   39.4290   24.8580   42.9200 C   0  0  0  0  0  0  0  0  0  0  0  0
   38.5690   25.6270   41.9650 C   0  0  1  0  0  0  0  0  0  0  0  0
   37.0240   26.4680   43.1970 H   0  0  0  0  0  0  0  0  0  0  0  0
   38.4700   27.4840   44.5950 H   0  0  0  0  0  0  0  0  0  0  0  0
   38.6870   28.6640   43.3010 H   0  0  0  0  0  0  0  0  0  0  0  0
   40.6740   27.4950   42.4960 H   0  0  0  0  0  0  0  0  0  0  0  0
   40.7760   27.7210   44.2520 H   0  0  0  0  0  0  0  0  0  0  0  0
   40.1750   25.5650   44.7730 H   0  0  0  0  0  0  0  0  0  0  0  0
   41.4610   25.4340   43.5480 H   0  0  0  0  0  0  0  0  0  0  0  0
   38.8300   24.1860   43.5990 H   0  0  0  0  0  0  0  0  0  0  0  0
   40.0370   24.1490   42.3190 H   0  0  0  0  0  0  0  0  0  0  0  0
   39.1810   25.8280   41.0770 H   0  0  0  0  0  0  0  0  0  0  0  0
   37.3370   27.6670   41.5330 C   0  0  0  0  0  0  0  0  0  0  0  0
   38.2240   27.9810   40.5040 C   0  0  0  0  0  0  0  0  0  0  0  0
   37.7980   28.7790   39.4320 C   0  0  0  0  0  0  0  0  0  0  0  0
   36.4790   29.2080   39.4850 N   0  0  0  0  0  0  0  0  0  0  0  0
   35.6480   28.8840   40.5010 C   0  0  0  0  0  0  0  0  0  0  0  0
   36.0930   28.1140   41.5140 N   0  0  0  0  0  0  0  0  0  0  0  0
   39.2600   27.7510   40.3100 H   0  0  0  0  0  0  0  0  0  0  0  0
   38.3470   29.1070   38.5740 H   0  0  0  0  0  0  0  0  0  0  0  0
   34.6310   29.2580   40.4710 H   0  0  0  0  0  0  0  0  0  0  0  0
   37.4650   24.7040   41.5060 C   0  0  2  0  0  0  0  0  0  0  0  0
   37.8600   23.3510   40.9460 C   0  0  0  0  0  0  0  0  0  0  0  0
   37.2530   24.3880   40.0790 C   0  0  1  0  0  0  0  0  0  0  0  0
   36.6090   24.6640   42.2040 H   0  0  0  0  0  0  0  0  0  0  0  0
   37.2950   22.4610   41.2550 H   0  0  0  0  0  0  0  0  0  0  0  0
   38.9630   23.1970   40.7970 H   0  0  0  0  0  0  0  0  0  0  0  0
   37.8290   24.8430   39.2660 H   0  0  0  0  0  0  0  0  0  0  0  0
   35.8250   24.0970   39.7070 C   0  0  0  0  0  0  0  0  0  0  0  0
   35.0360   23.9800   40.4590 H   0  0  0  0  0  0  0  0  0  0  0  0
   35.4920   23.9800   38.5390 O   0  0  0  0  0  0  0  0  0  0  0  0
  1  7  1  1  0  0  0
  1  2  1  0  0  0  0
  2  8  1  0  0  0  0
  3  2  1  0  0  0  0
  3  4  1  0  0  0  0
  3 11  1  0  0  0  0
  4 12  1  0  0  0  0
  5 14  1  0  0  0  0
  5  4  1  0  0  0  0
  6 16  1  6  0  0  0
  6  1  1  0  0  0  0
  6  5  1  0  0  0  0
  9  2  1  0  0  0  0
 10  3  1  0  0  0  0
 13  4  1  0  0  0  0
 15  5  1  0  0  0  0
 17  1  1  0  0  0  0
 18 17  2  0  0  0  0
 19 20  2  0  0  0  0
 19 18  1  0  0  0  0
 20 21  1  0  0  0  0
 21 22  2  0  0  0  0
 22 17  1  0  0  0  0
 23 18  1  0  0  0  0
 24 19  1  0  0  0  0
 25 21  1  0  0  0  0
 26  6  1  0  0  0  0
 26 29  1  1  0  0  0
 27 30  1  0  0  0  0
 27 26  1  0  0  0  0
 28 32  1  6  0  0  0
 28 27  1  0  0  0  0
 28 26  1  0  0  0  0
 31 27  1  0  0  0  0
 33 28  1  0  0  0  0
 33 34  1  0  0  0  0
 35 33  2  0  0  0  0
M  END
>  <minimizedAffinity>
-4.3724165

$$$$

 OpenBabel03242511593D

 35 37  0  0  1  0  0  0  0  0999 V2000
   37.8890   31.1990   40.8610 C   0  0  2  0  0  0  0  0  0  0  0  0
   38.0730   32.4110   40.0160 C   0  0  0  0  0  0  0  0  0  0  0  0
   39.4750   32.6070   39.5730 C   0  0  0  0  0  0  0  0  0  0  0  0
   40.4260   32.6650   40.7460 C   0  0  0  0  0  0  0  0  0  0  0  0
   40.1850   31.5900   41.7680 C   0  0  0  0  0  0  0  0  0  0  0  0
   39.1630   30.5780   41.3450 C   0  0  1  0  0  0  0  0  0  0  0  0
   37.2790   31.5250   41.7510 H   0  0  0  0  0  0  0  0  0  0  0  0
   37.7460   33.3480   40.5110 H   0  0  0  0  0  0  0  0  0  0  0  0
   37.4260   32.3180   39.1140 H   0  0  0  0  0  0  0  0  0  0  0  0
   39.8070   31.8390   38.8550 H   0  0  0  0  0  0  0  0  0  0  0  0
   39.5580   33.5850   39.0450 H   0  0  0  0  0  0  0  0  0  0  0  0
   40.1920   33.6450   41.2530 H   0  0  0  0  0  0  0  0  0  0  0  0
   41.4700   32.7450   40.4000 H   0  0  0  0  0  0  0  0  0  0  0  0
   39.9820   32.0100   42.7930 H   0  0  0  0  0  0  0  0  0  0  0  0
   41.1500   31.0520   41.8900 H   0  0  0  0  0  0  0  0  0  0  0  0
   39.6620   29.8940   40.6490 H   0  0  0  0  0  0  0  0  0  0  0  0
   37.0710   30.1640   40.1980 C   0  0  0  0  0  0  0  0  0  0  0  0
   35.7560   30.0900   40.6550 C   0  0  0  0  0  0  0  0  0  0  0  0
   34.8740   29.1500   40.1020 C   0  0  0  0  0  0  0  0  0  0  0  0
   35.4030   28.3380   39.1070 N   0  0  0  0  0  0  0  0  0  0  0  0
   36.6850   28.4390   38.6910 C   0  0  0  0  0  0  0  0  0  0  0  0
   37.5030   29.3550   39.2460 N   0  0  0  0  0  0  0  0  0  0  0  0
   35.1920   30.6170   41.4080 H   0  0  0  0  0  0  0  0  0  0  0  0
   33.8460   28.9660   40.3370 H   0  0  0  0  0  0  0  0  0  0  0  0
   37.0250   27.7680   37.9090 H   0  0  0  0  0  0  0  0  0  0  0  0
   38.8160   29.7510   42.5610 C   0  0  2  0  0  0  0  0  0  0  0  0
   39.7530   28.6200   42.9400 C   0  0  0  0  0  0  0  0  0  0  0  0
   38.3820   28.3450   42.4510 C   0  0  1  0  0  0  0  0  0  0  0  0
   38.4810   30.3580   43.4230 H   0  0  0  0  0  0  0  0  0  0  0  0
   40.0230   28.4830   43.9950 H   0  0  0  0  0  0  0  0  0  0  0  0
   40.5710   28.4060   42.1990 H   0  0  0  0  0  0  0  0  0  0  0  0
   38.2210   27.8330   41.4960 H   0  0  0  0  0  0  0  0  0  0  0  0
   37.4400   27.8930   43.5330 C   0  0  0  0  0  0  0  0  0  0  0  0
   37.7040   27.9400   44.5970 H   0  0  0  0  0  0  0  0  0  0  0  0
   36.3350   27.4530   43.2610 O   0  0  0  0  0  0  0  0  0  0  0  0
  1  6  1  0  0  0  0
  1  7  1  1  0  0  0
  2  8  1  0  0  0  0
  2  1  1  0  0  0  0
  3  2  1  0  0  0  0
  3  4  1  0  0  0  0
  4 12  1  0  0  0  0
  4  5  1  0  0  0  0
  5 15  1  0  0  0  0
  5 14  1  0  0  0  0
  6 16  1  6  0  0  0
  6  5  1  0  0  0  0
  6 26  1  0  0  0  0
  9  2  1  0  0  0  0
 10  3  1  0  0  0  0
 11  3  1  0  0  0  0
 13  4  1  0  0  0  0
 17 18  1  0  0  0  0
 17  1  1  0  0  0  0
 18 23  1  0  0  0  0
 19 24  1  0  0  0  0
 19 18  2  0  0  0  0
 20 19  1  0  0  0  0
 21 20  2  0  0  0  0
 21 22  1  0  0  0  0
 22 17  2  0  0  0  0
 25 21  1  0  0  0  0
 26 27  1  0  0  0  0
 26 29  1  1  0  0  0
 27 30  1  0  0  0  0
 28 32  1  6  0  0  0
 28 26  1  0  0  0  0
 28 27  1  0  0  0  0
 28 33  1  0  0  0  0
 31 27  1  0  0  0  0
 33 34  1  0  0  0  0
 35 33  2  0  0  0  0
M  END
>  <minimizedAffinity>
-4.28030968

$$$$

 OpenBabel03242511593D

 35 37  0  0  1  0  0  0  0  0999 V2000
   36.6910   29.6090   39.7740 C   0  0  2  0  0  0  0  0  0  0  0  0
   36.3590   30.2730   38.4840 C   0  0  0  0  0  0  0  0  0  0  0  0
   37.3180   31.3430   38.1140 C   0  0  0  0  0  0  0  0  0  0  0  0
   37.4350   32.3870   39.1990 C   0  0  0  0  0  0  0  0  0  0  0  0
   37.5720   31.8060   40.5780 C   0  0  0  0  0  0  0  0  0  0  0  0
   37.7310   30.3160   40.5890 C   0  0  1  0  0  0  0  0  0  0  0  0
   35.7310   29.5660   40.3630 H   0  0  0  0  0  0  0  0  0  0  0  0
   35.3420   30.7170   38.4650 H   0  0  0  0  0  0  0  0  0  0  0  0
   36.3550   29.5050   37.6780 H   0  0  0  0  0  0  0  0  0  0  0  0
   38.3160   30.9500   37.8580 H   0  0  0  0  0  0  0  0  0  0  0  0
   36.9460   31.8680   37.2030 H   0  0  0  0  0  0  0  0  0  0  0  0
   36.4460   32.9300   39.1780 H   0  0  0  0  0  0  0  0  0  0  0  0
   38.1980   33.1380   38.9390 H   0  0  0  0  0  0  0  0  0  0  0  0
   36.7620   32.1620   41.2760 H   0  0  0  0  0  0  0  0  0  0  0  0
   38.4990   32.2390   41.0100 H   0  0  0  0  0  0  0  0  0  0  0  0
   38.7750   30.1050   40.3270 H   0  0  0  0  0  0  0  0  0  0  0  0
   37.0930   28.1990   39.6000 C   0  0  0  0  0  0  0  0  0  0  0  0
   38.3660   28.0260   39.0570 C   0  0  0  0  0  0  0  0  0  0  0  0
   38.8670   26.7330   38.8460 C   0  0  0  0  0  0  0  0  0  0  0  0
   38.0230   25.6920   39.2090 N   0  0  0  0  0  0  0  0  0  0  0  0
   36.7940   25.8990   39.7320 C   0  0  0  0  0  0  0  0  0  0  0  0
   36.3470   27.1560   39.9210 N   0  0  0  0  0  0  0  0  0  0  0  0
   39.1340   28.7010   38.7140 H   0  0  0  0  0  0  0  0  0  0  0  0
   39.8120   26.4310   38.4440 H   0  0  0  0  0  0  0  0  0  0  0  0
   36.1940   25.0340   39.9900 H   0  0  0  0  0  0  0  0  0  0  0  0
   37.5620   29.8530   42.0170 C   0  0  2  0  0  0  0  0  0  0  0  0
   38.7830   29.8660   42.9160 C   0  0  0  0  0  0  0  0  0  0  0  0
   38.1510   28.5910   42.5050 C   0  0  1  0  0  0  0  0  0  0  0  0
   36.6490   30.2500   42.5000 H   0  0  0  0  0  0  0  0  0  0  0  0
   38.6860   30.2490   43.9410 H   0  0  0  0  0  0  0  0  0  0  0  0
   39.7540   30.1000   42.4020 H   0  0  0  0  0  0  0  0  0  0  0  0
   38.6870   27.8850   41.8620 H   0  0  0  0  0  0  0  0  0  0  0  0
   37.3780   27.9230   43.6080 C   0  0  0  0  0  0  0  0  0  0  0  0
   37.6090   28.0860   44.6680 H   0  0  0  0  0  0  0  0  0  0  0  0
   36.4530   27.1660   43.3590 O   0  0  0  0  0  0  0  0  0  0  0  0
  1  7  1  1  0  0  0
  1  6  1  0  0  0  0
  2  1  1  0  0  0  0
  3  2  1  0  0  0  0
  3  4  1  0  0  0  0
  4  5  1  0  0  0  0
  5  6  1  0  0  0  0
  5 15  1  0  0  0  0
  5 14  1  0  0  0  0
  6 16  1  6  0  0  0
  6 26  1  0  0  0  0
  8  2  1  0  0  0  0
  9  2  1  0  0  0  0
 10  3  1  0  0  0  0
 11  3  1  0  0  0  0
 12  4  1  0  0  0  0
 13  4  1  0  0  0  0
 17  1  1  0  0  0  0
 17 22  1  0  0  0  0
 18 17  2  0  0  0  0
 19 18  1  0  0  0  0
 19 20  2  0  0  0  0
 20 21  1  0  0  0  0
 21 22  2  0  0  0  0
 21 25  1  0  0  0  0
 23 18  1  0  0  0  0
 24 19  1  0  0  0  0
 26 29  1  1  0  0  0
 26 28  1  0  0  0  0
 26 27  1  0  0  0  0
 27 30  1  0  0  0  0
 28 32  1  6  0  0  0
 28 27  1  0  0  0  0
 28 33  1  0  0  0  0
 31 27  1  0  0  0  0
 33 34  1  0  0  0  0
 35 33  2  0  0  0  0
M  END
>  <minimizedAffinity>
-4.27708912

$$$$
