
 OpenBabel03242518143D

 25 26  0  0  0  0  0  0  0  0999 V2000
   38.8300   29.0810   42.7460 C   0  0  0  0  0  0  0  0  0  0  0  0
   39.4770   29.7070   43.3950 H   0  0  0  0  0  0  0  0  0  0  0  0
   39.5140   28.4640   42.1250 H   0  0  0  0  0  0  0  0  0  0  0  0
   38.0480   29.9330   41.9050 C   0  0  0  0  0  0  0  0  0  0  0  0
   36.6830   30.0470   41.4730 C   0  0  0  0  0  0  0  0  0  0  0  0
   36.3320   31.0410   40.6390 C   0  0  0  0  0  0  0  0  0  0  0  0
   37.3620   31.9730   40.2010 C   0  0  0  0  0  0  0  0  0  0  0  0
   38.8540   31.3860   41.0190 S   0  0  0  0  0  0  0  0  0  0  0  0
   36.0160   29.3000   41.8630 H   0  0  0  0  0  0  0  0  0  0  0  0
   35.3570   31.1980   40.2740 H   0  0  0  0  0  0  0  0  0  0  0  0
   37.2800   33.0620   39.3650 C   0  0  0  0  0  0  0  0  0  0  0  0
   36.8680   32.9110   38.3760 H   0  0  0  0  0  0  0  0  0  0  0  0
   37.7150   34.1470   39.8790 O   0  0  0  0  0  0  0  0  0  0  0  0
   38.0420   28.1310   43.6180 C   0  0  0  0  0  0  0  0  0  0  0  0
   37.0000   28.4040   43.7440 H   0  0  0  0  0  0  0  0  0  0  0  0
   38.5110   28.1900   44.6400 H   0  0  0  0  0  0  0  0  0  0  0  0
   38.2230   26.7720   43.1340 C   0  0  0  0  0  0  0  0  0  0  0  0
   37.2350   26.1220   42.3910 C   0  0  0  0  0  0  0  0  0  0  0  0
   37.4650   24.8230   41.9570 C   0  0  0  0  0  0  0  0  0  0  0  0
   38.6570   24.2460   42.2830 N   0  0  0  0  0  0  0  0  0  0  0  0
   39.5930   24.9000   43.0030 C   0  0  0  0  0  0  0  0  0  0  0  0
   39.3680   26.1470   43.4190 N   0  0  0  0  0  0  0  0  0  0  0  0
   36.3090   26.6330   42.1650 H   0  0  0  0  0  0  0  0  0  0  0  0
   36.7210   24.3090   41.3870 H   0  0  0  0  0  0  0  0  0  0  0  0
   40.5200   24.3860   43.2290 H   0  0  0  0  0  0  0  0  0  0  0  0
  1  2  1  0  0  0  0
  1 14  1  0  0  0  0
  3  1  1  0  0  0  0
  4  1  1  0  0  0  0
  5  9  1  0  0  0  0
  5  4  2  0  0  0  0
  6  5  1  0  0  0  0
  7  6  2  0  0  0  0
  7  8  1  0  0  0  0
  8  4  1  0  0  0  0
 10  6  1  0  0  0  0
 11 13  2  0  0  0  0
 11  7  1  0  0  0  0
 12 11  1  0  0  0  0
 14 15  1  0  0  0  0
 14 16  1  0  0  0  0
 17 22  1  0  0  0  0
 17 14  1  0  0  0  0
 18 17  2  0  0  0  0
 19 20  2  0  0  0  0
 19 18  1  0  0  0  0
 20 21  1  0  0  0  0
 21 25  1  0  0  0  0
 21 22  2  0  0  0  0
 23 18  1  0  0  0  0
 24 19  1  0  0  0  0
M  END
>  <minimizedAffinity>
-4.3535862

$$$$

 OpenBabel03242518143D

 25 26  0  0  0  0  0  0  0  0999 V2000
   36.5650   28.1780   41.7910 C   0  0  0  0  0  0  0  0  0  0  0  0
   36.9380   27.4200   41.0700 H   0  0  0  0  0  0  0  0  0  0  0  0
   35.4630   28.0500   41.8370 H   0  0  0  0  0  0  0  0  0  0  0  0
   36.8820   29.4840   41.3020 C   0  0  0  0  0  0  0  0  0  0  0  0
   36.2260   30.5490   40.5970 C   0  0  0  0  0  0  0  0  0  0  0  0
   36.9050   31.6750   40.3160 C   0  0  0  0  0  0  0  0  0  0  0  0
   38.2940   31.7700   40.7440 C   0  0  0  0  0  0  0  0  0  0  0  0
   38.6040   30.1980   41.5620 S   0  0  0  0  0  0  0  0  0  0  0  0
   35.2010   30.3600   40.3340 H   0  0  0  0  0  0  0  0  0  0  0  0
   36.5020   32.5020   39.8040 H   0  0  0  0  0  0  0  0  0  0  0  0
   39.2040   32.7900   40.5910 C   0  0  0  0  0  0  0  0  0  0  0  0
   40.1490   32.5590   40.1180 H   0  0  0  0  0  0  0  0  0  0  0  0
   38.8040   33.9160   41.0410 O   0  0  0  0  0  0  0  0  0  0  0  0
   37.1090   27.8500   43.1630 C   0  0  0  0  0  0  0  0  0  0  0  0
   36.3470   27.7240   43.9240 H   0  0  0  0  0  0  0  0  0  0  0  0
   37.7220   28.7420   43.4720 H   0  0  0  0  0  0  0  0  0  0  0  0
   38.0120   26.7150   43.0630 C   0  0  0  0  0  0  0  0  0  0  0  0
   39.2660   26.7210   43.6800 C   0  0  0  0  0  0  0  0  0  0  0  0
   40.0850   25.6080   43.5490 C   0  0  0  0  0  0  0  0  0  0  0  0
   39.6170   24.5570   42.8170 N   0  0  0  0  0  0  0  0  0  0  0  0
   38.4000   24.5800   42.2330 C   0  0  0  0  0  0  0  0  0  0  0  0
   37.6160   25.6510   42.3600 N   0  0  0  0  0  0  0  0  0  0  0  0
   39.5810   27.5860   44.2470 H   0  0  0  0  0  0  0  0  0  0  0  0
   41.0470   25.5930   44.0120 H   0  0  0  0  0  0  0  0  0  0  0  0
   38.0850   23.7120   41.6640 H   0  0  0  0  0  0  0  0  0  0  0  0
  1  3  1  0  0  0  0
  1 14  1  0  0  0  0
  2  1  1  0  0  0  0
  4  8  1  0  0  0  0
  4  1  1  0  0  0  0
  5  4  2  0  0  0  0
  6  5  1  0  0  0  0
  6  7  2  0  0  0  0
  7  8  1  0  0  0  0
  9  5  1  0  0  0  0
 10  6  1  0  0  0  0
 11  7  1  0  0  0  0
 11 13  2  0  0  0  0
 12 11  1  0  0  0  0
 14 16  1  0  0  0  0
 14 15  1  0  0  0  0
 17 14  1  0  0  0  0
 17 18  1  0  0  0  0
 18 23  1  0  0  0  0
 19 18  2  0  0  0  0
 19 24  1  0  0  0  0
 20 19  1  0  0  0  0
 21 22  1  0  0  0  0
 21 20  2  0  0  0  0
 22 17  2  0  0  0  0
 25 21  1  0  0  0  0
M  END
>  <minimizedAffinity>
-4.34936523

$$$$

 OpenBabel03242518143D

 25 26  0  0  0  0  0  0  0  0999 V2000
   36.9060   27.3230   42.6460 C   0  0  0  0  0  0  0  0  0  0  0  0
   37.1750   26.4420   42.0250 H   0  0  0  0  0  0  0  0  0  0  0  0
   36.0040   27.0330   43.2250 H   0  0  0  0  0  0  0  0  0  0  0  0
   36.5980   28.4240   41.7870 C   0  0  0  0  0  0  0  0  0  0  0  0
   35.5850   28.7880   40.8370 C   0  0  0  0  0  0  0  0  0  0  0  0
   35.6580   29.9750   40.2120 C   0  0  0  0  0  0  0  0  0  0  0  0
   36.7740   30.8560   40.5270 C   0  0  0  0  0  0  0  0  0  0  0  0
   37.7220   29.9340   41.7470 S   0  0  0  0  0  0  0  0  0  0  0  0
   34.8120   28.0540   40.6900 H   0  0  0  0  0  0  0  0  0  0  0  0
   34.9590   30.3210   39.5030 H   0  0  0  0  0  0  0  0  0  0  0  0
   37.0860   32.1050   40.0430 C   0  0  0  0  0  0  0  0  0  0  0  0
   37.3140   32.8830   40.7590 H   0  0  0  0  0  0  0  0  0  0  0  0
   37.0650   32.1890   38.7690 O   0  0  0  0  0  0  0  0  0  0  0  0
   38.0150   27.5690   43.6430 C   0  0  0  0  0  0  0  0  0  0  0  0
   37.6930   27.5570   44.6780 H   0  0  0  0  0  0  0  0  0  0  0  0
   38.3880   28.6120   43.4380 H   0  0  0  0  0  0  0  0  0  0  0  0
   39.1130   26.6550   43.3760 C   0  0  0  0  0  0  0  0  0  0  0  0
   40.4360   26.9910   43.6780 C   0  0  0  0  0  0  0  0  0  0  0  0
   41.4430   26.0770   43.3990 C   0  0  0  0  0  0  0  0  0  0  0  0
   41.0830   24.8870   42.8380 N   0  0  0  0  0  0  0  0  0  0  0  0
   39.7960   24.5910   42.5580 C   0  0  0  0  0  0  0  0  0  0  0  0
   38.8320   25.4710   42.8260 N   0  0  0  0  0  0  0  0  0  0  0  0
   40.6580   27.9520   44.1230 H   0  0  0  0  0  0  0  0  0  0  0  0
   42.4590   26.3150   43.6230 H   0  0  0  0  0  0  0  0  0  0  0  0
   39.5750   23.6270   42.1120 H   0  0  0  0  0  0  0  0  0  0  0  0
  1  3  1  0  0  0  0
  1 14  1  0  0  0  0
  2  1  1  0  0  0  0
  4  1  1  0  0  0  0
  5  4  2  0  0  0  0
  6  7  2  0  0  0  0
  6  5  1  0  0  0  0
  7  8  1  0  0  0  0
  8  4  1  0  0  0  0
  9  5  1  0  0  0  0
 10  6  1  0  0  0  0
 11  7  1  0  0  0  0
 11 12  1  0  0  0  0
 13 11  2  0  0  0  0
 14 15  1  0  0  0  0
 16 14  1  0  0  0  0
 17 14  1  0  0  0  0
 17 18  1  0  0  0  0
 18 23  1  0  0  0  0
 19 24  1  0  0  0  0
 19 18  2  0  0  0  0
 20 19  1  0  0  0  0
 21 22  1  0  0  0  0
 21 20  2  0  0  0  0
 22 17  2  0  0  0  0
 25 21  1  0  0  0  0
M  END
>  <minimizedAffinity>
-4.32744026

$$$$

 OpenBabel03242518143D

 25 26  0  0  0  0  0  0  0  0999 V2000
   36.1660   27.9930   40.3180 C   0  0  0  0  0  0  0  0  0  0  0  0
   35.4510   27.1600   40.1540 H   0  0  0  0  0  0  0  0  0  0  0  0
   36.8130   28.0310   39.4170 H   0  0  0  0  0  0  0  0  0  0  0  0
   36.9590   27.7090   41.4730 C   0  0  0  0  0  0  0  0  0  0  0  0
   37.0350   28.1230   42.8460 C   0  0  0  0  0  0  0  0  0  0  0  0
   37.9700   27.5880   43.6500 C   0  0  0  0  0  0  0  0  0  0  0  0
   38.8790   26.5970   43.0890 C   0  0  0  0  0  0  0  0  0  0  0  0
   38.3580   26.4520   41.3740 S   0  0  0  0  0  0  0  0  0  0  0  0
   36.3100   28.8600   43.1420 H   0  0  0  0  0  0  0  0  0  0  0  0
   38.0950   27.8340   44.6660 H   0  0  0  0  0  0  0  0  0  0  0  0
   39.9090   25.9020   43.6780 C   0  0  0  0  0  0  0  0  0  0  0  0
   40.5610   26.4380   44.3550 H   0  0  0  0  0  0  0  0  0  0  0  0
   39.9680   24.6720   43.3390 O   0  0  0  0  0  0  0  0  0  0  0  0
   35.3930   29.2910   40.3660 C   0  0  0  0  0  0  0  0  0  0  0  0
   34.9470   29.5070   41.3310 H   0  0  0  0  0  0  0  0  0  0  0  0
   34.5400   29.1700   39.6410 H   0  0  0  0  0  0  0  0  0  0  0  0
   36.2340   30.3700   39.8710 C   0  0  0  0  0  0  0  0  0  0  0  0
   36.6500   31.4140   40.7020 C   0  0  0  0  0  0  0  0  0  0  0  0
   37.4520   32.4160   40.1710 C   0  0  0  0  0  0  0  0  0  0  0  0
   37.7930   32.3260   38.8540 N   0  0  0  0  0  0  0  0  0  0  0  0
   37.3750   31.3040   38.0770 C   0  0  0  0  0  0  0  0  0  0  0  0
   36.6050   30.3440   38.5890 N   0  0  0  0  0  0  0  0  0  0  0  0
   36.3450   31.4290   41.7390 H   0  0  0  0  0  0  0  0  0  0  0  0
   37.7800   33.2220   40.7900 H   0  0  0  0  0  0  0  0  0  0  0  0
   37.6820   31.2910   37.0370 H   0  0  0  0  0  0  0  0  0  0  0  0
  1 14  1  0  0  0  0
  1  4  1  0  0  0  0
  2  1  1  0  0  0  0
  3  1  1  0  0  0  0
  4  5  2  0  0  0  0
  5  9  1  0  0  0  0
  5  6  1  0  0  0  0
  6 10  1  0  0  0  0
  7  6  2  0  0  0  0
  7 11  1  0  0  0  0
  8  4  1  0  0  0  0
  8  7  1  0  0  0  0
 11 12  1  0  0  0  0
 13 11  2  0  0  0  0
 14 15  1  0  0  0  0
 16 14  1  0  0  0  0
 17 14  1  0  0  0  0
 17 18  1  0  0  0  0
 18 23  1  0  0  0  0
 19 18  2  0  0  0  0
 19 24  1  0  0  0  0
 20 19  1  0  0  0  0
 21 22  1  0  0  0  0
 21 20  2  0  0  0  0
 22 17  2  0  0  0  0
 25 21  1  0  0  0  0
M  END
>  <minimizedAffinity>
-4.23998928

$$$$

 OpenBabel03242518143D

 25 26  0  0  0  0  0  0  0  0999 V2000
   36.2660   30.7570   41.0580 C   0  0  0  0  0  0  0  0  0  0  0  0
   36.5950   31.5900   41.7130 H   0  0  0  0  0  0  0  0  0  0  0  0
   35.1560   30.7730   41.0650 H   0  0  0  0  0  0  0  0  0  0  0  0
   36.7360   29.5200   41.6020 C   0  0  0  0  0  0  0  0  0  0  0  0
   36.3380   28.1410   41.6200 C   0  0  0  0  0  0  0  0  0  0  0  0
   37.0930   27.2420   42.2750 C   0  0  0  0  0  0  0  0  0  0  0  0
   38.2980   27.7080   42.9460 C   0  0  0  0  0  0  0  0  0  0  0  0
   38.3220   29.4760   42.6150 S   0  0  0  0  0  0  0  0  0  0  0  0
   35.4290   27.9200   41.0890 H   0  0  0  0  0  0  0  0  0  0  0  0
   36.8750   26.2130   42.3380 H   0  0  0  0  0  0  0  0  0  0  0  0
   39.2350   27.0140   43.6750 C   0  0  0  0  0  0  0  0  0  0  0  0
   39.7490   27.5380   44.4690 H   0  0  0  0  0  0  0  0  0  0  0  0
   39.3840   25.8000   43.3080 O   0  0  0  0  0  0  0  0  0  0  0  0
   36.7060   31.0500   39.6420 C   0  0  0  0  0  0  0  0  0  0  0  0
   35.9020   31.3520   38.9800 H   0  0  0  0  0  0  0  0  0  0  0  0
   37.1060   30.0790   39.2350 H   0  0  0  0  0  0  0  0  0  0  0  0
   37.8100   31.9970   39.6690 C   0  0  0  0  0  0  0  0  0  0  0  0
   39.1000   31.6280   39.2760 C   0  0  0  0  0  0  0  0  0  0  0  0
   40.1130   32.5760   39.3240 C   0  0  0  0  0  0  0  0  0  0  0  0
   39.7920   33.8290   39.7570 N   0  0  0  0  0  0  0  0  0  0  0  0
   38.5360   34.1540   40.1300 C   0  0  0  0  0  0  0  0  0  0  0  0
   37.5650   33.2420   40.0830 N   0  0  0  0  0  0  0  0  0  0  0  0
   39.2920   30.6180   38.9420 H   0  0  0  0  0  0  0  0  0  0  0  0
   41.1060   32.3140   39.0280 H   0  0  0  0  0  0  0  0  0  0  0  0
   38.3460   35.1680   40.4650 H   0  0  0  0  0  0  0  0  0  0  0  0
  1  3  1  0  0  0  0
  1  4  1  0  0  0  0
  1  2  1  0  0  0  0
  4  5  2  0  0  0  0
  4  8  1  0  0  0  0
  5  6  1  0  0  0  0
  6 10  1  0  0  0  0
  6  7  2  0  0  0  0
  7 11  1  0  0  0  0
  8  7  1  0  0  0  0
  9  5  1  0  0  0  0
 11 12  1  0  0  0  0
 13 11  2  0  0  0  0
 14 17  1  0  0  0  0
 14  1  1  0  0  0  0
 15 14  1  0  0  0  0
 16 14  1  0  0  0  0
 17 22  1  0  0  0  0
 18 19  1  0  0  0  0
 18 17  2  0  0  0  0
 19 20  2  0  0  0  0
 20 21  1  0  0  0  0
 21 25  1  0  0  0  0
 22 21  2  0  0  0  0
 23 18  1  0  0  0  0
 24 19  1  0  0  0  0
M  END
>  <minimizedAffinity>
-4.21912289

$$$$

 OpenBabel03242518143D

 25 26  0  0  0  0  0  0  0  0999 V2000
   38.8890   27.2760   43.2030 C   0  0  0  0  0  0  0  0  0  0  0  0
   39.6650   27.7110   42.5380 H   0  0  0  0  0  0  0  0  0  0  0  0
   39.4110   26.9720   44.1340 H   0  0  0  0  0  0  0  0  0  0  0  0
   38.3220   26.1260   42.5680 C   0  0  0  0  0  0  0  0  0  0  0  0
   37.0200   25.5620   42.3450 C   0  0  0  0  0  0  0  0  0  0  0  0
   36.9050   24.4090   41.6650 C   0  0  0  0  0  0  0  0  0  0  0  0
   38.1190   23.7710   41.1750 C   0  0  0  0  0  0  0  0  0  0  0  0
   39.4360   24.8700   41.7170 S   0  0  0  0  0  0  0  0  0  0  0  0
   36.2010   26.1250   42.7570 H   0  0  0  0  0  0  0  0  0  0  0  0
   35.9920   23.9270   41.4570 H   0  0  0  0  0  0  0  0  0  0  0  0
   38.2860   22.6070   40.4620 C   0  0  0  0  0  0  0  0  0  0  0  0
   39.2710   22.1600   40.4440 H   0  0  0  0  0  0  0  0  0  0  0  0
   37.2220   22.1880   39.8910 O   0  0  0  0  0  0  0  0  0  0  0  0
   37.9060   28.3610   43.5760 C   0  0  0  0  0  0  0  0  0  0  0  0
   37.9430   28.6540   44.6190 H   0  0  0  0  0  0  0  0  0  0  0  0
   36.8830   27.9230   43.4040 H   0  0  0  0  0  0  0  0  0  0  0  0
   38.0580   29.4820   42.6620 C   0  0  0  0  0  0  0  0  0  0  0  0
   39.2460   30.2130   42.5920 C   0  0  0  0  0  0  0  0  0  0  0  0
   39.3310   31.2730   41.6990 C   0  0  0  0  0  0  0  0  0  0  0  0
   38.2380   31.5470   40.9310 N   0  0  0  0  0  0  0  0  0  0  0  0
   37.1030   30.8220   41.0220 C   0  0  0  0  0  0  0  0  0  0  0  0
   37.0240   29.8040   41.8800 N   0  0  0  0  0  0  0  0  0  0  0  0
   40.0800   29.9470   43.2280 H   0  0  0  0  0  0  0  0  0  0  0  0
   40.2310   31.8450   41.6300 H   0  0  0  0  0  0  0  0  0  0  0  0
   36.2680   31.0900   40.3830 H   0  0  0  0  0  0  0  0  0  0  0  0
  1 14  1  0  0  0  0
  1  3  1  0  0  0  0
  2  1  1  0  0  0  0
  4  1  1  0  0  0  0
  5  4  2  0  0  0  0
  5  9  1  0  0  0  0
  6  5  1  0  0  0  0
  7  6  2  0  0  0  0
  7  8  1  0  0  0  0
  8  4  1  0  0  0  0
 10  6  1  0  0  0  0
 11  7  1  0  0  0  0
 12 11  1  0  0  0  0
 13 11  2  0  0  0  0
 14 15  1  0  0  0  0
 16 14  1  0  0  0  0
 17 14  1  0  0  0  0
 18 17  1  0  0  0  0
 18 23  1  0  0  0  0
 19 18  2  0  0  0  0
 20 21  2  0  0  0  0
 20 19  1  0  0  0  0
 21 22  1  0  0  0  0
 22 17  2  0  0  0  0
 24 19  1  0  0  0  0
 25 21  1  0  0  0  0
M  END
>  <minimizedAffinity>
-4.18585157

$$$$

 OpenBabel03242518143D

 25 26  0  0  0  0  0  0  0  0999 V2000
   35.6210   28.5430   40.0810 C   0  0  0  0  0  0  0  0  0  0  0  0
   34.7600   28.2960   39.4250 H   0  0  0  0  0  0  0  0  0  0  0  0
   35.2060   28.6920   41.1000 H   0  0  0  0  0  0  0  0  0  0  0  0
   36.2250   29.7560   39.6210 C   0  0  0  0  0  0  0  0  0  0  0  0
   36.7200   30.3030   38.3890 C   0  0  0  0  0  0  0  0  0  0  0  0
   37.2350   31.5440   38.3740 C   0  0  0  0  0  0  0  0  0  0  0  0
   37.2700   32.2930   39.6230 C   0  0  0  0  0  0  0  0  0  0  0  0
   36.5440   31.1680   40.8240 S   0  0  0  0  0  0  0  0  0  0  0  0
   36.6400   29.6530   37.5360 H   0  0  0  0  0  0  0  0  0  0  0  0
   37.6190   32.0210   37.5170 H   0  0  0  0  0  0  0  0  0  0  0  0
   37.7340   33.5610   39.8870 C   0  0  0  0  0  0  0  0  0  0  0  0
   37.2550   34.3910   39.3840 H   0  0  0  0  0  0  0  0  0  0  0  0
   38.7030   33.5980   40.7170 O   0  0  0  0  0  0  0  0  0  0  0  0
   36.5410   27.3460   40.1450 C   0  0  0  0  0  0  0  0  0  0  0  0
   37.0910   27.1580   39.2290 H   0  0  0  0  0  0  0  0  0  0  0  0
   35.8730   26.4520   40.3030 H   0  0  0  0  0  0  0  0  0  0  0  0
   37.3980   27.4600   41.3140 C   0  0  0  0  0  0  0  0  0  0  0  0
   36.8680   27.5890   42.6000 C   0  0  0  0  0  0  0  0  0  0  0  0
   37.7370   27.6950   43.6780 C   0  0  0  0  0  0  0  0  0  0  0  0
   39.0750   27.6680   43.4200 N   0  0  0  0  0  0  0  0  0  0  0  0
   39.5580   27.5430   42.1650 C   0  0  0  0  0  0  0  0  0  0  0  0
   38.7210   27.4420   41.1330 N   0  0  0  0  0  0  0  0  0  0  0  0
   35.7950   27.6040   42.7400 H   0  0  0  0  0  0  0  0  0  0  0  0
   37.3510   27.7940   44.6690 H   0  0  0  0  0  0  0  0  0  0  0  0
   40.6330   27.5280   42.0260 H   0  0  0  0  0  0  0  0  0  0  0  0
  1 14  1  0  0  0  0
  1  3  1  0  0  0  0
  2  1  1  0  0  0  0
  4  1  1  0  0  0  0
  4  8  1  0  0  0  0
  5  4  2  0  0  0  0
  6  5  1  0  0  0  0
  6  7  2  0  0  0  0
  7 11  1  0  0  0  0
  7  8  1  0  0  0  0
  9  5  1  0  0  0  0
 10  6  1  0  0  0  0
 11 13  2  0  0  0  0
 12 11  1  0  0  0  0
 14 16  1  0  0  0  0
 14 17  1  0  0  0  0
 15 14  1  0  0  0  0
 17 18  1  0  0  0  0
 18 23  1  0  0  0  0
 18 19  2  0  0  0  0
 19 24  1  0  0  0  0
 20 19  1  0  0  0  0
 21 20  2  0  0  0  0
 22 17  2  0  0  0  0
 22 21  1  0  0  0  0
 25 21  1  0  0  0  0
M  END
>  <minimizedAffinity>
-4.09663248

$$$$

 OpenBabel03242518143D

 25 26  0  0  0  0  0  0  0  0999 V2000
   36.5080   28.0020   42.2490 C   0  0  0  0  0  0  0  0  0  0  0  0
   36.5640   27.0420   41.6940 H   0  0  0  0  0  0  0  0  0  0  0  0
   35.5170   28.0170   42.7490 H   0  0  0  0  0  0  0  0  0  0  0  0
   36.5990   29.0850   41.3190 C   0  0  0  0  0  0  0  0  0  0  0  0
   36.4490   30.5130   41.3240 C   0  0  0  0  0  0  0  0  0  0  0  0
   36.6310   31.2030   40.1850 C   0  0  0  0  0  0  0  0  0  0  0  0
   36.9780   30.4650   38.9780 C   0  0  0  0  0  0  0  0  0  0  0  0
   37.0360   28.7510   39.5190 S   0  0  0  0  0  0  0  0  0  0  0  0
   36.1910   30.9420   42.2760 H   0  0  0  0  0  0  0  0  0  0  0  0
   36.5410   32.2490   40.1000 H   0  0  0  0  0  0  0  0  0  0  0  0
   37.2170   30.9140   37.7000 C   0  0  0  0  0  0  0  0  0  0  0  0
   37.5480   31.9360   37.5750 H   0  0  0  0  0  0  0  0  0  0  0  0
   37.0110   30.0370   36.7940 O   0  0  0  0  0  0  0  0  0  0  0  0
   37.5560   27.9940   43.3380 C   0  0  0  0  0  0  0  0  0  0  0  0
   37.1540   28.0790   44.3420 H   0  0  0  0  0  0  0  0  0  0  0  0
   38.1850   28.9130   43.1690 H   0  0  0  0  0  0  0  0  0  0  0  0
   38.4210   26.8380   43.1640 C   0  0  0  0  0  0  0  0  0  0  0  0
   39.7290   26.8220   43.6560 C   0  0  0  0  0  0  0  0  0  0  0  0
   40.5080   25.6890   43.4590 C   0  0  0  0  0  0  0  0  0  0  0  0
   39.9480   24.6420   42.7880 N   0  0  0  0  0  0  0  0  0  0  0  0
   38.6810   24.6880   42.3250 C   0  0  0  0  0  0  0  0  0  0  0  0
   37.9360   25.7770   42.5150 N   0  0  0  0  0  0  0  0  0  0  0  0
   40.1170   27.6850   44.1800 H   0  0  0  0  0  0  0  0  0  0  0  0
   41.5100   25.6580   43.8270 H   0  0  0  0  0  0  0  0  0  0  0  0
   38.2940   23.8220   41.7990 H   0  0  0  0  0  0  0  0  0  0  0  0
  1  3  1  0  0  0  0
  1 14  1  0  0  0  0
  2  1  1  0  0  0  0
  4  5  2  0  0  0  0
  4  1  1  0  0  0  0
  5  9  1  0  0  0  0
  6  5  1  0  0  0  0
  7  8  1  0  0  0  0
  7  6  2  0  0  0  0
  8  4  1  0  0  0  0
 10  6  1  0  0  0  0
 11  7  1  0  0  0  0
 12 11  1  0  0  0  0
 13 11  2  0  0  0  0
 14 15  1  0  0  0  0
 16 14  1  0  0  0  0
 17 14  1  0  0  0  0
 17 18  1  0  0  0  0
 18 23  1  0  0  0  0
 19 18  2  0  0  0  0
 19 24  1  0  0  0  0
 20 19  1  0  0  0  0
 21 22  1  0  0  0  0
 21 20  2  0  0  0  0
 22 17  2  0  0  0  0
 25 21  1  0  0  0  0
M  END
>  <minimizedAffinity>
-4.08413076

$$$$

 OpenBabel03242518143D

 25 26  0  0  0  0  0  0  0  0999 V2000
   35.8560   29.5100   40.5700 C   0  0  0  0  0  0  0  0  0  0  0  0
   35.7490   30.3220   41.3190 H   0  0  0  0  0  0  0  0  0  0  0  0
   34.8430   29.3350   40.1510 H   0  0  0  0  0  0  0  0  0  0  0  0
   36.3210   28.3270   41.2260 C   0  0  0  0  0  0  0  0  0  0  0  0
   36.5820   27.8800   42.5650 C   0  0  0  0  0  0  0  0  0  0  0  0
   37.0310   26.6300   42.7710 C   0  0  0  0  0  0  0  0  0  0  0  0
   37.2350   25.7690   41.6150 C   0  0  0  0  0  0  0  0  0  0  0  0
   36.7670   26.8010   40.2180 S   0  0  0  0  0  0  0  0  0  0  0  0
   36.3930   28.6070   43.3350 H   0  0  0  0  0  0  0  0  0  0  0  0
   37.2470   26.2220   43.7180 H   0  0  0  0  0  0  0  0  0  0  0  0
   37.6770   24.4690   41.5410 C   0  0  0  0  0  0  0  0  0  0  0  0
   37.1840   23.8040   40.8450 H   0  0  0  0  0  0  0  0  0  0  0  0
   38.6450   24.2030   42.3310 O   0  0  0  0  0  0  0  0  0  0  0  0
   36.7260   30.0070   39.4380 C   0  0  0  0  0  0  0  0  0  0  0  0
   36.2080   30.1080   38.4910 H   0  0  0  0  0  0  0  0  0  0  0  0
   37.5160   29.2180   39.2870 H   0  0  0  0  0  0  0  0  0  0  0  0
   37.4030   31.2260   39.8520 C   0  0  0  0  0  0  0  0  0  0  0  0
   38.4780   31.1980   40.7450 C   0  0  0  0  0  0  0  0  0  0  0  0
   39.0850   32.3950   41.1040 C   0  0  0  0  0  0  0  0  0  0  0  0
   38.5930   33.5440   40.5600 N   0  0  0  0  0  0  0  0  0  0  0  0
   37.5530   33.5390   39.7000 C   0  0  0  0  0  0  0  0  0  0  0  0
   36.9720   32.3880   39.3580 N   0  0  0  0  0  0  0  0  0  0  0  0
   38.8230   30.2530   41.1430 H   0  0  0  0  0  0  0  0  0  0  0  0
   39.9080   32.3940   41.7850 H   0  0  0  0  0  0  0  0  0  0  0  0
   37.2080   34.4870   39.3020 H   0  0  0  0  0  0  0  0  0  0  0  0
  1  4  1  0  0  0  0
  1  2  1  0  0  0  0
  3  1  1  0  0  0  0
  4  5  2  0  0  0  0
  5  6  1  0  0  0  0
  5  9  1  0  0  0  0
  6 10  1  0  0  0  0
  7  6  2  0  0  0  0
  8  4  1  0  0  0  0
  8  7  1  0  0  0  0
 11  7  1  0  0  0  0
 11 13  2  0  0  0  0
 12 11  1  0  0  0  0
 14 17  1  0  0  0  0
 14  1  1  0  0  0  0
 15 14  1  0  0  0  0
 16 14  1  0  0  0  0
 17 18  1  0  0  0  0
 18 19  2  0  0  0  0
 18 23  1  0  0  0  0
 19 24  1  0  0  0  0
 20 19  1  0  0  0  0
 21 20  2  0  0  0  0
 22 21  1  0  0  0  0
 22 17  2  0  0  0  0
 25 21  1  0  0  0  0
M  END
>  <minimizedAffinity>
-4.02019119

$$$$
