
 OpenBabel03252509183D

 35 37  0  0  1  0  0  0  0  0999 V2000
   47.5820   29.9960   48.2480 C   0  0  1  0  0  0  0  0  0  0  0  0
   47.4820   28.8060   47.3580 C   0  0  0  0  0  0  0  0  0  0  0  0
   48.7580   28.0460   47.1780 C   0  0  0  0  0  0  0  0  0  0  0  0
   49.5250   27.8620   48.4670 C   0  0  0  0  0  0  0  0  0  0  0  0
   49.5900   29.1250   49.2900 C   0  0  0  0  0  0  0  0  0  0  0  0
   49.0840   30.3070   48.4520 C   0  0  2  0  0  0  0  0  0  0  0  0
   47.2280   29.7390   49.2560 H   0  0  0  0  0  0  0  0  0  0  0  0
   47.1780   29.1530   46.3320 H   0  0  0  0  0  0  0  0  0  0  0  0
   46.6950   28.0700   47.6580 H   0  0  0  0  0  0  0  0  0  0  0  0
   49.4280   28.6350   46.5030 H   0  0  0  0  0  0  0  0  0  0  0  0
   48.5650   27.0570   46.7630 H   0  0  0  0  0  0  0  0  0  0  0  0
   50.5320   27.5050   48.1700 H   0  0  0  0  0  0  0  0  0  0  0  0
   49.0740   27.0750   49.0730 H   0  0  0  0  0  0  0  0  0  0  0  0
   48.9120   29.0650   50.1550 H   0  0  0  0  0  0  0  0  0  0  0  0
   50.6270   29.3710   49.5740 H   0  0  0  0  0  0  0  0  0  0  0  0
   49.6160   30.4060   47.5060 H   0  0  0  0  0  0  0  0  0  0  0  0
   45.9230   33.1610   46.2340 C   0  0  0  0  0  0  0  0  0  0  0  0
   45.3290   32.9550   47.4890 C   0  0  0  0  0  0  0  0  0  0  0  0
   45.7980   31.9430   48.2430 C   0  0  0  0  0  0  0  0  0  0  0  0
   46.8460   31.1290   47.7740 C   0  0  0  0  0  0  0  0  0  0  0  0
   47.2030   31.8500   46.1350 S   0  0  0  0  0  0  0  0  0  0  0  0
   44.5250   33.5780   47.8490 H   0  0  0  0  0  0  0  0  0  0  0  0
   45.4750   31.6300   49.2240 H   0  0  0  0  0  0  0  0  0  0  0  0
   44.4160   36.1090   44.5360 C   0  0  0  0  0  0  0  0  0  0  0  0
   45.0400   36.0180   43.2820 C   0  0  0  0  0  0  0  0  0  0  0  0
   45.9450   34.9580   43.0680 C   0  0  0  0  0  0  0  0  0  0  0  0
   46.1620   34.0820   44.0960 N   0  0  0  0  0  0  0  0  0  0  0  0
   45.5320   34.2190   45.2870 C   0  0  0  0  0  0  0  0  0  0  0  0
   44.6580   35.2340   45.5060 N   0  0  0  0  0  0  0  0  0  0  0  0
   43.7270   36.9130   44.7070 H   0  0  0  0  0  0  0  0  0  0  0  0
   44.8350   36.7300   42.5110 H   0  0  0  0  0  0  0  0  0  0  0  0
   46.4460   34.8420   42.1330 H   0  0  0  0  0  0  0  0  0  0  0  0
   49.1600   31.5300   49.3020 C   0  0  0  0  0  0  0  0  0  0  0  0
   48.2040   31.9120   49.6760 H   0  0  0  0  0  0  0  0  0  0  0  0
   50.2100   32.0980   49.5860 O   0  0  0  0  0  0  0  0  0  0  0  0
  1  6  1  0  0  0  0
  1  7  1  1  0  0  0
  2  9  1  0  0  0  0
  2  1  1  0  0  0  0
  3  2  1  0  0  0  0
  3  4  1  0  0  0  0
  4 13  1  0  0  0  0
  4  5  1  0  0  0  0
  5 15  1  0  0  0  0
  5 14  1  0  0  0  0
  6 16  1  6  0  0  0
  6  5  1  0  0  0  0
  6 33  1  0  0  0  0
  8  2  1  0  0  0  0
 10  3  1  0  0  0  0
 11  3  1  0  0  0  0
 12  4  1  0  0  0  0
 17 18  2  0  0  0  0
 18 22  1  0  0  0  0
 18 19  1  0  0  0  0
 19 23  1  0  0  0  0
 20 19  2  0  0  0  0
 20  1  1  0  0  0  0
 21 17  1  0  0  0  0
 21 20  1  0  0  0  0
 24 30  1  0  0  0  0
 24 29  1  0  0  0  0
 25 24  2  0  0  0  0
 26 25  1  0  0  0  0
 26 27  2  0  0  0  0
 27 28  1  0  0  0  0
 28 29  2  0  0  0  0
 28 17  1  0  0  0  0
 31 25  1  0  0  0  0
 32 26  1  0  0  0  0
 33 35  2  0  0  0  0
 33 34  1  0  0  0  0
M  END
>  <minimizedAffinity>
-4.97134304

>  <minimizedRMSD>
1.14340067

$$$$
