
 OpenBabel03252508253D

 35 38  0  0  1  0  0  0  0  0999 V2000
   46.4490   32.4620   46.0040 C   0  0  1  0  0  0  0  0  0  0  0  0
   46.9640   32.6600   47.3680 C   0  0  0  0  0  0  0  0  0  0  0  0
   45.5460   32.0370   47.0560 C   0  0  2  0  0  0  0  0  0  0  0  0
   47.2310   31.8030   45.4830 H   0  0  0  0  0  0  0  0  0  0  0  0
   47.0130   33.6920   47.7190 H   0  0  0  0  0  0  0  0  0  0  0  0
   47.6270   31.9800   47.9070 H   0  0  0  0  0  0  0  0  0  0  0  0
   44.8850   32.7400   47.6370 H   0  0  0  0  0  0  0  0  0  0  0  0
   45.2730   30.6460   47.4270 C   0  0  0  0  0  0  0  0  0  0  0  0
   45.1430   30.1330   48.6800 C   0  0  0  0  0  0  0  0  0  0  0  0
   45.0070   28.7880   48.9950 C   0  0  0  0  0  0  0  0  0  0  0  0
   45.0060   27.8910   47.9180 C   0  0  0  0  0  0  0  0  0  0  0  0
   45.1350   28.3910   46.6210 C   0  0  0  0  0  0  0  0  0  0  0  0
   45.0660   27.4710   45.5900 C   0  0  0  0  0  0  0  0  0  0  0  0
   45.1190   27.9350   44.2790 C   0  0  0  0  0  0  0  0  0  0  0  0
   45.2360   29.2820   44.0070 C   0  0  0  0  0  0  0  0  0  0  0  0
   45.3010   30.1460   45.0750 C   0  0  0  0  0  0  0  0  0  0  0  0
   45.2610   29.7380   46.3970 C   0  0  0  0  0  0  0  0  0  0  0  0
   45.1500   30.8660   49.4850 H   0  0  0  0  0  0  0  0  0  0  0  0
   44.9070   28.4530   50.0210 H   0  0  0  0  0  0  0  0  0  0  0  0
   44.9030   26.8580   48.1830 H   0  0  0  0  0  0  0  0  0  0  0  0
   44.9710   26.4130   45.8310 H   0  0  0  0  0  0  0  0  0  0  0  0
   45.0590   27.1170   43.5440 H   0  0  0  0  0  0  0  0  0  0  0  0
   45.2570   29.4330   42.9480 H   0  0  0  0  0  0  0  0  0  0  0  0
   45.3010   31.0970   44.6240 H   0  0  0  0  0  0  0  0  0  0  0  0
   44.7250   35.4910   44.7830 C   0  0  0  0  0  0  0  0  0  0  0  0
   45.3580   35.7140   43.5110 C   0  0  0  0  0  0  0  0  0  0  0  0
   46.3890   34.8020   43.1170 C   0  0  0  0  0  0  0  0  0  0  0  0
   46.7240   33.7820   43.9400 N   0  0  0  0  0  0  0  0  0  0  0  0
   46.0730   33.6270   45.1480 C   0  0  0  0  0  0  0  0  0  0  0  0
   45.1100   34.4560   45.5490 N   0  0  0  0  0  0  0  0  0  0  0  0
   43.9590   36.2010   45.0330 H   0  0  0  0  0  0  0  0  0  0  0  0
   45.1010   36.5170   42.8520 H   0  0  0  0  0  0  0  0  0  0  0  0
   47.0340   35.0080   41.8510 C   0  0  0  0  0  0  0  0  0  0  0  0
   46.5070   34.7410   40.9540 H   0  0  0  0  0  0  0  0  0  0  0  0
   48.1780   35.4820   41.7690 O   0  0  0  0  0  0  0  0  0  0  0  0
  1  4  1  6  0  0  0
  1  3  1  0  0  0  0
  1  2  1  0  0  0  0
  2  5  1  0  0  0  0
  2  6  1  0  0  0  0
  3  2  1  0  0  0  0
  3  8  1  0  0  0  0
  3  7  1  1  0  0  0
  8  9  1  0  0  0  0
  9 10  2  0  0  0  0
  9 18  1  0  0  0  0
 10 19  1  0  0  0  0
 11 20  1  0  0  0  0
 11 10  1  0  0  0  0
 12 11  2  0  0  0  0
 13 21  1  0  0  0  0
 13 12  1  0  0  0  0
 14 13  2  0  0  0  0
 15 14  1  0  0  0  0
 15 16  2  0  0  0  0
 16 17  1  0  0  0  0
 17 12  1  0  0  0  0
 17  8  2  0  0  0  0
 22 14  1  0  0  0  0
 23 15  1  0  0  0  0
 24 16  1  0  0  0  0
 25 31  1  0  0  0  0
 25 30  1  0  0  0  0
 26 25  2  0  0  0  0
 27 26  1  0  0  0  0
 27 28  2  0  0  0  0
 28 29  1  0  0  0  0
 29 30  2  0  0  0  0
 29  1  1  0  0  0  0
 32 26  1  0  0  0  0
 33 27  1  0  0  0  0
 34 33  1  0  0  0  0
 35 33  2  0  0  0  0
M  END
>  <minimizedAffinity>
-4.82295227

>  <minimizedRMSD>
0.384446889

$$$$
