
 OpenBabel03252502113D

 22 23  0  0  0  0  0  0  0  0999 V2000
   39.5780   30.7640   42.7120 Cl  0  0  0  0  0  0  0  0  0  0  0  0
   38.3110   29.5760   42.5530 C   0  0  0  0  0  0  0  0  0  0  0  0
   37.5050   29.5410   41.4650 C   0  0  0  0  0  0  0  0  0  0  0  0
   36.5420   28.5620   41.4420 C   0  0  0  0  0  0  0  0  0  0  0  0
   36.3760   27.6570   42.4440 C   0  0  0  0  0  0  0  0  0  0  0  0
   37.1900   27.6920   43.5420 C   0  0  0  0  0  0  0  0  0  0  0  0
   38.1630   28.6680   43.5830 C   0  0  0  0  0  0  0  0  0  0  0  0
   35.6060   26.8980   42.3910 H   0  0  0  0  0  0  0  0  0  0  0  0
   37.1220   27.0050   44.3860 H   0  0  0  0  0  0  0  0  0  0  0  0
   38.8180   28.7060   44.4570 H   0  0  0  0  0  0  0  0  0  0  0  0
   37.2470   32.6790   39.3550 C   0  0  0  0  0  0  0  0  0  0  0  0
   37.0300   31.7540   40.3880 C   0  0  0  0  0  0  0  0  0  0  0  0
   37.7060   30.5240   40.4070 C   0  0  0  0  0  0  0  0  0  0  0  0
   38.5590   30.2910   39.3930 N   0  0  0  0  0  0  0  0  0  0  0  0
   38.7590   31.1910   38.4050 C   0  0  0  0  0  0  0  0  0  0  0  0
   38.1110   32.3750   38.3810 N   0  0  0  0  0  0  0  0  0  0  0  0
   36.6610   33.5920   39.4590 H   0  0  0  0  0  0  0  0  0  0  0  0
   36.3380   31.9500   41.2040 H   0  0  0  0  0  0  0  0  0  0  0  0
   39.4610   30.9170   37.6330 H   0  0  0  0  0  0  0  0  0  0  0  0
   35.6510   28.4960   40.2740 C   0  0  0  0  0  0  0  0  0  0  0  0
   35.8940   27.9100   39.4030 H   0  0  0  0  0  0  0  0  0  0  0  0
   34.5610   29.1220   40.2400 O   0  0  0  0  0  0  0  0  0  0  0  0
  2  1  1  0  0  0  0
  2  7  1  0  0  0  0
  3  2  2  0  0  0  0
  4  3  1  0  0  0  0
  4  5  2  0  0  0  0
  5  6  1  0  0  0  0
  6  7  2  0  0  0  0
  6  9  1  0  0  0  0
  7 10  1  0  0  0  0
  8  5  1  0  0  0  0
 11 17  1  0  0  0  0
 11 12  1  0  0  0  0
 12 13  2  0  0  0  0
 12 18  1  0  0  0  0
 13  3  1  0  0  0  0
 14 13  1  0  0  0  0
 15 14  2  0  0  0  0
 16 15  1  0  0  0  0
 16 11  2  0  0  0  0
 19 15  1  0  0  0  0
 20  4  1  0  0  0  0
 21 20  1  0  0  0  0
 22 20  2  0  0  0  0
M  END
>  <minimizedAffinity>
-4.54789352

$$$$

 OpenBabel03252502113D

 22 23  0  0  0  0  0  0  0  0999 V2000
   35.1460   28.8400   40.5930 Cl  0  0  0  0  0  0  0  0  0  0  0  0
   36.5500   28.7100   41.6190 C   0  0  0  0  0  0  0  0  0  0  0  0
   37.6400   29.4920   41.4290 C   0  0  0  0  0  0  0  0  0  0  0  0
   38.6900   29.3080   42.2960 C   0  0  0  0  0  0  0  0  0  0  0  0
   38.6710   28.3950   43.3050 C   0  0  0  0  0  0  0  0  0  0  0  0
   37.5710   27.6060   43.4970 C   0  0  0  0  0  0  0  0  0  0  0  0
   36.5070   27.7770   42.6360 C   0  0  0  0  0  0  0  0  0  0  0  0
   39.5170   28.2780   43.9700 H   0  0  0  0  0  0  0  0  0  0  0  0
   37.4760   26.8530   44.2790 H   0  0  0  0  0  0  0  0  0  0  0  0
   35.6220   27.1500   42.7790 H   0  0  0  0  0  0  0  0  0  0  0  0
   37.1800   32.6850   39.4390 C   0  0  0  0  0  0  0  0  0  0  0  0
   37.1740   31.7760   40.5080 C   0  0  0  0  0  0  0  0  0  0  0  0
   37.6320   30.4610   40.3390 C   0  0  0  0  0  0  0  0  0  0  0  0
   38.0710   30.1300   39.1120 N   0  0  0  0  0  0  0  0  0  0  0  0
   38.0730   31.0140   38.0900 C   0  0  0  0  0  0  0  0  0  0  0  0
   37.6320   32.2810   38.2470 N   0  0  0  0  0  0  0  0  0  0  0  0
   36.7980   33.6700   39.7030 H   0  0  0  0  0  0  0  0  0  0  0  0
   36.8160   32.0510   41.4980 H   0  0  0  0  0  0  0  0  0  0  0  0
   38.4430   30.6600   37.1400 H   0  0  0  0  0  0  0  0  0  0  0  0
   39.8880   30.1410   42.1180 C   0  0  0  0  0  0  0  0  0  0  0  0
   40.6270   29.9250   41.3650 H   0  0  0  0  0  0  0  0  0  0  0  0
   40.1040   31.1480   42.8410 O   0  0  0  0  0  0  0  0  0  0  0  0
  1  2  1  0  0  0  0
  2  7  1  0  0  0  0
  3  2  2  0  0  0  0
  3  4  1  0  0  0  0
  4  5  2  0  0  0  0
  5  6  1  0  0  0  0
  5  8  1  0  0  0  0
  6  9  1  0  0  0  0
  7 10  1  0  0  0  0
  7  6  2  0  0  0  0
 11 17  1  0  0  0  0
 11 12  1  0  0  0  0
 12 18  1  0  0  0  0
 13 12  2  0  0  0  0
 13  3  1  0  0  0  0
 14 13  1  0  0  0  0
 15 16  1  0  0  0  0
 15 14  2  0  0  0  0
 16 11  2  0  0  0  0
 19 15  1  0  0  0  0
 20  4  1  0  0  0  0
 20 22  2  0  0  0  0
 21 20  1  0  0  0  0
M  END
>  <minimizedAffinity>
-4.49980354

$$$$

 OpenBabel03252502113D

 22 23  0  0  0  0  0  0  0  0999 V2000
   36.3530   27.0980   38.2730 Cl  0  0  0  0  0  0  0  0  0  0  0  0
   36.6300   26.3450   39.8220 C   0  0  0  0  0  0  0  0  0  0  0  0
   36.9550   27.0760   40.9160 C   0  0  0  0  0  0  0  0  0  0  0  0
   37.1490   26.3820   42.0850 C   0  0  0  0  0  0  0  0  0  0  0  0
   37.0300   25.0290   42.1770 C   0  0  0  0  0  0  0  0  0  0  0  0
   36.7020   24.2920   41.0730 C   0  0  0  0  0  0  0  0  0  0  0  0
   36.5040   24.9730   39.8890 C   0  0  0  0  0  0  0  0  0  0  0  0
   37.1900   24.5160   43.1160 H   0  0  0  0  0  0  0  0  0  0  0  0
   36.5880   23.2080   41.0620 H   0  0  0  0  0  0  0  0  0  0  0  0
   36.2420   24.3930   39.0000 H   0  0  0  0  0  0  0  0  0  0  0  0
   36.1330   30.7750   40.8350 C   0  0  0  0  0  0  0  0  0  0  0  0
   35.9830   29.3850   40.9650 C   0  0  0  0  0  0  0  0  0  0  0  0
   37.0760   28.5230   40.7870 C   0  0  0  0  0  0  0  0  0  0  0  0
   38.2550   29.0990   40.4910 N   0  0  0  0  0  0  0  0  0  0  0  0
   38.3860   30.4390   40.3700 C   0  0  0  0  0  0  0  0  0  0  0  0
   37.3380   31.2730   40.5390 N   0  0  0  0  0  0  0  0  0  0  0  0
   35.2090   31.3290   40.9970 H   0  0  0  0  0  0  0  0  0  0  0  0
   35.0250   28.9280   41.2040 H   0  0  0  0  0  0  0  0  0  0  0  0
   39.3700   30.8110   40.1300 H   0  0  0  0  0  0  0  0  0  0  0  0
   37.5010   27.1440   43.2920 C   0  0  0  0  0  0  0  0  0  0  0  0
   36.7560   27.6410   43.8910 H   0  0  0  0  0  0  0  0  0  0  0  0
   38.6930   27.2510   43.6790 O   0  0  0  0  0  0  0  0  0  0  0  0
  1  2  1  0  0  0  0
  2  7  2  0  0  0  0
  2  3  1  0  0  0  0
  3  4  2  0  0  0  0
  4  5  1  0  0  0  0
  4 20  1  0  0  0  0
  5  8  1  0  0  0  0
  6  5  2  0  0  0  0
  7  6  1  0  0  0  0
  9  6  1  0  0  0  0
 10  7  1  0  0  0  0
 11 12  1  0  0  0  0
 11 17  1  0  0  0  0
 12 18  1  0  0  0  0
 13  3  1  0  0  0  0
 13 12  2  0  0  0  0
 14 13  1  0  0  0  0
 15 14  2  0  0  0  0
 15 16  1  0  0  0  0
 16 11  2  0  0  0  0
 19 15  1  0  0  0  0
 20 22  2  0  0  0  0
 20 21  1  0  0  0  0
M  END
>  <minimizedAffinity>
-4.36336279

$$$$

 OpenBabel03252502113D

 22 23  0  0  0  0  0  0  0  0999 V2000
   37.0240   27.3590   43.6800 Cl  0  0  0  0  0  0  0  0  0  0  0  0
   36.9360   26.4320   42.2040 C   0  0  0  0  0  0  0  0  0  0  0  0
   36.9600   27.0320   40.9900 C   0  0  0  0  0  0  0  0  0  0  0  0
   36.8880   26.2070   39.8940 C   0  0  0  0  0  0  0  0  0  0  0  0
   36.7960   24.8520   39.9860 C   0  0  0  0  0  0  0  0  0  0  0  0
   36.7720   24.2470   41.2120 C   0  0  0  0  0  0  0  0  0  0  0  0
   36.8440   25.0600   42.3240 C   0  0  0  0  0  0  0  0  0  0  0  0
   36.7410   24.2340   39.0990 H   0  0  0  0  0  0  0  0  0  0  0  0
   36.6990   23.1720   41.3710 H   0  0  0  0  0  0  0  0  0  0  0  0
   36.8240   24.5870   43.3090 H   0  0  0  0  0  0  0  0  0  0  0  0
   36.0560   30.7080   40.8030 C   0  0  0  0  0  0  0  0  0  0  0  0
   35.9270   29.3120   40.8670 C   0  0  0  0  0  0  0  0  0  0  0  0
   37.0590   28.4850   40.9220 C   0  0  0  0  0  0  0  0  0  0  0  0
   38.2550   29.1010   40.9110 N   0  0  0  0  0  0  0  0  0  0  0  0
   38.3660   30.4460   40.8500 C   0  0  0  0  0  0  0  0  0  0  0  0
   37.2800   31.2460   40.7960 N   0  0  0  0  0  0  0  0  0  0  0  0
   35.1020   31.2320   40.7650 H   0  0  0  0  0  0  0  0  0  0  0  0
   34.9560   28.8210   40.8750 H   0  0  0  0  0  0  0  0  0  0  0  0
   39.3660   30.8520   40.8450 H   0  0  0  0  0  0  0  0  0  0  0  0
   36.9120   26.8250   38.5600 C   0  0  0  0  0  0  0  0  0  0  0  0
   36.0760   27.3850   38.1750 H   0  0  0  0  0  0  0  0  0  0  0  0
   37.9150   26.7280   37.8060 O   0  0  0  0  0  0  0  0  0  0  0  0
  2  7  1  0  0  0  0
  2  1  1  0  0  0  0
  3  2  2  0  0  0  0
  4  5  2  0  0  0  0
  4  3  1  0  0  0  0
  5  6  1  0  0  0  0
  6  9  1  0  0  0  0
  6  7  2  0  0  0  0
  7 10  1  0  0  0  0
  8  5  1  0  0  0  0
 11 12  1  0  0  0  0
 12 18  1  0  0  0  0
 12 13  2  0  0  0  0
 13  3  1  0  0  0  0
 14 13  1  0  0  0  0
 15 14  2  0  0  0  0
 16 11  2  0  0  0  0
 16 15  1  0  0  0  0
 17 11  1  0  0  0  0
 19 15  1  0  0  0  0
 20  4  1  0  0  0  0
 21 20  1  0  0  0  0
 22 20  2  0  0  0  0
M  END
>  <minimizedAffinity>
-4.23103333

$$$$

 OpenBabel03252502113D

 22 23  0  0  0  0  0  0  0  0999 V2000
   35.6550   29.9820   40.3130 Cl  0  0  0  0  0  0  0  0  0  0  0  0
   37.0230   31.0320   40.5770 C   0  0  0  0  0  0  0  0  0  0  0  0
   38.0970   30.6280   41.2980 C   0  0  0  0  0  0  0  0  0  0  0  0
   39.1190   31.5340   41.4420 C   0  0  0  0  0  0  0  0  0  0  0  0
   39.0890   32.7830   40.9010 C   0  0  0  0  0  0  0  0  0  0  0  0
   38.0060   33.1900   40.1730 C   0  0  0  0  0  0  0  0  0  0  0  0
   36.9690   32.2930   40.0180 C   0  0  0  0  0  0  0  0  0  0  0  0
   39.9140   33.4700   41.0350 H   0  0  0  0  0  0  0  0  0  0  0  0
   37.9040   34.1710   39.7090 H   0  0  0  0  0  0  0  0  0  0  0  0
   36.0980   32.6090   39.4390 H   0  0  0  0  0  0  0  0  0  0  0  0
   37.6520   27.7120   43.6780 C   0  0  0  0  0  0  0  0  0  0  0  0
   37.6350   29.0170   43.1610 C   0  0  0  0  0  0  0  0  0  0  0  0
   38.1010   29.2850   41.8650 C   0  0  0  0  0  0  0  0  0  0  0  0
   38.5550   28.2330   41.1600 N   0  0  0  0  0  0  0  0  0  0  0  0
   38.5650   26.9810   41.6690 C   0  0  0  0  0  0  0  0  0  0  0  0
   38.1190   26.7180   42.9150 N   0  0  0  0  0  0  0  0  0  0  0  0
   37.2640   27.6410   44.6940 H   0  0  0  0  0  0  0  0  0  0  0  0
   37.2660   29.8620   43.7390 H   0  0  0  0  0  0  0  0  0  0  0  0
   38.9480   26.2000   41.0310 H   0  0  0  0  0  0  0  0  0  0  0  0
   40.2990   31.1270   42.2180 C   0  0  0  0  0  0  0  0  0  0  0  0
   40.2270   30.4570   43.0590 H   0  0  0  0  0  0  0  0  0  0  0  0
   41.4510   31.5450   41.9330 O   0  0  0  0  0  0  0  0  0  0  0  0
  1  2  1  0  0  0  0
  2  3  1  0  0  0  0
  3  4  2  0  0  0  0
  3 13  1  0  0  0  0
  4 20  1  0  0  0  0
  5  8  1  0  0  0  0
  5  4  1  0  0  0  0
  6  5  2  0  0  0  0
  7  6  1  0  0  0  0
  7  2  2  0  0  0  0
  9  6  1  0  0  0  0
 10  7  1  0  0  0  0
 11 17  1  0  0  0  0
 12 11  1  0  0  0  0
 12 18  1  0  0  0  0
 13 12  2  0  0  0  0
 14 15  2  0  0  0  0
 14 13  1  0  0  0  0
 15 16  1  0  0  0  0
 16 11  2  0  0  0  0
 19 15  1  0  0  0  0
 20 21  1  0  0  0  0
 22 20  2  0  0  0  0
M  END
>  <minimizedAffinity>
-4.20534992

$$$$

 OpenBabel03252502113D

 22 23  0  0  0  0  0  0  0  0999 V2000
   37.4170   31.2800   36.6330 Cl  0  0  0  0  0  0  0  0  0  0  0  0
   36.5930   30.4470   37.9260 C   0  0  0  0  0  0  0  0  0  0  0  0
   36.8180   30.7590   39.2250 C   0  0  0  0  0  0  0  0  0  0  0  0
   36.1140   30.0420   40.1620 C   0  0  0  0  0  0  0  0  0  0  0  0
   35.2270   29.0630   39.8380 C   0  0  0  0  0  0  0  0  0  0  0  0
   34.9990   28.7490   38.5270 C   0  0  0  0  0  0  0  0  0  0  0  0
   35.6980   29.4580   37.5720 C   0  0  0  0  0  0  0  0  0  0  0  0
   34.6890   28.5190   40.6040 H   0  0  0  0  0  0  0  0  0  0  0  0
   34.3070   27.9790   38.1850 H   0  0  0  0  0  0  0  0  0  0  0  0
   35.5240   29.2140   36.5200 H   0  0  0  0  0  0  0  0  0  0  0  0
   40.0450   32.6030   39.9690 C   0  0  0  0  0  0  0  0  0  0  0  0
   39.1500   31.5650   39.6630 C   0  0  0  0  0  0  0  0  0  0  0  0
   37.7750   31.8130   39.5420 C   0  0  0  0  0  0  0  0  0  0  0  0
   37.3730   33.0820   39.7330 N   0  0  0  0  0  0  0  0  0  0  0  0
   38.2450   34.0720   40.0260 C   0  0  0  0  0  0  0  0  0  0  0  0
   39.5690   33.8390   40.1450 N   0  0  0  0  0  0  0  0  0  0  0  0
   41.0830   32.2770   40.0340 H   0  0  0  0  0  0  0  0  0  0  0  0
   39.4840   30.5410   39.5100 H   0  0  0  0  0  0  0  0  0  0  0  0
   37.8320   35.0600   40.1630 H   0  0  0  0  0  0  0  0  0  0  0  0
   36.3350   30.3560   41.5810 C   0  0  0  0  0  0  0  0  0  0  0  0
   35.8140   31.1580   42.0770 H   0  0  0  0  0  0  0  0  0  0  0  0
   37.1450   29.6980   42.2840 O   0  0  0  0  0  0  0  0  0  0  0  0
  1  2  1  0  0  0  0
  2  3  1  0  0  0  0
  3 13  1  0  0  0  0
  3  4  2  0  0  0  0
  4 20  1  0  0  0  0
  5  4  1  0  0  0  0
  5  8  1  0  0  0  0
  6  5  2  0  0  0  0
  7  2  2  0  0  0  0
  7  6  1  0  0  0  0
  9  6  1  0  0  0  0
 10  7  1  0  0  0  0
 11 17  1  0  0  0  0
 11 16  1  0  0  0  0
 12 11  2  0  0  0  0
 13 12  1  0  0  0  0
 13 14  2  0  0  0  0
 14 15  1  0  0  0  0
 15 16  2  0  0  0  0
 15 19  1  0  0  0  0
 18 12  1  0  0  0  0
 20 21  1  0  0  0  0
 20 22  2  0  0  0  0
M  END
>  <minimizedAffinity>
-4.17016983

$$$$

 OpenBabel03252502113D

 22 23  0  0  0  0  0  0  0  0999 V2000
   36.2060   27.1450   39.5570 Cl  0  0  0  0  0  0  0  0  0  0  0  0
   36.9080   25.6730   40.1750 C   0  0  0  0  0  0  0  0  0  0  0  0
   37.7030   25.6750   41.2730 C   0  0  0  0  0  0  0  0  0  0  0  0
   38.2010   24.4590   41.6750 C   0  0  0  0  0  0  0  0  0  0  0  0
   37.9310   23.2930   41.0280 C   0  0  0  0  0  0  0  0  0  0  0  0
   37.1280   23.2910   39.9210 C   0  0  0  0  0  0  0  0  0  0  0  0
   36.6190   24.5030   39.5030 C   0  0  0  0  0  0  0  0  0  0  0  0
   38.3410   22.3530   41.3750 H   0  0  0  0  0  0  0  0  0  0  0  0
   36.8650   22.4020   39.3480 H   0  0  0  0  0  0  0  0  0  0  0  0
   35.9770   24.5130   38.6180 H   0  0  0  0  0  0  0  0  0  0  0  0
   37.4690   28.6380   43.6240 C   0  0  0  0  0  0  0  0  0  0  0  0
   37.1790   27.4160   42.9970 C   0  0  0  0  0  0  0  0  0  0  0  0
   37.9750   26.9400   41.9440 C   0  0  0  0  0  0  0  0  0  0  0  0
   39.0140   27.7110   41.5790 N   0  0  0  0  0  0  0  0  0  0  0  0
   39.2830   28.8860   42.1910 C   0  0  0  0  0  0  0  0  0  0  0  0
   38.5200   29.3490   43.2040 N   0  0  0  0  0  0  0  0  0  0  0  0
   36.7740   28.8920   44.4240 H   0  0  0  0  0  0  0  0  0  0  0  0
   36.3360   26.7980   43.2980 H   0  0  0  0  0  0  0  0  0  0  0  0
   40.1370   29.4380   41.8310 H   0  0  0  0  0  0  0  0  0  0  0  0
   39.0670   24.4260   42.8630 C   0  0  0  0  0  0  0  0  0  0  0  0
   38.6650   24.3680   43.8610 H   0  0  0  0  0  0  0  0  0  0  0  0
   40.3200   24.4630   42.7660 O   0  0  0  0  0  0  0  0  0  0  0  0
  1  2  1  0  0  0  0
  2  3  1  0  0  0  0
  3  4  2  0  0  0  0
  3 13  1  0  0  0  0
  4 20  1  0  0  0  0
  5  8  1  0  0  0  0
  5  4  1  0  0  0  0
  6  5  2  0  0  0  0
  7  6  1  0  0  0  0
  7  2  2  0  0  0  0
  9  6  1  0  0  0  0
 10  7  1  0  0  0  0
 11 17  1  0  0  0  0
 12 18  1  0  0  0  0
 12 11  2  0  0  0  0
 13 12  1  0  0  0  0
 14 13  2  0  0  0  0
 14 15  1  0  0  0  0
 15 16  2  0  0  0  0
 16 11  1  0  0  0  0
 19 15  1  0  0  0  0
 20 21  1  0  0  0  0
 22 20  2  0  0  0  0
M  END
>  <minimizedAffinity>
-4.13165045

$$$$

 OpenBabel03252502113D

 22 23  0  0  0  0  0  0  0  0999 V2000
   40.1010   31.2330   42.6440 Cl  0  0  0  0  0  0  0  0  0  0  0  0
   38.8710   31.4760   41.4310 C   0  0  0  0  0  0  0  0  0  0  0  0
   38.0060   30.4890   41.0930 C   0  0  0  0  0  0  0  0  0  0  0  0
   37.0760   30.7890   40.1280 C   0  0  0  0  0  0  0  0  0  0  0  0
   36.9970   32.0040   39.5210 C   0  0  0  0  0  0  0  0  0  0  0  0
   37.8700   33.0000   39.8630 C   0  0  0  0  0  0  0  0  0  0  0  0
   38.8120   32.7170   40.8300 C   0  0  0  0  0  0  0  0  0  0  0  0
   36.2500   32.2040   38.7640 H   0  0  0  0  0  0  0  0  0  0  0  0
   37.8740   33.9980   39.4250 H   0  0  0  0  0  0  0  0  0  0  0  0
   39.5150   33.5060   41.1110 H   0  0  0  0  0  0  0  0  0  0  0  0
   38.9880   26.9220   41.9190 C   0  0  0  0  0  0  0  0  0  0  0  0
   38.9040   28.1550   41.2520 C   0  0  0  0  0  0  0  0  0  0  0  0
   38.1140   29.1970   41.7600 C   0  0  0  0  0  0  0  0  0  0  0  0
   37.4540   28.9480   42.9050 N   0  0  0  0  0  0  0  0  0  0  0  0
   37.5430   27.7570   43.5380 C   0  0  0  0  0  0  0  0  0  0  0  0
   38.3010   26.7510   43.0530 N   0  0  0  0  0  0  0  0  0  0  0  0
   39.6330   26.2000   41.4200 H   0  0  0  0  0  0  0  0  0  0  0  0
   39.4420   28.3480   40.3260 H   0  0  0  0  0  0  0  0  0  0  0  0
   36.9780   27.6470   44.4500 H   0  0  0  0  0  0  0  0  0  0  0  0
   36.1220   29.7400   39.7380 C   0  0  0  0  0  0  0  0  0  0  0  0
   36.3380   29.0340   38.9540 H   0  0  0  0  0  0  0  0  0  0  0  0
   35.0050   29.6210   40.3050 O   0  0  0  0  0  0  0  0  0  0  0  0
  2  1  1  0  0  0  0
  3  2  1  0  0  0  0
  3 13  1  0  0  0  0
  4  3  2  0  0  0  0
  5  6  2  0  0  0  0
  5  4  1  0  0  0  0
  6  7  1  0  0  0  0
  7 10  1  0  0  0  0
  7  2  2  0  0  0  0
  8  5  1  0  0  0  0
  9  6  1  0  0  0  0
 11 16  1  0  0  0  0
 12 13  1  0  0  0  0
 12 11  2  0  0  0  0
 13 14  2  0  0  0  0
 14 15  1  0  0  0  0
 15 19  1  0  0  0  0
 16 15  2  0  0  0  0
 17 11  1  0  0  0  0
 18 12  1  0  0  0  0
 20  4  1  0  0  0  0
 20 22  2  0  0  0  0
 21 20  1  0  0  0  0
M  END
>  <minimizedAffinity>
-4.1138196

$$$$

 OpenBabel03252502113D

 22 23  0  0  0  0  0  0  0  0999 V2000
   36.3810   26.0970   37.8260 Cl  0  0  0  0  0  0  0  0  0  0  0  0
   36.0940   27.2670   39.0870 C   0  0  0  0  0  0  0  0  0  0  0  0
   36.6100   27.1090   40.3300 C   0  0  0  0  0  0  0  0  0  0  0  0
   36.3230   28.0910   41.2460 C   0  0  0  0  0  0  0  0  0  0  0  0
   35.5630   29.1820   40.9560 C   0  0  0  0  0  0  0  0  0  0  0  0
   35.0420   29.3410   39.7010 C   0  0  0  0  0  0  0  0  0  0  0  0
   35.3200   28.3650   38.7680 C   0  0  0  0  0  0  0  0  0  0  0  0
   35.3580   29.9360   41.7040 H   0  0  0  0  0  0  0  0  0  0  0  0
   34.4250   30.1830   39.3890 H   0  0  0  0  0  0  0  0  0  0  0  0
   34.9080   28.4820   37.7620 H   0  0  0  0  0  0  0  0  0  0  0  0
   37.6690   23.6090   41.3260 C   0  0  0  0  0  0  0  0  0  0  0  0
   36.8610   24.7260   41.0640 C   0  0  0  0  0  0  0  0  0  0  0  0
   37.4210   25.9300   40.6120 C   0  0  0  0  0  0  0  0  0  0  0  0
   38.7560   25.9490   40.4480 N   0  0  0  0  0  0  0  0  0  0  0  0
   39.5230   24.8660   40.7030 C   0  0  0  0  0  0  0  0  0  0  0  0
   38.9890   23.7050   41.1390 N   0  0  0  0  0  0  0  0  0  0  0  0
   37.1110   22.7390   41.6710 H   0  0  0  0  0  0  0  0  0  0  0  0
   35.7820   24.7020   41.2000 H   0  0  0  0  0  0  0  0  0  0  0  0
   40.5850   24.9730   40.5430 H   0  0  0  0  0  0  0  0  0  0  0  0
   36.8690   27.9510   42.6040 C   0  0  0  0  0  0  0  0  0  0  0  0
   37.8380   28.3380   42.8730 H   0  0  0  0  0  0  0  0  0  0  0  0
   36.2250   27.3700   43.5160 O   0  0  0  0  0  0  0  0  0  0  0  0
  1  2  1  0  0  0  0
  2  3  1  0  0  0  0
  3 13  1  0  0  0  0
  3  4  2  0  0  0  0
  4 20  1  0  0  0  0
  5  4  1  0  0  0  0
  5  8  1  0  0  0  0
  6  5  2  0  0  0  0
  7  2  2  0  0  0  0
  7  6  1  0  0  0  0
  9  6  1  0  0  0  0
 10  7  1  0  0  0  0
 11 17  1  0  0  0  0
 12 18  1  0  0  0  0
 12 11  2  0  0  0  0
 13 12  1  0  0  0  0
 14 13  2  0  0  0  0
 14 15  1  0  0  0  0
 15 16  2  0  0  0  0
 16 11  1  0  0  0  0
 19 15  1  0  0  0  0
 20 21  1  0  0  0  0
 20 22  2  0  0  0  0
M  END
>  <minimizedAffinity>
-4.09262943

$$$$
