
 OpenBabel03252505323D

 24 25  0  0  0  0  0  0  0  0999 V2000
   46.6360   34.7890   42.1030 C   0  0  0  0  0  0  0  0  0  0  0  0
   47.8950   35.3140   41.9920 C   0  0  0  0  0  0  0  0  0  0  0  0
   48.6890   35.1590   40.8520 C   0  0  0  0  0  0  0  0  0  0  0  0
   48.1790   34.4400   39.7760 C   0  0  0  0  0  0  0  0  0  0  0  0
   46.9190   33.9220   39.8990 C   0  0  0  0  0  0  0  0  0  0  0  0
   46.1590   34.0850   41.0270 C   0  0  0  0  0  0  0  0  0  0  0  0
   48.3430   35.8820   42.7970 H   0  0  0  0  0  0  0  0  0  0  0  0
   49.6880   35.5910   40.8020 H   0  0  0  0  0  0  0  0  0  0  0  0
   48.7480   34.2890   38.8700 H   0  0  0  0  0  0  0  0  0  0  0  0
   46.5100   33.3590   39.0690 H   0  0  0  0  0  0  0  0  0  0  0  0
   44.4030   36.1860   44.7890 C   0  0  0  0  0  0  0  0  0  0  0  0
   45.0680   36.0850   43.5430 C   0  0  0  0  0  0  0  0  0  0  0  0
   45.9040   35.0080   43.3220 C   0  0  0  0  0  0  0  0  0  0  0  0
   46.0500   34.0880   44.3160 N   0  0  0  0  0  0  0  0  0  0  0  0
   45.3940   34.2210   45.4960 C   0  0  0  0  0  0  0  0  0  0  0  0
   44.5770   35.2630   45.7310 N   0  0  0  0  0  0  0  0  0  0  0  0
   45.5600   33.2430   46.5330 N   0  0  0  0  0  0  0  0  0  0  0  0
   43.7590   37.0600   44.9000 H   0  0  0  0  0  0  0  0  0  0  0  0
   44.9810   36.7830   42.7400 H   0  0  0  0  0  0  0  0  0  0  0  0
   45.7560   32.2220   46.4090 H   0  0  0  0  0  0  0  0  0  0  0  0
   45.4850   33.5440   47.5440 H   0  0  0  0  0  0  0  0  0  0  0  0
   44.8220   33.5130   41.1090 C   0  0  0  0  0  0  0  0  0  0  0  0
   44.6750   32.5630   41.6470 H   0  0  0  0  0  0  0  0  0  0  0  0
   43.8440   34.0980   40.5730 O   0  0  0  0  0  0  0  0  0  0  0  0
  1 13  1  0  0  0  0
  2  1  1  0  0  0  0
  2  7  1  0  0  0  0
  3  2  2  0  0  0  0
  4  5  2  0  0  0  0
  4  3  1  0  0  0  0
  5  6  1  0  0  0  0
  6 22  1  0  0  0  0
  6  1  2  0  0  0  0
  8  3  1  0  0  0  0
  9  4  1  0  0  0  0
 10  5  1  0  0  0  0
 11 18  1  0  0  0  0
 11 16  1  0  0  0  0
 12 11  2  0  0  0  0
 13 12  1  0  0  0  0
 13 14  2  0  0  0  0
 14 15  1  0  0  0  0
 15 16  2  0  0  0  0
 15 17  1  0  0  0  0
 17 21  1  0  0  0  0
 19 12  1  0  0  0  0
 20 17  1  0  0  0  0
 22 23  1  0  0  0  0
 24 22  2  0  0  0  0
M  END
>  <minimizedAffinity>
-5.46769094

>  <minimizedRMSD>
0.0940415934

$$$$
