
     RDKit          3D

 35 37  0  0  0  0  0  0  0  0999 V2000
   45.1265   33.9400   40.6956 C   0  0  0  0  0  0  0  0  0  0  0  0
   44.0763   33.6332   39.8719 C   0  0  0  0  0  0  0  0  0  0  0  0
   44.3804   33.1511   38.6341 C   0  0  0  0  0  0  0  0  0  0  0  0
   45.6592   32.9620   38.1819 C   0  0  0  0  0  0  0  0  0  0  0  0
   46.6947   33.2757   39.0231 C   0  0  0  0  0  0  0  0  0  0  0  0
   46.4452   33.7696   40.2931 C   0  0  0  0  0  0  0  0  0  0  0  0
   40.7950   35.2634   40.7930 C   0  0  0  0  0  0  0  0  0  0  0  0
   42.0898   35.0883   40.2782 C   0  0  0  0  0  0  0  0  0  0  0  0
   42.7395   33.8492   40.3919 C   0  0  0  0  0  0  0  0  0  0  0  0
   42.0326   32.8841   41.0158 N   0  0  0  0  0  0  0  0  0  0  0  0
   40.8049   33.0579   41.5013 C   0  0  0  0  0  0  0  0  0  0  0  0
   40.1864   34.2506   41.3888 N   0  0  0  0  0  0  0  0  0  0  0  0
   40.1928   36.5217   40.6521 N   0  0  0  0  0  0  0  0  0  0  0  0
   47.6052   34.0762   41.1190 C   0  0  0  0  0  0  0  0  0  0  0  0
   48.1375   35.3446   40.9438 C   0  0  0  0  0  0  0  0  0  0  0  0
   49.2484   35.7991   41.6558 C   0  0  0  0  0  0  0  0  0  0  0  0
   49.8303   34.9356   42.5698 C   0  0  0  0  0  0  0  0  0  0  0  0
   49.3069   33.6801   42.7461 C   0  0  0  0  0  0  0  0  0  0  0  0
   48.2096   33.2532   42.0321 C   0  0  0  0  0  0  0  0  0  0  0  0
   44.7258   34.8646   43.1123 N   0  0  0  0  0  0  0  0  0  0  0  0
   44.8981   34.4568   42.0252 C   0  0  0  0  0  0  0  0  0  0  0  0
   43.5632   32.9032   37.9694 H   0  0  0  0  0  0  0  0  0  0  0  0
   45.8386   32.5698   37.1729 H   0  0  0  0  0  0  0  0  0  0  0  0
   47.7127   33.1284   38.6715 H   0  0  0  0  0  0  0  0  0  0  0  0
   42.5862   35.9159   39.7917 H   0  0  0  0  0  0  0  0  0  0  0  0
   40.3711   32.1856   41.9747 H   0  0  0  0  0  0  0  0  0  0  0  0
   40.3630   37.2226   41.4276 H   0  0  0  0  0  0  0  0  0  0  0  0
   39.5904   36.7914   39.8227 H   0  0  0  0  0  0  0  0  0  0  0  0
   47.7176   36.0530   40.2423 H   0  0  0  0  0  0  0  0  0  0  0  0
   49.6306   36.7964   41.4875 H   0  0  0  0  0  0  0  0  0  0  0  0
   50.6859   35.2602   43.1307 H   0  0  0  0  0  0  0  0  0  0  0  0
   49.7677   33.0127   43.4620 H   0  0  0  0  0  0  0  0  0  0  0  0
   47.6374   31.9386   42.1963 C   0  0  0  0  0  0  0  0  0  0  0  0
   48.2558   31.0741   41.9935 H   0  0  0  0  0  0  0  0  0  0  0  0
   46.4529   31.8088   42.5650 O   0  0  0  0  0  0  0  0  0  0  0  0
  1 21  1  0
  2  9  1  0
  2  1  2  0
  3  2  1  0
  4  3  2  0
  4  5  1  0
  5  6  2  0
  6  1  1  0
  6 14  1  0
  7 12  2  0
  8  9  2  0
  8  7  1  0
  9 10  1  0
 10 11  2  0
 12 11  1  0
 13  7  1  0
 14 19  1  0
 15 14  2  0
 15 16  1  0
 16 17  2  0
 17 18  1  0
 19 18  2  0
 21 20  3  0
  3 22  1  0
  4 23  1  0
  5 24  1  0
  8 25  1  0
 11 26  1  0
 13 27  1  0
 13 28  1  0
 15 29  1  0
 16 30  1  0
 17 31  1  0
 18 32  1  0
 33 34  1  0
 33 35  2  0
 19 33  1  0
M  ISO  8  22  14  23  14  24  14  25  14  26  14  29  14  30  14  31  14
M  ISO  2  32  14  34   6
M  END
>  <DihAtoms>  (1) 
13,18,32,33

>  <DihDeg>  (1) 
179.99999620880976

$$$$
