REMARK  Name = 
REMARK  4 active torsions:
REMARK  status: ('A' for Active; 'I' for Inactive)
REMARK    1  A    between atoms: C_1  and  C_21
REMARK    2  A    between atoms: C_2  and  C_9
REMARK    3  A    between atoms: C_6  and  C_14
REMARK    4  A    between atoms: C_19  and  C_33
REMARK                            x       y       z     vdW  Elec       q    Type
REMARK                         _______ _______ _______ _____ _____    ______ ____
ROOT
ATOM      1  C   UNL     1      45.127  33.940  40.696  0.00  0.00    +0.000 A 
ATOM      2  C   UNL     1      44.076  33.633  39.872  0.00  0.00    +0.000 A 
ATOM      3  C   UNL     1      44.380  33.151  38.634  0.00  0.00    +0.000 A 
ATOM      4  C   UNL     1      45.659  32.962  38.182  0.00  0.00    +0.000 A 
ATOM      5  C   UNL     1      46.695  33.276  39.023  0.00  0.00    +0.000 A 
ATOM      6  C   UNL     1      46.445  33.770  40.293  0.00  0.00    +0.000 A 
ATOM      7  H   UNL     1      43.563  32.903  37.969  0.00  0.00    +0.000 HD
ATOM      8  H   UNL     1      45.839  32.570  37.173  0.00  0.00    +0.000 HD
ATOM      9  H   UNL     1      47.713  33.128  38.672  0.00  0.00    +0.000 HD
ENDROOT
BRANCH   2  12
ATOM     10  C   UNL     1      40.795  35.263  40.793  0.00  0.00    +0.000 A 
ATOM     11  C   UNL     1      42.090  35.088  40.278  0.00  0.00    +0.000 A 
ATOM     12  C   UNL     1      42.739  33.849  40.392  0.00  0.00    +0.000 A 
ATOM     13  N   UNL     1      42.033  32.884  41.016  0.00  0.00    +0.000 NA
ATOM     14  C   UNL     1      40.805  33.058  41.501  0.00  0.00    +0.000 A 
ATOM     15  N   UNL     1      40.186  34.251  41.389  0.00  0.00    +0.000 NA
ATOM     16  N   UNL     1      40.193  36.522  40.652  0.00  0.00    +0.000 N 
ATOM     17  H   UNL     1      42.586  35.916  39.792  0.00  0.00    +0.000 HD
ATOM     18  H   UNL     1      40.371  32.186  41.975  0.00  0.00    +0.000 HD
ATOM     19  H   UNL     1      40.363  37.223  41.428  0.00  0.00    +0.000 HD
ATOM     20  H   UNL     1      39.590  36.791  39.823  0.00  0.00    +0.000 HD
ENDBRANCH   2  12
BRANCH   6  21
ATOM     21  C   UNL     1      47.605  34.076  41.119  0.00  0.00    +0.000 A 
ATOM     22  C   UNL     1      48.138  35.345  40.944  0.00  0.00    +0.000 A 
ATOM     23  C   UNL     1      49.248  35.799  41.656  0.00  0.00    +0.000 A 
ATOM     24  C   UNL     1      49.830  34.936  42.570  0.00  0.00    +0.000 A 
ATOM     25  C   UNL     1      49.307  33.680  42.746  0.00  0.00    +0.000 A 
ATOM     26  C   UNL     1      48.210  33.253  42.032  0.00  0.00    +0.000 A 
ATOM     27  H   UNL     1      47.718  36.053  40.242  0.00  0.00    +0.000 HD
ATOM     28  H   UNL     1      49.631  36.796  41.487  0.00  0.00    +0.000 HD
ATOM     29  H   UNL     1      50.686  35.260  43.131  0.00  0.00    +0.000 HD
ATOM     30  H   UNL     1      49.768  33.013  43.462  0.00  0.00    +0.000 HD
BRANCH  26  31
ATOM     31  C   UNL     1      47.637  31.939  42.196  0.00  0.00    +0.000 C 
ATOM     32  H   UNL     1      48.256  31.074  41.993  0.00  0.00    +0.000 HD
ATOM     33  O   UNL     1      46.453  31.809  42.565  0.00  0.00    +0.000 OA
ENDBRANCH  26  31
ENDBRANCH   6  21
BRANCH   1  35
ATOM     34  N   UNL     1      44.726  34.865  43.112  0.00  0.00    +0.000 NA
ATOM     35  C   UNL     1      44.898  34.457  42.025  0.00  0.00    +0.000 C 
ENDBRANCH   1  35
TORSDOF 4
