
 OpenBabel03242514383D

 27 28  0  0  0  0  0  0  0  0999 V2000
   36.6490   30.6030   39.1040 O   0  0  0  0  0  0  0  0  0  0  0  0
   36.9510   31.1920   40.4530 P   0  0  1  0  0  0  0  0  0  0  0  0
   35.5630   31.1110   41.3910 O   0  0  0  0  0  0  0  0  0  0  0  0
   35.8300   31.0130   42.3450 H   0  0  0  0  0  0  0  0  0  0  0  0
   38.2500   30.3360   41.2020 O   0  0  0  0  0  0  0  0  0  0  0  0
   38.2340   27.9600   40.9150 C   0  0  0  0  0  0  0  0  0  0  0  0
   38.0410   29.0580   41.7310 C   0  0  0  0  0  0  0  0  0  0  0  0
   37.6450   28.8440   43.0580 C   0  0  0  0  0  0  0  0  0  0  0  0
   37.4710   27.5510   43.4690 N   0  0  0  0  0  0  0  0  0  0  0  0
   37.6670   26.5160   42.6520 C   0  0  0  0  0  0  0  0  0  0  0  0
   38.0430   26.7190   41.3900 N   0  0  0  0  0  0  0  0  0  0  0  0
   38.5360   28.0110   39.8840 H   0  0  0  0  0  0  0  0  0  0  0  0
   37.5160   29.7320   43.6270 H   0  0  0  0  0  0  0  0  0  0  0  0
   37.5220   25.4950   42.9980 H   0  0  0  0  0  0  0  0  0  0  0  0
   37.3760   32.7830   40.2640 O   0  0  0  0  0  0  0  0  0  0  0  0
   38.6190   33.2920   40.1080 C   0  0  0  0  0  0  0  0  0  0  0  0
   38.8990   34.1590   41.0100 O   0  0  0  0  0  0  0  0  0  0  0  0
   39.8070   33.1980   39.2380 C   0  0  0  0  0  0  0  0  0  0  0  0
   39.9940   32.3110   38.1360 C   0  0  0  0  0  0  0  0  0  0  0  0
   41.2100   32.4480   37.5160 C   0  0  0  0  0  0  0  0  0  0  0  0
   42.1330   33.3330   37.9120 C   0  0  0  0  0  0  0  0  0  0  0  0
   41.2560   34.1610   39.3830 S   0  0  0  0  0  0  0  0  0  0  0  0
   39.2180   31.6460   37.8910 H   0  0  0  0  0  0  0  0  0  0  0  0
   41.4730   31.8280   36.6650 H   0  0  0  0  0  0  0  0  0  0  0  0
   43.4450   33.7390   37.5270 C   0  0  0  0  0  0  0  0  0  0  0  0
   43.5760   33.6290   36.4620 H   0  0  0  0  0  0  0  0  0  0  0  0
   44.2650   34.1530   38.3840 O   0  0  0  0  0  0  0  0  0  0  0  0
  2  1  2  6  0  0  0
  2  5  1  0  0  0  0
  2  3  1  0  0  0  0
  3  4  1  0  0  0  0
  5  7  1  0  0  0  0
  6 11  2  0  0  0  0
  6  7  1  0  0  0  0
  7  8  2  0  0  0  0
  8  9  1  0  0  0  0
  8 13  1  0  0  0  0
 10 14  1  0  0  0  0
 10  9  2  0  0  0  0
 11 10  1  0  0  0  0
 12  6  1  0  0  0  0
 15  2  1  0  0  0  0
 16 15  1  0  0  0  0
 16 17  2  0  0  0  0
 18 22  1  0  0  0  0
 18 16  1  0  0  0  0
 19 18  2  0  0  0  0
 20 21  2  0  0  0  0
 20 19  1  0  0  0  0
 21 22  1  0  0  0  0
 23 19  1  0  0  0  0
 24 20  1  0  0  0  0
 25 21  1  0  0  0  0
 25 27  2  0  0  0  0
 26 25  1  0  0  0  0
M  END
>  <minimizedAffinity>
-4.85705471

$$$$

 OpenBabel03242514383D

 27 28  0  0  0  0  0  0  0  0999 V2000
   39.4580   33.6380   40.2010 O   0  0  0  0  0  0  0  0  0  0  0  0
   38.3630   32.6430   39.9360 P   0  0  1  0  0  0  0  0  0  0  0  0
   36.8860   33.4030   40.1740 O   0  0  0  0  0  0  0  0  0  0  0  0
   36.2150   32.9870   39.5680 H   0  0  0  0  0  0  0  0  0  0  0  0
   38.4880   32.0330   38.3260 O   0  0  0  0  0  0  0  0  0  0  0  0
   39.8250   30.0780   37.9810 C   0  0  0  0  0  0  0  0  0  0  0  0
   39.6790   31.4490   37.8820 C   0  0  0  0  0  0  0  0  0  0  0  0
   40.7330   32.1960   37.3390 C   0  0  0  0  0  0  0  0  0  0  0  0
   41.8510   31.5190   36.9370 N   0  0  0  0  0  0  0  0  0  0  0  0
   41.9550   30.1950   37.0480 C   0  0  0  0  0  0  0  0  0  0  0  0
   40.9540   29.4840   37.5650 N   0  0  0  0  0  0  0  0  0  0  0  0
   39.0810   29.4120   38.3800 H   0  0  0  0  0  0  0  0  0  0  0  0
   40.5520   33.2410   37.2940 H   0  0  0  0  0  0  0  0  0  0  0  0
   42.8540   29.6750   36.7220 H   0  0  0  0  0  0  0  0  0  0  0  0
   38.4990   31.3910   41.0130 O   0  0  0  0  0  0  0  0  0  0  0  0
   37.5700   30.4560   41.3120 C   0  0  0  0  0  0  0  0  0  0  0  0
   36.3790   30.8720   41.0800 O   0  0  0  0  0  0  0  0  0  0  0  0
   37.4360   29.0800   41.8270 C   0  0  0  0  0  0  0  0  0  0  0  0
   37.4230   28.6750   43.1950 C   0  0  0  0  0  0  0  0  0  0  0  0
   37.2920   27.3210   43.3700 C   0  0  0  0  0  0  0  0  0  0  0  0
   37.1870   26.4620   42.3480 C   0  0  0  0  0  0  0  0  0  0  0  0
   37.2740   27.6380   40.8560 S   0  0  0  0  0  0  0  0  0  0  0  0
   37.5090   29.4140   43.9380 H   0  0  0  0  0  0  0  0  0  0  0  0
   37.2700   26.8880   44.3650 H   0  0  0  0  0  0  0  0  0  0  0  0
   37.0440   25.0560   42.1570 C   0  0  0  0  0  0  0  0  0  0  0  0
   37.3170   24.5230   43.0550 H   0  0  0  0  0  0  0  0  0  0  0  0
   36.6460   24.5950   41.0570 O   0  0  0  0  0  0  0  0  0  0  0  0
  2  3  1  0  0  0  0
  2  1  2  1  0  0  0
  2 15  1  0  0  0  0
  4  3  1  0  0  0  0
  5  2  1  0  0  0  0
  6 12  1  0  0  0  0
  7  6  1  0  0  0  0
  7  5  1  0  0  0  0
  8  7  2  0  0  0  0
  9 10  2  0  0  0  0
  9  8  1  0  0  0  0
 10 11  1  0  0  0  0
 11  6  2  0  0  0  0
 13  8  1  0  0  0  0
 14 10  1  0  0  0  0
 15 16  1  0  0  0  0
 16 18  1  0  0  0  0
 17 16  2  0  0  0  0
 18 19  2  0  0  0  0
 19 20  1  0  0  0  0
 19 23  1  0  0  0  0
 20 24  1  0  0  0  0
 21 20  2  0  0  0  0
 22 18  1  0  0  0  0
 22 21  1  0  0  0  0
 25 21  1  0  0  0  0
 25 26  1  0  0  0  0
 27 25  2  0  0  0  0
M  END
>  <minimizedAffinity>
-4.80254364

$$$$

 OpenBabel03242514383D

 27 28  0  0  0  0  0  0  0  0999 V2000
   36.9510   32.5370   39.5300 O   0  0  0  0  0  0  0  0  0  0  0  0
   37.1820   31.3450   40.4160 P   0  0  1  0  0  0  0  0  0  0  0  0
   35.8390   31.1490   41.4020 O   0  0  0  0  0  0  0  0  0  0  0  0
   35.7340   30.1790   41.6040 H   0  0  0  0  0  0  0  0  0  0  0  0
   37.4530   29.9340   39.4590 O   0  0  0  0  0  0  0  0  0  0  0  0
   35.2990   29.1400   38.7820 C   0  0  0  0  0  0  0  0  0  0  0  0
   36.5600   29.5890   38.4390 C   0  0  0  0  0  0  0  0  0  0  0  0
   36.8910   29.6820   37.0800 C   0  0  0  0  0  0  0  0  0  0  0  0
   35.9390   29.3180   36.1680 N   0  0  0  0  0  0  0  0  0  0  0  0
   34.7320   28.8890   36.5370 C   0  0  0  0  0  0  0  0  0  0  0  0
   34.4170   28.8010   37.8290 N   0  0  0  0  0  0  0  0  0  0  0  0
   34.9430   29.0320   39.7910 H   0  0  0  0  0  0  0  0  0  0  0  0
   37.8750   30.0340   36.8910 H   0  0  0  0  0  0  0  0  0  0  0  0
   33.9890   28.6040   35.7960 H   0  0  0  0  0  0  0  0  0  0  0  0
   38.5080   31.6290   41.3690 O   0  0  0  0  0  0  0  0  0  0  0  0
   39.1940   30.7350   42.1140 C   0  0  0  0  0  0  0  0  0  0  0  0
   40.3080   31.2130   42.5340 O   0  0  0  0  0  0  0  0  0  0  0  0
   39.1120   29.3560   42.6350 C   0  0  0  0  0  0  0  0  0  0  0  0
   38.0010   28.7570   43.3000 C   0  0  0  0  0  0  0  0  0  0  0  0
   38.2190   27.4570   43.6790 C   0  0  0  0  0  0  0  0  0  0  0  0
   39.3690   26.8130   43.4430 C   0  0  0  0  0  0  0  0  0  0  0  0
   40.3780   28.1570   42.5510 S   0  0  0  0  0  0  0  0  0  0  0  0
   37.1330   29.3320   43.4440 H   0  0  0  0  0  0  0  0  0  0  0  0
   37.4500   26.8920   44.1950 H   0  0  0  0  0  0  0  0  0  0  0  0
   39.9280   25.5230   43.6800 C   0  0  0  0  0  0  0  0  0  0  0  0
   40.6860   25.5740   44.4450 H   0  0  0  0  0  0  0  0  0  0  0  0
   39.5260   24.5220   43.0340 O   0  0  0  0  0  0  0  0  0  0  0  0
  2  1  2  6  0  0  0
  2 15  1  0  0  0  0
  2  3  1  0  0  0  0
  3  4  1  0  0  0  0
  5  2  1  0  0  0  0
  6 12  1  0  0  0  0
  7  6  1  0  0  0  0
  7  5  1  0  0  0  0
  8  7  2  0  0  0  0
  9 10  2  0  0  0  0
  9  8  1  0  0  0  0
 10 11  1  0  0  0  0
 11  6  2  0  0  0  0
 13  8  1  0  0  0  0
 14 10  1  0  0  0  0
 15 16  1  0  0  0  0
 16 17  2  0  0  0  0
 16 18  1  0  0  0  0
 18 19  2  0  0  0  0
 19 23  1  0  0  0  0
 19 20  1  0  0  0  0
 20 24  1  0  0  0  0
 21 20  2  0  0  0  0
 21 25  1  0  0  0  0
 22 18  1  0  0  0  0
 22 21  1  0  0  0  0
 25 26  1  0  0  0  0
 27 25  2  0  0  0  0
M  END
>  <minimizedAffinity>
-4.80153036

$$$$

 OpenBabel03242514383D

 27 28  0  0  0  0  0  0  0  0999 V2000
   40.0750   31.4820   39.8250 O   0  0  0  0  0  0  0  0  0  0  0  0
   39.4010   32.2820   40.9040 P   0  0  1  0  0  0  0  0  0  0  0  0
   40.1910   33.7540   41.0470 O   0  0  0  0  0  0  0  0  0  0  0  0
   39.5320   34.4410   41.3400 H   0  0  0  0  0  0  0  0  0  0  0  0
   37.7330   32.5130   40.5220 O   0  0  0  0  0  0  0  0  0  0  0  0
   36.2220   30.7170   40.9880 C   0  0  0  0  0  0  0  0  0  0  0  0
   36.9560   31.4420   40.0690 C   0  0  0  0  0  0  0  0  0  0  0  0
   36.8900   31.0720   38.7180 C   0  0  0  0  0  0  0  0  0  0  0  0
   36.0970   30.0080   38.3890 N   0  0  0  0  0  0  0  0  0  0  0  0
   35.4030   29.3320   39.3040 C   0  0  0  0  0  0  0  0  0  0  0  0
   35.4660   29.6830   40.5880 N   0  0  0  0  0  0  0  0  0  0  0  0
   36.2010   30.9140   42.0450 H   0  0  0  0  0  0  0  0  0  0  0  0
   37.4780   31.6730   38.0700 H   0  0  0  0  0  0  0  0  0  0  0  0
   34.7780   28.4870   39.0220 H   0  0  0  0  0  0  0  0  0  0  0  0
   39.5290   31.4650   42.3410 O   0  0  0  0  0  0  0  0  0  0  0  0
   39.6100   30.1290   42.5260 C   0  0  0  0  0  0  0  0  0  0  0  0
   40.8190   29.7410   42.7040 O   0  0  0  0  0  0  0  0  0  0  0  0
   38.7700   28.9170   42.5980 C   0  0  0  0  0  0  0  0  0  0  0  0
   37.7760   28.6210   43.5770 C   0  0  0  0  0  0  0  0  0  0  0  0
   37.1600   27.4100   43.3910 C   0  0  0  0  0  0  0  0  0  0  0  0
   37.4660   26.5850   42.3810 C   0  0  0  0  0  0  0  0  0  0  0  0
   38.8250   27.5700   41.4870 S   0  0  0  0  0  0  0  0  0  0  0  0
   37.5970   29.3240   44.3380 H   0  0  0  0  0  0  0  0  0  0  0  0
   36.3860   27.0690   44.0710 H   0  0  0  0  0  0  0  0  0  0  0  0
   37.0550   25.3090   41.8940 C   0  0  0  0  0  0  0  0  0  0  0  0
   36.2720   25.4200   41.1600 H   0  0  0  0  0  0  0  0  0  0  0  0
   37.5900   24.2560   42.3230 O   0  0  0  0  0  0  0  0  0  0  0  0
  2  1  2  6  0  0  0
  2  3  1  0  0  0  0
  2 15  1  0  0  0  0
  3  4  1  0  0  0  0
  5  2  1  0  0  0  0
  6 12  1  0  0  0  0
  7  5  1  0  0  0  0
  7  6  2  0  0  0  0
  8  7  1  0  0  0  0
  9  8  2  0  0  0  0
  9 10  1  0  0  0  0
 10 11  2  0  0  0  0
 11  6  1  0  0  0  0
 13  8  1  0  0  0  0
 14 10  1  0  0  0  0
 15 16  1  0  0  0  0
 16 18  1  0  0  0  0
 16 17  2  0  0  0  0
 18 19  2  0  0  0  0
 19 23  1  0  0  0  0
 20 19  1  0  0  0  0
 20 24  1  0  0  0  0
 21 20  2  0  0  0  0
 22 21  1  0  0  0  0
 22 18  1  0  0  0  0
 25 27  2  0  0  0  0
 25 21  1  0  0  0  0
 26 25  1  0  0  0  0
M  END
>  <minimizedAffinity>
-4.76350975

$$$$

 OpenBabel03242514383D

 27 28  0  0  0  0  0  0  0  0999 V2000
   36.6670   31.1740   38.7880 O   0  0  0  0  0  0  0  0  0  0  0  0
   37.1940   31.5810   40.1360 P   0  0  1  0  0  0  0  0  0  0  0  0
   36.9610   33.2320   40.3210 O   0  0  0  0  0  0  0  0  0  0  0  0
   36.8240   33.4260   41.2880 H   0  0  0  0  0  0  0  0  0  0  0  0
   36.3850   30.7030   41.3830 O   0  0  0  0  0  0  0  0  0  0  0  0
   37.5690   29.2040   42.8260 C   0  0  0  0  0  0  0  0  0  0  0  0
   36.7850   29.4020   41.7050 C   0  0  0  0  0  0  0  0  0  0  0  0
   36.4230   28.2860   40.9370 C   0  0  0  0  0  0  0  0  0  0  0  0
   36.8700   27.0610   41.3460 N   0  0  0  0  0  0  0  0  0  0  0  0
   37.6250   26.9090   42.4340 C   0  0  0  0  0  0  0  0  0  0  0  0
   37.9710   27.9690   43.1640 N   0  0  0  0  0  0  0  0  0  0  0  0
   37.9030   29.9870   43.4830 H   0  0  0  0  0  0  0  0  0  0  0  0
   35.8210   28.5120   40.0920 H   0  0  0  0  0  0  0  0  0  0  0  0
   37.9720   25.9250   42.7420 H   0  0  0  0  0  0  0  0  0  0  0  0
   38.8190   31.2600   40.2000 O   0  0  0  0  0  0  0  0  0  0  0  0
   39.8110   31.8920   39.5340 C   0  0  0  0  0  0  0  0  0  0  0  0
   39.9430   33.1100   39.9130 O   0  0  0  0  0  0  0  0  0  0  0  0
   40.8300   31.6690   38.4910 C   0  0  0  0  0  0  0  0  0  0  0  0
   41.7380   32.6330   37.9590 C   0  0  0  0  0  0  0  0  0  0  0  0
   42.5690   32.1340   36.9890 C   0  0  0  0  0  0  0  0  0  0  0  0
   42.5300   30.8590   36.5820 C   0  0  0  0  0  0  0  0  0  0  0  0
   41.1370   30.1570   37.6720 S   0  0  0  0  0  0  0  0  0  0  0  0
   41.7030   33.6140   38.3350 H   0  0  0  0  0  0  0  0  0  0  0  0
   43.3040   32.7690   36.5060 H   0  0  0  0  0  0  0  0  0  0  0  0
   43.2070   30.0250   35.6440 C   0  0  0  0  0  0  0  0  0  0  0  0
   42.5770   29.2020   35.3470 H   0  0  0  0  0  0  0  0  0  0  0  0
   44.3780   30.2960   35.2740 O   0  0  0  0  0  0  0  0  0  0  0  0
  2  1  2  6  0  0  0
  2 15  1  0  0  0  0
  2  3  1  0  0  0  0
  2  5  1  0  0  0  0
  3  4  1  0  0  0  0
  5  7  1  0  0  0  0
  6 11  1  0  0  0  0
  6 12  1  0  0  0  0
  7  6  2  0  0  0  0
  8  9  2  0  0  0  0
  8  7  1  0  0  0  0
  9 10  1  0  0  0  0
 10 14  1  0  0  0  0
 10 11  2  0  0  0  0
 13  8  1  0  0  0  0
 16 17  2  0  0  0  0
 16 15  1  0  0  0  0
 18 16  1  0  0  0  0
 19 23  1  0  0  0  0
 19 18  2  0  0  0  0
 20 19  1  0  0  0  0
 21 20  2  0  0  0  0
 21 22  1  0  0  0  0
 22 18  1  0  0  0  0
 24 20  1  0  0  0  0
 25 21  1  0  0  0  0
 26 25  1  0  0  0  0
 27 25  2  0  0  0  0
M  END
>  <minimizedAffinity>
-4.66648817

$$$$

 OpenBabel03242514383D

 27 28  0  0  0  0  0  0  0  0999 V2000
   37.1890   32.8390   40.1340 O   0  0  0  0  0  0  0  0  0  0  0  0
   37.0220   31.3610   40.3490 P   0  0  1  0  0  0  0  0  0  0  0  0
   35.6910   31.1160   41.3420 O   0  0  0  0  0  0  0  0  0  0  0  0
   35.2760   30.2430   41.1060 H   0  0  0  0  0  0  0  0  0  0  0  0
   36.8150   30.5570   38.8360 O   0  0  0  0  0  0  0  0  0  0  0  0
   38.0630   28.5800   38.3230 C   0  0  0  0  0  0  0  0  0  0  0  0
   36.8890   29.1620   38.7610 C   0  0  0  0  0  0  0  0  0  0  0  0
   35.8190   28.3280   39.1130 C   0  0  0  0  0  0  0  0  0  0  0  0
   36.0020   26.9780   39.0010 N   0  0  0  0  0  0  0  0  0  0  0  0
   37.1500   26.4520   38.5740 C   0  0  0  0  0  0  0  0  0  0  0  0
   38.1680   27.2450   38.2390 N   0  0  0  0  0  0  0  0  0  0  0  0
   38.9420   29.1250   38.0290 H   0  0  0  0  0  0  0  0  0  0  0  0
   34.9500   28.8430   39.4400 H   0  0  0  0  0  0  0  0  0  0  0  0
   37.2760   25.3750   38.4920 H   0  0  0  0  0  0  0  0  0  0  0  0
   38.3710   30.7700   41.1090 O   0  0  0  0  0  0  0  0  0  0  0  0
   38.4410   29.7430   41.9840 C   0  0  0  0  0  0  0  0  0  0  0  0
   38.9700   30.0960   43.0980 O   0  0  0  0  0  0  0  0  0  0  0  0
   38.1110   28.3110   42.1170 C   0  0  0  0  0  0  0  0  0  0  0  0
   36.8740   27.7540   42.5590 C   0  0  0  0  0  0  0  0  0  0  0  0
   36.8630   26.3830   42.5860 C   0  0  0  0  0  0  0  0  0  0  0  0
   37.9170   25.6390   42.2290 C   0  0  0  0  0  0  0  0  0  0  0  0
   39.1840   26.9790   41.7620 S   0  0  0  0  0  0  0  0  0  0  0  0
   36.0940   28.4100   42.8200 H   0  0  0  0  0  0  0  0  0  0  0  0
   35.9790   25.8400   42.9060 H   0  0  0  0  0  0  0  0  0  0  0  0
   38.2550   24.2570   42.1340 C   0  0  0  0  0  0  0  0  0  0  0  0
   39.0790   24.0240   42.7890 H   0  0  0  0  0  0  0  0  0  0  0  0
   37.6200   23.4930   41.3640 O   0  0  0  0  0  0  0  0  0  0  0  0
  2  1  2  6  0  0  0
  2 15  1  0  0  0  0
  2  3  1  0  0  0  0
  4  3  1  0  0  0  0
  5  2  1  0  0  0  0
  6  7  1  0  0  0  0
  7  5  1  0  0  0  0
  7  8  2  0  0  0  0
  8 13  1  0  0  0  0
  9  8  1  0  0  0  0
 10  9  2  0  0  0  0
 11  6  2  0  0  0  0
 11 10  1  0  0  0  0
 12  6  1  0  0  0  0
 14 10  1  0  0  0  0
 15 16  1  0  0  0  0
 16 18  1  0  0  0  0
 16 17  2  0  0  0  0
 18 19  2  0  0  0  0
 19 20  1  0  0  0  0
 19 23  1  0  0  0  0
 20 24  1  0  0  0  0
 21 20  2  0  0  0  0
 22 18  1  0  0  0  0
 22 21  1  0  0  0  0
 25 21  1  0  0  0  0
 25 26  1  0  0  0  0
 27 25  2  0  0  0  0
M  END
>  <minimizedAffinity>
-4.58553171

$$$$

 OpenBabel03242514383D

 27 28  0  0  0  0  0  0  0  0999 V2000
   37.4610   29.5930   39.7430 O   0  0  0  0  0  0  0  0  0  0  0  0
   36.6080   30.1640   40.8410 P   0  0  1  0  0  0  0  0  0  0  0  0
   35.0320   29.6350   40.6190 O   0  0  0  0  0  0  0  0  0  0  0  0
   34.5940   29.5610   41.5100 H   0  0  0  0  0  0  0  0  0  0  0  0
   37.2110   29.6700   42.3820 O   0  0  0  0  0  0  0  0  0  0  0  0
   37.0500   27.2820   42.3670 C   0  0  0  0  0  0  0  0  0  0  0  0
   37.8170   28.4190   42.5360 C   0  0  0  0  0  0  0  0  0  0  0  0
   39.1740   28.2690   42.8530 C   0  0  0  0  0  0  0  0  0  0  0  0
   39.6610   26.9970   42.9790 N   0  0  0  0  0  0  0  0  0  0  0  0
   38.8880   25.9240   42.8090 C   0  0  0  0  0  0  0  0  0  0  0  0
   37.5980   26.0660   42.5070 N   0  0  0  0  0  0  0  0  0  0  0  0
   36.0020   27.2830   42.1230 H   0  0  0  0  0  0  0  0  0  0  0  0
   39.7010   29.1830   42.9680 H   0  0  0  0  0  0  0  0  0  0  0  0
   39.2950   24.9200   42.9140 H   0  0  0  0  0  0  0  0  0  0  0  0
   36.6360   31.8180   40.7420 O   0  0  0  0  0  0  0  0  0  0  0  0
   37.6180   32.5970   40.2350 C   0  0  0  0  0  0  0  0  0  0  0  0
   37.2050   33.3110   39.2530 O   0  0  0  0  0  0  0  0  0  0  0  0
   39.0440   32.9280   40.4190 C   0  0  0  0  0  0  0  0  0  0  0  0
   39.6980   34.1380   40.0410 C   0  0  0  0  0  0  0  0  0  0  0  0
   41.0380   34.1570   40.3330 C   0  0  0  0  0  0  0  0  0  0  0  0
   41.6700   33.1320   40.9200 C   0  0  0  0  0  0  0  0  0  0  0  0
   40.2470   31.8890   41.1420 S   0  0  0  0  0  0  0  0  0  0  0  0
   39.1280   34.8940   39.5850 H   0  0  0  0  0  0  0  0  0  0  0  0
   41.6470   35.0220   40.0930 H   0  0  0  0  0  0  0  0  0  0  0  0
   42.9890   32.8120   41.3560 C   0  0  0  0  0  0  0  0  0  0  0  0
   43.0010   31.8520   41.8490 H   0  0  0  0  0  0  0  0  0  0  0  0
   43.9430   33.6030   41.1490 O   0  0  0  0  0  0  0  0  0  0  0  0
  2  1  2  6  0  0  0
  2  5  1  0  0  0  0
  3  2  1  0  0  0  0
  3  4  1  0  0  0  0
  5  7  1  0  0  0  0
  6 11  2  0  0  0  0
  6  7  1  0  0  0  0
  7  8  2  0  0  0  0
  8 13  1  0  0  0  0
  8  9  1  0  0  0  0
 10 14  1  0  0  0  0
 10  9  2  0  0  0  0
 11 10  1  0  0  0  0
 12  6  1  0  0  0  0
 15  2  1  0  0  0  0
 16 18  1  0  0  0  0
 16 15  1  0  0  0  0
 17 16  2  0  0  0  0
 18 22  1  0  0  0  0
 19 20  1  0  0  0  0
 19 18  2  0  0  0  0
 20 21  2  0  0  0  0
 21 22  1  0  0  0  0
 21 25  1  0  0  0  0
 23 19  1  0  0  0  0
 24 20  1  0  0  0  0
 25 26  1  0  0  0  0
 27 25  2  0  0  0  0
M  END
>  <minimizedAffinity>
-4.47634077

$$$$

 OpenBabel03242514383D

 27 28  0  0  0  0  0  0  0  0999 V2000
   39.8270   30.1040   37.5880 O   0  0  0  0  0  0  0  0  0  0  0  0
   39.4930   31.5310   37.9200 P   0  0  1  0  0  0  0  0  0  0  0  0
   40.1510   32.5210   36.7360 O   0  0  0  0  0  0  0  0  0  0  0  0
   39.5730   33.3260   36.6390 H   0  0  0  0  0  0  0  0  0  0  0  0
   37.7810   31.7380   38.0120 O   0  0  0  0  0  0  0  0  0  0  0  0
   36.5700   29.7470   38.5560 C   0  0  0  0  0  0  0  0  0  0  0  0
   37.0280   30.9970   38.9280 C   0  0  0  0  0  0  0  0  0  0  0  0
   36.7180   31.4680   40.2110 C   0  0  0  0  0  0  0  0  0  0  0  0
   35.9750   30.6580   41.0240 N   0  0  0  0  0  0  0  0  0  0  0  0
   35.5500   29.4570   40.6300 C   0  0  0  0  0  0  0  0  0  0  0  0
   35.8440   29.0080   39.4100 N   0  0  0  0  0  0  0  0  0  0  0  0
   36.7490   29.2910   37.5990 H   0  0  0  0  0  0  0  0  0  0  0  0
   37.1020   32.4340   40.4280 H   0  0  0  0  0  0  0  0  0  0  0  0
   34.9600   28.8280   41.2920 H   0  0  0  0  0  0  0  0  0  0  0  0
   40.1740   31.9200   39.3800 O   0  0  0  0  0  0  0  0  0  0  0  0
   40.4050   31.0960   40.4270 C   0  0  0  0  0  0  0  0  0  0  0  0
   41.6010   31.2120   40.8740 O   0  0  0  0  0  0  0  0  0  0  0  0
   39.7440   30.0780   41.2660 C   0  0  0  0  0  0  0  0  0  0  0  0
   39.2730   30.2440   42.6030 C   0  0  0  0  0  0  0  0  0  0  0  0
   38.7060   29.1140   43.1330 C   0  0  0  0  0  0  0  0  0  0  0  0
   38.6050   27.9630   42.4560 C   0  0  0  0  0  0  0  0  0  0  0  0
   39.4040   28.4310   40.7950 S   0  0  0  0  0  0  0  0  0  0  0  0
   39.3900   31.1820   43.0620 H   0  0  0  0  0  0  0  0  0  0  0  0
   38.3100   29.1120   44.1430 H   0  0  0  0  0  0  0  0  0  0  0  0
   38.1010   26.6470   42.6730 C   0  0  0  0  0  0  0  0  0  0  0  0
   38.9090   25.9630   42.8830 H   0  0  0  0  0  0  0  0  0  0  0  0
   36.8680   26.4140   42.6090 O   0  0  0  0  0  0  0  0  0  0  0  0
  2  1  2  6  0  0  0
  2  5  1  0  0  0  0
  2 15  1  0  0  0  0
  3  2  1  0  0  0  0
  4  3  1  0  0  0  0
  5  7  1  0  0  0  0
  6  7  2  0  0  0  0
  6 11  1  0  0  0  0
  7  8  1  0  0  0  0
  8 13  1  0  0  0  0
  8  9  2  0  0  0  0
 10  9  1  0  0  0  0
 10 14  1  0  0  0  0
 11 10  2  0  0  0  0
 12  6  1  0  0  0  0
 15 16  1  0  0  0  0
 16 17  2  0  0  0  0
 16 18  1  0  0  0  0
 18 19  2  0  0  0  0
 19 23  1  0  0  0  0
 19 20  1  0  0  0  0
 20 24  1  0  0  0  0
 21 25  1  0  0  0  0
 21 20  2  0  0  0  0
 22 18  1  0  0  0  0
 22 21  1  0  0  0  0
 25 26  1  0  0  0  0
 27 25  2  0  0  0  0
M  END
>  <minimizedAffinity>
-4.46336412

$$$$

 OpenBabel03242514383D

 27 28  0  0  0  0  0  0  0  0999 V2000
   38.9470   25.3940   40.6390 O   0  0  0  0  0  0  0  0  0  0  0  0
   38.2940   24.8650   41.8850 P   0  0  1  0  0  0  0  0  0  0  0  0
   37.8700   23.2640   41.6240 O   0  0  0  0  0  0  0  0  0  0  0  0
   37.9130   22.7790   42.4920 H   0  0  0  0  0  0  0  0  0  0  0  0
   39.3700   25.0050   43.2280 O   0  0  0  0  0  0  0  0  0  0  0  0
   40.3570   27.1760   43.4280 C   0  0  0  0  0  0  0  0  0  0  0  0
   40.4970   25.8300   43.1480 C   0  0  0  0  0  0  0  0  0  0  0  0
   41.7650   25.3480   42.7970 C   0  0  0  0  0  0  0  0  0  0  0  0
   42.7960   26.2450   42.7510 N   0  0  0  0  0  0  0  0  0  0  0  0
   42.6230   27.5370   43.0270 C   0  0  0  0  0  0  0  0  0  0  0  0
   41.4170   27.9970   43.3610 N   0  0  0  0  0  0  0  0  0  0  0  0
   39.4330   27.6490   43.7060 H   0  0  0  0  0  0  0  0  0  0  0  0
   41.7980   24.3060   42.5960 H   0  0  0  0  0  0  0  0  0  0  0  0
   43.4560   28.2350   42.9840 H   0  0  0  0  0  0  0  0  0  0  0  0
   36.9190   25.7400   42.1860 O   0  0  0  0  0  0  0  0  0  0  0  0
   36.8220   27.0670   42.4260 C   0  0  0  0  0  0  0  0  0  0  0  0
   36.8680   27.3330   43.6800 O   0  0  0  0  0  0  0  0  0  0  0  0
   36.6790   28.3610   41.7320 C   0  0  0  0  0  0  0  0  0  0  0  0
   35.6160   28.7550   40.8650 C   0  0  0  0  0  0  0  0  0  0  0  0
   35.7570   30.0220   40.3580 C   0  0  0  0  0  0  0  0  0  0  0  0
   36.7970   30.8120   40.6510 C   0  0  0  0  0  0  0  0  0  0  0  0
   37.8000   29.6970   41.8210 S   0  0  0  0  0  0  0  0  0  0  0  0
   34.8350   28.0740   40.6880 H   0  0  0  0  0  0  0  0  0  0  0  0
   35.0140   30.4370   39.6850 H   0  0  0  0  0  0  0  0  0  0  0  0
   37.2560   32.1230   40.3260 C   0  0  0  0  0  0  0  0  0  0  0  0
   36.5700   32.6050   39.6480 H   0  0  0  0  0  0  0  0  0  0  0  0
   38.3250   32.5670   40.8150 O   0  0  0  0  0  0  0  0  0  0  0  0
  2  1  2  6  0  0  0
  2 15  1  0  0  0  0
  2  5  1  0  0  0  0
  3  2  1  0  0  0  0
  3  4  1  0  0  0  0
  6 12  1  0  0  0  0
  7  5  1  0  0  0  0
  7  6  2  0  0  0  0
  8  7  1  0  0  0  0
  9  8  2  0  0  0  0
  9 10  1  0  0  0  0
 10 11  2  0  0  0  0
 11  6  1  0  0  0  0
 13  8  1  0  0  0  0
 14 10  1  0  0  0  0
 15 16  1  0  0  0  0
 16 17  2  0  0  0  0
 18 22  1  0  0  0  0
 18 16  1  0  0  0  0
 19 18  2  0  0  0  0
 20 21  2  0  0  0  0
 20 19  1  0  0  0  0
 21 22  1  0  0  0  0
 23 19  1  0  0  0  0
 24 20  1  0  0  0  0
 25 21  1  0  0  0  0
 25 27  2  0  0  0  0
 26 25  1  0  0  0  0
M  END
>  <minimizedAffinity>
-4.42749214

$$$$
