
 OpenBabel03252508313D

 26 27  0  0  1  0  0  0  0  0999 V2000
   44.1840   34.2600   41.7660 N   0  0  0  0  0  0  0  0  0  0  0  0
   44.0040   33.5480   40.5300 C   0  0  1  0  0  0  0  0  0  0  0  0
   43.0970   34.1910   39.5590 C   0  0  0  0  0  0  0  0  0  0  0  0
   42.0080   34.9070   40.0710 N   0  0  0  0  0  0  0  0  0  0  0  0
   42.0810   35.4070   41.3790 C   0  0  0  0  0  0  0  0  0  0  0  0
   43.5340   35.5290   41.8220 C   0  0  0  0  0  0  0  0  0  0  0  0
   43.7240   32.4910   40.7460 H   0  0  0  0  0  0  0  0  0  0  0  0
   43.6980   34.7970   38.8370 H   0  0  0  0  0  0  0  0  0  0  0  0
   42.6800   33.3650   38.9090 H   0  0  0  0  0  0  0  0  0  0  0  0
   41.7740   35.6950   39.4100 H   0  0  0  0  0  0  0  0  0  0  0  0
   41.6460   34.6330   42.0770 H   0  0  0  0  0  0  0  0  0  0  0  0
   41.5050   36.3140   41.5580 H   0  0  0  0  0  0  0  0  0  0  0  0
   43.6210   36.1060   42.7320 H   0  0  0  0  0  0  0  0  0  0  0  0
   44.0210   36.1610   41.0200 H   0  0  0  0  0  0  0  0  0  0  0  0
   45.9400   34.4340   43.3630 C   0  0  0  0  0  0  0  0  0  0  0  0
   44.9660   33.6440   42.7620 C   0  0  0  0  0  0  0  0  0  0  0  0
   44.8700   32.3370   43.1990 C   0  0  0  0  0  0  0  0  0  0  0  0
   45.6890   31.8540   44.1680 N   0  0  0  0  0  0  0  0  0  0  0  0
   46.6320   32.6620   44.7330 C   0  0  0  0  0  0  0  0  0  0  0  0
   46.7510   33.9320   44.3340 N   0  0  0  0  0  0  0  0  0  0  0  0
   46.1760   35.4690   43.1690 H   0  0  0  0  0  0  0  0  0  0  0  0
   44.1300   31.7290   42.7450 H   0  0  0  0  0  0  0  0  0  0  0  0
   47.2340   32.1880   45.4940 H   0  0  0  0  0  0  0  0  0  0  0  0
   45.3820   33.4680   39.9130 C   0  0  0  0  0  0  0  0  0  0  0  0
   46.1080   34.2720   39.9110 H   0  0  0  0  0  0  0  0  0  0  0  0
   45.5720   32.3760   39.4150 O   0  0  0  0  0  0  0  0  0  0  0  0
  1  6  1  0  0  0  0
  1 16  1  0  0  0  0
  2  7  1  1  0  0  0
  2  1  1  0  0  0  0
  3  4  1  0  0  0  0
  3  2  1  0  0  0  0
  4  5  1  0  0  0  0
  5 12  1  0  0  0  0
  5  6  1  0  0  0  0
  5 11  1  0  0  0  0
  6 13  1  0  0  0  0
  8  3  1  0  0  0  0
  9  3  1  0  0  0  0
 10  4  1  0  0  0  0
 14  6  1  0  0  0  0
 15 20  1  0  0  0  0
 16 17  1  0  0  0  0
 16 15  2  0  0  0  0
 17 18  2  0  0  0  0
 18 19  1  0  0  0  0
 19 23  1  0  0  0  0
 20 19  2  0  0  0  0
 21 15  1  0  0  0  0
 22 17  1  0  0  0  0
 24  2  1  0  0  0  0
 25 24  1  0  0  0  0
 26 24  2  0  0  0  0
M  END
>  <minimizedAffinity>
-3.00962043

>  <minimizedRMSD>
1.33438826

$$$$
