
 OpenBabel03252508573D

 33 34  0  0  1  0  0  0  0  0999 V2000
   48.5070   33.9280   41.2560 N   0  0  0  0  0  0  0  0  0  0  0  0
   49.1840   33.2550   42.2810 C   0  0  0  0  0  0  0  0  0  0  0  0
   49.2260   31.7620   42.2020 C   0  0  0  0  0  0  0  0  0  0  0  0
   49.2440   31.2050   40.8020 C   0  0  0  0  0  0  0  0  0  0  0  0
   49.2730   32.2800   39.7640 C   0  0  0  0  0  0  0  0  0  0  0  0
   48.0910   33.2150   40.1220 C   0  0  2  0  0  0  0  0  0  0  0  0
   48.7600   33.5400   43.2800 H   0  0  0  0  0  0  0  0  0  0  0  0
   50.2410   33.6250   42.3050 H   0  0  0  0  0  0  0  0  0  0  0  0
   48.2760   31.3980   42.6710 H   0  0  0  0  0  0  0  0  0  0  0  0
   50.0340   31.3840   42.8410 H   0  0  0  0  0  0  0  0  0  0  0  0
   48.4170   30.5210   40.5980 H   0  0  0  0  0  0  0  0  0  0  0  0
   50.1890   30.6130   40.7150 H   0  0  0  0  0  0  0  0  0  0  0  0
   49.0510   31.8380   38.7730 H   0  0  0  0  0  0  0  0  0  0  0  0
   50.2010   32.8740   39.7950 H   0  0  0  0  0  0  0  0  0  0  0  0
   47.2360   32.5500   40.1870 H   0  0  0  0  0  0  0  0  0  0  0  0
   47.6870   35.0420   41.6500 C   0  0  0  0  0  0  0  0  0  0  0  0
   47.8310   35.9070   40.9840 H   0  0  0  0  0  0  0  0  0  0  0  0
   47.9910   35.3470   42.6690 H   0  0  0  0  0  0  0  0  0  0  0  0
   46.2440   34.6540   41.7060 C   0  0  0  0  0  0  0  0  0  0  0  0
   45.6610   35.2960   41.0500 H   0  0  0  0  0  0  0  0  0  0  0  0
   46.0280   33.6040   41.4270 H   0  0  0  0  0  0  0  0  0  0  0  0
   44.5060   35.9810   44.7610 C   0  0  0  0  0  0  0  0  0  0  0  0
   44.9800   35.8810   43.4360 C   0  0  0  0  0  0  0  0  0  0  0  0
   45.7400   34.7830   43.0900 C   0  0  0  0  0  0  0  0  0  0  0  0
   45.9950   33.8600   44.0290 N   0  0  0  0  0  0  0  0  0  0  0  0
   45.5370   33.9650   45.2950 C   0  0  0  0  0  0  0  0  0  0  0  0
   44.7880   35.0290   45.6700 N   0  0  0  0  0  0  0  0  0  0  0  0
   43.9150   36.8620   44.9750 H   0  0  0  0  0  0  0  0  0  0  0  0
   44.7490   36.6510   42.7130 H   0  0  0  0  0  0  0  0  0  0  0  0
   45.7500   33.2140   46.0410 H   0  0  0  0  0  0  0  0  0  0  0  0
   47.9810   34.0850   38.9130 C   0  0  0  0  0  0  0  0  0  0  0  0
   47.0200   34.4500   38.5680 H   0  0  0  0  0  0  0  0  0  0  0  0
   48.5240   34.6520   38.0150 O   0  0  0  0  0  0  0  0  0  0  0  0
  1 16  1  0  0  0  0
  1  2  1  0  0  0  0
  2  8  1  0  0  0  0
  2  7  1  0  0  0  0
  3  2  1  0  0  0  0
  3  9  1  0  0  0  0
  3 10  1  0  0  0  0
  4  3  1  0  0  0  0
  5 14  1  0  0  0  0
  5  6  1  0  0  0  0
  5  4  1  0  0  0  0
  6 15  1  1  0  0  0
  6  1  1  0  0  0  0
 11  4  1  0  0  0  0
 12  4  1  0  0  0  0
 13  5  1  0  0  0  0
 16 19  1  0  0  0  0
 16 18  1  0  0  0  0
 17 16  1  0  0  0  0
 19 24  1  0  0  0  0
 20 19  1  0  0  0  0
 21 19  1  0  0  0  0
 22 28  1  0  0  0  0
 22 27  1  0  0  0  0
 23 22  2  0  0  0  0
 24 23  1  0  0  0  0
 24 25  2  0  0  0  0
 25 26  1  0  0  0  0
 26 27  2  0  0  0  0
 26 30  1  0  0  0  0
 29 23  1  0  0  0  0
 31  6  1  0  0  0  0
 32 31  1  0  0  0  0
 33 31  2  0  0  0  0
M  END
>  <minimizedAffinity>
-4.18354845

>  <minimizedRMSD>
1.13449717

$$$$
