
 OpenBabel03252508573D

 33 34  0  0  1  0  0  0  0  0999 V2000
   48.3990   33.5280   40.5400 N   0  0  0  0  0  0  0  0  0  0  0  0
   47.2410   34.2830   40.3100 C   0  0  0  0  0  0  0  0  0  0  0  0
   46.3160   34.4770   41.4680 C   0  0  0  0  0  0  0  0  0  0  0  0
   46.9910   34.5350   42.8140 C   0  0  0  0  0  0  0  0  0  0  0  0
   48.4790   34.4410   42.7060 C   0  0  0  0  0  0  0  0  0  0  0  0
   48.7390   33.1730   41.8540 C   0  0  2  0  0  0  0  0  0  0  0  0
   46.6530   33.8450   39.4620 H   0  0  0  0  0  0  0  0  0  0  0  0
   47.5510   35.2960   39.9470 H   0  0  0  0  0  0  0  0  0  0  0  0
   45.6510   33.5750   41.4910 H   0  0  0  0  0  0  0  0  0  0  0  0
   45.6510   35.3280   41.2680 H   0  0  0  0  0  0  0  0  0  0  0  0
   46.6270   33.7800   43.5130 H   0  0  0  0  0  0  0  0  0  0  0  0
   46.7380   35.5350   43.2470 H   0  0  0  0  0  0  0  0  0  0  0  0
   48.9080   34.2530   43.7090 H   0  0  0  0  0  0  0  0  0  0  0  0
   48.9220   35.3030   42.1800 H   0  0  0  0  0  0  0  0  0  0  0  0
   48.1850   32.3910   42.3620 H   0  0  0  0  0  0  0  0  0  0  0  0
   48.7790   32.6030   39.5060 C   0  0  0  0  0  0  0  0  0  0  0  0
   49.4920   31.8500   39.8770 H   0  0  0  0  0  0  0  0  0  0  0  0
   49.2800   33.1750   38.7020 H   0  0  0  0  0  0  0  0  0  0  0  0
   47.5780   31.9420   38.9080 C   0  0  0  0  0  0  0  0  0  0  0  0
   47.5510   30.8930   39.1930 H   0  0  0  0  0  0  0  0  0  0  0  0
   46.6050   32.3920   39.1880 H   0  0  0  0  0  0  0  0  0  0  0  0
   46.7200   31.5340   35.2740 C   0  0  0  0  0  0  0  0  0  0  0  0
   46.6590   31.4170   36.6780 C   0  0  0  0  0  0  0  0  0  0  0  0
   47.6250   32.0470   37.4340 C   0  0  0  0  0  0  0  0  0  0  0  0
   48.5810   32.7420   36.8000 N   0  0  0  0  0  0  0  0  0  0  0  0
   48.6310   32.8480   35.4550 C   0  0  0  0  0  0  0  0  0  0  0  0
   47.6990   32.2430   34.6810 N   0  0  0  0  0  0  0  0  0  0  0  0
   45.9360   31.0200   34.7320 H   0  0  0  0  0  0  0  0  0  0  0  0
   45.8680   30.8440   37.1450 H   0  0  0  0  0  0  0  0  0  0  0  0
   49.4070   33.4120   34.9570 H   0  0  0  0  0  0  0  0  0  0  0  0
   50.2080   32.9590   42.0210 C   0  0  0  0  0  0  0  0  0  0  0  0
   50.6570   31.9860   41.8560 H   0  0  0  0  0  0  0  0  0  0  0  0
   51.2790   33.4120   42.2880 O   0  0  0  0  0  0  0  0  0  0  0  0
  1  6  1  0  0  0  0
  2  1  1  0  0  0  0
  2  3  1  0  0  0  0
  3  9  1  0  0  0  0
  3  4  1  0  0  0  0
  4 12  1  0  0  0  0
  4 11  1  0  0  0  0
  5  4  1  0  0  0  0
  5 13  1  0  0  0  0
  6 31  1  0  0  0  0
  6 15  1  1  0  0  0
  6  5  1  0  0  0  0
  7  2  1  0  0  0  0
  8  2  1  0  0  0  0
 10  3  1  0  0  0  0
 14  5  1  0  0  0  0
 16 17  1  0  0  0  0
 16  1  1  0  0  0  0
 18 16  1  0  0  0  0
 19 21  1  0  0  0  0
 19 20  1  0  0  0  0
 19 16  1  0  0  0  0
 22 23  1  0  0  0  0
 23 29  1  0  0  0  0
 23 24  2  0  0  0  0
 24 19  1  0  0  0  0
 25 24  1  0  0  0  0
 26 25  2  0  0  0  0
 27 22  2  0  0  0  0
 27 26  1  0  0  0  0
 28 22  1  0  0  0  0
 30 26  1  0  0  0  0
 31 33  2  0  0  0  0
 32 31  1  0  0  0  0
M  END
>  <minimizedAffinity>
-3.35651612

>  <minimizedRMSD>
6.63523054

$$$$
