
 OpenBabel03252502523D

 25 26  0  0  0  0  0  0  0  0999 V2000
   45.9880   29.8260   44.8900 Br  0  0  0  0  0  0  0  0  0  0  0  0
   45.8160   30.5590   46.6700 C   0  0  0  0  0  0  0  0  0  0  0  0
   46.3620   31.8030   46.8590 C   0  0  0  0  0  0  0  0  0  0  0  0
   46.2210   32.3110   48.1660 C   0  0  0  0  0  0  0  0  0  0  0  0
   45.5860   31.6170   49.1760 C   0  0  0  0  0  0  0  0  0  0  0  0
   45.0630   30.3730   48.9060 C   0  0  0  0  0  0  0  0  0  0  0  0
   45.1760   29.8330   47.6440 C   0  0  0  0  0  0  0  0  0  0  0  0
   46.6280   33.3000   48.4060 H   0  0  0  0  0  0  0  0  0  0  0  0
   45.5020   32.0400   50.1500 H   0  0  0  0  0  0  0  0  0  0  0  0
   44.5680   29.8370   49.7060 H   0  0  0  0  0  0  0  0  0  0  0  0
   47.0580   32.6400   45.8780 C   0  0  0  0  0  0  0  0  0  0  0  0
   47.4900   32.0480   45.0500 H   0  0  0  0  0  0  0  0  0  0  0  0
   47.8900   33.1820   46.4020 H   0  0  0  0  0  0  0  0  0  0  0  0
   44.4980   35.3070   45.4120 C   0  0  0  0  0  0  0  0  0  0  0  0
   44.7000   35.6900   44.0830 C   0  0  0  0  0  0  0  0  0  0  0  0
   45.7100   35.0210   43.3850 C   0  0  0  0  0  0  0  0  0  0  0  0
   46.4400   34.0570   43.9870 N   0  0  0  0  0  0  0  0  0  0  0  0
   46.2010   33.7140   45.3050 C   0  0  0  0  0  0  0  0  0  0  0  0
   45.2350   34.3540   45.9750 N   0  0  0  0  0  0  0  0  0  0  0  0
   43.7400   35.7660   46.0400 H   0  0  0  0  0  0  0  0  0  0  0  0
   44.0830   36.4700   43.6530 H   0  0  0  0  0  0  0  0  0  0  0  0
   45.8920   35.2920   42.3540 H   0  0  0  0  0  0  0  0  0  0  0  0
   44.6200   28.5140   47.3680 C   0  0  0  0  0  0  0  0  0  0  0  0
   44.0140   28.3760   46.4720 H   0  0  0  0  0  0  0  0  0  0  0  0
   44.8360   27.5550   48.1500 O   0  0  0  0  0  0  0  0  0  0  0  0
  1  2  1  0  0  0  0
  2  3  2  0  0  0  0
  2  7  1  0  0  0  0
  3  4  1  0  0  0  0
  4  8  1  0  0  0  0
  4  5  2  0  0  0  0
  5  9  1  0  0  0  0
  6  5  1  0  0  0  0
  6 10  1  0  0  0  0
  7  6  2  0  0  0  0
 11 13  1  0  0  0  0
 11  3  1  0  0  0  0
 12 11  1  0  0  0  0
 14 19  1  0  0  0  0
 14 20  1  0  0  0  0
 15 14  2  0  0  0  0
 16 17  2  0  0  0  0
 16 15  1  0  0  0  0
 17 18  1  0  0  0  0
 18 11  1  0  0  0  0
 18 19  2  0  0  0  0
 21 15  1  0  0  0  0
 22 16  1  0  0  0  0
 23  7  1  0  0  0  0
 23 25  2  0  0  0  0
 24 23  1  0  0  0  0
M  END
>  <minimizedAffinity>
-4.63067007

>  <minimizedRMSD>
0.454169095

$$$$
