
     RDKit          3D

 38 39  0  0  0  0  0  0  0  0999 V2000
   46.5744   34.9083   43.2494 O   0  0  0  0  0  0  0  0  0  0  0  0
   46.8063   33.9722   42.2310 C   0  0  1  0  0  0  0  0  0  0  0  0
   46.0769   34.4110   40.9571 C   0  0  0  0  0  0  0  0  0  0  0  0
   46.6845   33.4744   39.9433 C   0  0  0  0  0  0  0  0  0  0  0  0
   48.0729   33.1394   40.4730 C   0  0  0  0  0  0  0  0  0  0  0  0
   48.2210   33.9617   41.7452 C   0  0  1  0  0  0  0  0  0  0  0  0
   48.7624   35.3334   41.4619 C   0  0  0  0  0  0  0  0  0  0  0  0
   49.6535   35.7602   42.4211 O   0  0  0  0  0  0  0  0  0  0  0  0
   44.7248   35.3511   44.9912 O   0  0  0  0  0  0  0  0  0  0  0  0
   45.5789   34.2394   44.4120 P   0  0  1  0  0  0  0  0  0  0  0  0
   44.6019   33.0451   43.7151 O   0  0  0  0  0  0  0  0  0  0  0  0
   46.4739   33.4943   45.6065 O   0  0  0  0  0  0  0  0  0  0  0  0
   46.2332   32.1548   45.5703 C   0  0  0  0  0  0  0  0  0  0  0  0
   45.6513   31.9021   49.2374 C   0  0  0  0  0  0  0  0  0  0  0  0
   45.9885   32.4548   47.9923 C   0  0  0  0  0  0  0  0  0  0  0  0
   45.8849   31.6056   46.8921 C   0  0  0  0  0  0  0  0  0  0  0  0
   45.4712   30.3110   47.0751 N   0  0  0  0  0  0  0  0  0  0  0  0
   45.1557   29.8151   48.2877 C   0  0  0  0  0  0  0  0  0  0  0  0
   45.2480   30.6120   49.3555 N   0  0  0  0  0  0  0  0  0  0  0  0
   46.4545   32.9695   42.4628 H   0  0  0  0  0  0  0  0  0  0  0  0
   45.0097   34.0780   41.1081 H   0  0  0  0  0  0  0  0  0  0  0  0
   46.1715   35.4687   40.7381 H   0  0  0  0  0  0  0  0  0  0  0  0
   46.8425   34.0867   39.0218 H   0  0  0  0  0  0  0  0  0  0  0  0
   46.0770   32.5741   39.7502 H   0  0  0  0  0  0  0  0  0  0  0  0
   48.1228   32.0622   40.7810 H   0  0  0  0  0  0  0  0  0  0  0  0
   48.8622   33.3910   39.7574 H   0  0  0  0  0  0  0  0  0  0  0  0
   48.8577   33.3929   42.4756 H   0  0  0  0  0  0  0  0  0  0  0  0
   49.3311   35.2673   40.4967 H   0  0  0  0  0  0  0  0  0  0  0  0
   48.0062   36.1191   41.3486 H   0  0  0  0  0  0  0  0  0  0  0  0
   50.1746   35.0002   42.8043 H   0  0  0  0  0  0  0  0  0  0  0  0
   43.8865   33.5268   43.1970 H   0  0  0  0  0  0  0  0  0  0  0  0
   45.4935   31.7843   44.8656 H   0  0  0  0  0  0  0  0  0  0  0  0
   47.1983   31.6540   45.2695 H   0  0  0  0  0  0  0  0  0  0  0  0
   45.7156   32.5263   50.1322 H   0  0  0  0  0  0  0  0  0  0  0  0
   46.3053   33.4844   47.9352 H   0  0  0  0  0  0  0  0  0  0  0  0
   44.7217   28.4283   48.4184 C   0  0  0  0  0  0  0  0  0  0  0  0
   43.7254   28.1443   48.1088 H   0  0  0  0  0  0  0  0  0  0  0  0
   45.5326   27.5756   48.8984 O   0  0  0  0  0  0  0  0  0  0  0  0
 10  1  1  6
  2  1  1  0
  3  2  1  0
  4  5  1  0
  4  3  1  0
  5  6  1  0
  6  2  1  0
  7  6  1  0
  7  8  1  0
 10  9  2  0
 10 12  1  0
 11 10  1  0
 13 12  1  0
 13 16  1  0
 14 19  2  0
 15 14  1  0
 16 17  1  0
 16 15  2  0
 17 18  2  0
 18 19  1  0
  2 20  1  1
  3 21  1  0
  3 22  1  0
  4 23  1  0
  4 24  1  0
  5 25  1  0
  5 26  1  0
  6 27  1  1
  7 28  1  0
  7 29  1  0
  8 30  1  0
 11 31  1  0
 13 32  1  0
 13 33  1  0
 14 34  1  0
 15 35  1  0
 36 37  1  0
 36 38  2  0
 18 36  1  0
M  ISO  8  20  13  21  13  22  13  23  13  24  13  25  13  26  13  27  13
M  ISO  8  28   8  29   8  30   3  31   3  32   8  33   8  34  14  35  14
M  ISO  1  37   6
M  END
>  <DihAtoms>  (1) 
16,17,35,36

>  <DihDeg>  (1) 
0.0002632992302990681

$$$$
