
 OpenBabel03252505163D

 19 20  0  0  0  0  0  0  0  0999 V2000
   35.6500   29.5880   40.1310 C   0  0  0  0  0  0  0  0  0  0  0  0
   35.9990   28.7680   41.2150 C   0  0  0  0  0  0  0  0  0  0  0  0
   37.0260   29.2490   42.0210 C   0  0  0  0  0  0  0  0  0  0  0  0
   37.6190   30.4540   41.7240 N   0  0  0  0  0  0  0  0  0  0  0  0
   37.2400   31.2050   40.6610 C   0  0  0  0  0  0  0  0  0  0  0  0
   36.2510   30.7650   39.8660 N   0  0  0  0  0  0  0  0  0  0  0  0
   34.8400   29.2360   39.4740 H   0  0  0  0  0  0  0  0  0  0  0  0
   35.5130   27.8340   41.4170 H   0  0  0  0  0  0  0  0  0  0  0  0
   37.4770   28.4720   43.2270 C   0  0  0  0  0  0  0  0  0  0  0  0
   36.5140   27.3710   43.6040 C   0  0  0  0  0  0  0  0  0  0  0  0
   37.9250   27.0990   43.0270 C   0  0  0  0  0  0  0  0  0  0  0  0
   37.8220   29.0790   44.0880 H   0  0  0  0  0  0  0  0  0  0  0  0
   36.3970   27.1560   44.6800 H   0  0  0  0  0  0  0  0  0  0  0  0
   35.6370   27.1480   42.9950 H   0  0  0  0  0  0  0  0  0  0  0  0
   38.6810   26.7040   43.7600 H   0  0  0  0  0  0  0  0  0  0  0  0
   37.8880   26.6060   42.0390 H   0  0  0  0  0  0  0  0  0  0  0  0
   37.9090   32.4740   40.4010 C   0  0  0  0  0  0  0  0  0  0  0  0
   38.9240   32.6290   40.7430 H   0  0  0  0  0  0  0  0  0  0  0  0
   37.2840   33.3700   39.7780 O   0  0  0  0  0  0  0  0  0  0  0  0
  1  2  1  0  0  0  0
  2  8  1  0  0  0  0
  2  3  2  0  0  0  0
  3  9  1  0  0  0  0
  4  3  1  0  0  0  0
  5  4  2  0  0  0  0
  6  1  2  0  0  0  0
  6  5  1  0  0  0  0
  7  1  1  0  0  0  0
  9 10  1  0  0  0  0
  9 12  1  0  0  0  0
 10 13  1  0  0  0  0
 11  9  1  0  0  0  0
 11 10  1  0  0  0  0
 11 15  1  0  0  0  0
 14 10  1  0  0  0  0
 16 11  1  0  0  0  0
 17  5  1  0  0  0  0
 17 18  1  0  0  0  0
 19 17  2  0  0  0  0
M  END
>  <minimizedAffinity>
-3.74372792

$$$$

 OpenBabel03252505163D

 19 20  0  0  0  0  0  0  0  0999 V2000
   38.4190   28.6170   43.2910 C   0  0  0  0  0  0  0  0  0  0  0  0
   38.2110   27.2290   43.3010 C   0  0  0  0  0  0  0  0  0  0  0  0
   37.2290   26.7680   42.4300 C   0  0  0  0  0  0  0  0  0  0  0  0
   36.5420   27.6590   41.6390 N   0  0  0  0  0  0  0  0  0  0  0  0
   36.7870   28.9930   41.6720 C   0  0  0  0  0  0  0  0  0  0  0  0
   37.7290   29.4660   42.5030 N   0  0  0  0  0  0  0  0  0  0  0  0
   39.1890   29.0160   43.9680 H   0  0  0  0  0  0  0  0  0  0  0  0
   38.7660   26.5630   43.9310 H   0  0  0  0  0  0  0  0  0  0  0  0
   36.9270   25.2970   42.3320 C   0  0  0  0  0  0  0  0  0  0  0  0
   36.9350   24.7940   40.9080 C   0  0  0  0  0  0  0  0  0  0  0  0
   38.0120   24.4010   41.9490 C   0  0  0  0  0  0  0  0  0  0  0  0
   36.0610   24.9440   42.9280 H   0  0  0  0  0  0  0  0  0  0  0  0
   36.2130   23.9990   40.6550 H   0  0  0  0  0  0  0  0  0  0  0  0
   37.2100   25.4440   40.0760 H   0  0  0  0  0  0  0  0  0  0  0  0
   37.9530   23.3450   42.3330 H   0  0  0  0  0  0  0  0  0  0  0  0
   39.0160   24.7750   41.6780 H   0  0  0  0  0  0  0  0  0  0  0  0
   36.0250   29.8850   40.8070 C   0  0  0  0  0  0  0  0  0  0  0  0
   35.3640   29.4740   40.0550 H   0  0  0  0  0  0  0  0  0  0  0  0
   36.1540   31.1270   40.9570 O   0  0  0  0  0  0  0  0  0  0  0  0
  1  2  1  0  0  0  0
  1  7  1  0  0  0  0
  2  8  1  0  0  0  0
  3  2  2  0  0  0  0
  4  5  2  0  0  0  0
  4  3  1  0  0  0  0
  5  6  1  0  0  0  0
  6  1  2  0  0  0  0
  9  3  1  0  0  0  0
  9 12  1  0  0  0  0
 10 11  1  0  0  0  0
 10  9  1  0  0  0  0
 11  9  1  0  0  0  0
 11 15  1  0  0  0  0
 13 10  1  0  0  0  0
 14 10  1  0  0  0  0
 16 11  1  0  0  0  0
 17 19  2  0  0  0  0
 17  5  1  0  0  0  0
 18 17  1  0  0  0  0
M  END
>  <minimizedAffinity>
-3.71544099

$$$$

 OpenBabel03252505163D

 19 20  0  0  0  0  0  0  0  0999 V2000
   39.3910   30.4200   42.4800 C   0  0  0  0  0  0  0  0  0  0  0  0
   38.6320   29.2790   42.7830 C   0  0  0  0  0  0  0  0  0  0  0  0
   37.4170   29.1760   42.1120 C   0  0  0  0  0  0  0  0  0  0  0  0
   37.0410   30.1570   41.2250 N   0  0  0  0  0  0  0  0  0  0  0  0
   37.8170   31.2390   40.9710 C   0  0  0  0  0  0  0  0  0  0  0  0
   38.9950   31.3650   41.6030 N   0  0  0  0  0  0  0  0  0  0  0  0
   40.3580   30.5320   42.9930 H   0  0  0  0  0  0  0  0  0  0  0  0
   38.9570   28.5340   43.4810 H   0  0  0  0  0  0  0  0  0  0  0  0
   36.5220   27.9880   42.3350 C   0  0  0  0  0  0  0  0  0  0  0  0
   37.2940   26.7130   42.5760 C   0  0  0  0  0  0  0  0  0  0  0  0
   36.4640   27.4180   43.6760 C   0  0  0  0  0  0  0  0  0  0  0  0
   35.6850   27.8760   41.6170 H   0  0  0  0  0  0  0  0  0  0  0  0
   36.8560   25.7800   42.1800 H   0  0  0  0  0  0  0  0  0  0  0  0
   38.3830   26.7110   42.6480 H   0  0  0  0  0  0  0  0  0  0  0  0
   35.5050   26.9040   43.9640 H   0  0  0  0  0  0  0  0  0  0  0  0
   37.0930   27.7940   44.5030 H   0  0  0  0  0  0  0  0  0  0  0  0
   37.3620   32.2430   40.0170 C   0  0  0  0  0  0  0  0  0  0  0  0
   36.3180   32.2880   39.7370 H   0  0  0  0  0  0  0  0  0  0  0  0
   38.2030   33.0460   39.5360 O   0  0  0  0  0  0  0  0  0  0  0  0
  1  2  1  0  0  0  0
  1  7  1  0  0  0  0
  2  8  1  0  0  0  0
  3  9  1  0  0  0  0
  3  2  2  0  0  0  0
  4  3  1  0  0  0  0
  5  4  2  0  0  0  0
  5  6  1  0  0  0  0
  6  1  2  0  0  0  0
  9 10  1  0  0  0  0
  9 11  1  0  0  0  0
 10 14  1  0  0  0  0
 10 11  1  0  0  0  0
 11 15  1  0  0  0  0
 11 16  1  0  0  0  0
 12  9  1  0  0  0  0
 13 10  1  0  0  0  0
 17  5  1  0  0  0  0
 18 17  1  0  0  0  0
 19 17  2  0  0  0  0
M  END
>  <minimizedAffinity>
-3.63720727

$$$$

 OpenBabel03252505163D

 19 20  0  0  0  0  0  0  0  0999 V2000
   39.7870   25.5820   43.4040 C   0  0  0  0  0  0  0  0  0  0  0  0
   39.5040   26.9290   43.6800 C   0  0  0  0  0  0  0  0  0  0  0  0
   38.3460   27.4270   43.0900 C   0  0  0  0  0  0  0  0  0  0  0  0
   37.5730   26.6070   42.3020 N   0  0  0  0  0  0  0  0  0  0  0  0
   37.8960   25.3110   42.0700 C   0  0  0  0  0  0  0  0  0  0  0  0
   39.0070   24.8030   42.6260 N   0  0  0  0  0  0  0  0  0  0  0  0
   40.6950   25.1560   43.8550 H   0  0  0  0  0  0  0  0  0  0  0  0
   40.1300   27.5390   44.3000 H   0  0  0  0  0  0  0  0  0  0  0  0
   37.9230   28.8520   43.3270 C   0  0  0  0  0  0  0  0  0  0  0  0
   38.8670   29.8510   42.7040 C   0  0  0  0  0  0  0  0  0  0  0  0
   37.4260   29.6150   42.1880 C   0  0  0  0  0  0  0  0  0  0  0  0
   37.6310   29.0980   44.3680 H   0  0  0  0  0  0  0  0  0  0  0  0
   39.0220   30.7990   43.2480 H   0  0  0  0  0  0  0  0  0  0  0  0
   39.7120   29.5330   42.0910 H   0  0  0  0  0  0  0  0  0  0  0  0
   36.6890   30.4340   42.4140 H   0  0  0  0  0  0  0  0  0  0  0  0
   37.4080   29.2000   41.1640 H   0  0  0  0  0  0  0  0  0  0  0  0
   37.0330   24.4940   41.2260 C   0  0  0  0  0  0  0  0  0  0  0  0
   36.1630   24.9350   40.7570 H   0  0  0  0  0  0  0  0  0  0  0  0
   37.3240   23.2820   41.0580 O   0  0  0  0  0  0  0  0  0  0  0  0
  1  2  1  0  0  0  0
  1  7  1  0  0  0  0
  2  8  1  0  0  0  0
  3  9  1  0  0  0  0
  3  2  2  0  0  0  0
  4  3  1  0  0  0  0
  5  4  2  0  0  0  0
  5  6  1  0  0  0  0
  6  1  2  0  0  0  0
  9 12  1  0  0  0  0
 10 13  1  0  0  0  0
 10  9  1  0  0  0  0
 11 15  1  0  0  0  0
 11 10  1  0  0  0  0
 11  9  1  0  0  0  0
 14 10  1  0  0  0  0
 16 11  1  0  0  0  0
 17  5  1  0  0  0  0
 18 17  1  0  0  0  0
 19 17  2  0  0  0  0
M  END
>  <minimizedAffinity>
-3.49448538

$$$$

 OpenBabel03252505163D

 19 20  0  0  0  0  0  0  0  0999 V2000
   38.1480   28.2860   43.2320 C   0  0  0  0  0  0  0  0  0  0  0  0
   37.5050   29.3570   42.5920 C   0  0  0  0  0  0  0  0  0  0  0  0
   36.7180   29.0120   41.4980 C   0  0  0  0  0  0  0  0  0  0  0  0
   36.6160   27.6950   41.1180 N   0  0  0  0  0  0  0  0  0  0  0  0
   37.2600   26.7000   41.7750 C   0  0  0  0  0  0  0  0  0  0  0  0
   38.0270   27.0030   42.8350 N   0  0  0  0  0  0  0  0  0  0  0  0
   38.7780   28.5240   44.1010 H   0  0  0  0  0  0  0  0  0  0  0  0
   37.6080   30.3740   42.9160 H   0  0  0  0  0  0  0  0  0  0  0  0
   35.9600   30.0690   40.7400 C   0  0  0  0  0  0  0  0  0  0  0  0
   36.7220   31.3680   40.6340 C   0  0  0  0  0  0  0  0  0  0  0  0
   36.4500   30.4470   39.4200 C   0  0  0  0  0  0  0  0  0  0  0  0
   34.8970   30.1940   41.0260 H   0  0  0  0  0  0  0  0  0  0  0  0
   36.1290   32.2990   40.6600 H   0  0  0  0  0  0  0  0  0  0  0  0
   37.7400   31.4650   41.0130 H   0  0  0  0  0  0  0  0  0  0  0  0
   35.6840   30.8230   38.6870 H   0  0  0  0  0  0  0  0  0  0  0  0
   37.3790   30.0260   38.9940 H   0  0  0  0  0  0  0  0  0  0  0  0
   37.1090   25.3220   41.3230 C   0  0  0  0  0  0  0  0  0  0  0  0
   37.2140   25.0850   40.2720 H   0  0  0  0  0  0  0  0  0  0  0  0
   36.8590   24.4310   42.1740 O   0  0  0  0  0  0  0  0  0  0  0  0
  1  7  1  0  0  0  0
  2  8  1  0  0  0  0
  2  1  2  0  0  0  0
  3  2  1  0  0  0  0
  4  3  2  0  0  0  0
  4  5  1  0  0  0  0
  5  6  2  0  0  0  0
  6  1  1  0  0  0  0
  9 12  1  0  0  0  0
  9  3  1  0  0  0  0
 10 13  1  0  0  0  0
 10  9  1  0  0  0  0
 10 14  1  0  0  0  0
 11 10  1  0  0  0  0
 11  9  1  0  0  0  0
 15 11  1  0  0  0  0
 16 11  1  0  0  0  0
 17  5  1  0  0  0  0
 17 19  2  0  0  0  0
 18 17  1  0  0  0  0
M  END
>  <minimizedAffinity>
-3.43691826

$$$$

 OpenBabel03252505163D

 19 20  0  0  0  0  0  0  0  0999 V2000
   35.8620   29.9810   40.1380 C   0  0  0  0  0  0  0  0  0  0  0  0
   35.7920   28.9150   41.0490 C   0  0  0  0  0  0  0  0  0  0  0  0
   36.8170   28.8640   41.9880 C   0  0  0  0  0  0  0  0  0  0  0  0
   37.8030   29.8220   41.9750 N   0  0  0  0  0  0  0  0  0  0  0  0
   37.8200   30.8320   41.0700 C   0  0  0  0  0  0  0  0  0  0  0  0
   36.8440   30.9060   40.1520 N   0  0  0  0  0  0  0  0  0  0  0  0
   35.0660   30.0500   39.3820 H   0  0  0  0  0  0  0  0  0  0  0  0
   35.0060   28.1860   41.0290 H   0  0  0  0  0  0  0  0  0  0  0  0
   36.8410   27.7810   43.0320 C   0  0  0  0  0  0  0  0  0  0  0  0
   37.4770   26.5060   42.5330 C   0  0  0  0  0  0  0  0  0  0  0  0
   38.1310   27.4130   43.6040 C   0  0  0  0  0  0  0  0  0  0  0  0
   35.8920   27.6240   43.5820 H   0  0  0  0  0  0  0  0  0  0  0  0
   37.0590   25.5570   42.9120 H   0  0  0  0  0  0  0  0  0  0  0  0
   37.9270   26.4430   41.5410 H   0  0  0  0  0  0  0  0  0  0  0  0
   38.1190   27.0100   44.6540 H   0  0  0  0  0  0  0  0  0  0  0  0
   39.0790   27.8610   43.2560 H   0  0  0  0  0  0  0  0  0  0  0  0
   38.8940   31.8170   41.1100 C   0  0  0  0  0  0  0  0  0  0  0  0
   38.9810   32.4860   41.9560 H   0  0  0  0  0  0  0  0  0  0  0  0
   39.7060   31.8660   40.1510 O   0  0  0  0  0  0  0  0  0  0  0  0
  1  6  2  0  0  0  0
  1  2  1  0  0  0  0
  2  3  2  0  0  0  0
  3  9  1  0  0  0  0
  4  3  1  0  0  0  0
  5 17  1  0  0  0  0
  5  4  2  0  0  0  0
  6  5  1  0  0  0  0
  7  1  1  0  0  0  0
  8  2  1  0  0  0  0
  9 12  1  0  0  0  0
  9 11  1  0  0  0  0
 10 13  1  0  0  0  0
 10  9  1  0  0  0  0
 10 11  1  0  0  0  0
 11 15  1  0  0  0  0
 14 10  1  0  0  0  0
 16 11  1  0  0  0  0
 17 18  1  0  0  0  0
 19 17  2  0  0  0  0
M  END
>  <minimizedAffinity>
-3.42993212

$$$$

 OpenBabel03252505163D

 19 20  0  0  0  0  0  0  0  0999 V2000
   39.7130   29.7810   41.9260 C   0  0  0  0  0  0  0  0  0  0  0  0
   38.9840   30.6510   41.1000 C   0  0  0  0  0  0  0  0  0  0  0  0
   37.6010   30.5270   41.1780 C   0  0  0  0  0  0  0  0  0  0  0  0
   37.0450   29.5960   42.0250 N   0  0  0  0  0  0  0  0  0  0  0  0
   37.8000   28.7810   42.8000 C   0  0  0  0  0  0  0  0  0  0  0  0
   39.1380   28.8790   42.7460 N   0  0  0  0  0  0  0  0  0  0  0  0
   40.8110   29.8540   41.8890 H   0  0  0  0  0  0  0  0  0  0  0  0
   39.4520   31.3650   40.4520 H   0  0  0  0  0  0  0  0  0  0  0  0
   36.7080   31.4180   40.3580 C   0  0  0  0  0  0  0  0  0  0  0  0
   37.4170   32.6550   39.8620 C   0  0  0  0  0  0  0  0  0  0  0  0
   36.9630   31.5090   38.9260 C   0  0  0  0  0  0  0  0  0  0  0  0
   35.7050   31.6160   40.7860 H   0  0  0  0  0  0  0  0  0  0  0  0
   36.8190   33.5820   39.7970 H   0  0  0  0  0  0  0  0  0  0  0  0
   38.4820   32.8110   40.0380 H   0  0  0  0  0  0  0  0  0  0  0  0
   36.0790   31.7400   38.2700 H   0  0  0  0  0  0  0  0  0  0  0  0
   37.8160   30.9950   38.4450 H   0  0  0  0  0  0  0  0  0  0  0  0
   37.1490   27.8160   43.6780 C   0  0  0  0  0  0  0  0  0  0  0  0
   37.4090   27.7810   44.7280 H   0  0  0  0  0  0  0  0  0  0  0  0
   36.2890   27.0390   43.1900 O   0  0  0  0  0  0  0  0  0  0  0  0
  1  6  1  0  0  0  0
  2  3  1  0  0  0  0
  2  1  2  0  0  0  0
  3  4  2  0  0  0  0
  4  5  1  0  0  0  0
  5 17  1  0  0  0  0
  6  5  2  0  0  0  0
  7  1  1  0  0  0  0
  8  2  1  0  0  0  0
  9 12  1  0  0  0  0
  9  3  1  0  0  0  0
 10 14  1  0  0  0  0
 10  9  1  0  0  0  0
 11 10  1  0  0  0  0
 11  9  1  0  0  0  0
 13 10  1  0  0  0  0
 15 11  1  0  0  0  0
 16 11  1  0  0  0  0
 17 18  1  0  0  0  0
 19 17  2  0  0  0  0
M  END
>  <minimizedAffinity>
-3.3743012

$$$$

 OpenBabel03252505163D

 19 20  0  0  0  0  0  0  0  0999 V2000
   35.7090   29.4500   40.5430 C   0  0  0  0  0  0  0  0  0  0  0  0
   36.2680   30.5310   39.8430 C   0  0  0  0  0  0  0  0  0  0  0  0
   37.4510   31.0360   40.3710 C   0  0  0  0  0  0  0  0  0  0  0  0
   37.9890   30.4720   41.5040 N   0  0  0  0  0  0  0  0  0  0  0  0
   37.4050   29.4260   42.1390 C   0  0  0  0  0  0  0  0  0  0  0  0
   36.2620   28.9180   41.6520 N   0  0  0  0  0  0  0  0  0  0  0  0
   34.7720   29.0270   40.1510 H   0  0  0  0  0  0  0  0  0  0  0  0
   35.8200   30.9460   38.9620 H   0  0  0  0  0  0  0  0  0  0  0  0
   38.1590   32.1820   39.6990 C   0  0  0  0  0  0  0  0  0  0  0  0
   37.2550   33.3680   39.4670 C   0  0  0  0  0  0  0  0  0  0  0  0
   38.4190   33.3800   40.4870 C   0  0  0  0  0  0  0  0  0  0  0  0
   38.7810   31.9130   38.8230 H   0  0  0  0  0  0  0  0  0  0  0  0
   37.4280   33.9560   38.5480 H   0  0  0  0  0  0  0  0  0  0  0  0
   36.2260   33.3820   39.8300 H   0  0  0  0  0  0  0  0  0  0  0  0
   39.3160   33.9920   40.1930 H   0  0  0  0  0  0  0  0  0  0  0  0
   38.0650   33.4890   41.5290 H   0  0  0  0  0  0  0  0  0  0  0  0
   38.0280   28.8720   43.3350 C   0  0  0  0  0  0  0  0  0  0  0  0
   38.2150   29.5080   44.1900 H   0  0  0  0  0  0  0  0  0  0  0  0
   38.3350   27.6520   43.3470 O   0  0  0  0  0  0  0  0  0  0  0  0
  1  6  1  0  0  0  0
  2  3  1  0  0  0  0
  2  1  2  0  0  0  0
  3  4  2  0  0  0  0
  4  5  1  0  0  0  0
  5 17  1  0  0  0  0
  6  5  2  0  0  0  0
  7  1  1  0  0  0  0
  8  2  1  0  0  0  0
  9  3  1  0  0  0  0
  9 11  1  0  0  0  0
 10  9  1  0  0  0  0
 10 14  1  0  0  0  0
 10 11  1  0  0  0  0
 11 16  1  0  0  0  0
 12  9  1  0  0  0  0
 13 10  1  0  0  0  0
 15 11  1  0  0  0  0
 17 19  2  0  0  0  0
 17 18  1  0  0  0  0
M  END
>  <minimizedAffinity>
-3.31928349

$$$$

 OpenBabel03252505163D

 19 20  0  0  0  0  0  0  0  0999 V2000
   36.9050   27.8280   39.9660 C   0  0  0  0  0  0  0  0  0  0  0  0
   36.7680   26.4430   40.1480 C   0  0  0  0  0  0  0  0  0  0  0  0
   37.0690   25.9760   41.4240 C   0  0  0  0  0  0  0  0  0  0  0  0
   37.4690   26.8610   42.3980 N   0  0  0  0  0  0  0  0  0  0  0  0
   37.5830   28.1920   42.1640 C   0  0  0  0  0  0  0  0  0  0  0  0
   37.2990   28.6700   40.9430 N   0  0  0  0  0  0  0  0  0  0  0  0
   36.6750   28.2290   38.9680 H   0  0  0  0  0  0  0  0  0  0  0  0
   36.4540   25.7820   39.3640 H   0  0  0  0  0  0  0  0  0  0  0  0
   36.9400   24.5130   41.7510 C   0  0  0  0  0  0  0  0  0  0  0  0
   36.5160   23.6860   40.5620 C   0  0  0  0  0  0  0  0  0  0  0  0
   37.9270   23.5980   41.1910 C   0  0  0  0  0  0  0  0  0  0  0  0
   36.3880   24.2780   42.6820 H   0  0  0  0  0  0  0  0  0  0  0  0
   35.8570   22.8230   40.7630 H   0  0  0  0  0  0  0  0  0  0  0  0
   36.3990   24.1280   39.5710 H   0  0  0  0  0  0  0  0  0  0  0  0
   38.1400   22.6640   41.7790 H   0  0  0  0  0  0  0  0  0  0  0  0
   38.7190   23.9380   40.4980 H   0  0  0  0  0  0  0  0  0  0  0  0
   38.0100   29.0770   43.2410 C   0  0  0  0  0  0  0  0  0  0  0  0
   37.4780   29.0770   44.1830 H   0  0  0  0  0  0  0  0  0  0  0  0
   39.0000   29.8290   43.0480 O   0  0  0  0  0  0  0  0  0  0  0  0
  1  2  2  0  0  0  0
  1  6  1  0  0  0  0
  2  3  1  0  0  0  0
  3  9  1  0  0  0  0
  3  4  2  0  0  0  0
  5  4  1  0  0  0  0
  5 17  1  0  0  0  0
  6  5  2  0  0  0  0
  7  1  1  0  0  0  0
  8  2  1  0  0  0  0
  9 12  1  0  0  0  0
 10 13  1  0  0  0  0
 10 11  1  0  0  0  0
 10  9  1  0  0  0  0
 11  9  1  0  0  0  0
 11 15  1  0  0  0  0
 14 10  1  0  0  0  0
 16 11  1  0  0  0  0
 17 18  1  0  0  0  0
 19 17  2  0  0  0  0
M  END
>  <minimizedAffinity>
-3.24435782

$$$$
