
 OpenBabel03242523063D

 39 42  0  0  1  0  0  0  0  0999 V2000
   45.1200   36.0130   43.5070 C   0  0  0  0  0  0  0  0  0  0  0  0
   45.9180   34.8970   43.2610 C   0  0  0  0  0  0  0  0  0  0  0  0
   46.0400   33.9630   44.2550 C   0  0  0  0  0  0  0  0  0  0  0  0
   45.3780   34.1690   45.4370 N   0  0  0  0  0  0  0  0  0  0  0  0
   44.6160   35.2560   45.6470 C   0  0  0  0  0  0  0  0  0  0  0  0
   44.4920   36.1630   44.6910 N   0  0  0  0  0  0  0  0  0  0  0  0
   45.0080   36.7720   42.7250 H   0  0  0  0  0  0  0  0  0  0  0  0
   44.0680   35.4810   46.5520 H   0  0  0  0  0  0  0  0  0  0  0  0
   46.5570   34.8050   42.0270 N   0  0  0  0  0  0  0  0  0  0  0  0
   47.8710   35.2660   41.8090 C   0  0  0  0  0  0  0  0  0  0  0  0
   48.4430   34.9390   40.4520 C   0  0  0  0  0  0  0  0  0  0  0  0
   48.1450   33.6640   39.9570 N   0  0  0  0  0  0  0  0  0  0  0  0
   46.8420   33.2170   40.1650 C   0  0  0  0  0  0  0  0  0  0  0  0
   45.9730   34.2510   40.8510 C   0  0  0  0  0  0  0  0  0  0  0  0
   48.6340   34.9700   42.5630 H   0  0  0  0  0  0  0  0  0  0  0  0
   47.8320   36.3900   41.8740 H   0  0  0  0  0  0  0  0  0  0  0  0
   48.0390   35.7090   39.7330 H   0  0  0  0  0  0  0  0  0  0  0  0
   49.5370   35.1410   40.4680 H   0  0  0  0  0  0  0  0  0  0  0  0
   48.5110   33.5670   39.0080 H   0  0  0  0  0  0  0  0  0  0  0  0
   46.3610   33.0770   39.1520 H   0  0  0  0  0  0  0  0  0  0  0  0
   46.7550   32.2180   40.6390 H   0  0  0  0  0  0  0  0  0  0  0  0
   45.6000   35.0180   40.1490 H   0  0  0  0  0  0  0  0  0  0  0  0
   45.0490   33.7050   41.1870 H   0  0  0  0  0  0  0  0  0  0  0  0
   46.4740   32.0220   45.5150 C   0  0  0  0  0  0  0  0  0  0  0  0
   46.7490   32.7510   44.3350 C   0  0  0  0  0  0  0  0  0  0  0  0
   47.7030   32.0990   43.5740 C   0  0  0  0  0  0  0  0  0  0  0  0
   48.3180   30.9250   43.8840 C   0  0  0  0  0  0  0  0  0  0  0  0
   47.9930   30.2830   45.0610 C   0  0  0  0  0  0  0  0  0  0  0  0
   47.0590   30.8320   45.8920 C   0  0  0  0  0  0  0  0  0  0  0  0
   48.7840   29.1490   45.0760 O   0  0  0  0  0  0  0  0  0  0  0  0
   49.4950   29.0330   43.8690 C   0  0  1  0  0  0  0  0  0  0  0  0
   49.2740   30.2450   43.1440 O   0  0  0  0  0  0  0  0  0  0  0  0
   45.7620   32.2440   46.3360 H   0  0  0  0  0  0  0  0  0  0  0  0
   47.9100   32.6340   42.7040 H   0  0  0  0  0  0  0  0  0  0  0  0
   46.8810   30.2550   46.7710 H   0  0  0  0  0  0  0  0  0  0  0  0
   48.9660   28.2050   43.3110 H   0  0  0  0  0  0  0  0  0  0  0  0
   50.9210   28.7350   44.0490 C   0  0  0  0  0  0  0  0  0  0  0  0
   51.1880   27.6860   44.0950 H   0  0  0  0  0  0  0  0  0  0  0  0
   51.5770   29.7830   44.1190 O   0  0  0  0  0  0  0  0  0  0  0  0
  1  6  1  0  0  0  0
  2  1  2  0  0  0  0
  2  3  1  0  0  0  0
  3 25  1  0  0  0  0
  3  4  2  0  0  0  0
  4  5  1  0  0  0  0
  5  8  1  0  0  0  0
  6  5  2  0  0  0  0
  7  1  1  0  0  0  0
  9  2  1  0  0  0  0
 10 16  1  0  0  0  0
 10  9  1  0  0  0  0
 10 15  1  0  0  0  0
 11 18  1  0  0  0  0
 11 10  1  0  0  0  0
 12 13  1  0  0  0  0
 12 11  1  0  0  0  0
 13 21  1  0  0  0  0
 13 14  1  0  0  0  0
 14 23  1  0  0  0  0
 14  9  1  0  0  0  0
 17 11  1  0  0  0  0
 19 12  1  0  0  0  0
 20 13  1  0  0  0  0
 22 14  1  0  0  0  0
 24 29  1  0  0  0  0
 24 33  1  0  0  0  0
 25 24  2  0  0  0  0
 26 27  2  0  0  0  0
 26 25  1  0  0  0  0
 27 28  1  0  0  0  0
 28 30  1  0  0  0  0
 28 29  2  0  0  0  0
 29 35  1  0  0  0  0
 31 36  1  6  0  0  0
 31 37  1  0  0  0  0
 31 30  1  0  0  0  0
 32 31  1  0  0  0  0
 32 27  1  0  0  0  0
 34 26  1  0  0  0  0
 37 38  1  0  0  0  0
 37 39  2  0  0  0  0
M  END
>  <minimizedAffinity>
-4.98407173

>  <minimizedRMSD>
0.0391796418

$$$$
