
 OpenBabel03252508583D

 33 34  0  0  1  0  0  0  0  0999 V2000
   48.7280   34.0010   41.3770 N   0  0  0  0  0  0  0  0  0  0  0  0
   49.8480   34.1780   42.2000 C   0  0  0  0  0  0  0  0  0  0  0  0
   50.7280   32.9880   42.4160 C   0  0  0  0  0  0  0  0  0  0  0  0
   50.8000   32.0360   41.2490 C   0  0  0  0  0  0  0  0  0  0  0  0
   50.0070   32.5160   40.0770 C   0  0  0  0  0  0  0  0  0  0  0  0
   48.5950   32.8130   40.6420 C   0  0  2  0  0  0  0  0  0  0  0  0
   49.5350   34.5670   43.2040 H   0  0  0  0  0  0  0  0  0  0  0  0
   50.4790   34.9930   41.7620 H   0  0  0  0  0  0  0  0  0  0  0  0
   50.2710   32.4110   43.2610 H   0  0  0  0  0  0  0  0  0  0  0  0
   51.7090   33.3190   42.7800 H   0  0  0  0  0  0  0  0  0  0  0  0
   50.4990   31.0180   41.5030 H   0  0  0  0  0  0  0  0  0  0  0  0
   51.8760   31.9960   40.9470 H   0  0  0  0  0  0  0  0  0  0  0  0
   49.8980   31.6910   39.3460 H   0  0  0  0  0  0  0  0  0  0  0  0
   50.4070   33.4490   39.6470 H   0  0  0  0  0  0  0  0  0  0  0  0
   48.3110   31.8960   41.1460 H   0  0  0  0  0  0  0  0  0  0  0  0
   47.5080   34.6300   41.8060 C   0  0  0  0  0  0  0  0  0  0  0  0
   47.0020   35.1440   40.9750 H   0  0  0  0  0  0  0  0  0  0  0  0
   47.7650   35.3900   42.5680 H   0  0  0  0  0  0  0  0  0  0  0  0
   46.5910   33.6390   42.4500 C   0  0  0  0  0  0  0  0  0  0  0  0
   45.8630   33.2820   41.7260 H   0  0  0  0  0  0  0  0  0  0  0  0
   47.0890   32.7530   42.8910 H   0  0  0  0  0  0  0  0  0  0  0  0
   44.5840   36.0680   44.4950 C   0  0  0  0  0  0  0  0  0  0  0  0
   45.2570   35.4860   43.4020 C   0  0  0  0  0  0  0  0  0  0  0  0
   45.8820   34.2700   43.5840 C   0  0  0  0  0  0  0  0  0  0  0  0
   45.8220   33.6950   44.7940 N   0  0  0  0  0  0  0  0  0  0  0  0
   45.1750   34.2600   45.8350 C   0  0  0  0  0  0  0  0  0  0  0  0
   44.5500   35.4530   45.6930 N   0  0  0  0  0  0  0  0  0  0  0  0
   44.1110   37.0210   44.2950 H   0  0  0  0  0  0  0  0  0  0  0  0
   45.2790   35.9880   42.4430 H   0  0  0  0  0  0  0  0  0  0  0  0
   45.1340   33.7860   46.8050 H   0  0  0  0  0  0  0  0  0  0  0  0
   47.7780   33.0000   39.4050 C   0  0  0  0  0  0  0  0  0  0  0  0
   46.9900   32.3050   39.1410 H   0  0  0  0  0  0  0  0  0  0  0  0
   47.5440   33.6430   38.4280 O   0  0  0  0  0  0  0  0  0  0  0  0
  1 16  1  0  0  0  0
  1  2  1  0  0  0  0
  2  3  1  0  0  0  0
  2  7  1  0  0  0  0
  3 10  1  0  0  0  0
  3  9  1  0  0  0  0
  4 11  1  0  0  0  0
  4  3  1  0  0  0  0
  5  6  1  0  0  0  0
  5  4  1  0  0  0  0
  6 15  1  1  0  0  0
  6  1  1  0  0  0  0
  8  2  1  0  0  0  0
 12  4  1  0  0  0  0
 13  5  1  0  0  0  0
 14  5  1  0  0  0  0
 16 19  1  0  0  0  0
 16 18  1  0  0  0  0
 17 16  1  0  0  0  0
 19 21  1  0  0  0  0
 19 24  1  0  0  0  0
 20 19  1  0  0  0  0
 22 27  1  0  0  0  0
 23 24  1  0  0  0  0
 23 22  2  0  0  0  0
 24 25  2  0  0  0  0
 25 26  1  0  0  0  0
 26 30  1  0  0  0  0
 27 26  2  0  0  0  0
 28 22  1  0  0  0  0
 29 23  1  0  0  0  0
 31  6  1  0  0  0  0
 32 31  1  0  0  0  0
 33 31  2  0  0  0  0
M  END
>  <minimizedAffinity>
-3.95215321

>  <minimizedRMSD>
1.71788514

$$$$
