
 OpenBabel03252505243D

 37 39  0  0  1  0  0  0  0  0999 V2000
   46.8080   33.4580   44.6180 F   0  0  0  0  0  0  0  0  0  0  0  0
   47.4550   32.2640   44.4070 C   0  0  0  0  0  0  0  0  0  0  0  0
   48.2580   32.1590   43.3060 C   0  0  0  0  0  0  0  0  0  0  0  0
   48.9040   30.9600   43.1010 C   0  0  0  0  0  0  0  0  0  0  0  0
   48.7190   29.9240   43.9980 C   0  0  0  0  0  0  0  0  0  0  0  0
   47.9130   30.0380   45.0980 C   0  0  0  0  0  0  0  0  0  0  0  0
   47.2590   31.2630   45.2990 C   0  0  0  0  0  0  0  0  0  0  0  0
   49.5570   30.8050   42.2490 H   0  0  0  0  0  0  0  0  0  0  0  0
   49.2180   28.9670   43.8570 H   0  0  0  0  0  0  0  0  0  0  0  0
   47.7790   29.2160   45.7900 H   0  0  0  0  0  0  0  0  0  0  0  0
   46.4340   31.3280   46.4540 N   0  0  0  0  0  0  0  0  0  0  0  0
   45.3810   30.4630   46.9100 C   0  0  0  0  0  0  0  0  0  0  0  0
   45.7460   30.2350   48.3840 C   0  0  0  0  0  0  0  0  0  0  0  0
   46.6290   31.3990   48.7220 C   0  0  0  0  0  0  0  0  0  0  0  0
   46.4130   32.3040   47.5270 C   0  0  2  0  0  0  0  0  0  0  0  0
   45.5060   29.4750   46.4030 H   0  0  0  0  0  0  0  0  0  0  0  0
   44.3650   30.8830   46.7990 H   0  0  0  0  0  0  0  0  0  0  0  0
   46.2060   29.2510   48.5440 H   0  0  0  0  0  0  0  0  0  0  0  0
   44.8000   30.3770   48.9690 H   0  0  0  0  0  0  0  0  0  0  0  0
   46.3930   31.8850   49.6890 H   0  0  0  0  0  0  0  0  0  0  0  0
   47.6940   31.1100   48.7340 H   0  0  0  0  0  0  0  0  0  0  0  0
   47.3040   32.9660   47.4500 H   0  0  0  0  0  0  0  0  0  0  0  0
   45.1680   33.1200   47.5800 C   0  0  0  0  0  0  0  0  0  0  0  0
   44.8630   33.3960   46.5660 H   0  0  0  0  0  0  0  0  0  0  0  0
   44.3360   32.6100   48.0950 H   0  0  0  0  0  0  0  0  0  0  0  0
   45.4040   34.0670   48.1180 H   0  0  0  0  0  0  0  0  0  0  0  0
   49.1260   35.4520   41.9730 C   0  0  0  0  0  0  0  0  0  0  0  0
   48.7220   35.3860   40.6330 C   0  0  0  0  0  0  0  0  0  0  0  0
   48.1550   34.1790   40.2390 C   0  0  0  0  0  0  0  0  0  0  0  0
   48.0300   33.1740   41.1400 N   0  0  0  0  0  0  0  0  0  0  0  0
   48.4210   33.2750   42.3930 C   0  0  0  0  0  0  0  0  0  0  0  0
   48.9760   34.4130   42.8330 N   0  0  0  0  0  0  0  0  0  0  0  0
   49.5810   36.3820   42.3390 H   0  0  0  0  0  0  0  0  0  0  0  0
   48.8300   36.1870   39.9410 H   0  0  0  0  0  0  0  0  0  0  0  0
   47.7030   34.0100   38.8620 C   0  0  0  0  0  0  0  0  0  0  0  0
   46.8370   33.3950   38.6670 H   0  0  0  0  0  0  0  0  0  0  0  0
   48.3140   34.5750   37.9250 O   0  0  0  0  0  0  0  0  0  0  0  0
  2  1  1  0  0  0  0
  2  7  1  0  0  0  0
  3  2  2  0  0  0  0
  4  3  1  0  0  0  0
  4  5  2  0  0  0  0
  5  6  1  0  0  0  0
  6  7  2  0  0  0  0
  6 10  1  0  0  0  0
  7 11  1  0  0  0  0
  8  4  1  0  0  0  0
  9  5  1  0  0  0  0
 11 12  1  0  0  0  0
 11 15  1  0  0  0  0
 12 13  1  0  0  0  0
 13 18  1  0  0  0  0
 13 14  1  0  0  0  0
 13 19  1  0  0  0  0
 14 21  1  0  0  0  0
 14 20  1  0  0  0  0
 15 22  1  6  0  0  0
 15 23  1  0  0  0  0
 15 14  1  0  0  0  0
 16 12  1  0  0  0  0
 17 12  1  0  0  0  0
 23 25  1  0  0  0  0
 23 26  1  0  0  0  0
 24 23  1  0  0  0  0
 27 33  1  0  0  0  0
 27 32  1  0  0  0  0
 28 27  2  0  0  0  0
 29 28  1  0  0  0  0
 29 30  2  0  0  0  0
 30 31  1  0  0  0  0
 31 32  2  0  0  0  0
 31  3  1  0  0  0  0
 34 28  1  0  0  0  0
 35 29  1  0  0  0  0
 36 35  1  0  0  0  0
 37 35  2  0  0  0  0
M  END
>  <minimizedAffinity>
-5.0183754

>  <minimizedRMSD>
0.533514321

$$$$
