
 OpenBabel03252507533D

 32 34  0  0  1  0  0  0  0  0999 V2000
   46.9640   34.9700   42.0950 C   0  0  2  0  0  0  0  0  0  0  0  0
   46.3240   34.1960   40.9690 C   0  0  0  0  0  0  0  0  0  0  0  0
   47.5420   34.1320   40.0270 C   0  0  0  0  0  0  0  0  0  0  0  0
   48.7300   33.9960   40.9410 C   0  0  1  0  0  0  0  0  0  0  0  0
   48.1940   34.0990   42.3330 C   0  0  0  0  0  0  0  0  0  0  0  0
   47.2170   35.9630   41.7320 H   0  0  0  0  0  0  0  0  0  0  0  0
   46.0480   33.1820   41.3400 H   0  0  0  0  0  0  0  0  0  0  0  0
   45.4770   34.7260   40.4970 H   0  0  0  0  0  0  0  0  0  0  0  0
   47.5230   35.0760   39.4590 H   0  0  0  0  0  0  0  0  0  0  0  0
   47.4300   33.2780   39.3260 H   0  0  0  0  0  0  0  0  0  0  0  0
   49.4190   34.8300   40.7740 H   0  0  0  0  0  0  0  0  0  0  0  0
   48.8880   34.5530   43.0570 H   0  0  0  0  0  0  0  0  0  0  0  0
   47.6590   33.2050   42.7110 H   0  0  0  0  0  0  0  0  0  0  0  0
   44.4450   36.0380   44.6970 C   0  0  0  0  0  0  0  0  0  0  0  0
   45.1840   36.0620   43.5090 C   0  0  0  0  0  0  0  0  0  0  0  0
   46.1120   35.0340   43.3120 C   0  0  0  0  0  0  0  0  0  0  0  0
   46.2650   34.0560   44.2710 N   0  0  0  0  0  0  0  0  0  0  0  0
   45.5220   34.0820   45.4050 C   0  0  0  0  0  0  0  0  0  0  0  0
   44.6240   35.0610   45.6150 N   0  0  0  0  0  0  0  0  0  0  0  0
   43.7300   36.8360   44.8430 H   0  0  0  0  0  0  0  0  0  0  0  0
   45.0790   36.8130   42.7550 H   0  0  0  0  0  0  0  0  0  0  0  0
   45.7110   33.2710   46.1010 H   0  0  0  0  0  0  0  0  0  0  0  0
   49.4330   32.6760   40.8500 C   0  0  2  0  0  0  0  0  0  0  0  0
   49.3340   31.7600   41.9610 C   0  0  0  0  0  0  0  0  0  0  0  0
   50.6660   32.3540   41.5300 C   0  0  1  0  0  0  0  0  0  0  0  0
   49.3450   32.2530   39.8290 H   0  0  0  0  0  0  0  0  0  0  0  0
   49.1890   30.6610   41.7030 H   0  0  0  0  0  0  0  0  0  0  0  0
   49.2840   31.8560   43.0310 H   0  0  0  0  0  0  0  0  0  0  0  0
   51.1600   33.1520   42.0770 H   0  0  0  0  0  0  0  0  0  0  0  0
   51.6400   31.3830   40.9390 C   0  0  0  0  0  0  0  0  0  0  0  0
   51.5390   30.2870   41.0280 H   0  0  0  0  0  0  0  0  0  0  0  0
   52.6470   31.6980   40.2970 O   0  0  0  0  0  0  0  0  0  0  0  0
  1  6  1  6  0  0  0
  1  5  1  0  0  0  0
  1 16  1  0  0  0  0
  2  7  1  0  0  0  0
  2  1  1  0  0  0  0
  3  4  1  0  0  0  0
  3  2  1  0  0  0  0
  4 11  1  6  0  0  0
  4  5  1  0  0  0  0
  5 13  1  0  0  0  0
  5 12  1  0  0  0  0
  8  2  1  0  0  0  0
  9  3  1  0  0  0  0
 10  3  1  0  0  0  0
 14 20  1  0  0  0  0
 14 19  1  0  0  0  0
 15 14  2  0  0  0  0
 16 15  1  0  0  0  0
 16 17  2  0  0  0  0
 17 18  1  0  0  0  0
 18 19  2  0  0  0  0
 18 22  1  0  0  0  0
 21 15  1  0  0  0  0
 23 26  1  6  0  0  0
 23  4  1  0  0  0  0
 23 25  1  0  0  0  0
 23 24  1  0  0  0  0
 24 28  1  0  0  0  0
 25 24  1  0  0  0  0
 25 29  1  1  0  0  0
 27 24  1  0  0  0  0
 30 31  1  0  0  0  0
 30 25  1  0  0  0  0
 32 30  2  0  0  0  0
M  END
>  <minimizedAffinity>
-4.75949383

>  <minimizedRMSD>
0.571565211

$$$$
