
     RDKit          3D

 32 34  0  0  0  0  0  0  0  0999 V2000
   46.8990   34.9244   42.1599 C   0  0  2  0  0  0  0  0  0  0  0  0
   46.3776   33.9174   41.1642 C   0  0  0  0  0  0  0  0  0  0  0  0
   47.5841   33.9137   40.2048 C   0  0  0  0  0  0  0  0  0  0  0  0
   48.7863   34.0864   41.0942 C   0  0  1  0  0  0  0  0  0  0  0  0
   48.2508   34.2924   42.4751 C   0  0  0  0  0  0  0  0  0  0  0  0
   44.4184   36.0720   44.7645 C   0  0  0  0  0  0  0  0  0  0  0  0
   45.1493   36.0669   43.5712 C   0  0  0  0  0  0  0  0  0  0  0  0
   46.0572   35.0196   43.3818 C   0  0  0  0  0  0  0  0  0  0  0  0
   46.1976   34.0517   44.3532 N   0  0  0  0  0  0  0  0  0  0  0  0
   45.4637   34.1059   45.4913 C   0  0  0  0  0  0  0  0  0  0  0  0
   44.5847   35.1044   45.6939 N   0  0  0  0  0  0  0  0  0  0  0  0
   49.6854   32.8895   41.1577 C   0  0  2  0  0  0  0  0  0  0  0  0
   49.6009   32.0186   42.3056 C   0  0  0  0  0  0  0  0  0  0  0  0
   50.8681   32.7940   41.9817 C   0  0  1  0  0  0  0  0  0  0  0  0
   46.9913   35.8865   41.6619 H   0  0  0  0  0  0  0  0  0  0  0  0
   46.2672   32.9324   41.6732 H   0  0  0  0  0  0  0  0  0  0  0  0
   45.4556   34.2419   40.6507 H   0  0  0  0  0  0  0  0  0  0  0  0
   47.4139   34.7589   39.5180 H   0  0  0  0  0  0  0  0  0  0  0  0
   47.6013   32.9673   39.6264 H   0  0  0  0  0  0  0  0  0  0  0  0
   49.3346   34.9857   40.7997 H   0  0  0  0  0  0  0  0  0  0  0  0
   48.8719   34.9402   43.1129 H   0  0  0  0  0  0  0  0  0  0  0  0
   47.8649   33.3859   42.9833 H   0  0  0  0  0  0  0  0  0  0  0  0
   43.7177   36.8848   44.9044 H   0  0  0  0  0  0  0  0  0  0  0  0
   45.0523   36.8096   42.8082 H   0  0  0  0  0  0  0  0  0  0  0  0
   45.6433   33.3009   46.1971 H   0  0  0  0  0  0  0  0  0  0  0  0
   49.7784   32.4133   40.1614 H   0  0  0  0  0  0  0  0  0  0  0  0
   49.6528   30.9014   42.1015 H   0  0  0  0  0  0  0  0  0  0  0  0
   49.4175   32.1527   43.3566 H   0  0  0  0  0  0  0  0  0  0  0  0
   51.1715   33.6827   42.5280 H   0  0  0  0  0  0  0  0  0  0  0  0
   52.0383   31.9624   41.5557 C   0  0  0  0  0  0  0  0  0  0  0  0
   52.4108   31.9215   40.5179 H   0  0  0  0  0  0  0  0  0  0  0  0
   52.7018   31.2438   42.3096 O   0  0  0  0  0  0  0  0  0  0  0  0
  1  5  1  0
  1  8  1  0
  2  1  1  0
  3  4  1  0
  3  2  1  0
  4 12  1  0
  4  5  1  0
  6 11  2  0
  7  6  1  0
  8  7  2  0
  8  9  1  0
  9 10  2  0
 10 11  1  0
 12 14  1  0
 12 13  1  0
 14 13  1  0
  1 15  1  6
  2 16  1  0
  2 17  1  0
  3 18  1  0
  3 19  1  0
  4 20  1  6
  5 21  1  0
  5 22  1  0
  6 23  1  0
  7 24  1  0
 10 25  1  0
 12 26  1  6
 13 27  1  0
 13 28  1  0
 14 29  1  1
 30 31  1  0
 30 32  2  0
 14 30  1  0
M  ISO  8  15  13  16  13  17  13  18  13  19  13  20  13  21  13  22  13
M  ISO  8  23  14  24  14  25  14  26  13  27  13  28  13  29  13  31   6
M  END
>  <DihAtoms>  (1) 
11,13,29,30

>  <DihDeg>  (1) 
145.78871751239586

$$$$
