
 OpenBabel03252502433D

 25 26  0  0  1  0  0  0  0  0999 V2000
   46.8810   34.5230   41.2400 C   0  0  0  0  0  0  0  0  0  0  0  0
   46.4020   33.8340   40.5200 H   0  0  0  0  0  0  0  0  0  0  0  0
   46.2990   35.4770   41.3460 H   0  0  0  0  0  0  0  0  0  0  0  0
   48.2300   34.9640   40.7490 C   0  0  1  0  0  0  0  0  0  0  0  0
   49.0020   35.9000   41.6320 C   0  0  0  0  0  0  0  0  0  0  0  0
   49.4280   34.5230   41.4180 C   0  0  1  0  0  0  0  0  0  0  0  0
   48.1450   35.1900   39.6430 H   0  0  0  0  0  0  0  0  0  0  0  0
   49.4260   36.7740   41.0530 H   0  0  0  0  0  0  0  0  0  0  0  0
   48.5820   36.3380   42.5530 H   0  0  0  0  0  0  0  0  0  0  0  0
   50.2720   34.5340   40.6400 H   0  0  0  0  0  0  0  0  0  0  0  0
   49.8600   33.4490   42.2290 C   0  0  0  0  0  0  0  0  0  0  0  0
   49.7770   33.1220   43.2420 H   0  0  0  0  0  0  0  0  0  0  0  0
   50.3730   32.4280   42.6290 O   0  0  0  0  0  0  0  0  0  0  0  0
   47.1510   33.8870   42.5640 C   0  0  0  0  0  0  0  0  0  0  0  0
   47.2200   32.8270   42.6220 H   0  0  0  0  0  0  0  0  0  0  0  0
   48.0140   34.4850   42.9970 H   0  0  0  0  0  0  0  0  0  0  0  0
   44.6520   36.0260   44.3480 C   0  0  0  0  0  0  0  0  0  0  0  0
   45.4900   35.5510   43.3180 C   0  0  0  0  0  0  0  0  0  0  0  0
   46.1940   34.4070   43.5770 C   0  0  0  0  0  0  0  0  0  0  0  0
   46.0670   33.7800   44.7810 N   0  0  0  0  0  0  0  0  0  0  0  0
   45.2730   34.2450   45.7310 C   0  0  0  0  0  0  0  0  0  0  0  0
   44.5670   35.3630   45.5220 N   0  0  0  0  0  0  0  0  0  0  0  0
   44.0460   36.9130   44.2760 H   0  0  0  0  0  0  0  0  0  0  0  0
   45.4350   36.1800   42.4490 H   0  0  0  0  0  0  0  0  0  0  0  0
   45.2790   33.6390   46.6260 H   0  0  0  0  0  0  0  0  0  0  0  0
  1  3  1  0  0  0  0
  1 14  1  0  0  0  0
  2  1  1  0  0  0  0
  4  7  1  6  0  0  0
  4  1  1  0  0  0  0
  4  6  1  0  0  0  0
  4  5  1  0  0  0  0
  5  9  1  0  0  0  0
  6 10  1  6  0  0  0
  6  5  1  0  0  0  0
  6 11  1  0  0  0  0
  8  5  1  0  0  0  0
 11 13  2  0  0  0  0
 11 12  1  0  0  0  0
 14 15  1  0  0  0  0
 14 16  1  0  0  0  0
 14 19  1  0  0  0  0
 17 22  1  0  0  0  0
 18 19  1  0  0  0  0
 18 17  2  0  0  0  0
 19 20  2  0  0  0  0
 20 21  1  0  0  0  0
 21 25  1  0  0  0  0
 22 21  2  0  0  0  0
 23 17  1  0  0  0  0
 24 18  1  0  0  0  0
M  END
>  <minimizedAffinity>
-4.24963522

>  <minimizedRMSD>
0.800789237

$$$$
