
 OpenBabel03242519163D

 36 38  0  0  1  0  0  0  0  0999 V2000
   47.9040   35.1100   41.9750 C   0  0  0  0  0  0  0  0  0  0  0  0
   48.1050   36.1530   41.6240 H   0  0  0  0  0  0  0  0  0  0  0  0
   48.5400   34.9880   42.8800 H   0  0  0  0  0  0  0  0  0  0  0  0
   48.3040   34.2050   40.9210 C   0  0  0  0  0  0  0  0  0  0  0  0
   47.7880   34.2950   39.6460 C   0  0  0  0  0  0  0  0  0  0  0  0
   48.1550   33.4200   38.6140 C   0  0  0  0  0  0  0  0  0  0  0  0
   49.0610   32.4680   38.9590 N   0  0  0  0  0  0  0  0  0  0  0  0
   49.5570   32.3900   40.2040 C   0  0  0  0  0  0  0  0  0  0  0  0
   49.1880   33.2420   41.1680 N   0  0  0  0  0  0  0  0  0  0  0  0
   47.0630   35.0680   39.3980 H   0  0  0  0  0  0  0  0  0  0  0  0
   47.7340   33.5230   37.6380 H   0  0  0  0  0  0  0  0  0  0  0  0
   50.5350   31.3210   40.5860 C   0  0  2  0  0  0  0  0  0  0  0  0
   51.0760   31.3080   41.9780 C   0  0  0  0  0  0  0  0  0  0  0  0
   51.9460   31.7590   40.7890 C   0  0  1  0  0  0  0  0  0  0  0  0
   50.3570   30.3440   40.1030 H   0  0  0  0  0  0  0  0  0  0  0  0
   50.7300   32.1410   42.6200 H   0  0  0  0  0  0  0  0  0  0  0  0
   51.4320   30.3910   42.4410 H   0  0  0  0  0  0  0  0  0  0  0  0
   52.1500   32.8230   40.6840 H   0  0  0  0  0  0  0  0  0  0  0  0
   53.0190   30.8510   40.3200 C   0  0  0  0  0  0  0  0  0  0  0  0
   53.3230   29.9340   40.7720 H   0  0  0  0  0  0  0  0  0  0  0  0
   53.6310   31.1840   39.2970 O   0  0  0  0  0  0  0  0  0  0  0  0
   46.4780   34.9460   42.3100 C   0  0  0  0  0  0  0  0  0  0  0  0
   45.9850   34.2310   41.6070 H   0  0  0  0  0  0  0  0  0  0  0  0
   45.9400   35.9010   42.2270 H   0  0  0  0  0  0  0  0  0  0  0  0
   44.5660   36.4090   44.0440 Cl  0  0  0  0  0  0  0  0  0  0  0  0
   45.3770   34.9660   44.5740 C   0  0  0  0  0  0  0  0  0  0  0  0
   46.2450   34.3780   43.6750 C   0  0  0  0  0  0  0  0  0  0  0  0
   46.9020   33.2300   44.0830 C   0  0  0  0  0  0  0  0  0  0  0  0
   46.6940   32.6980   45.3370 C   0  0  0  0  0  0  0  0  0  0  0  0
   45.8090   33.3120   46.2300 C   0  0  0  0  0  0  0  0  0  0  0  0
   45.1630   34.4500   45.8160 C   0  0  0  0  0  0  0  0  0  0  0  0
   47.5860   32.7250   43.4380 H   0  0  0  0  0  0  0  0  0  0  0  0
   47.2010   31.7970   45.6730 H   0  0  0  0  0  0  0  0  0  0  0  0
   45.6290   32.9150   47.2170 H   0  0  0  0  0  0  0  0  0  0  0  0
   44.2520   35.1490   46.6310 O   0  0  0  0  0  0  0  0  0  0  0  0
   43.3200   34.7420   46.6420 H   0  0  0  0  0  0  0  0  0  0  0  0
  1 22  1  0  0  0  0
  1  3  1  0  0  0  0
  2  1  1  0  0  0  0
  4  9  1  0  0  0  0
  4  1  1  0  0  0  0
  5  4  2  0  0  0  0
  6  7  2  0  0  0  0
  6  5  1  0  0  0  0
  7  8  1  0  0  0  0
  8 12  1  0  0  0  0
  8  9  2  0  0  0  0
 10  5  1  0  0  0  0
 11  6  1  0  0  0  0
 12 15  1  6  0  0  0
 12 14  1  0  0  0  0
 12 13  1  0  0  0  0
 13 17  1  0  0  0  0
 13 16  1  0  0  0  0
 14 18  1  6  0  0  0
 14 13  1  0  0  0  0
 19 20  1  0  0  0  0
 19 14  1  0  0  0  0
 21 19  2  0  0  0  0
 22 27  1  0  0  0  0
 23 22  1  0  0  0  0
 24 22  1  0  0  0  0
 25 26  1  0  0  0  0
 26 31  1  0  0  0  0
 27 28  1  0  0  0  0
 27 26  2  0  0  0  0
 28 29  2  0  0  0  0
 29 33  1  0  0  0  0
 29 30  1  0  0  0  0
 30 34  1  0  0  0  0
 31 30  2  0  0  0  0
 31 35  1  0  0  0  0
 32 28  1  0  0  0  0
 35 36  1  0  0  0  0
M  END
>  <minimizedAffinity>
-5.62367153

>  <minimizedRMSD>
0.470087767

$$$$
