
 OpenBabel03252507533D

 32 34  0  0  1  0  0  0  0  0999 V2000
   46.9440   34.9870   42.0840 C   0  0  2  0  0  0  0  0  0  0  0  0
   46.3170   34.1800   40.9740 C   0  0  0  0  0  0  0  0  0  0  0  0
   47.5330   34.1260   40.0290 C   0  0  0  0  0  0  0  0  0  0  0  0
   48.7270   34.0320   40.9400 C   0  0  1  0  0  0  0  0  0  0  0  0
   48.1930   34.1480   42.3320 C   0  0  0  0  0  0  0  0  0  0  0  0
   47.1730   35.9790   41.7020 H   0  0  0  0  0  0  0  0  0  0  0  0
   46.0650   33.1670   41.3630 H   0  0  0  0  0  0  0  0  0  0  0  0
   45.4570   34.6820   40.4960 H   0  0  0  0  0  0  0  0  0  0  0  0
   47.4910   35.0590   39.4440 H   0  0  0  0  0  0  0  0  0  0  0  0
   47.4370   33.2580   39.3430 H   0  0  0  0  0  0  0  0  0  0  0  0
   49.3960   34.8780   40.7570 H   0  0  0  0  0  0  0  0  0  0  0  0
   48.8800   34.6290   43.0450 H   0  0  0  0  0  0  0  0  0  0  0  0
   47.6800   33.2490   42.7280 H   0  0  0  0  0  0  0  0  0  0  0  0
   44.4380   36.0650   44.6940 C   0  0  0  0  0  0  0  0  0  0  0  0
   45.1750   36.0870   43.5050 C   0  0  0  0  0  0  0  0  0  0  0  0
   46.0950   35.0530   43.3030 C   0  0  0  0  0  0  0  0  0  0  0  0
   46.2420   34.0710   44.2590 N   0  0  0  0  0  0  0  0  0  0  0  0
   45.5020   34.0980   45.3940 C   0  0  0  0  0  0  0  0  0  0  0  0
   44.6110   35.0830   45.6090 N   0  0  0  0  0  0  0  0  0  0  0  0
   43.7280   36.8670   44.8440 H   0  0  0  0  0  0  0  0  0  0  0  0
   45.0730   36.8420   42.7540 H   0  0  0  0  0  0  0  0  0  0  0  0
   45.6870   33.2840   46.0870 H   0  0  0  0  0  0  0  0  0  0  0  0
   49.4580   32.7260   40.8690 C   0  0  2  0  0  0  0  0  0  0  0  0
   49.3470   31.8080   41.9770 C   0  0  0  0  0  0  0  0  0  0  0  0
   50.6780   32.4290   41.5840 C   0  0  1  0  0  0  0  0  0  0  0  0
   49.4080   32.3020   39.8460 H   0  0  0  0  0  0  0  0  0  0  0  0
   49.2310   30.7070   41.7150 H   0  0  0  0  0  0  0  0  0  0  0  0
   49.2650   31.9030   43.0450 H   0  0  0  0  0  0  0  0  0  0  0  0
   51.1410   33.2370   42.1450 H   0  0  0  0  0  0  0  0  0  0  0  0
   51.6880   31.4780   41.0210 C   0  0  0  0  0  0  0  0  0  0  0  0
   51.9240   30.5010   41.4750 H   0  0  0  0  0  0  0  0  0  0  0  0
   52.3560   31.6840   40.0020 O   0  0  0  0  0  0  0  0  0  0  0  0
  1  6  1  6  0  0  0
  1  5  1  0  0  0  0
  1 16  1  0  0  0  0
  2  7  1  0  0  0  0
  2  1  1  0  0  0  0
  3  4  1  0  0  0  0
  3  2  1  0  0  0  0
  4 11  1  6  0  0  0
  4  5  1  0  0  0  0
  5 13  1  0  0  0  0
  5 12  1  0  0  0  0
  8  2  1  0  0  0  0
  9  3  1  0  0  0  0
 10  3  1  0  0  0  0
 14 20  1  0  0  0  0
 14 19  1  0  0  0  0
 15 14  2  0  0  0  0
 16 15  1  0  0  0  0
 16 17  2  0  0  0  0
 17 18  1  0  0  0  0
 18 19  2  0  0  0  0
 18 22  1  0  0  0  0
 21 15  1  0  0  0  0
 23 26  1  6  0  0  0
 23  4  1  0  0  0  0
 23 25  1  0  0  0  0
 23 24  1  0  0  0  0
 24 28  1  0  0  0  0
 25 24  1  0  0  0  0
 25 29  1  1  0  0  0
 27 24  1  0  0  0  0
 30 31  1  0  0  0  0
 30 25  1  0  0  0  0
 32 30  2  0  0  0  0
M  END
>  <minimizedAffinity>
-4.76195955

>  <minimizedRMSD>
0.40119642

$$$$
