
 OpenBabel03242512363D

 28 30  0  0  0  0  0  0  0  0999 V2000
   46.1770   33.7260   40.3990 C   0  0  0  0  0  0  0  0  0  0  0  0
   47.3230   34.4800   40.6860 C   0  0  0  0  0  0  0  0  0  0  0  0
   48.2720   34.6170   39.7050 C   0  0  0  0  0  0  0  0  0  0  0  0
   48.1860   34.0640   38.4420 C   0  0  0  0  0  0  0  0  0  0  0  0
   48.9700   34.0670   37.3510 N   0  0  0  0  0  0  0  0  0  0  0  0
   48.3960   33.3610   36.3800 C   0  0  0  0  0  0  0  0  0  0  0  0
   47.1840   32.8770   36.8640 C   0  0  0  0  0  0  0  0  0  0  0  0
   47.0380   33.3160   38.1730 C   0  0  0  0  0  0  0  0  0  0  0  0
   46.0690   33.1590   39.1310 C   0  0  0  0  0  0  0  0  0  0  0  0
   45.4280   33.6190   41.1800 H   0  0  0  0  0  0  0  0  0  0  0  0
   49.2070   35.1890   39.8350 H   0  0  0  0  0  0  0  0  0  0  0  0
   49.9040   34.5540   37.2620 H   0  0  0  0  0  0  0  0  0  0  0  0
   48.8330   33.2100   35.3890 H   0  0  0  0  0  0  0  0  0  0  0  0
   46.4800   32.2660   36.3150 H   0  0  0  0  0  0  0  0  0  0  0  0
   45.1820   32.5770   38.9150 H   0  0  0  0  0  0  0  0  0  0  0  0
   47.5500   35.1330   41.9840 C   0  0  0  0  0  0  0  0  0  0  0  0
   48.6090   35.8200   42.0090 O   0  0  0  0  0  0  0  0  0  0  0  0
   46.6200   34.9600   43.0610 C   0  0  0  0  0  0  0  0  0  0  0  0
   45.5740   35.8910   43.1040 C   0  0  0  0  0  0  0  0  0  0  0  0
   44.6580   35.7200   44.1670 C   0  0  0  0  0  0  0  0  0  0  0  0
   44.8450   34.7000   45.0490 N   0  0  0  0  0  0  0  0  0  0  0  0
   45.8820   33.8400   44.9430 C   0  0  0  0  0  0  0  0  0  0  0  0
   46.7700   33.9820   43.9360 N   0  0  0  0  0  0  0  0  0  0  0  0
   45.4430   36.6830   42.4060 H   0  0  0  0  0  0  0  0  0  0  0  0
   43.8310   36.3820   44.2780 H   0  0  0  0  0  0  0  0  0  0  0  0
   46.0120   32.7730   45.9290 C   0  0  0  0  0  0  0  0  0  0  0  0
   45.3580   31.9120   45.9030 H   0  0  0  0  0  0  0  0  0  0  0  0
   46.9230   32.9170   46.8030 O   0  0  0  0  0  0  0  0  0  0  0  0
  1  2  1  0  0  0  0
  1 10  1  0  0  0  0
  2 16  1  0  0  0  0
  3 11  1  0  0  0  0
  3  2  2  0  0  0  0
  4  3  1  0  0  0  0
  5  4  1  0  0  0  0
  6  7  2  0  0  0  0
  6  5  1  0  0  0  0
  7  8  1  0  0  0  0
  8  4  2  0  0  0  0
  8  9  1  0  0  0  0
  9  1  2  0  0  0  0
 12  5  1  0  0  0  0
 13  6  1  0  0  0  0
 14  7  1  0  0  0  0
 15  9  1  0  0  0  0
 16 17  2  0  0  0  0
 16 18  1  0  0  0  0
 18 19  2  0  0  0  0
 18 23  1  0  0  0  0
 19 20  1  0  0  0  0
 20 25  1  0  0  0  0
 20 21  2  0  0  0  0
 22 21  1  0  0  0  0
 22 26  1  0  0  0  0
 23 22  2  0  0  0  0
 24 19  1  0  0  0  0
 26 28  2  0  0  0  0
 27 26  1  0  0  0  0
M  END
>  <minimizedAffinity>
-5.58998156

>  <minimizedRMSD>
0.419226676

$$$$
