
 OpenBabel03252506283D

 41 44  0  0  0  0  0  0  0  0999 V2000
   47.2450   30.2520   48.0460 C   0  0  0  0  0  0  0  0  0  0  0  0
   47.7570   29.2850   48.0970 H   0  0  0  0  0  0  0  0  0  0  0  0
   47.7030   30.9770   48.7330 H   0  0  0  0  0  0  0  0  0  0  0  0
   47.0970   32.2040   45.0520 C   0  0  0  0  0  0  0  0  0  0  0  0
   47.7270   31.0280   44.6050 C   0  0  0  0  0  0  0  0  0  0  0  0
   47.8580   30.1740   45.6430 C   0  0  0  0  0  0  0  0  0  0  0  0
   47.3270   30.8000   46.6940 N   0  0  0  0  0  0  0  0  0  0  0  0
   46.8700   32.0090   46.3610 N   0  0  0  0  0  0  0  0  0  0  0  0
   48.0600   30.8300   43.5870 H   0  0  0  0  0  0  0  0  0  0  0  0
   48.2900   29.1710   45.6960 H   0  0  0  0  0  0  0  0  0  0  0  0
   45.3460   35.0850   43.6460 C   0  0  0  0  0  0  0  0  0  0  0  0
   46.1920   35.5190   42.6310 C   0  0  0  0  0  0  0  0  0  0  0  0
   47.3700   34.7970   42.4470 C   0  0  0  0  0  0  0  0  0  0  0  0
   47.6130   33.7430   43.2490 N   0  0  0  0  0  0  0  0  0  0  0  0
   46.7920   33.3430   44.2160 C   0  0  0  0  0  0  0  0  0  0  0  0
   45.6540   34.0260   44.4070 N   0  0  0  0  0  0  0  0  0  0  0  0
   44.4230   35.6060   43.8310 H   0  0  0  0  0  0  0  0  0  0  0  0
   45.9690   36.3710   42.0000 H   0  0  0  0  0  0  0  0  0  0  0  0
   48.2940   35.1850   41.4170 C   0  0  0  0  0  0  0  0  0  0  0  0
   48.2880   34.7010   40.4540 H   0  0  0  0  0  0  0  0  0  0  0  0
   49.1360   36.1040   41.6200 O   0  0  0  0  0  0  0  0  0  0  0  0
   45.8220   30.0600   48.4400 C   0  0  0  0  0  0  0  0  0  0  0  0
   45.8080   29.8230   49.5300 H   0  0  0  0  0  0  0  0  0  0  0  0
   45.3070   31.0490   48.3610 H   0  0  0  0  0  0  0  0  0  0  0  0
   45.0090   27.6760   48.0170 C   0  0  0  0  0  0  0  0  0  0  0  0
   45.0790   29.0190   47.7510 C   0  0  0  0  0  0  0  0  0  0  0  0
   44.3300   29.4700   46.6600 C   0  0  0  0  0  0  0  0  0  0  0  0
   43.5730   28.6230   45.9010 C   0  0  0  0  0  0  0  0  0  0  0  0
   42.7730   28.7690   44.8250 N   0  0  0  0  0  0  0  0  0  0  0  0
   42.2430   27.6040   44.4460 C   0  0  0  0  0  0  0  0  0  0  0  0
   42.6980   26.6020   45.3020 C   0  0  0  0  0  0  0  0  0  0  0  0
   43.5080   27.2900   46.1690 C   0  0  0  0  0  0  0  0  0  0  0  0
   44.2420   26.8260   47.2450 C   0  0  0  0  0  0  0  0  0  0  0  0
   45.6010   27.3580   48.8690 H   0  0  0  0  0  0  0  0  0  0  0  0
   44.2980   30.5070   46.3440 H   0  0  0  0  0  0  0  0  0  0  0  0
   42.5610   29.6620   44.3130 H   0  0  0  0  0  0  0  0  0  0  0  0
   41.5600   27.4100   43.6110 H   0  0  0  0  0  0  0  0  0  0  0  0
   42.4520   25.5690   45.2560 H   0  0  0  0  0  0  0  0  0  0  0  0
   44.2210   25.4090   47.5930 C   0  0  0  0  0  0  0  0  0  0  0  0
   44.8930   24.9490   48.5380 O   0  0  0  0  0  0  0  0  0  0  0  0
   43.6110   24.7150   47.0300 H   0  0  0  0  0  0  0  0  0  0  0  0
  1  2  1  0  0  0  0
  1 22  1  0  0  0  0
  1  3  1  0  0  0  0
  4  8  2  0  0  0  0
  5  4  1  0  0  0  0
  5  6  2  0  0  0  0
  6 10  1  0  0  0  0
  6  7  1  0  0  0  0
  7  1  1  0  0  0  0
  8  7  1  0  0  0  0
  9  5  1  0  0  0  0
 11 17  1  0  0  0  0
 11 16  1  0  0  0  0
 12 11  2  0  0  0  0
 13 12  1  0  0  0  0
 13 14  2  0  0  0  0
 14 15  1  0  0  0  0
 15 16  2  0  0  0  0
 15  4  1  0  0  0  0
 18 12  1  0  0  0  0
 19 21  2  0  0  0  0
 19 13  1  0  0  0  0
 20 19  1  0  0  0  0
 22 23  1  0  0  0  0
 24 22  1  0  0  0  0
 25 34  1  0  0  0  0
 26 25  1  0  0  0  0
 26 22  1  0  0  0  0
 27 26  2  0  0  0  0
 28 32  2  0  0  0  0
 28 27  1  0  0  0  0
 29 28  1  0  0  0  0
 30 29  1  0  0  0  0
 30 31  2  0  0  0  0
 31 32  1  0  0  0  0
 32 33  1  0  0  0  0
 33 39  1  0  0  0  0
 33 25  2  0  0  0  0
 35 27  1  0  0  0  0
 36 29  1  0  0  0  0
 37 30  1  0  0  0  0
 38 31  1  0  0  0  0
 39 40  2  0  0  0  0
 41 39  1  0  0  0  0
M  END
>  <minimizedAffinity>
-5.17800426

>  <minimizedRMSD>
0.882832825

$$$$
