
 OpenBabel03242523193D

 31 33  0  0  0  0  0  0  0  0999 V2000
   47.5070   32.8290   43.9260 C   0  0  0  0  0  0  0  0  0  0  0  0
   48.3400   33.3790   43.0320 C   0  0  0  0  0  0  0  0  0  0  0  0
   49.2010   32.4880   42.4270 C   0  0  0  0  0  0  0  0  0  0  0  0
   49.1300   31.1350   42.7930 N   0  0  0  0  0  0  0  0  0  0  0  0
   48.2890   30.6660   43.6820 C   0  0  0  0  0  0  0  0  0  0  0  0
   47.4090   31.5290   44.3080 N   0  0  0  0  0  0  0  0  0  0  0  0
   49.9460   32.7560   41.6720 H   0  0  0  0  0  0  0  0  0  0  0  0
   48.3520   29.5990   43.8640 H   0  0  0  0  0  0  0  0  0  0  0  0
   48.4850   34.7630   42.7530 C   0  0  0  0  0  0  0  0  0  0  0  0
   49.5110   35.3950   42.1210 C   0  0  0  0  0  0  0  0  0  0  0  0
   48.3060   35.2100   41.2400 C   0  0  0  0  0  0  0  0  0  0  0  0
   47.9820   35.4220   43.4860 H   0  0  0  0  0  0  0  0  0  0  0  0
   50.3970   34.7890   41.7660 H   0  0  0  0  0  0  0  0  0  0  0  0
   49.8360   36.4610   42.1820 H   0  0  0  0  0  0  0  0  0  0  0  0
   48.2730   34.3620   40.5450 H   0  0  0  0  0  0  0  0  0  0  0  0
   47.6240   36.0540   41.0930 H   0  0  0  0  0  0  0  0  0  0  0  0
   46.4260   33.5170   44.6480 C   0  0  0  0  0  0  0  0  0  0  0  0
   45.8520   33.8690   45.6480 O   0  0  0  0  0  0  0  0  0  0  0  0
   44.6140   31.6970   42.9430 Cl  0  0  0  0  0  0  0  0  0  0  0  0
   44.6190   33.4560   42.7870 C   0  0  0  0  0  0  0  0  0  0  0  0
   45.5050   34.1330   43.6520 C   0  0  0  0  0  0  0  0  0  0  0  0
   45.4300   35.5020   43.4470 C   0  0  0  0  0  0  0  0  0  0  0  0
   44.6770   36.2040   42.5890 C   0  0  0  0  0  0  0  0  0  0  0  0
   43.8480   35.4720   41.7870 C   0  0  0  0  0  0  0  0  0  0  0  0
   43.8040   34.1260   41.8690 C   0  0  0  0  0  0  0  0  0  0  0  0
   46.0400   36.1890   44.0730 H   0  0  0  0  0  0  0  0  0  0  0  0
   44.6570   37.2690   42.4660 H   0  0  0  0  0  0  0  0  0  0  0  0
   43.1770   35.8800   41.0420 H   0  0  0  0  0  0  0  0  0  0  0  0
   42.9390   33.2830   41.0430 C   0  0  0  0  0  0  0  0  0  0  0  0
   42.7390   32.2560   41.2560 H   0  0  0  0  0  0  0  0  0  0  0  0
   42.3720   33.7010   40.0260 O   0  0  0  0  0  0  0  0  0  0  0  0
  1  6  1  0  0  0  0
  1 17  1  0  0  0  0
  2  1  2  0  0  0  0
  3  4  2  0  0  0  0
  3  2  1  0  0  0  0
  4  5  1  0  0  0  0
  5  8  1  0  0  0  0
  5  6  2  0  0  0  0
  7  3  1  0  0  0  0
  9  2  1  0  0  0  0
  9 12  1  0  0  0  0
 10 14  1  0  0  0  0
 10  9  1  0  0  0  0
 11 10  1  0  0  0  0
 11  9  1  0  0  0  0
 13 10  1  0  0  0  0
 15 11  1  0  0  0  0
 16 11  1  0  0  0  0
 17 18  2  0  0  0  0
 20 19  1  0  0  0  0
 20 21  1  0  0  0  0
 21 17  1  0  0  0  0
 22 21  2  0  0  0  0
 22 26  1  0  0  0  0
 23 22  1  0  0  0  0
 24 25  1  0  0  0  0
 24 23  2  0  0  0  0
 25 20  2  0  0  0  0
 27 23  1  0  0  0  0
 28 24  1  0  0  0  0
 29 30  1  0  0  0  0
 29 25  1  0  0  0  0
 31 29  2  0  0  0  0
M  END
>  <minimizedAffinity>
-4.97256756

>  <minimizedRMSD>
0.0573879927

$$$$
