
 OpenBabel03242523193D

 31 33  0  0  0  0  0  0  0  0999 V2000
   47.5050   32.8270   43.9310 C   0  0  0  0  0  0  0  0  0  0  0  0
   48.3370   33.3760   43.0360 C   0  0  0  0  0  0  0  0  0  0  0  0
   49.1990   32.4840   42.4320 C   0  0  0  0  0  0  0  0  0  0  0  0
   49.1280   31.1310   42.7980 N   0  0  0  0  0  0  0  0  0  0  0  0
   48.2870   30.6630   43.6880 C   0  0  0  0  0  0  0  0  0  0  0  0
   47.4070   31.5260   44.3130 N   0  0  0  0  0  0  0  0  0  0  0  0
   49.9430   32.7520   41.6760 H   0  0  0  0  0  0  0  0  0  0  0  0
   48.3500   29.5960   43.8710 H   0  0  0  0  0  0  0  0  0  0  0  0
   48.4830   34.7590   42.7560 C   0  0  0  0  0  0  0  0  0  0  0  0
   49.5060   35.3900   42.1190 C   0  0  0  0  0  0  0  0  0  0  0  0
   48.2970   35.2060   41.2430 C   0  0  0  0  0  0  0  0  0  0  0  0
   47.9830   35.4190   43.4910 H   0  0  0  0  0  0  0  0  0  0  0  0
   50.3900   34.7840   41.7610 H   0  0  0  0  0  0  0  0  0  0  0  0
   49.8320   36.4560   42.1790 H   0  0  0  0  0  0  0  0  0  0  0  0
   48.2600   34.3590   40.5490 H   0  0  0  0  0  0  0  0  0  0  0  0
   47.6150   36.0510   41.1000 H   0  0  0  0  0  0  0  0  0  0  0  0
   46.4240   33.5140   44.6530 C   0  0  0  0  0  0  0  0  0  0  0  0
   45.8500   33.8660   45.6530 O   0  0  0  0  0  0  0  0  0  0  0  0
   44.6190   31.6980   42.9370 Cl  0  0  0  0  0  0  0  0  0  0  0  0
   44.6220   33.4570   42.7870 C   0  0  0  0  0  0  0  0  0  0  0  0
   45.5050   34.1320   43.6560 C   0  0  0  0  0  0  0  0  0  0  0  0
   45.4280   35.5020   43.4570 C   0  0  0  0  0  0  0  0  0  0  0  0
   44.6760   36.2060   42.6000 C   0  0  0  0  0  0  0  0  0  0  0  0
   43.8500   35.4760   41.7930 C   0  0  0  0  0  0  0  0  0  0  0  0
   43.8080   34.1300   41.8700 C   0  0  0  0  0  0  0  0  0  0  0  0
   46.0350   36.1880   44.0860 H   0  0  0  0  0  0  0  0  0  0  0  0
   44.6540   37.2720   42.4800 H   0  0  0  0  0  0  0  0  0  0  0  0
   43.1800   35.8860   41.0480 H   0  0  0  0  0  0  0  0  0  0  0  0
   42.9460   33.2880   41.0390 C   0  0  0  0  0  0  0  0  0  0  0  0
   42.3940   32.4550   41.4140 H   0  0  0  0  0  0  0  0  0  0  0  0
   42.7910   33.4820   39.8270 O   0  0  0  0  0  0  0  0  0  0  0  0
  1  6  1  0  0  0  0
  1 17  1  0  0  0  0
  2  1  2  0  0  0  0
  3  4  2  0  0  0  0
  3  2  1  0  0  0  0
  4  5  1  0  0  0  0
  5  8  1  0  0  0  0
  5  6  2  0  0  0  0
  7  3  1  0  0  0  0
  9  2  1  0  0  0  0
  9 12  1  0  0  0  0
 10 14  1  0  0  0  0
 10  9  1  0  0  0  0
 11 10  1  0  0  0  0
 11  9  1  0  0  0  0
 13 10  1  0  0  0  0
 15 11  1  0  0  0  0
 16 11  1  0  0  0  0
 17 18  2  0  0  0  0
 20 19  1  0  0  0  0
 20 21  1  0  0  0  0
 21 17  1  0  0  0  0
 22 21  2  0  0  0  0
 22 26  1  0  0  0  0
 23 22  1  0  0  0  0
 24 25  1  0  0  0  0
 24 23  2  0  0  0  0
 25 20  2  0  0  0  0
 27 23  1  0  0  0  0
 28 24  1  0  0  0  0
 29 30  1  0  0  0  0
 29 25  1  0  0  0  0
 31 29  2  0  0  0  0
M  END
>  <minimizedAffinity>
-4.94197226

>  <minimizedRMSD>
0.10519319

$$$$
