
 OpenBabel03242523193D

 31 33  0  0  0  0  0  0  0  0999 V2000
   47.5020   32.8210   43.9100 C   0  0  0  0  0  0  0  0  0  0  0  0
   48.3460   33.3700   43.0260 C   0  0  0  0  0  0  0  0  0  0  0  0
   49.1970   32.4740   42.4130 C   0  0  0  0  0  0  0  0  0  0  0  0
   49.1060   31.1180   42.7620 N   0  0  0  0  0  0  0  0  0  0  0  0
   48.2550   30.6500   43.6420 C   0  0  0  0  0  0  0  0  0  0  0  0
   47.3850   31.5170   44.2750 N   0  0  0  0  0  0  0  0  0  0  0  0
   49.9480   32.7410   41.6640 H   0  0  0  0  0  0  0  0  0  0  0  0
   48.3020   29.5800   43.8110 H   0  0  0  0  0  0  0  0  0  0  0  0
   48.5120   34.7550   42.7650 C   0  0  0  0  0  0  0  0  0  0  0  0
   49.5520   35.3810   42.1510 C   0  0  0  0  0  0  0  0  0  0  0  0
   48.3550   35.2220   41.2550 C   0  0  0  0  0  0  0  0  0  0  0  0
   48.0100   35.4120   43.5000 H   0  0  0  0  0  0  0  0  0  0  0  0
   50.4340   34.7680   41.7990 H   0  0  0  0  0  0  0  0  0  0  0  0
   49.8910   36.4420   42.2290 H   0  0  0  0  0  0  0  0  0  0  0  0
   48.3190   34.3830   40.5500 H   0  0  0  0  0  0  0  0  0  0  0  0
   47.6850   36.0760   41.1120 H   0  0  0  0  0  0  0  0  0  0  0  0
   46.4280   33.5140   44.6370 C   0  0  0  0  0  0  0  0  0  0  0  0
   45.8610   33.8700   45.6400 O   0  0  0  0  0  0  0  0  0  0  0  0
   44.5690   31.7100   42.9680 Cl  0  0  0  0  0  0  0  0  0  0  0  0
   44.6010   33.4670   42.7950 C   0  0  0  0  0  0  0  0  0  0  0  0
   45.5070   34.1370   43.6450 C   0  0  0  0  0  0  0  0  0  0  0  0
   45.4530   35.5050   43.4290 C   0  0  0  0  0  0  0  0  0  0  0  0
   44.7020   36.2110   42.5720 C   0  0  0  0  0  0  0  0  0  0  0  0
   43.8530   35.4870   41.7850 C   0  0  0  0  0  0  0  0  0  0  0  0
   43.7880   34.1420   41.8800 C   0  0  0  0  0  0  0  0  0  0  0  0
   46.0800   36.1880   44.0410 H   0  0  0  0  0  0  0  0  0  0  0  0
   44.6980   37.2760   42.4390 H   0  0  0  0  0  0  0  0  0  0  0  0
   43.1810   35.8990   41.0440 H   0  0  0  0  0  0  0  0  0  0  0  0
   42.9000   33.3060   41.0710 C   0  0  0  0  0  0  0  0  0  0  0  0
   43.2300   32.7350   40.2320 H   0  0  0  0  0  0  0  0  0  0  0  0
   41.6890   33.1990   41.3010 O   0  0  0  0  0  0  0  0  0  0  0  0
  1  6  1  0  0  0  0
  1 17  1  0  0  0  0
  2  1  2  0  0  0  0
  3  4  2  0  0  0  0
  3  2  1  0  0  0  0
  4  5  1  0  0  0  0
  5  8  1  0  0  0  0
  5  6  2  0  0  0  0
  7  3  1  0  0  0  0
  9  2  1  0  0  0  0
  9 12  1  0  0  0  0
 10 14  1  0  0  0  0
 10  9  1  0  0  0  0
 11 10  1  0  0  0  0
 11  9  1  0  0  0  0
 13 10  1  0  0  0  0
 15 11  1  0  0  0  0
 16 11  1  0  0  0  0
 17 18  2  0  0  0  0
 20 19  1  0  0  0  0
 20 21  1  0  0  0  0
 21 17  1  0  0  0  0
 22 21  2  0  0  0  0
 22 26  1  0  0  0  0
 23 22  1  0  0  0  0
 24 25  1  0  0  0  0
 24 23  2  0  0  0  0
 25 20  2  0  0  0  0
 27 23  1  0  0  0  0
 28 24  1  0  0  0  0
 29 31  2  0  0  0  0
 29 25  1  0  0  0  0
 30 29  1  0  0  0  0
M  END
>  <minimizedAffinity>
-4.98532534

>  <minimizedRMSD>
0.143496767

$$$$
