
 OpenBabel03242523193D

 31 33  0  0  0  0  0  0  0  0999 V2000
   47.3900   32.8070   44.0380 C   0  0  0  0  0  0  0  0  0  0  0  0
   48.2390   33.3050   43.1270 C   0  0  0  0  0  0  0  0  0  0  0  0
   49.0860   32.3740   42.5630 C   0  0  0  0  0  0  0  0  0  0  0  0
   48.9850   31.0380   42.9800 N   0  0  0  0  0  0  0  0  0  0  0  0
   48.1300   30.6210   43.8820 C   0  0  0  0  0  0  0  0  0  0  0  0
   47.2650   31.5240   44.4680 N   0  0  0  0  0  0  0  0  0  0  0  0
   49.8390   32.5980   41.8030 H   0  0  0  0  0  0  0  0  0  0  0  0
   48.1720   29.5610   44.1050 H   0  0  0  0  0  0  0  0  0  0  0  0
   48.4140   34.6740   42.7970 C   0  0  0  0  0  0  0  0  0  0  0  0
   49.4340   35.2540   42.1090 C   0  0  0  0  0  0  0  0  0  0  0  0
   48.1960   35.0750   41.2750 C   0  0  0  0  0  0  0  0  0  0  0  0
   47.9540   35.3720   43.5220 H   0  0  0  0  0  0  0  0  0  0  0  0
   50.2910   34.6110   41.7470 H   0  0  0  0  0  0  0  0  0  0  0  0
   49.7910   36.3120   42.1230 H   0  0  0  0  0  0  0  0  0  0  0  0
   48.1160   34.2060   40.6120 H   0  0  0  0  0  0  0  0  0  0  0  0
   47.5330   35.9330   41.1220 H   0  0  0  0  0  0  0  0  0  0  0  0
   46.3200   33.5430   44.7260 C   0  0  0  0  0  0  0  0  0  0  0  0
   45.7390   33.9320   45.7080 O   0  0  0  0  0  0  0  0  0  0  0  0
   44.5770   31.7480   42.9260 Cl  0  0  0  0  0  0  0  0  0  0  0  0
   44.5900   33.5090   42.7920 C   0  0  0  0  0  0  0  0  0  0  0  0
   45.4400   34.1730   43.7010 C   0  0  0  0  0  0  0  0  0  0  0  0
   45.3750   35.5450   43.5120 C   0  0  0  0  0  0  0  0  0  0  0  0
   44.6580   36.2590   42.6330 C   0  0  0  0  0  0  0  0  0  0  0  0
   43.8610   35.5390   41.7880 C   0  0  0  0  0  0  0  0  0  0  0  0
   43.8130   34.1920   41.8510 C   0  0  0  0  0  0  0  0  0  0  0  0
   45.9590   36.2230   44.1700 H   0  0  0  0  0  0  0  0  0  0  0  0
   44.6430   37.3260   42.5220 H   0  0  0  0  0  0  0  0  0  0  0  0
   43.2220   35.9570   41.0230 H   0  0  0  0  0  0  0  0  0  0  0  0
   42.9810   33.3600   40.9800 C   0  0  0  0  0  0  0  0  0  0  0  0
   42.7980   32.3230   41.1540 H   0  0  0  0  0  0  0  0  0  0  0  0
   42.4230   33.8020   39.9690 O   0  0  0  0  0  0  0  0  0  0  0  0
  1  6  1  0  0  0  0
  1 17  1  0  0  0  0
  2  1  2  0  0  0  0
  3  4  2  0  0  0  0
  3  2  1  0  0  0  0
  4  5  1  0  0  0  0
  5  8  1  0  0  0  0
  5  6  2  0  0  0  0
  7  3  1  0  0  0  0
  9  2  1  0  0  0  0
  9 12  1  0  0  0  0
 10 14  1  0  0  0  0
 10  9  1  0  0  0  0
 11 10  1  0  0  0  0
 11  9  1  0  0  0  0
 13 10  1  0  0  0  0
 15 11  1  0  0  0  0
 16 11  1  0  0  0  0
 17 18  2  0  0  0  0
 20 19  1  0  0  0  0
 20 21  1  0  0  0  0
 21 17  1  0  0  0  0
 22 21  2  0  0  0  0
 22 26  1  0  0  0  0
 23 22  1  0  0  0  0
 24 25  1  0  0  0  0
 24 23  2  0  0  0  0
 25 20  2  0  0  0  0
 27 23  1  0  0  0  0
 28 24  1  0  0  0  0
 29 30  1  0  0  0  0
 29 25  1  0  0  0  0
 31 29  2  0  0  0  0
M  END
>  <minimizedAffinity>
-4.97634411

>  <minimizedRMSD>
0.500517547

$$$$
