
 OpenBabel03242523193D

 31 33  0  0  0  0  0  0  0  0999 V2000
   47.5070   32.8260   43.9570 C   0  0  0  0  0  0  0  0  0  0  0  0
   48.3340   33.3730   43.0540 C   0  0  0  0  0  0  0  0  0  0  0  0
   49.2020   32.4830   42.4580 C   0  0  0  0  0  0  0  0  0  0  0  0
   49.1430   31.1330   42.8380 N   0  0  0  0  0  0  0  0  0  0  0  0
   48.3070   30.6670   43.7340 C   0  0  0  0  0  0  0  0  0  0  0  0
   47.4210   31.5280   44.3520 N   0  0  0  0  0  0  0  0  0  0  0  0
   49.9420   32.7490   41.6990 H   0  0  0  0  0  0  0  0  0  0  0  0
   48.3790   29.6020   43.9270 H   0  0  0  0  0  0  0  0  0  0  0  0
   48.4670   34.7550   42.7610 C   0  0  0  0  0  0  0  0  0  0  0  0
   49.4790   35.3860   42.1070 C   0  0  0  0  0  0  0  0  0  0  0  0
   48.2610   35.1870   41.2470 C   0  0  0  0  0  0  0  0  0  0  0  0
   47.9730   35.4180   43.4960 H   0  0  0  0  0  0  0  0  0  0  0  0
   50.3620   34.7820   41.7430 H   0  0  0  0  0  0  0  0  0  0  0  0
   49.8000   36.4550   42.1540 H   0  0  0  0  0  0  0  0  0  0  0  0
   48.2220   34.3330   40.5610 H   0  0  0  0  0  0  0  0  0  0  0  0
   47.5720   36.0270   41.1040 H   0  0  0  0  0  0  0  0  0  0  0  0
   46.4210   33.5120   44.6730 C   0  0  0  0  0  0  0  0  0  0  0  0
   45.8410   33.8610   45.6710 O   0  0  0  0  0  0  0  0  0  0  0  0
   44.6670   31.6960   42.9050 Cl  0  0  0  0  0  0  0  0  0  0  0  0
   44.6470   33.4570   42.7800 C   0  0  0  0  0  0  0  0  0  0  0  0
   45.5080   34.1310   43.6720 C   0  0  0  0  0  0  0  0  0  0  0  0
   45.4150   35.5030   43.4910 C   0  0  0  0  0  0  0  0  0  0  0  0
   44.6660   36.2090   42.6330 C   0  0  0  0  0  0  0  0  0  0  0  0
   43.8620   35.4790   41.8040 C   0  0  0  0  0  0  0  0  0  0  0  0
   43.8380   34.1310   41.8620 C   0  0  0  0  0  0  0  0  0  0  0  0
   46.0040   36.1880   44.1390 H   0  0  0  0  0  0  0  0  0  0  0  0
   44.6310   37.2760   42.5290 H   0  0  0  0  0  0  0  0  0  0  0  0
   43.1970   35.8900   41.0560 H   0  0  0  0  0  0  0  0  0  0  0  0
   42.9990   33.2900   41.0060 C   0  0  0  0  0  0  0  0  0  0  0  0
   42.7480   32.2790   41.2370 H   0  0  0  0  0  0  0  0  0  0  0  0
   42.5170   33.6920   39.9410 O   0  0  0  0  0  0  0  0  0  0  0  0
  1  6  1  0  0  0  0
  1 17  1  0  0  0  0
  2  1  2  0  0  0  0
  3  4  2  0  0  0  0
  3  2  1  0  0  0  0
  4  5  1  0  0  0  0
  5  8  1  0  0  0  0
  5  6  2  0  0  0  0
  7  3  1  0  0  0  0
  9  2  1  0  0  0  0
  9 12  1  0  0  0  0
 10 14  1  0  0  0  0
 10  9  1  0  0  0  0
 11 10  1  0  0  0  0
 11  9  1  0  0  0  0
 13 10  1  0  0  0  0
 15 11  1  0  0  0  0
 16 11  1  0  0  0  0
 17 18  2  0  0  0  0
 20 19  1  0  0  0  0
 20 21  1  0  0  0  0
 21 17  1  0  0  0  0
 22 21  2  0  0  0  0
 22 26  1  0  0  0  0
 23 22  1  0  0  0  0
 24 25  1  0  0  0  0
 24 23  2  0  0  0  0
 25 20  2  0  0  0  0
 27 23  1  0  0  0  0
 28 24  1  0  0  0  0
 29 30  1  0  0  0  0
 29 25  1  0  0  0  0
 31 29  2  0  0  0  0
M  END
>  <minimizedAffinity>
-4.96339273

>  <minimizedRMSD>
0.0839390159

$$$$
