
 OpenBabel03242523213D

 31 33  0  0  0  0  0  0  0  0999 V2000
   36.3210   27.5130   39.9730 C   0  0  0  0  0  0  0  0  0  0  0  0
   36.8710   27.2930   41.1750 C   0  0  0  0  0  0  0  0  0  0  0  0
   37.7700   26.2480   41.2120 C   0  0  0  0  0  0  0  0  0  0  0  0
   38.0170   25.5350   40.0290 N   0  0  0  0  0  0  0  0  0  0  0  0
   37.4380   25.8050   38.8840 C   0  0  0  0  0  0  0  0  0  0  0  0
   36.5320   26.8450   38.8080 N   0  0  0  0  0  0  0  0  0  0  0  0
   38.3160   25.9270   42.1040 H   0  0  0  0  0  0  0  0  0  0  0  0
   37.7250   25.1660   38.0560 H   0  0  0  0  0  0  0  0  0  0  0  0
   36.5300   27.9410   42.3910 C   0  0  0  0  0  0  0  0  0  0  0  0
   36.8120   27.5530   43.6640 C   0  0  0  0  0  0  0  0  0  0  0  0
   37.7120   28.6550   43.1760 C   0  0  0  0  0  0  0  0  0  0  0  0
   35.5960   28.5320   42.3350 H   0  0  0  0  0  0  0  0  0  0  0  0
   37.3730   26.5870   43.8340 H   0  0  0  0  0  0  0  0  0  0  0  0
   36.2950   27.8140   44.6180 H   0  0  0  0  0  0  0  0  0  0  0  0
   38.7010   28.4040   42.7780 H   0  0  0  0  0  0  0  0  0  0  0  0
   37.4980   29.6850   43.4790 H   0  0  0  0  0  0  0  0  0  0  0  0
   35.4090   28.6100   39.6190 C   0  0  0  0  0  0  0  0  0  0  0  0
   34.3280   29.1420   39.5780 O   0  0  0  0  0  0  0  0  0  0  0  0
   36.2680   31.1080   41.2080 Cl  0  0  0  0  0  0  0  0  0  0  0  0
   36.6570   30.8830   39.5010 C   0  0  0  0  0  0  0  0  0  0  0  0
   36.1920   29.6770   38.9330 C   0  0  0  0  0  0  0  0  0  0  0  0
   36.5500   29.6020   37.5960 C   0  0  0  0  0  0  0  0  0  0  0  0
   37.2290   30.4730   36.8370 C   0  0  0  0  0  0  0  0  0  0  0  0
   37.6410   31.6150   37.4630 C   0  0  0  0  0  0  0  0  0  0  0  0
   37.3720   31.8330   38.7660 C   0  0  0  0  0  0  0  0  0  0  0  0
   36.2910   28.6970   37.0040 H   0  0  0  0  0  0  0  0  0  0  0  0
   37.4800   30.3700   35.7990 H   0  0  0  0  0  0  0  0  0  0  0  0
   38.1970   32.4170   36.9970 H   0  0  0  0  0  0  0  0  0  0  0  0
   37.7860   33.0320   39.4980 C   0  0  0  0  0  0  0  0  0  0  0  0
   38.6830   33.0900   40.0740 H   0  0  0  0  0  0  0  0  0  0  0  0
   37.1210   34.0740   39.5050 O   0  0  0  0  0  0  0  0  0  0  0  0
  1  2  1  0  0  0  0
  2  3  2  0  0  0  0
  2  9  1  0  0  0  0
  3  7  1  0  0  0  0
  4  3  1  0  0  0  0
  5  4  2  0  0  0  0
  6  5  1  0  0  0  0
  6  1  2  0  0  0  0
  8  5  1  0  0  0  0
  9 11  1  0  0  0  0
  9 10  1  0  0  0  0
 10 13  1  0  0  0  0
 10 14  1  0  0  0  0
 11 16  1  0  0  0  0
 11 10  1  0  0  0  0
 12  9  1  0  0  0  0
 15 11  1  0  0  0  0
 17  1  1  0  0  0  0
 18 17  2  0  0  0  0
 20 19  1  0  0  0  0
 21 20  1  0  0  0  0
 21 17  1  0  0  0  0
 22 21  2  0  0  0  0
 23 24  2  0  0  0  0
 23 22  1  0  0  0  0
 24 25  1  0  0  0  0
 25 29  1  0  0  0  0
 25 20  2  0  0  0  0
 26 22  1  0  0  0  0
 27 23  1  0  0  0  0
 28 24  1  0  0  0  0
 29 31  2  0  0  0  0
 29 30  1  0  0  0  0
M  END
>  <minimizedAffinity>
-5.45691252

$$$$

 OpenBabel03242523213D

 31 33  0  0  0  0  0  0  0  0999 V2000
   36.5150   30.6330   39.7080 C   0  0  0  0  0  0  0  0  0  0  0  0
   36.9360   30.6110   38.4350 C   0  0  0  0  0  0  0  0  0  0  0  0
   37.7820   31.6450   38.0930 C   0  0  0  0  0  0  0  0  0  0  0  0
   38.1120   32.5930   39.0740 N   0  0  0  0  0  0  0  0  0  0  0  0
   37.6590   32.5540   40.3030 C   0  0  0  0  0  0  0  0  0  0  0  0
   36.8100   31.5330   40.6830 N   0  0  0  0  0  0  0  0  0  0  0  0
   38.2250   31.7850   37.1030 H   0  0  0  0  0  0  0  0  0  0  0  0
   37.9980   33.3570   40.9480 H   0  0  0  0  0  0  0  0  0  0  0  0
   36.5060   29.7180   37.4200 C   0  0  0  0  0  0  0  0  0  0  0  0
   36.7740   29.7610   36.0870 C   0  0  0  0  0  0  0  0  0  0  0  0
   37.6040   28.7410   36.8170 C   0  0  0  0  0  0  0  0  0  0  0  0
   35.5330   29.2360   37.6310 H   0  0  0  0  0  0  0  0  0  0  0  0
   37.4010   30.6080   35.6780 H   0  0  0  0  0  0  0  0  0  0  0  0
   36.2070   29.3200   35.2320 H   0  0  0  0  0  0  0  0  0  0  0  0
   38.6220   28.9990   37.1280 H   0  0  0  0  0  0  0  0  0  0  0  0
   37.3020   27.6880   36.7770 H   0  0  0  0  0  0  0  0  0  0  0  0
   35.6890   29.6140   40.3710 C   0  0  0  0  0  0  0  0  0  0  0  0
   34.6440   29.0640   40.6120 O   0  0  0  0  0  0  0  0  0  0  0  0
   36.3620   26.7430   39.4750 Cl  0  0  0  0  0  0  0  0  0  0  0  0
   36.9720   27.4410   40.9770 C   0  0  0  0  0  0  0  0  0  0  0  0
   36.5710   28.7710   41.2270 C   0  0  0  0  0  0  0  0  0  0  0  0
   37.1030   29.2200   42.4260 C   0  0  0  0  0  0  0  0  0  0  0  0
   37.8890   28.5890   43.3090 C   0  0  0  0  0  0  0  0  0  0  0  0
   38.2300   27.3040   42.9920 C   0  0  0  0  0  0  0  0  0  0  0  0
   37.7920   26.7250   41.8550 C   0  0  0  0  0  0  0  0  0  0  0  0
   36.9140   30.2630   42.7590 H   0  0  0  0  0  0  0  0  0  0  0  0
   38.2750   28.9800   44.2300 H   0  0  0  0  0  0  0  0  0  0  0  0
   38.8540   26.6560   43.5930 H   0  0  0  0  0  0  0  0  0  0  0  0
   38.1200   25.3560   41.4540 C   0  0  0  0  0  0  0  0  0  0  0  0
   38.7840   25.1210   40.6510 H   0  0  0  0  0  0  0  0  0  0  0  0
   37.6500   24.3620   42.0190 O   0  0  0  0  0  0  0  0  0  0  0  0
  1 17  1  0  0  0  0
  1  6  1  0  0  0  0
  2  1  2  0  0  0  0
  3  2  1  0  0  0  0
  3  4  2  0  0  0  0
  4  5  1  0  0  0  0
  5  6  2  0  0  0  0
  5  8  1  0  0  0  0
  7  3  1  0  0  0  0
  9 12  1  0  0  0  0
  9  2  1  0  0  0  0
 10 11  1  0  0  0  0
 10  9  1  0  0  0  0
 11 15  1  0  0  0  0
 11  9  1  0  0  0  0
 13 10  1  0  0  0  0
 14 10  1  0  0  0  0
 16 11  1  0  0  0  0
 17 18  2  0  0  0  0
 17 21  1  0  0  0  0
 19 20  1  0  0  0  0
 20 21  2  0  0  0  0
 20 25  1  0  0  0  0
 21 22  1  0  0  0  0
 22 26  1  0  0  0  0
 22 23  2  0  0  0  0
 23 27  1  0  0  0  0
 24 23  1  0  0  0  0
 24 28  1  0  0  0  0
 25 24  2  0  0  0  0
 29 25  1  0  0  0  0
 29 31  2  0  0  0  0
 30 29  1  0  0  0  0
M  END
>  <minimizedAffinity>
-5.13106823

$$$$

 OpenBabel03242523213D

 31 33  0  0  0  0  0  0  0  0999 V2000
   37.9980   30.2250   39.3100 C   0  0  0  0  0  0  0  0  0  0  0  0
   38.5340   31.4520   39.3840 C   0  0  0  0  0  0  0  0  0  0  0  0
   39.6890   31.6180   38.6490 C   0  0  0  0  0  0  0  0  0  0  0  0
   40.1800   30.5250   37.9180 N   0  0  0  0  0  0  0  0  0  0  0  0
   39.6040   29.3490   37.8940 C   0  0  0  0  0  0  0  0  0  0  0  0
   38.4440   29.1450   38.6170 N   0  0  0  0  0  0  0  0  0  0  0  0
   40.2600   32.5490   38.5890 H   0  0  0  0  0  0  0  0  0  0  0  0
   40.1010   28.6000   37.2870 H   0  0  0  0  0  0  0  0  0  0  0  0
   38.0970   32.5140   40.2170 C   0  0  0  0  0  0  0  0  0  0  0  0
   38.5100   33.8100   40.2200 C   0  0  0  0  0  0  0  0  0  0  0  0
   37.1820   33.6230   39.5390 C   0  0  0  0  0  0  0  0  0  0  0  0
   37.7520   32.1870   41.2160 H   0  0  0  0  0  0  0  0  0  0  0  0
   39.3190   34.1330   39.4980 H   0  0  0  0  0  0  0  0  0  0  0  0
   38.4680   34.5690   41.0380 H   0  0  0  0  0  0  0  0  0  0  0  0
   37.1450   33.5370   38.4470 H   0  0  0  0  0  0  0  0  0  0  0  0
   36.2670   33.8570   40.0930 H   0  0  0  0  0  0  0  0  0  0  0  0
   36.7260   29.7920   39.9080 C   0  0  0  0  0  0  0  0  0  0  0  0
   35.5230   29.7480   39.9680 O   0  0  0  0  0  0  0  0  0  0  0  0
   36.3820   26.7370   39.6810 Cl  0  0  0  0  0  0  0  0  0  0  0  0
   36.9140   27.5300   41.1660 C   0  0  0  0  0  0  0  0  0  0  0  0
   37.0250   28.9350   41.0900 C   0  0  0  0  0  0  0  0  0  0  0  0
   37.4480   29.4540   42.3040 C   0  0  0  0  0  0  0  0  0  0  0  0
   37.7370   28.8290   43.4530 C   0  0  0  0  0  0  0  0  0  0  0  0
   37.6030   27.4690   43.4430 C   0  0  0  0  0  0  0  0  0  0  0  0
   37.2020   26.8150   42.3330 C   0  0  0  0  0  0  0  0  0  0  0  0
   37.6210   30.5470   42.4080 H   0  0  0  0  0  0  0  0  0  0  0  0
   38.0600   29.2780   44.3720 H   0  0  0  0  0  0  0  0  0  0  0  0
   37.7950   26.8150   44.2830 H   0  0  0  0  0  0  0  0  0  0  0  0
   37.0400   25.3620   42.2520 C   0  0  0  0  0  0  0  0  0  0  0  0
   36.0900   24.8790   42.1880 H   0  0  0  0  0  0  0  0  0  0  0  0
   37.9980   24.5810   42.2500 O   0  0  0  0  0  0  0  0  0  0  0  0
  1  2  1  0  0  0  0
  1 17  1  0  0  0  0
  2  9  1  0  0  0  0
  3  2  2  0  0  0  0
  4  3  1  0  0  0  0
  5  4  2  0  0  0  0
  5  6  1  0  0  0  0
  6  1  2  0  0  0  0
  7  3  1  0  0  0  0
  8  5  1  0  0  0  0
  9 10  1  0  0  0  0
  9 12  1  0  0  0  0
 10 14  1  0  0  0  0
 11 16  1  0  0  0  0
 11  9  1  0  0  0  0
 11 10  1  0  0  0  0
 13 10  1  0  0  0  0
 15 11  1  0  0  0  0
 17 18  2  0  0  0  0
 17 21  1  0  0  0  0
 19 20  1  0  0  0  0
 20 25  1  0  0  0  0
 21 20  2  0  0  0  0
 21 22  1  0  0  0  0
 22 26  1  0  0  0  0
 22 23  2  0  0  0  0
 23 27  1  0  0  0  0
 24 23  1  0  0  0  0
 24 28  1  0  0  0  0
 25 24  2  0  0  0  0
 29 25  1  0  0  0  0
 30 29  1  0  0  0  0
 31 29  2  0  0  0  0
M  END
>  <minimizedAffinity>
-5.00464964

$$$$

 OpenBabel03242523213D

 31 33  0  0  0  0  0  0  0  0999 V2000
   36.7190   28.0310   41.4980 C   0  0  0  0  0  0  0  0  0  0  0  0
   37.2430   26.8560   41.1250 C   0  0  0  0  0  0  0  0  0  0  0  0
   38.1430   26.3190   42.0220 C   0  0  0  0  0  0  0  0  0  0  0  0
   38.4180   27.0290   43.2010 N   0  0  0  0  0  0  0  0  0  0  0  0
   37.8680   28.1800   43.5000 C   0  0  0  0  0  0  0  0  0  0  0  0
   36.9610   28.7490   42.6270 N   0  0  0  0  0  0  0  0  0  0  0  0
   38.6660   25.3680   41.8860 H   0  0  0  0  0  0  0  0  0  0  0  0
   38.1800   28.6120   44.4450 H   0  0  0  0  0  0  0  0  0  0  0  0
   37.0500   26.2020   39.8800 C   0  0  0  0  0  0  0  0  0  0  0  0
   37.7130   25.1260   39.3780 C   0  0  0  0  0  0  0  0  0  0  0  0
   36.3570   24.7740   39.9240 C   0  0  0  0  0  0  0  0  0  0  0  0
   36.6740   26.8670   39.0800 H   0  0  0  0  0  0  0  0  0  0  0  0
   38.5500   24.6640   39.9820 H   0  0  0  0  0  0  0  0  0  0  0  0
   37.8450   24.8030   38.3180 H   0  0  0  0  0  0  0  0  0  0  0  0
   36.2740   24.3700   40.9400 H   0  0  0  0  0  0  0  0  0  0  0  0
   35.5220   24.6530   39.2260 H   0  0  0  0  0  0  0  0  0  0  0  0
   35.6710   28.7830   40.7910 C   0  0  0  0  0  0  0  0  0  0  0  0
   34.5340   28.9780   40.4420 O   0  0  0  0  0  0  0  0  0  0  0  0
   36.3240   28.6220   37.7830 Cl  0  0  0  0  0  0  0  0  0  0  0  0
   36.6720   30.0510   38.7600 C   0  0  0  0  0  0  0  0  0  0  0  0
   36.2990   29.9540   40.1170 C   0  0  0  0  0  0  0  0  0  0  0  0
   36.6150   31.1250   40.7900 C   0  0  0  0  0  0  0  0  0  0  0  0
   37.1910   32.2480   40.3400 C   0  0  0  0  0  0  0  0  0  0  0  0
   37.5210   32.2580   39.0140 C   0  0  0  0  0  0  0  0  0  0  0  0
   37.2740   31.1930   38.2240 C   0  0  0  0  0  0  0  0  0  0  0  0
   36.3570   31.2320   41.8660 H   0  0  0  0  0  0  0  0  0  0  0  0
   37.4180   33.1310   40.9040 H   0  0  0  0  0  0  0  0  0  0  0  0
   37.9910   33.0820   38.4930 H   0  0  0  0  0  0  0  0  0  0  0  0
   37.6000   31.1380   36.7980 C   0  0  0  0  0  0  0  0  0  0  0  0
   37.8940   30.2430   36.2950 H   0  0  0  0  0  0  0  0  0  0  0  0
   37.5580   32.1320   36.0640 O   0  0  0  0  0  0  0  0  0  0  0  0
  1  6  1  0  0  0  0
  2  1  2  0  0  0  0
  2  3  1  0  0  0  0
  3  4  2  0  0  0  0
  4  5  1  0  0  0  0
  5  8  1  0  0  0  0
  6  5  2  0  0  0  0
  7  3  1  0  0  0  0
  9 11  1  0  0  0  0
  9  2  1  0  0  0  0
 10  9  1  0  0  0  0
 10 11  1  0  0  0  0
 10 13  1  0  0  0  0
 11 15  1  0  0  0  0
 12  9  1  0  0  0  0
 14 10  1  0  0  0  0
 16 11  1  0  0  0  0
 17  1  1  0  0  0  0
 18 17  2  0  0  0  0
 19 20  1  0  0  0  0
 20 21  1  0  0  0  0
 21 22  2  0  0  0  0
 21 17  1  0  0  0  0
 22 26  1  0  0  0  0
 23 22  1  0  0  0  0
 23 27  1  0  0  0  0
 24 23  2  0  0  0  0
 25 20  2  0  0  0  0
 25 24  1  0  0  0  0
 28 24  1  0  0  0  0
 29 25  1  0  0  0  0
 30 29  1  0  0  0  0
 31 29  2  0  0  0  0
M  END
>  <minimizedAffinity>
-4.92239475

$$$$

 OpenBabel03242523213D

 31 33  0  0  0  0  0  0  0  0999 V2000
   37.0440   26.3720   41.6400 C   0  0  0  0  0  0  0  0  0  0  0  0
   36.7190   26.7060   40.3830 C   0  0  0  0  0  0  0  0  0  0  0  0
   36.5320   25.6340   39.5350 C   0  0  0  0  0  0  0  0  0  0  0  0
   36.6960   24.3380   40.0480 N   0  0  0  0  0  0  0  0  0  0  0  0
   37.0200   24.0850   41.2920 C   0  0  0  0  0  0  0  0  0  0  0  0
   37.2130   25.1330   42.1720 N   0  0  0  0  0  0  0  0  0  0  0  0
   36.2600   25.7160   38.4790 H   0  0  0  0  0  0  0  0  0  0  0  0
   37.1140   23.0340   41.5430 H   0  0  0  0  0  0  0  0  0  0  0  0
   36.6700   28.0180   39.8440 C   0  0  0  0  0  0  0  0  0  0  0  0
   35.9760   28.4620   38.7610 C   0  0  0  0  0  0  0  0  0  0  0  0
   35.3230   28.8310   40.0650 C   0  0  0  0  0  0  0  0  0  0  0  0
   37.5910   28.6070   40.0160 H   0  0  0  0  0  0  0  0  0  0  0  0
   35.3570   27.7280   38.1650 H   0  0  0  0  0  0  0  0  0  0  0  0
   36.1640   29.3490   38.1100 H   0  0  0  0  0  0  0  0  0  0  0  0
   34.5070   28.2090   40.4520 H   0  0  0  0  0  0  0  0  0  0  0  0
   35.4630   29.8430   40.4580 H   0  0  0  0  0  0  0  0  0  0  0  0
   37.2090   27.2950   42.7730 C   0  0  0  0  0  0  0  0  0  0  0  0
   36.7940   27.9730   43.6790 O   0  0  0  0  0  0  0  0  0  0  0  0
   38.3030   30.0290   41.8640 Cl  0  0  0  0  0  0  0  0  0  0  0  0
   39.3280   28.7780   42.5720 C   0  0  0  0  0  0  0  0  0  0  0  0
   38.6600   27.5910   42.9380 C   0  0  0  0  0  0  0  0  0  0  0  0
   39.5530   26.6800   43.4810 C   0  0  0  0  0  0  0  0  0  0  0  0
   40.8740   26.7840   43.6790 C   0  0  0  0  0  0  0  0  0  0  0  0
   41.4440   27.9650   43.2950 C   0  0  0  0  0  0  0  0  0  0  0  0
   40.7030   28.9540   42.7520 C   0  0  0  0  0  0  0  0  0  0  0  0
   39.1850   25.7000   43.8550 H   0  0  0  0  0  0  0  0  0  0  0  0
   41.5270   26.0450   44.1020 H   0  0  0  0  0  0  0  0  0  0  0  0
   42.4930   28.2120   43.3850 H   0  0  0  0  0  0  0  0  0  0  0  0
   41.2480   30.2430   42.3230 C   0  0  0  0  0  0  0  0  0  0  0  0
   41.4170   30.4990   41.3000 H   0  0  0  0  0  0  0  0  0  0  0  0
   41.5540   31.1380   43.1180 O   0  0  0  0  0  0  0  0  0  0  0  0
  1  6  1  0  0  0  0
  1 17  1  0  0  0  0
  2  1  2  0  0  0  0
  3  4  2  0  0  0  0
  3  2  1  0  0  0  0
  4  5  1  0  0  0  0
  5  8  1  0  0  0  0
  5  6  2  0  0  0  0
  7  3  1  0  0  0  0
  9 12  1  0  0  0  0
  9 11  1  0  0  0  0
  9  2  1  0  0  0  0
 10  9  1  0  0  0  0
 10 11  1  0  0  0  0
 11 15  1  0  0  0  0
 11 16  1  0  0  0  0
 13 10  1  0  0  0  0
 14 10  1  0  0  0  0
 17 21  1  0  0  0  0
 17 18  2  0  0  0  0
 19 20  1  0  0  0  0
 20 25  2  0  0  0  0
 20 21  1  0  0  0  0
 21 22  2  0  0  0  0
 22 23  1  0  0  0  0
 22 26  1  0  0  0  0
 23 27  1  0  0  0  0
 24 28  1  0  0  0  0
 24 23  2  0  0  0  0
 25 24  1  0  0  0  0
 29 25  1  0  0  0  0
 29 31  2  0  0  0  0
 30 29  1  0  0  0  0
M  END
>  <minimizedAffinity>
-4.86580658

$$$$

 OpenBabel03242523213D

 31 33  0  0  0  0  0  0  0  0999 V2000
   38.9950   27.1130   41.7710 C   0  0  0  0  0  0  0  0  0  0  0  0
   38.6260   25.9770   41.1610 C   0  0  0  0  0  0  0  0  0  0  0  0
   39.6460   25.3220   40.5030 C   0  0  0  0  0  0  0  0  0  0  0  0
   40.9300   25.8870   40.5290 N   0  0  0  0  0  0  0  0  0  0  0  0
   41.2190   27.0070   41.1450 C   0  0  0  0  0  0  0  0  0  0  0  0
   40.2240   27.6900   41.8170 N   0  0  0  0  0  0  0  0  0  0  0  0
   39.5310   24.3830   39.9550 H   0  0  0  0  0  0  0  0  0  0  0  0
   42.2550   27.3210   41.0760 H   0  0  0  0  0  0  0  0  0  0  0  0
   37.3040   25.4750   41.0410 C   0  0  0  0  0  0  0  0  0  0  0  0
   36.9040   24.2080   40.7500 C   0  0  0  0  0  0  0  0  0  0  0  0
   36.7870   24.5360   42.2130 C   0  0  0  0  0  0  0  0  0  0  0  0
   36.5680   26.2290   40.7020 H   0  0  0  0  0  0  0  0  0  0  0  0
   37.6860   23.4150   40.5520 H   0  0  0  0  0  0  0  0  0  0  0  0
   35.9420   23.8470   40.3140 H   0  0  0  0  0  0  0  0  0  0  0  0
   37.5850   24.2300   42.8990 H   0  0  0  0  0  0  0  0  0  0  0  0
   35.8060   24.8110   42.6150 H   0  0  0  0  0  0  0  0  0  0  0  0
   38.1460   27.9620   42.6200 C   0  0  0  0  0  0  0  0  0  0  0  0
   37.6830   28.3060   43.6790 O   0  0  0  0  0  0  0  0  0  0  0  0
   39.4140   30.7450   42.2360 Cl  0  0  0  0  0  0  0  0  0  0  0  0
   37.8890   30.2780   41.4790 C   0  0  0  0  0  0  0  0  0  0  0  0
   37.4590   28.9630   41.7560 C   0  0  0  0  0  0  0  0  0  0  0  0
   36.2580   28.7000   41.1160 C   0  0  0  0  0  0  0  0  0  0  0  0
   35.5120   29.4880   40.3290 C   0  0  0  0  0  0  0  0  0  0  0  0
   35.9980   30.7460   40.1120 C   0  0  0  0  0  0  0  0  0  0  0  0
   37.1610   31.1510   40.6650 C   0  0  0  0  0  0  0  0  0  0  0  0
   35.7940   27.6940   41.2010 H   0  0  0  0  0  0  0  0  0  0  0  0
   34.5820   29.2390   39.8560 H   0  0  0  0  0  0  0  0  0  0  0  0
   35.5230   31.5050   39.5050 H   0  0  0  0  0  0  0  0  0  0  0  0
   37.7400   32.4820   40.4730 C   0  0  0  0  0  0  0  0  0  0  0  0
   38.6040   32.8300   40.9950 H   0  0  0  0  0  0  0  0  0  0  0  0
   37.2670   33.3090   39.6840 O   0  0  0  0  0  0  0  0  0  0  0  0
  1  6  1  0  0  0  0
  1 17  1  0  0  0  0
  2  1  2  0  0  0  0
  3  4  2  0  0  0  0
  3  2  1  0  0  0  0
  4  5  1  0  0  0  0
  5  6  2  0  0  0  0
  7  3  1  0  0  0  0
  8  5  1  0  0  0  0
  9  2  1  0  0  0  0
  9 11  1  0  0  0  0
 10  9  1  0  0  0  0
 10 11  1  0  0  0  0
 11 16  1  0  0  0  0
 11 15  1  0  0  0  0
 12  9  1  0  0  0  0
 13 10  1  0  0  0  0
 14 10  1  0  0  0  0
 17 18  2  0  0  0  0
 20 21  1  0  0  0  0
 20 19  1  0  0  0  0
 21 17  1  0  0  0  0
 22 26  1  0  0  0  0
 22 21  2  0  0  0  0
 23 22  1  0  0  0  0
 24 23  2  0  0  0  0
 24 25  1  0  0  0  0
 25 20  2  0  0  0  0
 27 23  1  0  0  0  0
 28 24  1  0  0  0  0
 29 25  1  0  0  0  0
 29 30  1  0  0  0  0
 31 29  2  0  0  0  0
M  END
>  <minimizedAffinity>
-4.86135721

$$$$

 OpenBabel03242523213D

 31 33  0  0  0  0  0  0  0  0999 V2000
   38.3480   26.2670   42.6400 C   0  0  0  0  0  0  0  0  0  0  0  0
   38.3200   25.2540   41.7630 C   0  0  0  0  0  0  0  0  0  0  0  0
   39.3780   24.3750   41.8680 C   0  0  0  0  0  0  0  0  0  0  0  0
   40.3530   24.6160   42.8480 N   0  0  0  0  0  0  0  0  0  0  0  0
   40.3180   25.6330   43.6730 C   0  0  0  0  0  0  0  0  0  0  0  0
   39.2730   26.5340   43.5990 N   0  0  0  0  0  0  0  0  0  0  0  0
   39.5170   23.4920   41.2390 H   0  0  0  0  0  0  0  0  0  0  0  0
   41.1430   25.6910   44.3750 H   0  0  0  0  0  0  0  0  0  0  0  0
   37.3950   25.0830   40.7010 C   0  0  0  0  0  0  0  0  0  0  0  0
   37.2860   24.0400   39.8340 C   0  0  0  0  0  0  0  0  0  0  0  0
   36.2460   24.0080   40.9200 C   0  0  0  0  0  0  0  0  0  0  0  0
   37.0510   26.0330   40.2500 H   0  0  0  0  0  0  0  0  0  0  0  0
   38.0140   23.1790   39.9140 H   0  0  0  0  0  0  0  0  0  0  0  0
   36.8390   24.0080   38.8110 H   0  0  0  0  0  0  0  0  0  0  0  0
   36.4110   23.3810   41.8030 H   0  0  0  0  0  0  0  0  0  0  0  0
   35.2370   24.3700   40.6950 H   0  0  0  0  0  0  0  0  0  0  0  0
   37.3100   27.2930   42.8210 C   0  0  0  0  0  0  0  0  0  0  0  0
   36.2300   27.6800   43.1920 O   0  0  0  0  0  0  0  0  0  0  0  0
   36.3970   28.1570   40.0070 Cl  0  0  0  0  0  0  0  0  0  0  0  0
   37.5040   29.1210   40.9890 C   0  0  0  0  0  0  0  0  0  0  0  0
   37.8090   28.5790   42.2550 C   0  0  0  0  0  0  0  0  0  0  0  0
   38.6810   29.4100   42.9410 C   0  0  0  0  0  0  0  0  0  0  0  0
   39.2290   30.5750   42.5700 C   0  0  0  0  0  0  0  0  0  0  0  0
   38.8830   31.0290   41.3290 C   0  0  0  0  0  0  0  0  0  0  0  0
   38.0390   30.3320   40.5400 C   0  0  0  0  0  0  0  0  0  0  0  0
   38.9990   29.1490   43.9730 H   0  0  0  0  0  0  0  0  0  0  0  0
   39.9050   31.1840   43.1380 H   0  0  0  0  0  0  0  0  0  0  0  0
   39.2350   31.9480   40.8780 H   0  0  0  0  0  0  0  0  0  0  0  0
   37.6250   30.7610   39.2030 C   0  0  0  0  0  0  0  0  0  0  0  0
   38.0140   30.3390   38.3030 H   0  0  0  0  0  0  0  0  0  0  0  0
   36.7860   31.6500   39.0160 O   0  0  0  0  0  0  0  0  0  0  0  0
  1 17  1  0  0  0  0
  1  6  1  0  0  0  0
  2  3  1  0  0  0  0
  2  1  2  0  0  0  0
  3  4  2  0  0  0  0
  4  5  1  0  0  0  0
  5  8  1  0  0  0  0
  6  5  2  0  0  0  0
  7  3  1  0  0  0  0
  9 11  1  0  0  0  0
  9  2  1  0  0  0  0
 10 13  1  0  0  0  0
 10  9  1  0  0  0  0
 10 11  1  0  0  0  0
 11 15  1  0  0  0  0
 12  9  1  0  0  0  0
 14 10  1  0  0  0  0
 16 11  1  0  0  0  0
 17 18  2  0  0  0  0
 19 20  1  0  0  0  0
 20 21  1  0  0  0  0
 21 17  1  0  0  0  0
 21 22  2  0  0  0  0
 22 26  1  0  0  0  0
 23 22  1  0  0  0  0
 23 27  1  0  0  0  0
 24 23  2  0  0  0  0
 25 20  2  0  0  0  0
 25 24  1  0  0  0  0
 28 24  1  0  0  0  0
 29 25  1  0  0  0  0
 30 29  1  0  0  0  0
 31 29  2  0  0  0  0
M  END
>  <minimizedAffinity>
-4.84127903

$$$$

 OpenBabel03242523213D

 31 33  0  0  0  0  0  0  0  0999 V2000
   36.9930   28.9550   41.1270 C   0  0  0  0  0  0  0  0  0  0  0  0
   37.8130   29.4700   40.2010 C   0  0  0  0  0  0  0  0  0  0  0  0
   37.1930   29.8340   39.0240 C   0  0  0  0  0  0  0  0  0  0  0  0
   35.8090   29.6360   38.9080 N   0  0  0  0  0  0  0  0  0  0  0  0
   35.0660   29.1210   39.8570 C   0  0  0  0  0  0  0  0  0  0  0  0
   35.6520   28.7460   41.0510 N   0  0  0  0  0  0  0  0  0  0  0  0
   37.7030   30.2730   38.1620 H   0  0  0  0  0  0  0  0  0  0  0  0
   34.0120   29.0250   39.6220 H   0  0  0  0  0  0  0  0  0  0  0  0
   39.2270   29.5590   40.2820 C   0  0  0  0  0  0  0  0  0  0  0  0
   40.0690   30.3360   39.5490 C   0  0  0  0  0  0  0  0  0  0  0  0
   39.8240   30.8810   40.9300 C   0  0  0  0  0  0  0  0  0  0  0  0
   39.7150   28.6250   40.6200 H   0  0  0  0  0  0  0  0  0  0  0  0
   39.6410   31.0050   38.7440 H   0  0  0  0  0  0  0  0  0  0  0  0
   41.1550   30.1990   39.3290 H   0  0  0  0  0  0  0  0  0  0  0  0
   39.0710   31.6640   41.0730 H   0  0  0  0  0  0  0  0  0  0  0  0
   40.5760   30.7060   41.7070 H   0  0  0  0  0  0  0  0  0  0  0  0
   37.3570   28.5720   42.4990 C   0  0  0  0  0  0  0  0  0  0  0  0
   37.4830   28.7830   43.6790 O   0  0  0  0  0  0  0  0  0  0  0  0
   40.3180   27.9930   43.1290 Cl  0  0  0  0  0  0  0  0  0  0  0  0
   39.1590   26.7200   42.7400 C   0  0  0  0  0  0  0  0  0  0  0  0
   37.8440   27.1630   42.4860 C   0  0  0  0  0  0  0  0  0  0  0  0
   37.0190   26.0880   42.1930 C   0  0  0  0  0  0  0  0  0  0  0  0
   37.3020   24.7800   42.1220 C   0  0  0  0  0  0  0  0  0  0  0  0
   38.5980   24.4360   42.3810 C   0  0  0  0  0  0  0  0  0  0  0  0
   39.5220   25.3710   42.6860 C   0  0  0  0  0  0  0  0  0  0  0  0
   35.9370   26.2570   42.0000 H   0  0  0  0  0  0  0  0  0  0  0  0
   36.6250   23.9820   41.8870 H   0  0  0  0  0  0  0  0  0  0  0  0
   38.9930   23.4290   42.3660 H   0  0  0  0  0  0  0  0  0  0  0  0
   40.9260   25.0720   42.9750 C   0  0  0  0  0  0  0  0  0  0  0  0
   41.2880   24.8360   43.9520 H   0  0  0  0  0  0  0  0  0  0  0  0
   41.8020   25.0690   42.1040 O   0  0  0  0  0  0  0  0  0  0  0  0
  1 17  1  0  0  0  0
  2  9  1  0  0  0  0
  2  1  2  0  0  0  0
  3  2  1  0  0  0  0
  4  3  2  0  0  0  0
  4  5  1  0  0  0  0
  5  6  2  0  0  0  0
  6  1  1  0  0  0  0
  7  3  1  0  0  0  0
  8  5  1  0  0  0  0
  9 12  1  0  0  0  0
  9 11  1  0  0  0  0
 10  9  1  0  0  0  0
 10 11  1  0  0  0  0
 11 15  1  0  0  0  0
 11 16  1  0  0  0  0
 13 10  1  0  0  0  0
 14 10  1  0  0  0  0
 17 18  2  0  0  0  0
 20 19  1  0  0  0  0
 21 17  1  0  0  0  0
 21 20  2  0  0  0  0
 22 21  1  0  0  0  0
 23 22  2  0  0  0  0
 23 24  1  0  0  0  0
 24 25  2  0  0  0  0
 25 20  1  0  0  0  0
 25 29  1  0  0  0  0
 26 22  1  0  0  0  0
 27 23  1  0  0  0  0
 28 24  1  0  0  0  0
 29 30  1  0  0  0  0
 31 29  2  0  0  0  0
M  END
>  <minimizedAffinity>
-4.81011915

$$$$

 OpenBabel03242523213D

 31 33  0  0  0  0  0  0  0  0999 V2000
   38.7920   27.5460   43.1660 C   0  0  0  0  0  0  0  0  0  0  0  0
   39.5830   28.5930   42.8940 C   0  0  0  0  0  0  0  0  0  0  0  0
   40.9330   28.3420   43.0240 C   0  0  0  0  0  0  0  0  0  0  0  0
   41.3390   27.0580   43.4170 N   0  0  0  0  0  0  0  0  0  0  0  0
   40.5070   26.0780   43.6710 C   0  0  0  0  0  0  0  0  0  0  0  0
   39.1470   26.2920   43.5500 N   0  0  0  0  0  0  0  0  0  0  0  0
   41.7230   29.0750   42.8400 H   0  0  0  0  0  0  0  0  0  0  0  0
   40.9670   25.1420   43.9680 H   0  0  0  0  0  0  0  0  0  0  0  0
   39.1600   29.9180   42.6120 C   0  0  0  0  0  0  0  0  0  0  0  0
   39.9180   31.0440   42.5110 C   0  0  0  0  0  0  0  0  0  0  0  0
   39.5150   30.4900   41.1730 C   0  0  0  0  0  0  0  0  0  0  0  0
   38.1310   30.1420   42.9500 H   0  0  0  0  0  0  0  0  0  0  0  0
   41.0330   30.9750   42.6850 H   0  0  0  0  0  0  0  0  0  0  0  0
   39.6240   32.1130   42.6380 H   0  0  0  0  0  0  0  0  0  0  0  0
   40.2160   29.8530   40.6210 H   0  0  0  0  0  0  0  0  0  0  0  0
   38.6710   30.9460   40.6450 H   0  0  0  0  0  0  0  0  0  0  0  0
   37.3290   27.4960   43.0200 C   0  0  0  0  0  0  0  0  0  0  0  0
   36.2020   27.5520   43.4430 O   0  0  0  0  0  0  0  0  0  0  0  0
   36.0760   29.7480   41.3290 Cl  0  0  0  0  0  0  0  0  0  0  0  0
   36.4220   28.1440   40.6770 C   0  0  0  0  0  0  0  0  0  0  0  0
   37.0030   27.2380   41.5890 C   0  0  0  0  0  0  0  0  0  0  0  0
   37.2320   26.0150   40.9770 C   0  0  0  0  0  0  0  0  0  0  0  0
   36.9820   25.6210   39.7210 C   0  0  0  0  0  0  0  0  0  0  0  0
   36.4170   26.5580   38.9030 C   0  0  0  0  0  0  0  0  0  0  0  0
   36.1360   27.7990   39.3520 C   0  0  0  0  0  0  0  0  0  0  0  0
   37.7190   25.1940   41.5460 H   0  0  0  0  0  0  0  0  0  0  0  0
   37.1760   24.6570   39.2930 H   0  0  0  0  0  0  0  0  0  0  0  0
   36.1520   26.4050   37.8660 H   0  0  0  0  0  0  0  0  0  0  0  0
   35.5340   28.8510   38.5310 C   0  0  0  0  0  0  0  0  0  0  0  0
   34.4810   29.0100   38.4560 H   0  0  0  0  0  0  0  0  0  0  0  0
   36.2060   29.6400   37.8570 O   0  0  0  0  0  0  0  0  0  0  0  0
  1  6  1  0  0  0  0
  2  3  1  0  0  0  0
  2  1  2  0  0  0  0
  3  4  2  0  0  0  0
  4  5  1  0  0  0  0
  5  8  1  0  0  0  0
  6  5  2  0  0  0  0
  7  3  1  0  0  0  0
  9  2  1  0  0  0  0
  9 12  1  0  0  0  0
 10  9  1  0  0  0  0
 10 14  1  0  0  0  0
 10 13  1  0  0  0  0
 11 10  1  0  0  0  0
 11  9  1  0  0  0  0
 15 11  1  0  0  0  0
 16 11  1  0  0  0  0
 17  1  1  0  0  0  0
 17 18  2  0  0  0  0
 20 19  1  0  0  0  0
 20 21  1  0  0  0  0
 21 17  1  0  0  0  0
 22 26  1  0  0  0  0
 22 21  2  0  0  0  0
 23 22  1  0  0  0  0
 24 25  1  0  0  0  0
 24 23  2  0  0  0  0
 25 20  2  0  0  0  0
 27 23  1  0  0  0  0
 28 24  1  0  0  0  0
 29 25  1  0  0  0  0
 30 29  1  0  0  0  0
 31 29  2  0  0  0  0
M  END
>  <minimizedAffinity>
-4.79725027

$$$$
