
 OpenBabel03242523193D

 31 33  0  0  0  0  0  0  0  0999 V2000
   47.3920   32.8150   44.0280 C   0  0  0  0  0  0  0  0  0  0  0  0
   48.2450   33.3150   43.1230 C   0  0  0  0  0  0  0  0  0  0  0  0
   49.0940   32.3850   42.5600 C   0  0  0  0  0  0  0  0  0  0  0  0
   48.9910   31.0480   42.9730 N   0  0  0  0  0  0  0  0  0  0  0  0
   48.1320   30.6290   43.8700 C   0  0  0  0  0  0  0  0  0  0  0  0
   47.2640   31.5310   44.4540 N   0  0  0  0  0  0  0  0  0  0  0  0
   49.8510   32.6100   41.8040 H   0  0  0  0  0  0  0  0  0  0  0  0
   48.1710   29.5680   44.0910 H   0  0  0  0  0  0  0  0  0  0  0  0
   48.4220   34.6840   42.7960 C   0  0  0  0  0  0  0  0  0  0  0  0
   49.4520   35.2670   42.1260 C   0  0  0  0  0  0  0  0  0  0  0  0
   48.2280   35.0860   41.2720 C   0  0  0  0  0  0  0  0  0  0  0  0
   47.9500   35.3800   43.5150 H   0  0  0  0  0  0  0  0  0  0  0  0
   50.3160   34.6260   41.7770 H   0  0  0  0  0  0  0  0  0  0  0  0
   49.8070   36.3260   42.1470 H   0  0  0  0  0  0  0  0  0  0  0  0
   48.1600   34.2180   40.6060 H   0  0  0  0  0  0  0  0  0  0  0  0
   47.5660   35.9430   41.1090 H   0  0  0  0  0  0  0  0  0  0  0  0
   46.3190   33.5500   44.7130 C   0  0  0  0  0  0  0  0  0  0  0  0
   45.7370   33.9410   45.6940 O   0  0  0  0  0  0  0  0  0  0  0  0
   44.5660   31.7380   42.9390 Cl  0  0  0  0  0  0  0  0  0  0  0  0
   44.5800   33.4970   42.7870 C   0  0  0  0  0  0  0  0  0  0  0  0
   45.4360   34.1700   43.6850 C   0  0  0  0  0  0  0  0  0  0  0  0
   45.3710   35.5400   43.4820 C   0  0  0  0  0  0  0  0  0  0  0  0
   44.6510   36.2450   42.5990 C   0  0  0  0  0  0  0  0  0  0  0  0
   43.8500   35.5180   41.7650 C   0  0  0  0  0  0  0  0  0  0  0  0
   43.8010   34.1720   41.8430 C   0  0  0  0  0  0  0  0  0  0  0  0
   45.9590   36.2250   44.1310 H   0  0  0  0  0  0  0  0  0  0  0  0
   44.6370   37.3110   42.4770 H   0  0  0  0  0  0  0  0  0  0  0  0
   43.2070   35.9290   40.9980 H   0  0  0  0  0  0  0  0  0  0  0  0
   42.9640   33.3320   40.9840 C   0  0  0  0  0  0  0  0  0  0  0  0
   42.3910   32.5060   41.3430 H   0  0  0  0  0  0  0  0  0  0  0  0
   42.8580   33.5190   39.7660 O   0  0  0  0  0  0  0  0  0  0  0  0
  1  6  1  0  0  0  0
  1 17  1  0  0  0  0
  2  1  2  0  0  0  0
  3  4  2  0  0  0  0
  3  2  1  0  0  0  0
  4  5  1  0  0  0  0
  5  8  1  0  0  0  0
  5  6  2  0  0  0  0
  7  3  1  0  0  0  0
  9  2  1  0  0  0  0
  9 12  1  0  0  0  0
 10 14  1  0  0  0  0
 10  9  1  0  0  0  0
 11 10  1  0  0  0  0
 11  9  1  0  0  0  0
 13 10  1  0  0  0  0
 15 11  1  0  0  0  0
 16 11  1  0  0  0  0
 17 18  2  0  0  0  0
 20 19  1  0  0  0  0
 20 21  1  0  0  0  0
 21 17  1  0  0  0  0
 22 21  2  0  0  0  0
 22 26  1  0  0  0  0
 23 22  1  0  0  0  0
 24 25  1  0  0  0  0
 24 23  2  0  0  0  0
 25 20  2  0  0  0  0
 27 23  1  0  0  0  0
 28 24  1  0  0  0  0
 29 30  1  0  0  0  0
 29 25  1  0  0  0  0
 31 29  2  0  0  0  0
M  END
>  <minimizedAffinity>
-4.94598293

>  <minimizedRMSD>
0.265658289

$$$$
