
 OpenBabel03242521213D

 30 32  0  0  0  0  0  0  0  0999 V2000
   45.9680   33.6150   45.0520 C   0  0  0  0  0  0  0  0  0  0  0  0
   45.1430   34.6560   45.3270 C   0  0  0  0  0  0  0  0  0  0  0  0
   44.8060   35.6270   44.4090 C   0  0  0  0  0  0  0  0  0  0  0  0
   45.3480   35.4980   43.1830 N   0  0  0  0  0  0  0  0  0  0  0  0
   46.1630   34.4740   42.9020 C   0  0  0  0  0  0  0  0  0  0  0  0
   46.4970   33.5130   43.8110 N   0  0  0  0  0  0  0  0  0  0  0  0
   44.7230   34.7320   46.3230 H   0  0  0  0  0  0  0  0  0  0  0  0
   44.1520   36.4580   44.6190 H   0  0  0  0  0  0  0  0  0  0  0  0
   46.7540   34.3400   41.5520 C   0  0  0  0  0  0  0  0  0  0  0  0
   46.0860   33.6550   40.5730 C   0  0  0  0  0  0  0  0  0  0  0  0
   46.5790   33.4910   39.2940 C   0  0  0  0  0  0  0  0  0  0  0  0
   47.8140   34.0520   38.9920 C   0  0  0  0  0  0  0  0  0  0  0  0
   48.4780   34.7330   39.9630 C   0  0  0  0  0  0  0  0  0  0  0  0
   47.9890   34.8980   41.2440 C   0  0  0  0  0  0  0  0  0  0  0  0
   45.1260   33.2220   40.8180 H   0  0  0  0  0  0  0  0  0  0  0  0
   45.9830   32.9310   38.5710 H   0  0  0  0  0  0  0  0  0  0  0  0
   48.2180   33.9350   37.9930 H   0  0  0  0  0  0  0  0  0  0  0  0
   49.4380   35.1590   39.7010 H   0  0  0  0  0  0  0  0  0  0  0  0
   48.7380   35.6380   42.2580 C   0  0  0  0  0  0  0  0  0  0  0  0
   48.3980   36.5960   42.5720 H   0  0  0  0  0  0  0  0  0  0  0  0
   49.7740   35.1130   42.7370 O   0  0  0  0  0  0  0  0  0  0  0  0
   46.2170   30.3760   46.7530 C   0  0  0  0  0  0  0  0  0  0  0  0
   46.9000   30.7110   47.9220 C   0  0  0  0  0  0  0  0  0  0  0  0
   47.2760   32.0370   48.1320 C   0  0  0  0  0  0  0  0  0  0  0  0
   46.9560   32.9620   47.1710 N   0  0  0  0  0  0  0  0  0  0  0  0
   46.2950   32.6110   46.0530 C   0  0  0  0  0  0  0  0  0  0  0  0
   45.9350   31.3400   45.8520 N   0  0  0  0  0  0  0  0  0  0  0  0
   45.8920   29.3660   46.5190 H   0  0  0  0  0  0  0  0  0  0  0  0
   47.1240   29.9360   48.6410 H   0  0  0  0  0  0  0  0  0  0  0  0
   47.8090   32.3290   49.0340 H   0  0  0  0  0  0  0  0  0  0  0  0
  1  2  1  0  0  0  0
  1 26  1  0  0  0  0
  2  7  1  0  0  0  0
  3  8  1  0  0  0  0
  3  2  2  0  0  0  0
  4  3  1  0  0  0  0
  5  4  2  0  0  0  0
  5  6  1  0  0  0  0
  6  1  2  0  0  0  0
  9  5  1  0  0  0  0
 10 15  1  0  0  0  0
 10  9  2  0  0  0  0
 11 10  1  0  0  0  0
 12 11  2  0  0  0  0
 12 13  1  0  0  0  0
 13 14  2  0  0  0  0
 14  9  1  0  0  0  0
 14 19  1  0  0  0  0
 16 11  1  0  0  0  0
 17 12  1  0  0  0  0
 18 13  1  0  0  0  0
 19 20  1  0  0  0  0
 19 21  2  0  0  0  0
 22 23  1  0  0  0  0
 23 24  2  0  0  0  0
 23 29  1  0  0  0  0
 24 30  1  0  0  0  0
 25 24  1  0  0  0  0
 26 25  2  0  0  0  0
 27 26  1  0  0  0  0
 27 22  2  0  0  0  0
 28 22  1  0  0  0  0
M  END
>  <minimizedAffinity>
-5.59799862

>  <minimizedRMSD>
0.752930224

$$$$
