
 OpenBabel03242521213D

 30 32  0  0  0  0  0  0  0  0999 V2000
   45.9170   33.6090   44.9090 C   0  0  0  0  0  0  0  0  0  0  0  0
   45.1340   34.6820   45.1870 C   0  0  0  0  0  0  0  0  0  0  0  0
   44.8030   35.6460   44.2600 C   0  0  0  0  0  0  0  0  0  0  0  0
   45.3040   35.4760   43.0210 N   0  0  0  0  0  0  0  0  0  0  0  0
   46.0780   34.4210   42.7380 C   0  0  0  0  0  0  0  0  0  0  0  0
   46.4060   33.4660   43.6560 N   0  0  0  0  0  0  0  0  0  0  0  0
   44.7460   34.7900   46.1930 H   0  0  0  0  0  0  0  0  0  0  0  0
   44.1820   36.5010   44.4720 H   0  0  0  0  0  0  0  0  0  0  0  0
   46.6250   34.2420   41.3740 C   0  0  0  0  0  0  0  0  0  0  0  0
   45.9130   33.5470   40.4340 C   0  0  0  0  0  0  0  0  0  0  0  0
   46.3630   33.3420   39.1450 C   0  0  0  0  0  0  0  0  0  0  0  0
   47.6000   33.8700   38.7920 C   0  0  0  0  0  0  0  0  0  0  0  0
   48.3070   34.5590   39.7260 C   0  0  0  0  0  0  0  0  0  0  0  0
   47.8600   34.7660   41.0170 C   0  0  0  0  0  0  0  0  0  0  0  0
   44.9520   33.1410   40.7170 H   0  0  0  0  0  0  0  0  0  0  0  0
   45.7350   32.7780   38.4540 H   0  0  0  0  0  0  0  0  0  0  0  0
   47.9710   33.7210   37.7840 H   0  0  0  0  0  0  0  0  0  0  0  0
   49.2660   34.9590   39.4250 H   0  0  0  0  0  0  0  0  0  0  0  0
   48.6540   35.5140   41.9890 C   0  0  0  0  0  0  0  0  0  0  0  0
   48.6290   35.2390   43.0160 H   0  0  0  0  0  0  0  0  0  0  0  0
   49.3530   36.4750   41.5780 O   0  0  0  0  0  0  0  0  0  0  0  0
   46.1770   30.3820   46.6310 C   0  0  0  0  0  0  0  0  0  0  0  0
   46.8380   30.7310   47.8080 C   0  0  0  0  0  0  0  0  0  0  0  0
   47.1970   32.0610   48.0170 C   0  0  0  0  0  0  0  0  0  0  0  0
   46.8800   32.9780   47.0470 N   0  0  0  0  0  0  0  0  0  0  0  0
   46.2410   32.6140   45.9200 C   0  0  0  0  0  0  0  0  0  0  0  0
   45.8970   31.3380   45.7200 N   0  0  0  0  0  0  0  0  0  0  0  0
   45.8670   29.3670   46.3970 H   0  0  0  0  0  0  0  0  0  0  0  0
   47.0600   29.9620   48.5350 H   0  0  0  0  0  0  0  0  0  0  0  0
   47.7130   32.3640   48.9250 H   0  0  0  0  0  0  0  0  0  0  0  0
  1  2  1  0  0  0  0
  1 26  1  0  0  0  0
  2  7  1  0  0  0  0
  3  8  1  0  0  0  0
  3  2  2  0  0  0  0
  4  3  1  0  0  0  0
  5  4  2  0  0  0  0
  5  6  1  0  0  0  0
  6  1  2  0  0  0  0
  9  5  1  0  0  0  0
 10 15  1  0  0  0  0
 10  9  2  0  0  0  0
 11 10  1  0  0  0  0
 12 11  2  0  0  0  0
 12 13  1  0  0  0  0
 13 14  2  0  0  0  0
 14  9  1  0  0  0  0
 14 19  1  0  0  0  0
 16 11  1  0  0  0  0
 17 12  1  0  0  0  0
 18 13  1  0  0  0  0
 19 20  1  0  0  0  0
 21 19  2  0  0  0  0
 22 23  1  0  0  0  0
 23 24  2  0  0  0  0
 23 29  1  0  0  0  0
 24 30  1  0  0  0  0
 25 24  1  0  0  0  0
 26 25  2  0  0  0  0
 27 26  1  0  0  0  0
 27 22  2  0  0  0  0
 28 22  1  0  0  0  0
M  END
>  <minimizedAffinity>
-5.68277884

>  <minimizedRMSD>
1.00129712

$$$$
