
 OpenBabel03252503033D

 28 28  0  0  0  0  0  0  0  0999 V2000
   43.6280   35.7500   41.5980 C   0  0  0  0  0  0  0  0  0  0  0  0
   44.6200   36.2140   41.4230 H   0  0  0  0  0  0  0  0  0  0  0  0
   42.8800   36.4140   41.1420 H   0  0  0  0  0  0  0  0  0  0  0  0
   43.3870   35.5590   43.0320 N   0  0  0  0  0  0  0  0  0  0  0  0
   42.6500   36.2540   43.3520 H   0  0  0  0  0  0  0  0  0  0  0  0
   44.7900   35.8540   43.9630 S   0  0  0  0  0  0  0  0  0  0  0  0
   46.0300   35.3430   43.2980 O   0  0  0  0  0  0  0  0  0  0  0  0
   46.1690   34.5350   42.7620 H   0  0  0  0  0  0  0  0  0  0  0  0
   44.9030   37.3630   44.1010 O   0  0  0  0  0  0  0  0  0  0  0  0
   45.3330   37.9970   43.5060 H   0  0  0  0  0  0  0  0  0  0  0  0
   44.6030   35.2230   45.4830 O   0  0  0  0  0  0  0  0  0  0  0  0
   45.3820   34.1010   45.6900 C   0  0  0  0  0  0  0  0  0  0  0  0
   45.7590   33.7050   44.7210 H   0  0  0  0  0  0  0  0  0  0  0  0
   46.2400   34.3750   46.3380 H   0  0  0  0  0  0  0  0  0  0  0  0
   44.8170   33.3040   46.2130 H   0  0  0  0  0  0  0  0  0  0  0  0
   43.5470   34.1480   40.8220 S   0  0  0  0  0  0  0  0  0  0  0  0
   41.5940   32.2400   41.3000 C   0  0  0  0  0  0  0  0  0  0  0  0
   41.8530   33.5350   40.8740 C   0  0  0  0  0  0  0  0  0  0  0  0
   40.8240   34.3680   40.4860 C   0  0  0  0  0  0  0  0  0  0  0  0
   39.5630   33.8730   40.5380 N   0  0  0  0  0  0  0  0  0  0  0  0
   39.3440   32.6040   40.9580 C   0  0  0  0  0  0  0  0  0  0  0  0
   40.3160   31.7840   41.3370 N   0  0  0  0  0  0  0  0  0  0  0  0
   42.3890   31.5920   41.6010 H   0  0  0  0  0  0  0  0  0  0  0  0
   40.9790   35.3840   40.1480 H   0  0  0  0  0  0  0  0  0  0  0  0
   38.0420   32.0940   41.0110 O   0  0  0  0  0  0  0  0  0  0  0  0
   37.7860   30.7340   41.0600 C   0  0  0  0  0  0  0  0  0  0  0  0
   38.4170   29.9690   40.6340 H   0  0  0  0  0  0  0  0  0  0  0  0
   36.7250   30.3450   41.6520 O   0  0  0  0  0  0  0  0  0  0  0  0
  1  4  1  0  0  0  0
  2  1  1  0  0  0  0
  3  1  1  0  0  0  0
  4  5  1  0  0  0  0
  4  6  1  0  0  0  0
  6  9  1  0  0  0  0
  6 11  1  0  0  0  0
  7  6  1  0  0  0  0
  8  7  1  0  0  0  0
 10  9  1  0  0  0  0
 11 12  1  0  0  0  0
 12 15  1  0  0  0  0
 12 14  1  0  0  0  0
 13 12  1  0  0  0  0
 16 18  1  0  0  0  0
 16  1  1  0  0  0  0
 17 22  1  0  0  0  0
 17 23  1  0  0  0  0
 18 17  2  0  0  0  0
 19 20  2  0  0  0  0
 19 18  1  0  0  0  0
 20 21  1  0  0  0  0
 21 25  1  0  0  0  0
 21 22  2  0  0  0  0
 24 19  1  0  0  0  0
 25 26  1  0  0  0  0
 26 28  2  0  0  0  0
 27 26  1  0  0  0  0
M  END
>  <minimizedAffinity>
-4.60521984

>  <minimizedRMSD>
1.24038482

$$$$
