
 OpenBabel03252508063D

 38 40  0  0  0  0  0  0  0  0999 V2000
   45.1300   35.5130   43.2260 C   0  0  0  0  0  0  0  0  0  0  0  0
   45.5230   34.1850   43.2910 C   0  0  0  0  0  0  0  0  0  0  0  0
   45.4680   33.5130   44.4870 C   0  0  0  0  0  0  0  0  0  0  0  0
   45.0080   34.2160   45.5850 N   0  0  0  0  0  0  0  0  0  0  0  0
   44.6330   35.4910   45.5140 C   0  0  0  0  0  0  0  0  0  0  0  0
   44.7000   36.1290   44.3240 N   0  0  0  0  0  0  0  0  0  0  0  0
   45.1620   36.0780   42.2940 H   0  0  0  0  0  0  0  0  0  0  0  0
   44.2810   35.9980   46.4070 H   0  0  0  0  0  0  0  0  0  0  0  0
   45.8350   32.1660   44.7190 C   0  0  0  0  0  0  0  0  0  0  0  0
   45.5200   31.1110   43.8580 C   0  0  0  0  0  0  0  0  0  0  0  0
   45.8140   29.7960   44.1110 C   0  0  0  0  0  0  0  0  0  0  0  0
   46.4600   29.4540   45.2810 C   0  0  0  0  0  0  0  0  0  0  0  0
   46.7900   30.5130   46.1680 C   0  0  0  0  0  0  0  0  0  0  0  0
   47.4310   30.1870   47.3350 C   0  0  0  0  0  0  0  0  0  0  0  0
   47.7830   31.1690   48.2430 C   0  0  0  0  0  0  0  0  0  0  0  0
   47.4790   32.5100   47.9590 C   0  0  0  0  0  0  0  0  0  0  0  0
   46.8200   32.7940   46.7490 C   0  0  0  0  0  0  0  0  0  0  0  0
   46.4790   31.8000   45.8720 C   0  0  0  0  0  0  0  0  0  0  0  0
   45.0130   31.3640   42.9360 H   0  0  0  0  0  0  0  0  0  0  0  0
   45.5460   29.0210   43.4070 H   0  0  0  0  0  0  0  0  0  0  0  0
   46.7240   28.4430   45.5530 H   0  0  0  0  0  0  0  0  0  0  0  0
   47.6640   29.1550   47.5490 H   0  0  0  0  0  0  0  0  0  0  0  0
   48.2850   30.8420   49.1450 H   0  0  0  0  0  0  0  0  0  0  0  0
   47.7930   33.1800   48.7190 H   0  0  0  0  0  0  0  0  0  0  0  0
   46.7000   33.8550   46.7080 H   0  0  0  0  0  0  0  0  0  0  0  0
   45.9500   33.6040   42.1330 O   0  0  0  0  0  0  0  0  0  0  0  0
   48.1620   32.4360   41.3530 O   0  0  0  0  0  0  0  0  0  0  0  0
   47.5130   33.7620   41.4970 P   0  0  1  0  0  0  0  0  0  0  0  0
   47.4750   34.4640   39.9560 O   0  0  0  0  0  0  0  0  0  0  0  0
   48.1360   33.9490   38.8400 C   0  0  0  0  0  0  0  0  0  0  0  0
   48.4120   32.9030   39.0330 H   0  0  0  0  0  0  0  0  0  0  0  0
   48.3600   34.6120   37.7950 O   0  0  0  0  0  0  0  0  0  0  0  0
   48.4020   34.7490   42.5150 O   0  0  0  0  0  0  0  0  0  0  0  0
   49.6190   35.3540   42.2350 C   0  0  0  0  0  0  0  0  0  0  0  0
   49.3250   36.4000   41.6420 O   0  0  0  0  0  0  0  0  0  0  0  0
   50.7150   34.5490   42.7290 N   0  0  0  0  0  0  0  0  0  0  0  0
   50.7980   34.5830   43.7900 H   0  0  0  0  0  0  0  0  0  0  0  0
   51.4070   33.9620   42.1980 H   0  0  0  0  0  0  0  0  0  0  0  0
  1  2  2  0  0  0  0
  1  6  1  0  0  0  0
  2  3  1  0  0  0  0
  3  9  1  0  0  0  0
  3  4  2  0  0  0  0
  5  4  1  0  0  0  0
  5  8  1  0  0  0  0
  6  5  2  0  0  0  0
  7  1  1  0  0  0  0
  9 18  1  0  0  0  0
 10 11  1  0  0  0  0
 10  9  2  0  0  0  0
 11 12  2  0  0  0  0
 12 21  1  0  0  0  0
 12 13  1  0  0  0  0
 13 14  1  0  0  0  0
 14 22  1  0  0  0  0
 14 15  2  0  0  0  0
 15 23  1  0  0  0  0
 16 15  1  0  0  0  0
 16 24  1  0  0  0  0
 17 16  2  0  0  0  0
 18 13  2  0  0  0  0
 18 17  1  0  0  0  0
 19 10  1  0  0  0  0
 20 11  1  0  0  0  0
 25 17  1  0  0  0  0
 26  2  1  0  0  0  0
 28 27  2  6  0  0  0
 28 26  1  0  0  0  0
 28 33  1  0  0  0  0
 29 28  1  0  0  0  0
 30 31  1  0  0  0  0
 30 29  1  0  0  0  0
 32 30  2  0  0  0  0
 34 33  1  0  0  0  0
 34 36  1  0  0  0  0
 35 34  2  0  0  0  0
 36 37  1  0  0  0  0
 38 36  1  0  0  0  0
M  END
>  <minimizedAffinity>
-5.91046524

>  <minimizedRMSD>
0.748264611

$$$$
