
 OpenBabel03252500503D

 23 24  0  0  0  0  0  0  0  0999 V2000
   38.7480   27.8200   40.9680 C   0  0  0  0  0  0  0  0  0  0  0  0
   37.9140   27.4250   42.0010 C   0  0  0  0  0  0  0  0  0  0  0  0
   37.1000   28.3700   42.6450 C   0  0  0  0  0  0  0  0  0  0  0  0
   37.1880   29.6670   42.1950 N   0  0  0  0  0  0  0  0  0  0  0  0
   38.0050   30.0180   41.1940 C   0  0  0  0  0  0  0  0  0  0  0  0
   38.7770   29.1040   40.5870 N   0  0  0  0  0  0  0  0  0  0  0  0
   39.4000   27.1470   40.4290 H   0  0  0  0  0  0  0  0  0  0  0  0
   36.4410   28.0820   43.4530 H   0  0  0  0  0  0  0  0  0  0  0  0
   38.0540   31.4050   40.7640 C   0  0  0  0  0  0  0  0  0  0  0  0
   37.1480   31.9560   39.9220 C   0  0  0  0  0  0  0  0  0  0  0  0
   37.1870   33.2660   39.5090 C   0  0  0  0  0  0  0  0  0  0  0  0
   38.1960   34.0180   39.9880 N   0  0  0  0  0  0  0  0  0  0  0  0
   39.0890   33.4760   40.8190 C   0  0  0  0  0  0  0  0  0  0  0  0
   39.0810   32.1990   41.2410 N   0  0  0  0  0  0  0  0  0  0  0  0
   36.3670   31.2740   39.5830 H   0  0  0  0  0  0  0  0  0  0  0  0
   36.4040   33.5780   38.8350 H   0  0  0  0  0  0  0  0  0  0  0  0
   39.9050   34.0850   41.2060 H   0  0  0  0  0  0  0  0  0  0  0  0
   37.8970   26.0280   42.3960 C   0  0  0  0  0  0  0  0  0  0  0  0
   38.9470   25.5730   42.9280 O   0  0  0  0  0  0  0  0  0  0  0  0
   36.8950   25.0550   42.2930 O   0  0  0  0  0  0  0  0  0  0  0  0
   36.7730   24.2320   41.2080 C   0  0  0  0  0  0  0  0  0  0  0  0
   36.0000   24.5090   40.4790 H   0  0  0  0  0  0  0  0  0  0  0  0
   37.5250   23.2190   41.0820 O   0  0  0  0  0  0  0  0  0  0  0  0
  1  2  1  0  0  0  0
  2 18  1  0  0  0  0
  2  3  2  0  0  0  0
  3  8  1  0  0  0  0
  4  3  1  0  0  0  0
  5  4  2  0  0  0  0
  6  1  2  0  0  0  0
  6  5  1  0  0  0  0
  7  1  1  0  0  0  0
  9  5  1  0  0  0  0
  9 14  1  0  0  0  0
 10  9  2  0  0  0  0
 11 10  1  0  0  0  0
 11 12  2  0  0  0  0
 12 13  1  0  0  0  0
 13 17  1  0  0  0  0
 13 14  2  0  0  0  0
 15 10  1  0  0  0  0
 16 11  1  0  0  0  0
 18 19  2  0  0  0  0
 20 18  1  0  0  0  0
 21 20  1  0  0  0  0
 22 21  1  0  0  0  0
 23 21  2  0  0  0  0
M  END
>  <minimizedAffinity>
-4.25723696

$$$$

 OpenBabel03252500503D

 23 24  0  0  0  0  0  0  0  0999 V2000
   38.7770   27.8150   40.8360 C   0  0  0  0  0  0  0  0  0  0  0  0
   37.7930   27.3480   41.6910 C   0  0  0  0  0  0  0  0  0  0  0  0
   36.8510   28.2400   42.2300 C   0  0  0  0  0  0  0  0  0  0  0  0
   36.9720   29.5590   41.8620 N   0  0  0  0  0  0  0  0  0  0  0  0
   37.9360   29.9810   41.0330 C   0  0  0  0  0  0  0  0  0  0  0  0
   38.8290   29.1170   40.5250 N   0  0  0  0  0  0  0  0  0  0  0  0
   39.5320   27.1860   40.3860 H   0  0  0  0  0  0  0  0  0  0  0  0
   36.0740   27.8940   42.8990 H   0  0  0  0  0  0  0  0  0  0  0  0
   38.0120   31.3880   40.6820 C   0  0  0  0  0  0  0  0  0  0  0  0
   37.0940   32.0130   39.9050 C   0  0  0  0  0  0  0  0  0  0  0  0
   37.1590   33.3430   39.5670 C   0  0  0  0  0  0  0  0  0  0  0  0
   38.2060   34.0370   40.0520 N   0  0  0  0  0  0  0  0  0  0  0  0
   39.1100   33.4220   40.8180 C   0  0  0  0  0  0  0  0  0  0  0  0
   39.0780   32.1230   41.1660 N   0  0  0  0  0  0  0  0  0  0  0  0
   36.2810   31.3740   39.5570 H   0  0  0  0  0  0  0  0  0  0  0  0
   36.3630   33.7160   38.9420 H   0  0  0  0  0  0  0  0  0  0  0  0
   39.9580   33.9840   41.2090 H   0  0  0  0  0  0  0  0  0  0  0  0
   37.7540   25.9330   42.0140 C   0  0  0  0  0  0  0  0  0  0  0  0
   36.6940   25.4980   42.5440 O   0  0  0  0  0  0  0  0  0  0  0  0
   38.7080   24.9230   41.8410 O   0  0  0  0  0  0  0  0  0  0  0  0
   39.5690   24.5410   42.8320 C   0  0  0  0  0  0  0  0  0  0  0  0
   39.8580   23.4820   42.8360 H   0  0  0  0  0  0  0  0  0  0  0  0
   39.9880   25.3860   43.6800 O   0  0  0  0  0  0  0  0  0  0  0  0
  1  2  1  0  0  0  0
  2 18  1  0  0  0  0
  2  3  2  0  0  0  0
  3  8  1  0  0  0  0
  4  3  1  0  0  0  0
  5  4  2  0  0  0  0
  6  1  2  0  0  0  0
  6  5  1  0  0  0  0
  7  1  1  0  0  0  0
  9  5  1  0  0  0  0
  9 14  1  0  0  0  0
 10  9  2  0  0  0  0
 11 10  1  0  0  0  0
 11 12  2  0  0  0  0
 12 13  1  0  0  0  0
 13 14  2  0  0  0  0
 13 17  1  0  0  0  0
 15 10  1  0  0  0  0
 16 11  1  0  0  0  0
 18 19  2  0  0  0  0
 20 18  1  0  0  0  0
 20 21  1  0  0  0  0
 21 22  1  0  0  0  0
 21 23  2  0  0  0  0
M  END
>  <minimizedAffinity>
-4.13532734

$$$$

 OpenBabel03252500503D

 23 24  0  0  0  0  0  0  0  0999 V2000
   38.4430   27.7430   40.7620 C   0  0  0  0  0  0  0  0  0  0  0  0
   37.9240   27.3990   41.9990 C   0  0  0  0  0  0  0  0  0  0  0  0
   37.4300   28.3980   42.8540 C   0  0  0  0  0  0  0  0  0  0  0  0
   37.4990   29.6910   42.3930 N   0  0  0  0  0  0  0  0  0  0  0  0
   38.0070   29.9920   41.1920 C   0  0  0  0  0  0  0  0  0  0  0  0
   38.4750   29.0280   40.3850 N   0  0  0  0  0  0  0  0  0  0  0  0
   38.8390   27.0270   40.0550 H   0  0  0  0  0  0  0  0  0  0  0  0
   37.0200   28.1490   43.8240 H   0  0  0  0  0  0  0  0  0  0  0  0
   38.0520   31.3790   40.7610 C   0  0  0  0  0  0  0  0  0  0  0  0
   39.0090   32.2520   41.1590 C   0  0  0  0  0  0  0  0  0  0  0  0
   39.0580   33.5650   40.7580 C   0  0  0  0  0  0  0  0  0  0  0  0
   38.0870   33.9760   39.9210 N   0  0  0  0  0  0  0  0  0  0  0  0
   37.1450   33.1160   39.5280 C   0  0  0  0  0  0  0  0  0  0  0  0
   37.0660   31.8260   39.9020 N   0  0  0  0  0  0  0  0  0  0  0  0
   39.7540   31.8330   41.8370 H   0  0  0  0  0  0  0  0  0  0  0  0
   39.8740   34.1540   41.1500 H   0  0  0  0  0  0  0  0  0  0  0  0
   36.3580   33.4490   38.8520 H   0  0  0  0  0  0  0  0  0  0  0  0
   37.8970   26.0000   42.3880 C   0  0  0  0  0  0  0  0  0  0  0  0
   38.9420   25.5370   42.9230 O   0  0  0  0  0  0  0  0  0  0  0  0
   36.8920   25.0320   42.2740 O   0  0  0  0  0  0  0  0  0  0  0  0
   36.7580   24.2310   41.1740 C   0  0  0  0  0  0  0  0  0  0  0  0
   35.9980   24.5390   40.4440 H   0  0  0  0  0  0  0  0  0  0  0  0
   37.4840   23.2000   41.0380 O   0  0  0  0  0  0  0  0  0  0  0  0
  1  2  1  0  0  0  0
  2 18  1  0  0  0  0
  2  3  2  0  0  0  0
  3  8  1  0  0  0  0
  4  3  1  0  0  0  0
  5  4  2  0  0  0  0
  6  1  2  0  0  0  0
  6  5  1  0  0  0  0
  7  1  1  0  0  0  0
  9 10  1  0  0  0  0
  9  5  1  0  0  0  0
 10 15  1  0  0  0  0
 11 16  1  0  0  0  0
 11 10  2  0  0  0  0
 12 11  1  0  0  0  0
 13 14  1  0  0  0  0
 13 12  2  0  0  0  0
 14  9  2  0  0  0  0
 17 13  1  0  0  0  0
 18 19  2  0  0  0  0
 20 18  1  0  0  0  0
 21 20  1  0  0  0  0
 22 21  1  0  0  0  0
 23 21  2  0  0  0  0
M  END
>  <minimizedAffinity>
-4.13010406

$$$$

 OpenBabel03252500503D

 23 24  0  0  0  0  0  0  0  0999 V2000
   37.7940   28.4840   40.7780 C   0  0  0  0  0  0  0  0  0  0  0  0
   37.8310   28.2600   42.1440 C   0  0  0  0  0  0  0  0  0  0  0  0
   38.3880   29.2260   42.9980 C   0  0  0  0  0  0  0  0  0  0  0  0
   38.8770   30.3650   42.4030 N   0  0  0  0  0  0  0  0  0  0  0  0
   38.8270   30.5520   41.0780 C   0  0  0  0  0  0  0  0  0  0  0  0
   38.2910   29.6210   40.2740 N   0  0  0  0  0  0  0  0  0  0  0  0
   37.3800   27.7850   40.0640 H   0  0  0  0  0  0  0  0  0  0  0  0
   38.4260   29.0700   44.0680 H   0  0  0  0  0  0  0  0  0  0  0  0
   39.3610   31.7770   40.5080 C   0  0  0  0  0  0  0  0  0  0  0  0
   38.8060   32.9970   40.7110 C   0  0  0  0  0  0  0  0  0  0  0  0
   39.3030   34.1600   40.1750 C   0  0  0  0  0  0  0  0  0  0  0  0
   40.4060   34.0480   39.4100 N   0  0  0  0  0  0  0  0  0  0  0  0
   40.9530   32.8470   39.2110 C   0  0  0  0  0  0  0  0  0  0  0  0
   40.4920   31.6890   39.7180 N   0  0  0  0  0  0  0  0  0  0  0  0
   37.9160   32.9930   41.3420 H   0  0  0  0  0  0  0  0  0  0  0  0
   38.7650   35.0640   40.4160 H   0  0  0  0  0  0  0  0  0  0  0  0
   41.8450   32.7560   38.5910 H   0  0  0  0  0  0  0  0  0  0  0  0
   37.2850   27.0220   42.6700 C   0  0  0  0  0  0  0  0  0  0  0  0
   36.2940   27.1200   43.4450 O   0  0  0  0  0  0  0  0  0  0  0  0
   37.6680   25.6900   42.4720 O   0  0  0  0  0  0  0  0  0  0  0  0
   37.0710   24.8780   41.5480 C   0  0  0  0  0  0  0  0  0  0  0  0
   36.3240   25.3560   40.9000 H   0  0  0  0  0  0  0  0  0  0  0  0
   37.3850   23.6520   41.4710 O   0  0  0  0  0  0  0  0  0  0  0  0
  1  2  1  0  0  0  0
  2 18  1  0  0  0  0
  2  3  2  0  0  0  0
  3  8  1  0  0  0  0
  4  3  1  0  0  0  0
  5  4  2  0  0  0  0
  6  1  2  0  0  0  0
  6  5  1  0  0  0  0
  7  1  1  0  0  0  0
  9 10  1  0  0  0  0
  9  5  1  0  0  0  0
 10 15  1  0  0  0  0
 11 16  1  0  0  0  0
 11 10  2  0  0  0  0
 12 11  1  0  0  0  0
 13 12  2  0  0  0  0
 13 14  1  0  0  0  0
 14  9  2  0  0  0  0
 17 13  1  0  0  0  0
 18 19  2  0  0  0  0
 20 18  1  0  0  0  0
 21 20  1  0  0  0  0
 22 21  1  0  0  0  0
 23 21  2  0  0  0  0
M  END
>  <minimizedAffinity>
-3.99666834

$$$$

 OpenBabel03252500503D

 23 24  0  0  0  0  0  0  0  0999 V2000
   37.7370   29.7900   40.4560 C   0  0  0  0  0  0  0  0  0  0  0  0
   38.3340   30.8710   41.0840 C   0  0  0  0  0  0  0  0  0  0  0  0
   39.2130   30.6590   42.1590 C   0  0  0  0  0  0  0  0  0  0  0  0
   39.4280   29.3530   42.5290 N   0  0  0  0  0  0  0  0  0  0  0  0
   38.8360   28.3280   41.9030 C   0  0  0  0  0  0  0  0  0  0  0  0
   37.9990   28.5450   40.8770 N   0  0  0  0  0  0  0  0  0  0  0  0
   37.0520   29.8790   39.6250 H   0  0  0  0  0  0  0  0  0  0  0  0
   39.6890   31.4900   42.6620 H   0  0  0  0  0  0  0  0  0  0  0  0
   39.1040   26.9690   42.3410 C   0  0  0  0  0  0  0  0  0  0  0  0
   40.0530   26.6550   43.2560 C   0  0  0  0  0  0  0  0  0  0  0  0
   40.3140   25.3740   43.6750 C   0  0  0  0  0  0  0  0  0  0  0  0
   39.5670   24.3970   43.1280 N   0  0  0  0  0  0  0  0  0  0  0  0
   38.6310   24.7060   42.2270 C   0  0  0  0  0  0  0  0  0  0  0  0
   38.3510   25.9480   41.7940 N   0  0  0  0  0  0  0  0  0  0  0  0
   40.6100   27.5090   43.6450 H   0  0  0  0  0  0  0  0  0  0  0  0
   41.0970   25.2620   44.4090 H   0  0  0  0  0  0  0  0  0  0  0  0
   38.0270   23.9150   41.7830 H   0  0  0  0  0  0  0  0  0  0  0  0
   38.0380   32.2110   40.6110 C   0  0  0  0  0  0  0  0  0  0  0  0
   37.0610   32.3340   39.8220 O   0  0  0  0  0  0  0  0  0  0  0  0
   38.6580   33.4380   40.8770 O   0  0  0  0  0  0  0  0  0  0  0  0
   39.7800   33.8570   40.2180 C   0  0  0  0  0  0  0  0  0  0  0  0
   39.6110   34.4800   39.3290 H   0  0  0  0  0  0  0  0  0  0  0  0
   40.9310   33.5290   40.6360 O   0  0  0  0  0  0  0  0  0  0  0  0
  1  6  2  0  0  0  0
  1  2  1  0  0  0  0
  2  3  2  0  0  0  0
  3  4  1  0  0  0  0
  3  8  1  0  0  0  0
  5  9  1  0  0  0  0
  5  4  2  0  0  0  0
  6  5  1  0  0  0  0
  7  1  1  0  0  0  0
  9 10  1  0  0  0  0
 10 15  1  0  0  0  0
 10 11  2  0  0  0  0
 11 16  1  0  0  0  0
 12 11  1  0  0  0  0
 13 12  2  0  0  0  0
 14 13  1  0  0  0  0
 14  9  2  0  0  0  0
 17 13  1  0  0  0  0
 18 20  1  0  0  0  0
 18  2  1  0  0  0  0
 19 18  2  0  0  0  0
 21 23  2  0  0  0  0
 21 20  1  0  0  0  0
 22 21  1  0  0  0  0
M  END
>  <minimizedAffinity>
-3.850811

$$$$

 OpenBabel03252500503D

 23 24  0  0  0  0  0  0  0  0999 V2000
   35.6600   28.9920   41.0120 C   0  0  0  0  0  0  0  0  0  0  0  0
   36.4620   27.8700   41.1460 C   0  0  0  0  0  0  0  0  0  0  0  0
   36.6550   27.0110   40.0510 C   0  0  0  0  0  0  0  0  0  0  0  0
   36.0150   27.3510   38.8830 N   0  0  0  0  0  0  0  0  0  0  0  0
   35.2460   28.4430   38.7840 C   0  0  0  0  0  0  0  0  0  0  0  0
   35.0710   29.2550   39.8380 N   0  0  0  0  0  0  0  0  0  0  0  0
   35.4690   29.6940   41.8110 H   0  0  0  0  0  0  0  0  0  0  0  0
   37.2770   26.1310   40.1360 H   0  0  0  0  0  0  0  0  0  0  0  0
   34.5960   28.7480   37.5210 C   0  0  0  0  0  0  0  0  0  0  0  0
   33.2640   28.9690   37.4030 C   0  0  0  0  0  0  0  0  0  0  0  0
   32.6410   29.2560   36.2130 C   0  0  0  0  0  0  0  0  0  0  0  0
   33.4270   29.3170   35.1210 N   0  0  0  0  0  0  0  0  0  0  0  0
   34.7390   29.1010   35.2370 C   0  0  0  0  0  0  0  0  0  0  0  0
   35.3800   28.8150   36.3850 N   0  0  0  0  0  0  0  0  0  0  0  0
   32.7060   28.8990   38.3380 H   0  0  0  0  0  0  0  0  0  0  0  0
   31.5740   29.4100   36.2580 H   0  0  0  0  0  0  0  0  0  0  0  0
   35.3740   29.1490   34.3530 H   0  0  0  0  0  0  0  0  0  0  0  0
   37.0930   27.6040   42.4260 C   0  0  0  0  0  0  0  0  0  0  0  0
   36.3300   27.3110   43.3880 O   0  0  0  0  0  0  0  0  0  0  0  0
   38.4400   27.6150   42.8070 O   0  0  0  0  0  0  0  0  0  0  0  0
   39.2250   28.7310   42.7200 C   0  0  0  0  0  0  0  0  0  0  0  0
   40.2530   28.5700   42.3710 H   0  0  0  0  0  0  0  0  0  0  0  0
   38.7600   29.8690   43.0310 O   0  0  0  0  0  0  0  0  0  0  0  0
  1  2  1  0  0  0  0
  1  7  1  0  0  0  0
  2 18  1  0  0  0  0
  3  8  1  0  0  0  0
  3  2  2  0  0  0  0
  4  3  1  0  0  0  0
  5  4  2  0  0  0  0
  5  6  1  0  0  0  0
  6  1  2  0  0  0  0
  9  5  1  0  0  0  0
 10  9  1  0  0  0  0
 10 15  1  0  0  0  0
 11 16  1  0  0  0  0
 11 10  2  0  0  0  0
 12 13  2  0  0  0  0
 12 11  1  0  0  0  0
 13 14  1  0  0  0  0
 14  9  2  0  0  0  0
 17 13  1  0  0  0  0
 18 20  1  0  0  0  0
 18 19  2  0  0  0  0
 21 20  1  0  0  0  0
 21 23  2  0  0  0  0
 22 21  1  0  0  0  0
M  END
>  <minimizedAffinity>
-3.80822754

$$$$

 OpenBabel03252500503D

 23 24  0  0  0  0  0  0  0  0999 V2000
   39.5860   27.7520   42.6190 C   0  0  0  0  0  0  0  0  0  0  0  0
   38.2630   28.1550   42.5320 C   0  0  0  0  0  0  0  0  0  0  0  0
   37.9530   29.5190   42.4050 C   0  0  0  0  0  0  0  0  0  0  0  0
   39.0160   30.3910   42.3760 N   0  0  0  0  0  0  0  0  0  0  0  0
   40.2840   29.9710   42.4630 C   0  0  0  0  0  0  0  0  0  0  0  0
   40.5660   28.6650   42.5830 N   0  0  0  0  0  0  0  0  0  0  0  0
   39.8960   26.7220   42.7180 H   0  0  0  0  0  0  0  0  0  0  0  0
   36.9270   29.8540   42.3350 H   0  0  0  0  0  0  0  0  0  0  0  0
   41.3640   30.9430   42.4270 C   0  0  0  0  0  0  0  0  0  0  0  0
   42.4200   30.9140   43.2740 C   0  0  0  0  0  0  0  0  0  0  0  0
   43.4440   31.8290   43.2480 C   0  0  0  0  0  0  0  0  0  0  0  0
   43.3650   32.7960   42.3150 N   0  0  0  0  0  0  0  0  0  0  0  0
   42.3240   32.8240   41.4790 C   0  0  0  0  0  0  0  0  0  0  0  0
   41.3050   31.9460   41.4790 N   0  0  0  0  0  0  0  0  0  0  0  0
   42.4020   30.0960   43.9970 H   0  0  0  0  0  0  0  0  0  0  0  0
   44.2270   31.6910   43.9790 H   0  0  0  0  0  0  0  0  0  0  0  0
   42.2590   33.6080   40.7250 H   0  0  0  0  0  0  0  0  0  0  0  0
   37.2170   27.1500   42.5700 C   0  0  0  0  0  0  0  0  0  0  0  0
   36.3860   27.2280   43.5170 O   0  0  0  0  0  0  0  0  0  0  0  0
   36.9480   26.0680   41.7230 O   0  0  0  0  0  0  0  0  0  0  0  0
   37.1630   24.7690   42.0900 C   0  0  0  0  0  0  0  0  0  0  0  0
   36.3150   24.0850   41.9550 H   0  0  0  0  0  0  0  0  0  0  0  0
   38.2860   24.4100   42.5560 O   0  0  0  0  0  0  0  0  0  0  0  0
  1  7  1  0  0  0  0
  2 18  1  0  0  0  0
  2  1  2  0  0  0  0
  3  2  1  0  0  0  0
  4  3  2  0  0  0  0
  4  5  1  0  0  0  0
  5  6  2  0  0  0  0
  6  1  1  0  0  0  0
  8  3  1  0  0  0  0
  9  5  1  0  0  0  0
  9 10  1  0  0  0  0
 10 15  1  0  0  0  0
 11 10  2  0  0  0  0
 11 16  1  0  0  0  0
 12 11  1  0  0  0  0
 13 12  2  0  0  0  0
 14 13  1  0  0  0  0
 14  9  2  0  0  0  0
 17 13  1  0  0  0  0
 18 19  2  0  0  0  0
 20 21  1  0  0  0  0
 20 18  1  0  0  0  0
 21 23  2  0  0  0  0
 22 21  1  0  0  0  0
M  END
>  <minimizedAffinity>
-3.77552438

$$$$

 OpenBabel03252500503D

 23 24  0  0  0  0  0  0  0  0999 V2000
   37.0670   28.0610   39.3750 C   0  0  0  0  0  0  0  0  0  0  0  0
   37.1830   27.3800   40.5760 C   0  0  0  0  0  0  0  0  0  0  0  0
   37.5460   28.0740   41.7430 C   0  0  0  0  0  0  0  0  0  0  0  0
   37.7700   29.4240   41.6110 N   0  0  0  0  0  0  0  0  0  0  0  0
   37.6510   30.0540   40.4360 C   0  0  0  0  0  0  0  0  0  0  0  0
   37.3020   29.3790   39.3290 N   0  0  0  0  0  0  0  0  0  0  0  0
   36.7920   27.5910   38.4420 H   0  0  0  0  0  0  0  0  0  0  0  0
   37.6410   27.5610   42.6900 H   0  0  0  0  0  0  0  0  0  0  0  0
   37.9010   31.4830   40.3610 C   0  0  0  0  0  0  0  0  0  0  0  0
   37.1680   32.3290   39.5990 C   0  0  0  0  0  0  0  0  0  0  0  0
   37.3980   33.6810   39.5210 C   0  0  0  0  0  0  0  0  0  0  0  0
   38.4190   34.1610   40.2570 N   0  0  0  0  0  0  0  0  0  0  0  0
   39.1410   33.3280   41.0090 C   0  0  0  0  0  0  0  0  0  0  0  0
   38.9440   32.0010   41.1060 N   0  0  0  0  0  0  0  0  0  0  0  0
   36.3620   31.8540   39.0360 H   0  0  0  0  0  0  0  0  0  0  0  0
   36.7390   34.2420   38.8760 H   0  0  0  0  0  0  0  0  0  0  0  0
   39.9680   33.7160   41.6030 H   0  0  0  0  0  0  0  0  0  0  0  0
   36.9220   25.9530   40.6050 C   0  0  0  0  0  0  0  0  0  0  0  0
   36.4010   25.4480   39.5720 O   0  0  0  0  0  0  0  0  0  0  0  0
   37.1470   24.9960   41.6020 O   0  0  0  0  0  0  0  0  0  0  0  0
   38.2750   24.2270   41.6480 C   0  0  0  0  0  0  0  0  0  0  0  0
   38.2920   23.3580   40.9770 H   0  0  0  0  0  0  0  0  0  0  0  0
   39.2270   24.5270   42.4300 O   0  0  0  0  0  0  0  0  0  0  0  0
  1  2  1  0  0  0  0
  2 18  1  0  0  0  0
  2  3  2  0  0  0  0
  3  8  1  0  0  0  0
  4  3  1  0  0  0  0
  5  4  2  0  0  0  0
  6  1  2  0  0  0  0
  6  5  1  0  0  0  0
  7  1  1  0  0  0  0
  9  5  1  0  0  0  0
  9 14  1  0  0  0  0
 10  9  2  0  0  0  0
 11 10  1  0  0  0  0
 11 12  2  0  0  0  0
 12 13  1  0  0  0  0
 13 14  2  0  0  0  0
 13 17  1  0  0  0  0
 15 10  1  0  0  0  0
 16 11  1  0  0  0  0
 18 20  1  0  0  0  0
 19 18  2  0  0  0  0
 20 21  1  0  0  0  0
 21 23  2  0  0  0  0
 22 21  1  0  0  0  0
M  END
>  <minimizedAffinity>
-3.77135277

$$$$

 OpenBabel03252500503D

 23 24  0  0  0  0  0  0  0  0999 V2000
   36.3980   31.0400   40.3200 C   0  0  0  0  0  0  0  0  0  0  0  0
   37.1180   31.8430   39.4510 C   0  0  0  0  0  0  0  0  0  0  0  0
   37.3200   31.4340   38.1220 C   0  0  0  0  0  0  0  0  0  0  0  0
   36.7720   30.2260   37.7610 N   0  0  0  0  0  0  0  0  0  0  0  0
   36.0810   29.4710   38.6240 C   0  0  0  0  0  0  0  0  0  0  0  0
   35.8960   29.8740   39.8900 N   0  0  0  0  0  0  0  0  0  0  0  0
   36.2050   31.2920   41.3530 H   0  0  0  0  0  0  0  0  0  0  0  0
   37.8790   32.0480   37.4280 H   0  0  0  0  0  0  0  0  0  0  0  0
   35.5270   28.2030   38.1810 C   0  0  0  0  0  0  0  0  0  0  0  0
   36.0960   27.0050   38.4570 C   0  0  0  0  0  0  0  0  0  0  0  0
   35.5800   25.8020   38.0410 C   0  0  0  0  0  0  0  0  0  0  0  0
   34.4420   25.8500   37.3220 N   0  0  0  0  0  0  0  0  0  0  0  0
   33.8810   27.0310   37.0520 C   0  0  0  0  0  0  0  0  0  0  0  0
   34.3600   28.2260   37.4410 N   0  0  0  0  0  0  0  0  0  0  0  0
   37.0140   27.0610   39.0430 H   0  0  0  0  0  0  0  0  0  0  0  0
   36.1320   24.9200   38.3290 H   0  0  0  0  0  0  0  0  0  0  0  0
   32.9600   27.0690   36.4690 H   0  0  0  0  0  0  0  0  0  0  0  0
   37.6530   33.1030   39.9360 C   0  0  0  0  0  0  0  0  0  0  0  0
   37.1090   34.1560   39.5030 O   0  0  0  0  0  0  0  0  0  0  0  0
   38.6990   33.3770   40.8250 O   0  0  0  0  0  0  0  0  0  0  0  0
   39.9140   33.8480   40.4140 C   0  0  0  0  0  0  0  0  0  0  0  0
   40.3760   34.6110   41.0560 H   0  0  0  0  0  0  0  0  0  0  0  0
   40.4480   33.4090   39.3520 O   0  0  0  0  0  0  0  0  0  0  0  0
  1  7  1  0  0  0  0
  2 18  1  0  0  0  0
  2  1  2  0  0  0  0
  3  2  1  0  0  0  0
  4  3  2  0  0  0  0
  4  5  1  0  0  0  0
  5  6  2  0  0  0  0
  6  1  1  0  0  0  0
  8  3  1  0  0  0  0
  9 10  1  0  0  0  0
  9  5  1  0  0  0  0
 10 15  1  0  0  0  0
 11 16  1  0  0  0  0
 11 10  2  0  0  0  0
 12 11  1  0  0  0  0
 13 12  2  0  0  0  0
 13 14  1  0  0  0  0
 14  9  2  0  0  0  0
 17 13  1  0  0  0  0
 18 20  1  0  0  0  0
 19 18  2  0  0  0  0
 21 20  1  0  0  0  0
 21 22  1  0  0  0  0
 23 21  2  0  0  0  0
M  END
>  <minimizedAffinity>
-3.71289515

$$$$
