
 OpenBabel03242518293D

 15 15  0  0  0  0  0  0  0  0999 V2000
   37.0190   29.1710   41.8530 C   0  0  0  0  0  0  0  0  0  0  0  0
   36.4900   27.9240   42.1920 C   0  0  0  0  0  0  0  0  0  0  0  0
   37.2930   27.1060   43.0160 C   0  0  0  0  0  0  0  0  0  0  0  0
   38.5060   27.5760   43.4180 N   0  0  0  0  0  0  0  0  0  0  0  0
   38.9570   28.7990   43.0510 C   0  0  0  0  0  0  0  0  0  0  0  0
   38.2080   29.5870   42.2690 N   0  0  0  0  0  0  0  0  0  0  0  0
   35.5290   27.5490   41.8740 H   0  0  0  0  0  0  0  0  0  0  0  0
   36.9350   26.1230   43.3130 H   0  0  0  0  0  0  0  0  0  0  0  0
   39.9210   29.1840   43.3650 H   0  0  0  0  0  0  0  0  0  0  0  0
   36.1390   29.9390   41.0140 C   0  0  0  0  0  0  0  0  0  0  0  0
   35.1680   29.5070   40.3430 O   0  0  0  0  0  0  0  0  0  0  0  0
   36.4150   31.2950   40.9600 O   0  0  0  0  0  0  0  0  0  0  0  0
   36.9840   31.9500   39.8920 C   0  0  0  0  0  0  0  0  0  0  0  0
   36.8780   31.6460   38.8600 H   0  0  0  0  0  0  0  0  0  0  0  0
   37.6630   32.9690   40.2530 O   0  0  0  0  0  0  0  0  0  0  0  0
  1  2  2  0  0  0  0
  1  6  1  0  0  0  0
  2  3  1  0  0  0  0
  3  8  1  0  0  0  0
  3  4  2  0  0  0  0
  5  9  1  0  0  0  0
  5  4  1  0  0  0  0
  6  5  2  0  0  0  0
  7  2  1  0  0  0  0
 10  1  1  0  0  0  0
 11 10  2  0  0  0  0
 12 10  1  0  0  0  0
 13 15  2  0  0  0  0
 13 12  1  0  0  0  0
 14 13  1  0  0  0  0
M  END
>  <minimizedAffinity>
-3.32625866

$$$$

 OpenBabel03242518293D

 15 15  0  0  0  0  0  0  0  0999 V2000
   38.1620   26.7240   42.9310 C   0  0  0  0  0  0  0  0  0  0  0  0
   39.3640   26.7720   43.6400 C   0  0  0  0  0  0  0  0  0  0  0  0
   40.1140   25.5770   43.6800 C   0  0  0  0  0  0  0  0  0  0  0  0
   39.6270   24.4790   43.0400 N   0  0  0  0  0  0  0  0  0  0  0  0
   38.4500   24.5040   42.3700 C   0  0  0  0  0  0  0  0  0  0  0  0
   37.7260   25.6290   42.3220 N   0  0  0  0  0  0  0  0  0  0  0  0
   39.7520   27.6420   44.1480 H   0  0  0  0  0  0  0  0  0  0  0  0
   41.0600   25.5510   44.2160 H   0  0  0  0  0  0  0  0  0  0  0  0
   38.0520   23.6350   41.8560 H   0  0  0  0  0  0  0  0  0  0  0  0
   37.4620   27.9810   42.9390 C   0  0  0  0  0  0  0  0  0  0  0  0
   37.8070   29.0340   43.5330 O   0  0  0  0  0  0  0  0  0  0  0  0
   36.2880   28.0040   42.2050 O   0  0  0  0  0  0  0  0  0  0  0  0
   36.1430   28.5540   40.9520 C   0  0  0  0  0  0  0  0  0  0  0  0
   36.2830   28.0130   40.0260 H   0  0  0  0  0  0  0  0  0  0  0  0
   35.8200   29.7880   40.9970 O   0  0  0  0  0  0  0  0  0  0  0  0
  1 10  1  0  0  0  0
  1  2  1  0  0  0  0
  2  3  2  0  0  0  0
  2  7  1  0  0  0  0
  3  8  1  0  0  0  0
  4  3  1  0  0  0  0
  5  4  2  0  0  0  0
  6  5  1  0  0  0  0
  6  1  2  0  0  0  0
  9  5  1  0  0  0  0
 10 11  2  0  0  0  0
 12 10  1  0  0  0  0
 13 15  2  0  0  0  0
 13 12  1  0  0  0  0
 14 13  1  0  0  0  0
M  END
>  <minimizedAffinity>
-3.30812812

$$$$

 OpenBabel03242518293D

 15 15  0  0  0  0  0  0  0  0999 V2000
   36.9230   29.3240   41.7460 C   0  0  0  0  0  0  0  0  0  0  0  0
   38.1400   29.7820   42.2540 C   0  0  0  0  0  0  0  0  0  0  0  0
   38.8050   28.9220   43.1550 C   0  0  0  0  0  0  0  0  0  0  0  0
   38.2280   27.7290   43.4650 N   0  0  0  0  0  0  0  0  0  0  0  0
   37.0420   27.3480   42.9330 C   0  0  0  0  0  0  0  0  0  0  0  0
   36.3990   28.1510   42.0760 N   0  0  0  0  0  0  0  0  0  0  0  0
   38.6000   30.7280   42.0100 H   0  0  0  0  0  0  0  0  0  0  0  0
   39.7570   29.2240   43.5850 H   0  0  0  0  0  0  0  0  0  0  0  0
   36.5730   26.3990   43.1720 H   0  0  0  0  0  0  0  0  0  0  0  0
   36.3140   30.2570   40.8370 C   0  0  0  0  0  0  0  0  0  0  0  0
   35.3140   30.0540   40.1030 O   0  0  0  0  0  0  0  0  0  0  0  0
   36.9140   31.5040   40.7870 O   0  0  0  0  0  0  0  0  0  0  0  0
   37.1500   32.2280   39.6410 C   0  0  0  0  0  0  0  0  0  0  0  0
   37.1440   31.8140   38.6420 H   0  0  0  0  0  0  0  0  0  0  0  0
   37.3810   33.4600   39.8840 O   0  0  0  0  0  0  0  0  0  0  0  0
  1  6  2  0  0  0  0
  1  2  1  0  0  0  0
  2  3  2  0  0  0  0
  3  4  1  0  0  0  0
  3  8  1  0  0  0  0
  5  9  1  0  0  0  0
  5  4  2  0  0  0  0
  6  5  1  0  0  0  0
  7  2  1  0  0  0  0
 10  1  1  0  0  0  0
 11 10  2  0  0  0  0
 12 10  1  0  0  0  0
 13 15  2  0  0  0  0
 13 12  1  0  0  0  0
 14 13  1  0  0  0  0
M  END
>  <minimizedAffinity>
-3.20696902

$$$$

 OpenBabel03242518293D

 15 15  0  0  0  0  0  0  0  0999 V2000
   37.6930   29.9350   41.7230 C   0  0  0  0  0  0  0  0  0  0  0  0
   38.4040   29.5550   42.8630 C   0  0  0  0  0  0  0  0  0  0  0  0
   38.0100   28.3430   43.4700 C   0  0  0  0  0  0  0  0  0  0  0  0
   36.9840   27.6400   42.9190 N   0  0  0  0  0  0  0  0  0  0  0  0
   36.3370   28.0700   41.8090 C   0  0  0  0  0  0  0  0  0  0  0  0
   36.6980   29.2170   41.2200 N   0  0  0  0  0  0  0  0  0  0  0  0
   39.2180   30.1110   43.3020 H   0  0  0  0  0  0  0  0  0  0  0  0
   38.5270   27.9940   44.3610 H   0  0  0  0  0  0  0  0  0  0  0  0
   35.5180   27.5170   41.3600 H   0  0  0  0  0  0  0  0  0  0  0  0
   38.1570   31.1780   41.1670 C   0  0  0  0  0  0  0  0  0  0  0  0
   39.3440   31.5910   41.1280 O   0  0  0  0  0  0  0  0  0  0  0  0
   37.1710   31.9830   40.6240 O   0  0  0  0  0  0  0  0  0  0  0  0
   37.2290   32.5940   39.3920 C   0  0  0  0  0  0  0  0  0  0  0  0
   37.3420   32.0700   38.4530 H   0  0  0  0  0  0  0  0  0  0  0  0
   37.1350   33.8650   39.4750 O   0  0  0  0  0  0  0  0  0  0  0  0
  1  2  1  0  0  0  0
  2  7  1  0  0  0  0
  2  3  2  0  0  0  0
  3  8  1  0  0  0  0
  4  3  1  0  0  0  0
  5  4  2  0  0  0  0
  6  1  2  0  0  0  0
  6  5  1  0  0  0  0
  9  5  1  0  0  0  0
 10  1  1  0  0  0  0
 11 10  2  0  0  0  0
 12 10  1  0  0  0  0
 13 15  2  0  0  0  0
 13 12  1  0  0  0  0
 14 13  1  0  0  0  0
M  END
>  <minimizedAffinity>
-3.14599299

$$$$

 OpenBabel03242518293D

 15 15  0  0  0  0  0  0  0  0999 V2000
   36.8050   28.5660   41.8720 C   0  0  0  0  0  0  0  0  0  0  0  0
   37.5760   29.7260   41.9800 C   0  0  0  0  0  0  0  0  0  0  0  0
   37.1690   30.8230   41.1920 C   0  0  0  0  0  0  0  0  0  0  0  0
   36.0750   30.6840   40.3940 N   0  0  0  0  0  0  0  0  0  0  0  0
   35.3730   29.5270   40.3390 C   0  0  0  0  0  0  0  0  0  0  0  0
   35.7450   28.4760   41.0800 N   0  0  0  0  0  0  0  0  0  0  0  0
   38.4440   29.8390   42.6120 H   0  0  0  0  0  0  0  0  0  0  0  0
   37.7290   31.7540   41.2330 H   0  0  0  0  0  0  0  0  0  0  0  0
   34.4990   29.4030   39.7070 H   0  0  0  0  0  0  0  0  0  0  0  0
   37.2880   27.4990   42.7070 C   0  0  0  0  0  0  0  0  0  0  0  0
   36.8040   26.3430   42.8110 O   0  0  0  0  0  0  0  0  0  0  0  0
   38.4050   27.8060   43.4650 O   0  0  0  0  0  0  0  0  0  0  0  0
   39.4760   26.9690   43.6790 C   0  0  0  0  0  0  0  0  0  0  0  0
   39.3960   25.9070   43.8670 H   0  0  0  0  0  0  0  0  0  0  0  0
   40.5920   27.5870   43.6340 O   0  0  0  0  0  0  0  0  0  0  0  0
  1  2  1  0  0  0  0
  1 10  1  0  0  0  0
  2  7  1  0  0  0  0
  3  8  1  0  0  0  0
  3  2  2  0  0  0  0
  4  3  1  0  0  0  0
  5  4  2  0  0  0  0
  5  6  1  0  0  0  0
  6  1  2  0  0  0  0
  9  5  1  0  0  0  0
 10 11  2  0  0  0  0
 10 12  1  0  0  0  0
 12 13  1  0  0  0  0
 13 14  1  0  0  0  0
 15 13  2  0  0  0  0
M  END
>  <minimizedAffinity>
-3.04652023

$$$$

 OpenBabel03242518293D

 15 15  0  0  0  0  0  0  0  0999 V2000
   37.8820   31.8370   40.6020 C   0  0  0  0  0  0  0  0  0  0  0  0
   36.5740   31.3770   40.4350 C   0  0  0  0  0  0  0  0  0  0  0  0
   36.2380   30.1880   41.1160 C   0  0  0  0  0  0  0  0  0  0  0  0
   37.1890   29.5780   41.8760 N   0  0  0  0  0  0  0  0  0  0  0  0
   38.4410   30.0820   41.9930 C   0  0  0  0  0  0  0  0  0  0  0  0
   38.7770   31.2090   41.3540 N   0  0  0  0  0  0  0  0  0  0  0  0
   35.8180   31.8580   39.8330 H   0  0  0  0  0  0  0  0  0  0  0  0
   35.2330   29.7800   41.0250 H   0  0  0  0  0  0  0  0  0  0  0  0
   39.2070   29.6060   42.5960 H   0  0  0  0  0  0  0  0  0  0  0  0
   38.1420   33.0510   39.8760 C   0  0  0  0  0  0  0  0  0  0  0  0
   37.3290   33.9830   39.6490 O   0  0  0  0  0  0  0  0  0  0  0  0
   39.4310   33.1790   39.3880 O   0  0  0  0  0  0  0  0  0  0  0  0
   40.3250   34.1600   39.7500 C   0  0  0  0  0  0  0  0  0  0  0  0
   40.3610   35.1480   39.3120 H   0  0  0  0  0  0  0  0  0  0  0  0
   41.1210   33.7770   40.6720 O   0  0  0  0  0  0  0  0  0  0  0  0
  1  6  1  0  0  0  0
  2  1  2  0  0  0  0
  2  3  1  0  0  0  0
  3  4  2  0  0  0  0
  4  5  1  0  0  0  0
  5  9  1  0  0  0  0
  6  5  2  0  0  0  0
  7  2  1  0  0  0  0
  8  3  1  0  0  0  0
 10  1  1  0  0  0  0
 11 10  2  0  0  0  0
 12 13  1  0  0  0  0
 12 10  1  0  0  0  0
 13 15  2  0  0  0  0
 14 13  1  0  0  0  0
M  END
>  <minimizedAffinity>
-3.04270577

$$$$

 OpenBabel03242518293D

 15 15  0  0  0  0  0  0  0  0999 V2000
   36.2420   30.4420   39.7450 C   0  0  0  0  0  0  0  0  0  0  0  0
   36.6520   31.3430   40.7300 C   0  0  0  0  0  0  0  0  0  0  0  0
   37.5000   32.3890   40.3080 C   0  0  0  0  0  0  0  0  0  0  0  0
   37.8580   32.4500   38.9960 N   0  0  0  0  0  0  0  0  0  0  0  0
   37.4220   31.5400   38.0930 C   0  0  0  0  0  0  0  0  0  0  0  0
   36.6170   30.5410   38.4760 N   0  0  0  0  0  0  0  0  0  0  0  0
   36.3690   31.2970   41.7710 H   0  0  0  0  0  0  0  0  0  0  0  0
   37.8520   33.1230   41.0300 H   0  0  0  0  0  0  0  0  0  0  0  0
   37.7000   31.5780   37.0450 H   0  0  0  0  0  0  0  0  0  0  0  0
   35.3810   29.4110   40.2580 C   0  0  0  0  0  0  0  0  0  0  0  0
   34.2130   29.1450   39.8790 O   0  0  0  0  0  0  0  0  0  0  0  0
   35.9240   28.6460   41.2760 O   0  0  0  0  0  0  0  0  0  0  0  0
   36.8230   27.6170   41.1070 C   0  0  0  0  0  0  0  0  0  0  0  0
   37.4300   27.4730   40.2230 H   0  0  0  0  0  0  0  0  0  0  0  0
   36.8650   26.8380   42.1170 O   0  0  0  0  0  0  0  0  0  0  0  0
  1 10  1  0  0  0  0
  1  2  1  0  0  0  0
  2  7  1  0  0  0  0
  3  2  2  0  0  0  0
  3  8  1  0  0  0  0
  4  3  1  0  0  0  0
  5  6  1  0  0  0  0
  5  4  2  0  0  0  0
  6  1  2  0  0  0  0
  9  5  1  0  0  0  0
 10 12  1  0  0  0  0
 11 10  2  0  0  0  0
 13 12  1  0  0  0  0
 13 15  2  0  0  0  0
 14 13  1  0  0  0  0
M  END
>  <minimizedAffinity>
-3.01093721

$$$$

 OpenBabel03242518293D

 15 15  0  0  0  0  0  0  0  0999 V2000
   37.6030   30.7870   41.1230 C   0  0  0  0  0  0  0  0  0  0  0  0
   36.7360   31.4240   40.2320 C   0  0  0  0  0  0  0  0  0  0  0  0
   37.2310   32.5850   39.6000 C   0  0  0  0  0  0  0  0  0  0  0  0
   38.4930   33.0010   39.8940 N   0  0  0  0  0  0  0  0  0  0  0  0
   39.2810   32.3320   40.7710 C   0  0  0  0  0  0  0  0  0  0  0  0
   38.8270   31.2290   41.3790 N   0  0  0  0  0  0  0  0  0  0  0  0
   35.7350   31.0970   39.9970 H   0  0  0  0  0  0  0  0  0  0  0  0
   36.6030   33.1260   38.8960 H   0  0  0  0  0  0  0  0  0  0  0  0
   40.2880   32.6540   41.0130 H   0  0  0  0  0  0  0  0  0  0  0  0
   37.0220   29.6150   41.7200 C   0  0  0  0  0  0  0  0  0  0  0  0
   36.1520   28.8620   41.2150 O   0  0  0  0  0  0  0  0  0  0  0  0
   37.4900   29.3090   42.9860 O   0  0  0  0  0  0  0  0  0  0  0  0
   38.1500   28.1510   43.3330 C   0  0  0  0  0  0  0  0  0  0  0  0
   37.9040   27.5400   44.1900 H   0  0  0  0  0  0  0  0  0  0  0  0
   39.0970   27.8700   42.5240 O   0  0  0  0  0  0  0  0  0  0  0  0
  1  6  1  0  0  0  0
  1 10  1  0  0  0  0
  2  1  2  0  0  0  0
  3  4  2  0  0  0  0
  3  2  1  0  0  0  0
  4  5  1  0  0  0  0
  5  9  1  0  0  0  0
  5  6  2  0  0  0  0
  7  2  1  0  0  0  0
  8  3  1  0  0  0  0
 10 12  1  0  0  0  0
 11 10  2  0  0  0  0
 12 13  1  0  0  0  0
 13 14  1  0  0  0  0
 15 13  2  0  0  0  0
M  END
>  <minimizedAffinity>
-2.9854722

$$$$

 OpenBabel03242518293D

 15 15  0  0  0  0  0  0  0  0999 V2000
   37.4330   29.1300   41.8320 C   0  0  0  0  0  0  0  0  0  0  0  0
   36.5630   28.0680   42.0870 C   0  0  0  0  0  0  0  0  0  0  0  0
   37.0470   27.0550   42.9420 C   0  0  0  0  0  0  0  0  0  0  0  0
   38.3020   27.1760   43.4530 N   0  0  0  0  0  0  0  0  0  0  0  0
   39.0930   28.2360   43.1620 C   0  0  0  0  0  0  0  0  0  0  0  0
   38.6500   29.2060   42.3520 N   0  0  0  0  0  0  0  0  0  0  0  0
   35.5660   27.9690   41.6830 H   0  0  0  0  0  0  0  0  0  0  0  0
   36.4150   26.2010   43.1790 H   0  0  0  0  0  0  0  0  0  0  0  0
   40.0960   28.3440   43.5630 H   0  0  0  0  0  0  0  0  0  0  0  0
   36.8630   30.1160   40.9530 C   0  0  0  0  0  0  0  0  0  0  0  0
   36.1000   31.0630   41.2740 O   0  0  0  0  0  0  0  0  0  0  0  0
   37.2090   29.9840   39.6200 O   0  0  0  0  0  0  0  0  0  0  0  0
   36.3360   30.0620   38.5590 C   0  0  0  0  0  0  0  0  0  0  0  0
   35.2700   29.8960   38.6290 H   0  0  0  0  0  0  0  0  0  0  0  0
   36.9260   30.3570   37.4650 O   0  0  0  0  0  0  0  0  0  0  0  0
  1  2  2  0  0  0  0
  1  6  1  0  0  0  0
  2  3  1  0  0  0  0
  3  8  1  0  0  0  0
  3  4  2  0  0  0  0
  5  4  1  0  0  0  0
  5  9  1  0  0  0  0
  6  5  2  0  0  0  0
  7  2  1  0  0  0  0
 10 11  2  0  0  0  0
 10  1  1  0  0  0  0
 12 10  1  0  0  0  0
 13 14  1  0  0  0  0
 13 12  1  0  0  0  0
 15 13  2  0  0  0  0
M  END
>  <minimizedAffinity>
-2.97680902

$$$$
