
 OpenBabel03252503003D

 24 24  0  0  0  0  0  0  0  0999 V2000
   42.8320   35.4890   41.3940 C   0  0  0  0  0  0  0  0  0  0  0  0
   43.7810   35.6300   40.8420 H   0  0  0  0  0  0  0  0  0  0  0  0
   42.1190   36.2940   41.1330 H   0  0  0  0  0  0  0  0  0  0  0  0
   43.1570   35.4960   42.8170 N   0  0  0  0  0  0  0  0  0  0  0  0
   42.5980   36.2040   43.3290 H   0  0  0  0  0  0  0  0  0  0  0  0
   44.8450   35.6850   43.0910 S   0  0  0  0  0  0  0  0  0  0  0  0
   45.6540   35.1580   41.9580 O   0  0  0  0  0  0  0  0  0  0  0  0
   46.0100   35.6750   41.1890 H   0  0  0  0  0  0  0  0  0  0  0  0
   45.0830   37.1720   43.2600 O   0  0  0  0  0  0  0  0  0  0  0  0
   45.9850   37.5620   43.0690 H   0  0  0  0  0  0  0  0  0  0  0  0
   45.2400   34.9700   44.5480 O   0  0  0  0  0  0  0  0  0  0  0  0
   44.5540   35.3190   45.7060 C   0  0  0  0  0  0  0  0  0  0  0  0
   44.0490   36.2810   45.6850 H   0  0  0  0  0  0  0  0  0  0  0  0
   44.5600   34.5120   46.6860 O   0  0  0  0  0  0  0  0  0  0  0  0
   42.1950   33.8460   41.0140 S   0  0  0  0  0  0  0  0  0  0  0  0
   39.5680   33.8010   40.1810 C   0  0  0  0  0  0  0  0  0  0  0  0
   40.8790   34.0150   39.7850 C   0  0  0  0  0  0  0  0  0  0  0  0
   41.1820   34.3540   38.4640 C   0  0  0  0  0  0  0  0  0  0  0  0
   40.1140   34.4520   37.6340 N   0  0  0  0  0  0  0  0  0  0  0  0
   38.8680   34.2450   38.0290 C   0  0  0  0  0  0  0  0  0  0  0  0
   38.5470   33.9200   39.2790 N   0  0  0  0  0  0  0  0  0  0  0  0
   39.3780   33.5370   41.2300 H   0  0  0  0  0  0  0  0  0  0  0  0
   42.2060   34.5190   38.1680 H   0  0  0  0  0  0  0  0  0  0  0  0
   38.1520   34.3690   37.2260 H   0  0  0  0  0  0  0  0  0  0  0  0
  1  4  1  0  0  0  0
  2  1  1  0  0  0  0
  3  1  1  0  0  0  0
  4  6  1  0  0  0  0
  4  5  1  0  0  0  0
  6  9  1  0  0  0  0
  6 11  1  0  0  0  0
  7  6  1  0  0  0  0
  8  7  1  0  0  0  0
 10  9  1  0  0  0  0
 11 12  1  0  0  0  0
 12 14  2  0  0  0  0
 13 12  1  0  0  0  0
 15  1  1  0  0  0  0
 16 22  1  0  0  0  0
 17 16  1  0  0  0  0
 17 15  1  0  0  0  0
 18 17  2  0  0  0  0
 19 20  2  0  0  0  0
 19 18  1  0  0  0  0
 20 21  1  0  0  0  0
 21 16  2  0  0  0  0
 23 18  1  0  0  0  0
 24 20  1  0  0  0  0
M  END
>  <minimizedAffinity>
-4.22086143

>  <minimizedRMSD>
0.961812258

$$$$
