
 OpenBabel03252508593D

 39 40  0  0  1  0  0  0  0  0999 V2000
   47.0830   34.1120   43.2090 N   0  0  0  0  0  0  0  0  0  0  0  0
   46.7030   35.3730   42.6660 C   0  0  0  0  0  0  0  0  0  0  0  0
   45.2570   35.7340   42.8260 C   0  0  0  0  0  0  0  0  0  0  0  0
   44.5940   35.1800   44.0580 C   0  0  0  0  0  0  0  0  0  0  0  0
   45.6020   34.5050   44.9580 C   0  0  0  0  0  0  0  0  0  0  0  0
   46.2270   33.4010   44.0300 C   0  0  2  0  0  0  0  0  0  0  0  0
   46.9740   35.5430   41.6190 H   0  0  0  0  0  0  0  0  0  0  0  0
   47.2920   36.1480   43.2370 H   0  0  0  0  0  0  0  0  0  0  0  0
   45.1770   36.8500   42.8900 H   0  0  0  0  0  0  0  0  0  0  0  0
   44.6860   35.4780   41.8960 H   0  0  0  0  0  0  0  0  0  0  0  0
   43.9610   35.9270   44.5780 H   0  0  0  0  0  0  0  0  0  0  0  0
   43.8870   34.3840   43.7140 H   0  0  0  0  0  0  0  0  0  0  0  0
   45.0910   34.0290   45.8050 H   0  0  0  0  0  0  0  0  0  0  0  0
   46.4130   35.2040   45.2420 H   0  0  0  0  0  0  0  0  0  0  0  0
   45.3810   32.8660   43.5520 H   0  0  0  0  0  0  0  0  0  0  0  0
   48.0510   33.4010   42.4270 C   0  0  0  0  0  0  0  0  0  0  0  0
   48.6250   32.7130   43.0760 H   0  0  0  0  0  0  0  0  0  0  0  0
   48.7270   34.1430   41.9520 H   0  0  0  0  0  0  0  0  0  0  0  0
   47.3180   32.5910   41.3940 C   0  0  0  0  0  0  0  0  0  0  0  0
   46.2390   32.9090   41.3270 H   0  0  0  0  0  0  0  0  0  0  0  0
   47.3160   31.5090   41.5810 H   0  0  0  0  0  0  0  0  0  0  0  0
   49.3170   32.1900   38.2360 C   0  0  0  0  0  0  0  0  0  0  0  0
   48.7570   31.9370   39.5020 C   0  0  0  0  0  0  0  0  0  0  0  0
   47.9060   32.8660   40.0550 C   0  0  0  0  0  0  0  0  0  0  0  0
   47.6480   33.9810   39.3500 N   0  0  0  0  0  0  0  0  0  0  0  0
   48.1860   34.2140   38.1430 C   0  0  0  0  0  0  0  0  0  0  0  0
   49.0270   33.3210   37.5730 N   0  0  0  0  0  0  0  0  0  0  0  0
   49.9880   31.4510   37.8060 H   0  0  0  0  0  0  0  0  0  0  0  0
   49.0020   31.0250   40.0160 H   0  0  0  0  0  0  0  0  0  0  0  0
   47.9300   35.1360   37.6370 H   0  0  0  0  0  0  0  0  0  0  0  0
   46.9190   32.6230   44.9460 O   0  0  0  0  0  0  0  0  0  0  0  0
   45.2160   30.7840   44.0510 O   0  0  0  0  0  0  0  0  0  0  0  0
   46.2320   31.1030   45.1550 P   0  0  2  0  0  0  0  0  0  0  0  0
   45.2980   31.1970   46.5870 O   0  0  0  0  0  0  0  0  0  0  0  0
   45.8980   31.1740   47.3730 H   0  0  0  0  0  0  0  0  0  0  0  0
   47.3540   29.8950   45.3580 O   0  0  0  0  0  0  0  0  0  0  0  0
   48.5680   29.9670   44.6900 C   0  0  0  0  0  0  0  0  0  0  0  0
   49.5290   30.0470   45.1860 H   0  0  0  0  0  0  0  0  0  0  0  0
   48.3930   29.9270   43.4400 O   0  0  0  0  0  0  0  0  0  0  0  0
  1  6  1  0  0  0  0
  2  3  1  0  0  0  0
  2  1  1  0  0  0  0
  2  8  1  0  0  0  0
  3  9  1  0  0  0  0
  3  4  1  0  0  0  0
  4 11  1  0  0  0  0
  4  5  1  0  0  0  0
  5 14  1  0  0  0  0
  5 13  1  0  0  0  0
  6 15  1  6  0  0  0
  6 31  1  0  0  0  0
  6  5  1  0  0  0  0
  7  2  1  0  0  0  0
 10  3  1  0  0  0  0
 12  4  1  0  0  0  0
 16 17  1  0  0  0  0
 16  1  1  0  0  0  0
 18 16  1  0  0  0  0
 19 21  1  0  0  0  0
 19 16  1  0  0  0  0
 20 19  1  0  0  0  0
 22 23  1  0  0  0  0
 23 29  1  0  0  0  0
 23 24  2  0  0  0  0
 24 19  1  0  0  0  0
 25 24  1  0  0  0  0
 26 25  2  0  0  0  0
 27 26  1  0  0  0  0
 27 22  2  0  0  0  0
 28 22  1  0  0  0  0
 30 26  1  0  0  0  0
 31 33  1  0  0  0  0
 33 32  2  6  0  0  0
 33 36  1  0  0  0  0
 33 34  1  0  0  0  0
 34 35  1  0  0  0  0
 37 38  1  0  0  0  0
 37 36  1  0  0  0  0
 39 37  2  0  0  0  0
M  END
>  <minimizedAffinity>
-3.59947848

>  <minimizedRMSD>
0.424098492

$$$$
