
 OpenBabel03252508583D

 39 40  0  0  1  0  0  0  0  0999 V2000
   46.7540   34.4220   43.4700 N   0  0  0  0  0  0  0  0  0  0  0  0
   46.2900   35.5660   42.7590 C   0  0  0  0  0  0  0  0  0  0  0  0
   44.8210   35.8380   42.8640 C   0  0  0  0  0  0  0  0  0  0  0  0
   44.1830   35.4110   44.1590 C   0  0  0  0  0  0  0  0  0  0  0  0
   45.2270   34.9400   45.1460 C   0  0  0  0  0  0  0  0  0  0  0  0
   45.9420   33.7680   44.3790 C   0  0  2  0  0  0  0  0  0  0  0  0
   46.5610   35.6110   41.6990 H   0  0  0  0  0  0  0  0  0  0  0  0
   46.8150   36.4530   43.2190 H   0  0  0  0  0  0  0  0  0  0  0  0
   44.6590   36.9430   42.7750 H   0  0  0  0  0  0  0  0  0  0  0  0
   44.2810   35.4170   41.9770 H   0  0  0  0  0  0  0  0  0  0  0  0
   43.4920   36.1720   44.5700 H   0  0  0  0  0  0  0  0  0  0  0  0
   43.5410   34.5260   43.9250 H   0  0  0  0  0  0  0  0  0  0  0  0
   44.7410   34.5480   46.0480 H   0  0  0  0  0  0  0  0  0  0  0  0
   45.9820   35.7280   45.3330 H   0  0  0  0  0  0  0  0  0  0  0  0
   45.1420   33.1130   43.9770 H   0  0  0  0  0  0  0  0  0  0  0  0
   47.7810   33.6840   42.7950 C   0  0  0  0  0  0  0  0  0  0  0  0
   48.3610   33.0920   43.5280 H   0  0  0  0  0  0  0  0  0  0  0  0
   48.4390   34.4070   42.2690 H   0  0  0  0  0  0  0  0  0  0  0  0
   47.1220   32.7400   41.8270 C   0  0  0  0  0  0  0  0  0  0  0  0
   46.0320   32.9940   41.6980 H   0  0  0  0  0  0  0  0  0  0  0  0
   47.1660   31.6840   42.1200 H   0  0  0  0  0  0  0  0  0  0  0  0
   49.1890   32.1010   38.7530 C   0  0  0  0  0  0  0  0  0  0  0  0
   48.6000   31.9440   40.0220 C   0  0  0  0  0  0  0  0  0  0  0  0
   47.7400   32.9140   40.4850 C   0  0  0  0  0  0  0  0  0  0  0  0
   47.5000   33.9720   39.6920 N   0  0  0  0  0  0  0  0  0  0  0  0
   48.0660   34.1140   38.4830 C   0  0  0  0  0  0  0  0  0  0  0  0
   48.9160   33.1800   38.0000 N   0  0  0  0  0  0  0  0  0  0  0  0
   49.8670   31.3310   38.3950 H   0  0  0  0  0  0  0  0  0  0  0  0
   48.8320   31.0740   40.6080 H   0  0  0  0  0  0  0  0  0  0  0  0
   47.8230   34.9960   37.9040 H   0  0  0  0  0  0  0  0  0  0  0  0
   46.6770   33.1760   45.3940 O   0  0  0  0  0  0  0  0  0  0  0  0
   45.4490   31.0090   44.4560 O   0  0  0  0  0  0  0  0  0  0  0  0
   46.2780   31.5590   45.6230 P   0  0  2  0  0  0  0  0  0  0  0  0
   45.2150   31.5170   46.9650 O   0  0  0  0  0  0  0  0  0  0  0  0
   45.7340   31.6390   47.7980 H   0  0  0  0  0  0  0  0  0  0  0  0
   47.5880   30.6010   45.9810 O   0  0  0  0  0  0  0  0  0  0  0  0
   48.1260   29.7800   45.0010 C   0  0  0  0  0  0  0  0  0  0  0  0
   48.0580   28.6980   45.0150 H   0  0  0  0  0  0  0  0  0  0  0  0
   48.6950   30.4640   44.1070 O   0  0  0  0  0  0  0  0  0  0  0  0
  1  6  1  0  0  0  0
  2  3  1  0  0  0  0
  2  8  1  0  0  0  0
  2  1  1  0  0  0  0
  3  4  1  0  0  0  0
  4 11  1  0  0  0  0
  4  5  1  0  0  0  0
  5 14  1  0  0  0  0
  5 13  1  0  0  0  0
  6 15  1  6  0  0  0
  6  5  1  0  0  0  0
  6 31  1  0  0  0  0
  7  2  1  0  0  0  0
  9  3  1  0  0  0  0
 10  3  1  0  0  0  0
 12  4  1  0  0  0  0
 16  1  1  0  0  0  0
 16 17  1  0  0  0  0
 18 16  1  0  0  0  0
 19 21  1  0  0  0  0
 19 16  1  0  0  0  0
 20 19  1  0  0  0  0
 22 23  1  0  0  0  0
 23 24  2  0  0  0  0
 23 29  1  0  0  0  0
 24 19  1  0  0  0  0
 25 24  1  0  0  0  0
 26 25  2  0  0  0  0
 27 26  1  0  0  0  0
 27 22  2  0  0  0  0
 28 22  1  0  0  0  0
 30 26  1  0  0  0  0
 31 33  1  0  0  0  0
 33 32  2  6  0  0  0
 33 36  1  0  0  0  0
 33 34  1  0  0  0  0
 34 35  1  0  0  0  0
 37 38  1  0  0  0  0
 37 36  1  0  0  0  0
 39 37  2  0  0  0  0
M  END
>  <minimizedAffinity>
-3.75289488

>  <minimizedRMSD>
0.684032023

$$$$
