
 OpenBabel03252508593D

 39 40  0  0  1  0  0  0  0  0999 V2000
   46.6000   34.5200   43.6080 N   0  0  0  0  0  0  0  0  0  0  0  0
   46.0910   35.4760   42.6820 C   0  0  0  0  0  0  0  0  0  0  0  0
   44.6020   35.6440   42.6820 C   0  0  0  0  0  0  0  0  0  0  0  0
   43.9330   35.4070   44.0090 C   0  0  0  0  0  0  0  0  0  0  0  0
   44.9570   35.2080   45.1030 C   0  0  0  0  0  0  0  0  0  0  0  0
   45.7920   33.9780   44.5900 C   0  0  2  0  0  0  0  0  0  0  0  0
   46.4110   35.3510   41.6420 H   0  0  0  0  0  0  0  0  0  0  0  0
   46.5260   36.4710   42.9900 H   0  0  0  0  0  0  0  0  0  0  0  0
   44.3660   36.6990   42.3850 H   0  0  0  0  0  0  0  0  0  0  0  0
   44.1400   35.0280   41.8680 H   0  0  0  0  0  0  0  0  0  0  0  0
   43.1690   36.1730   44.2480 H   0  0  0  0  0  0  0  0  0  0  0  0
   43.3690   34.4460   43.9190 H   0  0  0  0  0  0  0  0  0  0  0  0
   44.4560   34.9470   46.0440 H   0  0  0  0  0  0  0  0  0  0  0  0
   45.6430   36.0750   45.1690 H   0  0  0  0  0  0  0  0  0  0  0  0
   45.0640   33.1980   44.2870 H   0  0  0  0  0  0  0  0  0  0  0  0
   47.7100   33.7570   43.1170 C   0  0  0  0  0  0  0  0  0  0  0  0
   48.2620   33.3100   43.9650 H   0  0  0  0  0  0  0  0  0  0  0  0
   48.3700   34.4370   42.5380 H   0  0  0  0  0  0  0  0  0  0  0  0
   47.1730   32.6490   42.2530 C   0  0  0  0  0  0  0  0  0  0  0  0
   46.0560   32.7330   42.1410 H   0  0  0  0  0  0  0  0  0  0  0  0
   47.3760   31.6390   42.6310 H   0  0  0  0  0  0  0  0  0  0  0  0
   49.3140   32.1160   39.2080 C   0  0  0  0  0  0  0  0  0  0  0  0
   48.7810   31.9870   40.5050 C   0  0  0  0  0  0  0  0  0  0  0  0
   47.7300   32.7920   40.8810 C   0  0  0  0  0  0  0  0  0  0  0  0
   47.2590   33.6710   39.9790 N   0  0  0  0  0  0  0  0  0  0  0  0
   47.7720   33.7870   38.7450 C   0  0  0  0  0  0  0  0  0  0  0  0
   48.8050   33.0110   38.3460 N   0  0  0  0  0  0  0  0  0  0  0  0
   50.1430   31.4760   38.9200 H   0  0  0  0  0  0  0  0  0  0  0  0
   49.2030   31.2640   41.1800 H   0  0  0  0  0  0  0  0  0  0  0  0
   47.3370   34.5190   38.0760 H   0  0  0  0  0  0  0  0  0  0  0  0
   46.5160   33.6390   45.7230 O   0  0  0  0  0  0  0  0  0  0  0  0
   45.7000   31.1840   45.1020 O   0  0  0  0  0  0  0  0  0  0  0  0
   46.2050   32.0710   46.2450 P   0  0  2  0  0  0  0  0  0  0  0  0
   44.8790   32.1840   47.3240 O   0  0  0  0  0  0  0  0  0  0  0  0
   45.1900   32.5470   48.1890 H   0  0  0  0  0  0  0  0  0  0  0  0
   47.4750   31.3880   47.0710 O   0  0  0  0  0  0  0  0  0  0  0  0
   47.9310   30.1290   46.7080 C   0  0  0  0  0  0  0  0  0  0  0  0
   47.4890   29.5290   45.9190 H   0  0  0  0  0  0  0  0  0  0  0  0
   48.9180   29.7880   47.4170 O   0  0  0  0  0  0  0  0  0  0  0  0
  1  6  1  0  0  0  0
  2  3  1  0  0  0  0
  2  8  1  0  0  0  0
  2  1  1  0  0  0  0
  3  4  1  0  0  0  0
  4 11  1  0  0  0  0
  4  5  1  0  0  0  0
  5 14  1  0  0  0  0
  5 13  1  0  0  0  0
  6 15  1  6  0  0  0
  6  5  1  0  0  0  0
  6 31  1  0  0  0  0
  7  2  1  0  0  0  0
  9  3  1  0  0  0  0
 10  3  1  0  0  0  0
 12  4  1  0  0  0  0
 16  1  1  0  0  0  0
 16 17  1  0  0  0  0
 18 16  1  0  0  0  0
 19 21  1  0  0  0  0
 19 16  1  0  0  0  0
 20 19  1  0  0  0  0
 22 23  1  0  0  0  0
 23 24  2  0  0  0  0
 23 29  1  0  0  0  0
 24 19  1  0  0  0  0
 25 24  1  0  0  0  0
 26 25  2  0  0  0  0
 27 26  1  0  0  0  0
 27 22  2  0  0  0  0
 28 22  1  0  0  0  0
 30 26  1  0  0  0  0
 31 33  1  0  0  0  0
 33 32  2  6  0  0  0
 33 36  1  0  0  0  0
 33 34  1  0  0  0  0
 34 35  1  0  0  0  0
 37 36  1  0  0  0  0
 37 39  2  0  0  0  0
 38 37  1  0  0  0  0
M  END
>  <minimizedAffinity>
-3.94347

>  <minimizedRMSD>
1.30380666

$$$$
