
 OpenBabel03242518273D

 15 15  0  0  0  0  0  0  0  0999 V2000
   46.2300   34.4590   43.5440 C   0  0  0  0  0  0  0  0  0  0  0  0
   45.4790   35.6130   43.3100 C   0  0  0  0  0  0  0  0  0  0  0  0
   44.6330   36.0310   44.3590 C   0  0  0  0  0  0  0  0  0  0  0  0
   44.6030   35.2990   45.5060 N   0  0  0  0  0  0  0  0  0  0  0  0
   45.3610   34.1870   45.6640 C   0  0  0  0  0  0  0  0  0  0  0  0
   46.1690   33.7760   44.6790 N   0  0  0  0  0  0  0  0  0  0  0  0
   45.5000   36.1950   42.4010 H   0  0  0  0  0  0  0  0  0  0  0  0
   44.0220   36.9230   44.2360 H   0  0  0  0  0  0  0  0  0  0  0  0
   45.3460   33.5960   46.5730 H   0  0  0  0  0  0  0  0  0  0  0  0
   47.0640   34.1030   42.4270 C   0  0  0  0  0  0  0  0  0  0  0  0
   47.4730   32.9530   42.1250 O   0  0  0  0  0  0  0  0  0  0  0  0
   47.4410   35.1600   41.6160 O   0  0  0  0  0  0  0  0  0  0  0  0
   48.7070   35.3690   41.1170 C   0  0  0  0  0  0  0  0  0  0  0  0
   49.1730   34.7580   40.3550 H   0  0  0  0  0  0  0  0  0  0  0  0
   49.2820   36.3740   41.6540 O   0  0  0  0  0  0  0  0  0  0  0  0
  1  6  1  0  0  0  0
  2  1  2  0  0  0  0
  2  3  1  0  0  0  0
  3  4  2  0  0  0  0
  4  5  1  0  0  0  0
  5  9  1  0  0  0  0
  6  5  2  0  0  0  0
  7  2  1  0  0  0  0
  8  3  1  0  0  0  0
 10  1  1  0  0  0  0
 11 10  2  0  0  0  0
 12 10  1  0  0  0  0
 13 12  1  0  0  0  0
 13 15  2  0  0  0  0
 14 13  1  0  0  0  0
M  END
>  <minimizedAffinity>
-3.65220761

>  <minimizedRMSD>
1.62441134

$$$$
