
 OpenBabel03252508593D

 39 40  0  0  1  0  0  0  0  0999 V2000
   47.1920   34.1190   43.0750 N   0  0  0  0  0  0  0  0  0  0  0  0
   46.6890   35.3340   42.5240 C   0  0  0  0  0  0  0  0  0  0  0  0
   45.2320   35.5910   42.7550 C   0  0  0  0  0  0  0  0  0  0  0  0
   44.6780   35.0240   44.0350 C   0  0  0  0  0  0  0  0  0  0  0  0
   45.7820   34.4500   44.8940 C   0  0  0  0  0  0  0  0  0  0  0  0
   46.4380   33.3700   43.9580 C   0  0  2  0  0  0  0  0  0  0  0  0
   46.8900   35.4940   41.4600 H   0  0  0  0  0  0  0  0  0  0  0  0
   47.2480   36.1660   43.0430 H   0  0  0  0  0  0  0  0  0  0  0  0
   45.0710   36.6990   42.7970 H   0  0  0  0  0  0  0  0  0  0  0  0
   44.6320   35.2680   41.8650 H   0  0  0  0  0  0  0  0  0  0  0  0
   44.0200   35.7350   44.5710 H   0  0  0  0  0  0  0  0  0  0  0  0
   44.0170   34.1680   43.7490 H   0  0  0  0  0  0  0  0  0  0  0  0
   45.3540   33.9610   45.7790 H   0  0  0  0  0  0  0  0  0  0  0  0
   46.5520   35.2140   45.1150 H   0  0  0  0  0  0  0  0  0  0  0  0
   45.6100   32.7610   43.5410 H   0  0  0  0  0  0  0  0  0  0  0  0
   48.1680   33.4610   42.2570 C   0  0  0  0  0  0  0  0  0  0  0  0
   48.7900   32.7910   42.8810 H   0  0  0  0  0  0  0  0  0  0  0  0
   48.7970   34.2380   41.7730 H   0  0  0  0  0  0  0  0  0  0  0  0
   47.4420   32.6320   41.2350 C   0  0  0  0  0  0  0  0  0  0  0  0
   46.3520   32.9140   41.1890 H   0  0  0  0  0  0  0  0  0  0  0  0
   47.4780   31.5500   41.4170 H   0  0  0  0  0  0  0  0  0  0  0  0
   49.3450   32.2810   38.0110 C   0  0  0  0  0  0  0  0  0  0  0  0
   48.8180   32.0040   39.2870 C   0  0  0  0  0  0  0  0  0  0  0  0
   47.9950   32.9310   39.8860 C   0  0  0  0  0  0  0  0  0  0  0  0
   47.7310   34.0650   39.2140 N   0  0  0  0  0  0  0  0  0  0  0  0
   48.2380   34.3200   37.9980 C   0  0  0  0  0  0  0  0  0  0  0  0
   49.0510   33.4300   37.3830 N   0  0  0  0  0  0  0  0  0  0  0  0
   49.9940   31.5430   37.5460 H   0  0  0  0  0  0  0  0  0  0  0  0
   49.0660   31.0780   39.7730 H   0  0  0  0  0  0  0  0  0  0  0  0
   47.9790   35.2570   37.5210 H   0  0  0  0  0  0  0  0  0  0  0  0
   47.2350   32.6710   44.8520 O   0  0  0  0  0  0  0  0  0  0  0  0
   46.1050   30.4810   43.8490 O   0  0  0  0  0  0  0  0  0  0  0  0
   46.6840   31.1060   45.1230 P   0  0  2  0  0  0  0  0  0  0  0  0
   45.3450   31.2500   46.1820 O   0  0  0  0  0  0  0  0  0  0  0  0
   45.6690   31.4310   47.0980 H   0  0  0  0  0  0  0  0  0  0  0  0
   47.8110   30.1300   45.8590 O   0  0  0  0  0  0  0  0  0  0  0  0
   48.8060   29.5370   45.0960 C   0  0  0  0  0  0  0  0  0  0  0  0
   48.7370   29.3810   44.0260 H   0  0  0  0  0  0  0  0  0  0  0  0
   49.7880   29.2090   45.8180 O   0  0  0  0  0  0  0  0  0  0  0  0
  1  6  1  0  0  0  0
  2  3  1  0  0  0  0
  2  8  1  0  0  0  0
  2  1  1  0  0  0  0
  3  9  1  0  0  0  0
  3  4  1  0  0  0  0
  4 11  1  0  0  0  0
  4  5  1  0  0  0  0
  5 14  1  0  0  0  0
  5 13  1  0  0  0  0
  6 15  1  6  0  0  0
  6 31  1  0  0  0  0
  6  5  1  0  0  0  0
  7  2  1  0  0  0  0
 10  3  1  0  0  0  0
 12  4  1  0  0  0  0
 16 17  1  0  0  0  0
 16  1  1  0  0  0  0
 18 16  1  0  0  0  0
 19 21  1  0  0  0  0
 19 16  1  0  0  0  0
 20 19  1  0  0  0  0
 22 23  1  0  0  0  0
 23 29  1  0  0  0  0
 23 24  2  0  0  0  0
 24 19  1  0  0  0  0
 25 24  1  0  0  0  0
 26 25  2  0  0  0  0
 27 26  1  0  0  0  0
 27 22  2  0  0  0  0
 28 22  1  0  0  0  0
 30 26  1  0  0  0  0
 31 33  1  0  0  0  0
 33 32  2  6  0  0  0
 33 36  1  0  0  0  0
 33 34  1  0  0  0  0
 34 35  1  0  0  0  0
 37 39  2  0  0  0  0
 37 36  1  0  0  0  0
 38 37  1  0  0  0  0
M  END
>  <minimizedAffinity>
-3.64210987

>  <minimizedRMSD>
0.118372276

$$$$
