
 OpenBabel03252501583D

 27 28  0  0  0  0  0  0  0  0999 V2000
   36.9540   31.0710   38.2540 C   0  0  0  0  0  0  0  0  0  0  0  0
   37.0570   30.6260   39.5710 C   0  0  0  0  0  0  0  0  0  0  0  0
   37.5760   29.3710   39.8030 C   0  0  0  0  0  0  0  0  0  0  0  0
   37.9620   28.6280   38.7160 N   0  0  0  0  0  0  0  0  0  0  0  0
   37.8450   29.0960   37.4500 C   0  0  0  0  0  0  0  0  0  0  0  0
   37.3420   30.3190   37.2090 N   0  0  0  0  0  0  0  0  0  0  0  0
   36.5620   32.0380   37.9850 H   0  0  0  0  0  0  0  0  0  0  0  0
   38.1630   28.4720   36.6440 H   0  0  0  0  0  0  0  0  0  0  0  0
   37.6920   28.8880   41.1580 C   0  0  0  0  0  0  0  0  0  0  0  0
   38.6810   29.1090   42.0720 C   0  0  0  0  0  0  0  0  0  0  0  0
   38.6160   28.5570   43.3310 C   0  0  0  0  0  0  0  0  0  0  0  0
   37.5370   27.7650   43.6790 C   0  0  0  0  0  0  0  0  0  0  0  0
   36.5270   27.5250   42.7770 C   0  0  0  0  0  0  0  0  0  0  0  0
   36.6200   28.0980   41.5130 C   0  0  0  0  0  0  0  0  0  0  0  0
   39.4900   29.7440   41.7110 H   0  0  0  0  0  0  0  0  0  0  0  0
   39.4490   28.7840   44.0000 H   0  0  0  0  0  0  0  0  0  0  0  0
   37.5430   27.3660   44.6640 H   0  0  0  0  0  0  0  0  0  0  0  0
   35.6890   26.8960   43.0840 H   0  0  0  0  0  0  0  0  0  0  0  0
   35.7580   27.8390   40.8770 H   0  0  0  0  0  0  0  0  0  0  0  0
   36.6030   31.5320   40.6470 C   0  0  0  0  0  0  0  0  0  0  0  0
   35.5240   31.5380   40.7690 H   0  0  0  0  0  0  0  0  0  0  0  0
   37.1100   31.2340   41.6070 H   0  0  0  0  0  0  0  0  0  0  0  0
   37.1690   32.8300   40.3320 N   0  0  0  0  0  0  0  0  0  0  0  0
   36.6650   33.6130   39.8230 H   0  0  0  0  0  0  0  0  0  0  0  0
   38.5290   32.9650   40.7890 C   0  0  0  0  0  0  0  0  0  0  0  0
   38.9830   32.1130   41.3080 H   0  0  0  0  0  0  0  0  0  0  0  0
   39.1760   34.0200   40.6030 O   0  0  0  0  0  0  0  0  0  0  0  0
  1  2  1  0  0  0  0
  2  3  2  0  0  0  0
  2 20  1  0  0  0  0
  3  9  1  0  0  0  0
  4  3  1  0  0  0  0
  5  4  2  0  0  0  0
  6  5  1  0  0  0  0
  6  1  2  0  0  0  0
  7  1  1  0  0  0  0
  8  5  1  0  0  0  0
  9 14  2  0  0  0  0
  9 10  1  0  0  0  0
 10 11  2  0  0  0  0
 11 12  1  0  0  0  0
 11 16  1  0  0  0  0
 12 17  1  0  0  0  0
 13 18  1  0  0  0  0
 13 12  2  0  0  0  0
 14 13  1  0  0  0  0
 15 10  1  0  0  0  0
 19 14  1  0  0  0  0
 20 21  1  0  0  0  0
 20 22  1  0  0  0  0
 23 20  1  0  0  0  0
 23 25  1  0  0  0  0
 24 23  1  0  0  0  0
 25 26  1  0  0  0  0
 27 25  2  0  0  0  0
M  END
>  <minimizedAffinity>
-4.79521227

$$$$

 OpenBabel03252501583D

 27 28  0  0  0  0  0  0  0  0999 V2000
   39.1980   32.3680   40.9980 C   0  0  0  0  0  0  0  0  0  0  0  0
   38.9610   31.1290   41.5920 C   0  0  0  0  0  0  0  0  0  0  0  0
   37.7490   30.5130   41.3680 C   0  0  0  0  0  0  0  0  0  0  0  0
   36.8400   31.1610   40.5690 N   0  0  0  0  0  0  0  0  0  0  0  0
   37.1090   32.3640   40.0090 C   0  0  0  0  0  0  0  0  0  0  0  0
   38.2880   32.9770   40.2180 N   0  0  0  0  0  0  0  0  0  0  0  0
   40.1170   32.9160   41.1200 H   0  0  0  0  0  0  0  0  0  0  0  0
   36.3620   32.8200   39.3960 H   0  0  0  0  0  0  0  0  0  0  0  0
   37.4790   29.2300   41.9730 C   0  0  0  0  0  0  0  0  0  0  0  0
   37.3280   28.9110   43.2910 C   0  0  0  0  0  0  0  0  0  0  0  0
   37.0710   27.6170   43.6790 C   0  0  0  0  0  0  0  0  0  0  0  0
   36.9640   26.6210   42.7260 C   0  0  0  0  0  0  0  0  0  0  0  0
   37.1130   26.9150   41.3900 C   0  0  0  0  0  0  0  0  0  0  0  0
   37.3710   28.2330   41.0280 C   0  0  0  0  0  0  0  0  0  0  0  0
   37.4270   29.7580   43.9700 H   0  0  0  0  0  0  0  0  0  0  0  0
   36.9640   27.4490   44.7540 H   0  0  0  0  0  0  0  0  0  0  0  0
   36.7650   25.6410   43.0860 H   0  0  0  0  0  0  0  0  0  0  0  0
   37.0230   26.1060   40.6620 H   0  0  0  0  0  0  0  0  0  0  0  0
   37.4710   28.3500   39.9370 H   0  0  0  0  0  0  0  0  0  0  0  0
   40.0280   30.5450   42.4300 C   0  0  0  0  0  0  0  0  0  0  0  0
   39.6630   30.1650   43.3790 H   0  0  0  0  0  0  0  0  0  0  0  0
   40.5410   29.7310   41.8470 H   0  0  0  0  0  0  0  0  0  0  0  0
   41.0360   31.5810   42.5580 N   0  0  0  0  0  0  0  0  0  0  0  0
   40.9180   32.5940   42.2620 H   0  0  0  0  0  0  0  0  0  0  0  0
   42.2590   31.0940   43.1440 C   0  0  0  0  0  0  0  0  0  0  0  0
   42.3060   30.0350   43.4250 H   0  0  0  0  0  0  0  0  0  0  0  0
   43.2380   31.8490   43.3300 O   0  0  0  0  0  0  0  0  0  0  0  0
  1  7  1  0  0  0  0
  1  2  1  0  0  0  0
  2 20  1  0  0  0  0
  3  2  2  0  0  0  0
  3  9  1  0  0  0  0
  4  3  1  0  0  0  0
  5  6  1  0  0  0  0
  5  4  2  0  0  0  0
  6  1  2  0  0  0  0
  8  5  1  0  0  0  0
  9 10  1  0  0  0  0
 10 11  2  0  0  0  0
 10 15  1  0  0  0  0
 11 16  1  0  0  0  0
 12 17  1  0  0  0  0
 12 11  1  0  0  0  0
 13 12  2  0  0  0  0
 14 13  1  0  0  0  0
 14  9  2  0  0  0  0
 18 13  1  0  0  0  0
 19 14  1  0  0  0  0
 20 23  1  0  0  0  0
 20 21  1  0  0  0  0
 22 20  1  0  0  0  0
 23 25  1  0  0  0  0
 24 23  1  0  0  0  0
 25 27  2  0  0  0  0
 25 26  1  0  0  0  0
M  END
>  <minimizedAffinity>
-4.60327673

$$$$

 OpenBabel03252501583D

 27 28  0  0  0  0  0  0  0  0999 V2000
   35.3500   29.0470   39.6290 C   0  0  0  0  0  0  0  0  0  0  0  0
   36.1650   30.1180   39.9920 C   0  0  0  0  0  0  0  0  0  0  0  0
   36.8090   30.8210   38.9980 C   0  0  0  0  0  0  0  0  0  0  0  0
   36.6100   30.4220   37.7000 N   0  0  0  0  0  0  0  0  0  0  0  0
   35.8090   29.3760   37.3870 C   0  0  0  0  0  0  0  0  0  0  0  0
   35.1730   28.6800   38.3470 N   0  0  0  0  0  0  0  0  0  0  0  0
   34.8100   28.4460   40.3410 H   0  0  0  0  0  0  0  0  0  0  0  0
   35.6920   29.1110   36.3590 H   0  0  0  0  0  0  0  0  0  0  0  0
   37.6590   31.9340   39.3480 C   0  0  0  0  0  0  0  0  0  0  0  0
   37.3200   33.2260   39.6270 C   0  0  0  0  0  0  0  0  0  0  0  0
   38.2820   34.1560   39.9450 C   0  0  0  0  0  0  0  0  0  0  0  0
   39.6140   33.7830   39.9840 C   0  0  0  0  0  0  0  0  0  0  0  0
   39.9830   32.4870   39.7070 C   0  0  0  0  0  0  0  0  0  0  0  0
   38.9880   31.5690   39.3900 C   0  0  0  0  0  0  0  0  0  0  0  0
   36.2500   33.4290   39.5720 H   0  0  0  0  0  0  0  0  0  0  0  0
   37.9240   35.1670   40.1530 H   0  0  0  0  0  0  0  0  0  0  0  0
   40.3110   34.5440   40.2350 H   0  0  0  0  0  0  0  0  0  0  0  0
   41.0420   32.2240   39.7470 H   0  0  0  0  0  0  0  0  0  0  0  0
   39.3980   30.5660   39.1880 H   0  0  0  0  0  0  0  0  0  0  0  0
   36.2910   30.4390   41.4290 C   0  0  0  0  0  0  0  0  0  0  0  0
   37.0110   31.2260   41.6260 H   0  0  0  0  0  0  0  0  0  0  0  0
   35.2760   30.7200   41.8260 H   0  0  0  0  0  0  0  0  0  0  0  0
   36.5960   29.1810   42.0860 N   0  0  0  0  0  0  0  0  0  0  0  0
   36.0220   28.2910   42.0060 H   0  0  0  0  0  0  0  0  0  0  0  0
   37.7900   29.2520   42.8880 C   0  0  0  0  0  0  0  0  0  0  0  0
   38.3300   30.2060   42.9210 H   0  0  0  0  0  0  0  0  0  0  0  0
   38.2050   28.2600   43.5270 O   0  0  0  0  0  0  0  0  0  0  0  0
  1  2  1  0  0  0  0
  1  7  1  0  0  0  0
  2 20  1  0  0  0  0
  3  9  1  0  0  0  0
  3  2  2  0  0  0  0
  4  3  1  0  0  0  0
  5  4  2  0  0  0  0
  5  6  1  0  0  0  0
  6  1  2  0  0  0  0
  8  5  1  0  0  0  0
  9 14  2  0  0  0  0
  9 10  1  0  0  0  0
 10 11  2  0  0  0  0
 11 12  1  0  0  0  0
 11 16  1  0  0  0  0
 12 17  1  0  0  0  0
 13 18  1  0  0  0  0
 13 12  2  0  0  0  0
 14 13  1  0  0  0  0
 15 10  1  0  0  0  0
 19 14  1  0  0  0  0
 20 21  1  0  0  0  0
 20 22  1  0  0  0  0
 20 23  1  0  0  0  0
 23 25  1  0  0  0  0
 24 23  1  0  0  0  0
 25 26  1  0  0  0  0
 25 27  2  0  0  0  0
M  END
>  <minimizedAffinity>
-4.46151257

$$$$

 OpenBabel03252501583D

 27 28  0  0  0  0  0  0  0  0999 V2000
   38.4380   29.8290   42.1840 C   0  0  0  0  0  0  0  0  0  0  0  0
   37.6940   29.5760   41.0320 C   0  0  0  0  0  0  0  0  0  0  0  0
   36.6860   28.6380   41.0920 C   0  0  0  0  0  0  0  0  0  0  0  0
   36.4740   28.0030   42.2900 N   0  0  0  0  0  0  0  0  0  0  0  0
   37.2180   28.2770   43.3880 C   0  0  0  0  0  0  0  0  0  0  0  0
   38.2050   29.1900   43.3450 N   0  0  0  0  0  0  0  0  0  0  0  0
   39.2410   30.5450   42.2240 H   0  0  0  0  0  0  0  0  0  0  0  0
   37.0070   27.7510   44.2930 H   0  0  0  0  0  0  0  0  0  0  0  0
   35.9020   28.3590   39.9130 C   0  0  0  0  0  0  0  0  0  0  0  0
   36.1250   27.4440   38.9240 C   0  0  0  0  0  0  0  0  0  0  0  0
   35.2540   27.3220   37.8660 C   0  0  0  0  0  0  0  0  0  0  0  0
   34.1360   28.1340   37.7980 C   0  0  0  0  0  0  0  0  0  0  0  0
   33.8890   29.0640   38.7810 C   0  0  0  0  0  0  0  0  0  0  0  0
   34.7860   29.1640   39.8380 C   0  0  0  0  0  0  0  0  0  0  0  0
   37.0280   26.8490   39.0610 H   0  0  0  0  0  0  0  0  0  0  0  0
   35.5070   26.5660   37.1200 H   0  0  0  0  0  0  0  0  0  0  0  0
   33.5010   27.9940   36.9580 H   0  0  0  0  0  0  0  0  0  0  0  0
   32.9970   29.6890   38.6980 H   0  0  0  0  0  0  0  0  0  0  0  0
   34.4880   29.9390   40.5630 H   0  0  0  0  0  0  0  0  0  0  0  0
   38.0300   30.3330   39.8080 C   0  0  0  0  0  0  0  0  0  0  0  0
   38.9720   30.0260   39.3650 H   0  0  0  0  0  0  0  0  0  0  0  0
   37.1880   30.2190   39.0700 H   0  0  0  0  0  0  0  0  0  0  0  0
   37.9850   31.7330   40.1880 N   0  0  0  0  0  0  0  0  0  0  0  0
   38.4570   32.1540   41.0410 H   0  0  0  0  0  0  0  0  0  0  0  0
   37.2100   32.5290   39.2710 C   0  0  0  0  0  0  0  0  0  0  0  0
   36.7530   32.0240   38.4130 H   0  0  0  0  0  0  0  0  0  0  0  0
   37.0630   33.7600   39.4420 O   0  0  0  0  0  0  0  0  0  0  0  0
  1  7  1  0  0  0  0
  1  6  1  0  0  0  0
  2  3  1  0  0  0  0
  2  1  2  0  0  0  0
  3  4  2  0  0  0  0
  4  5  1  0  0  0  0
  5  8  1  0  0  0  0
  6  5  2  0  0  0  0
  9  3  1  0  0  0  0
 10 15  1  0  0  0  0
 10  9  2  0  0  0  0
 11 10  1  0  0  0  0
 12 11  2  0  0  0  0
 12 13  1  0  0  0  0
 13 14  2  0  0  0  0
 14  9  1  0  0  0  0
 14 19  1  0  0  0  0
 16 11  1  0  0  0  0
 17 12  1  0  0  0  0
 18 13  1  0  0  0  0
 20 23  1  0  0  0  0
 20  2  1  0  0  0  0
 21 20  1  0  0  0  0
 22 20  1  0  0  0  0
 23 24  1  0  0  0  0
 25 27  2  0  0  0  0
 25 23  1  0  0  0  0
 26 25  1  0  0  0  0
M  END
>  <minimizedAffinity>
-4.37684536

$$$$

 OpenBabel03252501583D

 27 28  0  0  0  0  0  0  0  0999 V2000
   38.8430   32.3780   40.6110 C   0  0  0  0  0  0  0  0  0  0  0  0
   38.1600   31.2470   41.0580 C   0  0  0  0  0  0  0  0  0  0  0  0
   38.8640   30.2830   41.7450 C   0  0  0  0  0  0  0  0  0  0  0  0
   40.2050   30.4930   41.9500 N   0  0  0  0  0  0  0  0  0  0  0  0
   40.8320   31.6050   41.5000 C   0  0  0  0  0  0  0  0  0  0  0  0
   40.1580   32.5560   40.8290 N   0  0  0  0  0  0  0  0  0  0  0  0
   38.3700   33.1790   40.0680 H   0  0  0  0  0  0  0  0  0  0  0  0
   41.8780   31.7150   41.6900 H   0  0  0  0  0  0  0  0  0  0  0  0
   38.1800   29.1020   42.2170 C   0  0  0  0  0  0  0  0  0  0  0  0
   37.5480   28.8880   43.4070 C   0  0  0  0  0  0  0  0  0  0  0  0
   36.9440   27.6820   43.6800 C   0  0  0  0  0  0  0  0  0  0  0  0
   36.9760   26.6690   42.7380 C   0  0  0  0  0  0  0  0  0  0  0  0
   37.6070   26.8590   41.5300 C   0  0  0  0  0  0  0  0  0  0  0  0
   38.2070   28.0880   41.2830 C   0  0  0  0  0  0  0  0  0  0  0  0
   37.5730   29.7400   44.0870 H   0  0  0  0  0  0  0  0  0  0  0  0
   36.4620   27.5950   44.6560 H   0  0  0  0  0  0  0  0  0  0  0  0
   36.4930   25.7610   43.0050 H   0  0  0  0  0  0  0  0  0  0  0  0
   37.6130   26.0390   40.8090 H   0  0  0  0  0  0  0  0  0  0  0  0
   38.6790   28.1260   40.2880 H   0  0  0  0  0  0  0  0  0  0  0  0
   36.7150   31.1490   40.7670 C   0  0  0  0  0  0  0  0  0  0  0  0
   36.2620   30.2470   41.1660 H   0  0  0  0  0  0  0  0  0  0  0  0
   36.2020   32.0650   41.1730 H   0  0  0  0  0  0  0  0  0  0  0  0
   36.5950   31.2820   39.3270 N   0  0  0  0  0  0  0  0  0  0  0  0
   36.6510   32.1940   38.7870 H   0  0  0  0  0  0  0  0  0  0  0  0
   36.3840   30.0170   38.6710 C   0  0  0  0  0  0  0  0  0  0  0  0
   36.3380   29.1170   39.2960 H   0  0  0  0  0  0  0  0  0  0  0  0
   36.2580   29.9400   37.4290 O   0  0  0  0  0  0  0  0  0  0  0  0
  1  6  2  0  0  0  0
  1  2  1  0  0  0  0
  2  3  2  0  0  0  0
  3  4  1  0  0  0  0
  3  9  1  0  0  0  0
  5  8  1  0  0  0  0
  5  4  2  0  0  0  0
  6  5  1  0  0  0  0
  7  1  1  0  0  0  0
  9 10  1  0  0  0  0
 10 11  2  0  0  0  0
 10 15  1  0  0  0  0
 11 16  1  0  0  0  0
 12 17  1  0  0  0  0
 12 11  1  0  0  0  0
 13 12  2  0  0  0  0
 14 13  1  0  0  0  0
 14  9  2  0  0  0  0
 18 13  1  0  0  0  0
 19 14  1  0  0  0  0
 20  2  1  0  0  0  0
 20 21  1  0  0  0  0
 20 22  1  0  0  0  0
 23 20  1  0  0  0  0
 24 23  1  0  0  0  0
 25 26  1  0  0  0  0
 25 23  1  0  0  0  0
 27 25  2  0  0  0  0
M  END
>  <minimizedAffinity>
-4.35346174

$$$$

 OpenBabel03252501583D

 27 28  0  0  0  0  0  0  0  0999 V2000
   35.4510   29.1810   40.6800 C   0  0  0  0  0  0  0  0  0  0  0  0
   36.1990   28.1170   41.1820 C   0  0  0  0  0  0  0  0  0  0  0  0
   36.5940   27.1240   40.3130 C   0  0  0  0  0  0  0  0  0  0  0  0
   36.2250   27.2400   38.9970 N   0  0  0  0  0  0  0  0  0  0  0  0
   35.4970   28.2900   38.5470 C   0  0  0  0  0  0  0  0  0  0  0  0
   35.1050   29.2680   39.3830 N   0  0  0  0  0  0  0  0  0  0  0  0
   35.1020   29.9990   41.2880 H   0  0  0  0  0  0  0  0  0  0  0  0
   35.2390   28.3260   37.5110 H   0  0  0  0  0  0  0  0  0  0  0  0
   37.3700   26.0120   40.8090 C   0  0  0  0  0  0  0  0  0  0  0  0
   36.9440   24.8530   41.3920 C   0  0  0  0  0  0  0  0  0  0  0  0
   37.8440   23.8980   41.8050 C   0  0  0  0  0  0  0  0  0  0  0  0
   39.1990   24.1080   41.6290 C   0  0  0  0  0  0  0  0  0  0  0  0
   39.6560   25.2670   41.0440 C   0  0  0  0  0  0  0  0  0  0  0  0
   38.7220   26.2140   40.6370 C   0  0  0  0  0  0  0  0  0  0  0  0
   35.8610   24.7740   41.4900 H   0  0  0  0  0  0  0  0  0  0  0  0
   37.4180   23.0010   42.2620 H   0  0  0  0  0  0  0  0  0  0  0  0
   39.8450   23.3350   41.9670 H   0  0  0  0  0  0  0  0  0  0  0  0
   40.7320   25.4020   40.9190 H   0  0  0  0  0  0  0  0  0  0  0  0
   39.2000   27.0980   40.1830 H   0  0  0  0  0  0  0  0  0  0  0  0
   36.5270   28.1180   42.6220 C   0  0  0  0  0  0  0  0  0  0  0  0
   35.6720   27.8970   43.2520 H   0  0  0  0  0  0  0  0  0  0  0  0
   37.3570   27.3790   42.8040 H   0  0  0  0  0  0  0  0  0  0  0  0
   37.1350   29.4090   42.8850 N   0  0  0  0  0  0  0  0  0  0  0  0
   36.6110   30.2930   43.1540 H   0  0  0  0  0  0  0  0  0  0  0  0
   38.5680   29.3850   42.7410 C   0  0  0  0  0  0  0  0  0  0  0  0
   39.0390   28.4360   42.4610 H   0  0  0  0  0  0  0  0  0  0  0  0
   39.2590   30.4110   42.9300 O   0  0  0  0  0  0  0  0  0  0  0  0
  1  2  1  0  0  0  0
  1  7  1  0  0  0  0
  2 20  1  0  0  0  0
  3  9  1  0  0  0  0
  3  2  2  0  0  0  0
  4  3  1  0  0  0  0
  5  4  2  0  0  0  0
  5  6  1  0  0  0  0
  6  1  2  0  0  0  0
  8  5  1  0  0  0  0
  9 10  1  0  0  0  0
 10 15  1  0  0  0  0
 10 11  2  0  0  0  0
 11 16  1  0  0  0  0
 12 11  1  0  0  0  0
 12 17  1  0  0  0  0
 13 12  2  0  0  0  0
 14  9  2  0  0  0  0
 14 13  1  0  0  0  0
 18 13  1  0  0  0  0
 19 14  1  0  0  0  0
 20 22  1  0  0  0  0
 20 23  1  0  0  0  0
 20 21  1  0  0  0  0
 23 24  1  0  0  0  0
 25 23  1  0  0  0  0
 25 27  2  0  0  0  0
 26 25  1  0  0  0  0
M  END
>  <minimizedAffinity>
-4.34213781

$$$$

 OpenBabel03252501583D

 27 28  0  0  0  0  0  0  0  0999 V2000
   37.7570   31.4660   39.5800 C   0  0  0  0  0  0  0  0  0  0  0  0
   37.7830   30.4300   40.5120 C   0  0  0  0  0  0  0  0  0  0  0  0
   38.7520   29.4590   40.3880 C   0  0  0  0  0  0  0  0  0  0  0  0
   39.6410   29.5700   39.3480 N   0  0  0  0  0  0  0  0  0  0  0  0
   39.5820   30.5930   38.4630 C   0  0  0  0  0  0  0  0  0  0  0  0
   38.6420   31.5490   38.5710 N   0  0  0  0  0  0  0  0  0  0  0  0
   37.0340   32.2650   39.6030 H   0  0  0  0  0  0  0  0  0  0  0  0
   40.3010   30.6270   37.6730 H   0  0  0  0  0  0  0  0  0  0  0  0
   38.8000   28.3750   41.3400 C   0  0  0  0  0  0  0  0  0  0  0  0
   38.0570   27.2310   41.3850 C   0  0  0  0  0  0  0  0  0  0  0  0
   38.2490   26.3020   42.3820 C   0  0  0  0  0  0  0  0  0  0  0  0
   39.2060   26.5260   43.3550 C   0  0  0  0  0  0  0  0  0  0  0  0
   39.9690   27.6710   43.3340 C   0  0  0  0  0  0  0  0  0  0  0  0
   39.7520   28.5900   42.3130 C   0  0  0  0  0  0  0  0  0  0  0  0
   37.3280   27.1390   40.5790 H   0  0  0  0  0  0  0  0  0  0  0  0
   37.6120   25.4160   42.3430 H   0  0  0  0  0  0  0  0  0  0  0  0
   39.3080   25.7740   44.0990 H   0  0  0  0  0  0  0  0  0  0  0  0
   40.7160   27.8170   44.1160 H   0  0  0  0  0  0  0  0  0  0  0  0
   40.4170   29.4650   42.3970 H   0  0  0  0  0  0  0  0  0  0  0  0
   36.7650   30.4330   41.5830 C   0  0  0  0  0  0  0  0  0  0  0  0
   36.8500   29.5820   42.2510 H   0  0  0  0  0  0  0  0  0  0  0  0
   36.8470   31.3980   42.1550 H   0  0  0  0  0  0  0  0  0  0  0  0
   35.4850   30.5260   40.9060 N   0  0  0  0  0  0  0  0  0  0  0  0
   34.8980   31.4070   40.8200 H   0  0  0  0  0  0  0  0  0  0  0  0
   35.0640   29.2690   40.3430 C   0  0  0  0  0  0  0  0  0  0  0  0
   35.7240   28.4030   40.4730 H   0  0  0  0  0  0  0  0  0  0  0  0
   33.9830   29.1630   39.7220 O   0  0  0  0  0  0  0  0  0  0  0  0
  1  7  1  0  0  0  0
  1  2  1  0  0  0  0
  2 20  1  0  0  0  0
  3  2  2  0  0  0  0
  3  9  1  0  0  0  0
  4  3  1  0  0  0  0
  5  6  1  0  0  0  0
  5  4  2  0  0  0  0
  6  1  2  0  0  0  0
  8  5  1  0  0  0  0
  9 10  2  0  0  0  0
  9 14  1  0  0  0  0
 10 11  1  0  0  0  0
 11 12  2  0  0  0  0
 12 17  1  0  0  0  0
 13 12  1  0  0  0  0
 13 18  1  0  0  0  0
 14 19  1  0  0  0  0
 14 13  2  0  0  0  0
 15 10  1  0  0  0  0
 16 11  1  0  0  0  0
 20 22  1  0  0  0  0
 20 21  1  0  0  0  0
 23 20  1  0  0  0  0
 24 23  1  0  0  0  0
 25 26  1  0  0  0  0
 25 23  1  0  0  0  0
 27 25  2  0  0  0  0
M  END
>  <minimizedAffinity>
-4.20026922

$$$$

 OpenBabel03252501583D

 27 28  0  0  0  0  0  0  0  0999 V2000
   36.9610   27.0730   41.6020 C   0  0  0  0  0  0  0  0  0  0  0  0
   37.2060   28.2880   40.9630 C   0  0  0  0  0  0  0  0  0  0  0  0
   37.5210   29.3850   41.7340 C   0  0  0  0  0  0  0  0  0  0  0  0
   37.5750   29.2160   43.0960 N   0  0  0  0  0  0  0  0  0  0  0  0
   37.3310   28.0180   43.6790 C   0  0  0  0  0  0  0  0  0  0  0  0
   37.0230   26.9380   42.9380 N   0  0  0  0  0  0  0  0  0  0  0  0
   36.7100   26.1670   41.0750 H   0  0  0  0  0  0  0  0  0  0  0  0
   37.3870   27.9470   44.7430 H   0  0  0  0  0  0  0  0  0  0  0  0
   37.7780   30.6540   41.0970 C   0  0  0  0  0  0  0  0  0  0  0  0
   36.9000   31.5240   40.5190 C   0  0  0  0  0  0  0  0  0  0  0  0
   37.3370   32.7000   39.9550 C   0  0  0  0  0  0  0  0  0  0  0  0
   38.6850   33.0100   39.9710 C   0  0  0  0  0  0  0  0  0  0  0  0
   39.5920   32.1500   40.5470 C   0  0  0  0  0  0  0  0  0  0  0  0
   39.1200   30.9700   41.1090 C   0  0  0  0  0  0  0  0  0  0  0  0
   35.8600   31.1980   40.5530 H   0  0  0  0  0  0  0  0  0  0  0  0
   36.5680   33.3380   39.5140 H   0  0  0  0  0  0  0  0  0  0  0  0
   38.9640   33.9320   39.5210 H   0  0  0  0  0  0  0  0  0  0  0  0
   40.6490   32.4250   40.5430 H   0  0  0  0  0  0  0  0  0  0  0  0
   39.9320   30.3620   41.5390 H   0  0  0  0  0  0  0  0  0  0  0  0
   37.1140   28.3280   39.4890 C   0  0  0  0  0  0  0  0  0  0  0  0
   37.3780   29.2950   39.0730 H   0  0  0  0  0  0  0  0  0  0  0  0
   37.7710   27.5200   39.0640 H   0  0  0  0  0  0  0  0  0  0  0  0
   35.7650   27.8970   39.1690 N   0  0  0  0  0  0  0  0  0  0  0  0
   35.4150   26.8950   39.2050 H   0  0  0  0  0  0  0  0  0  0  0  0
   34.9130   28.9910   38.7810 C   0  0  0  0  0  0  0  0  0  0  0  0
   35.3460   29.9990   38.7670 H   0  0  0  0  0  0  0  0  0  0  0  0
   33.7150   28.8050   38.4700 O   0  0  0  0  0  0  0  0  0  0  0  0
  1  6  1  0  0  0  0
  2  1  2  0  0  0  0
  2  3  1  0  0  0  0
  3  4  2  0  0  0  0
  4  5  1  0  0  0  0
  5  8  1  0  0  0  0
  6  5  2  0  0  0  0
  7  1  1  0  0  0  0
  9 14  1  0  0  0  0
  9  3  1  0  0  0  0
 10 15  1  0  0  0  0
 10  9  2  0  0  0  0
 11 12  2  0  0  0  0
 11 10  1  0  0  0  0
 12 13  1  0  0  0  0
 13 14  2  0  0  0  0
 14 19  1  0  0  0  0
 16 11  1  0  0  0  0
 17 12  1  0  0  0  0
 18 13  1  0  0  0  0
 20  2  1  0  0  0  0
 21 20  1  0  0  0  0
 22 20  1  0  0  0  0
 23 24  1  0  0  0  0
 23 20  1  0  0  0  0
 25 23  1  0  0  0  0
 26 25  1  0  0  0  0
 27 25  2  0  0  0  0
M  END
>  <minimizedAffinity>
-4.12167501

$$$$

 OpenBabel03252501583D

 27 28  0  0  0  0  0  0  0  0999 V2000
   37.2000   24.9320   42.2410 C   0  0  0  0  0  0  0  0  0  0  0  0
   37.1100   26.3020   41.9970 C   0  0  0  0  0  0  0  0  0  0  0  0
   36.8030   26.7240   40.7230 C   0  0  0  0  0  0  0  0  0  0  0  0
   36.6010   25.7650   39.7610 N   0  0  0  0  0  0  0  0  0  0  0  0
   36.6970   24.4430   40.0380 C   0  0  0  0  0  0  0  0  0  0  0  0
   36.9960   24.0150   41.2780 N   0  0  0  0  0  0  0  0  0  0  0  0
   37.4340   24.5160   43.2070 H   0  0  0  0  0  0  0  0  0  0  0  0
   36.5290   23.7430   39.2490 H   0  0  0  0  0  0  0  0  0  0  0  0
   36.7050   28.1370   40.4450 C   0  0  0  0  0  0  0  0  0  0  0  0
   35.6890   29.0050   40.7250 C   0  0  0  0  0  0  0  0  0  0  0  0
   35.7790   30.3340   40.3790 C   0  0  0  0  0  0  0  0  0  0  0  0
   36.9120   30.8020   39.7380 C   0  0  0  0  0  0  0  0  0  0  0  0
   37.9510   29.9490   39.4440 C   0  0  0  0  0  0  0  0  0  0  0  0
   37.8310   28.6120   39.8070 C   0  0  0  0  0  0  0  0  0  0  0  0
   34.8380   28.5490   41.2300 H   0  0  0  0  0  0  0  0  0  0  0  0
   34.9220   30.9580   40.6390 H   0  0  0  0  0  0  0  0  0  0  0  0
   36.9240   31.8370   39.4960 H   0  0  0  0  0  0  0  0  0  0  0  0
   38.8310   30.3510   38.9380 H   0  0  0  0  0  0  0  0  0  0  0  0
   38.7190   28.0250   39.5230 H   0  0  0  0  0  0  0  0  0  0  0  0
   37.3520   27.2250   43.1250 C   0  0  0  0  0  0  0  0  0  0  0  0
   37.1270   28.2590   42.8830 H   0  0  0  0  0  0  0  0  0  0  0  0
   36.7440   26.8820   44.0080 H   0  0  0  0  0  0  0  0  0  0  0  0
   38.7270   26.9980   43.5290 N   0  0  0  0  0  0  0  0  0  0  0  0
   39.0700   26.1790   44.1110 H   0  0  0  0  0  0  0  0  0  0  0  0
   39.6190   28.0250   43.0540 C   0  0  0  0  0  0  0  0  0  0  0  0
   39.1910   28.8400   42.4580 H   0  0  0  0  0  0  0  0  0  0  0  0
   40.8440   27.9920   43.3070 O   0  0  0  0  0  0  0  0  0  0  0  0
  1  7  1  0  0  0  0
  2  1  1  0  0  0  0
  2 20  1  0  0  0  0
  3  2  2  0  0  0  0
  4  5  2  0  0  0  0
  4  3  1  0  0  0  0
  5  6  1  0  0  0  0
  6  1  2  0  0  0  0
  8  5  1  0  0  0  0
  9  3  1  0  0  0  0
  9 10  1  0  0  0  0
 10 15  1  0  0  0  0
 11 16  1  0  0  0  0
 11 10  2  0  0  0  0
 12 11  1  0  0  0  0
 13 12  2  0  0  0  0
 13 14  1  0  0  0  0
 14  9  2  0  0  0  0
 17 12  1  0  0  0  0
 18 13  1  0  0  0  0
 19 14  1  0  0  0  0
 20 23  1  0  0  0  0
 20 22  1  0  0  0  0
 21 20  1  0  0  0  0
 23 24  1  0  0  0  0
 25 27  2  0  0  0  0
 25 23  1  0  0  0  0
 26 25  1  0  0  0  0
M  END
>  <minimizedAffinity>
-4.11062622

$$$$
