
 OpenBabel03242521093D

 34 36  0  0  1  0  0  0  0  0999 V2000
   38.4660   24.7190   41.9270 C   0  0  0  0  0  0  0  0  0  0  0  0
   39.5630   24.2620   42.6320 C   0  0  0  0  0  0  0  0  0  0  0  0
   40.3220   25.0180   43.4980 C   0  0  0  0  0  0  0  0  0  0  0  0
   39.9610   26.3400   43.6800 C   0  0  0  0  0  0  0  0  0  0  0  0
   38.8730   26.7730   42.9730 C   0  0  0  0  0  0  0  0  0  0  0  0
   38.1820   25.9990   42.1540 N   0  0  0  0  0  0  0  0  0  0  0  0
   39.8840   23.2180   42.5170 H   0  0  0  0  0  0  0  0  0  0  0  0
   41.1740   24.6140   44.0280 H   0  0  0  0  0  0  0  0  0  0  0  0
   40.5190   26.9890   44.3490 H   0  0  0  0  0  0  0  0  0  0  0  0
   35.8560   23.2440   39.6530 C   0  0  0  0  0  0  0  0  0  0  0  0
   36.4500   24.1730   40.5130 C   0  0  0  0  0  0  0  0  0  0  0  0
   37.7000   23.8680   41.0170 C   0  0  0  0  0  0  0  0  0  0  0  0
   38.2880   22.7010   40.6640 N   0  0  0  0  0  0  0  0  0  0  0  0
   37.6740   21.8190   39.8220 C   0  0  0  0  0  0  0  0  0  0  0  0
   36.4710   22.1010   39.3300 N   0  0  0  0  0  0  0  0  0  0  0  0
   34.8750   23.5320   39.2850 H   0  0  0  0  0  0  0  0  0  0  0  0
   36.0570   25.1070   40.8360 H   0  0  0  0  0  0  0  0  0  0  0  0
   38.1480   20.8940   39.5470 H   0  0  0  0  0  0  0  0  0  0  0  0
   38.4860   28.1810   43.1820 C   0  0  2  0  0  0  0  0  0  0  0  0
   37.0990   28.4480   43.6400 C   0  0  0  0  0  0  0  0  0  0  0  0
   37.6000   28.8490   42.2470 C   0  0  1  0  0  0  0  0  0  0  0  0
   39.2650   28.8110   43.7220 H   0  0  0  0  0  0  0  0  0  0  0  0
   36.8750   29.3260   44.2780 H   0  0  0  0  0  0  0  0  0  0  0  0
   36.3220   27.6870   43.6360 H   0  0  0  0  0  0  0  0  0  0  0  0
   37.0950   28.3140   41.4220 H   0  0  0  0  0  0  0  0  0  0  0  0
   37.7050   30.2280   42.0180 O   0  0  0  0  0  0  0  0  0  0  0  0
   35.5860   30.0320   40.6160 O   0  0  0  0  0  0  0  0  0  0  0  0
   36.9560   30.7250   40.5950 P   0  0  1  0  0  0  0  0  0  0  0  0
   36.6720   32.3720   40.6040 O   0  0  0  0  0  0  0  0  0  0  0  0
   36.9040   32.7840   39.7540 H   0  0  0  0  0  0  0  0  0  0  0  0
   37.6980   30.1740   39.1900 O   0  0  0  0  0  0  0  0  0  0  0  0
   38.4040   30.9670   38.2950 C   0  0  0  0  0  0  0  0  0  0  0  0
   39.4420   31.0560   38.6140 H   0  0  0  0  0  0  0  0  0  0  0  0
   37.8250   31.4660   37.2800 O   0  0  0  0  0  0  0  0  0  0  0  0
  1  6  2  0  0  0  0
  1  2  1  0  0  0  0
  2  3  2  0  0  0  0
  3  4  1  0  0  0  0
  3  8  1  0  0  0  0
  4  9  1  0  0  0  0
  5 19  1  0  0  0  0
  5  4  2  0  0  0  0
  6  5  1  0  0  0  0
  7  2  1  0  0  0  0
 10 11  1  0  0  0  0
 11 17  1  0  0  0  0
 11 12  2  0  0  0  0
 12  1  1  0  0  0  0
 13 12  1  0  0  0  0
 14 13  2  0  0  0  0
 15 10  2  0  0  0  0
 15 14  1  0  0  0  0
 16 10  1  0  0  0  0
 18 14  1  0  0  0  0
 19 20  1  0  0  0  0
 19 22  1  1  0  0  0
 20 23  1  0  0  0  0
 21 25  1  6  0  0  0
 21 19  1  0  0  0  0
 21 20  1  0  0  0  0
 24 20  1  0  0  0  0
 26 21  1  0  0  0  0
 28 29  1  0  0  0  0
 28 27  2  1  0  0  0
 28 26  1  0  0  0  0
 30 29  1  0  0  0  0
 31 28  1  0  0  0  0
 32 33  1  0  0  0  0
 32 31  1  0  0  0  0
 34 32  2  0  0  0  0
M  END
>  <minimizedAffinity>
-5.30984116

$$$$

 OpenBabel03242521093D

 34 36  0  0  1  0  0  0  0  0999 V2000
   37.7050   25.3910   41.5830 C   0  0  0  0  0  0  0  0  0  0  0  0
   38.7130   25.4880   42.5220 C   0  0  0  0  0  0  0  0  0  0  0  0
   39.0110   26.6160   43.2550 C   0  0  0  0  0  0  0  0  0  0  0  0
   38.2410   27.7430   43.0360 C   0  0  0  0  0  0  0  0  0  0  0  0
   37.2480   27.6260   42.1020 C   0  0  0  0  0  0  0  0  0  0  0  0
   37.0090   26.5140   41.4290 N   0  0  0  0  0  0  0  0  0  0  0  0
   39.3490   24.6160   42.7280 H   0  0  0  0  0  0  0  0  0  0  0  0
   39.8120   26.6440   43.9810 H   0  0  0  0  0  0  0  0  0  0  0  0
   38.4250   28.6660   43.5820 H   0  0  0  0  0  0  0  0  0  0  0  0
   36.1790   22.6680   39.4820 C   0  0  0  0  0  0  0  0  0  0  0  0
   36.2690   23.8950   40.1470 C   0  0  0  0  0  0  0  0  0  0  0  0
   37.4380   24.1630   40.8330 C   0  0  0  0  0  0  0  0  0  0  0  0
   38.4310   23.2430   40.8340 N   0  0  0  0  0  0  0  0  0  0  0  0
   38.3040   22.0560   40.1720 C   0  0  0  0  0  0  0  0  0  0  0  0
   37.1840   21.7850   39.5070 N   0  0  0  0  0  0  0  0  0  0  0  0
   35.2410   22.5060   38.9570 H   0  0  0  0  0  0  0  0  0  0  0  0
   35.5390   24.6660   40.1940 H   0  0  0  0  0  0  0  0  0  0  0  0
   39.0970   21.3310   40.1770 H   0  0  0  0  0  0  0  0  0  0  0  0
   36.4220   28.8300   41.8840 C   0  0  2  0  0  0  0  0  0  0  0  0
   35.5020   28.8250   40.7190 C   0  0  0  0  0  0  0  0  0  0  0  0
   36.7260   29.7450   40.8010 C   0  0  1  0  0  0  0  0  0  0  0  0
   35.9490   29.2570   42.8270 H   0  0  0  0  0  0  0  0  0  0  0  0
   34.5470   29.3870   40.7520 H   0  0  0  0  0  0  0  0  0  0  0  0
   35.5550   28.0770   39.9320 H   0  0  0  0  0  0  0  0  0  0  0  0
   37.4970   29.5280   40.0390 H   0  0  0  0  0  0  0  0  0  0  0  0
   36.4450   31.1140   40.9160 O   0  0  0  0  0  0  0  0  0  0  0  0
   37.2850   31.5530   38.5510 O   0  0  0  0  0  0  0  0  0  0  0  0
   37.4560   32.0830   39.9830 P   0  0  1  0  0  0  0  0  0  0  0  0
   36.9400   33.6710   39.9830 O   0  0  0  0  0  0  0  0  0  0  0  0
   37.6790   34.2920   40.0980 H   0  0  0  0  0  0  0  0  0  0  0  0
   39.0940   31.9030   40.3180 O   0  0  0  0  0  0  0  0  0  0  0  0
   40.0240   32.9330   40.3370 C   0  0  0  0  0  0  0  0  0  0  0  0
   40.8780   32.6540   40.9540 H   0  0  0  0  0  0  0  0  0  0  0  0
   39.8120   34.0070   39.6900 O   0  0  0  0  0  0  0  0  0  0  0  0
  1  2  1  0  0  0  0
  2  7  1  0  0  0  0
  2  3  2  0  0  0  0
  3  8  1  0  0  0  0
  4  3  1  0  0  0  0
  4  9  1  0  0  0  0
  5  4  2  0  0  0  0
  6  1  2  0  0  0  0
  6  5  1  0  0  0  0
 10 15  2  0  0  0  0
 10 11  1  0  0  0  0
 11 17  1  0  0  0  0
 11 12  2  0  0  0  0
 12 13  1  0  0  0  0
 12  1  1  0  0  0  0
 14 18  1  0  0  0  0
 14 13  2  0  0  0  0
 15 14  1  0  0  0  0
 16 10  1  0  0  0  0
 19  5  1  0  0  0  0
 19 22  1  1  0  0  0
 20 23  1  0  0  0  0
 20 21  1  0  0  0  0
 20 19  1  0  0  0  0
 21 25  1  6  0  0  0
 21 26  1  0  0  0  0
 21 19  1  0  0  0  0
 24 20  1  0  0  0  0
 28 27  2  6  0  0  0
 28 31  1  0  0  0  0
 28 26  1  0  0  0  0
 29 28  1  0  0  0  0
 29 30  1  0  0  0  0
 31 32  1  0  0  0  0
 32 33  1  0  0  0  0
 34 32  2  0  0  0  0
M  END
>  <minimizedAffinity>
-5.21149254

$$$$

 OpenBabel03242521093D

 34 36  0  0  1  0  0  0  0  0999 V2000
   37.5090   28.4020   41.6080 C   0  0  0  0  0  0  0  0  0  0  0  0
   36.2110   28.1820   41.1890 C   0  0  0  0  0  0  0  0  0  0  0  0
   35.3900   29.1270   40.6140 C   0  0  0  0  0  0  0  0  0  0  0  0
   35.9010   30.3990   40.4410 C   0  0  0  0  0  0  0  0  0  0  0  0
   37.1880   30.5970   40.8630 C   0  0  0  0  0  0  0  0  0  0  0  0
   37.9290   29.6490   41.4090 N   0  0  0  0  0  0  0  0  0  0  0  0
   35.7650   27.1850   41.3070 H   0  0  0  0  0  0  0  0  0  0  0  0
   34.3780   28.9060   40.3020 H   0  0  0  0  0  0  0  0  0  0  0  0
   35.3040   31.1900   39.9940 H   0  0  0  0  0  0  0  0  0  0  0  0
   39.0510   25.1360   42.6630 C   0  0  0  0  0  0  0  0  0  0  0  0
   38.1750   26.0010   41.9990 C   0  0  0  0  0  0  0  0  0  0  0  0
   38.3320   27.3570   42.2160 C   0  0  0  0  0  0  0  0  0  0  0  0
   39.3090   27.7850   43.0490 N   0  0  0  0  0  0  0  0  0  0  0  0
   40.1440   26.9070   43.6790 C   0  0  0  0  0  0  0  0  0  0  0  0
   40.0040   25.6000   43.4790 N   0  0  0  0  0  0  0  0  0  0  0  0
   38.8870   24.0820   42.4580 H   0  0  0  0  0  0  0  0  0  0  0  0
   37.3880   25.7460   41.3330 H   0  0  0  0  0  0  0  0  0  0  0  0
   40.9180   27.2550   44.3390 H   0  0  0  0  0  0  0  0  0  0  0  0
   37.7310   31.9550   40.6620 C   0  0  2  0  0  0  0  0  0  0  0  0
   37.0470   32.8250   39.6740 C   0  0  0  0  0  0  0  0  0  0  0  0
   38.4650   32.2840   39.4560 C   0  0  1  0  0  0  0  0  0  0  0  0
   38.0100   32.4990   41.6220 H   0  0  0  0  0  0  0  0  0  0  0  0
   37.0300   33.9250   39.8080 H   0  0  0  0  0  0  0  0  0  0  0  0
   36.3090   32.4480   38.9700 H   0  0  0  0  0  0  0  0  0  0  0  0
   38.5470   31.5860   38.6020 H   0  0  0  0  0  0  0  0  0  0  0  0
   39.4860   33.2440   39.4750 O   0  0  0  0  0  0  0  0  0  0  0  0
   41.0510   31.2750   39.0640 O   0  0  0  0  0  0  0  0  0  0  0  0
   40.8800   32.7500   38.6710 P   0  0  1  0  0  0  0  0  0  0  0  0
   40.6710   32.7950   37.0140 O   0  0  0  0  0  0  0  0  0  0  0  0
   41.4390   33.1840   36.5620 H   0  0  0  0  0  0  0  0  0  0  0  0
   42.2890   33.5030   39.1960 O   0  0  0  0  0  0  0  0  0  0  0  0
   43.0970   34.3200   38.4170 C   0  0  0  0  0  0  0  0  0  0  0  0
   43.5570   35.0900   39.0360 H   0  0  0  0  0  0  0  0  0  0  0  0
   43.2140   34.1120   37.1690 O   0  0  0  0  0  0  0  0  0  0  0  0
  1 12  1  0  0  0  0
  2  7  1  0  0  0  0
  2  1  2  0  0  0  0
  3  2  1  0  0  0  0
  4  3  2  0  0  0  0
  4  5  1  0  0  0  0
  5  6  2  0  0  0  0
  6  1  1  0  0  0  0
  8  3  1  0  0  0  0
  9  4  1  0  0  0  0
 10 15  1  0  0  0  0
 11 12  1  0  0  0  0
 11 10  2  0  0  0  0
 12 13  2  0  0  0  0
 13 14  1  0  0  0  0
 14 18  1  0  0  0  0
 15 14  2  0  0  0  0
 16 10  1  0  0  0  0
 17 11  1  0  0  0  0
 19  5  1  0  0  0  0
 19 22  1  1  0  0  0
 20 23  1  0  0  0  0
 20 19  1  0  0  0  0
 21 25  1  6  0  0  0
 21 26  1  0  0  0  0
 21 20  1  0  0  0  0
 21 19  1  0  0  0  0
 24 20  1  0  0  0  0
 28 27  2  1  0  0  0
 28 31  1  0  0  0  0
 28 26  1  0  0  0  0
 29 28  1  0  0  0  0
 30 29  1  0  0  0  0
 32 33  1  0  0  0  0
 32 31  1  0  0  0  0
 34 32  2  0  0  0  0
M  END
>  <minimizedAffinity>
-5.16010952

$$$$

 OpenBabel03242521093D

 34 36  0  0  1  0  0  0  0  0999 V2000
   37.3620   26.4060   41.6770 C   0  0  0  0  0  0  0  0  0  0  0  0
   37.9020   26.6520   42.9250 C   0  0  0  0  0  0  0  0  0  0  0  0
   37.9710   27.8870   43.5320 C   0  0  0  0  0  0  0  0  0  0  0  0
   37.4620   28.9700   42.8400 C   0  0  0  0  0  0  0  0  0  0  0  0
   36.9320   28.7050   41.6070 C   0  0  0  0  0  0  0  0  0  0  0  0
   36.8930   27.4960   41.0750 N   0  0  0  0  0  0  0  0  0  0  0  0
   38.3180   25.8200   43.5100 H   0  0  0  0  0  0  0  0  0  0  0  0
   38.4050   28.0300   44.5120 H   0  0  0  0  0  0  0  0  0  0  0  0
   37.4860   29.9710   43.2630 H   0  0  0  0  0  0  0  0  0  0  0  0
   37.9420   22.7950   40.7960 C   0  0  0  0  0  0  0  0  0  0  0  0
   38.1120   24.0060   41.4730 C   0  0  0  0  0  0  0  0  0  0  0  0
   37.3200   25.0700   41.0830 C   0  0  0  0  0  0  0  0  0  0  0  0
   36.4290   24.8990   40.0790 N   0  0  0  0  0  0  0  0  0  0  0  0
   36.2950   23.6980   39.4420 C   0  0  0  0  0  0  0  0  0  0  0  0
   37.0500   22.6670   39.8070 N   0  0  0  0  0  0  0  0  0  0  0  0
   38.5870   21.9900   41.1400 H   0  0  0  0  0  0  0  0  0  0  0  0
   38.7840   24.2210   42.2670 H   0  0  0  0  0  0  0  0  0  0  0  0
   35.5850   23.5710   38.6450 H   0  0  0  0  0  0  0  0  0  0  0  0
   36.3770   29.8640   40.8800 C   0  0  2  0  0  0  0  0  0  0  0  0
   35.2430   29.6130   39.9570 C   0  0  0  0  0  0  0  0  0  0  0  0
   36.6310   30.0350   39.4630 C   0  0  1  0  0  0  0  0  0  0  0  0
   36.2410   30.7990   41.5140 H   0  0  0  0  0  0  0  0  0  0  0  0
   34.4750   30.3930   39.7810 H   0  0  0  0  0  0  0  0  0  0  0  0
   34.9430   28.6130   39.6530 H   0  0  0  0  0  0  0  0  0  0  0  0
   37.1390   29.2650   38.8530 H   0  0  0  0  0  0  0  0  0  0  0  0
   36.7060   31.3150   38.8950 O   0  0  0  0  0  0  0  0  0  0  0  0
   39.0660   30.4260   38.5300 O   0  0  0  0  0  0  0  0  0  0  0  0
   38.2480   31.7140   38.3520 P   0  0  1  0  0  0  0  0  0  0  0  0
   38.2410   32.0690   36.7200 O   0  0  0  0  0  0  0  0  0  0  0  0
   38.7710   32.8600   36.5180 H   0  0  0  0  0  0  0  0  0  0  0  0
   39.0390   32.8620   39.2910 O   0  0  0  0  0  0  0  0  0  0  0  0
   38.9140   32.9940   40.6680 C   0  0  0  0  0  0  0  0  0  0  0  0
   38.6160   34.0120   40.9190 H   0  0  0  0  0  0  0  0  0  0  0  0
   39.1380   32.0060   41.4340 O   0  0  0  0  0  0  0  0  0  0  0  0
  1  2  1  0  0  0  0
  2  7  1  0  0  0  0
  2  3  2  0  0  0  0
  3  8  1  0  0  0  0
  4  9  1  0  0  0  0
  4  3  1  0  0  0  0
  5  4  2  0  0  0  0
  6  5  1  0  0  0  0
  6  1  2  0  0  0  0
 10 16  1  0  0  0  0
 10 11  1  0  0  0  0
 11 17  1  0  0  0  0
 12 11  2  0  0  0  0
 12  1  1  0  0  0  0
 13 12  1  0  0  0  0
 14 15  1  0  0  0  0
 14 13  2  0  0  0  0
 15 10  2  0  0  0  0
 18 14  1  0  0  0  0
 19 22  1  1  0  0  0
 19  5  1  0  0  0  0
 20 19  1  0  0  0  0
 21 25  1  6  0  0  0
 21 20  1  0  0  0  0
 21 19  1  0  0  0  0
 23 20  1  0  0  0  0
 24 20  1  0  0  0  0
 26 21  1  0  0  0  0
 28 27  2  1  0  0  0
 28 26  1  0  0  0  0
 28 31  1  0  0  0  0
 29 28  1  0  0  0  0
 30 29  1  0  0  0  0
 31 32  1  0  0  0  0
 32 33  1  0  0  0  0
 32 34  2  0  0  0  0
M  END
>  <minimizedAffinity>
-5.07049751

$$$$

 OpenBabel03242521093D

 34 36  0  0  1  0  0  0  0  0999 V2000
   37.3950   27.1200   41.5850 C   0  0  0  0  0  0  0  0  0  0  0  0
   37.0300   27.3290   42.9010 C   0  0  0  0  0  0  0  0  0  0  0  0
   37.4370   28.3900   43.6800 C   0  0  0  0  0  0  0  0  0  0  0  0
   38.2780   29.3230   43.1020 C   0  0  0  0  0  0  0  0  0  0  0  0
   38.6270   29.0980   41.7980 C   0  0  0  0  0  0  0  0  0  0  0  0
   38.2030   28.0590   41.1000 N   0  0  0  0  0  0  0  0  0  0  0  0
   36.3630   26.6120   43.3990 H   0  0  0  0  0  0  0  0  0  0  0  0
   37.1250   28.5100   44.7080 H   0  0  0  0  0  0  0  0  0  0  0  0
   38.6360   30.1830   43.6630 H   0  0  0  0  0  0  0  0  0  0  0  0
   36.4340   23.6850   40.3890 C   0  0  0  0  0  0  0  0  0  0  0  0
   36.9080   24.6660   41.2650 C   0  0  0  0  0  0  0  0  0  0  0  0
   36.9310   25.9700   40.8080 C   0  0  0  0  0  0  0  0  0  0  0  0
   36.5020   26.2400   39.5530 N   0  0  0  0  0  0  0  0  0  0  0  0
   36.0460   25.2520   38.7280 C   0  0  0  0  0  0  0  0  0  0  0  0
   36.0190   23.9930   39.1550 N   0  0  0  0  0  0  0  0  0  0  0  0
   36.4350   22.6770   40.7950 H   0  0  0  0  0  0  0  0  0  0  0  0
   37.2600   24.5370   42.2590 H   0  0  0  0  0  0  0  0  0  0  0  0
   35.7070   25.4740   37.7320 H   0  0  0  0  0  0  0  0  0  0  0  0
   39.5140   30.1050   41.1850 C   0  0  2  0  0  0  0  0  0  0  0  0
   39.7020   31.3850   41.9130 C   0  0  0  0  0  0  0  0  0  0  0  0
   38.9620   31.2980   40.5730 C   0  0  1  0  0  0  0  0  0  0  0  0
   40.4830   29.6860   40.7580 H   0  0  0  0  0  0  0  0  0  0  0  0
   40.6560   31.9430   41.8350 H   0  0  0  0  0  0  0  0  0  0  0  0
   39.0770   31.6800   42.7530 H   0  0  0  0  0  0  0  0  0  0  0  0
   37.8900   31.5580   40.6400 H   0  0  0  0  0  0  0  0  0  0  0  0
   39.6040   31.9140   39.4890 O   0  0  0  0  0  0  0  0  0  0  0  0
   37.4760   32.0810   38.0970 O   0  0  0  0  0  0  0  0  0  0  0  0
   38.9100   31.5380   38.0030 P   0  0  1  0  0  0  0  0  0  0  0  0
   39.6640   32.3590   36.7590 O   0  0  0  0  0  0  0  0  0  0  0  0
   39.8290   31.7830   35.9920 H   0  0  0  0  0  0  0  0  0  0  0  0
   38.7300   29.8910   37.7160 O   0  0  0  0  0  0  0  0  0  0  0  0
   37.5190   29.2140   37.6740 C   0  0  0  0  0  0  0  0  0  0  0  0
   36.8130   29.6690   38.3700 H   0  0  0  0  0  0  0  0  0  0  0  0
   37.3610   28.2200   36.8980 O   0  0  0  0  0  0  0  0  0  0  0  0
  1  2  1  0  0  0  0
  2  7  1  0  0  0  0
  2  3  2  0  0  0  0
  3  8  1  0  0  0  0
  4  9  1  0  0  0  0
  4  3  1  0  0  0  0
  5  4  2  0  0  0  0
  6  1  2  0  0  0  0
  6  5  1  0  0  0  0
 10 16  1  0  0  0  0
 10 11  1  0  0  0  0
 11 17  1  0  0  0  0
 12 11  2  0  0  0  0
 12  1  1  0  0  0  0
 13 12  1  0  0  0  0
 14 15  1  0  0  0  0
 14 13  2  0  0  0  0
 15 10  2  0  0  0  0
 18 14  1  0  0  0  0
 19 22  1  6  0  0  0
 19  5  1  0  0  0  0
 19 20  1  0  0  0  0
 20 24  1  0  0  0  0
 21 25  1  1  0  0  0
 21 19  1  0  0  0  0
 21 20  1  0  0  0  0
 23 20  1  0  0  0  0
 26 21  1  0  0  0  0
 28 27  2  1  0  0  0
 28 26  1  0  0  0  0
 29 28  1  0  0  0  0
 30 29  1  0  0  0  0
 31 28  1  0  0  0  0
 32 31  1  0  0  0  0
 32 33  1  0  0  0  0
 34 32  2  0  0  0  0
M  END
>  <minimizedAffinity>
-5.03431654

$$$$

 OpenBabel03242521093D

 34 36  0  0  1  0  0  0  0  0999 V2000
   36.7810   24.5660   40.3190 C   0  0  0  0  0  0  0  0  0  0  0  0
   37.6130   23.5460   40.7400 C   0  0  0  0  0  0  0  0  0  0  0  0
   38.5370   23.6420   41.7570 C   0  0  0  0  0  0  0  0  0  0  0  0
   38.6440   24.8550   42.4120 C   0  0  0  0  0  0  0  0  0  0  0  0
   37.8120   25.8520   41.9800 C   0  0  0  0  0  0  0  0  0  0  0  0
   36.9430   25.6990   40.9960 N   0  0  0  0  0  0  0  0  0  0  0  0
   37.5600   22.5650   40.2470 H   0  0  0  0  0  0  0  0  0  0  0  0
   39.1670   22.8140   42.0510 H   0  0  0  0  0  0  0  0  0  0  0  0
   39.3550   24.9960   43.2230 H   0  0  0  0  0  0  0  0  0  0  0  0
   34.1570   23.3000   37.9390 C   0  0  0  0  0  0  0  0  0  0  0  0
   35.0230   23.2910   39.0360 C   0  0  0  0  0  0  0  0  0  0  0  0
   35.8200   24.4040   39.2280 C   0  0  0  0  0  0  0  0  0  0  0  0
   35.7320   25.4380   38.3600 N   0  0  0  0  0  0  0  0  0  0  0  0
   34.8730   25.4080   37.2990 C   0  0  0  0  0  0  0  0  0  0  0  0
   34.1000   24.3430   37.1030 N   0  0  0  0  0  0  0  0  0  0  0  0
   33.5510   22.4040   37.8330 H   0  0  0  0  0  0  0  0  0  0  0  0
   35.1500   22.5230   39.7600 H   0  0  0  0  0  0  0  0  0  0  0  0
   34.8090   26.2340   36.6140 H   0  0  0  0  0  0  0  0  0  0  0  0
   37.9240   27.1390   42.6930 C   0  0  2  0  0  0  0  0  0  0  0  0
   36.8350   27.4940   43.6370 C   0  0  0  0  0  0  0  0  0  0  0  0
   37.0760   28.2580   42.3300 C   0  0  1  0  0  0  0  0  0  0  0  0
   38.9620   27.3670   43.1000 H   0  0  0  0  0  0  0  0  0  0  0  0
   37.0440   28.1120   44.5330 H   0  0  0  0  0  0  0  0  0  0  0  0
   35.8910   26.9550   43.6750 H   0  0  0  0  0  0  0  0  0  0  0  0
   36.2490   28.1650   41.6020 H   0  0  0  0  0  0  0  0  0  0  0  0
   37.5250   29.5780   42.4770 O   0  0  0  0  0  0  0  0  0  0  0  0
   37.3010   29.6650   39.9400 O   0  0  0  0  0  0  0  0  0  0  0  0
   37.1300   30.5660   41.1730 P   0  0  1  0  0  0  0  0  0  0  0  0
   35.5250   31.0240   41.2260 O   0  0  0  0  0  0  0  0  0  0  0  0
   35.4110   31.9690   41.0240 H   0  0  0  0  0  0  0  0  0  0  0  0
   38.1920   31.8450   40.9240 O   0  0  0  0  0  0  0  0  0  0  0  0
   38.0840   32.7890   39.9110 C   0  0  0  0  0  0  0  0  0  0  0  0
   39.0440   33.2810   39.7550 H   0  0  0  0  0  0  0  0  0  0  0  0
   36.9770   32.9720   39.3150 O   0  0  0  0  0  0  0  0  0  0  0  0
  1  2  2  0  0  0  0
  1  6  1  0  0  0  0
  2  3  1  0  0  0  0
  3  8  1  0  0  0  0
  3  4  2  0  0  0  0
  4  9  1  0  0  0  0
  5  4  1  0  0  0  0
  5 19  1  0  0  0  0
  6  5  2  0  0  0  0
  7  2  1  0  0  0  0
 10 11  1  0  0  0  0
 11 12  2  0  0  0  0
 11 17  1  0  0  0  0
 12  1  1  0  0  0  0
 13 12  1  0  0  0  0
 14 13  2  0  0  0  0
 15 14  1  0  0  0  0
 15 10  2  0  0  0  0
 16 10  1  0  0  0  0
 18 14  1  0  0  0  0
 19 22  1  1  0  0  0
 19 20  1  0  0  0  0
 20 24  1  0  0  0  0
 20 23  1  0  0  0  0
 21 25  1  6  0  0  0
 21 26  1  0  0  0  0
 21 19  1  0  0  0  0
 21 20  1  0  0  0  0
 28 27  2  6  0  0  0
 28 29  1  0  0  0  0
 28 26  1  0  0  0  0
 30 29  1  0  0  0  0
 31 28  1  0  0  0  0
 32 31  1  0  0  0  0
 33 32  1  0  0  0  0
 34 32  2  0  0  0  0
M  END
>  <minimizedAffinity>
-5.02821732

$$$$

 OpenBabel03242521093D

 34 36  0  0  1  0  0  0  0  0999 V2000
   37.6450   26.6770   41.7820 C   0  0  0  0  0  0  0  0  0  0  0  0
   36.9560   26.9810   42.9390 C   0  0  0  0  0  0  0  0  0  0  0  0
   37.1150   28.1320   43.6800 C   0  0  0  0  0  0  0  0  0  0  0  0
   38.0360   29.0600   43.2320 C   0  0  0  0  0  0  0  0  0  0  0  0
   38.7080   28.7390   42.0840 C   0  0  0  0  0  0  0  0  0  0  0  0
   38.5130   27.6160   41.4150 N   0  0  0  0  0  0  0  0  0  0  0  0
   36.2130   26.2720   43.3310 H   0  0  0  0  0  0  0  0  0  0  0  0
   36.5510   28.3260   44.5820 H   0  0  0  0  0  0  0  0  0  0  0  0
   38.2090   29.9880   43.7710 H   0  0  0  0  0  0  0  0  0  0  0  0
   37.5290   23.0930   40.6420 C   0  0  0  0  0  0  0  0  0  0  0  0
   37.8040   24.1770   41.4810 C   0  0  0  0  0  0  0  0  0  0  0  0
   37.4350   25.4340   41.0390 C   0  0  0  0  0  0  0  0  0  0  0  0
   36.8330   25.5610   39.8330 N   0  0  0  0  0  0  0  0  0  0  0  0
   36.5830   24.4750   39.0440 C   0  0  0  0  0  0  0  0  0  0  0  0
   36.9330   23.2610   39.4570 N   0  0  0  0  0  0  0  0  0  0  0  0
   37.8380   22.1270   41.0350 H   0  0  0  0  0  0  0  0  0  0  0  0
   38.2700   24.1610   42.4360 H   0  0  0  0  0  0  0  0  0  0  0  0
   36.1040   24.5850   38.0870 H   0  0  0  0  0  0  0  0  0  0  0  0
   39.6810   29.7400   41.6040 C   0  0  2  0  0  0  0  0  0  0  0  0
   40.7310   30.1830   42.5560 C   0  0  0  0  0  0  0  0  0  0  0  0
   39.6150   31.1130   42.0680 C   0  0  1  0  0  0  0  0  0  0  0  0
   40.0790   29.5500   40.5550 H   0  0  0  0  0  0  0  0  0  0  0  0
   41.7300   30.4920   42.1890 H   0  0  0  0  0  0  0  0  0  0  0  0
   40.6940   29.9560   43.6190 H   0  0  0  0  0  0  0  0  0  0  0  0
   38.9240   31.4360   42.8680 H   0  0  0  0  0  0  0  0  0  0  0  0
   40.0280   32.1700   41.2440 O   0  0  0  0  0  0  0  0  0  0  0  0
   38.6990   34.2960   40.7880 O   0  0  0  0  0  0  0  0  0  0  0  0
   38.7780   32.8310   40.3310 P   0  0  1  0  0  0  0  0  0  0  0  0
   39.1590   32.8450   38.7050 O   0  0  0  0  0  0  0  0  0  0  0  0
   38.4120   32.5520   38.1550 H   0  0  0  0  0  0  0  0  0  0  0  0
   37.2600   32.1910   40.6650 O   0  0  0  0  0  0  0  0  0  0  0  0
   36.5820   31.2800   39.8660 C   0  0  0  0  0  0  0  0  0  0  0  0
   35.5060   31.4300   39.9590 H   0  0  0  0  0  0  0  0  0  0  0  0
   37.2220   30.4340   39.1670 O   0  0  0  0  0  0  0  0  0  0  0  0
  1  2  1  0  0  0  0
  2  7  1  0  0  0  0
  2  3  2  0  0  0  0
  3  8  1  0  0  0  0
  4  3  1  0  0  0  0
  4  9  1  0  0  0  0
  5  4  2  0  0  0  0
  6  1  2  0  0  0  0
  6  5  1  0  0  0  0
 10 16  1  0  0  0  0
 10 11  1  0  0  0  0
 11 17  1  0  0  0  0
 12 11  2  0  0  0  0
 12  1  1  0  0  0  0
 13 12  1  0  0  0  0
 14 15  1  0  0  0  0
 14 13  2  0  0  0  0
 15 10  2  0  0  0  0
 18 14  1  0  0  0  0
 19 22  1  6  0  0  0
 19 21  1  0  0  0  0
 19  5  1  0  0  0  0
 19 20  1  0  0  0  0
 20 24  1  0  0  0  0
 21 20  1  0  0  0  0
 21 25  1  1  0  0  0
 23 20  1  0  0  0  0
 26 21  1  0  0  0  0
 28 31  1  0  0  0  0
 28 27  2  1  0  0  0
 28 26  1  0  0  0  0
 29 28  1  0  0  0  0
 30 29  1  0  0  0  0
 32 33  1  0  0  0  0
 32 31  1  0  0  0  0
 34 32  2  0  0  0  0
M  END
>  <minimizedAffinity>
-4.9840951

$$$$

 OpenBabel03242521093D

 34 36  0  0  1  0  0  0  0  0999 V2000
   37.2970   30.9070   40.5110 C   0  0  0  0  0  0  0  0  0  0  0  0
   36.1790   30.7470   39.7170 C   0  0  0  0  0  0  0  0  0  0  0  0
   35.3230   29.6680   39.7560 C   0  0  0  0  0  0  0  0  0  0  0  0
   35.6030   28.6620   40.6620 C   0  0  0  0  0  0  0  0  0  0  0  0
   36.7150   28.8400   41.4400 C   0  0  0  0  0  0  0  0  0  0  0  0
   37.5000   29.9000   41.3560 N   0  0  0  0  0  0  0  0  0  0  0  0
   35.9190   31.5220   38.9830 H   0  0  0  0  0  0  0  0  0  0  0  0
   34.4580   29.5870   39.1120 H   0  0  0  0  0  0  0  0  0  0  0  0
   34.9680   27.7830   40.7430 H   0  0  0  0  0  0  0  0  0  0  0  0
   38.7310   34.3490   40.0040 C   0  0  0  0  0  0  0  0  0  0  0  0
   37.7630   33.3410   40.0380 C   0  0  0  0  0  0  0  0  0  0  0  0
   38.1710   32.0770   40.4200 C   0  0  0  0  0  0  0  0  0  0  0  0
   39.4700   31.8700   40.7400 N   0  0  0  0  0  0  0  0  0  0  0  0
   40.3860   32.8820   40.6930 C   0  0  0  0  0  0  0  0  0  0  0  0
   40.0050   34.1030   40.3270 N   0  0  0  0  0  0  0  0  0  0  0  0
   38.3590   35.3230   39.6970 H   0  0  0  0  0  0  0  0  0  0  0  0
   36.7290   33.4210   39.8030 H   0  0  0  0  0  0  0  0  0  0  0  0
   41.4150   32.7090   40.9490 H   0  0  0  0  0  0  0  0  0  0  0  0
   37.0000   27.7680   42.4140 C   0  0  2  0  0  0  0  0  0  0  0  0
   37.6700   28.1560   43.6800 C   0  0  0  0  0  0  0  0  0  0  0  0
   38.3560   27.2950   42.6130 C   0  0  1  0  0  0  0  0  0  0  0  0
   36.1490   27.0280   42.5660 H   0  0  0  0  0  0  0  0  0  0  0  0
   37.4760   27.5950   44.6160 H   0  0  0  0  0  0  0  0  0  0  0  0
   38.1250   29.1320   43.8290 H   0  0  0  0  0  0  0  0  0  0  0  0
   39.2300   27.7820   42.1430 H   0  0  0  0  0  0  0  0  0  0  0  0
   38.6070   25.9650   42.9810 O   0  0  0  0  0  0  0  0  0  0  0  0
   40.3650   24.6480   41.6900 O   0  0  0  0  0  0  0  0  0  0  0  0
   38.8580   24.9460   41.6650 P   0  0  1  0  0  0  0  0  0  0  0  0
   38.0680   23.4880   41.8690 O   0  0  0  0  0  0  0  0  0  0  0  0
   37.6130   23.2060   41.0570 H   0  0  0  0  0  0  0  0  0  0  0  0
   38.5840   25.6610   40.1690 O   0  0  0  0  0  0  0  0  0  0  0  0
   37.4710   25.4400   39.3690 C   0  0  0  0  0  0  0  0  0  0  0  0
   37.7330   25.5750   38.3190 H   0  0  0  0  0  0  0  0  0  0  0  0
   36.3540   25.1280   39.8880 O   0  0  0  0  0  0  0  0  0  0  0  0
  1  6  1  0  0  0  0
  2  3  1  0  0  0  0
  2  1  2  0  0  0  0
  3  4  2  0  0  0  0
  4  9  1  0  0  0  0
  4  5  1  0  0  0  0
  5 19  1  0  0  0  0
  6  5  2  0  0  0  0
  7  2  1  0  0  0  0
  8  3  1  0  0  0  0
 10 11  2  0  0  0  0
 10 15  1  0  0  0  0
 11 12  1  0  0  0  0
 12  1  1  0  0  0  0
 12 13  2  0  0  0  0
 14 13  1  0  0  0  0
 14 18  1  0  0  0  0
 15 14  2  0  0  0  0
 16 10  1  0  0  0  0
 17 11  1  0  0  0  0
 19 22  1  1  0  0  0
 19 21  1  0  0  0  0
 19 20  1  0  0  0  0
 20 24  1  0  0  0  0
 20 23  1  0  0  0  0
 21 25  1  6  0  0  0
 21 26  1  0  0  0  0
 21 20  1  0  0  0  0
 28 27  2  1  0  0  0
 28 29  1  0  0  0  0
 28 26  1  0  0  0  0
 30 29  1  0  0  0  0
 31 28  1  0  0  0  0
 32 34  2  0  0  0  0
 32 31  1  0  0  0  0
 33 32  1  0  0  0  0
M  END
>  <minimizedAffinity>
-4.98301983

$$$$

 OpenBabel03242521093D

 34 36  0  0  1  0  0  0  0  0999 V2000
   37.2850   27.0810   40.2610 C   0  0  0  0  0  0  0  0  0  0  0  0
   36.6460   26.0550   39.5930 C   0  0  0  0  0  0  0  0  0  0  0  0
   35.9000   26.1960   38.4440 C   0  0  0  0  0  0  0  0  0  0  0  0
   35.7780   27.4670   37.9120 C   0  0  0  0  0  0  0  0  0  0  0  0
   36.4180   28.4700   38.5880 C   0  0  0  0  0  0  0  0  0  0  0  0
   37.1210   28.2720   39.6900 N   0  0  0  0  0  0  0  0  0  0  0  0
   36.7170   25.0290   39.9810 H   0  0  0  0  0  0  0  0  0  0  0  0
   35.4180   25.3600   37.9570 H   0  0  0  0  0  0  0  0  0  0  0  0
   35.2030   27.6460   37.0070 H   0  0  0  0  0  0  0  0  0  0  0  0
   39.0660   27.4580   43.5540 C   0  0  0  0  0  0  0  0  0  0  0  0
   38.3000   27.8310   42.4450 C   0  0  0  0  0  0  0  0  0  0  0  0
   38.0620   26.8690   41.4820 C   0  0  0  0  0  0  0  0  0  0  0  0
   38.5730   25.6270   41.6480 N   0  0  0  0  0  0  0  0  0  0  0  0
   39.3190   25.3020   42.7450 C   0  0  0  0  0  0  0  0  0  0  0  0
   39.5540   26.2190   43.6800 N   0  0  0  0  0  0  0  0  0  0  0  0
   39.2240   28.2500   44.2820 H   0  0  0  0  0  0  0  0  0  0  0  0
   37.8650   28.7790   42.2430 H   0  0  0  0  0  0  0  0  0  0  0  0
   39.7210   24.3130   42.8690 H   0  0  0  0  0  0  0  0  0  0  0  0
   36.2940   29.8210   38.0080 C   0  0  2  0  0  0  0  0  0  0  0  0
   36.9430   30.0620   36.6950 C   0  0  0  0  0  0  0  0  0  0  0  0
   37.4300   30.7220   37.9900 C   0  0  1  0  0  0  0  0  0  0  0  0
   35.2530   30.2750   38.0840 H   0  0  0  0  0  0  0  0  0  0  0  0
   36.5160   30.7940   35.9810 H   0  0  0  0  0  0  0  0  0  0  0  0
   37.6510   29.3650   36.2520 H   0  0  0  0  0  0  0  0  0  0  0  0
   38.4440   30.4050   38.2960 H   0  0  0  0  0  0  0  0  0  0  0  0
   37.2470   32.1100   38.0650 O   0  0  0  0  0  0  0  0  0  0  0  0
   37.1150   34.2120   39.5000 O   0  0  0  0  0  0  0  0  0  0  0  0
   37.5390   32.7390   39.5990 P   0  0  1  0  0  0  0  0  0  0  0  0
   36.5560   32.0220   40.7430 O   0  0  0  0  0  0  0  0  0  0  0  0
   37.0470   31.7960   41.5520 H   0  0  0  0  0  0  0  0  0  0  0  0
   39.1620   32.7850   40.0340 O   0  0  0  0  0  0  0  0  0  0  0  0
   40.2210   32.9650   39.1540 C   0  0  0  0  0  0  0  0  0  0  0  0
   40.3270   32.0900   38.5120 H   0  0  0  0  0  0  0  0  0  0  0  0
   40.9050   34.0360   39.1770 O   0  0  0  0  0  0  0  0  0  0  0  0
  1 12  1  0  0  0  0
  2  7  1  0  0  0  0
  2  1  2  0  0  0  0
  3  2  1  0  0  0  0
  4  3  2  0  0  0  0
  4  5  1  0  0  0  0
  5  6  2  0  0  0  0
  6  1  1  0  0  0  0
  8  3  1  0  0  0  0
  9  4  1  0  0  0  0
 10 15  1  0  0  0  0
 10 16  1  0  0  0  0
 11 10  2  0  0  0  0
 12 13  2  0  0  0  0
 12 11  1  0  0  0  0
 13 14  1  0  0  0  0
 14 18  1  0  0  0  0
 14 15  2  0  0  0  0
 17 11  1  0  0  0  0
 19 22  1  1  0  0  0
 19  5  1  0  0  0  0
 20 21  1  0  0  0  0
 20 19  1  0  0  0  0
 21 19  1  0  0  0  0
 21 26  1  0  0  0  0
 21 25  1  1  0  0  0
 23 20  1  0  0  0  0
 24 20  1  0  0  0  0
 26 28  1  0  0  0  0
 28 27  2  6  0  0  0
 28 31  1  0  0  0  0
 28 29  1  0  0  0  0
 29 30  1  0  0  0  0
 32 34  2  0  0  0  0
 32 31  1  0  0  0  0
 33 32  1  0  0  0  0
M  END
>  <minimizedAffinity>
-4.83904934

$$$$
