
 OpenBabel03252505483D

 16 16  0  0  0  0  0  0  0  0999 V2000
   44.6930   35.4400   45.0560 C   0  0  0  0  0  0  0  0  0  0  0  0
   45.5400   34.9520   44.0730 C   0  0  0  0  0  0  0  0  0  0  0  0
   46.2490   33.7750   44.3660 C   0  0  0  0  0  0  0  0  0  0  0  0
   46.0740   33.1920   45.5700 N   0  0  0  0  0  0  0  0  0  0  0  0
   45.2360   33.7030   46.5010 C   0  0  0  0  0  0  0  0  0  0  0  0
   44.5380   34.8300   46.2550 N   0  0  0  0  0  0  0  0  0  0  0  0
   44.1090   36.3430   44.9070 H   0  0  0  0  0  0  0  0  0  0  0  0
   46.8970   33.4080   43.6060 H   0  0  0  0  0  0  0  0  0  0  0  0
   45.6330   35.7040   42.7880 C   0  0  0  0  0  0  0  0  0  0  0  0
   45.2240   36.9730   43.0670 F   0  0  0  0  0  0  0  0  0  0  0  0
   44.7570   35.0940   41.9000 F   0  0  0  0  0  0  0  0  0  0  0  0
   46.9310   35.6180   42.3410 F   0  0  0  0  0  0  0  0  0  0  0  0
   45.0540   33.1050   47.7350 O   0  0  0  0  0  0  0  0  0  0  0  0
   45.9990   32.2830   48.3380 C   0  0  0  0  0  0  0  0  0  0  0  0
   46.9370   32.3520   47.8080 H   0  0  0  0  0  0  0  0  0  0  0  0
   45.9130   31.5370   49.3280 O   0  0  0  0  0  0  0  0  0  0  0  0
  1  6  1  0  0  0  0
  2  3  1  0  0  0  0
  2  1  2  0  0  0  0
  3  4  2  0  0  0  0
  4  5  1  0  0  0  0
  5 13  1  0  0  0  0
  6  5  2  0  0  0  0
  7  1  1  0  0  0  0
  8  3  1  0  0  0  0
  9 10  1  0  0  0  0
  9  2  1  0  0  0  0
 11  9  1  0  0  0  0
 12  9  1  0  0  0  0
 13 14  1  0  0  0  0
 14 16  2  0  0  0  0
 15 14  1  0  0  0  0
M  END
>  <minimizedAffinity>
-4.12765932

>  <minimizedRMSD>
0.664763927

$$$$
