
 OpenBabel03252507363D

 26 28  0  0  0  0  0  0  0  0999 V2000
   47.9040   35.1970   42.0130 C   0  0  0  0  0  0  0  0  0  0  0  0
   46.6540   34.6340   42.1340 C   0  0  0  0  0  0  0  0  0  0  0  0
   46.0940   34.0140   41.0340 C   0  0  0  0  0  0  0  0  0  0  0  0
   46.7430   33.9420   39.8170 C   0  0  0  0  0  0  0  0  0  0  0  0
   46.4100   33.4040   38.6270 N   0  0  0  0  0  0  0  0  0  0  0  0
   47.4340   33.6180   37.7500 C   0  0  0  0  0  0  0  0  0  0  0  0
   48.3870   34.2910   38.4230 N   0  0  0  0  0  0  0  0  0  0  0  0
   47.9900   34.5020   39.6900 C   0  0  0  0  0  0  0  0  0  0  0  0
   48.5690   35.1290   40.7870 C   0  0  0  0  0  0  0  0  0  0  0  0
   48.3670   35.6890   42.8600 H   0  0  0  0  0  0  0  0  0  0  0  0
   45.1170   33.5720   41.1190 H   0  0  0  0  0  0  0  0  0  0  0  0
   45.5140   32.8940   38.3800 H   0  0  0  0  0  0  0  0  0  0  0  0
   47.5250   33.3330   36.7110 H   0  0  0  0  0  0  0  0  0  0  0  0
   49.5600   35.5780   40.6960 H   0  0  0  0  0  0  0  0  0  0  0  0
   45.4510   34.0190   45.6580 C   0  0  0  0  0  0  0  0  0  0  0  0
   46.1460   33.8180   44.4460 C   0  0  0  0  0  0  0  0  0  0  0  0
   45.9950   34.7270   43.4260 C   0  0  0  0  0  0  0  0  0  0  0  0
   45.1740   35.7920   43.6290 N   0  0  0  0  0  0  0  0  0  0  0  0
   44.5110   35.9760   44.7950 C   0  0  0  0  0  0  0  0  0  0  0  0
   44.6550   35.0930   45.7940 N   0  0  0  0  0  0  0  0  0  0  0  0
   46.8070   32.9590   44.2830 H   0  0  0  0  0  0  0  0  0  0  0  0
   43.8680   36.8260   44.9330 H   0  0  0  0  0  0  0  0  0  0  0  0
   45.6020   33.1050   46.6800 O   0  0  0  0  0  0  0  0  0  0  0  0
   46.8990   32.5840   46.8460 C   0  0  0  0  0  0  0  0  0  0  0  0
   47.4800   32.1120   46.0620 H   0  0  0  0  0  0  0  0  0  0  0  0
   47.5610   32.5910   47.9130 O   0  0  0  0  0  0  0  0  0  0  0  0
  1  2  1  0  0  0  0
  1 10  1  0  0  0  0
  2 17  1  0  0  0  0
  3 11  1  0  0  0  0
  3  2  2  0  0  0  0
  4  3  1  0  0  0  0
  5  4  1  0  0  0  0
  6  7  2  0  0  0  0
  6  5  1  0  0  0  0
  7  8  1  0  0  0  0
  8  4  2  0  0  0  0
  8  9  1  0  0  0  0
  9  1  2  0  0  0  0
 12  5  1  0  0  0  0
 13  6  1  0  0  0  0
 14  9  1  0  0  0  0
 15 20  1  0  0  0  0
 15 23  1  0  0  0  0
 16 15  2  0  0  0  0
 17 18  2  0  0  0  0
 17 16  1  0  0  0  0
 18 19  1  0  0  0  0
 19 22  1  0  0  0  0
 19 20  2  0  0  0  0
 21 16  1  0  0  0  0
 23 24  1  0  0  0  0
 24 26  2  0  0  0  0
 25 24  1  0  0  0  0
M  END
>  <minimizedAffinity>
-5.89178228

>  <minimizedRMSD>
2.36998463

$$$$
