
 OpenBabel03242520493D

 13 13  0  0  0  0  0  0  0  0999 V2000
   37.0510   27.2560   42.1930 C   0  0  0  0  0  0  0  0  0  0  0  0
   36.3510   28.3100   41.5840 C   0  0  0  0  0  0  0  0  0  0  0  0
   36.8440   29.6130   41.7250 C   0  0  0  0  0  0  0  0  0  0  0  0
   37.9770   29.7960   42.4450 N   0  0  0  0  0  0  0  0  0  0  0  0
   38.6290   28.7610   43.0190 C   0  0  0  0  0  0  0  0  0  0  0  0
   38.1590   27.5060   42.8870 N   0  0  0  0  0  0  0  0  0  0  0  0
   36.5450   26.3200   41.9920 H   0  0  0  0  0  0  0  0  0  0  0  0
   35.4510   28.2940   40.9950 H   0  0  0  0  0  0  0  0  0  0  0  0
   39.5370   28.8770   43.6000 H   0  0  0  0  0  0  0  0  0  0  0  0
   36.2600   30.7400   41.1840 O   0  0  0  0  0  0  0  0  0  0  0  0
   37.0700   31.6460   40.5160 C   0  0  0  0  0  0  0  0  0  0  0  0
   38.0540   31.9190   40.8070 H   0  0  0  0  0  0  0  0  0  0  0  0
   36.9110   32.3480   39.4740 O   0  0  0  0  0  0  0  0  0  0  0  0
  1  6  1  0  0  0  0
  2  3  1  0  0  0  0
  2  1  2  0  0  0  0
  3  4  2  0  0  0  0
  4  5  1  0  0  0  0
  5  9  1  0  0  0  0
  6  5  2  0  0  0  0
  7  1  1  0  0  0  0
  8  2  1  0  0  0  0
 10  3  1  0  0  0  0
 11 12  1  0  0  0  0
 11 10  1  0  0  0  0
 13 11  2  0  0  0  0
M  END
>  <minimizedAffinity>
-2.88516641

$$$$

 OpenBabel03242520493D

 13 13  0  0  0  0  0  0  0  0999 V2000
   38.0300   28.9350   43.3210 C   0  0  0  0  0  0  0  0  0  0  0  0
   38.1750   27.5410   43.4120 C   0  0  0  0  0  0  0  0  0  0  0  0
   37.5490   26.7370   42.4500 C   0  0  0  0  0  0  0  0  0  0  0  0
   36.8330   27.3440   41.4740 N   0  0  0  0  0  0  0  0  0  0  0  0
   36.7130   28.6880   41.4120 C   0  0  0  0  0  0  0  0  0  0  0  0
   37.3110   29.4660   42.3340 N   0  0  0  0  0  0  0  0  0  0  0  0
   38.5680   29.4100   44.1310 H   0  0  0  0  0  0  0  0  0  0  0  0
   38.7090   26.9460   44.1310 H   0  0  0  0  0  0  0  0  0  0  0  0
   36.1470   29.2020   40.6420 H   0  0  0  0  0  0  0  0  0  0  0  0
   37.6060   25.3590   42.4180 O   0  0  0  0  0  0  0  0  0  0  0  0
   38.8510   24.7500   42.3940 C   0  0  0  0  0  0  0  0  0  0  0  0
   39.4340   24.5810   41.5220 H   0  0  0  0  0  0  0  0  0  0  0  0
   39.5970   24.2640   43.2950 O   0  0  0  0  0  0  0  0  0  0  0  0
  1  2  1  0  0  0  0
  1  7  1  0  0  0  0
  2  8  1  0  0  0  0
  3  2  2  0  0  0  0
  4  3  1  0  0  0  0
  5  4  2  0  0  0  0
  5  6  1  0  0  0  0
  6  1  2  0  0  0  0
  9  5  1  0  0  0  0
 10  3  1  0  0  0  0
 11 10  1  0  0  0  0
 11 13  2  0  0  0  0
 12 11  1  0  0  0  0
M  END
>  <minimizedAffinity>
-2.84866452

$$$$

 OpenBabel03242520493D

 13 13  0  0  0  0  0  0  0  0999 V2000
   38.8860   28.5130   43.0130 C   0  0  0  0  0  0  0  0  0  0  0  0
   38.2910   29.6780   42.5020 C   0  0  0  0  0  0  0  0  0  0  0  0
   37.0140   29.5850   41.9340 C   0  0  0  0  0  0  0  0  0  0  0  0
   36.4110   28.3720   41.9050 N   0  0  0  0  0  0  0  0  0  0  0  0
   37.0100   27.2690   42.4040 C   0  0  0  0  0  0  0  0  0  0  0  0
   38.2370   27.3520   42.9510 N   0  0  0  0  0  0  0  0  0  0  0  0
   39.8640   28.7500   43.4130 H   0  0  0  0  0  0  0  0  0  0  0  0
   38.6620   30.6870   42.4670 H   0  0  0  0  0  0  0  0  0  0  0  0
   36.5520   26.2860   42.3940 H   0  0  0  0  0  0  0  0  0  0  0  0
   36.3120   30.6440   41.3960 O   0  0  0  0  0  0  0  0  0  0  0  0
   36.9110   31.3900   40.3930 C   0  0  0  0  0  0  0  0  0  0  0  0
   37.1410   31.0350   39.4190 H   0  0  0  0  0  0  0  0  0  0  0  0
   37.3230   32.5870   40.3290 O   0  0  0  0  0  0  0  0  0  0  0  0
  1  7  1  0  0  0  0
  2  1  2  0  0  0  0
  3  2  1  0  0  0  0
  4  3  2  0  0  0  0
  4  5  1  0  0  0  0
  5  6  2  0  0  0  0
  6  1  1  0  0  0  0
  8  2  1  0  0  0  0
  9  5  1  0  0  0  0
 10  3  1  0  0  0  0
 11 10  1  0  0  0  0
 12 11  1  0  0  0  0
 13 11  2  0  0  0  0
M  END
>  <minimizedAffinity>
-2.8452704

$$$$

 OpenBabel03242520493D

 13 13  0  0  0  0  0  0  0  0999 V2000
   35.5500   28.7400   40.8260 C   0  0  0  0  0  0  0  0  0  0  0  0
   35.7080   30.0310   40.2950 C   0  0  0  0  0  0  0  0  0  0  0  0
   36.7400   30.8380   40.7890 C   0  0  0  0  0  0  0  0  0  0  0  0
   37.5420   30.3340   41.7570 N   0  0  0  0  0  0  0  0  0  0  0  0
   37.3660   29.0880   42.2480 C   0  0  0  0  0  0  0  0  0  0  0  0
   36.3750   28.3070   41.7780 N   0  0  0  0  0  0  0  0  0  0  0  0
   34.7150   28.2480   40.3440 H   0  0  0  0  0  0  0  0  0  0  0  0
   35.1430   30.5390   39.5340 H   0  0  0  0  0  0  0  0  0  0  0  0
   37.9920   28.6570   43.0230 H   0  0  0  0  0  0  0  0  0  0  0  0
   37.0090   32.1220   40.3620 O   0  0  0  0  0  0  0  0  0  0  0  0
   38.3120   32.5870   40.4500 C   0  0  0  0  0  0  0  0  0  0  0  0
   39.1520   32.1520   39.9660 H   0  0  0  0  0  0  0  0  0  0  0  0
   38.8480   33.5600   41.0590 O   0  0  0  0  0  0  0  0  0  0  0  0
  1  6  1  0  0  0  0
  2  3  1  0  0  0  0
  2  1  2  0  0  0  0
  3  4  2  0  0  0  0
  4  5  1  0  0  0  0
  5  9  1  0  0  0  0
  6  5  2  0  0  0  0
  7  1  1  0  0  0  0
  8  2  1  0  0  0  0
 10 11  1  0  0  0  0
 10  3  1  0  0  0  0
 11 13  2  0  0  0  0
 12 11  1  0  0  0  0
M  END
>  <minimizedAffinity>
-2.81033254

$$$$

 OpenBabel03242520493D

 13 13  0  0  0  0  0  0  0  0999 V2000
   38.5150   24.4180   42.3300 C   0  0  0  0  0  0  0  0  0  0  0  0
   37.6870   25.5490   42.2320 C   0  0  0  0  0  0  0  0  0  0  0  0
   38.0710   26.7200   42.8980 C   0  0  0  0  0  0  0  0  0  0  0  0
   39.2260   26.7080   43.6050 N   0  0  0  0  0  0  0  0  0  0  0  0
   40.0020   25.6050   43.6800 C   0  0  0  0  0  0  0  0  0  0  0  0
   39.6380   24.4750   43.0430 N   0  0  0  0  0  0  0  0  0  0  0  0
   38.0840   23.6020   41.7650 H   0  0  0  0  0  0  0  0  0  0  0  0
   36.7570   25.6820   41.7090 H   0  0  0  0  0  0  0  0  0  0  0  0
   40.9310   25.5650   44.2380 H   0  0  0  0  0  0  0  0  0  0  0  0
   37.3560   27.9000   42.8900 O   0  0  0  0  0  0  0  0  0  0  0  0
   37.9890   29.0570   43.3190 C   0  0  0  0  0  0  0  0  0  0  0  0
   38.0410   29.3900   44.3260 H   0  0  0  0  0  0  0  0  0  0  0  0
   38.6270   29.9710   42.7170 O   0  0  0  0  0  0  0  0  0  0  0  0
  1  6  1  0  0  0  0
  2  1  2  0  0  0  0
  2  3  1  0  0  0  0
  3  4  2  0  0  0  0
  4  5  1  0  0  0  0
  5  9  1  0  0  0  0
  6  5  2  0  0  0  0
  7  1  1  0  0  0  0
  8  2  1  0  0  0  0
 10  3  1  0  0  0  0
 10 11  1  0  0  0  0
 11 12  1  0  0  0  0
 13 11  2  0  0  0  0
M  END
>  <minimizedAffinity>
-2.79247189

$$$$

 OpenBabel03242520493D

 13 13  0  0  0  0  0  0  0  0999 V2000
   39.8100   25.1140   43.2570 C   0  0  0  0  0  0  0  0  0  0  0  0
   39.5730   26.4330   43.6800 C   0  0  0  0  0  0  0  0  0  0  0  0
   38.3740   27.0520   43.3070 C   0  0  0  0  0  0  0  0  0  0  0  0
   37.4940   26.3470   42.5550 N   0  0  0  0  0  0  0  0  0  0  0  0
   37.7490   25.0800   42.1640 C   0  0  0  0  0  0  0  0  0  0  0  0
   38.9010   24.4790   42.5190 N   0  0  0  0  0  0  0  0  0  0  0  0
   40.7720   24.7820   43.6240 H   0  0  0  0  0  0  0  0  0  0  0  0
   40.1860   27.0900   44.2710 H   0  0  0  0  0  0  0  0  0  0  0  0
   37.0650   24.4910   41.5630 H   0  0  0  0  0  0  0  0  0  0  0  0
   38.0120   28.3390   43.6490 O   0  0  0  0  0  0  0  0  0  0  0  0
   37.9240   29.2880   42.6430 C   0  0  0  0  0  0  0  0  0  0  0  0
   38.7350   29.8620   42.2680 H   0  0  0  0  0  0  0  0  0  0  0  0
   36.9640   29.7190   41.9370 O   0  0  0  0  0  0  0  0  0  0  0  0
  1  7  1  0  0  0  0
  1  2  1  0  0  0  0
  2  8  1  0  0  0  0
  3 10  1  0  0  0  0
  3  2  2  0  0  0  0
  4  3  1  0  0  0  0
  5  6  1  0  0  0  0
  5  4  2  0  0  0  0
  6  1  2  0  0  0  0
  9  5  1  0  0  0  0
 11 10  1  0  0  0  0
 12 11  1  0  0  0  0
 13 11  2  0  0  0  0
M  END
>  <minimizedAffinity>
-2.79053855

$$$$

 OpenBabel03242520493D

 13 13  0  0  0  0  0  0  0  0999 V2000
   39.4320   30.8370   41.6900 C   0  0  0  0  0  0  0  0  0  0  0  0
   39.1330   29.8850   42.6790 C   0  0  0  0  0  0  0  0  0  0  0  0
   37.8260   29.3890   42.7600 C   0  0  0  0  0  0  0  0  0  0  0  0
   36.9090   29.8500   41.8770 N   0  0  0  0  0  0  0  0  0  0  0  0
   37.2250   30.7660   40.9370 C   0  0  0  0  0  0  0  0  0  0  0  0
   38.4800   31.2470   40.8540 N   0  0  0  0  0  0  0  0  0  0  0  0
   40.4740   31.1190   41.7590 H   0  0  0  0  0  0  0  0  0  0  0  0
   39.7660   29.4460   43.4300 H   0  0  0  0  0  0  0  0  0  0  0  0
   36.5120   31.1530   40.2170 H   0  0  0  0  0  0  0  0  0  0  0  0
   37.3940   28.4550   43.6790 O   0  0  0  0  0  0  0  0  0  0  0  0
   36.6360   27.3860   43.2270 C   0  0  0  0  0  0  0  0  0  0  0  0
   35.5930   27.2630   43.3870 H   0  0  0  0  0  0  0  0  0  0  0  0
   36.9130   26.3460   42.5600 O   0  0  0  0  0  0  0  0  0  0  0  0
  1  7  1  0  0  0  0
  1  2  1  0  0  0  0
  2  3  2  0  0  0  0
  2  8  1  0  0  0  0
  3 10  1  0  0  0  0
  4  3  1  0  0  0  0
  5  4  2  0  0  0  0
  6  5  1  0  0  0  0
  6  1  2  0  0  0  0
  9  5  1  0  0  0  0
 11 12  1  0  0  0  0
 11 10  1  0  0  0  0
 13 11  2  0  0  0  0
M  END
>  <minimizedAffinity>
-2.75973868

$$$$

 OpenBabel03242520493D

 13 13  0  0  0  0  0  0  0  0999 V2000
   36.9560   31.0090   38.2430 C   0  0  0  0  0  0  0  0  0  0  0  0
   36.3490   29.9150   38.8800 C   0  0  0  0  0  0  0  0  0  0  0  0
   36.1360   29.9770   40.2630 C   0  0  0  0  0  0  0  0  0  0  0  0
   36.5260   31.0940   40.9230 N   0  0  0  0  0  0  0  0  0  0  0  0
   37.1070   32.1310   40.2830 C   0  0  0  0  0  0  0  0  0  0  0  0
   37.3150   32.0770   38.9540 N   0  0  0  0  0  0  0  0  0  0  0  0
   37.0500   30.8080   37.1840 H   0  0  0  0  0  0  0  0  0  0  0  0
   36.0000   28.9830   38.4720 H   0  0  0  0  0  0  0  0  0  0  0  0
   37.4290   33.0370   40.7850 H   0  0  0  0  0  0  0  0  0  0  0  0
   35.5530   28.9780   41.0160 O   0  0  0  0  0  0  0  0  0  0  0  0
   36.3770   28.1410   41.7530 C   0  0  0  0  0  0  0  0  0  0  0  0
   36.7640   27.2110   41.4170 H   0  0  0  0  0  0  0  0  0  0  0  0
   36.8710   28.2140   42.9170 O   0  0  0  0  0  0  0  0  0  0  0  0
  1  2  2  0  0  0  0
  1  6  1  0  0  0  0
  2  3  1  0  0  0  0
  3  4  2  0  0  0  0
  3 10  1  0  0  0  0
  5  9  1  0  0  0  0
  5  4  1  0  0  0  0
  6  5  2  0  0  0  0
  7  1  1  0  0  0  0
  8  2  1  0  0  0  0
 10 11  1  0  0  0  0
 11 13  2  0  0  0  0
 12 11  1  0  0  0  0
M  END
>  <minimizedAffinity>
-2.68054342

$$$$

 OpenBabel03242520493D

 13 13  0  0  0  0  0  0  0  0999 V2000
   39.2560   26.6630   43.6790 C   0  0  0  0  0  0  0  0  0  0  0  0
   38.2260   27.6060   43.5300 C   0  0  0  0  0  0  0  0  0  0  0  0
   37.2430   27.3780   42.5590 C   0  0  0  0  0  0  0  0  0  0  0  0
   37.3310   26.2540   41.8080 N   0  0  0  0  0  0  0  0  0  0  0  0
   38.3320   25.3640   41.9750 C   0  0  0  0  0  0  0  0  0  0  0  0
   39.2810   25.5780   42.9070 N   0  0  0  0  0  0  0  0  0  0  0  0
   39.9300   26.9810   44.4630 H   0  0  0  0  0  0  0  0  0  0  0  0
   38.0490   28.5270   44.0570 H   0  0  0  0  0  0  0  0  0  0  0  0
   38.4280   24.4560   41.3900 H   0  0  0  0  0  0  0  0  0  0  0  0
   36.1790   28.2180   42.3030 O   0  0  0  0  0  0  0  0  0  0  0  0
   35.9280   28.5840   40.9900 C   0  0  0  0  0  0  0  0  0  0  0  0
   36.6270   28.5220   40.1920 H   0  0  0  0  0  0  0  0  0  0  0  0
   34.9100   29.0510   40.3980 O   0  0  0  0  0  0  0  0  0  0  0  0
  1  7  1  0  0  0  0
  2  1  1  0  0  0  0
  2  8  1  0  0  0  0
  3  2  2  0  0  0  0
  4  5  2  0  0  0  0
  4  3  1  0  0  0  0
  5  6  1  0  0  0  0
  6  1  2  0  0  0  0
  9  5  1  0  0  0  0
 10  3  1  0  0  0  0
 11 10  1  0  0  0  0
 12 11  1  0  0  0  0
 13 11  2  0  0  0  0
M  END
>  <minimizedAffinity>
-2.66893125

$$$$
