
 OpenBabel03252509303D

 21 21  0  0  0  0  0  0  0  0999 V2000
   47.1280   33.7710   42.8040 C   0  0  0  0  0  0  0  0  0  0  0  0
   46.5710   33.0550   42.1890 H   0  0  0  0  0  0  0  0  0  0  0  0
   47.3780   34.6270   42.1300 H   0  0  0  0  0  0  0  0  0  0  0  0
   45.2280   34.1920   45.9830 C   0  0  0  0  0  0  0  0  0  0  0  0
   46.1070   33.6480   45.0420 C   0  0  0  0  0  0  0  0  0  0  0  0
   46.2220   34.2940   43.8310 C   0  0  0  0  0  0  0  0  0  0  0  0
   45.4780   35.4360   43.5970 N   0  0  0  0  0  0  0  0  0  0  0  0
   44.6420   35.9180   44.5450 C   0  0  0  0  0  0  0  0  0  0  0  0
   44.5160   35.3020   45.7330 N   0  0  0  0  0  0  0  0  0  0  0  0
   45.1830   33.6350   46.9180 H   0  0  0  0  0  0  0  0  0  0  0  0
   46.6980   32.7500   45.2160 H   0  0  0  0  0  0  0  0  0  0  0  0
   44.0730   36.8110   44.3360 H   0  0  0  0  0  0  0  0  0  0  0  0
   48.2600   33.2010   43.3890 O   0  0  0  0  0  0  0  0  0  0  0  0
   50.6390   32.5930   42.5070 O   0  0  0  0  0  0  0  0  0  0  0  0
   49.5850   33.6610   42.4460 P   0  0  2  0  0  0  0  0  0  0  0  0
   50.1140   35.1510   43.0080 O   0  0  0  0  0  0  0  0  0  0  0  0
   50.8590   35.0400   43.6500 H   0  0  0  0  0  0  0  0  0  0  0  0
   49.0450   33.7960   40.8440 O   0  0  0  0  0  0  0  0  0  0  0  0
   48.9760   32.6470   40.0640 C   0  0  0  0  0  0  0  0  0  0  0  0
   48.0110   32.1440   40.0950 H   0  0  0  0  0  0  0  0  0  0  0  0
   49.8120   32.0890   39.3360 O   0  0  0  0  0  0  0  0  0  0  0  0
  1 13  1  0  0  0  0
  1  6  1  0  0  0  0
  2  1  1  0  0  0  0
  3  1  1  0  0  0  0
  4 10  1  0  0  0  0
  5 11  1  0  0  0  0
  5  4  2  0  0  0  0
  6  5  1  0  0  0  0
  7  6  2  0  0  0  0
  7  8  1  0  0  0  0
  8  9  2  0  0  0  0
  9  4  1  0  0  0  0
 12  8  1  0  0  0  0
 15 14  2  1  0  0  0
 15 16  1  0  0  0  0
 15 13  1  0  0  0  0
 16 17  1  0  0  0  0
 18 15  1  0  0  0  0
 19 20  1  0  0  0  0
 19 18  1  0  0  0  0
 21 19  2  0  0  0  0
M  END
>  <minimizedAffinity>
-4.02459335

>  <minimizedRMSD>
0.678080022

$$$$
