
 OpenBabel03252503363D

 36 38  0  0  1  0  0  0  0  0999 V2000
   46.1550   32.0320   40.0000 C   0  0  0  0  0  0  0  0  0  0  0  0
   47.2180   32.7470   40.3820 C   0  0  0  0  0  0  0  0  0  0  0  0
   47.1470   33.5550   41.5450 N   0  0  0  0  0  0  0  0  0  0  0  0
   47.7670   34.0970   42.6920 C   0  0  0  0  0  0  0  0  0  0  0  0
   48.9440   34.0950   43.1720 O   0  0  0  0  0  0  0  0  0  0  0  0
   46.5630   34.7170   43.2240 C   0  0  1  0  0  0  0  0  0  0  0  0
   45.9320   34.2630   41.9270 C   0  0  2  0  0  0  0  0  0  0  0  0
   44.6310   33.0360   42.0630 S   0  0  0  0  0  0  0  0  0  0  0  0
   44.8230   31.9460   40.6580 C   0  0  0  0  0  0  0  0  0  0  0  0
   46.5790   35.8350   43.2290 H   0  0  0  0  0  0  0  0  0  0  0  0
   45.6780   35.0910   41.2320 H   0  0  0  0  0  0  0  0  0  0  0  0
   44.0110   32.1470   39.9150 H   0  0  0  0  0  0  0  0  0  0  0  0
   44.6620   30.8930   40.9850 H   0  0  0  0  0  0  0  0  0  0  0  0
   46.0830   34.0910   44.4430 C   0  0  0  0  0  0  0  0  0  0  0  0
   45.0710   34.2660   45.1480 O   0  0  0  0  0  0  0  0  0  0  0  0
   46.9560   33.0530   44.9390 N   0  0  0  0  0  0  0  0  0  0  0  0
   47.8580   32.6420   44.6050 H   0  0  0  0  0  0  0  0  0  0  0  0
   46.8370   31.9990   48.4940 C   0  0  0  0  0  0  0  0  0  0  0  0
   47.1390   32.7500   47.3560 C   0  0  0  0  0  0  0  0  0  0  0  0
   46.6590   32.3430   46.1280 C   0  0  0  0  0  0  0  0  0  0  0  0
   45.9090   31.2300   46.0650 N   0  0  0  0  0  0  0  0  0  0  0  0
   45.6210   30.5040   47.1850 C   0  0  0  0  0  0  0  0  0  0  0  0
   46.0890   30.9010   48.3750 N   0  0  0  0  0  0  0  0  0  0  0  0
   47.2670   32.4140   49.3950 H   0  0  0  0  0  0  0  0  0  0  0  0
   47.7370   33.6490   47.3590 H   0  0  0  0  0  0  0  0  0  0  0  0
   45.0180   29.6270   47.0630 H   0  0  0  0  0  0  0  0  0  0  0  0
   46.3570   31.2340   38.7670 C   0  0  0  0  0  0  0  0  0  0  0  0
   45.6380   30.4190   38.6360 H   0  0  0  0  0  0  0  0  0  0  0  0
   46.3740   31.8630   37.8530 H   0  0  0  0  0  0  0  0  0  0  0  0
   47.3630   30.7560   38.8440 H   0  0  0  0  0  0  0  0  0  0  0  0
   48.4650   32.7210   39.6330 C   0  0  0  0  0  0  0  0  0  0  0  0
   49.4850   32.1000   40.0680 O   0  0  0  0  0  0  0  0  0  0  0  0
   48.8430   33.2690   38.4330 O   0  0  0  0  0  0  0  0  0  0  0  0
   48.3000   34.3290   37.7750 C   0  0  0  0  0  0  0  0  0  0  0  0
   48.7310   35.3200   37.9740 H   0  0  0  0  0  0  0  0  0  0  0  0
   47.3490   34.1030   36.9900 O   0  0  0  0  0  0  0  0  0  0  0  0
  1  2  2  0  0  0  0
  1  9  1  0  0  0  0
  2  3  1  0  0  0  0
  3  7  1  0  0  0  0
  3  4  1  0  0  0  0
  4  5  2  0  0  0  0
  4  6  1  0  0  0  0
  6 10  1  1  0  0  0
  6 14  1  0  0  0  0
  7 11  1  6  0  0  0
  7  8  1  0  0  0  0
  7  6  1  0  0  0  0
  9 13  1  0  0  0  0
  9  8  1  0  0  0  0
 12  9  1  0  0  0  0
 14 16  1  0  0  0  0
 14 15  2  0  0  0  0
 16 20  1  0  0  0  0
 17 16  1  0  0  0  0
 18 24  1  0  0  0  0
 19 25  1  0  0  0  0
 19 18  2  0  0  0  0
 20 19  1  0  0  0  0
 21 20  2  0  0  0  0
 21 22  1  0  0  0  0
 22 23  2  0  0  0  0
 23 18  1  0  0  0  0
 26 22  1  0  0  0  0
 27 30  1  0  0  0  0
 27  1  1  0  0  0  0
 28 27  1  0  0  0  0
 29 27  1  0  0  0  0
 31 32  2  0  0  0  0
 31  2  1  0  0  0  0
 33 31  1  0  0  0  0
 34 35  1  0  0  0  0
 34 33  1  0  0  0  0
 36 34  2  0  0  0  0
M  END
>  <minimizedAffinity>
-4.70578098

>  <minimizedRMSD>
4.08537483

$$$$
