
 OpenBabel03252509323D

 21 21  0  0  0  0  0  0  0  0999 V2000
   37.2670   28.3430   43.0220 C   0  0  0  0  0  0  0  0  0  0  0  0
   36.6650   28.3720   43.9370 H   0  0  0  0  0  0  0  0  0  0  0  0
   38.0230   29.1590   43.1240 H   0  0  0  0  0  0  0  0  0  0  0  0
   38.2690   24.8200   42.3290 C   0  0  0  0  0  0  0  0  0  0  0  0
   37.5170   25.9980   42.3100 C   0  0  0  0  0  0  0  0  0  0  0  0
   38.0120   27.0800   43.0040 C   0  0  0  0  0  0  0  0  0  0  0  0
   39.2130   26.9620   43.6790 N   0  0  0  0  0  0  0  0  0  0  0  0
   39.9000   25.7970   43.6620 C   0  0  0  0  0  0  0  0  0  0  0  0
   39.4330   24.7300   42.9910 N   0  0  0  0  0  0  0  0  0  0  0  0
   37.8240   24.0030   41.7620 H   0  0  0  0  0  0  0  0  0  0  0  0
   36.5700   26.1010   41.7820 H   0  0  0  0  0  0  0  0  0  0  0  0
   40.8340   25.7320   44.1970 H   0  0  0  0  0  0  0  0  0  0  0  0
   36.4890   28.4730   41.8700 O   0  0  0  0  0  0  0  0  0  0  0  0
   38.1740   30.4620   41.7570 O   0  0  0  0  0  0  0  0  0  0  0  0
   36.8800   29.9650   41.1800 P   0  0  2  0  0  0  0  0  0  0  0  0
   35.5880   31.0020   41.4490 O   0  0  0  0  0  0  0  0  0  0  0  0
   35.7450   31.5550   42.2550 H   0  0  0  0  0  0  0  0  0  0  0  0
   37.0930   29.7140   39.5160 O   0  0  0  0  0  0  0  0  0  0  0  0
   36.9820   30.8010   38.6570 C   0  0  0  0  0  0  0  0  0  0  0  0
   36.9500   30.5340   37.6020 H   0  0  0  0  0  0  0  0  0  0  0  0
   36.9100   32.0210   38.8690 O   0  0  0  0  0  0  0  0  0  0  0  0
  1  3  1  0  0  0  0
  1  2  1  0  0  0  0
  4  9  1  0  0  0  0
  5  4  2  0  0  0  0
  5  6  1  0  0  0  0
  6  1  1  0  0  0  0
  6  7  2  0  0  0  0
  8  7  1  0  0  0  0
  8 12  1  0  0  0  0
  9  8  2  0  0  0  0
 10  4  1  0  0  0  0
 11  5  1  0  0  0  0
 13  1  1  0  0  0  0
 15 16  1  0  0  0  0
 15 14  2  1  0  0  0
 15 13  1  0  0  0  0
 16 17  1  0  0  0  0
 18 15  1  0  0  0  0
 19 21  2  0  0  0  0
 19 18  1  0  0  0  0
 20 19  1  0  0  0  0
M  END
>  <minimizedAffinity>
-4.07736349

$$$$

 OpenBabel03252509323D

 21 21  0  0  0  0  0  0  0  0999 V2000
   36.8780   28.0730   42.3340 C   0  0  0  0  0  0  0  0  0  0  0  0
   36.4480   27.8740   41.3450 H   0  0  0  0  0  0  0  0  0  0  0  0
   36.0410   27.9480   43.0640 H   0  0  0  0  0  0  0  0  0  0  0  0
   38.6310   24.7850   42.4400 C   0  0  0  0  0  0  0  0  0  0  0  0
   37.6690   25.7490   42.1270 C   0  0  0  0  0  0  0  0  0  0  0  0
   37.8530   27.0180   42.6290 C   0  0  0  0  0  0  0  0  0  0  0  0
   38.9640   27.2860   43.4080 N   0  0  0  0  0  0  0  0  0  0  0  0
   39.8640   26.3130   43.6800 C   0  0  0  0  0  0  0  0  0  0  0  0
   39.7010   25.0680   43.2000 N   0  0  0  0  0  0  0  0  0  0  0  0
   38.4270   23.8030   42.0140 H   0  0  0  0  0  0  0  0  0  0  0  0
   36.7920   25.5490   41.5140 H   0  0  0  0  0  0  0  0  0  0  0  0
   40.7210   26.5490   44.2910 H   0  0  0  0  0  0  0  0  0  0  0  0
   37.4750   29.3320   42.4100 O   0  0  0  0  0  0  0  0  0  0  0  0
   38.0970   31.0510   40.5490 O   0  0  0  0  0  0  0  0  0  0  0  0
   36.9670   30.1990   41.0510 P   0  0  2  0  0  0  0  0  0  0  0  0
   35.6110   31.0840   41.4920 O   0  0  0  0  0  0  0  0  0  0  0  0
   35.8610   32.0080   41.7440 H   0  0  0  0  0  0  0  0  0  0  0  0
   36.5680   29.0710   39.8500 O   0  0  0  0  0  0  0  0  0  0  0  0
   35.3210   29.1580   39.2410 C   0  0  0  0  0  0  0  0  0  0  0  0
   35.3590   29.2460   38.1570 H   0  0  0  0  0  0  0  0  0  0  0  0
   34.1700   29.1520   39.7050 O   0  0  0  0  0  0  0  0  0  0  0  0
  1 13  1  0  0  0  0
  1  6  1  0  0  0  0
  1  3  1  0  0  0  0
  2  1  1  0  0  0  0
  4  9  1  0  0  0  0
  5  4  2  0  0  0  0
  5  6  1  0  0  0  0
  6  7  2  0  0  0  0
  7  8  1  0  0  0  0
  8 12  1  0  0  0  0
  9  8  2  0  0  0  0
 10  4  1  0  0  0  0
 11  5  1  0  0  0  0
 15 14  2  6  0  0  0
 15 16  1  0  0  0  0
 15 13  1  0  0  0  0
 16 17  1  0  0  0  0
 18 15  1  0  0  0  0
 19 21  2  0  0  0  0
 19 18  1  0  0  0  0
 20 19  1  0  0  0  0
M  END
>  <minimizedAffinity>
-3.92085338

$$$$

 OpenBabel03252509323D

 21 21  0  0  0  0  0  0  0  0999 V2000
   35.9550   29.7660   40.8000 C   0  0  0  0  0  0  0  0  0  0  0  0
   36.2170   29.6040   39.7480 H   0  0  0  0  0  0  0  0  0  0  0  0
   34.8690   29.5200   40.8890 H   0  0  0  0  0  0  0  0  0  0  0  0
   37.3990   26.5610   42.0380 C   0  0  0  0  0  0  0  0  0  0  0  0
   36.6950   27.4560   41.2290 C   0  0  0  0  0  0  0  0  0  0  0  0
   36.6780   28.7800   41.6090 C   0  0  0  0  0  0  0  0  0  0  0  0
   37.3490   29.1660   42.7550 N   0  0  0  0  0  0  0  0  0  0  0  0
   38.0150   28.2560   43.5010 C   0  0  0  0  0  0  0  0  0  0  0  0
   38.0430   26.9590   43.1460 N   0  0  0  0  0  0  0  0  0  0  0  0
   37.3740   25.5310   41.6830 H   0  0  0  0  0  0  0  0  0  0  0  0
   36.1640   27.1630   40.3240 H   0  0  0  0  0  0  0  0  0  0  0  0
   38.5300   28.5830   44.3900 H   0  0  0  0  0  0  0  0  0  0  0  0
   36.2480   31.0630   41.2260 O   0  0  0  0  0  0  0  0  0  0  0  0
   38.6340   31.4370   40.2380 O   0  0  0  0  0  0  0  0  0  0  0  0
   37.1880   31.7770   40.0160 P   0  0  2  0  0  0  0  0  0  0  0  0
   36.8800   33.4260   40.0420 O   0  0  0  0  0  0  0  0  0  0  0  0
   37.5620   33.9020   40.5790 H   0  0  0  0  0  0  0  0  0  0  0  0
   36.6990   31.1110   38.5350 O   0  0  0  0  0  0  0  0  0  0  0  0
   37.6720   30.7660   37.6040 C   0  0  0  0  0  0  0  0  0  0  0  0
   38.3030   31.5950   37.2890 H   0  0  0  0  0  0  0  0  0  0  0  0
   37.9570   29.6850   37.0650 O   0  0  0  0  0  0  0  0  0  0  0  0
  1  3  1  0  0  0  0
  1 13  1  0  0  0  0
  1  6  1  0  0  0  0
  2  1  1  0  0  0  0
  4  9  1  0  0  0  0
  5  6  1  0  0  0  0
  5  4  2  0  0  0  0
  6  7  2  0  0  0  0
  7  8  1  0  0  0  0
  8 12  1  0  0  0  0
  9  8  2  0  0  0  0
 10  4  1  0  0  0  0
 11  5  1  0  0  0  0
 15 16  1  0  0  0  0
 15 14  2  1  0  0  0
 15 13  1  0  0  0  0
 16 17  1  0  0  0  0
 18 15  1  0  0  0  0
 19 18  1  0  0  0  0
 20 19  1  0  0  0  0
 21 19  2  0  0  0  0
M  END
>  <minimizedAffinity>
-3.90656972

$$$$

 OpenBabel03252509323D

 21 21  0  0  0  0  0  0  0  0999 V2000
   38.0920   30.2650   39.5270 C   0  0  0  0  0  0  0  0  0  0  0  0
   38.7170   29.6620   38.8590 H   0  0  0  0  0  0  0  0  0  0  0  0
   38.1780   29.7950   40.5380 H   0  0  0  0  0  0  0  0  0  0  0  0
   40.3810   33.1750   39.0950 C   0  0  0  0  0  0  0  0  0  0  0  0
   39.8570   31.8870   38.9590 C   0  0  0  0  0  0  0  0  0  0  0  0
   38.6910   31.6000   39.6320 C   0  0  0  0  0  0  0  0  0  0  0  0
   38.0920   32.5800   40.4030 N   0  0  0  0  0  0  0  0  0  0  0  0
   38.6450   33.8110   40.4990 C   0  0  0  0  0  0  0  0  0  0  0  0
   39.7830   34.1100   39.8500 N   0  0  0  0  0  0  0  0  0  0  0  0
   41.3040   33.3380   38.5390 H   0  0  0  0  0  0  0  0  0  0  0  0
   40.3190   31.1080   38.3540 H   0  0  0  0  0  0  0  0  0  0  0  0
   38.1580   34.5570   41.1080 H   0  0  0  0  0  0  0  0  0  0  0  0
   36.7710   30.3510   39.0860 O   0  0  0  0  0  0  0  0  0  0  0  0
   34.4940   29.2570   39.7390 O   0  0  0  0  0  0  0  0  0  0  0  0
   35.8000   29.7210   40.3170 P   0  0  2  0  0  0  0  0  0  0  0  0
   35.6250   30.9130   41.4860 O   0  0  0  0  0  0  0  0  0  0  0  0
   34.7840   31.4170   41.3500 H   0  0  0  0  0  0  0  0  0  0  0  0
   36.6100   28.3780   40.9650 O   0  0  0  0  0  0  0  0  0  0  0  0
   36.8190   28.3240   42.3380 C   0  0  0  0  0  0  0  0  0  0  0  0
   36.3940   27.4460   42.8190 H   0  0  0  0  0  0  0  0  0  0  0  0
   37.4040   29.0910   43.1180 O   0  0  0  0  0  0  0  0  0  0  0  0
  1  6  1  0  0  0  0
  1  3  1  0  0  0  0
  2  1  1  0  0  0  0
  4  9  1  0  0  0  0
  5  4  2  0  0  0  0
  5  6  1  0  0  0  0
  6  7  2  0  0  0  0
  7  8  1  0  0  0  0
  8 12  1  0  0  0  0
  9  8  2  0  0  0  0
 10  4  1  0  0  0  0
 11  5  1  0  0  0  0
 13  1  1  0  0  0  0
 13 15  1  0  0  0  0
 15 14  2  6  0  0  0
 15 18  1  0  0  0  0
 15 16  1  0  0  0  0
 17 16  1  0  0  0  0
 18 19  1  0  0  0  0
 19 20  1  0  0  0  0
 19 21  2  0  0  0  0
M  END
>  <minimizedAffinity>
-3.78559184

$$$$

 OpenBabel03252509323D

 21 21  0  0  0  0  0  0  0  0999 V2000
   37.0750   31.0620   39.3380 C   0  0  0  0  0  0  0  0  0  0  0  0
   36.1620   31.4270   39.8230 H   0  0  0  0  0  0  0  0  0  0  0  0
   36.8420   31.0030   38.2470 H   0  0  0  0  0  0  0  0  0  0  0  0
   38.8870   34.1600   40.3450 C   0  0  0  0  0  0  0  0  0  0  0  0
   37.8610   33.2180   40.2340 C   0  0  0  0  0  0  0  0  0  0  0  0
   38.1130   32.0860   39.4910 C   0  0  0  0  0  0  0  0  0  0  0  0
   39.3520   31.9270   38.8960 N   0  0  0  0  0  0  0  0  0  0  0  0
   40.3090   32.8720   39.0380 C   0  0  0  0  0  0  0  0  0  0  0  0
   40.0810   33.9830   39.7580 N   0  0  0  0  0  0  0  0  0  0  0  0
   38.6240   35.0310   40.9450 H   0  0  0  0  0  0  0  0  0  0  0  0
   36.8830   33.3340   40.6990 H   0  0  0  0  0  0  0  0  0  0  0  0
   41.2660   32.7230   38.5630 H   0  0  0  0  0  0  0  0  0  0  0  0
   37.5050   29.8430   39.8630 O   0  0  0  0  0  0  0  0  0  0  0  0
   36.0640   28.2460   41.3400 O   0  0  0  0  0  0  0  0  0  0  0  0
   36.6780   29.6160   41.3200 P   0  0  2  0  0  0  0  0  0  0  0  0
   35.5530   30.8530   41.4620 O   0  0  0  0  0  0  0  0  0  0  0  0
   34.6650   30.5580   41.1400 H   0  0  0  0  0  0  0  0  0  0  0  0
   37.8200   29.7140   42.5700 O   0  0  0  0  0  0  0  0  0  0  0  0
   39.1480   29.9630   42.2440 C   0  0  0  0  0  0  0  0  0  0  0  0
   39.6600   29.1200   41.7850 H   0  0  0  0  0  0  0  0  0  0  0  0
   39.8590   30.9710   42.3790 O   0  0  0  0  0  0  0  0  0  0  0  0
  1  6  1  0  0  0  0
  1  2  1  0  0  0  0
  1 13  1  0  0  0  0
  3  1  1  0  0  0  0
  4 10  1  0  0  0  0
  5  4  1  0  0  0  0
  5 11  1  0  0  0  0
  6  5  2  0  0  0  0
  7  8  2  0  0  0  0
  7  6  1  0  0  0  0
  8  9  1  0  0  0  0
  9  4  2  0  0  0  0
 12  8  1  0  0  0  0
 13 15  1  0  0  0  0
 15 14  2  1  0  0  0
 15 16  1  0  0  0  0
 15 18  1  0  0  0  0
 17 16  1  0  0  0  0
 19 21  2  0  0  0  0
 19 18  1  0  0  0  0
 20 19  1  0  0  0  0
M  END
>  <minimizedAffinity>
-3.77056885

$$$$

 OpenBabel03252509323D

 21 21  0  0  0  0  0  0  0  0999 V2000
   36.9540   30.4850   41.4620 C   0  0  0  0  0  0  0  0  0  0  0  0
   35.8600   30.4870   41.4120 H   0  0  0  0  0  0  0  0  0  0  0  0
   37.2310   31.2850   42.1920 H   0  0  0  0  0  0  0  0  0  0  0  0
   38.9250   27.9010   43.2870 C   0  0  0  0  0  0  0  0  0  0  0  0
   38.5670   29.1400   42.7500 C   0  0  0  0  0  0  0  0  0  0  0  0
   37.3840   29.2120   42.0480 C   0  0  0  0  0  0  0  0  0  0  0  0
   36.6090   28.0750   41.9050 N   0  0  0  0  0  0  0  0  0  0  0  0
   37.0060   26.9010   42.4470 C   0  0  0  0  0  0  0  0  0  0  0  0
   38.1570   26.8110   43.1350 N   0  0  0  0  0  0  0  0  0  0  0  0
   39.8700   27.9110   43.8290 H   0  0  0  0  0  0  0  0  0  0  0  0
   39.1690   30.0420   42.8570 H   0  0  0  0  0  0  0  0  0  0  0  0
   36.3830   26.0290   42.3200 H   0  0  0  0  0  0  0  0  0  0  0  0
   37.5430   30.6750   40.2100 O   0  0  0  0  0  0  0  0  0  0  0  0
   39.1040   32.3880   41.4090 O   0  0  0  0  0  0  0  0  0  0  0  0
   38.2120   32.2270   40.2120 P   0  0  2  0  0  0  0  0  0  0  0  0
   36.9440   33.3250   40.1740 O   0  0  0  0  0  0  0  0  0  0  0  0
   36.7190   33.6340   41.0870 H   0  0  0  0  0  0  0  0  0  0  0  0
   39.1570   32.3730   38.8110 O   0  0  0  0  0  0  0  0  0  0  0  0
   40.4100   32.9670   38.9110 C   0  0  0  0  0  0  0  0  0  0  0  0
   41.2420   32.2830   38.7530 H   0  0  0  0  0  0  0  0  0  0  0  0
   40.7570   34.1350   39.1450 O   0  0  0  0  0  0  0  0  0  0  0  0
  1  6  1  0  0  0  0
  1  3  1  0  0  0  0
  2  1  1  0  0  0  0
  4 10  1  0  0  0  0
  5 11  1  0  0  0  0
  5  4  2  0  0  0  0
  6  5  1  0  0  0  0
  7  6  2  0  0  0  0
  7  8  1  0  0  0  0
  8  9  2  0  0  0  0
  9  4  1  0  0  0  0
 12  8  1  0  0  0  0
 13 15  1  0  0  0  0
 13  1  1  0  0  0  0
 15 14  2  1  0  0  0
 16 15  1  0  0  0  0
 16 17  1  0  0  0  0
 18 19  1  0  0  0  0
 18 15  1  0  0  0  0
 19 21  2  0  0  0  0
 20 19  1  0  0  0  0
M  END
>  <minimizedAffinity>
-3.74409318

$$$$

 OpenBabel03252509323D

 21 21  0  0  0  0  0  0  0  0999 V2000
   37.2870   30.6170   41.3770 C   0  0  0  0  0  0  0  0  0  0  0  0
   36.7220   30.5840   40.4380 H   0  0  0  0  0  0  0  0  0  0  0  0
   36.6520   31.1880   42.0980 H   0  0  0  0  0  0  0  0  0  0  0  0
   37.9980   27.7040   43.5910 C   0  0  0  0  0  0  0  0  0  0  0  0
   37.9240   29.0270   43.1470 C   0  0  0  0  0  0  0  0  0  0  0  0
   37.3910   29.2500   41.8970 C   0  0  0  0  0  0  0  0  0  0  0  0
   36.9560   28.1760   41.1420 N   0  0  0  0  0  0  0  0  0  0  0  0
   37.0520   26.9150   41.6230 C   0  0  0  0  0  0  0  0  0  0  0  0
   37.5690   26.6770   42.8400 N   0  0  0  0  0  0  0  0  0  0  0  0
   38.4280   27.5950   44.5860 H   0  0  0  0  0  0  0  0  0  0  0  0
   38.2630   29.8800   43.7330 H   0  0  0  0  0  0  0  0  0  0  0  0
   36.7060   26.0950   41.0130 H   0  0  0  0  0  0  0  0  0  0  0  0
   38.5540   31.1800   41.2150 O   0  0  0  0  0  0  0  0  0  0  0  0
   39.1090   33.7190   40.9760 O   0  0  0  0  0  0  0  0  0  0  0  0
   38.3500   32.6010   40.3220 P   0  0  2  0  0  0  0  0  0  0  0  0
   36.7020   32.8930   40.2050 O   0  0  0  0  0  0  0  0  0  0  0  0
   36.4070   33.5260   40.9070 H   0  0  0  0  0  0  0  0  0  0  0  0
   39.0080   32.3310   38.7820 O   0  0  0  0  0  0  0  0  0  0  0  0
   38.2560   31.6280   37.8480 C   0  0  0  0  0  0  0  0  0  0  0  0
   38.7740   31.4370   36.9100 H   0  0  0  0  0  0  0  0  0  0  0  0
   37.1010   31.1750   37.8860 O   0  0  0  0  0  0  0  0  0  0  0  0
  1  6  1  0  0  0  0
  1  3  1  0  0  0  0
  2  1  1  0  0  0  0
  4 10  1  0  0  0  0
  5  4  1  0  0  0  0
  5 11  1  0  0  0  0
  6  5  2  0  0  0  0
  7  8  2  0  0  0  0
  7  6  1  0  0  0  0
  8  9  1  0  0  0  0
  9  4  2  0  0  0  0
 12  8  1  0  0  0  0
 13  1  1  0  0  0  0
 15 14  2  1  0  0  0
 15 13  1  0  0  0  0
 16 15  1  0  0  0  0
 16 17  1  0  0  0  0
 18 15  1  0  0  0  0
 19 21  2  0  0  0  0
 19 18  1  0  0  0  0
 20 19  1  0  0  0  0
M  END
>  <minimizedAffinity>
-3.71056199

$$$$

 OpenBabel03252509323D

 21 21  0  0  0  0  0  0  0  0999 V2000
   37.4740   30.3900   38.7800 C   0  0  0  0  0  0  0  0  0  0  0  0
   37.9610   30.3440   37.8000 H   0  0  0  0  0  0  0  0  0  0  0  0
   37.8720   29.5230   39.3630 H   0  0  0  0  0  0  0  0  0  0  0  0
   37.8440   33.9420   39.8460 C   0  0  0  0  0  0  0  0  0  0  0  0
   37.3650   32.8210   39.1650 C   0  0  0  0  0  0  0  0  0  0  0  0
   37.9350   31.6030   39.4630 C   0  0  0  0  0  0  0  0  0  0  0  0
   38.9400   31.5380   40.4100 N   0  0  0  0  0  0  0  0  0  0  0  0
   39.3650   32.6570   41.0400 C   0  0  0  0  0  0  0  0  0  0  0  0
   38.8220   33.8540   40.7620 N   0  0  0  0  0  0  0  0  0  0  0  0
   37.3530   34.8740   39.5650 H   0  0  0  0  0  0  0  0  0  0  0  0
   36.5730   32.8610   38.4180 H   0  0  0  0  0  0  0  0  0  0  0  0
   40.1510   32.5780   41.7740 H   0  0  0  0  0  0  0  0  0  0  0  0
   36.0810   30.3780   38.6840 O   0  0  0  0  0  0  0  0  0  0  0  0
   34.0900   29.0760   39.7550 O   0  0  0  0  0  0  0  0  0  0  0  0
   35.5050   29.5080   40.0130 P   0  0  2  0  0  0  0  0  0  0  0  0
   35.6660   30.4850   41.3670 O   0  0  0  0  0  0  0  0  0  0  0  0
   34.8200   30.9600   41.5610 H   0  0  0  0  0  0  0  0  0  0  0  0
   36.4710   28.1220   40.1700 O   0  0  0  0  0  0  0  0  0  0  0  0
   36.8860   27.7380   41.4400 C   0  0  0  0  0  0  0  0  0  0  0  0
   37.8450   27.2250   41.4590 H   0  0  0  0  0  0  0  0  0  0  0  0
   36.3650   27.8730   42.5580 O   0  0  0  0  0  0  0  0  0  0  0  0
  1  3  1  0  0  0  0
  1  6  1  0  0  0  0
  2  1  1  0  0  0  0
  4  9  1  0  0  0  0
  5  6  1  0  0  0  0
  5  4  2  0  0  0  0
  6  7  2  0  0  0  0
  7  8  1  0  0  0  0
  8 12  1  0  0  0  0
  9  8  2  0  0  0  0
 10  4  1  0  0  0  0
 11  5  1  0  0  0  0
 13  1  1  0  0  0  0
 13 15  1  0  0  0  0
 15 14  2  6  0  0  0
 15 18  1  0  0  0  0
 15 16  1  0  0  0  0
 16 17  1  0  0  0  0
 18 19  1  0  0  0  0
 19 20  1  0  0  0  0
 19 21  2  0  0  0  0
M  END
>  <minimizedAffinity>
-3.68770289

$$$$

 OpenBabel03252509323D

 21 21  0  0  0  0  0  0  0  0999 V2000
   36.3150   30.8720   40.9550 C   0  0  0  0  0  0  0  0  0  0  0  0
   35.2750   30.9660   41.2880 H   0  0  0  0  0  0  0  0  0  0  0  0
   36.8440   31.7770   41.3400 H   0  0  0  0  0  0  0  0  0  0  0  0
   36.8990   27.4240   42.2460 C   0  0  0  0  0  0  0  0  0  0  0  0
   36.2870   28.4890   41.5800 C   0  0  0  0  0  0  0  0  0  0  0  0
   36.9090   29.7160   41.6340 C   0  0  0  0  0  0  0  0  0  0  0  0
   38.0970   29.8450   42.3320 N   0  0  0  0  0  0  0  0  0  0  0  0
   38.6450   28.7790   42.9580 C   0  0  0  0  0  0  0  0  0  0  0  0
   38.0520   27.5730   42.9170 N   0  0  0  0  0  0  0  0  0  0  0  0
   36.3570   26.4820   42.1650 H   0  0  0  0  0  0  0  0  0  0  0  0
   35.3520   28.3980   41.0280 H   0  0  0  0  0  0  0  0  0  0  0  0
   39.5720   28.9060   43.4950 H   0  0  0  0  0  0  0  0  0  0  0  0
   36.4190   30.7370   39.5700 O   0  0  0  0  0  0  0  0  0  0  0  0
   37.5500   31.9700   37.5670 O   0  0  0  0  0  0  0  0  0  0  0  0
   37.6140   31.8180   39.0600 P   0  0  2  0  0  0  0  0  0  0  0  0
   39.0900   31.2380   39.6080 O   0  0  0  0  0  0  0  0  0  0  0  0
   39.5440   30.7110   38.9030 H   0  0  0  0  0  0  0  0  0  0  0  0
   37.2740   33.3210   39.7690 O   0  0  0  0  0  0  0  0  0  0  0  0
   38.3340   34.1380   40.1420 C   0  0  0  0  0  0  0  0  0  0  0  0
   38.0660   34.9230   40.8470 H   0  0  0  0  0  0  0  0  0  0  0  0
   39.5330   34.1400   39.8200 O   0  0  0  0  0  0  0  0  0  0  0  0
  1  2  1  0  0  0  0
  1  3  1  0  0  0  0
  1  6  1  0  0  0  0
  4  9  1  0  0  0  0
  5  6  1  0  0  0  0
  5  4  2  0  0  0  0
  6  7  2  0  0  0  0
  7  8  1  0  0  0  0
  8 12  1  0  0  0  0
  9  8  2  0  0  0  0
 10  4  1  0  0  0  0
 11  5  1  0  0  0  0
 13  1  1  0  0  0  0
 15 14  2  6  0  0  0
 15 13  1  0  0  0  0
 15 16  1  0  0  0  0
 15 18  1  0  0  0  0
 17 16  1  0  0  0  0
 18 19  1  0  0  0  0
 19 20  1  0  0  0  0
 21 19  2  0  0  0  0
M  END
>  <minimizedAffinity>
-3.6570971

$$$$
