
 OpenBabel03252502553D

 31 32  0  0  0  0  0  0  0  0999 V2000
   45.6150   29.9150   44.8010 Br  0  0  0  0  0  0  0  0  0  0  0  0
   45.6610   30.5840   46.6100 C   0  0  0  0  0  0  0  0  0  0  0  0
   46.3350   31.7600   46.7900 C   0  0  0  0  0  0  0  0  0  0  0  0
   46.3550   32.2250   48.1110 C   0  0  0  0  0  0  0  0  0  0  0  0
   45.7510   31.5660   49.1520 C   0  0  0  0  0  0  0  0  0  0  0  0
   45.0910   30.3910   48.8990 C   0  0  0  0  0  0  0  0  0  0  0  0
   45.0420   29.8880   47.6130 C   0  0  0  0  0  0  0  0  0  0  0  0
   46.8690   33.1530   48.3450 H   0  0  0  0  0  0  0  0  0  0  0  0
   45.7880   31.9580   50.1620 H   0  0  0  0  0  0  0  0  0  0  0  0
   44.6190   29.8800   49.7270 H   0  0  0  0  0  0  0  0  0  0  0  0
   47.0210   32.5620   45.7770 C   0  0  0  0  0  0  0  0  0  0  0  0
   48.0060   32.9330   46.1700 H   0  0  0  0  0  0  0  0  0  0  0  0
   47.2920   31.8790   44.9410 H   0  0  0  0  0  0  0  0  0  0  0  0
   44.5350   35.3190   45.4040 C   0  0  0  0  0  0  0  0  0  0  0  0
   44.7510   35.7200   44.0900 C   0  0  0  0  0  0  0  0  0  0  0  0
   45.7310   35.0600   43.3430 C   0  0  0  0  0  0  0  0  0  0  0  0
   46.4180   34.0640   43.9360 N   0  0  0  0  0  0  0  0  0  0  0  0
   46.2070   33.6690   45.2270 C   0  0  0  0  0  0  0  0  0  0  0  0
   45.2480   34.3310   45.9230 N   0  0  0  0  0  0  0  0  0  0  0  0
   43.7640   35.8580   45.9510 H   0  0  0  0  0  0  0  0  0  0  0  0
   44.2170   36.5130   43.5920 H   0  0  0  0  0  0  0  0  0  0  0  0
   45.9760   35.2990   42.3080 H   0  0  0  0  0  0  0  0  0  0  0  0
   44.3700   28.6910   47.3590 O   0  0  0  0  0  0  0  0  0  0  0  0
   44.2760   26.1100   46.9830 O   0  0  0  0  0  0  0  0  0  0  0  0
   44.9280   27.1770   47.8580 P   0  0  2  0  0  0  0  0  0  0  0  0
   44.5430   26.9540   49.4580 O   0  0  0  0  0  0  0  0  0  0  0  0
   45.1460   27.5090   50.0030 H   0  0  0  0  0  0  0  0  0  0  0  0
   46.6040   27.0200   47.6220 O   0  0  0  0  0  0  0  0  0  0  0  0
   47.1230   26.1490   46.6870 C   0  0  0  0  0  0  0  0  0  0  0  0
   47.3490   25.0860   46.7890 H   0  0  0  0  0  0  0  0  0  0  0  0
   47.3190   26.7780   45.6150 O   0  0  0  0  0  0  0  0  0  0  0  0
  1  2  1  0  0  0  0
  2  3  2  0  0  0  0
  2  7  1  0  0  0  0
  3  4  1  0  0  0  0
  4  8  1  0  0  0  0
  4  5  2  0  0  0  0
  5  9  1  0  0  0  0
  6  5  1  0  0  0  0
  6 10  1  0  0  0  0
  7  6  2  0  0  0  0
 11 12  1  0  0  0  0
 11  3  1  0  0  0  0
 13 11  1  0  0  0  0
 14 19  1  0  0  0  0
 14 20  1  0  0  0  0
 15 14  2  0  0  0  0
 16 17  2  0  0  0  0
 16 15  1  0  0  0  0
 17 18  1  0  0  0  0
 18 11  1  0  0  0  0
 18 19  2  0  0  0  0
 21 15  1  0  0  0  0
 22 16  1  0  0  0  0
 23  7  1  0  0  0  0
 23 25  1  0  0  0  0
 25 24  2  6  0  0  0
 25 26  1  0  0  0  0
 26 27  1  0  0  0  0
 28 25  1  0  0  0  0
 29 30  1  0  0  0  0
 29 28  1  0  0  0  0
 31 29  2  0  0  0  0
M  END
>  <minimizedAffinity>
-4.70047426

>  <minimizedRMSD>
0.322011799

$$$$
