
 OpenBabel03252503373D

 36 38  0  0  1  0  0  0  0  0999 V2000
   37.3790   31.0360   38.6310 C   0  0  0  0  0  0  0  0  0  0  0  0
   38.2510   31.2140   39.6280 C   0  0  0  0  0  0  0  0  0  0  0  0
   38.0660   30.5350   40.8590 N   0  0  0  0  0  0  0  0  0  0  0  0
   38.6150   29.8830   41.9850 C   0  0  0  0  0  0  0  0  0  0  0  0
   39.7880   29.6820   42.4340 O   0  0  0  0  0  0  0  0  0  0  0  0
   37.3380   29.4630   42.5410 C   0  0  1  0  0  0  0  0  0  0  0  0
   36.7450   30.2830   41.4180 C   0  0  2  0  0  0  0  0  0  0  0  0
   35.8150   29.3790   40.1790 S   0  0  0  0  0  0  0  0  0  0  0  0
   36.1690   30.1690   38.6140 C   0  0  0  0  0  0  0  0  0  0  0  0
   37.0680   29.9530   43.5090 H   0  0  0  0  0  0  0  0  0  0  0  0
   36.2340   31.2100   41.7550 H   0  0  0  0  0  0  0  0  0  0  0  0
   35.2770   30.7570   38.2820 H   0  0  0  0  0  0  0  0  0  0  0  0
   36.3090   29.3890   37.8310 H   0  0  0  0  0  0  0  0  0  0  0  0
   37.1310   28.0260   42.4870 C   0  0  0  0  0  0  0  0  0  0  0  0
   36.3790   27.2510   43.1070 O   0  0  0  0  0  0  0  0  0  0  0  0
   37.9670   27.3610   41.5150 N   0  0  0  0  0  0  0  0  0  0  0  0
   38.6840   27.6890   40.8290 H   0  0  0  0  0  0  0  0  0  0  0  0
   36.9270   23.9700   40.4280 C   0  0  0  0  0  0  0  0  0  0  0  0
   36.9470   25.3600   40.5530 C   0  0  0  0  0  0  0  0  0  0  0  0
   37.9150   25.9570   41.3340 C   0  0  0  0  0  0  0  0  0  0  0  0
   38.8160   25.1760   41.9540 N   0  0  0  0  0  0  0  0  0  0  0  0
   38.7860   23.8180   41.8240 C   0  0  0  0  0  0  0  0  0  0  0  0
   37.8440   23.2410   41.0660 N   0  0  0  0  0  0  0  0  0  0  0  0
   36.1250   23.6190   39.7930 H   0  0  0  0  0  0  0  0  0  0  0  0
   36.2450   26.0270   40.0740 H   0  0  0  0  0  0  0  0  0  0  0  0
   39.5330   23.2550   42.3460 H   0  0  0  0  0  0  0  0  0  0  0  0
   37.6800   31.8050   37.4000 C   0  0  0  0  0  0  0  0  0  0  0  0
   37.1860   31.4260   36.5000 H   0  0  0  0  0  0  0  0  0  0  0  0
   37.4640   32.8880   37.5130 H   0  0  0  0  0  0  0  0  0  0  0  0
   38.7780   31.7160   37.2150 H   0  0  0  0  0  0  0  0  0  0  0  0
   39.4000   32.0950   39.4900 C   0  0  0  0  0  0  0  0  0  0  0  0
   39.3460   33.3130   39.8510 O   0  0  0  0  0  0  0  0  0  0  0  0
   40.6700   31.9030   39.0070 O   0  0  0  0  0  0  0  0  0  0  0  0
   41.3230   32.5950   38.0350 C   0  0  0  0  0  0  0  0  0  0  0  0
   41.7920   33.5460   38.3230 H   0  0  0  0  0  0  0  0  0  0  0  0
   41.3450   32.1020   36.8830 O   0  0  0  0  0  0  0  0  0  0  0  0
  1  2  2  0  0  0  0
  2  3  1  0  0  0  0
  3  7  1  0  0  0  0
  3  4  1  0  0  0  0
  4  5  2  0  0  0  0
  4  6  1  0  0  0  0
  6 10  1  1  0  0  0
  7 11  1  1  0  0  0
  7  6  1  0  0  0  0
  8  7  1  0  0  0  0
  9  1  1  0  0  0  0
  9  8  1  0  0  0  0
 12  9  1  0  0  0  0
 13  9  1  0  0  0  0
 14  6  1  0  0  0  0
 14 15  2  0  0  0  0
 16 14  1  0  0  0  0
 17 16  1  0  0  0  0
 18 19  2  0  0  0  0
 18 23  1  0  0  0  0
 19 20  1  0  0  0  0
 20 16  1  0  0  0  0
 20 21  2  0  0  0  0
 22 21  1  0  0  0  0
 22 26  1  0  0  0  0
 23 22  2  0  0  0  0
 24 18  1  0  0  0  0
 25 19  1  0  0  0  0
 27 29  1  0  0  0  0
 27  1  1  0  0  0  0
 28 27  1  0  0  0  0
 30 27  1  0  0  0  0
 31  2  1  0  0  0  0
 31 32  2  0  0  0  0
 33 31  1  0  0  0  0
 34 35  1  0  0  0  0
 34 33  1  0  0  0  0
 36 34  2  0  0  0  0
M  END
>  <minimizedAffinity>
-5.05631065

$$$$

 OpenBabel03252503373D

 36 38  0  0  1  0  0  0  0  0999 V2000
   39.2310   26.1180   42.6470 C   0  0  0  0  0  0  0  0  0  0  0  0
   38.7430   25.9970   41.4090 C   0  0  0  0  0  0  0  0  0  0  0  0
   37.7530   26.9010   40.9470 N   0  0  0  0  0  0  0  0  0  0  0  0
   37.1880   27.6580   39.8970 C   0  0  0  0  0  0  0  0  0  0  0  0
   37.3950   27.7680   38.6470 O   0  0  0  0  0  0  0  0  0  0  0  0
   36.2110   28.3440   40.7270 C   0  0  1  0  0  0  0  0  0  0  0  0
   36.7150   27.4300   41.8210 C   0  0  2  0  0  0  0  0  0  0  0  0
   37.5430   28.2240   43.2000 S   0  0  0  0  0  0  0  0  0  0  0  0
   38.8740   27.1290   43.6790 C   0  0  0  0  0  0  0  0  0  0  0  0
   35.1470   28.0750   40.5130 H   0  0  0  0  0  0  0  0  0  0  0  0
   35.9830   26.6580   42.1400 H   0  0  0  0  0  0  0  0  0  0  0  0
   38.6130   26.6230   44.6420 H   0  0  0  0  0  0  0  0  0  0  0  0
   39.7830   27.7320   43.9070 H   0  0  0  0  0  0  0  0  0  0  0  0
   36.4800   29.7640   40.8790 C   0  0  0  0  0  0  0  0  0  0  0  0
   35.9140   30.6730   41.5140 O   0  0  0  0  0  0  0  0  0  0  0  0
   37.6410   30.2100   40.1460 N   0  0  0  0  0  0  0  0  0  0  0  0
   38.3420   29.7330   39.5350 H   0  0  0  0  0  0  0  0  0  0  0  0
   37.7070   33.8890   39.6700 C   0  0  0  0  0  0  0  0  0  0  0  0
   37.2480   32.5710   39.6520 C   0  0  0  0  0  0  0  0  0  0  0  0
   38.0460   31.5670   40.1610 C   0  0  0  0  0  0  0  0  0  0  0  0
   39.2500   31.8930   40.6630 N   0  0  0  0  0  0  0  0  0  0  0  0
   39.6880   33.1860   40.6730 C   0  0  0  0  0  0  0  0  0  0  0  0
   38.9110   34.1570   40.1780 N   0  0  0  0  0  0  0  0  0  0  0  0
   36.9960   34.5840   39.2440 H   0  0  0  0  0  0  0  0  0  0  0  0
   36.2900   32.2630   39.2610 H   0  0  0  0  0  0  0  0  0  0  0  0
   40.6580   33.3750   41.0870 H   0  0  0  0  0  0  0  0  0  0  0  0
   40.2550   25.1090   43.0100 C   0  0  0  0  0  0  0  0  0  0  0  0
   40.8800   25.3900   43.8640 H   0  0  0  0  0  0  0  0  0  0  0  0
   39.8170   24.1050   43.1850 H   0  0  0  0  0  0  0  0  0  0  0  0
   40.9440   25.0090   42.1370 H   0  0  0  0  0  0  0  0  0  0  0  0
   39.2010   24.9530   40.5060 C   0  0  0  0  0  0  0  0  0  0  0  0
   40.0860   25.1840   39.6230 O   0  0  0  0  0  0  0  0  0  0  0  0
   38.8690   23.6290   40.3660 O   0  0  0  0  0  0  0  0  0  0  0  0
   37.6740   23.0230   40.6090 C   0  0  0  0  0  0  0  0  0  0  0  0
   37.6960   22.0770   41.1690 H   0  0  0  0  0  0  0  0  0  0  0  0
   36.6390   23.5820   40.1800 O   0  0  0  0  0  0  0  0  0  0  0  0
  1 27  1  0  0  0  0
  1  9  1  0  0  0  0
  2  1  2  0  0  0  0
  3  2  1  0  0  0  0
  3  7  1  0  0  0  0
  4  6  1  0  0  0  0
  4  3  1  0  0  0  0
  5  4  2  0  0  0  0
  6 10  1  6  0  0  0
  6 14  1  0  0  0  0
  6  7  1  0  0  0  0
  7 11  1  1  0  0  0
  7  8  1  0  0  0  0
  8  9  1  0  0  0  0
  9 13  1  0  0  0  0
  9 12  1  0  0  0  0
 14 15  2  0  0  0  0
 16 20  1  0  0  0  0
 16 14  1  0  0  0  0
 17 16  1  0  0  0  0
 18 23  1  0  0  0  0
 19 18  2  0  0  0  0
 19 20  1  0  0  0  0
 20 21  2  0  0  0  0
 21 22  1  0  0  0  0
 22 26  1  0  0  0  0
 23 22  2  0  0  0  0
 24 18  1  0  0  0  0
 25 19  1  0  0  0  0
 27 29  1  0  0  0  0
 27 28  1  0  0  0  0
 30 27  1  0  0  0  0
 31  2  1  0  0  0  0
 32 31  2  0  0  0  0
 33 31  1  0  0  0  0
 33 34  1  0  0  0  0
 34 35  1  0  0  0  0
 36 34  2  0  0  0  0
M  END
>  <minimizedAffinity>
-5.01386547

$$$$

 OpenBabel03252503373D

 36 38  0  0  1  0  0  0  0  0999 V2000
   37.6970   32.4750   40.1290 C   0  0  0  0  0  0  0  0  0  0  0  0
   39.0110   32.2910   40.2910 C   0  0  0  0  0  0  0  0  0  0  0  0
   39.4950   31.0690   40.8200 N   0  0  0  0  0  0  0  0  0  0  0  0
   40.4800   30.0570   40.8480 C   0  0  0  0  0  0  0  0  0  0  0  0
   41.6140   29.8830   40.2990 O   0  0  0  0  0  0  0  0  0  0  0  0
   39.7630   29.1860   41.7660 C   0  0  1  0  0  0  0  0  0  0  0  0
   38.7780   30.3300   41.8520 C   0  0  2  0  0  0  0  0  0  0  0  0
   37.1310   30.0080   41.2180 S   0  0  0  0  0  0  0  0  0  0  0  0
   36.5930   31.5240   40.4350 C   0  0  0  0  0  0  0  0  0  0  0  0
   40.2460   29.0690   42.7670 H   0  0  0  0  0  0  0  0  0  0  0  0
   38.7730   30.8510   42.8320 H   0  0  0  0  0  0  0  0  0  0  0  0
   35.8200   32.0210   41.0730 H   0  0  0  0  0  0  0  0  0  0  0  0
   36.0690   31.2790   39.4820 H   0  0  0  0  0  0  0  0  0  0  0  0
   39.2940   27.9580   41.1470 C   0  0  0  0  0  0  0  0  0  0  0  0
   39.1450   27.6060   39.9620 O   0  0  0  0  0  0  0  0  0  0  0  0
   38.9290   26.9380   42.1010 N   0  0  0  0  0  0  0  0  0  0  0  0
   38.9380   26.8830   43.1450 H   0  0  0  0  0  0  0  0  0  0  0  0
   36.6480   24.1400   41.2450 C   0  0  0  0  0  0  0  0  0  0  0  0
   37.0820   25.4060   41.6430 C   0  0  0  0  0  0  0  0  0  0  0  0
   38.4340   25.6790   41.6810 C   0  0  0  0  0  0  0  0  0  0  0  0
   39.2970   24.7110   41.3310 N   0  0  0  0  0  0  0  0  0  0  0  0
   38.8610   23.4760   40.9450 C   0  0  0  0  0  0  0  0  0  0  0  0
   37.5480   23.2150   40.9090 N   0  0  0  0  0  0  0  0  0  0  0  0
   35.5710   24.0450   41.2560 H   0  0  0  0  0  0  0  0  0  0  0  0
   36.4260   26.2130   41.9330 H   0  0  0  0  0  0  0  0  0  0  0  0
   39.6030   22.7510   40.6790 H   0  0  0  0  0  0  0  0  0  0  0  0
   37.3190   33.7960   39.5720 C   0  0  0  0  0  0  0  0  0  0  0  0
   36.3150   33.8310   39.1380 H   0  0  0  0  0  0  0  0  0  0  0  0
   37.4330   34.6160   40.3120 H   0  0  0  0  0  0  0  0  0  0  0  0
   38.0290   34.0180   38.7390 H   0  0  0  0  0  0  0  0  0  0  0  0
   39.9750   33.3210   39.9350 C   0  0  0  0  0  0  0  0  0  0  0  0
   40.3910   34.1610   40.7930 O   0  0  0  0  0  0  0  0  0  0  0  0
   40.6130   33.6360   38.7620 O   0  0  0  0  0  0  0  0  0  0  0  0
   41.1610   32.7960   37.8410 C   0  0  0  0  0  0  0  0  0  0  0  0
   42.2580   32.7360   37.8070 H   0  0  0  0  0  0  0  0  0  0  0  0
   40.3810   32.1540   37.1000 O   0  0  0  0  0  0  0  0  0  0  0  0
  1  2  2  0  0  0  0
  1  9  1  0  0  0  0
  2  3  1  0  0  0  0
  3  4  1  0  0  0  0
  3  7  1  0  0  0  0
  4  6  1  0  0  0  0
  5  4  2  0  0  0  0
  6  7  1  0  0  0  0
  6 10  1  1  0  0  0
  7 11  1  1  0  0  0
  8  7  1  0  0  0  0
  9 12  1  0  0  0  0
  9  8  1  0  0  0  0
 13  9  1  0  0  0  0
 14  6  1  0  0  0  0
 14 16  1  0  0  0  0
 15 14  2  0  0  0  0
 16 17  1  0  0  0  0
 18 24  1  0  0  0  0
 18 19  1  0  0  0  0
 19 20  2  0  0  0  0
 19 25  1  0  0  0  0
 20 16  1  0  0  0  0
 21 20  1  0  0  0  0
 22 21  2  0  0  0  0
 23 22  1  0  0  0  0
 23 18  2  0  0  0  0
 26 22  1  0  0  0  0
 27  1  1  0  0  0  0
 27 29  1  0  0  0  0
 28 27  1  0  0  0  0
 30 27  1  0  0  0  0
 31  2  1  0  0  0  0
 31 32  2  0  0  0  0
 33 31  1  0  0  0  0
 34 33  1  0  0  0  0
 35 34  1  0  0  0  0
 36 34  2  0  0  0  0
M  END
>  <minimizedAffinity>
-4.83456516

$$$$

 OpenBabel03252503373D

 36 38  0  0  1  0  0  0  0  0999 V2000
   37.0210   27.8030   41.6940 C   0  0  0  0  0  0  0  0  0  0  0  0
   37.0480   27.4640   40.4020 C   0  0  0  0  0  0  0  0  0  0  0  0
   36.9160   28.4620   39.4050 N   0  0  0  0  0  0  0  0  0  0  0  0
   37.2600   28.9650   38.1300 C   0  0  0  0  0  0  0  0  0  0  0  0
   37.9460   28.5450   37.1460 O   0  0  0  0  0  0  0  0  0  0  0  0
   36.5410   30.2210   38.2760 C   0  0  1  0  0  0  0  0  0  0  0  0
   36.0530   29.6230   39.5760 C   0  0  2  0  0  0  0  0  0  0  0  0
   36.5800   30.4520   41.0770 S   0  0  0  0  0  0  0  0  0  0  0  0
   36.8710   29.1620   42.2830 C   0  0  0  0  0  0  0  0  0  0  0  0
   35.6610   30.3340   37.5950 H   0  0  0  0  0  0  0  0  0  0  0  0
   34.9730   29.3630   39.5790 H   0  0  0  0  0  0  0  0  0  0  0  0
   36.0490   29.1670   43.0410 H   0  0  0  0  0  0  0  0  0  0  0  0
   37.7960   29.3990   42.8570 H   0  0  0  0  0  0  0  0  0  0  0  0
   37.4140   31.3780   38.3690 C   0  0  0  0  0  0  0  0  0  0  0  0
   37.2000   32.6040   38.4210 O   0  0  0  0  0  0  0  0  0  0  0  0
   38.8160   31.0370   38.4130 N   0  0  0  0  0  0  0  0  0  0  0  0
   39.3450   30.1350   38.4040 H   0  0  0  0  0  0  0  0  0  0  0  0
   41.6460   33.2800   37.5620 C   0  0  0  0  0  0  0  0  0  0  0  0
   40.6600   32.3010   37.4270 C   0  0  0  0  0  0  0  0  0  0  0  0
   39.8170   32.0360   38.4870 C   0  0  0  0  0  0  0  0  0  0  0  0
   39.9720   32.7360   39.6240 N   0  0  0  0  0  0  0  0  0  0  0  0
   40.9410   33.6900   39.7440 C   0  0  0  0  0  0  0  0  0  0  0  0
   41.7580   33.9440   38.7140 N   0  0  0  0  0  0  0  0  0  0  0  0
   42.2440   33.3970   36.6680 H   0  0  0  0  0  0  0  0  0  0  0  0
   40.4990   31.7160   36.5340 H   0  0  0  0  0  0  0  0  0  0  0  0
   41.0100   34.2090   40.6780 H   0  0  0  0  0  0  0  0  0  0  0  0
   37.1640   26.6680   42.6370 C   0  0  0  0  0  0  0  0  0  0  0  0
   37.4690   26.9570   43.6470 H   0  0  0  0  0  0  0  0  0  0  0  0
   36.2470   26.0440   42.6900 H   0  0  0  0  0  0  0  0  0  0  0  0
   37.9750   26.0100   42.2410 H   0  0  0  0  0  0  0  0  0  0  0  0
   37.2110   26.0810   39.9790 C   0  0  0  0  0  0  0  0  0  0  0  0
   36.2180   25.3850   39.5980 O   0  0  0  0  0  0  0  0  0  0  0  0
   38.3050   25.2580   39.8840 O   0  0  0  0  0  0  0  0  0  0  0  0
   38.4130   23.9460   40.2290 C   0  0  0  0  0  0  0  0  0  0  0  0
   38.1840   23.2020   39.4530 H   0  0  0  0  0  0  0  0  0  0  0  0
   38.7640   23.6780   41.4010 O   0  0  0  0  0  0  0  0  0  0  0  0
  1  9  1  0  0  0  0
  1 27  1  0  0  0  0
  2  1  2  0  0  0  0
  3  7  1  0  0  0  0
  3  2  1  0  0  0  0
  4  6  1  0  0  0  0
  4  3  1  0  0  0  0
  5  4  2  0  0  0  0
  6 10  1  6  0  0  0
  6 14  1  0  0  0  0
  6  7  1  0  0  0  0
  7 11  1  6  0  0  0
  7  8  1  0  0  0  0
  8  9  1  0  0  0  0
  9 13  1  0  0  0  0
  9 12  1  0  0  0  0
 14 16  1  0  0  0  0
 14 15  2  0  0  0  0
 16 20  1  0  0  0  0
 17 16  1  0  0  0  0
 18 23  1  0  0  0  0
 19 18  2  0  0  0  0
 19 20  1  0  0  0  0
 20 21  2  0  0  0  0
 21 22  1  0  0  0  0
 22 26  1  0  0  0  0
 23 22  2  0  0  0  0
 24 18  1  0  0  0  0
 25 19  1  0  0  0  0
 27 29  1  0  0  0  0
 27 28  1  0  0  0  0
 30 27  1  0  0  0  0
 31  2  1  0  0  0  0
 32 31  2  0  0  0  0
 33 31  1  0  0  0  0
 33 34  1  0  0  0  0
 34 36  2  0  0  0  0
 35 34  1  0  0  0  0
M  END
>  <minimizedAffinity>
-4.83272028

$$$$

 OpenBabel03252503373D

 36 38  0  0  1  0  0  0  0  0999 V2000
   39.8350   27.3110   43.0910 C   0  0  0  0  0  0  0  0  0  0  0  0
   38.6960   27.7870   42.5790 C   0  0  0  0  0  0  0  0  0  0  0  0
   38.6670   29.0780   41.9950 N   0  0  0  0  0  0  0  0  0  0  0  0
   38.1760   29.9580   41.0050 C   0  0  0  0  0  0  0  0  0  0  0  0
   37.3020   29.8870   40.0840 O   0  0  0  0  0  0  0  0  0  0  0  0
   39.0350   31.0740   41.3690 C   0  0  1  0  0  0  0  0  0  0  0  0
   39.4560   30.1860   42.5170 C   0  0  2  0  0  0  0  0  0  0  0  0
   41.1690   29.6540   42.5240 S   0  0  0  0  0  0  0  0  0  0  0  0
   41.1670   27.9740   43.1370 C   0  0  0  0  0  0  0  0  0  0  0  0
   38.4960   31.9570   41.7920 H   0  0  0  0  0  0  0  0  0  0  0  0
   39.1060   30.5350   43.5120 H   0  0  0  0  0  0  0  0  0  0  0  0
   41.5720   27.9560   44.1800 H   0  0  0  0  0  0  0  0  0  0  0  0
   41.8820   27.3630   42.5380 H   0  0  0  0  0  0  0  0  0  0  0  0
   40.0420   31.3760   40.3660 C   0  0  0  0  0  0  0  0  0  0  0  0
   40.5180   30.7270   39.4160 O   0  0  0  0  0  0  0  0  0  0  0  0
   40.6050   32.6990   40.4980 N   0  0  0  0  0  0  0  0  0  0  0  0
   40.4390   33.4970   41.1530 H   0  0  0  0  0  0  0  0  0  0  0  0
   43.9030   33.6150   39.0670 C   0  0  0  0  0  0  0  0  0  0  0  0
   42.9510   33.1220   39.9610 C   0  0  0  0  0  0  0  0  0  0  0  0
   41.6150   33.1630   39.6190 C   0  0  0  0  0  0  0  0  0  0  0  0
   41.2690   33.6790   38.4280 N   0  0  0  0  0  0  0  0  0  0  0  0
   42.2100   34.1590   37.5630 C   0  0  0  0  0  0  0  0  0  0  0  0
   43.5060   34.1190   37.8980 N   0  0  0  0  0  0  0  0  0  0  0  0
   44.9130   33.5310   39.4440 H   0  0  0  0  0  0  0  0  0  0  0  0
   43.1810   32.6990   40.9270 H   0  0  0  0  0  0  0  0  0  0  0  0
   41.8650   34.5580   36.6300 H   0  0  0  0  0  0  0  0  0  0  0  0
   39.7320   25.9530   43.6760 C   0  0  0  0  0  0  0  0  0  0  0  0
   40.6900   25.4380   43.7910 H   0  0  0  0  0  0  0  0  0  0  0  0
   39.1910   25.9490   44.6460 H   0  0  0  0  0  0  0  0  0  0  0  0
   39.1260   25.3350   42.9710 H   0  0  0  0  0  0  0  0  0  0  0  0
   37.4660   27.0110   42.6020 C   0  0  0  0  0  0  0  0  0  0  0  0
   36.5250   27.2870   43.4110 O   0  0  0  0  0  0  0  0  0  0  0  0
   37.0310   25.9310   41.8760 O   0  0  0  0  0  0  0  0  0  0  0  0
   36.9010   25.8110   40.5260 C   0  0  0  0  0  0  0  0  0  0  0  0
   35.9700   25.3660   40.1490 H   0  0  0  0  0  0  0  0  0  0  0  0
   37.8470   26.2150   39.8110 O   0  0  0  0  0  0  0  0  0  0  0  0
  1  9  1  0  0  0  0
  1 27  1  0  0  0  0
  2 31  1  0  0  0  0
  2  1  2  0  0  0  0
  3  7  1  0  0  0  0
  3  2  1  0  0  0  0
  4  6  1  0  0  0  0
  4  3  1  0  0  0  0
  5  4  2  0  0  0  0
  6 10  1  1  0  0  0
  6  7  1  0  0  0  0
  7  8  1  0  0  0  0
  7 11  1  1  0  0  0
  8  9  1  0  0  0  0
  9 12  1  0  0  0  0
 13  9  1  0  0  0  0
 14 16  1  0  0  0  0
 14  6  1  0  0  0  0
 15 14  2  0  0  0  0
 16 17  1  0  0  0  0
 18 24  1  0  0  0  0
 18 19  1  0  0  0  0
 19 25  1  0  0  0  0
 20 19  2  0  0  0  0
 20 16  1  0  0  0  0
 21 20  1  0  0  0  0
 22 23  1  0  0  0  0
 22 21  2  0  0  0  0
 23 18  2  0  0  0  0
 26 22  1  0  0  0  0
 27 28  1  0  0  0  0
 27 29  1  0  0  0  0
 30 27  1  0  0  0  0
 31 32  2  0  0  0  0
 33 31  1  0  0  0  0
 34 33  1  0  0  0  0
 35 34  1  0  0  0  0
 36 34  2  0  0  0  0
M  END
>  <minimizedAffinity>
-4.80233526

$$$$

 OpenBabel03252503373D

 36 38  0  0  1  0  0  0  0  0999 V2000
   38.8550   25.1380   40.5510 C   0  0  0  0  0  0  0  0  0  0  0  0
   37.6040   25.6040   40.6200 C   0  0  0  0  0  0  0  0  0  0  0  0
   37.3310   26.7950   41.3380 N   0  0  0  0  0  0  0  0  0  0  0  0
   36.5980   27.9940   41.4770 C   0  0  0  0  0  0  0  0  0  0  0  0
   35.6200   28.5330   40.8690 O   0  0  0  0  0  0  0  0  0  0  0  0
   37.3520   28.4890   42.6180 C   0  0  1  0  0  0  0  0  0  0  0  0
   38.0380   27.1440   42.5630 C   0  0  2  0  0  0  0  0  0  0  0  0
   39.7890   27.1610   42.1710 S   0  0  0  0  0  0  0  0  0  0  0  0
   40.0860   25.7230   41.1500 C   0  0  0  0  0  0  0  0  0  0  0  0
   36.7700   28.5430   43.5710 H   0  0  0  0  0  0  0  0  0  0  0  0
   37.7900   26.4730   43.4120 H   0  0  0  0  0  0  0  0  0  0  0  0
   40.6320   24.9490   41.7450 H   0  0  0  0  0  0  0  0  0  0  0  0
   40.7810   25.9960   40.3230 H   0  0  0  0  0  0  0  0  0  0  0  0
   38.1620   29.6550   42.3120 C   0  0  0  0  0  0  0  0  0  0  0  0
   39.0190   30.2880   42.9560 O   0  0  0  0  0  0  0  0  0  0  0  0
   37.9260   30.1880   40.9900 N   0  0  0  0  0  0  0  0  0  0  0  0
   37.3060   29.9110   40.1960 H   0  0  0  0  0  0  0  0  0  0  0  0
   38.7580   33.6850   40.0730 C   0  0  0  0  0  0  0  0  0  0  0  0
   38.0460   32.5910   40.5700 C   0  0  0  0  0  0  0  0  0  0  0  0
   38.6140   31.3340   40.5230 C   0  0  0  0  0  0  0  0  0  0  0  0
   39.8430   31.2010   39.9970 N   0  0  0  0  0  0  0  0  0  0  0  0
   40.5280   32.2780   39.5130 C   0  0  0  0  0  0  0  0  0  0  0  0
   39.9750   33.4960   39.5600 N   0  0  0  0  0  0  0  0  0  0  0  0
   38.2130   34.6140   40.1630 H   0  0  0  0  0  0  0  0  0  0  0  0
   37.0580   32.6510   41.0010 H   0  0  0  0  0  0  0  0  0  0  0  0
   41.5040   32.1010   39.1070 H   0  0  0  0  0  0  0  0  0  0  0  0
   39.0080   23.8840   39.7750 C   0  0  0  0  0  0  0  0  0  0  0  0
   40.0300   23.6820   39.4420 H   0  0  0  0  0  0  0  0  0  0  0  0
   38.6130   22.9990   40.3170 H   0  0  0  0  0  0  0  0  0  0  0  0
   38.3920   23.9920   38.8500 H   0  0  0  0  0  0  0  0  0  0  0  0
   36.4980   24.9190   39.9690 C   0  0  0  0  0  0  0  0  0  0  0  0
   35.9830   25.3650   38.8970 O   0  0  0  0  0  0  0  0  0  0  0  0
   35.8010   23.7770   40.2730 O   0  0  0  0  0  0  0  0  0  0  0  0
   35.0350   23.0050   39.4540 C   0  0  0  0  0  0  0  0  0  0  0  0
   35.5100   22.6170   38.5420 H   0  0  0  0  0  0  0  0  0  0  0  0
   33.8480   22.7930   39.7940 O   0  0  0  0  0  0  0  0  0  0  0  0
  1  2  2  0  0  0  0
  1  9  1  0  0  0  0
  2  3  1  0  0  0  0
  3  4  1  0  0  0  0
  3  7  1  0  0  0  0
  4  6  1  0  0  0  0
  5  4  2  0  0  0  0
  6 10  1  1  0  0  0
  7  6  1  0  0  0  0
  7 11  1  1  0  0  0
  8  7  1  0  0  0  0
  9 12  1  0  0  0  0
  9  8  1  0  0  0  0
 13  9  1  0  0  0  0
 14  6  1  0  0  0  0
 14 15  2  0  0  0  0
 16 14  1  0  0  0  0
 17 16  1  0  0  0  0
 18 24  1  0  0  0  0
 18 19  1  0  0  0  0
 19 25  1  0  0  0  0
 20 19  2  0  0  0  0
 20 16  1  0  0  0  0
 21 20  1  0  0  0  0
 22 23  1  0  0  0  0
 22 21  2  0  0  0  0
 23 18  2  0  0  0  0
 26 22  1  0  0  0  0
 27 29  1  0  0  0  0
 27  1  1  0  0  0  0
 28 27  1  0  0  0  0
 30 27  1  0  0  0  0
 31 33  1  0  0  0  0
 31  2  1  0  0  0  0
 32 31  2  0  0  0  0
 34 36  2  0  0  0  0
 34 33  1  0  0  0  0
 35 34  1  0  0  0  0
M  END
>  <minimizedAffinity>
-4.78253078

$$$$

 OpenBabel03252503373D

 36 38  0  0  1  0  0  0  0  0999 V2000
   39.1850   25.2430   40.7610 C   0  0  0  0  0  0  0  0  0  0  0  0
   37.9320   25.6600   40.9710 C   0  0  0  0  0  0  0  0  0  0  0  0
   37.6960   26.8560   41.6940 N   0  0  0  0  0  0  0  0  0  0  0  0
   36.9330   28.0270   41.8970 C   0  0  0  0  0  0  0  0  0  0  0  0
   35.8660   28.5090   41.4010 O   0  0  0  0  0  0  0  0  0  0  0  0
   37.7960   28.5810   42.9280 C   0  0  1  0  0  0  0  0  0  0  0  0
   38.5290   27.2640   42.8170 C   0  0  2  0  0  0  0  0  0  0  0  0
   40.2170   27.3440   42.2150 S   0  0  0  0  0  0  0  0  0  0  0  0
   40.4520   25.8940   41.1940 C   0  0  0  0  0  0  0  0  0  0  0  0
   37.3310   28.6340   43.9440 H   0  0  0  0  0  0  0  0  0  0  0  0
   38.4150   26.6040   43.7030 H   0  0  0  0  0  0  0  0  0  0  0  0
   41.0990   25.1580   41.7340 H   0  0  0  0  0  0  0  0  0  0  0  0
   41.0300   26.1740   40.2840 H   0  0  0  0  0  0  0  0  0  0  0  0
   38.5110   29.7710   42.5030 C   0  0  0  0  0  0  0  0  0  0  0  0
   39.3730   30.4850   43.0480 O   0  0  0  0  0  0  0  0  0  0  0  0
   38.1500   30.2150   41.1780 N   0  0  0  0  0  0  0  0  0  0  0  0
   37.4920   29.8610   40.4470 H   0  0  0  0  0  0  0  0  0  0  0  0
   38.7060   33.6980   40.0250 C   0  0  0  0  0  0  0  0  0  0  0  0
   38.0980   32.5960   40.6290 C   0  0  0  0  0  0  0  0  0  0  0  0
   38.7330   31.3710   40.6020 C   0  0  0  0  0  0  0  0  0  0  0  0
   39.9270   31.2770   39.9920 N   0  0  0  0  0  0  0  0  0  0  0  0
   40.5110   32.3620   39.4040 C   0  0  0  0  0  0  0  0  0  0  0  0
   39.8920   33.5490   39.4310 N   0  0  0  0  0  0  0  0  0  0  0  0
   38.1150   34.5990   40.1090 H   0  0  0  0  0  0  0  0  0  0  0  0
   37.1420   32.6240   41.1290 H   0  0  0  0  0  0  0  0  0  0  0  0
   41.4630   32.2170   38.9350 H   0  0  0  0  0  0  0  0  0  0  0  0
   39.2980   23.9780   39.9970 C   0  0  0  0  0  0  0  0  0  0  0  0
   40.2810   23.8110   39.5470 H   0  0  0  0  0  0  0  0  0  0  0  0
   39.0110   23.0920   40.6000 H   0  0  0  0  0  0  0  0  0  0  0  0
   38.5720   24.0370   39.1510 H   0  0  0  0  0  0  0  0  0  0  0  0
   36.7870   24.9130   40.4730 C   0  0  0  0  0  0  0  0  0  0  0  0
   36.2340   24.0080   41.1730 O   0  0  0  0  0  0  0  0  0  0  0  0
   36.0830   24.9610   39.2970 O   0  0  0  0  0  0  0  0  0  0  0  0
   36.1960   25.8520   38.2740 C   0  0  0  0  0  0  0  0  0  0  0  0
   36.6790   25.5000   37.3520 H   0  0  0  0  0  0  0  0  0  0  0  0
   35.7450   27.0070   38.4550 O   0  0  0  0  0  0  0  0  0  0  0  0
  1  2  2  0  0  0  0
  1  9  1  0  0  0  0
  2  3  1  0  0  0  0
  3  4  1  0  0  0  0
  3  7  1  0  0  0  0
  4  6  1  0  0  0  0
  5  4  2  0  0  0  0
  6 10  1  1  0  0  0
  7  6  1  0  0  0  0
  7 11  1  1  0  0  0
  8  7  1  0  0  0  0
  9 12  1  0  0  0  0
  9  8  1  0  0  0  0
 13  9  1  0  0  0  0
 14  6  1  0  0  0  0
 14 15  2  0  0  0  0
 16 14  1  0  0  0  0
 17 16  1  0  0  0  0
 18 24  1  0  0  0  0
 18 19  1  0  0  0  0
 19 25  1  0  0  0  0
 20 19  2  0  0  0  0
 20 16  1  0  0  0  0
 21 20  1  0  0  0  0
 22 23  1  0  0  0  0
 22 21  2  0  0  0  0
 23 18  2  0  0  0  0
 26 22  1  0  0  0  0
 27 29  1  0  0  0  0
 27  1  1  0  0  0  0
 28 27  1  0  0  0  0
 30 27  1  0  0  0  0
 31  2  1  0  0  0  0
 31 32  2  0  0  0  0
 33 31  1  0  0  0  0
 34 36  2  0  0  0  0
 34 33  1  0  0  0  0
 35 34  1  0  0  0  0
M  END
>  <minimizedAffinity>
-4.75837088

$$$$

 OpenBabel03252503373D

 36 38  0  0  1  0  0  0  0  0999 V2000
   39.5290   31.7790   38.3970 C   0  0  0  0  0  0  0  0  0  0  0  0
   39.6800   31.8350   39.7240 C   0  0  0  0  0  0  0  0  0  0  0  0
   38.6920   31.2780   40.5730 N   0  0  0  0  0  0  0  0  0  0  0  0
   38.3500   30.5930   41.7610 C   0  0  0  0  0  0  0  0  0  0  0  0
   38.9820   30.1870   42.7860 O   0  0  0  0  0  0  0  0  0  0  0  0
   36.9340   30.4690   41.4490 C   0  0  1  0  0  0  0  0  0  0  0  0
   37.2720   31.3270   40.2520 C   0  0  2  0  0  0  0  0  0  0  0  0
   37.0710   30.5590   38.6430 S   0  0  0  0  0  0  0  0  0  0  0  0
   38.4090   31.1730   37.6270 C   0  0  0  0  0  0  0  0  0  0  0  0
   36.2580   31.0580   42.1180 H   0  0  0  0  0  0  0  0  0  0  0  0
   36.8530   32.3550   40.2970 H   0  0  0  0  0  0  0  0  0  0  0  0
   38.0080   31.9080   36.8850 H   0  0  0  0  0  0  0  0  0  0  0  0
   38.8190   30.3370   37.0140 H   0  0  0  0  0  0  0  0  0  0  0  0
   36.5200   29.1020   41.1850 C   0  0  0  0  0  0  0  0  0  0  0  0
   35.4390   28.5940   40.8330 O   0  0  0  0  0  0  0  0  0  0  0  0
   37.5780   28.1370   41.3650 N   0  0  0  0  0  0  0  0  0  0  0  0
   38.5860   28.2050   41.6340 H   0  0  0  0  0  0  0  0  0  0  0  0
   36.9000   24.5400   41.9750 C   0  0  0  0  0  0  0  0  0  0  0  0
   37.0880   25.9020   42.2220 C   0  0  0  0  0  0  0  0  0  0  0  0
   37.3550   26.7520   41.1680 C   0  0  0  0  0  0  0  0  0  0  0  0
   37.4260   26.2390   39.9280 N   0  0  0  0  0  0  0  0  0  0  0  0
   37.2420   24.9060   39.6990 C   0  0  0  0  0  0  0  0  0  0  0  0
   36.9830   24.0840   40.7240 N   0  0  0  0  0  0  0  0  0  0  0  0
   36.6990   23.9760   42.8750 H   0  0  0  0  0  0  0  0  0  0  0  0
   37.0400   26.3570   43.1990 H   0  0  0  0  0  0  0  0  0  0  0  0
   37.3130   24.5640   38.6870 H   0  0  0  0  0  0  0  0  0  0  0  0
   40.6280   32.4020   37.6210 C   0  0  0  0  0  0  0  0  0  0  0  0
   40.6810   32.0790   36.5770 H   0  0  0  0  0  0  0  0  0  0  0  0
   40.6030   33.5100   37.6660 H   0  0  0  0  0  0  0  0  0  0  0  0
   41.5880   32.0850   38.0960 H   0  0  0  0  0  0  0  0  0  0  0  0
   40.8440   32.4590   40.3340 C   0  0  0  0  0  0  0  0  0  0  0  0
   40.8560   33.6980   40.6200 O   0  0  0  0  0  0  0  0  0  0  0  0
   42.0690   31.9740   40.7170 O   0  0  0  0  0  0  0  0  0  0  0  0
   42.3570   31.0720   41.6950 C   0  0  0  0  0  0  0  0  0  0  0  0
   42.8030   30.1170   41.3820 H   0  0  0  0  0  0  0  0  0  0  0  0
   42.0940   31.3900   42.8780 O   0  0  0  0  0  0  0  0  0  0  0  0
  1  2  2  0  0  0  0
  2 31  1  0  0  0  0
  2  3  1  0  0  0  0
  3  4  1  0  0  0  0
  4  5  2  0  0  0  0
  6  4  1  0  0  0  0
  6 10  1  1  0  0  0
  7 11  1  1  0  0  0
  7  3  1  0  0  0  0
  7  6  1  0  0  0  0
  8  7  1  0  0  0  0
  9  1  1  0  0  0  0
  9  8  1  0  0  0  0
 12  9  1  0  0  0  0
 13  9  1  0  0  0  0
 14 16  1  0  0  0  0
 14  6  1  0  0  0  0
 15 14  2  0  0  0  0
 16 17  1  0  0  0  0
 18 19  1  0  0  0  0
 18 24  1  0  0  0  0
 19 25  1  0  0  0  0
 20 16  1  0  0  0  0
 20 19  2  0  0  0  0
 21 20  1  0  0  0  0
 22 21  2  0  0  0  0
 22 23  1  0  0  0  0
 23 18  2  0  0  0  0
 26 22  1  0  0  0  0
 27 29  1  0  0  0  0
 27 30  1  0  0  0  0
 27  1  1  0  0  0  0
 28 27  1  0  0  0  0
 31 32  2  0  0  0  0
 31 33  1  0  0  0  0
 33 34  1  0  0  0  0
 34 36  2  0  0  0  0
 35 34  1  0  0  0  0
M  END
>  <minimizedAffinity>
-4.72793198

$$$$

 OpenBabel03252503373D

 36 38  0  0  1  0  0  0  0  0999 V2000
   37.3780   29.1160   41.7650 C   0  0  0  0  0  0  0  0  0  0  0  0
   36.8450   29.4500   40.5850 C   0  0  0  0  0  0  0  0  0  0  0  0
   37.3810   30.5370   39.8490 N   0  0  0  0  0  0  0  0  0  0  0  0
   37.7100   31.1240   38.6080 C   0  0  0  0  0  0  0  0  0  0  0  0
   37.5310   30.8190   37.3860 O   0  0  0  0  0  0  0  0  0  0  0  0
   38.3770   32.2860   39.1730 C   0  0  1  0  0  0  0  0  0  0  0  0
   37.8990   31.7350   40.4970 C   0  0  2  0  0  0  0  0  0  0  0  0
   39.1720   31.2040   41.6420 S   0  0  0  0  0  0  0  0  0  0  0  0
   38.5300   29.7500   42.4640 C   0  0  0  0  0  0  0  0  0  0  0  0
   37.8530   33.2570   38.9920 H   0  0  0  0  0  0  0  0  0  0  0  0
   37.1050   32.3430   40.9810 H   0  0  0  0  0  0  0  0  0  0  0  0
   38.2490   30.0090   43.5150 H   0  0  0  0  0  0  0  0  0  0  0  0
   39.3410   28.9920   42.5590 H   0  0  0  0  0  0  0  0  0  0  0  0
   39.8110   32.2950   38.9430 C   0  0  0  0  0  0  0  0  0  0  0  0
   40.6370   31.3990   38.6860 O   0  0  0  0  0  0  0  0  0  0  0  0
   40.3980   33.6120   39.0280 N   0  0  0  0  0  0  0  0  0  0  0  0
   40.0150   34.5670   39.2080 H   0  0  0  0  0  0  0  0  0  0  0  0
   43.7230   34.1610   37.4750 C   0  0  0  0  0  0  0  0  0  0  0  0
   42.3420   33.9910   37.5970 C   0  0  0  0  0  0  0  0  0  0  0  0
   41.7890   33.8130   38.8490 C   0  0  0  0  0  0  0  0  0  0  0  0
   42.6020   33.8090   39.9190 N   0  0  0  0  0  0  0  0  0  0  0  0
   43.9500   33.9750   39.7860 C   0  0  0  0  0  0  0  0  0  0  0  0
   44.4840   34.1470   38.5700 N   0  0  0  0  0  0  0  0  0  0  0  0
   44.0390   34.2900   36.4490 H   0  0  0  0  0  0  0  0  0  0  0  0
   41.6520   33.9870   36.7670 H   0  0  0  0  0  0  0  0  0  0  0  0
   44.5400   33.9600   40.6800 H   0  0  0  0  0  0  0  0  0  0  0  0
   36.7260   27.9670   42.4360 C   0  0  0  0  0  0  0  0  0  0  0  0
   37.3380   27.4900   43.2080 H   0  0  0  0  0  0  0  0  0  0  0  0
   35.7340   28.2300   42.8590 H   0  0  0  0  0  0  0  0  0  0  0  0
   36.5430   27.1890   41.6560 H   0  0  0  0  0  0  0  0  0  0  0  0
   35.7170   28.7240   40.0250 C   0  0  0  0  0  0  0  0  0  0  0  0
   34.5290   29.1610   40.1360 O   0  0  0  0  0  0  0  0  0  0  0  0
   35.6200   27.5470   39.3250 O   0  0  0  0  0  0  0  0  0  0  0  0
   35.2460   27.3570   38.0310 C   0  0  0  0  0  0  0  0  0  0  0  0
   34.4500   26.6230   37.8410 H   0  0  0  0  0  0  0  0  0  0  0  0
   35.8320   28.0280   37.1500 O   0  0  0  0  0  0  0  0  0  0  0  0
  1 27  1  0  0  0  0
  1  9  1  0  0  0  0
  2  1  2  0  0  0  0
  3  7  1  0  0  0  0
  3  2  1  0  0  0  0
  4  6  1  0  0  0  0
  4  3  1  0  0  0  0
  5  4  2  0  0  0  0
  6 10  1  6  0  0  0
  6  7  1  0  0  0  0
  7 11  1  1  0  0  0
  7  8  1  0  0  0  0
  8  9  1  0  0  0  0
  9 13  1  0  0  0  0
  9 12  1  0  0  0  0
 14 16  1  0  0  0  0
 14  6  1  0  0  0  0
 15 14  2  0  0  0  0
 16 17  1  0  0  0  0
 18 19  2  0  0  0  0
 18 23  1  0  0  0  0
 19 20  1  0  0  0  0
 20 16  1  0  0  0  0
 20 21  2  0  0  0  0
 22 21  1  0  0  0  0
 22 26  1  0  0  0  0
 23 22  2  0  0  0  0
 24 18  1  0  0  0  0
 25 19  1  0  0  0  0
 27 29  1  0  0  0  0
 27 28  1  0  0  0  0
 30 27  1  0  0  0  0
 31 32  2  0  0  0  0
 31  2  1  0  0  0  0
 33 31  1  0  0  0  0
 34 33  1  0  0  0  0
 35 34  1  0  0  0  0
 36 34  2  0  0  0  0
M  END
>  <minimizedAffinity>
-4.70402479

$$$$
