REMARK  Name = 
REMARK  6 active torsions:
REMARK  status: ('A' for Active; 'I' for Inactive)
REMARK    1  A    between atoms: C_1  and  C_4
REMARK    2  A    between atoms: C_1  and  O_8
REMARK    3  A    between atoms: O_8  and  P_10
REMARK    4  A    between atoms: P_10  and  O_11
REMARK    5  A    between atoms: P_10  and  O_12
REMARK    6  A    between atoms: O_12  and  C_19
REMARK                            x       y       z     vdW  Elec       q    Type
REMARK                         _______ _______ _______ _____ _____    ______ ____
ROOT
ATOM      1  C   UNL     1      47.162  33.998  42.467  0.00  0.00    +0.000 C 
ATOM      2  H   UNL     1      46.608  33.301  41.828  0.00  0.00    +0.000 HD
ATOM      3  H   UNL     1      47.385  34.889  41.830  0.00  0.00    +0.000 HD
ENDROOT
BRANCH   1   6
ATOM      4  C   UNL     1      45.303  34.234  45.689  0.00  0.00    +0.000 A 
ATOM      5  C   UNL     1      46.176  33.751  44.711  0.00  0.00    +0.000 A 
ATOM      6  C   UNL     1      46.263  34.456  43.531  0.00  0.00    +0.000 A 
ATOM      7  N   UNL     1      45.498  35.596  43.363  0.00  0.00    +0.000 NA
ATOM      8  C   UNL     1      44.669  36.018  44.345  0.00  0.00    +0.000 A 
ATOM      9  N   UNL     1      44.570  35.343  45.503  0.00  0.00    +0.000 NA
ATOM     10  H   UNL     1      45.280  33.632  46.597  0.00  0.00    +0.000 HD
ATOM     11  H   UNL     1      46.783  32.855  44.833  0.00  0.00    +0.000 HD
ATOM     12  H   UNL     1      44.083  36.910  44.188  0.00  0.00    +0.000 HD
ENDBRANCH   1   6
BRANCH   1  13
ATOM     13  O   UNL     1      48.313  33.423  43.008  0.00  0.00    +0.000 OA
BRANCH  13  15
ATOM     14  O   UNL     1      50.659  33.097  41.913  0.00  0.00    +0.000 OA
ATOM     15  P   UNL     1      49.632  34.144  42.235  0.00  0.00    +0.000 P 
BRANCH  15  16
ATOM     16  O   UNL     1      50.209  35.356  43.242  0.00  0.00    +0.000 OA
ATOM     17  H   UNL     1      50.963  35.026  43.792  0.00  0.00    +0.000 HD
ENDBRANCH  15  16
BRANCH  15  18
ATOM     18  O   UNL     1      49.066  34.809  40.781  0.00  0.00    +0.000 OA
BRANCH  18  19
ATOM     19  C   UNL     1      49.081  34.021  39.636  0.00  0.00    +0.000 C 
ATOM     20  H   UNL     1      49.872  34.274  38.931  0.00  0.00    +0.000 HD
ATOM     21  O   UNL     1      48.361  33.081  39.267  0.00  0.00    +0.000 OA
ENDBRANCH  18  19
ENDBRANCH  15  18
ENDBRANCH  13  15
ENDBRANCH   1  13
TORSDOF 6
