
 OpenBabel03252507493D

 39 40  0  0  0  0  0  0  0  0999 V2000
   47.9070   34.8780   41.0770 C   0  0  0  0  0  0  0  0  0  0  0  0
   48.2850   35.8670   40.7050 H   0  0  0  0  0  0  0  0  0  0  0  0
   47.2850   34.4910   40.2270 H   0  0  0  0  0  0  0  0  0  0  0  0
   49.0520   33.9890   41.3520 C   0  0  0  0  0  0  0  0  0  0  0  0
   49.1460   32.8280   40.6000 C   0  0  0  0  0  0  0  0  0  0  0  0
   50.1840   31.9430   40.7950 C   0  0  0  0  0  0  0  0  0  0  0  0
   51.1070   32.2770   41.7680 N   0  0  0  0  0  0  0  0  0  0  0  0
   50.9790   33.4200   42.4780 C   0  0  0  0  0  0  0  0  0  0  0  0
   49.9650   34.2510   42.2660 N   0  0  0  0  0  0  0  0  0  0  0  0
   50.2610   31.0330   40.2070 H   0  0  0  0  0  0  0  0  0  0  0  0
   51.7520   33.5830   43.2090 H   0  0  0  0  0  0  0  0  0  0  0  0
   47.9060   32.4770   39.3660 S   0  0  0  0  0  0  0  0  0  0  0  0
   48.5990   32.6650   37.7000 C   0  0  0  0  0  0  0  0  0  0  0  0
   49.5530   32.1270   37.5550 H   0  0  0  0  0  0  0  0  0  0  0  0
   47.8650   32.1590   37.0220 H   0  0  0  0  0  0  0  0  0  0  0  0
   48.6470   34.1200   37.3610 C   0  0  0  0  0  0  0  0  0  0  0  0
   48.8620   34.7100   38.2960 H   0  0  0  0  0  0  0  0  0  0  0  0
   49.4880   34.3620   36.6660 H   0  0  0  0  0  0  0  0  0  0  0  0
   47.3730   34.5300   36.8830 N   0  0  0  0  0  0  0  0  0  0  0  0
   46.9490   33.7410   36.3090 H   0  0  0  0  0  0  0  0  0  0  0  0
   47.5280   35.3170   36.2010 H   0  0  0  0  0  0  0  0  0  0  0  0
   46.9900   35.0720   42.2310 C   0  0  0  0  0  0  0  0  0  0  0  0
   47.2640   34.4020   43.0780 H   0  0  0  0  0  0  0  0  0  0  0  0
   47.1270   36.1140   42.6340 H   0  0  0  0  0  0  0  0  0  0  0  0
   45.5620   34.8990   41.9000 C   0  0  0  0  0  0  0  0  0  0  0  0
   44.6020   35.8040   42.4480 C   0  0  0  0  0  0  0  0  0  0  0  0
   43.0220   35.1840   41.7600 S   0  0  0  0  0  0  0  0  0  0  0  0
   43.9330   33.7880   40.8340 C   0  0  0  0  0  0  0  0  0  0  0  0
   45.0160   33.9940   41.1410 N   0  0  0  0  0  0  0  0  0  0  0  0
   44.7590   36.6420   43.1030 H   0  0  0  0  0  0  0  0  0  0  0  0
   43.2930   32.8500   40.0360 O   0  0  0  0  0  0  0  0  0  0  0  0
   42.2210   32.2880   37.6780 O   0  0  0  0  0  0  0  0  0  0  0  0
   43.3100   33.1280   38.3600 P   0  0  1  0  0  0  0  0  0  0  0  0
   42.9620   34.7620   38.0980 O   0  0  0  0  0  0  0  0  0  0  0  0
   42.0500   34.9690   38.3960 H   0  0  0  0  0  0  0  0  0  0  0  0
   44.8310   32.7890   37.7200 O   0  0  0  0  0  0  0  0  0  0  0  0
   45.0010   31.9790   36.6070 C   0  0  0  0  0  0  0  0  0  0  0  0
   44.5670   30.9910   36.7150 H   0  0  0  0  0  0  0  0  0  0  0  0
   45.6120   32.4110   35.5980 O   0  0  0  0  0  0  0  0  0  0  0  0
  1  4  1  0  0  0  0
  1 22  1  0  0  0  0
  2  1  1  0  0  0  0
  3  1  1  0  0  0  0
  4  9  1  0  0  0  0
  5  6  1  0  0  0  0
  5  4  2  0  0  0  0
  6  7  2  0  0  0  0
  7  8  1  0  0  0  0
  8 11  1  0  0  0  0
  9  8  2  0  0  0  0
 10  6  1  0  0  0  0
 12  5  1  0  0  0  0
 13 12  1  0  0  0  0
 14 13  1  0  0  0  0
 15 13  1  0  0  0  0
 16 13  1  0  0  0  0
 16 17  1  0  0  0  0
 18 16  1  0  0  0  0
 19 16  1  0  0  0  0
 20 19  1  0  0  0  0
 21 19  1  0  0  0  0
 22 24  1  0  0  0  0
 22 23  1  0  0  0  0
 25 22  1  0  0  0  0
 25 26  2  0  0  0  0
 26 30  1  0  0  0  0
 27 26  1  0  0  0  0
 28 29  2  0  0  0  0
 28 27  1  0  0  0  0
 29 25  1  0  0  0  0
 31 28  1  0  0  0  0
 33 32  2  6  0  0  0
 33 31  1  0  0  0  0
 34 33  1  0  0  0  0
 34 35  1  0  0  0  0
 36 33  1  0  0  0  0
 37 38  1  0  0  0  0
 37 36  1  0  0  0  0
 39 37  2  0  0  0  0
M  END
>  <minimizedAffinity>
-4.43296242

>  <minimizedRMSD>
1.59544408

$$$$
