
 OpenBabel03242511513D

 28 31  0  0  1  0  0  0  0  0999 V2000
   44.1720   33.9440   41.2700 C   0  0  1  0  0  0  0  0  0  0  0  0
   45.1990   33.9000   40.2690 C   0  0  2  0  0  0  0  0  0  0  0  0
   44.4610   32.6690   40.6390 C   0  0  0  0  0  0  0  0  0  0  0  0
   43.2130   34.4680   40.9770 H   0  0  0  0  0  0  0  0  0  0  0  0
   44.9140   34.2930   39.2450 H   0  0  0  0  0  0  0  0  0  0  0  0
   44.9200   31.8880   41.3000 H   0  0  0  0  0  0  0  0  0  0  0  0
   43.7640   32.1800   39.8990 H   0  0  0  0  0  0  0  0  0  0  0  0
   44.2890   35.5220   43.1310 C   0  0  0  0  0  0  0  0  0  0  0  0
   44.5360   34.2400   42.6610 C   0  0  0  0  0  0  0  0  0  0  0  0
   45.0660   33.2650   43.5030 C   0  0  0  0  0  0  0  0  0  0  0  0
   45.3170   33.6550   44.8020 N   0  0  0  0  0  0  0  0  0  0  0  0
   45.0730   34.8990   45.2530 C   0  0  0  0  0  0  0  0  0  0  0  0
   44.5560   35.8330   44.4040 N   0  0  0  0  0  0  0  0  0  0  0  0
   43.8810   36.2740   42.4790 H   0  0  0  0  0  0  0  0  0  0  0  0
   45.2630   32.2710   43.1510 H   0  0  0  0  0  0  0  0  0  0  0  0
   45.3170   35.0660   46.2930 H   0  0  0  0  0  0  0  0  0  0  0  0
   46.6450   33.8080   40.5450 C   0  0  1  0  0  0  0  0  0  0  0  0
   47.3840   34.2230   39.6330 O   0  0  0  0  0  0  0  0  0  0  0  0
   47.9740   34.2680   40.9480 C   0  0  2  0  0  0  0  0  0  0  0  0
   48.8010   33.1550   41.5870 C   0  0  0  0  0  0  0  0  0  0  0  0
   48.5490   34.3830   42.2720 C   0  0  1  0  0  0  0  0  0  0  0  0
   46.7040   32.6360   40.3930 H   0  0  0  0  0  0  0  0  0  0  0  0
   48.3340   32.2370   41.9280 H   0  0  0  0  0  0  0  0  0  0  0  0
   49.7600   33.0010   41.0410 H   0  0  0  0  0  0  0  0  0  0  0  0
   47.7460   34.4150   43.0660 H   0  0  0  0  0  0  0  0  0  0  0  0
   49.6990   35.3190   42.4350 C   0  0  0  0  0  0  0  0  0  0  0  0
   50.5030   35.0220   43.0980 H   0  0  0  0  0  0  0  0  0  0  0  0
   49.3550   36.2480   41.6880 O   0  0  0  0  0  0  0  0  0  0  0  0
  1  4  1  6  0  0  0
  1  9  1  0  0  0  0
  2  5  1  6  0  0  0
  2 17  1  0  0  0  0
  2  3  1  0  0  0  0
  2  1  1  0  0  0  0
  3  1  1  0  0  0  0
  3  6  1  0  0  0  0
  7  3  1  0  0  0  0
  8 13  1  0  0  0  0
  9  8  2  0  0  0  0
  9 10  1  0  0  0  0
 10 11  2  0  0  0  0
 11 12  1  0  0  0  0
 12 16  1  0  0  0  0
 13 12  2  0  0  0  0
 14  8  1  0  0  0  0
 15 10  1  0  0  0  0
 17 22  1  6  0  0  0
 17 19  1  0  0  0  0
 18 17  1  0  0  0  0
 19 18  1  6  0  0  0
 19 20  1  0  0  0  0
 19 21  1  0  0  0  0
 20 23  1  0  0  0  0
 20 21  1  0  0  0  0
 21 26  1  0  0  0  0
 21 25  1  1  0  0  0
 24 20  1  0  0  0  0
 26 27  1  0  0  0  0
 28 26  2  0  0  0  0
M  END
>  <minimizedAffinity>
-4.31064892

>  <minimizedRMSD>
1.28064191

$$$$
