
     RDKit          3D

 34 36  0  0  0  0  0  0  0  0999 V2000
   48.0791   35.4717   41.8065 C   0  0  1  0  0  0  0  0  0  0  0  0
   49.3187   34.6924   41.6911 C   0  0  0  0  0  0  0  0  0  0  0  0
   48.4842   35.0764   40.4568 C   0  0  1  0  0  0  0  0  0  0  0  0
   46.0517   32.9314   43.7536 C   0  0  0  0  0  0  0  0  0  0  0  0
   47.1428   33.6160   43.2296 C   0  0  0  0  0  0  0  0  0  0  0  0
   46.9137   34.7285   42.3957 C   0  0  0  0  0  0  0  0  0  0  0  0
   45.6371   35.1047   42.1243 N   0  0  0  0  0  0  0  0  0  0  0  0
   44.5884   34.4160   42.6507 C   0  0  0  0  0  0  0  0  0  0  0  0
   44.7959   33.3338   43.4621 N   0  0  0  0  0  0  0  0  0  0  0  0
   47.7646   34.1434   39.8097 O   0  0  0  0  0  0  0  0  0  0  0  0
   48.5186   32.4054   37.9852 O   0  0  0  0  0  0  0  0  0  0  0  0
   48.0955   33.8524   38.2345 P   0  0  2  0  0  0  0  0  0  0  0  0
   49.3362   34.7997   37.5794 O   0  0  0  0  0  0  0  0  0  0  0  0
   46.7322   34.0659   37.2785 O   0  0  0  0  0  0  0  0  0  0  0  0
   45.7886   33.0879   37.0301 C   0  0  0  0  0  0  0  0  0  0  0  0
   45.6495   32.2888   35.9184 C   0  0  0  0  0  0  0  0  0  0  0  0
   44.6642   31.3616   35.8133 C   0  0  0  0  0  0  0  0  0  0  0  0
   43.7629   31.1988   36.8426 C   0  0  0  0  0  0  0  0  0  0  0  0
   43.9219   32.0177   37.9585 C   0  0  0  0  0  0  0  0  0  0  0  0
   44.9232   32.9376   38.0284 N   0  0  0  0  0  0  0  0  0  0  0  0
   48.1642   36.5277   42.1460 H   0  0  0  0  0  0  0  0  0  0  0  0
   49.3176   33.5736   41.8335 H   0  0  0  0  0  0  0  0  0  0  0  0
   50.3145   35.1103   41.8302 H   0  0  0  0  0  0  0  0  0  0  0  0
   49.0714   35.7562   39.8087 H   0  0  0  0  0  0  0  0  0  0  0  0
   46.2230   32.0858   44.3876 H   0  0  0  0  0  0  0  0  0  0  0  0
   48.1365   33.2854   43.4694 H   0  0  0  0  0  0  0  0  0  0  0  0
   43.5803   34.7336   42.4208 H   0  0  0  0  0  0  0  0  0  0  0  0
   49.1129   35.2296   36.7327 H   0  0  0  0  0  0  0  0  0  0  0  0
   46.3990   32.4718   35.1404 H   0  0  0  0  0  0  0  0  0  0  0  0
   44.6011   30.7593   34.9153 H   0  0  0  0  0  0  0  0  0  0  0  0
   42.9713   30.4759   36.7944 H   0  0  0  0  0  0  0  0  0  0  0  0
   42.9772   31.8749   39.0831 C   0  0  0  0  0  0  0  0  0  0  0  0
   42.7259   30.8803   39.4236 H   0  0  0  0  0  0  0  0  0  0  0  0
   42.4855   32.8995   39.6211 O   0  0  0  0  0  0  0  0  0  0  0  0
  1  6  1  0
  2  1  1  0
  3  2  1  0
  3  1  1  0
  5  4  2  0
  6  5  1  0
  7  6  2  0
  7  8  1  0
  8  9  2  0
  9  4  1  0
 10  3  1  0
 12 11  2  0
 12 10  1  1
 13 12  1  0
 14 12  1  0
 15 14  1  0
 15 20  1  0
 16 15  2  0
 17 16  1  0
 17 18  2  0
 18 19  1  0
 19 20  2  0
  1 21  1  6
  2 22  1  0
  2 23  1  0
  3 24  1  6
  4 25  1  0
  5 26  1  0
  8 27  1  0
 13 28  1  0
 16 29  1  0
 17 30  1  0
 18 31  1  0
 32 33  1  0
 32 34  2  0
 19 32  1  0
M  ISO  8  21  13  22  13  23  13  24  13  25  14  26  14  27  14  28   3
M  ISO  4  29  14  30  14  31  14  33   6
M  END
>  <DihAtoms>  (1) 
17,18,31,32

>  <DihDeg>  (1) 
-179.99940081917032

$$$$
