
 OpenBabel03252501053D

 34 36  0  0  1  0  0  0  0  0999 V2000
   47.7570   34.0340   39.7760 O   0  0  0  0  0  0  0  0  0  0  0  0
   47.9560   35.4010   41.7610 C   0  0  1  0  0  0  0  0  0  0  0  0
   49.2210   34.6560   41.7060 C   0  0  0  0  0  0  0  0  0  0  0  0
   48.4240   34.9970   40.4350 C   0  0  1  0  0  0  0  0  0  0  0  0
   47.9980   36.4640   42.0870 H   0  0  0  0  0  0  0  0  0  0  0  0
   49.2460   33.5400   41.8670 H   0  0  0  0  0  0  0  0  0  0  0  0
   50.1990   35.1040   41.8760 H   0  0  0  0  0  0  0  0  0  0  0  0
   49.0160   35.6840   39.7990 H   0  0  0  0  0  0  0  0  0  0  0  0
   45.9180   32.9360   43.7930 C   0  0  0  0  0  0  0  0  0  0  0  0
   47.0070   33.6470   43.3010 C   0  0  0  0  0  0  0  0  0  0  0  0
   46.7900   34.6330   42.3180 C   0  0  0  0  0  0  0  0  0  0  0  0
   45.5270   34.8660   41.8760 N   0  0  0  0  0  0  0  0  0  0  0  0
   44.4790   34.1550   42.3750 C   0  0  0  0  0  0  0  0  0  0  0  0
   44.6750   33.1950   43.3290 N   0  0  0  0  0  0  0  0  0  0  0  0
   46.0790   32.1860   44.5390 H   0  0  0  0  0  0  0  0  0  0  0  0
   47.9890   33.4310   43.6770 H   0  0  0  0  0  0  0  0  0  0  0  0
   43.4820   34.3580   42.0080 H   0  0  0  0  0  0  0  0  0  0  0  0
   48.5840   32.3480   37.9340 O   0  0  0  0  0  0  0  0  0  0  0  0
   48.1080   33.7760   38.1990 P   0  0  2  0  0  0  0  0  0  0  0  0
   49.3190   34.7760   37.5650 O   0  0  0  0  0  0  0  0  0  0  0  0
   49.0860   35.2090   36.7240 H   0  0  0  0  0  0  0  0  0  0  0  0
   46.7440   33.9550   37.2370 O   0  0  0  0  0  0  0  0  0  0  0  0
   45.6940   33.0580   37.1930 C   0  0  0  0  0  0  0  0  0  0  0  0
   45.4790   32.0270   36.3060 C   0  0  0  0  0  0  0  0  0  0  0  0
   44.3900   31.2210   36.3870 C   0  0  0  0  0  0  0  0  0  0  0  0
   43.4580   31.4230   37.3820 C   0  0  0  0  0  0  0  0  0  0  0  0
   43.6960   32.4720   38.2680 C   0  0  0  0  0  0  0  0  0  0  0  0
   44.8000   33.2610   38.1550 N   0  0  0  0  0  0  0  0  0  0  0  0
   46.2580   31.9240   35.5430 H   0  0  0  0  0  0  0  0  0  0  0  0
   44.2700   30.4240   35.6630 H   0  0  0  0  0  0  0  0  0  0  0  0
   42.5860   30.8050   37.4760 H   0  0  0  0  0  0  0  0  0  0  0  0
   42.7220   32.7220   39.3480 C   0  0  0  0  0  0  0  0  0  0  0  0
   42.1150   33.6150   39.2990 H   0  0  0  0  0  0  0  0  0  0  0  0
   42.6140   31.9030   40.2960 O   0  0  0  0  0  0  0  0  0  0  0  0
  1  4  1  0  0  0  0
  2  5  1  1  0  0  0
  2 11  1  0  0  0  0
  3  2  1  0  0  0  0
  3  6  1  0  0  0  0
  3  7  1  0  0  0  0
  4  8  1  6  0  0  0
  4  3  1  0  0  0  0
  4  2  1  0  0  0  0
  9 15  1  0  0  0  0
 10 16  1  0  0  0  0
 10  9  2  0  0  0  0
 11 10  1  0  0  0  0
 12 11  2  0  0  0  0
 12 13  1  0  0  0  0
 13 14  2  0  0  0  0
 14  9  1  0  0  0  0
 17 13  1  0  0  0  0
 19 18  2  6  0  0  0
 19  1  1  0  0  0  0
 20 19  1  0  0  0  0
 21 20  1  0  0  0  0
 22 19  1  0  0  0  0
 23 22  1  0  0  0  0
 23 28  1  0  0  0  0
 24 25  1  0  0  0  0
 24 23  2  0  0  0  0
 25 26  2  0  0  0  0
 26 31  1  0  0  0  0
 26 27  1  0  0  0  0
 27 32  1  0  0  0  0
 28 27  2  0  0  0  0
 29 24  1  0  0  0  0
 30 25  1  0  0  0  0
 32 34  2  0  0  0  0
 33 32  1  0  0  0  0
M  END
>  <minimizedAffinity>
-4.29747486

>  <minimizedRMSD>
0.447831273

$$$$
