
 OpenBabel03242520343D

 22 23  0  0  1  0  0  0  0  0999 V2000
   38.0080   28.6470   43.3120 C   0  0  1  0  0  0  0  0  0  0  0  0
   36.9210   27.7650   43.6800 C   0  0  0  0  0  0  0  0  0  0  0  0
   38.0320   27.1820   42.8850 C   0  0  1  0  0  0  0  0  0  0  0  0
   38.7670   28.9260   44.0940 H   0  0  0  0  0  0  0  0  0  0  0  0
   36.7540   27.4510   44.7390 H   0  0  0  0  0  0  0  0  0  0  0  0
   35.9570   27.8870   43.1140 H   0  0  0  0  0  0  0  0  0  0  0  0
   38.6890   26.4890   43.4650 H   0  0  0  0  0  0  0  0  0  0  0  0
   38.9360   30.3930   41.7060 C   0  0  0  0  0  0  0  0  0  0  0  0
   37.8260   29.6720   42.2590 C   0  0  0  0  0  0  0  0  0  0  0  0
   36.5690   29.9860   41.7760 C   0  0  0  0  0  0  0  0  0  0  0  0
   36.4550   30.9500   40.8140 N   0  0  0  0  0  0  0  0  0  0  0  0
   37.5050   31.6010   40.3230 C   0  0  0  0  0  0  0  0  0  0  0  0
   38.7510   31.3200   40.7720 N   0  0  0  0  0  0  0  0  0  0  0  0
   39.9270   30.1590   42.0750 H   0  0  0  0  0  0  0  0  0  0  0  0
   35.6810   29.4960   42.1320 H   0  0  0  0  0  0  0  0  0  0  0  0
   37.2710   32.6130   39.2970 C   0  0  0  0  0  0  0  0  0  0  0  0
   37.1120   32.3990   38.2480 H   0  0  0  0  0  0  0  0  0  0  0  0
   37.2550   33.8140   39.6730 O   0  0  0  0  0  0  0  0  0  0  0  0
   37.8550   26.8100   41.4560 C   0  0  0  0  0  0  0  0  0  0  0  0
   38.7300   27.4880   40.6260 F   0  0  0  0  0  0  0  0  0  0  0  0
   36.5490   27.0420   41.0220 F   0  0  0  0  0  0  0  0  0  0  0  0
   38.1380   25.4710   41.3270 F   0  0  0  0  0  0  0  0  0  0  0  0
  1  2  1  0  0  0  0
  1  4  1  1  0  0  0
  2  5  1  0  0  0  0
  3  1  1  0  0  0  0
  3  7  1  1  0  0  0
  3  2  1  0  0  0  0
  6  2  1  0  0  0  0
  8 14  1  0  0  0  0
  8  9  1  0  0  0  0
  9  1  1  0  0  0  0
 10 15  1  0  0  0  0
 10  9  2  0  0  0  0
 11 10  1  0  0  0  0
 12 13  1  0  0  0  0
 12 11  2  0  0  0  0
 13  8  2  0  0  0  0
 16 18  2  0  0  0  0
 16 12  1  0  0  0  0
 17 16  1  0  0  0  0
 19  3  1  0  0  0  0
 20 19  1  0  0  0  0
 21 19  1  0  0  0  0
 22 19  1  0  0  0  0
M  END
>  <minimizedAffinity>
-4.34148216

$$$$

 OpenBabel03242520343D

 22 23  0  0  1  0  0  0  0  0999 V2000
   36.9470   24.9090   42.0950 C   0  0  1  0  0  0  0  0  0  0  0  0
   37.5830   23.9830   41.1820 C   0  0  0  0  0  0  0  0  0  0  0  0
   38.2290   24.1900   42.5030 C   0  0  1  0  0  0  0  0  0  0  0  0
   36.0220   24.5790   42.6430 H   0  0  0  0  0  0  0  0  0  0  0  0
   37.1170   23.0000   40.9240 H   0  0  0  0  0  0  0  0  0  0  0  0
   38.1420   24.4300   40.3150 H   0  0  0  0  0  0  0  0  0  0  0  0
   38.1300   23.3190   43.1970 H   0  0  0  0  0  0  0  0  0  0  0  0
   37.2680   26.9140   40.5570 C   0  0  0  0  0  0  0  0  0  0  0  0
   37.0170   26.3700   41.8600 C   0  0  0  0  0  0  0  0  0  0  0  0
   36.8560   27.2700   42.8970 C   0  0  0  0  0  0  0  0  0  0  0  0
   36.9440   28.6070   42.6280 N   0  0  0  0  0  0  0  0  0  0  0  0
   37.1780   29.0790   41.4080 C   0  0  0  0  0  0  0  0  0  0  0  0
   37.3410   28.2270   40.3690 N   0  0  0  0  0  0  0  0  0  0  0  0
   37.3970   26.2220   39.7340 H   0  0  0  0  0  0  0  0  0  0  0  0
   36.6640   26.9510   43.9060 H   0  0  0  0  0  0  0  0  0  0  0  0
   37.2530   30.5270   41.2320 C   0  0  0  0  0  0  0  0  0  0  0  0
   38.1720   31.0990   41.2380 H   0  0  0  0  0  0  0  0  0  0  0  0
   36.1670   31.1380   41.0610 O   0  0  0  0  0  0  0  0  0  0  0  0
   39.5060   24.9400   42.6370 C   0  0  0  0  0  0  0  0  0  0  0  0
   39.4300   25.9350   43.5960 F   0  0  0  0  0  0  0  0  0  0  0  0
   39.8970   25.5100   41.4240 F   0  0  0  0  0  0  0  0  0  0  0  0
   40.4770   24.0580   43.0500 F   0  0  0  0  0  0  0  0  0  0  0  0
  1  3  1  0  0  0  0
  1  4  1  1  0  0  0
  2  1  1  0  0  0  0
  2  3  1  0  0  0  0
  3 19  1  0  0  0  0
  3  7  1  1  0  0  0
  5  2  1  0  0  0  0
  6  2  1  0  0  0  0
  8  9  1  0  0  0  0
  9  1  1  0  0  0  0
  9 10  2  0  0  0  0
 10 15  1  0  0  0  0
 11 10  1  0  0  0  0
 12 11  2  0  0  0  0
 13  8  2  0  0  0  0
 13 12  1  0  0  0  0
 14  8  1  0  0  0  0
 16 17  1  0  0  0  0
 16 12  1  0  0  0  0
 18 16  2  0  0  0  0
 19 22  1  0  0  0  0
 19 20  1  0  0  0  0
 21 19  1  0  0  0  0
M  END
>  <minimizedAffinity>
-4.20451832

$$$$

 OpenBabel03242520343D

 22 23  0  0  1  0  0  0  0  0999 V2000
   39.5130   27.4440   42.2620 C   0  0  1  0  0  0  0  0  0  0  0  0
   39.4490   27.1430   43.6770 C   0  0  0  0  0  0  0  0  0  0  0  0
   38.2320   26.8800   42.8680 C   0  0  1  0  0  0  0  0  0  0  0  0
   40.0680   26.7390   41.5840 H   0  0  0  0  0  0  0  0  0  0  0  0
   40.0280   26.2980   44.1240 H   0  0  0  0  0  0  0  0  0  0  0  0
   39.3630   28.0190   44.3770 H   0  0  0  0  0  0  0  0  0  0  0  0
   38.0210   25.7950   42.7050 H   0  0  0  0  0  0  0  0  0  0  0  0
   39.1170   29.1850   40.4460 C   0  0  0  0  0  0  0  0  0  0  0  0
   39.4960   28.8460   41.7870 C   0  0  0  0  0  0  0  0  0  0  0  0
   39.8610   29.8880   42.6190 C   0  0  0  0  0  0  0  0  0  0  0  0
   39.8420   31.1630   42.1260 N   0  0  0  0  0  0  0  0  0  0  0  0
   39.4850   31.4430   40.8770 C   0  0  0  0  0  0  0  0  0  0  0  0
   39.1220   30.4480   40.0340 N   0  0  0  0  0  0  0  0  0  0  0  0
   38.8290   28.3800   39.7810 H   0  0  0  0  0  0  0  0  0  0  0  0
   40.1590   29.7270   43.6400 H   0  0  0  0  0  0  0  0  0  0  0  0
   39.5000   32.8400   40.4520 C   0  0  0  0  0  0  0  0  0  0  0  0
   40.3440   33.3310   39.9850 H   0  0  0  0  0  0  0  0  0  0  0  0
   38.4520   33.5080   40.6500 O   0  0  0  0  0  0  0  0  0  0  0  0
   37.0170   27.7300   42.9900 C   0  0  0  0  0  0  0  0  0  0  0  0
   36.4720   28.0430   41.7580 F   0  0  0  0  0  0  0  0  0  0  0  0
   37.2850   28.9140   43.6790 F   0  0  0  0  0  0  0  0  0  0  0  0
   36.0660   27.0160   43.6800 F   0  0  0  0  0  0  0  0  0  0  0  0
  1  4  1  6  0  0  0
  1  3  1  0  0  0  0
  1  2  1  0  0  0  0
  2  5  1  0  0  0  0
  2  6  1  0  0  0  0
  3  7  1  6  0  0  0
  3 19  1  0  0  0  0
  3  2  1  0  0  0  0
  8  9  1  0  0  0  0
  9  1  1  0  0  0  0
  9 10  2  0  0  0  0
 10 15  1  0  0  0  0
 11 10  1  0  0  0  0
 12 11  2  0  0  0  0
 13  8  2  0  0  0  0
 13 12  1  0  0  0  0
 14  8  1  0  0  0  0
 16 18  2  0  0  0  0
 16 12  1  0  0  0  0
 17 16  1  0  0  0  0
 19 21  1  0  0  0  0
 19 22  1  0  0  0  0
 20 19  1  0  0  0  0
M  END
>  <minimizedAffinity>
-4.14226484

$$$$

 OpenBabel03242520343D

 22 23  0  0  1  0  0  0  0  0999 V2000
   37.0260   32.2470   40.2840 C   0  0  1  0  0  0  0  0  0  0  0  0
   38.2460   32.8820   39.8340 C   0  0  0  0  0  0  0  0  0  0  0  0
   37.2550   32.4990   38.7970 C   0  0  1  0  0  0  0  0  0  0  0  0
   36.2270   32.8830   40.7570 H   0  0  0  0  0  0  0  0  0  0  0  0
   38.4600   33.9580   40.0470 H   0  0  0  0  0  0  0  0  0  0  0  0
   39.1780   32.2520   39.8440 H   0  0  0  0  0  0  0  0  0  0  0  0
   36.7240   33.3670   38.3360 H   0  0  0  0  0  0  0  0  0  0  0  0
   35.8550   30.0280   40.7250 C   0  0  0  0  0  0  0  0  0  0  0  0
   37.0340   30.8440   40.7590 C   0  0  0  0  0  0  0  0  0  0  0  0
   38.1830   30.2680   41.2680 C   0  0  0  0  0  0  0  0  0  0  0  0
   38.1330   28.9750   41.7060 N   0  0  0  0  0  0  0  0  0  0  0  0
   37.0240   28.2450   41.6610 C   0  0  0  0  0  0  0  0  0  0  0  0
   35.8800   28.7760   41.1690 N   0  0  0  0  0  0  0  0  0  0  0  0
   34.9470   30.4650   40.3300 H   0  0  0  0  0  0  0  0  0  0  0  0
   39.1130   30.8060   41.3310 H   0  0  0  0  0  0  0  0  0  0  0  0
   37.0800   26.8720   42.1550 C   0  0  0  0  0  0  0  0  0  0  0  0
   36.3290   26.1180   41.9590 H   0  0  0  0  0  0  0  0  0  0  0  0
   38.0770   26.5580   42.8560 O   0  0  0  0  0  0  0  0  0  0  0  0
   37.4990   31.3630   37.8690 C   0  0  0  0  0  0  0  0  0  0  0  0
   36.4230   30.4960   37.8080 F   0  0  0  0  0  0  0  0  0  0  0  0
   38.6400   30.6430   38.2250 F   0  0  0  0  0  0  0  0  0  0  0  0
   37.6710   31.8770   36.6050 F   0  0  0  0  0  0  0  0  0  0  0  0
  1  4  1  1  0  0  0
  1  9  1  0  0  0  0
  2  6  1  0  0  0  0
  2  5  1  0  0  0  0
  2  1  1  0  0  0  0
  3  7  1  6  0  0  0
  3  2  1  0  0  0  0
  3  1  1  0  0  0  0
  8  9  2  0  0  0  0
  8 13  1  0  0  0  0
  9 10  1  0  0  0  0
 10 15  1  0  0  0  0
 10 11  2  0  0  0  0
 12 11  1  0  0  0  0
 12 16  1  0  0  0  0
 13 12  2  0  0  0  0
 14  8  1  0  0  0  0
 16 18  2  0  0  0  0
 17 16  1  0  0  0  0
 19 21  1  0  0  0  0
 19  3  1  0  0  0  0
 20 19  1  0  0  0  0
 22 19  1  0  0  0  0
M  END
>  <minimizedAffinity>
-4.1336174

$$$$

 OpenBabel03242520343D

 22 23  0  0  1  0  0  0  0  0999 V2000
   35.9680   28.4380   39.5780 C   0  0  1  0  0  0  0  0  0  0  0  0
   34.7570   29.1630   39.9000 C   0  0  0  0  0  0  0  0  0  0  0  0
   35.8790   29.9380   39.3110 C   0  0  1  0  0  0  0  0  0  0  0  0
   35.9830   27.7920   38.6580 H   0  0  0  0  0  0  0  0  0  0  0  0
   33.8100   29.0070   39.3270 H   0  0  0  0  0  0  0  0  0  0  0  0
   34.5670   29.3730   40.9880 H   0  0  0  0  0  0  0  0  0  0  0  0
   35.7010   30.2620   38.2570 H   0  0  0  0  0  0  0  0  0  0  0  0
   36.4860   27.9750   42.0290 C   0  0  0  0  0  0  0  0  0  0  0  0
   36.8810   27.9780   40.6500 C   0  0  0  0  0  0  0  0  0  0  0  0
   38.1620   27.5450   40.3620 C   0  0  0  0  0  0  0  0  0  0  0  0
   38.9690   27.1450   41.3890 N   0  0  0  0  0  0  0  0  0  0  0  0
   38.5720   27.1540   42.6580 C   0  0  0  0  0  0  0  0  0  0  0  0
   37.3240   27.5710   42.9780 N   0  0  0  0  0  0  0  0  0  0  0  0
   35.4860   28.3120   42.2710 H   0  0  0  0  0  0  0  0  0  0  0  0
   38.5420   27.5140   39.3560 H   0  0  0  0  0  0  0  0  0  0  0  0
   39.5150   26.7050   43.6790 C   0  0  0  0  0  0  0  0  0  0  0  0
   39.9170   27.3350   44.4610 H   0  0  0  0  0  0  0  0  0  0  0  0
   39.8750   25.5000   43.6330 O   0  0  0  0  0  0  0  0  0  0  0  0
   36.6730   30.8970   40.1230 C   0  0  0  0  0  0  0  0  0  0  0  0
   38.0140   30.5590   40.1690 F   0  0  0  0  0  0  0  0  0  0  0  0
   36.1870   30.9930   41.4280 F   0  0  0  0  0  0  0  0  0  0  0  0
   36.5910   32.1320   39.5240 F   0  0  0  0  0  0  0  0  0  0  0  0
  1  4  1  6  0  0  0
  1  2  1  0  0  0  0
  1  9  1  0  0  0  0
  2  6  1  0  0  0  0
  3  7  1  6  0  0  0
  3  1  1  0  0  0  0
  3  2  1  0  0  0  0
  3 19  1  0  0  0  0
  5  2  1  0  0  0  0
  8 14  1  0  0  0  0
  8 13  1  0  0  0  0
  9  8  2  0  0  0  0
 10  9  1  0  0  0  0
 10 11  2  0  0  0  0
 11 12  1  0  0  0  0
 12 13  2  0  0  0  0
 12 16  1  0  0  0  0
 15 10  1  0  0  0  0
 16 17  1  0  0  0  0
 18 16  2  0  0  0  0
 19 20  1  0  0  0  0
 19 21  1  0  0  0  0
 22 19  1  0  0  0  0
M  END
>  <minimizedAffinity>
-4.1300211

$$$$

 OpenBabel03242520343D

 22 23  0  0  1  0  0  0  0  0999 V2000
   38.5260   27.8840   40.8600 C   0  0  1  0  0  0  0  0  0  0  0  0
   39.1570   27.5830   42.1280 C   0  0  0  0  0  0  0  0  0  0  0  0
   37.7320   27.1970   41.9670 C   0  0  1  0  0  0  0  0  0  0  0  0
   38.7610   27.2350   39.9720 H   0  0  0  0  0  0  0  0  0  0  0  0
   39.9510   26.8020   42.2170 H   0  0  0  0  0  0  0  0  0  0  0  0
   39.3290   28.4480   42.8250 H   0  0  0  0  0  0  0  0  0  0  0  0
   37.5680   26.0960   41.8740 H   0  0  0  0  0  0  0  0  0  0  0  0
   37.1920   29.5700   39.4950 C   0  0  0  0  0  0  0  0  0  0  0  0
   38.1630   29.2760   40.5080 C   0  0  0  0  0  0  0  0  0  0  0  0
   38.7620   30.3520   41.1370 C   0  0  0  0  0  0  0  0  0  0  0  0
   38.4010   31.6160   40.7650 N   0  0  0  0  0  0  0  0  0  0  0  0
   37.4970   31.8560   39.8210 C   0  0  0  0  0  0  0  0  0  0  0  0
   36.8900   30.8260   39.1840 N   0  0  0  0  0  0  0  0  0  0  0  0
   36.7140   28.7380   38.9930 H   0  0  0  0  0  0  0  0  0  0  0  0
   39.5000   30.2250   41.9090 H   0  0  0  0  0  0  0  0  0  0  0  0
   37.1850   33.2460   39.5010 C   0  0  0  0  0  0  0  0  0  0  0  0
   36.3710   33.5600   38.8610 H   0  0  0  0  0  0  0  0  0  0  0  0
   37.9220   34.1280   40.0100 O   0  0  0  0  0  0  0  0  0  0  0  0
   36.6440   27.9220   42.6760 C   0  0  0  0  0  0  0  0  0  0  0  0
   36.0290   27.1360   43.6340 F   0  0  0  0  0  0  0  0  0  0  0  0
   35.6750   28.3930   41.7880 F   0  0  0  0  0  0  0  0  0  0  0  0
   37.2040   28.9920   43.3340 F   0  0  0  0  0  0  0  0  0  0  0  0
  1  4  1  6  0  0  0
  1  3  1  0  0  0  0
  1  2  1  0  0  0  0
  2  5  1  0  0  0  0
  2  6  1  0  0  0  0
  3  7  1  6  0  0  0
  3  2  1  0  0  0  0
  3 19  1  0  0  0  0
  8  9  1  0  0  0  0
  9  1  1  0  0  0  0
  9 10  2  0  0  0  0
 10 15  1  0  0  0  0
 11 10  1  0  0  0  0
 12 11  2  0  0  0  0
 13  8  2  0  0  0  0
 13 12  1  0  0  0  0
 14  8  1  0  0  0  0
 16 12  1  0  0  0  0
 16 18  2  0  0  0  0
 17 16  1  0  0  0  0
 19 22  1  0  0  0  0
 19 20  1  0  0  0  0
 21 19  1  0  0  0  0
M  END
>  <minimizedAffinity>
-4.0905509

$$$$

 OpenBabel03242520343D

 22 23  0  0  1  0  0  0  0  0999 V2000
   39.5210   26.9270   42.3510 C   0  0  1  0  0  0  0  0  0  0  0  0
   39.2460   26.4220   43.6800 C   0  0  0  0  0  0  0  0  0  0  0  0
   38.6960   25.6570   42.5320 C   0  0  1  0  0  0  0  0  0  0  0  0
   40.5450   26.7710   41.9140 H   0  0  0  0  0  0  0  0  0  0  0  0
   40.0530   25.9870   44.3200 H   0  0  0  0  0  0  0  0  0  0  0  0
   38.4750   26.9760   44.2830 H   0  0  0  0  0  0  0  0  0  0  0  0
   39.2100   24.6810   42.3500 H   0  0  0  0  0  0  0  0  0  0  0  0
   38.0690   28.9900   42.7110 C   0  0  0  0  0  0  0  0  0  0  0  0
   38.8300   28.1360   41.8450 C   0  0  0  0  0  0  0  0  0  0  0  0
   38.8810   28.4820   40.5070 C   0  0  0  0  0  0  0  0  0  0  0  0
   38.2140   29.5990   40.0900 N   0  0  0  0  0  0  0  0  0  0  0  0
   37.5170   30.3700   40.9180 C   0  0  0  0  0  0  0  0  0  0  0  0
   37.4450   30.0620   42.2350 N   0  0  0  0  0  0  0  0  0  0  0  0
   38.0190   28.7320   43.7610 H   0  0  0  0  0  0  0  0  0  0  0  0
   39.4280   27.9000   39.7870 H   0  0  0  0  0  0  0  0  0  0  0  0
   36.8420   31.5410   40.3680 C   0  0  0  0  0  0  0  0  0  0  0  0
   35.8160   31.5520   40.0230 H   0  0  0  0  0  0  0  0  0  0  0  0
   37.5110   32.6040   40.2940 O   0  0  0  0  0  0  0  0  0  0  0  0
   37.2410   25.6520   42.2260 C   0  0  0  0  0  0  0  0  0  0  0  0
   36.6860   24.3900   42.3400 F   0  0  0  0  0  0  0  0  0  0  0  0
   36.9830   26.1440   40.9450 F   0  0  0  0  0  0  0  0  0  0  0  0
   36.6090   26.4530   43.1480 F   0  0  0  0  0  0  0  0  0  0  0  0
  1  4  1  6  0  0  0
  1  3  1  0  0  0  0
  1  2  1  0  0  0  0
  2  6  1  0  0  0  0
  2  5  1  0  0  0  0
  3  7  1  6  0  0  0
  3  2  1  0  0  0  0
  8 14  1  0  0  0  0
  9  1  1  0  0  0  0
  9  8  2  0  0  0  0
 10  9  1  0  0  0  0
 11 10  2  0  0  0  0
 11 12  1  0  0  0  0
 12 13  2  0  0  0  0
 13  8  1  0  0  0  0
 15 10  1  0  0  0  0
 16 12  1  0  0  0  0
 17 16  1  0  0  0  0
 18 16  2  0  0  0  0
 19 20  1  0  0  0  0
 19  3  1  0  0  0  0
 19 22  1  0  0  0  0
 21 19  1  0  0  0  0
M  END
>  <minimizedAffinity>
-4.07358027

$$$$

 OpenBabel03242520343D

 22 23  0  0  1  0  0  0  0  0999 V2000
   36.6520   27.7630   42.6300 C   0  0  1  0  0  0  0  0  0  0  0  0
   37.0610   26.3770   42.5400 C   0  0  0  0  0  0  0  0  0  0  0  0
   37.9100   27.2870   43.3500 C   0  0  1  0  0  0  0  0  0  0  0  0
   35.7920   28.0310   43.3020 H   0  0  0  0  0  0  0  0  0  0  0  0
   36.4740   25.5600   43.0280 H   0  0  0  0  0  0  0  0  0  0  0  0
   37.5240   26.0480   41.5700 H   0  0  0  0  0  0  0  0  0  0  0  0
   37.8360   27.1140   44.4520 H   0  0  0  0  0  0  0  0  0  0  0  0
   36.8780   30.0990   41.6400 C   0  0  0  0  0  0  0  0  0  0  0  0
   36.8190   28.6760   41.4750 C   0  0  0  0  0  0  0  0  0  0  0  0
   36.9100   28.1880   40.1850 C   0  0  0  0  0  0  0  0  0  0  0  0
   37.0490   29.0740   39.1540 N   0  0  0  0  0  0  0  0  0  0  0  0
   37.1000   30.3890   39.3410 C   0  0  0  0  0  0  0  0  0  0  0  0
   37.0140   30.9020   40.5910 N   0  0  0  0  0  0  0  0  0  0  0  0
   36.8070   30.4970   42.6450 H   0  0  0  0  0  0  0  0  0  0  0  0
   36.8760   27.1350   39.9680 H   0  0  0  0  0  0  0  0  0  0  0  0
   37.2500   31.2470   38.1690 C   0  0  0  0  0  0  0  0  0  0  0  0
   37.3130   32.3270   38.2030 H   0  0  0  0  0  0  0  0  0  0  0  0
   37.3090   30.6780   37.0480 O   0  0  0  0  0  0  0  0  0  0  0  0
   39.2550   27.7170   42.8840 C   0  0  0  0  0  0  0  0  0  0  0  0
   39.4420   29.0820   43.0130 F   0  0  0  0  0  0  0  0  0  0  0  0
   39.4800   27.3540   41.5550 F   0  0  0  0  0  0  0  0  0  0  0  0
   40.1960   27.1060   43.6790 F   0  0  0  0  0  0  0  0  0  0  0  0
  1  4  1  1  0  0  0
  1  3  1  0  0  0  0
  2  1  1  0  0  0  0
  2  5  1  0  0  0  0
  2  3  1  0  0  0  0
  3  7  1  1  0  0  0
  6  2  1  0  0  0  0
  8 14  1  0  0  0  0
  9  8  1  0  0  0  0
  9  1  1  0  0  0  0
 10  9  2  0  0  0  0
 11 12  2  0  0  0  0
 11 10  1  0  0  0  0
 12 13  1  0  0  0  0
 13  8  2  0  0  0  0
 15 10  1  0  0  0  0
 16 17  1  0  0  0  0
 16 12  1  0  0  0  0
 18 16  2  0  0  0  0
 19 20  1  0  0  0  0
 19  3  1  0  0  0  0
 19 22  1  0  0  0  0
 21 19  1  0  0  0  0
M  END
>  <minimizedAffinity>
-4.07299805

$$$$

 OpenBabel03242520343D

 22 23  0  0  1  0  0  0  0  0999 V2000
   36.0930   28.5930   40.7940 C   0  0  1  0  0  0  0  0  0  0  0  0
   36.6260   27.2710   40.5420 C   0  0  0  0  0  0  0  0  0  0  0  0
   36.5750   27.7270   41.9540 C   0  0  1  0  0  0  0  0  0  0  0  0
   34.9800   28.7460   40.7450 H   0  0  0  0  0  0  0  0  0  0  0  0
   35.9740   26.4340   40.1900 H   0  0  0  0  0  0  0  0  0  0  0  0
   37.6610   27.2170   40.1070 H   0  0  0  0  0  0  0  0  0  0  0  0
   35.7950   27.2130   42.5690 H   0  0  0  0  0  0  0  0  0  0  0  0
   37.9980   29.7500   39.5610 C   0  0  0  0  0  0  0  0  0  0  0  0
   36.8800   29.8020   40.4590 C   0  0  0  0  0  0  0  0  0  0  0  0
   36.5740   31.0320   41.0120 C   0  0  0  0  0  0  0  0  0  0  0  0
   37.3420   32.1120   40.6800 N   0  0  0  0  0  0  0  0  0  0  0  0
   38.3720   32.0310   39.8440 C   0  0  0  0  0  0  0  0  0  0  0  0
   38.7010   30.8430   39.2830 N   0  0  0  0  0  0  0  0  0  0  0  0
   38.2510   28.7940   39.1200 H   0  0  0  0  0  0  0  0  0  0  0  0
   35.7530   31.1630   41.6940 H   0  0  0  0  0  0  0  0  0  0  0  0
   39.1260   33.2480   39.5570 C   0  0  0  0  0  0  0  0  0  0  0  0
   39.4970   33.5230   38.5780 H   0  0  0  0  0  0  0  0  0  0  0  0
   39.3510   34.0210   40.5230 O   0  0  0  0  0  0  0  0  0  0  0  0
   37.8090   28.0860   42.7020 C   0  0  0  0  0  0  0  0  0  0  0  0
   37.6970   29.3080   43.3410 F   0  0  0  0  0  0  0  0  0  0  0  0
   38.9270   28.1130   41.8670 F   0  0  0  0  0  0  0  0  0  0  0  0
   38.0040   27.1390   43.6790 F   0  0  0  0  0  0  0  0  0  0  0  0
  1  4  1  6  0  0  0
  1  3  1  0  0  0  0
  2  1  1  0  0  0  0
  2  3  1  0  0  0  0
  3  7  1  1  0  0  0
  3 19  1  0  0  0  0
  5  2  1  0  0  0  0
  6  2  1  0  0  0  0
  8  9  1  0  0  0  0
  9  1  1  0  0  0  0
  9 10  2  0  0  0  0
 10 15  1  0  0  0  0
 11 10  1  0  0  0  0
 12 11  2  0  0  0  0
 13  8  2  0  0  0  0
 13 12  1  0  0  0  0
 14  8  1  0  0  0  0
 16 12  1  0  0  0  0
 16 18  2  0  0  0  0
 17 16  1  0  0  0  0
 19 20  1  0  0  0  0
 19 22  1  0  0  0  0
 21 19  1  0  0  0  0
M  END
>  <minimizedAffinity>
-4.02628183

$$$$
