
 OpenBabel03252501053D

 34 36  0  0  1  0  0  0  0  0999 V2000
   47.7400   34.1620   39.7910 O   0  0  0  0  0  0  0  0  0  0  0  0
   48.0840   35.4560   41.8050 C   0  0  1  0  0  0  0  0  0  0  0  0
   49.3150   34.6650   41.6680 C   0  0  0  0  0  0  0  0  0  0  0  0
   48.4740   35.0770   40.4470 C   0  0  1  0  0  0  0  0  0  0  0  0
   48.1830   36.5060   42.1610 H   0  0  0  0  0  0  0  0  0  0  0  0
   49.3030   33.5450   41.7940 H   0  0  0  0  0  0  0  0  0  0  0  0
   50.3160   35.0700   41.8050 H   0  0  0  0  0  0  0  0  0  0  0  0
   49.0630   35.7610   39.8050 H   0  0  0  0  0  0  0  0  0  0  0  0
   46.0460   32.9160   43.7420 C   0  0  0  0  0  0  0  0  0  0  0  0
   47.1400   33.5980   43.2210 C   0  0  0  0  0  0  0  0  0  0  0  0
   46.9160   34.7160   42.3930 C   0  0  0  0  0  0  0  0  0  0  0  0
   45.6410   35.1010   42.1250 N   0  0  0  0  0  0  0  0  0  0  0  0
   44.5880   34.4160   42.6500 C   0  0  0  0  0  0  0  0  0  0  0  0
   44.7910   33.3280   43.4550 N   0  0  0  0  0  0  0  0  0  0  0  0
   46.2130   32.0670   44.3720 H   0  0  0  0  0  0  0  0  0  0  0  0
   48.1310   33.2600   43.4560 H   0  0  0  0  0  0  0  0  0  0  0  0
   43.5820   34.7410   42.4230 H   0  0  0  0  0  0  0  0  0  0  0  0
   48.5540   32.3940   38.0220 O   0  0  0  0  0  0  0  0  0  0  0  0
   48.1030   33.8390   38.2290 P   0  0  2  0  0  0  0  0  0  0  0  0
   49.3380   34.7930   37.5720 O   0  0  0  0  0  0  0  0  0  0  0  0
   49.1220   35.1980   36.7120 H   0  0  0  0  0  0  0  0  0  0  0  0
   46.7520   34.0070   37.2460 O   0  0  0  0  0  0  0  0  0  0  0  0
   45.7480   33.0660   37.1270 C   0  0  0  0  0  0  0  0  0  0  0  0
   45.5710   32.1140   36.1490 C   0  0  0  0  0  0  0  0  0  0  0  0
   44.5260   31.2480   36.1640 C   0  0  0  0  0  0  0  0  0  0  0  0
   43.6000   31.3070   37.1840 C   0  0  0  0  0  0  0  0  0  0  0  0
   43.7990   32.2780   38.1640 C   0  0  0  0  0  0  0  0  0  0  0  0
   44.8590   33.1300   38.1150 N   0  0  0  0  0  0  0  0  0  0  0  0
   46.3420   32.1240   35.3710 H   0  0  0  0  0  0  0  0  0  0  0  0
   44.4350   30.5180   35.3690 H   0  0  0  0  0  0  0  0  0  0  0  0
   42.7620   30.6390   37.2270 H   0  0  0  0  0  0  0  0  0  0  0  0
   42.8300   32.3740   39.2720 C   0  0  0  0  0  0  0  0  0  0  0  0
   41.8440   32.7630   39.0640 H   0  0  0  0  0  0  0  0  0  0  0  0
   43.1640   32.0070   40.4280 O   0  0  0  0  0  0  0  0  0  0  0  0
  1  4  1  0  0  0  0
  2  5  1  1  0  0  0
  2 11  1  0  0  0  0
  3  6  1  0  0  0  0
  3  7  1  0  0  0  0
  3  2  1  0  0  0  0
  4  8  1  6  0  0  0
  4  3  1  0  0  0  0
  4  2  1  0  0  0  0
  9 15  1  0  0  0  0
 10 16  1  0  0  0  0
 10  9  2  0  0  0  0
 11 10  1  0  0  0  0
 12 11  2  0  0  0  0
 12 13  1  0  0  0  0
 13 14  2  0  0  0  0
 14  9  1  0  0  0  0
 17 13  1  0  0  0  0
 19 18  2  6  0  0  0
 19  1  1  0  0  0  0
 20 19  1  0  0  0  0
 21 20  1  0  0  0  0
 22 19  1  0  0  0  0
 23 22  1  0  0  0  0
 23 28  1  0  0  0  0
 24 25  1  0  0  0  0
 24 23  2  0  0  0  0
 25 26  2  0  0  0  0
 26 31  1  0  0  0  0
 26 27  1  0  0  0  0
 27 32  1  0  0  0  0
 28 27  2  0  0  0  0
 29 24  1  0  0  0  0
 30 25  1  0  0  0  0
 32 34  2  0  0  0  0
 33 32  1  0  0  0  0
M  END
>  <minimizedAffinity>
-4.27718353

>  <minimizedRMSD>
0.233605772

$$$$
