
 OpenBabel03252509143D

 39 42  0  0  1  0  0  0  0  0999 V2000
   47.4810   32.7270   43.7180 C   0  0  0  0  0  0  0  0  0  0  0  0
   46.7190   33.5510   42.8940 C   0  0  0  0  0  0  0  0  0  0  0  0
   45.6560   34.2990   43.3680 C   0  0  0  0  0  0  0  0  0  0  0  0
   45.3170   34.2390   44.7240 C   0  0  0  0  0  0  0  0  0  0  0  0
   44.3900   34.8000   45.5080 N   0  0  0  0  0  0  0  0  0  0  0  0
   44.5190   34.3820   46.7700 C   0  0  0  0  0  0  0  0  0  0  0  0
   45.5700   33.5310   46.7550 N   0  0  0  0  0  0  0  0  0  0  0  0
   46.0820   33.4220   45.5110 C   0  0  0  0  0  0  0  0  0  0  0  0
   47.1530   32.6580   45.0750 C   0  0  0  0  0  0  0  0  0  0  0  0
   48.3140   32.1450   43.3300 H   0  0  0  0  0  0  0  0  0  0  0  0
   43.6610   35.4760   45.1750 H   0  0  0  0  0  0  0  0  0  0  0  0
   43.9160   34.6560   47.6390 H   0  0  0  0  0  0  0  0  0  0  0  0
   47.7150   32.0330   45.7530 H   0  0  0  0  0  0  0  0  0  0  0  0
   46.8190   32.7650   39.3180 C   0  0  0  0  0  0  0  0  0  0  0  0
   47.6640   33.7530   38.8080 C   0  0  0  0  0  0  0  0  0  0  0  0
   48.1950   34.6880   39.7020 C   0  0  0  0  0  0  0  0  0  0  0  0
   47.8700   34.5990   41.0330 N   0  0  0  0  0  0  0  0  0  0  0  0
   47.0540   33.6290   41.4720 C   0  0  0  0  0  0  0  0  0  0  0  0
   46.5150   32.7010   40.6430 N   0  0  0  0  0  0  0  0  0  0  0  0
   46.3610   32.0000   38.6980 H   0  0  0  0  0  0  0  0  0  0  0  0
   47.8530   33.7350   37.7610 H   0  0  0  0  0  0  0  0  0  0  0  0
   48.8440   35.4490   39.3210 H   0  0  0  0  0  0  0  0  0  0  0  0
   44.6990   35.3440   42.2930 S   0  0  0  0  0  0  0  0  0  0  0  0
   42.4500   34.0170   42.0300 N   0  0  0  0  0  0  0  0  0  0  0  0
   43.5750   34.4360   41.2090 C   0  0  1  0  0  0  0  0  0  0  0  0
   43.1270   35.4360   40.1420 C   0  0  0  0  0  0  0  0  0  0  0  0
   41.9450   35.0780   39.5270 O   0  0  0  0  0  0  0  0  0  0  0  0
   41.4940   33.8070   39.7810 C   0  0  0  0  0  0  0  0  0  0  0  0
   41.3000   33.6500   41.2700 C   0  0  1  0  0  0  0  0  0  0  0  0
   42.7940   33.3120   42.6890 H   0  0  0  0  0  0  0  0  0  0  0  0
   44.1110   33.5700   40.7750 H   0  0  0  0  0  0  0  0  0  0  0  0
   43.8630   35.4390   39.3430 H   0  0  0  0  0  0  0  0  0  0  0  0
   43.0600   36.4500   40.5530 H   0  0  0  0  0  0  0  0  0  0  0  0
   42.2060   33.0200   39.4740 H   0  0  0  0  0  0  0  0  0  0  0  0
   40.5390   33.6750   39.2770 H   0  0  0  0  0  0  0  0  0  0  0  0
   40.4110   34.2680   41.5510 H   0  0  0  0  0  0  0  0  0  0  0  0
   40.9970   32.2180   41.5490 C   0  0  0  0  0  0  0  0  0  0  0  0
   41.5480   31.3600   41.2050 H   0  0  0  0  0  0  0  0  0  0  0  0
   40.0230   32.0110   42.2390 O   0  0  0  0  0  0  0  0  0  0  0  0
  1  9  1  0  0  0  0
  2  3  1  0  0  0  0
  2  1  2  0  0  0  0
  3  4  2  0  0  0  0
  4  5  1  0  0  0  0
  4  8  1  0  0  0  0
  5  6  1  0  0  0  0
  6 12  1  0  0  0  0
  7  6  2  0  0  0  0
  8  7  1  0  0  0  0
  9  8  2  0  0  0  0
  9 13  1  0  0  0  0
 10  1  1  0  0  0  0
 11  5  1  0  0  0  0
 14 19  1  0  0  0  0
 15 14  2  0  0  0  0
 15 16  1  0  0  0  0
 16 17  2  0  0  0  0
 17 18  1  0  0  0  0
 18  2  1  0  0  0  0
 19 18  2  0  0  0  0
 20 14  1  0  0  0  0
 21 15  1  0  0  0  0
 22 16  1  0  0  0  0
 23  3  1  0  0  0  0
 24 30  1  0  0  0  0
 25 31  1  6  0  0  0
 25 24  1  0  0  0  0
 25 23  1  0  0  0  0
 26 33  1  0  0  0  0
 26 25  1  0  0  0  0
 27 28  1  0  0  0  0
 27 26  1  0  0  0  0
 28 29  1  0  0  0  0
 29 37  1  0  0  0  0
 29 36  1  1  0  0  0
 29 24  1  0  0  0  0
 32 26  1  0  0  0  0
 34 28  1  0  0  0  0
 35 28  1  0  0  0  0
 37 39  2  0  0  0  0
 38 37  1  0  0  0  0
M  END
>  <minimizedAffinity>
-5.21811771

>  <minimizedRMSD>
1.35097754

$$$$
