REMARK  Name = 
REMARK  4 active torsions:
REMARK  status: ('A' for Active; 'I' for Inactive)
REMARK    1  A    between atoms: C_2  and  C_14
REMARK    2  A    between atoms: C_3  and  S_16
REMARK    3  A    between atoms: S_16  and  C_18
REMARK    4  A    between atoms: C_22  and  C_37
REMARK                            x       y       z     vdW  Elec       q    Type
REMARK                         _______ _______ _______ _____ _____    ______ ____
ROOT
ATOM      1  C   UNK A   0      47.539  32.681  44.271  0.00  0.00    +0.000 A 
ATOM      2  C   UNK A   0      46.843  33.651  43.556  0.00  0.00    +0.000 A 
ATOM      3  C   UNK A   0      45.787  34.361  44.099  0.00  0.00    +0.000 A 
ATOM      4  C   UNK A   0      45.388  34.110  45.416  0.00  0.00    +0.000 A 
ATOM      5  N   UNK A   0      44.448  34.583  46.241  0.00  0.00    +0.000 N 
ATOM      6  C   UNK A   0      44.508  33.973  47.428  0.00  0.00    +0.000 A 
ATOM      7  N   UNK A   0      45.528  33.092  47.322  0.00  0.00    +0.000 NA
ATOM      8  C   UNK A   0      46.089  33.152  46.096  0.00  0.00    +0.000 A 
ATOM      9  C   UNK A   0      47.151  32.420  45.588  0.00  0.00    +0.000 A 
ATOM     10  H   UNK A   0      48.367  32.130  43.830  0.00  0.00    +0.000 HD
ATOM     11  H   UNK A   0      43.758  35.331  45.989  0.00  0.00    +0.000 HD
ATOM     12  H   UNK A   0      43.878  34.137  48.306  0.00  0.00    +0.000 HD
ATOM     13  H   UNK A   0      47.661  31.677  46.183  0.00  0.00    +0.000 HD
ENDROOT
BRANCH   2  18
ATOM     14  C   UNK A   0      47.064  33.418  39.907  0.00  0.00    +0.000 A 
ATOM     15  C   UNK A   0      47.969  34.432  39.587  0.00  0.00    +0.000 A 
ATOM     16  C   UNK A   0      48.499  35.193  40.633  0.00  0.00    +0.000 A 
ATOM     17  N   UNK A   0      48.114  34.917  41.922  0.00  0.00    +0.000 NA
ATOM     18  C   UNK A   0      47.241  33.930  42.176  0.00  0.00    +0.000 A 
ATOM     19  N   UNK A   0      46.701  33.166  41.194  0.00  0.00    +0.000 NA
ATOM     20  H   UNK A   0      46.603  32.778  39.160  0.00  0.00    +0.000 HD
ATOM     21  H   UNK A   0      48.202  34.566  38.557  0.00  0.00    +0.000 HD
ATOM     22  H   UNK A   0      49.193  35.973  40.399  0.00  0.00    +0.000 HD
ENDBRANCH   2  18
BRANCH   3  23
ATOM     23  S   UNK A   0      44.914  35.596  43.162  0.00  0.00    +0.000 S 
BRANCH  23  25
ATOM     24  N   UNK A   1      42.332  35.625  42.694  0.00  0.00    +0.000 NA
ATOM     25  C   UNK A   0      43.522  34.940  42.216  0.00  0.00    +0.000 C 
ATOM     26  C   UNK A   1      43.806  35.297  40.756  0.00  0.00    +0.000 C 
ATOM     27  O   UNK A   1      42.673  35.299  39.969  0.00  0.00    +0.000 OA
ATOM     28  C   UNK A   1      41.544  34.764  40.536  0.00  0.00    +0.000 C 
ATOM     29  C   UNK A   1      41.225  35.530  41.798  0.00  0.00    +0.000 C 
ATOM     30  H   UNK A   1      42.159  35.311  43.653  0.00  0.00    +0.000 HD
ATOM     31  H   UNK A   0      43.458  33.846  42.376  0.00  0.00    +0.000 HD
ATOM     32  H   UNK A   1      44.436  34.521  40.329  0.00  0.00    +0.000 HD
ATOM     33  H   UNK A   1      44.336  36.253  40.678  0.00  0.00    +0.000 HD
ATOM     34  H   UNK A   1      41.662  33.707  40.834  0.00  0.00    +0.000 HD
ATOM     35  H   UNK A   1      40.722  34.873  39.832  0.00  0.00    +0.000 HD
ATOM     36  H   UNK A   1      40.866  36.542  41.484  0.00  0.00    +0.000 HD
BRANCH  29  37
ATOM     37  C   UNK A   1      40.118  34.824  42.502  0.00  0.00    +0.000 C 
ATOM     38  H   UNK A   1      39.061  34.958  42.346  0.00  0.00    +0.000 HD
ATOM     39  O   UNK A   1      40.457  34.017  43.337  0.00  0.00    +0.000 OA
ENDBRANCH  29  37
ENDBRANCH  23  25
ENDBRANCH   3  23
TORSDOF 4
