
 OpenBabel03252509133D

 39 42  0  0  1  0  0  0  0  0999 V2000
   47.4390   32.5800   44.1880 C   0  0  0  0  0  0  0  0  0  0  0  0
   46.7410   33.5370   43.4580 C   0  0  0  0  0  0  0  0  0  0  0  0
   45.7200   34.2930   44.0060 C   0  0  0  0  0  0  0  0  0  0  0  0
   45.3600   34.1050   45.3450 C   0  0  0  0  0  0  0  0  0  0  0  0
   44.4600   34.6330   46.1810 N   0  0  0  0  0  0  0  0  0  0  0  0
   44.5470   34.0690   47.3890 C   0  0  0  0  0  0  0  0  0  0  0  0
   45.5430   33.1610   47.2850 N   0  0  0  0  0  0  0  0  0  0  0  0
   46.0630   33.1580   46.0400 C   0  0  0  0  0  0  0  0  0  0  0  0
   47.0900   32.3820   45.5270 C   0  0  0  0  0  0  0  0  0  0  0  0
   48.2390   31.9930   43.7430 H   0  0  0  0  0  0  0  0  0  0  0  0
   43.7790   35.3860   45.9210 H   0  0  0  0  0  0  0  0  0  0  0  0
   43.9510   34.2830   48.2800 H   0  0  0  0  0  0  0  0  0  0  0  0
   47.6030   31.6510   46.1350 H   0  0  0  0  0  0  0  0  0  0  0  0
   46.8850   33.1090   39.8230 C   0  0  0  0  0  0  0  0  0  0  0  0
   47.7490   34.1310   39.4250 C   0  0  0  0  0  0  0  0  0  0  0  0
   48.2780   34.9650   40.4150 C   0  0  0  0  0  0  0  0  0  0  0  0
   47.9320   34.7490   41.7260 N   0  0  0  0  0  0  0  0  0  0  0  0
   47.0970   33.7510   42.0550 C   0  0  0  0  0  0  0  0  0  0  0  0
   46.5600   32.9180   41.1300 N   0  0  0  0  0  0  0  0  0  0  0  0
   46.4280   32.4140   39.1240 H   0  0  0  0  0  0  0  0  0  0  0  0
   47.9540   34.2150   38.3840 H   0  0  0  0  0  0  0  0  0  0  0  0
   48.9410   35.7520   40.1210 H   0  0  0  0  0  0  0  0  0  0  0  0
   44.8430   35.5100   43.0490 S   0  0  0  0  0  0  0  0  0  0  0  0
   42.2990   35.3990   42.4160 N   0  0  0  0  0  0  0  0  0  0  0  0
   43.5590   34.8120   41.9890 C   0  0  1  0  0  0  0  0  0  0  0  0
   43.9090   35.2520   40.5660 C   0  0  0  0  0  0  0  0  0  0  0  0
   42.8290   35.2180   39.7080 O   0  0  0  0  0  0  0  0  0  0  0  0
   41.7040   34.5890   40.1780 C   0  0  0  0  0  0  0  0  0  0  0  0
   41.2580   35.2760   41.4470 C   0  0  1  0  0  0  0  0  0  0  0  0
   42.0880   35.0320   43.3480 H   0  0  0  0  0  0  0  0  0  0  0  0
   43.5560   33.7100   42.0990 H   0  0  0  0  0  0  0  0  0  0  0  0
   44.6130   34.5360   40.1490 H   0  0  0  0  0  0  0  0  0  0  0  0
   44.3790   36.2410   40.5620 H   0  0  0  0  0  0  0  0  0  0  0  0
   41.8720   33.5290   40.4400 H   0  0  0  0  0  0  0  0  0  0  0  0
   40.9220   34.6780   39.4270 H   0  0  0  0  0  0  0  0  0  0  0  0
   40.8540   36.2770   41.1520 H   0  0  0  0  0  0  0  0  0  0  0  0
   40.1580   34.4710   42.0480 C   0  0  0  0  0  0  0  0  0  0  0  0
   39.7310   34.5880   43.0300 H   0  0  0  0  0  0  0  0  0  0  0  0
   39.7030   33.5970   41.3470 O   0  0  0  0  0  0  0  0  0  0  0  0
  1  9  1  0  0  0  0
  2  3  1  0  0  0  0
  2  1  2  0  0  0  0
  3  4  2  0  0  0  0
  4  8  1  0  0  0  0
  4  5  1  0  0  0  0
  5  6  1  0  0  0  0
  6 12  1  0  0  0  0
  7  6  2  0  0  0  0
  8  7  1  0  0  0  0
  9  8  2  0  0  0  0
  9 13  1  0  0  0  0
 10  1  1  0  0  0  0
 11  5  1  0  0  0  0
 14 19  1  0  0  0  0
 15 14  2  0  0  0  0
 15 16  1  0  0  0  0
 16 17  2  0  0  0  0
 17 18  1  0  0  0  0
 18  2  1  0  0  0  0
 19 18  2  0  0  0  0
 20 14  1  0  0  0  0
 21 15  1  0  0  0  0
 22 16  1  0  0  0  0
 23  3  1  0  0  0  0
 24 30  1  0  0  0  0
 25 31  1  1  0  0  0
 25 24  1  0  0  0  0
 25 23  1  0  0  0  0
 26 25  1  0  0  0  0
 27 28  1  0  0  0  0
 27 26  1  0  0  0  0
 28 34  1  0  0  0  0
 28 29  1  0  0  0  0
 29 36  1  6  0  0  0
 29 37  1  0  0  0  0
 29 24  1  0  0  0  0
 32 26  1  0  0  0  0
 33 26  1  0  0  0  0
 35 28  1  0  0  0  0
 37 38  1  0  0  0  0
 39 37  2  0  0  0  0
M  END
>  <minimizedAffinity>
-5.69498968

>  <minimizedRMSD>
0.31123516

$$$$
