
 OpenBabel03252509143D

 39 42  0  0  1  0  0  0  0  0999 V2000
   47.4790   32.5940   44.2510 C   0  0  0  0  0  0  0  0  0  0  0  0
   46.7860   33.5580   43.5260 C   0  0  0  0  0  0  0  0  0  0  0  0
   45.7520   34.2980   44.0710 C   0  0  0  0  0  0  0  0  0  0  0  0
   45.3730   34.0840   45.4000 C   0  0  0  0  0  0  0  0  0  0  0  0
   44.4560   34.5920   46.2310 N   0  0  0  0  0  0  0  0  0  0  0  0
   44.5280   34.0080   47.4300 C   0  0  0  0  0  0  0  0  0  0  0  0
   45.5310   33.1080   47.3270 N   0  0  0  0  0  0  0  0  0  0  0  0
   46.0710   33.1310   46.0900 C   0  0  0  0  0  0  0  0  0  0  0  0
   47.1110   32.3700   45.5800 C   0  0  0  0  0  0  0  0  0  0  0  0
   48.2900   32.0190   43.8080 H   0  0  0  0  0  0  0  0  0  0  0  0
   43.7740   35.3450   45.9740 H   0  0  0  0  0  0  0  0  0  0  0  0
   43.9170   34.2030   48.3150 H   0  0  0  0  0  0  0  0  0  0  0  0
   47.6200   31.6320   46.1830 H   0  0  0  0  0  0  0  0  0  0  0  0
   47.0060   33.1810   39.8890 C   0  0  0  0  0  0  0  0  0  0  0  0
   47.8540   34.2270   39.5200 C   0  0  0  0  0  0  0  0  0  0  0  0
   48.3460   35.0600   40.5300 C   0  0  0  0  0  0  0  0  0  0  0  0
   47.9810   34.8190   41.8320 N   0  0  0  0  0  0  0  0  0  0  0  0
   47.1630   33.7990   42.1330 C   0  0  0  0  0  0  0  0  0  0  0  0
   46.6620   32.9660   41.1880 N   0  0  0  0  0  0  0  0  0  0  0  0
   46.5770   32.4860   39.1730 H   0  0  0  0  0  0  0  0  0  0  0  0
   48.0750   34.3290   38.4840 H   0  0  0  0  0  0  0  0  0  0  0  0
   48.9960   35.8650   40.2580 H   0  0  0  0  0  0  0  0  0  0  0  0
   44.8820   35.5260   43.1210 S   0  0  0  0  0  0  0  0  0  0  0  0
   42.3510   35.4540   42.4330 N   0  0  0  0  0  0  0  0  0  0  0  0
   43.6080   34.8390   42.0400 C   0  0  1  0  0  0  0  0  0  0  0  0
   43.9980   35.2550   40.6210 C   0  0  0  0  0  0  0  0  0  0  0  0
   42.9370   35.2310   39.7400 O   0  0  0  0  0  0  0  0  0  0  0  0
   41.7900   34.6290   40.1920 C   0  0  0  0  0  0  0  0  0  0  0  0
   41.3300   35.3380   41.4430 C   0  0  1  0  0  0  0  0  0  0  0  0
   42.1120   35.1020   43.3640 H   0  0  0  0  0  0  0  0  0  0  0  0
   43.5830   33.7380   42.1630 H   0  0  0  0  0  0  0  0  0  0  0  0
   44.6980   34.5220   40.2280 H   0  0  0  0  0  0  0  0  0  0  0  0
   44.4870   36.2360   40.6160 H   0  0  0  0  0  0  0  0  0  0  0  0
   41.9330   33.5690   40.4690 H   0  0  0  0  0  0  0  0  0  0  0  0
   41.0270   34.7230   39.4230 H   0  0  0  0  0  0  0  0  0  0  0  0
   40.9510   36.3430   41.1280 H   0  0  0  0  0  0  0  0  0  0  0  0
   40.2020   34.5610   42.0290 C   0  0  0  0  0  0  0  0  0  0  0  0
   39.8580   34.5860   43.0480 H   0  0  0  0  0  0  0  0  0  0  0  0
   39.6160   33.8280   41.2640 O   0  0  0  0  0  0  0  0  0  0  0  0
  1  9  1  0  0  0  0
  2  3  1  0  0  0  0
  2  1  2  0  0  0  0
  3  4  2  0  0  0  0
  4  8  1  0  0  0  0
  4  5  1  0  0  0  0
  5  6  1  0  0  0  0
  6 12  1  0  0  0  0
  7  6  2  0  0  0  0
  8  7  1  0  0  0  0
  9  8  2  0  0  0  0
  9 13  1  0  0  0  0
 10  1  1  0  0  0  0
 11  5  1  0  0  0  0
 14 19  1  0  0  0  0
 15 14  2  0  0  0  0
 15 16  1  0  0  0  0
 16 17  2  0  0  0  0
 17 18  1  0  0  0  0
 18  2  1  0  0  0  0
 19 18  2  0  0  0  0
 20 14  1  0  0  0  0
 21 15  1  0  0  0  0
 22 16  1  0  0  0  0
 23  3  1  0  0  0  0
 24 30  1  0  0  0  0
 25 31  1  1  0  0  0
 25 24  1  0  0  0  0
 25 23  1  0  0  0  0
 26 25  1  0  0  0  0
 27 28  1  0  0  0  0
 27 26  1  0  0  0  0
 28 34  1  0  0  0  0
 28 29  1  0  0  0  0
 29 36  1  6  0  0  0
 29 37  1  0  0  0  0
 29 24  1  0  0  0  0
 32 26  1  0  0  0  0
 33 26  1  0  0  0  0
 35 28  1  0  0  0  0
 37 38  1  0  0  0  0
 39 37  2  0  0  0  0
M  END
>  <minimizedAffinity>
-5.73049593

>  <minimizedRMSD>
0.332187444

$$$$
