
 OpenBabel03252506313D

 26 27  0  0  1  0  0  0  0  0999 V2000
   44.5730   35.7680   44.9350 C   0  0  0  0  0  0  0  0  0  0  0  0
   44.7910   35.5310   43.5820 C   0  0  0  0  0  0  0  0  0  0  0  0
   45.3230   34.3190   43.2200 C   0  0  0  0  0  0  0  0  0  0  0  0
   45.6080   33.4150   44.2060 N   0  0  0  0  0  0  0  0  0  0  0  0
   45.3850   33.6780   45.4920 C   0  0  0  0  0  0  0  0  0  0  0  0
   44.8630   34.8630   45.8840 N   0  0  0  0  0  0  0  0  0  0  0  0
   45.7100   32.6860   46.4550 N   0  0  0  0  0  0  0  0  0  0  0  0
   45.2690   32.6900   47.8500 C   0  0  0  0  0  0  0  0  0  0  0  0
   46.4860   32.1640   48.5620 C   0  0  0  0  0  0  0  0  0  0  0  0
   47.3990   31.5840   47.4990 C   0  0  0  0  0  0  0  0  0  0  0  0
   46.5090   31.4950   46.3000 C   0  0  2  0  0  0  0  0  0  0  0  0
   44.1570   36.7050   45.2740 H   0  0  0  0  0  0  0  0  0  0  0  0
   45.4790   34.1610   42.1830 H   0  0  0  0  0  0  0  0  0  0  0  0
   45.0490   33.7260   48.1430 H   0  0  0  0  0  0  0  0  0  0  0  0
   44.3680   32.0560   47.9910 H   0  0  0  0  0  0  0  0  0  0  0  0
   46.1550   31.3340   49.2370 H   0  0  0  0  0  0  0  0  0  0  0  0
   47.0310   32.9220   49.1350 H   0  0  0  0  0  0  0  0  0  0  0  0
   48.2740   32.2020   47.3100 H   0  0  0  0  0  0  0  0  0  0  0  0
   47.6970   30.5410   47.7620 H   0  0  0  0  0  0  0  0  0  0  0  0
   45.8940   30.5750   46.2390 H   0  0  0  0  0  0  0  0  0  0  0  0
   44.4260   36.6030   42.6930 N   0  0  0  0  0  0  0  0  0  0  0  0
   44.5380   37.5850   43.0070 H   0  0  0  0  0  0  0  0  0  0  0  0
   44.0650   36.2330   41.7650 H   0  0  0  0  0  0  0  0  0  0  0  0
   47.3770   31.6580   45.1020 C   0  0  0  0  0  0  0  0  0  0  0  0
   47.8550   32.3250   44.3990 H   0  0  0  0  0  0  0  0  0  0  0  0
   47.9200   30.8210   44.4190 O   0  0  0  0  0  0  0  0  0  0  0  0
  1 12  1  0  0  0  0
  1  6  1  0  0  0  0
  2  1  2  0  0  0  0
  3  2  1  0  0  0  0
  3  4  2  0  0  0  0
  4  5  1  0  0  0  0
  5  6  2  0  0  0  0
  5  7  1  0  0  0  0
  7  8  1  0  0  0  0
  8 15  1  0  0  0  0
  8 14  1  0  0  0  0
  8  9  1  0  0  0  0
  9 17  1  0  0  0  0
  9 16  1  0  0  0  0
 10 19  1  0  0  0  0
 10  9  1  0  0  0  0
 11 20  1  6  0  0  0
 11  7  1  0  0  0  0
 11 10  1  0  0  0  0
 13  3  1  0  0  0  0
 18 10  1  0  0  0  0
 21 22  1  0  0  0  0
 21  2  1  0  0  0  0
 23 21  1  0  0  0  0
 24 11  1  0  0  0  0
 25 24  1  0  0  0  0
 26 24  2  0  0  0  0
M  END
>  <minimizedAffinity>
-4.35428572

>  <minimizedRMSD>
0.991567075

$$$$
