
 OpenBabel03252505093D

 37 39  0  0  1  0  0  0  0  0999 V2000
   37.3690   32.5340   39.9030 C   0  0  0  0  0  0  0  0  0  0  0  0
   37.0060   31.3670   40.6270 C   0  0  0  0  0  0  0  0  0  0  0  0
   38.0220   30.4010   40.8400 C   0  0  0  0  0  0  0  0  0  0  0  0
   39.2700   30.6280   40.3560 N   0  0  0  0  0  0  0  0  0  0  0  0
   39.5690   31.7460   39.6770 C   0  0  0  0  0  0  0  0  0  0  0  0
   38.6190   32.7070   39.4460 N   0  0  0  0  0  0  0  0  0  0  0  0
   36.5910   33.2700   39.7430 H   0  0  0  0  0  0  0  0  0  0  0  0
   36.0030   31.2160   41.0000 H   0  0  0  0  0  0  0  0  0  0  0  0
   40.9520   31.9420   39.1630 C   0  0  2  0  0  0  0  0  0  0  0  0
   41.7290   32.5170   40.3140 C   0  0  0  0  0  0  0  0  0  0  0  0
   42.0320   33.9560   40.2520 C   0  0  0  0  0  0  0  0  0  0  0  0
   42.7590   34.1530   38.9180 C   0  0  0  0  0  0  0  0  0  0  0  0
   41.8890   33.8910   37.7770 C   0  0  0  0  0  0  0  0  0  0  0  0
   40.9700   32.7340   37.9550 C   0  0  0  0  0  0  0  0  0  0  0  0
   41.3240   30.9190   38.9460 H   0  0  0  0  0  0  0  0  0  0  0  0
   42.7040   31.9710   40.3710 H   0  0  0  0  0  0  0  0  0  0  0  0
   41.2520   32.3070   41.3000 H   0  0  0  0  0  0  0  0  0  0  0  0
   42.7550   34.1920   41.0490 H   0  0  0  0  0  0  0  0  0  0  0  0
   41.1630   34.6280   40.3410 H   0  0  0  0  0  0  0  0  0  0  0  0
   43.6100   33.4680   38.9210 H   0  0  0  0  0  0  0  0  0  0  0  0
   42.9940   35.2240   38.8940 H   0  0  0  0  0  0  0  0  0  0  0  0
   41.7830   34.3830   36.8210 H   0  0  0  0  0  0  0  0  0  0  0  0
   40.0580   32.3710   36.9090 N   0  0  0  0  0  0  0  0  0  0  0  0
   40.2120   31.5640   36.2710 H   0  0  0  0  0  0  0  0  0  0  0  0
   39.1900   32.9610   36.7920 H   0  0  0  0  0  0  0  0  0  0  0  0
   37.6920   29.1920   41.5810 C   0  0  0  0  0  0  0  0  0  0  0  0
   37.6110   29.2630   42.9350 C   0  0  0  0  0  0  0  0  0  0  0  0
   37.2900   28.0700   43.6090 C   0  0  0  0  0  0  0  0  0  0  0  0
   37.0890   26.9530   42.8290 C   0  0  0  0  0  0  0  0  0  0  0  0
   37.1700   26.8840   41.4700 C   0  0  0  0  0  0  0  0  0  0  0  0
   37.4850   28.0670   40.8700 N   0  0  0  0  0  0  0  0  0  0  0  0
   37.7710   30.1440   43.5410 H   0  0  0  0  0  0  0  0  0  0  0  0
   37.2090   28.0500   44.6840 H   0  0  0  0  0  0  0  0  0  0  0  0
   36.8420   26.0450   43.3680 H   0  0  0  0  0  0  0  0  0  0  0  0
   36.9450   25.6750   40.7290 C   0  0  0  0  0  0  0  0  0  0  0  0
   35.9610   25.4350   40.3490 H   0  0  0  0  0  0  0  0  0  0  0  0
   37.9250   24.9040   40.5350 O   0  0  0  0  0  0  0  0  0  0  0  0
  1  2  1  0  0  0  0
  2  3  2  0  0  0  0
  2  8  1  0  0  0  0
  3 26  1  0  0  0  0
  4  3  1  0  0  0  0
  5  4  2  0  0  0  0
  6  5  1  0  0  0  0
  6  1  2  0  0  0  0
  7  1  1  0  0  0  0
  9 15  1  6  0  0  0
  9  5  1  0  0  0  0
  9 10  1  0  0  0  0
 10 16  1  0  0  0  0
 10 17  1  0  0  0  0
 11 10  1  0  0  0  0
 11 19  1  0  0  0  0
 11 18  1  0  0  0  0
 12 20  1  0  0  0  0
 12 11  1  0  0  0  0
 13 14  2  0  0  0  0
 13 12  1  0  0  0  0
 14  9  1  0  0  0  0
 21 12  1  0  0  0  0
 22 13  1  0  0  0  0
 23 14  1  0  0  0  0
 24 23  1  0  0  0  0
 25 23  1  0  0  0  0
 26 27  1  0  0  0  0
 27 32  1  0  0  0  0
 27 28  2  0  0  0  0
 28 33  1  0  0  0  0
 29 34  1  0  0  0  0
 29 28  1  0  0  0  0
 30 29  2  0  0  0  0
 31 30  1  0  0  0  0
 31 26  2  0  0  0  0
 35 30  1  0  0  0  0
 36 35  1  0  0  0  0
 37 35  2  0  0  0  0
M  END
>  <minimizedAffinity>
-5.84506178

$$$$

 OpenBabel03252505093D

 37 39  0  0  1  0  0  0  0  0999 V2000
   38.1830   32.7690   40.2580 C   0  0  0  0  0  0  0  0  0  0  0  0
   37.3360   32.0830   39.3470 C   0  0  0  0  0  0  0  0  0  0  0  0
   37.1170   30.7020   39.5870 C   0  0  0  0  0  0  0  0  0  0  0  0
   37.7120   30.1080   40.6530 N   0  0  0  0  0  0  0  0  0  0  0  0
   38.5060   30.7960   41.4890 C   0  0  0  0  0  0  0  0  0  0  0  0
   38.7460   32.1320   41.2970 N   0  0  0  0  0  0  0  0  0  0  0  0
   38.3470   33.8220   40.0720 H   0  0  0  0  0  0  0  0  0  0  0  0
   36.8760   32.5850   38.5070 H   0  0  0  0  0  0  0  0  0  0  0  0
   39.1380   30.0940   42.6400 C   0  0  2  0  0  0  0  0  0  0  0  0
   40.5160   29.7200   42.1730 C   0  0  0  0  0  0  0  0  0  0  0  0
   40.7360   28.3070   41.8270 C   0  0  0  0  0  0  0  0  0  0  0  0
   40.3260   27.5230   43.0780 C   0  0  0  0  0  0  0  0  0  0  0  0
   38.8970   27.6380   43.3510 C   0  0  0  0  0  0  0  0  0  0  0  0
   38.3290   28.9910   43.1070 C   0  0  0  0  0  0  0  0  0  0  0  0
   39.2170   30.8640   43.4350 H   0  0  0  0  0  0  0  0  0  0  0  0
   41.2340   29.9810   42.9920 H   0  0  0  0  0  0  0  0  0  0  0  0
   40.8610   30.3430   41.3140 H   0  0  0  0  0  0  0  0  0  0  0  0
   41.8170   28.1490   41.6900 H   0  0  0  0  0  0  0  0  0  0  0  0
   40.2010   27.9500   40.9320 H   0  0  0  0  0  0  0  0  0  0  0  0
   40.9120   27.9260   43.9070 H   0  0  0  0  0  0  0  0  0  0  0  0
   40.5120   26.4750   42.8120 H   0  0  0  0  0  0  0  0  0  0  0  0
   38.1680   26.9200   43.6980 H   0  0  0  0  0  0  0  0  0  0  0  0
   36.9340   29.2390   43.3330 N   0  0  0  0  0  0  0  0  0  0  0  0
   36.5700   29.7390   44.1700 H   0  0  0  0  0  0  0  0  0  0  0  0
   36.2530   28.8920   42.6040 H   0  0  0  0  0  0  0  0  0  0  0  0
   36.2520   29.9640   38.6790 C   0  0  0  0  0  0  0  0  0  0  0  0
   35.1630   29.3340   39.1900 C   0  0  0  0  0  0  0  0  0  0  0  0
   34.3560   28.6320   38.2750 C   0  0  0  0  0  0  0  0  0  0  0  0
   34.7500   28.6560   36.9560 C   0  0  0  0  0  0  0  0  0  0  0  0
   35.8440   29.2890   36.4450 C   0  0  0  0  0  0  0  0  0  0  0  0
   36.5890   29.9510   37.3750 N   0  0  0  0  0  0  0  0  0  0  0  0
   34.8590   29.3190   40.2270 H   0  0  0  0  0  0  0  0  0  0  0  0
   33.4740   28.1070   38.6080 H   0  0  0  0  0  0  0  0  0  0  0  0
   34.1150   28.1090   36.2680 H   0  0  0  0  0  0  0  0  0  0  0  0
   36.1880   29.2650   35.0510 C   0  0  0  0  0  0  0  0  0  0  0  0
   36.4460   28.3350   34.5620 H   0  0  0  0  0  0  0  0  0  0  0  0
   36.1800   30.3550   34.4170 O   0  0  0  0  0  0  0  0  0  0  0  0
  1  6  1  0  0  0  0
  2  3  1  0  0  0  0
  2  1  2  0  0  0  0
  3  4  2  0  0  0  0
  4  5  1  0  0  0  0
  5  9  1  0  0  0  0
  6  5  2  0  0  0  0
  7  1  1  0  0  0  0
  8  2  1  0  0  0  0
  9 14  1  0  0  0  0
  9 15  1  1  0  0  0
 10  9  1  0  0  0  0
 10 16  1  0  0  0  0
 11 10  1  0  0  0  0
 11 12  1  0  0  0  0
 12 13  1  0  0  0  0
 12 20  1  0  0  0  0
 13 22  1  0  0  0  0
 14 23  1  0  0  0  0
 14 13  2  0  0  0  0
 17 10  1  0  0  0  0
 18 11  1  0  0  0  0
 19 11  1  0  0  0  0
 21 12  1  0  0  0  0
 23 24  1  0  0  0  0
 25 23  1  0  0  0  0
 26 27  1  0  0  0  0
 26  3  1  0  0  0  0
 27 32  1  0  0  0  0
 28 33  1  0  0  0  0
 28 27  2  0  0  0  0
 29 28  1  0  0  0  0
 30 29  2  0  0  0  0
 30 31  1  0  0  0  0
 31 26  2  0  0  0  0
 34 29  1  0  0  0  0
 35 30  1  0  0  0  0
 36 35  1  0  0  0  0
 37 35  2  0  0  0  0
M  END
>  <minimizedAffinity>
-5.65576982

$$$$

 OpenBabel03252505093D

 37 39  0  0  1  0  0  0  0  0999 V2000
   36.0460   29.1440   38.0100 C   0  0  0  0  0  0  0  0  0  0  0  0
   36.2910   28.4640   39.2330 C   0  0  0  0  0  0  0  0  0  0  0  0
   37.1940   29.0750   40.1400 C   0  0  0  0  0  0  0  0  0  0  0  0
   37.7730   30.2580   39.8080 N   0  0  0  0  0  0  0  0  0  0  0  0
   37.5120   30.8660   38.6410 C   0  0  0  0  0  0  0  0  0  0  0  0
   36.6460   30.3130   37.7330 N   0  0  0  0  0  0  0  0  0  0  0  0
   35.3560   28.6750   37.3210 H   0  0  0  0  0  0  0  0  0  0  0  0
   35.8140   27.5230   39.4670 H   0  0  0  0  0  0  0  0  0  0  0  0
   38.1780   32.1600   38.3250 C   0  0  2  0  0  0  0  0  0  0  0  0
   39.5130   31.7910   37.7410 C   0  0  0  0  0  0  0  0  0  0  0  0
   40.6860   31.9660   38.6120 C   0  0  0  0  0  0  0  0  0  0  0  0
   40.6420   33.4330   39.0500 C   0  0  0  0  0  0  0  0  0  0  0  0
   39.4870   33.7160   39.8950 C   0  0  0  0  0  0  0  0  0  0  0  0
   38.2330   33.0310   39.4770 C   0  0  0  0  0  0  0  0  0  0  0  0
   37.5480   32.6210   37.5370 H   0  0  0  0  0  0  0  0  0  0  0  0
   39.6720   32.4260   36.8320 H   0  0  0  0  0  0  0  0  0  0  0  0
   39.5320   30.7500   37.3410 H   0  0  0  0  0  0  0  0  0  0  0  0
   41.5930   31.8420   37.9990 H   0  0  0  0  0  0  0  0  0  0  0  0
   40.7380   31.2860   39.4780 H   0  0  0  0  0  0  0  0  0  0  0  0
   40.6100   34.0320   38.1370 H   0  0  0  0  0  0  0  0  0  0  0  0
   41.5300   33.5530   39.6820 H   0  0  0  0  0  0  0  0  0  0  0  0
   39.3680   34.3330   40.7740 H   0  0  0  0  0  0  0  0  0  0  0  0
   37.0240   33.2210   40.2250 N   0  0  0  0  0  0  0  0  0  0  0  0
   36.2480   33.8390   39.9110 H   0  0  0  0  0  0  0  0  0  0  0  0
   36.9290   32.7000   41.1380 H   0  0  0  0  0  0  0  0  0  0  0  0
   37.4690   28.4120   41.4050 C   0  0  0  0  0  0  0  0  0  0  0  0
   36.4210   27.9630   42.1430 C   0  0  0  0  0  0  0  0  0  0  0  0
   36.7340   27.3290   43.3590 C   0  0  0  0  0  0  0  0  0  0  0  0
   38.0700   27.2260   43.6790 C   0  0  0  0  0  0  0  0  0  0  0  0
   39.1200   27.6770   42.9370 C   0  0  0  0  0  0  0  0  0  0  0  0
   38.7590   28.2840   41.7700 N   0  0  0  0  0  0  0  0  0  0  0  0
   35.3740   28.0470   41.8860 H   0  0  0  0  0  0  0  0  0  0  0  0
   35.9530   26.9460   43.9980 H   0  0  0  0  0  0  0  0  0  0  0  0
   38.2890   26.7340   44.6200 H   0  0  0  0  0  0  0  0  0  0  0  0
   40.4900   27.5310   43.3420 C   0  0  0  0  0  0  0  0  0  0  0  0
   41.1560   28.3840   43.3570 H   0  0  0  0  0  0  0  0  0  0  0  0
   40.8930   26.3840   43.6790 O   0  0  0  0  0  0  0  0  0  0  0  0
  1  2  1  0  0  0  0
  2  8  1  0  0  0  0
  2  3  2  0  0  0  0
  3 26  1  0  0  0  0
  4  3  1  0  0  0  0
  5  4  2  0  0  0  0
  6  1  2  0  0  0  0
  6  5  1  0  0  0  0
  7  1  1  0  0  0  0
  9 15  1  6  0  0  0
  9  5  1  0  0  0  0
  9 14  1  0  0  0  0
 10  9  1  0  0  0  0
 10 11  1  0  0  0  0
 11 12  1  0  0  0  0
 11 19  1  0  0  0  0
 12 21  1  0  0  0  0
 12 13  1  0  0  0  0
 13 22  1  0  0  0  0
 14 13  2  0  0  0  0
 14 23  1  0  0  0  0
 16 10  1  0  0  0  0
 17 10  1  0  0  0  0
 18 11  1  0  0  0  0
 20 12  1  0  0  0  0
 23 25  1  0  0  0  0
 24 23  1  0  0  0  0
 26 31  2  0  0  0  0
 26 27  1  0  0  0  0
 27 28  2  0  0  0  0
 28 29  1  0  0  0  0
 28 33  1  0  0  0  0
 29 34  1  0  0  0  0
 30 35  1  0  0  0  0
 30 29  2  0  0  0  0
 31 30  1  0  0  0  0
 32 27  1  0  0  0  0
 35 36  1  0  0  0  0
 35 37  2  0  0  0  0
M  END
>  <minimizedAffinity>
-5.64090252

$$$$

 OpenBabel03252505093D

 37 39  0  0  1  0  0  0  0  0999 V2000
   35.2710   27.9050   37.4890 C   0  0  0  0  0  0  0  0  0  0  0  0
   35.7600   26.9400   38.4100 C   0  0  0  0  0  0  0  0  0  0  0  0
   36.5440   27.4210   39.4900 C   0  0  0  0  0  0  0  0  0  0  0  0
   36.7860   28.7530   39.5970 N   0  0  0  0  0  0  0  0  0  0  0  0
   36.3020   29.6300   38.7030 C   0  0  0  0  0  0  0  0  0  0  0  0
   35.5410   29.2110   37.6430 N   0  0  0  0  0  0  0  0  0  0  0  0
   34.6730   27.5340   36.6670 H   0  0  0  0  0  0  0  0  0  0  0  0
   35.5500   25.8860   38.2970 H   0  0  0  0  0  0  0  0  0  0  0  0
   36.6030   31.0790   38.8650 C   0  0  2  0  0  0  0  0  0  0  0  0
   37.7810   31.3460   37.9700 C   0  0  0  0  0  0  0  0  0  0  0  0
   39.0870   31.5070   38.6290 C   0  0  0  0  0  0  0  0  0  0  0  0
   38.8810   32.6300   39.6510 C   0  0  0  0  0  0  0  0  0  0  0  0
   37.9580   32.2410   40.7110 C   0  0  0  0  0  0  0  0  0  0  0  0
   36.7930   31.4370   40.2520 C   0  0  0  0  0  0  0  0  0  0  0  0
   35.7110   31.6020   38.4610 H   0  0  0  0  0  0  0  0  0  0  0  0
   37.5710   32.2890   37.4060 H   0  0  0  0  0  0  0  0  0  0  0  0
   37.8920   30.5790   37.1680 H   0  0  0  0  0  0  0  0  0  0  0  0
   39.8060   31.8810   37.8830 H   0  0  0  0  0  0  0  0  0  0  0  0
   39.4940   30.5990   39.1030 H   0  0  0  0  0  0  0  0  0  0  0  0
   38.4960   33.4900   39.0980 H   0  0  0  0  0  0  0  0  0  0  0  0
   39.8650   32.7510   40.1200 H   0  0  0  0  0  0  0  0  0  0  0  0
   37.9600   32.4270   41.7760 H   0  0  0  0  0  0  0  0  0  0  0  0
   35.8100   30.9870   41.1950 N   0  0  0  0  0  0  0  0  0  0  0  0
   34.8770   31.4320   41.3050 H   0  0  0  0  0  0  0  0  0  0  0  0
   36.0610   30.1590   41.8020 H   0  0  0  0  0  0  0  0  0  0  0  0
   37.0610   26.4650   40.4570 C   0  0  0  0  0  0  0  0  0  0  0  0
   36.7330   25.1550   40.3130 C   0  0  0  0  0  0  0  0  0  0  0  0
   37.2560   24.2670   41.2710 C   0  0  0  0  0  0  0  0  0  0  0  0
   38.0460   24.8140   42.2570 C   0  0  0  0  0  0  0  0  0  0  0  0
   38.3740   26.1290   42.4010 C   0  0  0  0  0  0  0  0  0  0  0  0
   37.8410   26.9430   41.4460 N   0  0  0  0  0  0  0  0  0  0  0  0
   36.1120   24.7320   39.5360 H   0  0  0  0  0  0  0  0  0  0  0  0
   37.0380   23.2110   41.2210 H   0  0  0  0  0  0  0  0  0  0  0  0
   38.4380   24.1120   42.9860 H   0  0  0  0  0  0  0  0  0  0  0  0
   39.2070   26.6210   43.4610 C   0  0  0  0  0  0  0  0  0  0  0  0
   39.3860   26.0240   44.3450 H   0  0  0  0  0  0  0  0  0  0  0  0
   39.7220   27.7650   43.3320 O   0  0  0  0  0  0  0  0  0  0  0  0
  1  6  2  0  0  0  0
  1  2  1  0  0  0  0
  2  3  2  0  0  0  0
  3  4  1  0  0  0  0
  3 26  1  0  0  0  0
  5  9  1  0  0  0  0
  5  4  2  0  0  0  0
  6  5  1  0  0  0  0
  7  1  1  0  0  0  0
  8  2  1  0  0  0  0
  9 15  1  6  0  0  0
  9 14  1  0  0  0  0
 10 11  1  0  0  0  0
 10  9  1  0  0  0  0
 11 19  1  0  0  0  0
 11 12  1  0  0  0  0
 12 21  1  0  0  0  0
 12 13  1  0  0  0  0
 13 22  1  0  0  0  0
 14 13  2  0  0  0  0
 14 23  1  0  0  0  0
 16 10  1  0  0  0  0
 17 10  1  0  0  0  0
 18 11  1  0  0  0  0
 20 12  1  0  0  0  0
 23 24  1  0  0  0  0
 23 25  1  0  0  0  0
 26 31  1  0  0  0  0
 27 26  2  0  0  0  0
 27 28  1  0  0  0  0
 28 29  2  0  0  0  0
 29 30  1  0  0  0  0
 29 34  1  0  0  0  0
 30 35  1  0  0  0  0
 31 30  2  0  0  0  0
 32 27  1  0  0  0  0
 33 28  1  0  0  0  0
 35 36  1  0  0  0  0
 37 35  2  0  0  0  0
M  END
>  <minimizedAffinity>
-5.62547493

$$$$

 OpenBabel03252505093D

 37 39  0  0  1  0  0  0  0  0999 V2000
   35.9420   29.2330   37.6390 C   0  0  0  0  0  0  0  0  0  0  0  0
   36.0550   28.4940   38.8460 C   0  0  0  0  0  0  0  0  0  0  0  0
   36.8890   29.0370   39.8570 C   0  0  0  0  0  0  0  0  0  0  0  0
   37.5280   30.2140   39.6330 N   0  0  0  0  0  0  0  0  0  0  0  0
   37.3910   30.8800   38.4750 C   0  0  0  0  0  0  0  0  0  0  0  0
   36.5970   30.3930   37.4700 N   0  0  0  0  0  0  0  0  0  0  0  0
   35.3040   28.8160   36.8700 H   0  0  0  0  0  0  0  0  0  0  0  0
   35.5330   27.5590   38.9940 H   0  0  0  0  0  0  0  0  0  0  0  0
   38.1180   32.1640   38.2800 C   0  0  2  0  0  0  0  0  0  0  0  0
   39.4660   31.7820   37.7360 C   0  0  0  0  0  0  0  0  0  0  0  0
   40.6010   31.8520   38.6720 C   0  0  0  0  0  0  0  0  0  0  0  0
   40.5870   33.2880   39.2060 C   0  0  0  0  0  0  0  0  0  0  0  0
   39.4020   33.5610   40.0120 C   0  0  0  0  0  0  0  0  0  0  0  0
   38.1470   32.9550   39.4890 C   0  0  0  0  0  0  0  0  0  0  0  0
   37.5460   32.7000   37.4950 H   0  0  0  0  0  0  0  0  0  0  0  0
   39.6940   32.4680   36.8810 H   0  0  0  0  0  0  0  0  0  0  0  0
   39.4680   30.7700   37.2680 H   0  0  0  0  0  0  0  0  0  0  0  0
   41.5320   31.7340   38.0960 H   0  0  0  0  0  0  0  0  0  0  0  0
   40.5840   31.1160   39.4920 H   0  0  0  0  0  0  0  0  0  0  0  0
   40.6230   33.9470   38.3350 H   0  0  0  0  0  0  0  0  0  0  0  0
   41.4460   33.3310   39.8860 H   0  0  0  0  0  0  0  0  0  0  0  0
   39.2620   34.1230   40.9240 H   0  0  0  0  0  0  0  0  0  0  0  0
   36.9100   33.1430   40.1900 N   0  0  0  0  0  0  0  0  0  0  0  0
   36.1740   33.8110   39.8810 H   0  0  0  0  0  0  0  0  0  0  0  0
   36.7500   32.5670   41.0610 H   0  0  0  0  0  0  0  0  0  0  0  0
   37.0290   28.3130   41.1110 C   0  0  0  0  0  0  0  0  0  0  0  0
   37.2040   29.0240   42.2550 C   0  0  0  0  0  0  0  0  0  0  0  0
   37.3360   28.2810   43.4430 C   0  0  0  0  0  0  0  0  0  0  0  0
   37.2720   26.9100   43.3270 C   0  0  0  0  0  0  0  0  0  0  0  0
   37.0960   26.1980   42.1780 C   0  0  0  0  0  0  0  0  0  0  0  0
   36.9760   26.9680   41.0590 N   0  0  0  0  0  0  0  0  0  0  0  0
   37.2530   30.1010   42.3390 H   0  0  0  0  0  0  0  0  0  0  0  0
   37.4770   28.7780   44.3900 H   0  0  0  0  0  0  0  0  0  0  0  0
   37.3760   26.3570   44.2540 H   0  0  0  0  0  0  0  0  0  0  0  0
   37.0420   24.7640   42.1420 C   0  0  0  0  0  0  0  0  0  0  0  0
   36.1290   24.2530   41.8640 H   0  0  0  0  0  0  0  0  0  0  0  0
   38.0840   24.1200   42.4410 O   0  0  0  0  0  0  0  0  0  0  0  0
  1  2  1  0  0  0  0
  2  8  1  0  0  0  0
  2  3  2  0  0  0  0
  3 26  1  0  0  0  0
  4  3  1  0  0  0  0
  5  4  2  0  0  0  0
  6  1  2  0  0  0  0
  6  5  1  0  0  0  0
  7  1  1  0  0  0  0
  9 15  1  6  0  0  0
  9  5  1  0  0  0  0
  9 14  1  0  0  0  0
 10  9  1  0  0  0  0
 10 11  1  0  0  0  0
 11 12  1  0  0  0  0
 11 19  1  0  0  0  0
 12 21  1  0  0  0  0
 12 13  1  0  0  0  0
 13 22  1  0  0  0  0
 14 13  2  0  0  0  0
 14 23  1  0  0  0  0
 16 10  1  0  0  0  0
 17 10  1  0  0  0  0
 18 11  1  0  0  0  0
 20 12  1  0  0  0  0
 23 25  1  0  0  0  0
 24 23  1  0  0  0  0
 26 27  1  0  0  0  0
 27 32  1  0  0  0  0
 27 28  2  0  0  0  0
 28 33  1  0  0  0  0
 29 28  1  0  0  0  0
 29 34  1  0  0  0  0
 30 29  2  0  0  0  0
 31 26  2  0  0  0  0
 31 30  1  0  0  0  0
 35 30  1  0  0  0  0
 35 37  2  0  0  0  0
 36 35  1  0  0  0  0
M  END
>  <minimizedAffinity>
-5.60159254

$$$$

 OpenBabel03252505093D

 37 39  0  0  1  0  0  0  0  0999 V2000
   35.5150   29.5600   40.5990 C   0  0  0  0  0  0  0  0  0  0  0  0
   36.2220   28.5790   41.3450 C   0  0  0  0  0  0  0  0  0  0  0  0
   37.6380   28.6260   41.2910 C   0  0  0  0  0  0  0  0  0  0  0  0
   38.2450   29.5860   40.5460 N   0  0  0  0  0  0  0  0  0  0  0  0
   37.5370   30.4940   39.8570 C   0  0  0  0  0  0  0  0  0  0  0  0
   36.1670   30.4870   39.8790 N   0  0  0  0  0  0  0  0  0  0  0  0
   34.4350   29.5210   40.6430 H   0  0  0  0  0  0  0  0  0  0  0  0
   35.7090   27.8280   41.9290 H   0  0  0  0  0  0  0  0  0  0  0  0
   38.2540   31.5210   39.0520 C   0  0  2  0  0  0  0  0  0  0  0  0
   39.6400   30.9770   38.8490 C   0  0  0  0  0  0  0  0  0  0  0  0
   40.7110   31.5780   39.6600 C   0  0  0  0  0  0  0  0  0  0  0  0
   40.6390   33.0790   39.3630 C   0  0  0  0  0  0  0  0  0  0  0  0
   39.4010   33.6750   39.8530 C   0  0  0  0  0  0  0  0  0  0  0  0
   38.1920   32.8270   39.6690 C   0  0  0  0  0  0  0  0  0  0  0  0
   37.7230   31.5430   38.0780 H   0  0  0  0  0  0  0  0  0  0  0  0
   39.9090   31.1270   37.7730 H   0  0  0  0  0  0  0  0  0  0  0  0
   39.6880   29.8700   38.9800 H   0  0  0  0  0  0  0  0  0  0  0  0
   41.6780   31.2210   39.2740 H   0  0  0  0  0  0  0  0  0  0  0  0
   40.6550   31.3770   40.7420 H   0  0  0  0  0  0  0  0  0  0  0  0
   40.7190   33.1890   38.2790 H   0  0  0  0  0  0  0  0  0  0  0  0
   41.4530   33.5110   39.9590 H   0  0  0  0  0  0  0  0  0  0  0  0
   39.1940   34.6230   40.3300 H   0  0  0  0  0  0  0  0  0  0  0  0
   36.9100   33.2930   40.1110 N   0  0  0  0  0  0  0  0  0  0  0  0
   36.1840   33.6660   39.4670 H   0  0  0  0  0  0  0  0  0  0  0  0
   36.7050   33.2480   41.1470 H   0  0  0  0  0  0  0  0  0  0  0  0
   38.3990   27.6410   42.0440 C   0  0  0  0  0  0  0  0  0  0  0  0
   39.2850   28.0790   42.9760 C   0  0  0  0  0  0  0  0  0  0  0  0
   39.9980   27.0910   43.6800 C   0  0  0  0  0  0  0  0  0  0  0  0
   39.7270   25.7810   43.3540 C   0  0  0  0  0  0  0  0  0  0  0  0
   38.8380   25.3430   42.4180 C   0  0  0  0  0  0  0  0  0  0  0  0
   38.1760   26.3420   41.7680 N   0  0  0  0  0  0  0  0  0  0  0  0
   39.4930   29.1100   43.2270 H   0  0  0  0  0  0  0  0  0  0  0  0
   40.7180   27.3640   44.4350 H   0  0  0  0  0  0  0  0  0  0  0  0
   40.2880   25.0360   43.9080 H   0  0  0  0  0  0  0  0  0  0  0  0
   38.6130   23.9530   42.1370 C   0  0  0  0  0  0  0  0  0  0  0  0
   38.7620   23.2030   42.9020 H   0  0  0  0  0  0  0  0  0  0  0  0
   38.2370   23.6340   40.9760 O   0  0  0  0  0  0  0  0  0  0  0  0
  1  7  1  0  0  0  0
  1  2  1  0  0  0  0
  2  8  1  0  0  0  0
  3  2  2  0  0  0  0
  3 26  1  0  0  0  0
  4  3  1  0  0  0  0
  5  6  1  0  0  0  0
  5  4  2  0  0  0  0
  6  1  2  0  0  0  0
  9 15  1  6  0  0  0
  9 14  1  0  0  0  0
  9  5  1  0  0  0  0
 10 17  1  0  0  0  0
 10  9  1  0  0  0  0
 10 11  1  0  0  0  0
 11 19  1  0  0  0  0
 12 11  1  0  0  0  0
 12 13  1  0  0  0  0
 12 21  1  0  0  0  0
 13 22  1  0  0  0  0
 14 13  2  0  0  0  0
 14 23  1  0  0  0  0
 16 10  1  0  0  0  0
 18 11  1  0  0  0  0
 20 12  1  0  0  0  0
 23 25  1  0  0  0  0
 24 23  1  0  0  0  0
 26 27  1  0  0  0  0
 27 32  1  0  0  0  0
 27 28  2  0  0  0  0
 28 33  1  0  0  0  0
 29 28  1  0  0  0  0
 29 34  1  0  0  0  0
 30 29  2  0  0  0  0
 31 26  2  0  0  0  0
 31 30  1  0  0  0  0
 35 30  1  0  0  0  0
 35 36  1  0  0  0  0
 37 35  2  0  0  0  0
M  END
>  <minimizedAffinity>
-5.47801065

$$$$

 OpenBabel03252505093D

 37 39  0  0  1  0  0  0  0  0999 V2000
   35.2470   28.0730   37.3460 C   0  0  0  0  0  0  0  0  0  0  0  0
   35.6550   27.0640   38.2580 C   0  0  0  0  0  0  0  0  0  0  0  0
   36.4120   27.4800   39.3820 C   0  0  0  0  0  0  0  0  0  0  0  0
   36.7070   28.7970   39.5370 N   0  0  0  0  0  0  0  0  0  0  0  0
   36.3000   29.7180   38.6500 C   0  0  0  0  0  0  0  0  0  0  0  0
   35.5670   29.3620   37.5480 N   0  0  0  0  0  0  0  0  0  0  0  0
   34.6680   27.7520   36.4900 H   0  0  0  0  0  0  0  0  0  0  0  0
   35.4030   26.0240   38.1070 H   0  0  0  0  0  0  0  0  0  0  0  0
   36.6560   31.1470   38.8650 C   0  0  2  0  0  0  0  0  0  0  0  0
   37.8630   31.3930   38.0040 C   0  0  0  0  0  0  0  0  0  0  0  0
   39.1610   31.4790   38.6940 C   0  0  0  0  0  0  0  0  0  0  0  0
   38.9790   32.5760   39.7480 C   0  0  0  0  0  0  0  0  0  0  0  0
   38.0170   32.1930   40.7760 C   0  0  0  0  0  0  0  0  0  0  0  0
   36.8300   31.4530   40.2660 C   0  0  0  0  0  0  0  0  0  0  0  0
   35.7960   31.7200   38.4610 H   0  0  0  0  0  0  0  0  0  0  0  0
   37.7050   32.3620   37.4670 H   0  0  0  0  0  0  0  0  0  0  0  0
   37.9610   30.6480   37.1800 H   0  0  0  0  0  0  0  0  0  0  0  0
   39.9110   31.8460   37.9760 H   0  0  0  0  0  0  0  0  0  0  0  0
   39.5190   30.5400   39.1460 H   0  0  0  0  0  0  0  0  0  0  0  0
   38.6420   33.4690   39.2160 H   0  0  0  0  0  0  0  0  0  0  0  0
   39.9560   32.6410   40.2410 H   0  0  0  0  0  0  0  0  0  0  0  0
   38.0040   32.3440   41.8460 H   0  0  0  0  0  0  0  0  0  0  0  0
   35.8100   31.0140   41.1740 N   0  0  0  0  0  0  0  0  0  0  0  0
   34.8930   31.4940   41.2790 H   0  0  0  0  0  0  0  0  0  0  0  0
   36.0130   30.1580   41.7580 H   0  0  0  0  0  0  0  0  0  0  0  0
   36.8470   26.4770   40.3420 C   0  0  0  0  0  0  0  0  0  0  0  0
   37.0050   26.8460   41.6400 C   0  0  0  0  0  0  0  0  0  0  0  0
   37.4260   25.8430   42.5320 C   0  0  0  0  0  0  0  0  0  0  0  0
   37.6360   24.5890   42.0010 C   0  0  0  0  0  0  0  0  0  0  0  0
   37.4770   24.2210   40.6990 C   0  0  0  0  0  0  0  0  0  0  0  0
   37.0680   25.2310   39.8800 N   0  0  0  0  0  0  0  0  0  0  0  0
   36.8390   27.8320   42.0500 H   0  0  0  0  0  0  0  0  0  0  0  0
   37.5730   26.0620   43.5780 H   0  0  0  0  0  0  0  0  0  0  0  0
   37.9610   23.8310   42.7060 H   0  0  0  0  0  0  0  0  0  0  0  0
   37.7170   22.8880   40.2230 C   0  0  0  0  0  0  0  0  0  0  0  0
   38.6990   22.4410   40.3040 H   0  0  0  0  0  0  0  0  0  0  0  0
   36.7530   22.2550   39.7100 O   0  0  0  0  0  0  0  0  0  0  0  0
  1  6  2  0  0  0  0
  1  2  1  0  0  0  0
  2  3  2  0  0  0  0
  3  4  1  0  0  0  0
  3 26  1  0  0  0  0
  5  9  1  0  0  0  0
  5  4  2  0  0  0  0
  6  5  1  0  0  0  0
  7  1  1  0  0  0  0
  8  2  1  0  0  0  0
  9 15  1  6  0  0  0
  9 14  1  0  0  0  0
 10 11  1  0  0  0  0
 10  9  1  0  0  0  0
 11 19  1  0  0  0  0
 11 12  1  0  0  0  0
 12 21  1  0  0  0  0
 12 13  1  0  0  0  0
 13 22  1  0  0  0  0
 14 13  2  0  0  0  0
 14 23  1  0  0  0  0
 16 10  1  0  0  0  0
 17 10  1  0  0  0  0
 18 11  1  0  0  0  0
 20 12  1  0  0  0  0
 23 24  1  0  0  0  0
 23 25  1  0  0  0  0
 26 27  1  0  0  0  0
 27 32  1  0  0  0  0
 27 28  2  0  0  0  0
 28 33  1  0  0  0  0
 29 28  1  0  0  0  0
 29 34  1  0  0  0  0
 30 29  2  0  0  0  0
 31 26  2  0  0  0  0
 31 30  1  0  0  0  0
 35 36  1  0  0  0  0
 35 30  1  0  0  0  0
 37 35  2  0  0  0  0
M  END
>  <minimizedAffinity>
-5.41950178

$$$$

 OpenBabel03252505093D

 37 39  0  0  1  0  0  0  0  0999 V2000
   35.8920   28.7000   38.6070 C   0  0  0  0  0  0  0  0  0  0  0  0
   36.4360   30.0070   38.7190 C   0  0  0  0  0  0  0  0  0  0  0  0
   37.3970   30.2200   39.7400 C   0  0  0  0  0  0  0  0  0  0  0  0
   37.7480   29.1880   40.5490 N   0  0  0  0  0  0  0  0  0  0  0  0
   37.2080   27.9670   40.4080 C   0  0  0  0  0  0  0  0  0  0  0  0
   36.2750   27.7150   39.4360 N   0  0  0  0  0  0  0  0  0  0  0  0
   35.1590   28.5420   37.8260 H   0  0  0  0  0  0  0  0  0  0  0  0
   36.1350   30.8080   38.0580 H   0  0  0  0  0  0  0  0  0  0  0  0
   37.6250   26.8730   41.3260 C   0  0  2  0  0  0  0  0  0  0  0  0
   37.1720   27.3010   42.6930 C   0  0  0  0  0  0  0  0  0  0  0  0
   38.2120   27.7970   43.6090 C   0  0  0  0  0  0  0  0  0  0  0  0
   39.2490   26.6710   43.6800 C   0  0  0  0  0  0  0  0  0  0  0  0
   39.9230   26.4670   42.4020 C   0  0  0  0  0  0  0  0  0  0  0  0
   39.0370   26.5830   41.2110 C   0  0  0  0  0  0  0  0  0  0  0  0
   37.0350   25.9890   41.0050 H   0  0  0  0  0  0  0  0  0  0  0  0
   36.6880   26.4190   43.1820 H   0  0  0  0  0  0  0  0  0  0  0  0
   36.3560   28.0610   42.6550 H   0  0  0  0  0  0  0  0  0  0  0  0
   37.7720   27.8900   44.6140 H   0  0  0  0  0  0  0  0  0  0  0  0
   38.6760   28.7560   43.3250 H   0  0  0  0  0  0  0  0  0  0  0  0
   38.7130   25.7690   43.9820 H   0  0  0  0  0  0  0  0  0  0  0  0
   40.0080   27.0460   44.3780 H   0  0  0  0  0  0  0  0  0  0  0  0
   40.9520   26.2480   42.1530 H   0  0  0  0  0  0  0  0  0  0  0  0
   39.5740   26.4090   39.8930 N   0  0  0  0  0  0  0  0  0  0  0  0
   39.4460   25.5410   39.3330 H   0  0  0  0  0  0  0  0  0  0  0  0
   40.1250   27.2100   39.4810 H   0  0  0  0  0  0  0  0  0  0  0  0
   37.9810   31.5440   39.8850 C   0  0  0  0  0  0  0  0  0  0  0  0
   37.1980   32.6280   39.6420 C   0  0  0  0  0  0  0  0  0  0  0  0
   37.8060   33.8880   39.7940 C   0  0  0  0  0  0  0  0  0  0  0  0
   39.1290   33.8970   40.1730 C   0  0  0  0  0  0  0  0  0  0  0  0
   39.9130   32.8090   40.4160 C   0  0  0  0  0  0  0  0  0  0  0  0
   39.2740   31.6150   40.2530 N   0  0  0  0  0  0  0  0  0  0  0  0
   36.1590   32.6140   39.3450 H   0  0  0  0  0  0  0  0  0  0  0  0
   37.2460   34.7940   39.6180 H   0  0  0  0  0  0  0  0  0  0  0  0
   39.5780   34.8780   40.2840 H   0  0  0  0  0  0  0  0  0  0  0  0
   41.2910   32.9020   40.8080 C   0  0  0  0  0  0  0  0  0  0  0  0
   41.6400   32.4270   41.7150 H   0  0  0  0  0  0  0  0  0  0  0  0
   42.0780   33.5530   40.0680 O   0  0  0  0  0  0  0  0  0  0  0  0
  1  2  2  0  0  0  0
  1  6  1  0  0  0  0
  2  3  1  0  0  0  0
  3 26  1  0  0  0  0
  3  4  2  0  0  0  0
  5  4  1  0  0  0  0
  5  9  1  0  0  0  0
  6  5  2  0  0  0  0
  7  1  1  0  0  0  0
  8  2  1  0  0  0  0
  9 15  1  6  0  0  0
  9 10  1  0  0  0  0
 10 16  1  0  0  0  0
 10 11  1  0  0  0  0
 11 12  1  0  0  0  0
 11 18  1  0  0  0  0
 12 20  1  0  0  0  0
 12 21  1  0  0  0  0
 13 12  1  0  0  0  0
 14  9  1  0  0  0  0
 14 13  2  0  0  0  0
 17 10  1  0  0  0  0
 19 11  1  0  0  0  0
 22 13  1  0  0  0  0
 23 14  1  0  0  0  0
 24 23  1  0  0  0  0
 25 23  1  0  0  0  0
 26 31  1  0  0  0  0
 27 28  1  0  0  0  0
 27 26  2  0  0  0  0
 28 29  2  0  0  0  0
 29 34  1  0  0  0  0
 29 30  1  0  0  0  0
 30 35  1  0  0  0  0
 31 30  2  0  0  0  0
 32 27  1  0  0  0  0
 33 28  1  0  0  0  0
 35 36  1  0  0  0  0
 37 35  2  0  0  0  0
M  END
>  <minimizedAffinity>
-5.23851919

$$$$

 OpenBabel03252505093D

 37 39  0  0  1  0  0  0  0  0999 V2000
   35.9140   24.8000   38.7830 C   0  0  0  0  0  0  0  0  0  0  0  0
   36.0780   26.0720   38.1740 C   0  0  0  0  0  0  0  0  0  0  0  0
   36.7100   27.0790   38.9470 C   0  0  0  0  0  0  0  0  0  0  0  0
   37.1240   26.7900   40.2080 N   0  0  0  0  0  0  0  0  0  0  0  0
   36.9480   25.5720   40.7440 C   0  0  0  0  0  0  0  0  0  0  0  0
   36.3420   24.5680   40.0340 N   0  0  0  0  0  0  0  0  0  0  0  0
   35.4320   24.0330   38.1890 H   0  0  0  0  0  0  0  0  0  0  0  0
   35.7380   26.2710   37.1670 H   0  0  0  0  0  0  0  0  0  0  0  0
   37.4160   25.3110   42.1330 C   0  0  2  0  0  0  0  0  0  0  0  0
   37.6630   26.6660   42.7340 C   0  0  0  0  0  0  0  0  0  0  0  0
   39.0680   27.0840   42.8670 C   0  0  0  0  0  0  0  0  0  0  0  0
   39.7390   25.9700   43.6770 C   0  0  0  0  0  0  0  0  0  0  0  0
   39.7770   24.7090   42.9450 C   0  0  0  0  0  0  0  0  0  0  0  0
   38.5490   24.4130   42.1590 C   0  0  0  0  0  0  0  0  0  0  0  0
   36.5510   24.8370   42.6410 H   0  0  0  0  0  0  0  0  0  0  0  0
   37.2130   26.6680   43.7590 H   0  0  0  0  0  0  0  0  0  0  0  0
   37.1110   27.4770   42.2030 H   0  0  0  0  0  0  0  0  0  0  0  0
   39.1000   27.9940   43.4860 H   0  0  0  0  0  0  0  0  0  0  0  0
   39.5980   27.2700   41.9190 H   0  0  0  0  0  0  0  0  0  0  0  0
   39.1650   25.8640   44.6000 H   0  0  0  0  0  0  0  0  0  0  0  0
   40.7790   26.3030   43.7840 H   0  0  0  0  0  0  0  0  0  0  0  0
   40.5360   23.9430   42.8640 H   0  0  0  0  0  0  0  0  0  0  0  0
   38.4570   23.2060   41.3890 N   0  0  0  0  0  0  0  0  0  0  0  0
   37.9100   22.3750   41.6930 H   0  0  0  0  0  0  0  0  0  0  0  0
   38.9770   23.1730   40.4700 H   0  0  0  0  0  0  0  0  0  0  0  0
   36.9000   28.3960   38.3580 C   0  0  0  0  0  0  0  0  0  0  0  0
   36.7740   28.5280   37.0120 C   0  0  0  0  0  0  0  0  0  0  0  0
   36.9670   29.8190   36.4860 C   0  0  0  0  0  0  0  0  0  0  0  0
   37.2620   30.8170   37.3880 C   0  0  0  0  0  0  0  0  0  0  0  0
   37.3890   30.6830   38.7380 C   0  0  0  0  0  0  0  0  0  0  0  0
   37.1920   29.4120   39.1920 N   0  0  0  0  0  0  0  0  0  0  0  0
   36.5420   27.7400   36.3100 H   0  0  0  0  0  0  0  0  0  0  0  0
   36.8830   30.0010   35.4260 H   0  0  0  0  0  0  0  0  0  0  0  0
   37.4070   31.8050   36.9620 H   0  0  0  0  0  0  0  0  0  0  0  0
   37.7000   31.7780   39.6130 C   0  0  0  0  0  0  0  0  0  0  0  0
   38.5400   32.4290   39.4050 H   0  0  0  0  0  0  0  0  0  0  0  0
   36.9700   31.9580   40.6250 O   0  0  0  0  0  0  0  0  0  0  0  0
  1  6  1  0  0  0  0
  2  1  2  0  0  0  0
  2  3  1  0  0  0  0
  3  4  2  0  0  0  0
  4  5  1  0  0  0  0
  5  9  1  0  0  0  0
  6  5  2  0  0  0  0
  7  1  1  0  0  0  0
  8  2  1  0  0  0  0
  9 14  1  0  0  0  0
  9 15  1  1  0  0  0
  9 10  1  0  0  0  0
 10 11  1  0  0  0  0
 10 16  1  0  0  0  0
 11 18  1  0  0  0  0
 11 12  1  0  0  0  0
 12 21  1  0  0  0  0
 12 20  1  0  0  0  0
 13 12  1  0  0  0  0
 14 13  2  0  0  0  0
 17 10  1  0  0  0  0
 19 11  1  0  0  0  0
 22 13  1  0  0  0  0
 23 24  1  0  0  0  0
 23 14  1  0  0  0  0
 25 23  1  0  0  0  0
 26  3  1  0  0  0  0
 26 31  1  0  0  0  0
 27 26  2  0  0  0  0
 28 27  1  0  0  0  0
 28 29  2  0  0  0  0
 29 30  1  0  0  0  0
 30 31  2  0  0  0  0
 30 35  1  0  0  0  0
 32 27  1  0  0  0  0
 33 28  1  0  0  0  0
 34 29  1  0  0  0  0
 35 37  2  0  0  0  0
 36 35  1  0  0  0  0
M  END
>  <minimizedAffinity>
-5.23838329

$$$$
