
 OpenBabel03252506493D

 23 24  0  0  0  0  0  0  0  0999 V2000
   35.6400   28.9370   40.6080 S   0  0  0  0  0  0  0  0  0  0  0  0
   36.6060   25.9150   40.1970 Cl  0  0  0  0  0  0  0  0  0  0  0  0
   37.2620   26.8340   41.5540 C   0  0  0  0  0  0  0  0  0  0  0  0
   36.7960   28.1140   41.6540 C   0  0  0  0  0  0  0  0  0  0  0  0
   37.2820   28.8840   42.7080 C   0  0  0  0  0  0  0  0  0  0  0  0
   38.2030   28.3270   43.5960 C   0  0  0  0  0  0  0  0  0  0  0  0
   38.6690   27.0390   43.4920 C   0  0  0  0  0  0  0  0  0  0  0  0
   38.1710   26.2840   42.4310 C   0  0  0  0  0  0  0  0  0  0  0  0
   38.6800   24.6250   42.1790 Cl  0  0  0  0  0  0  0  0  0  0  0  0
   36.9830   29.9080   42.8830 H   0  0  0  0  0  0  0  0  0  0  0  0
   38.5760   28.9310   44.4130 H   0  0  0  0  0  0  0  0  0  0  0  0
   39.3830   26.6120   44.1840 H   0  0  0  0  0  0  0  0  0  0  0  0
   36.3850   30.2150   39.5990 C   0  0  0  0  0  0  0  0  0  0  0  0
   36.6910   29.8290   38.2860 C   0  0  0  0  0  0  0  0  0  0  0  0
   37.2830   30.7990   37.4420 C   0  0  0  0  0  0  0  0  0  0  0  0
   37.5160   32.0250   37.9420 N   0  0  0  0  0  0  0  0  0  0  0  0
   37.2060   32.3550   39.2130 C   0  0  0  0  0  0  0  0  0  0  0  0
   36.6390   31.4630   40.0610 N   0  0  0  0  0  0  0  0  0  0  0  0
   36.5000   28.8550   37.9050 H   0  0  0  0  0  0  0  0  0  0  0  0
   37.5430   30.5670   36.4180 H   0  0  0  0  0  0  0  0  0  0  0  0
   37.4840   33.6980   39.6930 C   0  0  0  0  0  0  0  0  0  0  0  0
   36.8440   34.5250   39.4180 H   0  0  0  0  0  0  0  0  0  0  0  0
   38.4460   34.0200   40.4390 O   0  0  0  0  0  0  0  0  0  0  0  0
  1  4  1  0  0  0  0
  2  3  1  0  0  0  0
  3  4  2  0  0  0  0
  3  8  1  0  0  0  0
  4  5  1  0  0  0  0
  5 10  1  0  0  0  0
  5  6  2  0  0  0  0
  6 11  1  0  0  0  0
  7  6  1  0  0  0  0
  7 12  1  0  0  0  0
  8  7  2  0  0  0  0
  9  8  1  0  0  0  0
 13 18  1  0  0  0  0
 13  1  1  0  0  0  0
 14 13  2  0  0  0  0
 15 16  2  0  0  0  0
 15 14  1  0  0  0  0
 16 17  1  0  0  0  0
 17 21  1  0  0  0  0
 17 18  2  0  0  0  0
 19 14  1  0  0  0  0
 20 15  1  0  0  0  0
 21 23  2  0  0  0  0
 22 21  1  0  0  0  0
M  END
>  <minimizedAffinity>
-4.89846945

$$$$

 OpenBabel03252506493D

 23 24  0  0  0  0  0  0  0  0999 V2000
   37.3910   28.2390   43.4490 S   0  0  0  0  0  0  0  0  0  0  0  0
   35.7540   29.3930   40.9540 Cl  0  0  0  0  0  0  0  0  0  0  0  0
   37.3070   30.1290   41.3580 C   0  0  0  0  0  0  0  0  0  0  0  0
   37.9370   29.5750   42.4360 C   0  0  0  0  0  0  0  0  0  0  0  0
   39.1670   30.1190   42.7990 C   0  0  0  0  0  0  0  0  0  0  0  0
   39.6910   31.1820   42.0620 C   0  0  0  0  0  0  0  0  0  0  0  0
   39.0540   31.7360   40.9780 C   0  0  0  0  0  0  0  0  0  0  0  0
   37.8240   31.1780   40.6300 C   0  0  0  0  0  0  0  0  0  0  0  0
   36.9030   31.7880   39.2680 Cl  0  0  0  0  0  0  0  0  0  0  0  0
   39.7520   29.7590   43.6340 H   0  0  0  0  0  0  0  0  0  0  0  0
   40.6480   31.5990   42.3490 H   0  0  0  0  0  0  0  0  0  0  0  0
   39.4650   32.5610   40.4100 H   0  0  0  0  0  0  0  0  0  0  0  0
   38.1840   26.6830   43.0530 C   0  0  0  0  0  0  0  0  0  0  0  0
   39.4260   26.4780   43.6700 C   0  0  0  0  0  0  0  0  0  0  0  0
   40.1000   25.2640   43.3940 C   0  0  0  0  0  0  0  0  0  0  0  0
   39.5160   24.3830   42.5620 N   0  0  0  0  0  0  0  0  0  0  0  0
   38.3180   24.6210   41.9880 C   0  0  0  0  0  0  0  0  0  0  0  0
   37.6330   25.7670   42.2210 N   0  0  0  0  0  0  0  0  0  0  0  0
   39.8750   27.1840   44.3260 H   0  0  0  0  0  0  0  0  0  0  0  0
   41.0610   25.0420   43.8380 H   0  0  0  0  0  0  0  0  0  0  0  0
   37.7400   23.6290   41.0980 C   0  0  0  0  0  0  0  0  0  0  0  0
   36.7270   23.7370   40.7370 H   0  0  0  0  0  0  0  0  0  0  0  0
   38.3280   22.5980   40.6770 O   0  0  0  0  0  0  0  0  0  0  0  0
  2  3  1  0  0  0  0
  3  4  1  0  0  0  0
  4  5  2  0  0  0  0
  4  1  1  0  0  0  0
  5 10  1  0  0  0  0
  6 11  1  0  0  0  0
  6  5  1  0  0  0  0
  7  6  2  0  0  0  0
  8  7  1  0  0  0  0
  8  3  2  0  0  0  0
  9  8  1  0  0  0  0
 12  7  1  0  0  0  0
 13  1  1  0  0  0  0
 13 14  1  0  0  0  0
 14 19  1  0  0  0  0
 15 14  2  0  0  0  0
 15 20  1  0  0  0  0
 16 15  1  0  0  0  0
 17 18  1  0  0  0  0
 17 16  2  0  0  0  0
 18 13  2  0  0  0  0
 21 17  1  0  0  0  0
 22 21  1  0  0  0  0
 23 21  2  0  0  0  0
M  END
>  <minimizedAffinity>
-4.79161167

$$$$

 OpenBabel03252506493D

 23 24  0  0  0  0  0  0  0  0999 V2000
   37.6000   28.4780   43.4480 S   0  0  0  0  0  0  0  0  0  0  0  0
   39.5780   30.7770   42.4270 Cl  0  0  0  0  0  0  0  0  0  0  0  0
   38.1210   30.4390   41.4890 C   0  0  0  0  0  0  0  0  0  0  0  0
   37.3350   29.4430   41.9960 C   0  0  0  0  0  0  0  0  0  0  0  0
   36.1720   29.1360   41.2950 C   0  0  0  0  0  0  0  0  0  0  0  0
   35.8670   29.8420   40.1310 C   0  0  0  0  0  0  0  0  0  0  0  0
   36.6600   30.8430   39.6240 C   0  0  0  0  0  0  0  0  0  0  0  0
   37.8190   31.1360   40.3400 C   0  0  0  0  0  0  0  0  0  0  0  0
   38.9240   32.3900   39.8070 Cl  0  0  0  0  0  0  0  0  0  0  0  0
   35.4770   28.3680   41.6050 H   0  0  0  0  0  0  0  0  0  0  0  0
   34.9600   29.5980   39.5910 H   0  0  0  0  0  0  0  0  0  0  0  0
   36.4180   31.3870   38.7200 H   0  0  0  0  0  0  0  0  0  0  0  0
   38.2990   26.8650   43.1060 C   0  0  0  0  0  0  0  0  0  0  0  0
   39.5570   26.6320   43.6790 C   0  0  0  0  0  0  0  0  0  0  0  0
   40.1590   25.3730   43.4420 C   0  0  0  0  0  0  0  0  0  0  0  0
   39.4950   24.4790   42.6870 N   0  0  0  0  0  0  0  0  0  0  0  0
   38.2850   24.7450   42.1530 C   0  0  0  0  0  0  0  0  0  0  0  0
   37.6670   25.9350   42.3510 N   0  0  0  0  0  0  0  0  0  0  0  0
   40.0690   27.3490   44.2740 H   0  0  0  0  0  0  0  0  0  0  0  0
   41.1270   25.1270   43.8560 H   0  0  0  0  0  0  0  0  0  0  0  0
   37.6200   23.7370   41.3460 C   0  0  0  0  0  0  0  0  0  0  0  0
   38.1330   22.8240   41.0730 H   0  0  0  0  0  0  0  0  0  0  0  0
   36.4430   23.8150   40.9060 O   0  0  0  0  0  0  0  0  0  0  0  0
  3  4  1  0  0  0  0
  3  2  1  0  0  0  0
  4  1  1  0  0  0  0
  5 10  1  0  0  0  0
  5  4  2  0  0  0  0
  6  5  1  0  0  0  0
  7  6  2  0  0  0  0
  7  8  1  0  0  0  0
  8  3  2  0  0  0  0
  9  8  1  0  0  0  0
 11  6  1  0  0  0  0
 12  7  1  0  0  0  0
 13  1  1  0  0  0  0
 13 14  1  0  0  0  0
 14 19  1  0  0  0  0
 15 14  2  0  0  0  0
 15 20  1  0  0  0  0
 16 15  1  0  0  0  0
 17 18  1  0  0  0  0
 17 16  2  0  0  0  0
 18 13  2  0  0  0  0
 21 17  1  0  0  0  0
 22 21  1  0  0  0  0
 23 21  2  0  0  0  0
M  END
>  <minimizedAffinity>
-4.75662947

$$$$

 OpenBabel03252506493D

 23 24  0  0  0  0  0  0  0  0999 V2000
   36.6490   27.5060   43.0250 S   0  0  0  0  0  0  0  0  0  0  0  0
   38.8470   29.8320   43.0230 Cl  0  0  0  0  0  0  0  0  0  0  0  0
   37.5840   29.8630   41.7900 C   0  0  0  0  0  0  0  0  0  0  0  0
   36.6890   28.8340   41.8650 C   0  0  0  0  0  0  0  0  0  0  0  0
   35.6700   28.8100   40.9150 C   0  0  0  0  0  0  0  0  0  0  0  0
   35.6100   29.8170   39.9500 C   0  0  0  0  0  0  0  0  0  0  0  0
   36.5110   30.8500   39.8790 C   0  0  0  0  0  0  0  0  0  0  0  0
   37.5230   30.8570   40.8380 C   0  0  0  0  0  0  0  0  0  0  0  0
   38.7430   32.1170   40.8640 Cl  0  0  0  0  0  0  0  0  0  0  0  0
   34.9090   28.0440   40.8800 H   0  0  0  0  0  0  0  0  0  0  0  0
   34.8150   29.7920   39.2150 H   0  0  0  0  0  0  0  0  0  0  0  0
   36.4600   31.6280   39.1280 H   0  0  0  0  0  0  0  0  0  0  0  0
   37.7260   26.1470   42.5790 C   0  0  0  0  0  0  0  0  0  0  0  0
   37.0990   25.0950   41.8950 C   0  0  0  0  0  0  0  0  0  0  0  0
   37.9010   23.9920   41.5180 C   0  0  0  0  0  0  0  0  0  0  0  0
   39.2080   24.0140   41.8330 N   0  0  0  0  0  0  0  0  0  0  0  0
   39.7720   25.0470   42.4940 C   0  0  0  0  0  0  0  0  0  0  0  0
   39.0470   26.1260   42.8780 N   0  0  0  0  0  0  0  0  0  0  0  0
   36.0640   25.0930   41.6530 H   0  0  0  0  0  0  0  0  0  0  0  0
   37.4810   23.1490   40.9870 H   0  0  0  0  0  0  0  0  0  0  0  0
   41.1900   25.0100   42.8060 C   0  0  0  0  0  0  0  0  0  0  0  0
   41.8530   24.3420   42.2730 H   0  0  0  0  0  0  0  0  0  0  0  0
   41.7630   25.7130   43.6800 O   0  0  0  0  0  0  0  0  0  0  0  0
  3  4  1  0  0  0  0
  3  2  1  0  0  0  0
  4  1  1  0  0  0  0
  5  4  2  0  0  0  0
  6  5  1  0  0  0  0
  7  6  2  0  0  0  0
  7  8  1  0  0  0  0
  8  9  1  0  0  0  0
  8  3  2  0  0  0  0
 10  5  1  0  0  0  0
 11  6  1  0  0  0  0
 12  7  1  0  0  0  0
 13 18  1  0  0  0  0
 13  1  1  0  0  0  0
 14 13  2  0  0  0  0
 15 16  2  0  0  0  0
 15 14  1  0  0  0  0
 16 17  1  0  0  0  0
 17 21  1  0  0  0  0
 17 18  2  0  0  0  0
 19 14  1  0  0  0  0
 20 15  1  0  0  0  0
 21 23  2  0  0  0  0
 22 21  1  0  0  0  0
M  END
>  <minimizedAffinity>
-4.73930216

$$$$

 OpenBabel03252506493D

 23 24  0  0  0  0  0  0  0  0999 V2000
   36.8880   27.8150   42.9340 S   0  0  0  0  0  0  0  0  0  0  0  0
   35.5410   29.5610   40.6160 Cl  0  0  0  0  0  0  0  0  0  0  0  0
   37.0980   30.0780   41.2660 C   0  0  0  0  0  0  0  0  0  0  0  0
   37.6000   29.2760   42.2510 C   0  0  0  0  0  0  0  0  0  0  0  0
   38.8280   29.6390   42.7990 C   0  0  0  0  0  0  0  0  0  0  0  0
   39.4780   30.7810   42.3290 C   0  0  0  0  0  0  0  0  0  0  0  0
   38.9700   31.5850   41.3370 C   0  0  0  0  0  0  0  0  0  0  0  0
   37.7400   31.2060   40.8010 C   0  0  0  0  0  0  0  0  0  0  0  0
   36.9760   32.1410   39.5300 Cl  0  0  0  0  0  0  0  0  0  0  0  0
   39.3180   29.0780   43.5830 H   0  0  0  0  0  0  0  0  0  0  0  0
   40.4320   31.0570   42.7600 H   0  0  0  0  0  0  0  0  0  0  0  0
   39.4780   32.4700   40.9770 H   0  0  0  0  0  0  0  0  0  0  0  0
   37.8510   26.3410   42.6100 C   0  0  0  0  0  0  0  0  0  0  0  0
   37.1350   25.2790   42.0400 C   0  0  0  0  0  0  0  0  0  0  0  0
   37.8450   24.0870   41.7620 C   0  0  0  0  0  0  0  0  0  0  0  0
   39.1570   24.0400   42.0570 N   0  0  0  0  0  0  0  0  0  0  0  0
   39.8080   25.0870   42.6070 C   0  0  0  0  0  0  0  0  0  0  0  0
   39.1740   26.2500   42.8920 N   0  0  0  0  0  0  0  0  0  0  0  0
   36.0980   25.3310   41.8130 H   0  0  0  0  0  0  0  0  0  0  0  0
   37.3530   23.2300   41.3220 H   0  0  0  0  0  0  0  0  0  0  0  0
   41.2260   24.9730   42.9020 C   0  0  0  0  0  0  0  0  0  0  0  0
   41.8230   24.1950   42.4460 H   0  0  0  0  0  0  0  0  0  0  0  0
   41.8720   25.7270   43.6760 O   0  0  0  0  0  0  0  0  0  0  0  0
  2  3  1  0  0  0  0
  3  4  1  0  0  0  0
  4  5  2  0  0  0  0
  4  1  1  0  0  0  0
  5 10  1  0  0  0  0
  6 11  1  0  0  0  0
  6  5  1  0  0  0  0
  7  6  2  0  0  0  0
  8  3  2  0  0  0  0
  8  7  1  0  0  0  0
  9  8  1  0  0  0  0
 12  7  1  0  0  0  0
 13 18  1  0  0  0  0
 13  1  1  0  0  0  0
 14 13  2  0  0  0  0
 15 14  1  0  0  0  0
 15 16  2  0  0  0  0
 16 17  1  0  0  0  0
 17 18  2  0  0  0  0
 17 21  1  0  0  0  0
 19 14  1  0  0  0  0
 20 15  1  0  0  0  0
 21 23  2  0  0  0  0
 22 21  1  0  0  0  0
M  END
>  <minimizedAffinity>
-4.71818447

$$$$

 OpenBabel03252506493D

 23 24  0  0  0  0  0  0  0  0999 V2000
   37.2590   29.8560   39.5900 S   0  0  0  0  0  0  0  0  0  0  0  0
   36.7060   26.7040   39.6290 Cl  0  0  0  0  0  0  0  0  0  0  0  0
   37.0780   27.5150   41.1520 C   0  0  0  0  0  0  0  0  0  0  0  0
   37.3000   28.8590   41.0440 C   0  0  0  0  0  0  0  0  0  0  0  0
   37.5990   29.5480   42.2160 C   0  0  0  0  0  0  0  0  0  0  0  0
   37.6560   28.8510   43.4250 C   0  0  0  0  0  0  0  0  0  0  0  0
   37.4320   27.5000   43.5300 C   0  0  0  0  0  0  0  0  0  0  0  0
   37.1350   26.8280   42.3450 C   0  0  0  0  0  0  0  0  0  0  0  0
   36.8270   25.1010   42.3320 Cl  0  0  0  0  0  0  0  0  0  0  0  0
   37.7920   30.6110   42.2480 H   0  0  0  0  0  0  0  0  0  0  0  0
   37.8880   29.3940   44.3330 H   0  0  0  0  0  0  0  0  0  0  0  0
   37.4790   26.9650   44.4690 H   0  0  0  0  0  0  0  0  0  0  0  0
   38.1190   31.4150   39.7780 C   0  0  0  0  0  0  0  0  0  0  0  0
   37.2910   32.5450   39.8370 C   0  0  0  0  0  0  0  0  0  0  0  0
   37.9160   33.8050   39.9840 C   0  0  0  0  0  0  0  0  0  0  0  0
   39.2580   33.8490   40.0590 N   0  0  0  0  0  0  0  0  0  0  0  0
   40.0190   32.7360   39.9970 C   0  0  0  0  0  0  0  0  0  0  0  0
   39.4690   31.5050   39.8560 N   0  0  0  0  0  0  0  0  0  0  0  0
   36.2310   32.4940   39.7770 H   0  0  0  0  0  0  0  0  0  0  0  0
   37.3360   34.7170   40.0380 H   0  0  0  0  0  0  0  0  0  0  0  0
   41.4650   32.8500   40.0830 C   0  0  0  0  0  0  0  0  0  0  0  0
   42.0820   31.9680   40.1920 H   0  0  0  0  0  0  0  0  0  0  0  0
   42.1140   33.9280   40.0410 O   0  0  0  0  0  0  0  0  0  0  0  0
  1 13  1  0  0  0  0
  1  4  1  0  0  0  0
  2  3  1  0  0  0  0
  3  8  1  0  0  0  0
  4  3  2  0  0  0  0
  4  5  1  0  0  0  0
  5 10  1  0  0  0  0
  5  6  2  0  0  0  0
  6  7  1  0  0  0  0
  6 11  1  0  0  0  0
  7 12  1  0  0  0  0
  8  7  2  0  0  0  0
  9  8  1  0  0  0  0
 13 14  2  0  0  0  0
 13 18  1  0  0  0  0
 14 15  1  0  0  0  0
 15 20  1  0  0  0  0
 15 16  2  0  0  0  0
 17 16  1  0  0  0  0
 17 21  1  0  0  0  0
 18 17  2  0  0  0  0
 19 14  1  0  0  0  0
 21 22  1  0  0  0  0
 23 21  2  0  0  0  0
M  END
>  <minimizedAffinity>
-4.69615316

$$$$

 OpenBabel03252506493D

 23 24  0  0  0  0  0  0  0  0999 V2000
   36.6960   27.7310   42.9590 S   0  0  0  0  0  0  0  0  0  0  0  0
   39.8610   27.6250   43.4200 Cl  0  0  0  0  0  0  0  0  0  0  0  0
   39.0580   26.2060   42.7430 C   0  0  0  0  0  0  0  0  0  0  0  0
   37.7080   26.3380   42.5800 C   0  0  0  0  0  0  0  0  0  0  0  0
   37.0250   25.2470   42.0490 C   0  0  0  0  0  0  0  0  0  0  0  0
   37.7330   24.0920   41.7140 C   0  0  0  0  0  0  0  0  0  0  0  0
   39.0910   23.9630   41.8780 C   0  0  0  0  0  0  0  0  0  0  0  0
   39.7570   25.0660   42.4120 C   0  0  0  0  0  0  0  0  0  0  0  0
   41.4910   25.0390   42.6760 Cl  0  0  0  0  0  0  0  0  0  0  0  0
   35.9580   25.2400   41.8770 H   0  0  0  0  0  0  0  0  0  0  0  0
   37.1950   23.2470   41.3010 H   0  0  0  0  0  0  0  0  0  0  0  0
   39.6350   23.0650   41.6170 H   0  0  0  0  0  0  0  0  0  0  0  0
   36.5650   28.8980   41.6080 C   0  0  0  0  0  0  0  0  0  0  0  0
   35.7930   28.4620   40.5220 C   0  0  0  0  0  0  0  0  0  0  0  0
   35.6540   29.3440   39.4240 C   0  0  0  0  0  0  0  0  0  0  0  0
   36.2660   30.5400   39.4830 N   0  0  0  0  0  0  0  0  0  0  0  0
   37.0020   30.9200   40.5480 C   0  0  0  0  0  0  0  0  0  0  0  0
   37.1650   30.1130   41.6240 N   0  0  0  0  0  0  0  0  0  0  0  0
   35.3150   27.5130   40.4910 H   0  0  0  0  0  0  0  0  0  0  0  0
   35.0710   29.0700   38.5550 H   0  0  0  0  0  0  0  0  0  0  0  0
   37.6380   32.2270   40.5500 C   0  0  0  0  0  0  0  0  0  0  0  0
   38.4200   32.4570   41.2600 H   0  0  0  0  0  0  0  0  0  0  0  0
   37.3610   33.1730   39.7670 O   0  0  0  0  0  0  0  0  0  0  0  0
  3  2  1  0  0  0  0
  4  3  1  0  0  0  0
  4  1  1  0  0  0  0
  5  4  2  0  0  0  0
  6  7  2  0  0  0  0
  6  5  1  0  0  0  0
  7  8  1  0  0  0  0
  8  9  1  0  0  0  0
  8  3  2  0  0  0  0
 10  5  1  0  0  0  0
 11  6  1  0  0  0  0
 12  7  1  0  0  0  0
 13 18  1  0  0  0  0
 13  1  1  0  0  0  0
 14 13  2  0  0  0  0
 15 16  2  0  0  0  0
 15 14  1  0  0  0  0
 16 17  1  0  0  0  0
 17 21  1  0  0  0  0
 17 18  2  0  0  0  0
 19 14  1  0  0  0  0
 20 15  1  0  0  0  0
 21 22  1  0  0  0  0
 23 21  2  0  0  0  0
M  END
>  <minimizedAffinity>
-4.67106295

$$$$

 OpenBabel03252506493D

 23 24  0  0  0  0  0  0  0  0999 V2000
   36.3500   30.5540   40.9450 S   0  0  0  0  0  0  0  0  0  0  0  0
   39.4450   30.6450   41.7490 Cl  0  0  0  0  0  0  0  0  0  0  0  0
   38.5040   29.2150   42.1770 C   0  0  0  0  0  0  0  0  0  0  0  0
   37.1930   29.2600   41.7970 C   0  0  0  0  0  0  0  0  0  0  0  0
   36.4040   28.1560   42.1100 C   0  0  0  0  0  0  0  0  0  0  0  0
   36.9740   27.0750   42.7840 C   0  0  0  0  0  0  0  0  0  0  0  0
   38.2930   27.0330   43.1650 C   0  0  0  0  0  0  0  0  0  0  0  0
   39.0670   28.1480   42.8430 C   0  0  0  0  0  0  0  0  0  0  0  0
   40.7660   28.2290   43.2690 Cl  0  0  0  0  0  0  0  0  0  0  0  0
   35.3560   28.0840   41.8570 H   0  0  0  0  0  0  0  0  0  0  0  0
   36.3550   26.2200   43.0240 H   0  0  0  0  0  0  0  0  0  0  0  0
   38.7300   26.1930   43.6880 H   0  0  0  0  0  0  0  0  0  0  0  0
   36.6090   30.5200   39.1740 C   0  0  0  0  0  0  0  0  0  0  0  0
   37.5260   31.4640   38.6920 C   0  0  0  0  0  0  0  0  0  0  0  0
   37.7710   31.4850   37.2980 C   0  0  0  0  0  0  0  0  0  0  0  0
   37.1160   30.6040   36.5210 N   0  0  0  0  0  0  0  0  0  0  0  0
   36.2390   29.7110   37.0260 C   0  0  0  0  0  0  0  0  0  0  0  0
   35.9700   29.6510   38.3530 N   0  0  0  0  0  0  0  0  0  0  0  0
   38.0370   32.1540   39.3190 H   0  0  0  0  0  0  0  0  0  0  0  0
   38.4680   32.1870   36.8610 H   0  0  0  0  0  0  0  0  0  0  0  0
   35.5630   28.7860   36.1330 C   0  0  0  0  0  0  0  0  0  0  0  0
   35.6090   27.7200   36.3060 H   0  0  0  0  0  0  0  0  0  0  0  0
   34.8890   29.1120   35.1210 O   0  0  0  0  0  0  0  0  0  0  0  0
  1  4  1  0  0  0  0
  2  3  1  0  0  0  0
  3  8  1  0  0  0  0
  4  5  1  0  0  0  0
  4  3  2  0  0  0  0
  5  6  2  0  0  0  0
  6 11  1  0  0  0  0
  6  7  1  0  0  0  0
  7 12  1  0  0  0  0
  8  7  2  0  0  0  0
  8  9  1  0  0  0  0
 10  5  1  0  0  0  0
 13  1  1  0  0  0  0
 14 13  1  0  0  0  0
 14 19  1  0  0  0  0
 15 14  2  0  0  0  0
 16 17  2  0  0  0  0
 16 15  1  0  0  0  0
 17 18  1  0  0  0  0
 18 13  2  0  0  0  0
 20 15  1  0  0  0  0
 21 22  1  0  0  0  0
 21 17  1  0  0  0  0
 23 21  2  0  0  0  0
M  END
>  <minimizedAffinity>
-4.49549341

$$$$

 OpenBabel03252506493D

 23 24  0  0  0  0  0  0  0  0999 V2000
   36.3880   30.1700   41.3630 S   0  0  0  0  0  0  0  0  0  0  0  0
   35.1490   28.5580   38.8920 Cl  0  0  0  0  0  0  0  0  0  0  0  0
   36.3030   29.8530   38.5630 C   0  0  0  0  0  0  0  0  0  0  0  0
   36.7810   30.4870   39.6740 C   0  0  0  0  0  0  0  0  0  0  0  0
   37.6950   31.5180   39.4710 C   0  0  0  0  0  0  0  0  0  0  0  0
   38.0760   31.8500   38.1700 C   0  0  0  0  0  0  0  0  0  0  0  0
   37.5930   31.2090   37.0550 C   0  0  0  0  0  0  0  0  0  0  0  0
   36.6790   30.1810   37.2780 C   0  0  0  0  0  0  0  0  0  0  0  0
   35.9820   29.2780   35.9460 Cl  0  0  0  0  0  0  0  0  0  0  0  0
   38.1380   32.0870   40.2760 H   0  0  0  0  0  0  0  0  0  0  0  0
   38.7870   32.6520   38.0190 H   0  0  0  0  0  0  0  0  0  0  0  0
   37.8910   31.4720   36.0480 H   0  0  0  0  0  0  0  0  0  0  0  0
   37.2150   28.7250   42.0220 C   0  0  0  0  0  0  0  0  0  0  0  0
   38.3600   28.9950   42.7850 C   0  0  0  0  0  0  0  0  0  0  0  0
   39.0560   27.8910   43.3310 C   0  0  0  0  0  0  0  0  0  0  0  0
   38.5830   26.6550   43.0910 N   0  0  0  0  0  0  0  0  0  0  0  0
   37.4760   26.4390   42.3500 C   0  0  0  0  0  0  0  0  0  0  0  0
   36.7740   27.4620   41.8050 N   0  0  0  0  0  0  0  0  0  0  0  0
   38.7210   29.9780   42.9660 H   0  0  0  0  0  0  0  0  0  0  0  0
   39.9460   28.0280   43.9300 H   0  0  0  0  0  0  0  0  0  0  0  0
   37.0170   25.0780   42.1260 C   0  0  0  0  0  0  0  0  0  0  0  0
   35.9740   24.8750   41.9280 H   0  0  0  0  0  0  0  0  0  0  0  0
   37.7460   24.0530   42.1380 O   0  0  0  0  0  0  0  0  0  0  0  0
  1 13  1  0  0  0  0
  3  2  1  0  0  0  0
  3  4  1  0  0  0  0
  4  1  1  0  0  0  0
  5  4  2  0  0  0  0
  5 10  1  0  0  0  0
  6  5  1  0  0  0  0
  7  8  1  0  0  0  0
  7  6  2  0  0  0  0
  8  3  2  0  0  0  0
  9  8  1  0  0  0  0
 11  6  1  0  0  0  0
 12  7  1  0  0  0  0
 13 14  1  0  0  0  0
 14 19  1  0  0  0  0
 14 15  2  0  0  0  0
 15 20  1  0  0  0  0
 16 15  1  0  0  0  0
 17 16  2  0  0  0  0
 18 13  2  0  0  0  0
 18 17  1  0  0  0  0
 21 23  2  0  0  0  0
 21 17  1  0  0  0  0
 22 21  1  0  0  0  0
M  END
>  <minimizedAffinity>
-4.43322802

$$$$
