
 OpenBabel03252507393D

 32 35  0  0  0  0  0  0  0  0999 V2000
   36.4300   28.7020   41.7780 C   0  0  0  0  0  0  0  0  0  0  0  0
   37.4070   29.7270   41.7870 C   0  0  0  0  0  0  0  0  0  0  0  0
   37.3070   30.6970   40.8010 C   0  0  0  0  0  0  0  0  0  0  0  0
   36.3060   30.6200   39.9000 N   0  0  0  0  0  0  0  0  0  0  0  0
   35.3850   29.6250   39.9150 C   0  0  0  0  0  0  0  0  0  0  0  0
   35.4510   28.6890   40.8390 N   0  0  0  0  0  0  0  0  0  0  0  0
   38.1920   29.7910   42.4920 H   0  0  0  0  0  0  0  0  0  0  0  0
   34.5800   29.5610   39.1930 H   0  0  0  0  0  0  0  0  0  0  0  0
   37.7420   33.0040   40.1600 C   0  0  0  0  0  0  0  0  0  0  0  0
   38.2370   31.8160   40.6800 C   0  0  0  0  0  0  0  0  0  0  0  0
   39.5610   31.7690   41.0460 C   0  0  0  0  0  0  0  0  0  0  0  0
   40.4030   32.8490   40.9170 C   0  0  0  0  0  0  0  0  0  0  0  0
   41.7160   33.0290   41.2060 N   0  0  0  0  0  0  0  0  0  0  0  0
   42.0350   34.3340   40.8640 C   0  0  0  0  0  0  0  0  0  0  0  0
   40.9160   34.9110   40.3780 N   0  0  0  0  0  0  0  0  0  0  0  0
   39.9140   34.0220   40.4030 C   0  0  0  0  0  0  0  0  0  0  0  0
   38.5910   34.1020   40.0260 C   0  0  0  0  0  0  0  0  0  0  0  0
   36.6940   33.0580   39.8640 H   0  0  0  0  0  0  0  0  0  0  0  0
   39.9110   30.8330   41.4450 H   0  0  0  0  0  0  0  0  0  0  0  0
   42.3540   32.3200   41.6070 H   0  0  0  0  0  0  0  0  0  0  0  0
   43.0280   34.7460   40.9910 H   0  0  0  0  0  0  0  0  0  0  0  0
   38.1680   35.0100   39.6170 H   0  0  0  0  0  0  0  0  0  0  0  0
   36.5220   27.7170   42.7690 O   0  0  0  0  0  0  0  0  0  0  0  0
   37.6840   26.9760   42.9060 C   0  0  0  0  0  0  0  0  0  0  0  0
   37.3390   25.8640   42.2270 C   0  0  0  0  0  0  0  0  0  0  0  0
   38.9250   24.8080   42.3890 S   0  0  0  0  0  0  0  0  0  0  0  0
   39.7130   26.2010   43.3910 C   0  0  0  0  0  0  0  0  0  0  0  0
   38.8920   26.9310   43.3960 N   0  0  0  0  0  0  0  0  0  0  0  0
   36.6770   25.0710   41.5670 H   0  0  0  0  0  0  0  0  0  0  0  0
   41.1140   25.9790   43.8760 C   0  0  0  0  0  0  0  0  0  0  0  0
   41.3690   24.9520   43.8600 H   0  0  0  0  0  0  0  0  0  0  0  0
   41.8360   26.9190   44.2380 O   0  0  0  0  0  0  0  0  0  0  0  0
  1  2  1  0  0  0  0
  1 23  1  0  0  0  0
  2  7  1  0  0  0  0
  3  2  2  0  0  0  0
  4  5  2  0  0  0  0
  4  3  1  0  0  0  0
  5  6  1  0  0  0  0
  6  1  2  0  0  0  0
  8  5  1  0  0  0  0
  9 10  1  0  0  0  0
 10  3  1  0  0  0  0
 10 11  2  0  0  0  0
 11 19  1  0  0  0  0
 12 11  1  0  0  0  0
 12 13  1  0  0  0  0
 13 20  1  0  0  0  0
 14 21  1  0  0  0  0
 14 13  1  0  0  0  0
 15 16  1  0  0  0  0
 15 14  2  0  0  0  0
 16 12  2  0  0  0  0
 17  9  2  0  0  0  0
 17 16  1  0  0  0  0
 18  9  1  0  0  0  0
 22 17  1  0  0  0  0
 23 24  1  0  0  0  0
 24 28  1  0  0  0  0
 25 26  1  0  0  0  0
 25 24  2  0  0  0  0
 26 27  1  0  0  0  0
 27 28  2  0  0  0  0
 27 30  1  0  0  0  0
 29 25  1  0  0  0  0
 30 32  2  0  0  0  0
 31 30  1  0  0  0  0
M  END
>  <minimizedAffinity>
-5.71633768

$$$$

 OpenBabel03252507393D

 32 35  0  0  0  0  0  0  0  0999 V2000
   37.7790   29.8200   42.1390 C   0  0  0  0  0  0  0  0  0  0  0  0
   38.8220   30.6390   41.6420 C   0  0  0  0  0  0  0  0  0  0  0  0
   38.4960   31.5180   40.6190 C   0  0  0  0  0  0  0  0  0  0  0  0
   37.2290   31.5500   40.1570 N   0  0  0  0  0  0  0  0  0  0  0  0
   36.2500   30.7520   40.6530 C   0  0  0  0  0  0  0  0  0  0  0  0
   36.5270   29.9080   41.6240 N   0  0  0  0  0  0  0  0  0  0  0  0
   39.8150   30.6170   42.0010 H   0  0  0  0  0  0  0  0  0  0  0  0
   35.2330   30.7770   40.2840 H   0  0  0  0  0  0  0  0  0  0  0  0
   39.6750   33.6460   40.6260 C   0  0  0  0  0  0  0  0  0  0  0  0
   39.4600   32.4250   40.0030 C   0  0  0  0  0  0  0  0  0  0  0  0
   40.1650   32.1480   38.8570 C   0  0  0  0  0  0  0  0  0  0  0  0
   41.0660   33.0310   38.3110 C   0  0  0  0  0  0  0  0  0  0  0  0
   41.8570   32.9730   37.2100 N   0  0  0  0  0  0  0  0  0  0  0  0
   42.5650   34.1630   37.1520 C   0  0  0  0  0  0  0  0  0  0  0  0
   42.1900   34.9110   38.2100 N   0  0  0  0  0  0  0  0  0  0  0  0
   41.2780   34.2380   38.9260 C   0  0  0  0  0  0  0  0  0  0  0  0
   40.5880   34.5460   40.0780 C   0  0  0  0  0  0  0  0  0  0  0  0
   39.1240   33.8820   41.5370 H   0  0  0  0  0  0  0  0  0  0  0  0
   39.9730   31.1920   38.4000 H   0  0  0  0  0  0  0  0  0  0  0  0
   41.9160   32.1840   36.5440 H   0  0  0  0  0  0  0  0  0  0  0  0
   43.2760   34.3840   36.3650 H   0  0  0  0  0  0  0  0  0  0  0  0
   40.7280   35.4880   40.5920 H   0  0  0  0  0  0  0  0  0  0  0  0
   38.0970   28.9290   43.1710 O   0  0  0  0  0  0  0  0  0  0  0  0
   38.2240   27.5760   42.9060 C   0  0  0  0  0  0  0  0  0  0  0  0
   39.4310   27.3370   43.4550 C   0  0  0  0  0  0  0  0  0  0  0  0
   39.6470   25.4680   43.1120 S   0  0  0  0  0  0  0  0  0  0  0  0
   37.9610   25.4620   42.2610 C   0  0  0  0  0  0  0  0  0  0  0  0
   37.6790   26.5180   42.3730 N   0  0  0  0  0  0  0  0  0  0  0  0
   40.4940   27.5230   44.0370 H   0  0  0  0  0  0  0  0  0  0  0  0
   37.4870   24.1540   41.7040 C   0  0  0  0  0  0  0  0  0  0  0  0
   38.1940   23.3840   41.8740 H   0  0  0  0  0  0  0  0  0  0  0  0
   36.3940   24.0470   41.1290 O   0  0  0  0  0  0  0  0  0  0  0  0
  1 23  1  0  0  0  0
  2  7  1  0  0  0  0
  2  1  1  0  0  0  0
  3  2  2  0  0  0  0
  4  3  1  0  0  0  0
  4  5  2  0  0  0  0
  5  6  1  0  0  0  0
  6  1  2  0  0  0  0
  8  5  1  0  0  0  0
  9 18  1  0  0  0  0
 10  3  1  0  0  0  0
 10  9  2  0  0  0  0
 11 10  1  0  0  0  0
 12 11  2  0  0  0  0
 12 16  1  0  0  0  0
 13 12  1  0  0  0  0
 14 13  1  0  0  0  0
 14 15  2  0  0  0  0
 15 16  1  0  0  0  0
 16 17  2  0  0  0  0
 17 22  1  0  0  0  0
 17  9  1  0  0  0  0
 19 11  1  0  0  0  0
 20 13  1  0  0  0  0
 21 14  1  0  0  0  0
 24 23  1  0  0  0  0
 24 25  2  0  0  0  0
 25 29  1  0  0  0  0
 26 25  1  0  0  0  0
 27 28  2  0  0  0  0
 27 26  1  0  0  0  0
 28 24  1  0  0  0  0
 30 31  1  0  0  0  0
 30 27  1  0  0  0  0
 32 30  2  0  0  0  0
M  END
>  <minimizedAffinity>
-5.65486526

$$$$

 OpenBabel03252507393D

 32 35  0  0  0  0  0  0  0  0999 V2000
   36.9590   29.0270   42.0010 C   0  0  0  0  0  0  0  0  0  0  0  0
   36.7660   27.8680   41.2100 C   0  0  0  0  0  0  0  0  0  0  0  0
   37.3600   26.6980   41.6600 C   0  0  0  0  0  0  0  0  0  0  0  0
   38.0760   26.7190   42.8020 N   0  0  0  0  0  0  0  0  0  0  0  0
   38.2440   27.8450   43.5390 C   0  0  0  0  0  0  0  0  0  0  0  0
   37.6930   28.9730   43.1400 N   0  0  0  0  0  0  0  0  0  0  0  0
   36.2060   27.8480   40.3150 H   0  0  0  0  0  0  0  0  0  0  0  0
   38.8180   27.8640   44.4570 H   0  0  0  0  0  0  0  0  0  0  0  0
   36.4710   25.3910   39.8100 C   0  0  0  0  0  0  0  0  0  0  0  0
   37.2520   25.4230   40.9560 C   0  0  0  0  0  0  0  0  0  0  0  0
   37.8730   24.2620   41.3520 C   0  0  0  0  0  0  0  0  0  0  0  0
   37.7470   23.0820   40.6580 C   0  0  0  0  0  0  0  0  0  0  0  0
   38.2560   21.8410   40.8580 N   0  0  0  0  0  0  0  0  0  0  0  0
   37.7870   21.0360   39.8300 C   0  0  0  0  0  0  0  0  0  0  0  0
   37.0100   21.8020   39.0370 N   0  0  0  0  0  0  0  0  0  0  0  0
   36.9740   23.0500   39.5260 C   0  0  0  0  0  0  0  0  0  0  0  0
   36.3380   24.1970   39.1020 C   0  0  0  0  0  0  0  0  0  0  0  0
   35.9710   26.3020   39.4820 H   0  0  0  0  0  0  0  0  0  0  0  0
   38.4710   24.3240   42.2450 H   0  0  0  0  0  0  0  0  0  0  0  0
   38.8770   21.5550   41.6340 H   0  0  0  0  0  0  0  0  0  0  0  0
   38.0410   19.9860   39.7460 H   0  0  0  0  0  0  0  0  0  0  0  0
   35.7200   24.2110   38.2130 H   0  0  0  0  0  0  0  0  0  0  0  0
   36.3640   30.2150   41.5560 O   0  0  0  0  0  0  0  0  0  0  0  0
   37.1090   31.1400   40.8450 C   0  0  0  0  0  0  0  0  0  0  0  0
   36.4900   31.0770   39.6500 C   0  0  0  0  0  0  0  0  0  0  0  0
   37.4900   32.3490   38.6310 S   0  0  0  0  0  0  0  0  0  0  0  0
   38.5640   32.6750   40.1500 C   0  0  0  0  0  0  0  0  0  0  0  0
   38.1010   31.9870   40.8710 N   0  0  0  0  0  0  0  0  0  0  0  0
   35.7010   30.7440   38.7720 H   0  0  0  0  0  0  0  0  0  0  0  0
   39.6620   33.6840   40.0010 C   0  0  0  0  0  0  0  0  0  0  0  0
   40.6080   33.2150   39.9230 H   0  0  0  0  0  0  0  0  0  0  0  0
   39.4300   34.9010   39.9770 O   0  0  0  0  0  0  0  0  0  0  0  0
  1  6  1  0  0  0  0
  2  3  1  0  0  0  0
  2  1  2  0  0  0  0
  3  4  2  0  0  0  0
  4  5  1  0  0  0  0
  5  8  1  0  0  0  0
  6  5  2  0  0  0  0
  7  2  1  0  0  0  0
  9 10  1  0  0  0  0
 10 11  2  0  0  0  0
 10  3  1  0  0  0  0
 11 19  1  0  0  0  0
 12 13  1  0  0  0  0
 12 11  1  0  0  0  0
 13 20  1  0  0  0  0
 14 13  1  0  0  0  0
 15 16  1  0  0  0  0
 15 14  2  0  0  0  0
 16 12  2  0  0  0  0
 17 16  1  0  0  0  0
 17  9  2  0  0  0  0
 18  9  1  0  0  0  0
 21 14  1  0  0  0  0
 22 17  1  0  0  0  0
 23  1  1  0  0  0  0
 24 28  1  0  0  0  0
 24 23  1  0  0  0  0
 25 24  2  0  0  0  0
 26 25  1  0  0  0  0
 26 27  1  0  0  0  0
 27 28  2  0  0  0  0
 29 25  1  0  0  0  0
 30 27  1  0  0  0  0
 31 30  1  0  0  0  0
 32 30  2  0  0  0  0
M  END
>  <minimizedAffinity>
-5.61173773

$$$$

 OpenBabel03252507393D

 32 35  0  0  0  0  0  0  0  0999 V2000
   36.7070   28.5290   41.9850 C   0  0  0  0  0  0  0  0  0  0  0  0
   37.6530   29.5780   41.8890 C   0  0  0  0  0  0  0  0  0  0  0  0
   37.3820   30.5850   40.9730 C   0  0  0  0  0  0  0  0  0  0  0  0
   36.2550   30.5180   40.2350 N   0  0  0  0  0  0  0  0  0  0  0  0
   35.3670   29.4990   40.3490 C   0  0  0  0  0  0  0  0  0  0  0  0
   35.5940   28.5290   41.2080 N   0  0  0  0  0  0  0  0  0  0  0  0
   38.5360   29.6340   42.4650 H   0  0  0  0  0  0  0  0  0  0  0  0
   34.4620   29.4440   39.7570 H   0  0  0  0  0  0  0  0  0  0  0  0
   37.7130   32.8470   40.1420 C   0  0  0  0  0  0  0  0  0  0  0  0
   38.2600   31.7310   40.7590 C   0  0  0  0  0  0  0  0  0  0  0  0
   39.5830   31.7770   41.1290 C   0  0  0  0  0  0  0  0  0  0  0  0
   40.3750   32.8790   40.9100 C   0  0  0  0  0  0  0  0  0  0  0  0
   41.6770   33.1430   41.1830 N   0  0  0  0  0  0  0  0  0  0  0  0
   41.9370   34.4290   40.7340 C   0  0  0  0  0  0  0  0  0  0  0  0
   40.7950   34.9110   40.2020 N   0  0  0  0  0  0  0  0  0  0  0  0
   39.8350   33.9820   40.3000 C   0  0  0  0  0  0  0  0  0  0  0  0
   38.5110   33.9690   39.9170 C   0  0  0  0  0  0  0  0  0  0  0  0
   36.6650   32.8280   39.8420 H   0  0  0  0  0  0  0  0  0  0  0  0
   39.9740   30.8940   41.6050 H   0  0  0  0  0  0  0  0  0  0  0  0
   42.3450   32.5010   41.6420 H   0  0  0  0  0  0  0  0  0  0  0  0
   42.9100   34.8960   40.8270 H   0  0  0  0  0  0  0  0  0  0  0  0
   38.0480   34.8190   39.4330 H   0  0  0  0  0  0  0  0  0  0  0  0
   36.9710   27.5080   42.9060 O   0  0  0  0  0  0  0  0  0  0  0  0
   37.4740   26.2930   42.4700 C   0  0  0  0  0  0  0  0  0  0  0  0
   38.6670   26.2910   43.0960 C   0  0  0  0  0  0  0  0  0  0  0  0
   39.3990   24.6200   42.5220 S   0  0  0  0  0  0  0  0  0  0  0  0
   37.8280   24.3130   41.5180 C   0  0  0  0  0  0  0  0  0  0  0  0
   37.2650   25.2280   41.7460 N   0  0  0  0  0  0  0  0  0  0  0  0
   39.6050   26.6510   43.7980 H   0  0  0  0  0  0  0  0  0  0  0  0
   37.7580   23.0320   40.7430 C   0  0  0  0  0  0  0  0  0  0  0  0
   37.3700   22.2440   41.3350 H   0  0  0  0  0  0  0  0  0  0  0  0
   38.1220   22.9640   39.5600 O   0  0  0  0  0  0  0  0  0  0  0  0
  1 23  1  0  0  0  0
  2  1  1  0  0  0  0
  2  7  1  0  0  0  0
  3  2  2  0  0  0  0
  4  5  2  0  0  0  0
  4  3  1  0  0  0  0
  5  6  1  0  0  0  0
  6  1  2  0  0  0  0
  8  5  1  0  0  0  0
  9 10  1  0  0  0  0
 10  3  1  0  0  0  0
 10 11  2  0  0  0  0
 11 19  1  0  0  0  0
 12 11  1  0  0  0  0
 12 13  1  0  0  0  0
 13 20  1  0  0  0  0
 14 21  1  0  0  0  0
 14 13  1  0  0  0  0
 15 16  1  0  0  0  0
 15 14  2  0  0  0  0
 16 12  2  0  0  0  0
 17  9  2  0  0  0  0
 17 16  1  0  0  0  0
 18  9  1  0  0  0  0
 22 17  1  0  0  0  0
 24 23  1  0  0  0  0
 24 25  2  0  0  0  0
 25 29  1  0  0  0  0
 26 25  1  0  0  0  0
 27 28  2  0  0  0  0
 27 26  1  0  0  0  0
 28 24  1  0  0  0  0
 30 31  1  0  0  0  0
 30 27  1  0  0  0  0
 32 30  2  0  0  0  0
M  END
>  <minimizedAffinity>
-5.58914328

$$$$

 OpenBabel03252507393D

 32 35  0  0  0  0  0  0  0  0999 V2000
   37.2730   26.7550   42.5040 C   0  0  0  0  0  0  0  0  0  0  0  0
   38.6010   27.0870   42.8690 C   0  0  0  0  0  0  0  0  0  0  0  0
   39.5210   26.0490   42.9000 C   0  0  0  0  0  0  0  0  0  0  0  0
   39.1160   24.8010   42.5870 N   0  0  0  0  0  0  0  0  0  0  0  0
   37.8370   24.5130   42.2410 C   0  0  0  0  0  0  0  0  0  0  0  0
   36.9390   25.4750   42.2020 N   0  0  0  0  0  0  0  0  0  0  0  0
   38.9210   28.0630   43.1150 H   0  0  0  0  0  0  0  0  0  0  0  0
   37.5100   23.5120   41.9890 H   0  0  0  0  0  0  0  0  0  0  0  0
   41.3050   27.4800   43.7280 C   0  0  0  0  0  0  0  0  0  0  0  0
   40.9250   26.2320   43.2570 C   0  0  0  0  0  0  0  0  0  0  0  0
   41.8850   25.2540   43.1590 C   0  0  0  0  0  0  0  0  0  0  0  0
   43.1970   25.4680   43.5080 C   0  0  0  0  0  0  0  0  0  0  0  0
   44.2930   24.6690   43.4940 N   0  0  0  0  0  0  0  0  0  0  0  0
   45.3570   25.4250   43.9590 C   0  0  0  0  0  0  0  0  0  0  0  0
   44.8860   26.6570   44.2420 N   0  0  0  0  0  0  0  0  0  0  0  0
   43.5740   26.7010   43.9730 C   0  0  0  0  0  0  0  0  0  0  0  0
   42.6350   27.7040   44.0840 C   0  0  0  0  0  0  0  0  0  0  0  0
   40.5560   28.2670   43.8130 H   0  0  0  0  0  0  0  0  0  0  0  0
   41.5540   24.2980   42.7890 H   0  0  0  0  0  0  0  0  0  0  0  0
   44.3220   23.6800   43.1920 H   0  0  0  0  0  0  0  0  0  0  0  0
   46.3620   25.0300   44.0510 H   0  0  0  0  0  0  0  0  0  0  0  0
   42.8940   28.6900   44.4470 H   0  0  0  0  0  0  0  0  0  0  0  0
   36.3370   27.7950   42.4700 O   0  0  0  0  0  0  0  0  0  0  0  0
   36.5530   28.8980   41.6610 C   0  0  0  0  0  0  0  0  0  0  0  0
   35.9680   28.4780   40.5220 C   0  0  0  0  0  0  0  0  0  0  0  0
   36.2410   29.9800   39.3720 S   0  0  0  0  0  0  0  0  0  0  0  0
   37.1310   30.8610   40.7860 C   0  0  0  0  0  0  0  0  0  0  0  0
   37.0620   30.0960   41.5710 N   0  0  0  0  0  0  0  0  0  0  0  0
   35.3680   27.7650   39.7250 H   0  0  0  0  0  0  0  0  0  0  0  0
   37.6530   32.2370   40.5050 C   0  0  0  0  0  0  0  0  0  0  0  0
   36.9910   32.7820   39.8840 H   0  0  0  0  0  0  0  0  0  0  0  0
   38.7320   32.6330   40.9710 O   0  0  0  0  0  0  0  0  0  0  0  0
  1  2  1  0  0  0  0
  2  3  2  0  0  0  0
  2  7  1  0  0  0  0
  3 10  1  0  0  0  0
  4  3  1  0  0  0  0
  5  4  2  0  0  0  0
  6  5  1  0  0  0  0
  6  1  2  0  0  0  0
  8  5  1  0  0  0  0
  9 18  1  0  0  0  0
  9 17  1  0  0  0  0
 10  9  2  0  0  0  0
 11 10  1  0  0  0  0
 11 12  2  0  0  0  0
 12 16  1  0  0  0  0
 13 12  1  0  0  0  0
 13 14  1  0  0  0  0
 14 21  1  0  0  0  0
 14 15  2  0  0  0  0
 16 17  2  0  0  0  0
 16 15  1  0  0  0  0
 17 22  1  0  0  0  0
 19 11  1  0  0  0  0
 20 13  1  0  0  0  0
 23  1  1  0  0  0  0
 24 23  1  0  0  0  0
 25 24  2  0  0  0  0
 26 25  1  0  0  0  0
 26 27  1  0  0  0  0
 27 28  2  0  0  0  0
 28 24  1  0  0  0  0
 29 25  1  0  0  0  0
 30 27  1  0  0  0  0
 30 32  2  0  0  0  0
 31 30  1  0  0  0  0
M  END
>  <minimizedAffinity>
-5.55939579

$$$$

 OpenBabel03252507393D

 32 35  0  0  0  0  0  0  0  0999 V2000
   40.9440   33.7550   39.7400 C   0  0  0  0  0  0  0  0  0  0  0  0
   40.7380   32.4790   40.3200 C   0  0  0  0  0  0  0  0  0  0  0  0
   39.5070   32.2540   40.9180 C   0  0  0  0  0  0  0  0  0  0  0  0
   38.5850   33.2390   40.9200 N   0  0  0  0  0  0  0  0  0  0  0  0
   38.8120   34.4520   40.3570 C   0  0  0  0  0  0  0  0  0  0  0  0
   39.9700   34.6970   39.7810 N   0  0  0  0  0  0  0  0  0  0  0  0
   41.4570   31.7050   40.3210 H   0  0  0  0  0  0  0  0  0  0  0  0
   38.0730   35.2430   40.3560 H   0  0  0  0  0  0  0  0  0  0  0  0
   40.1640   30.2610   42.1490 C   0  0  0  0  0  0  0  0  0  0  0  0
   39.1440   30.9920   41.5570 C   0  0  0  0  0  0  0  0  0  0  0  0
   37.8670   30.4870   41.6110 C   0  0  0  0  0  0  0  0  0  0  0  0
   37.5680   29.2940   42.2250 C   0  0  0  0  0  0  0  0  0  0  0  0
   36.4070   28.6150   42.3960 N   0  0  0  0  0  0  0  0  0  0  0  0
   36.7080   27.4580   43.0980 C   0  0  0  0  0  0  0  0  0  0  0  0
   38.0360   27.4620   43.3340 N   0  0  0  0  0  0  0  0  0  0  0  0
   38.5760   28.5710   42.8100 C   0  0  0  0  0  0  0  0  0  0  0  0
   39.8670   29.0500   42.7740 C   0  0  0  0  0  0  0  0  0  0  0  0
   41.1830   30.6470   42.1160 H   0  0  0  0  0  0  0  0  0  0  0  0
   37.1010   31.0800   41.1410 H   0  0  0  0  0  0  0  0  0  0  0  0
   35.4730   28.9120   42.0630 H   0  0  0  0  0  0  0  0  0  0  0  0
   35.9580   26.7270   43.3710 H   0  0  0  0  0  0  0  0  0  0  0  0
   40.6890   28.5080   43.2250 H   0  0  0  0  0  0  0  0  0  0  0  0
   42.1840   33.9920   39.1350 O   0  0  0  0  0  0  0  0  0  0  0  0
   43.3220   34.1290   39.9120 C   0  0  0  0  0  0  0  0  0  0  0  0
   44.2590   33.7120   39.0390 C   0  0  0  0  0  0  0  0  0  0  0  0
   45.8560   33.8880   40.0760 S   0  0  0  0  0  0  0  0  0  0  0  0
   44.8120   34.5170   41.5180 C   0  0  0  0  0  0  0  0  0  0  0  0
   43.8100   34.4770   41.0700 N   0  0  0  0  0  0  0  0  0  0  0  0
   44.7750   33.2900   38.0100 H   0  0  0  0  0  0  0  0  0  0  0  0
   45.5420   34.8730   42.7780 C   0  0  0  0  0  0  0  0  0  0  0  0
   45.8930   35.8720   42.7520 H   0  0  0  0  0  0  0  0  0  0  0  0
   45.6840   34.0590   43.7020 O   0  0  0  0  0  0  0  0  0  0  0  0
  1  6  2  0  0  0  0
  1  2  1  0  0  0  0
  2  7  1  0  0  0  0
  2  3  2  0  0  0  0
  3  4  1  0  0  0  0
  3 10  1  0  0  0  0
  5  4  2  0  0  0  0
  6  5  1  0  0  0  0
  8  5  1  0  0  0  0
  9 17  1  0  0  0  0
 10 11  1  0  0  0  0
 10  9  2  0  0  0  0
 11 12  2  0  0  0  0
 12 13  1  0  0  0  0
 12 16  1  0  0  0  0
 13 14  1  0  0  0  0
 14 15  2  0  0  0  0
 14 21  1  0  0  0  0
 16 15  1  0  0  0  0
 17 16  2  0  0  0  0
 17 22  1  0  0  0  0
 18  9  1  0  0  0  0
 19 11  1  0  0  0  0
 20 13  1  0  0  0  0
 23  1  1  0  0  0  0
 23 24  1  0  0  0  0
 24 28  1  0  0  0  0
 25 24  2  0  0  0  0
 25 26  1  0  0  0  0
 26 27  1  0  0  0  0
 27 30  1  0  0  0  0
 28 27  2  0  0  0  0
 29 25  1  0  0  0  0
 30 32  2  0  0  0  0
 31 30  1  0  0  0  0
M  END
>  <minimizedAffinity>
-5.48150587

$$$$

 OpenBabel03252507393D

 32 35  0  0  0  0  0  0  0  0999 V2000
   33.4920   28.9030   36.9240 C   0  0  0  0  0  0  0  0  0  0  0  0
   33.9620   28.5330   38.2080 C   0  0  0  0  0  0  0  0  0  0  0  0
   35.3370   28.5100   38.3900 C   0  0  0  0  0  0  0  0  0  0  0  0
   36.1430   28.8340   37.3580 N   0  0  0  0  0  0  0  0  0  0  0  0
   35.6640   29.1850   36.1390 C   0  0  0  0  0  0  0  0  0  0  0  0
   34.3640   29.2170   35.9340 N   0  0  0  0  0  0  0  0  0  0  0  0
   33.3340   28.2780   39.0180 H   0  0  0  0  0  0  0  0  0  0  0  0
   36.3100   29.4460   35.3100 H   0  0  0  0  0  0  0  0  0  0  0  0
   36.4950   26.8680   39.7620 C   0  0  0  0  0  0  0  0  0  0  0  0
   35.9730   28.1490   39.6540 C   0  0  0  0  0  0  0  0  0  0  0  0
   36.0890   28.9920   40.7330 C   0  0  0  0  0  0  0  0  0  0  0  0
   36.6990   28.6120   41.9060 C   0  0  0  0  0  0  0  0  0  0  0  0
   36.9220   29.2610   43.0760 N   0  0  0  0  0  0  0  0  0  0  0  0
   37.5860   28.3780   43.9130 C   0  0  0  0  0  0  0  0  0  0  0  0
   37.7480   27.2220   43.2370 N   0  0  0  0  0  0  0  0  0  0  0  0
   37.2140   27.3470   42.0140 C   0  0  0  0  0  0  0  0  0  0  0  0
   37.1140   26.4770   40.9490 C   0  0  0  0  0  0  0  0  0  0  0  0
   36.4120   26.1870   38.9160 H   0  0  0  0  0  0  0  0  0  0  0  0
   35.6730   29.9780   40.6140 H   0  0  0  0  0  0  0  0  0  0  0  0
   36.6470   30.2340   43.2950 H   0  0  0  0  0  0  0  0  0  0  0  0
   37.8880   28.6400   44.9200 H   0  0  0  0  0  0  0  0  0  0  0  0
   37.5090   25.4700   40.9960 H   0  0  0  0  0  0  0  0  0  0  0  0
   32.1060   28.9290   36.7300 O   0  0  0  0  0  0  0  0  0  0  0  0
   31.5100   30.0210   36.1220 C   0  0  0  0  0  0  0  0  0  0  0  0
   30.7890   30.5050   37.1520 C   0  0  0  0  0  0  0  0  0  0  0  0
   29.9480   32.0240   36.3520 S   0  0  0  0  0  0  0  0  0  0  0  0
   30.8210   31.6140   34.7280 C   0  0  0  0  0  0  0  0  0  0  0  0
   31.3800   30.7160   35.0250 N   0  0  0  0  0  0  0  0  0  0  0  0
   30.3100   30.6210   38.2740 H   0  0  0  0  0  0  0  0  0  0  0  0
   30.5560   32.5230   33.5670 C   0  0  0  0  0  0  0  0  0  0  0  0
   31.4560   32.8210   33.0960 H   0  0  0  0  0  0  0  0  0  0  0  0
   29.4040   32.8500   33.2440 O   0  0  0  0  0  0  0  0  0  0  0  0
  1  2  1  0  0  0  0
  2  3  2  0  0  0  0
  2  7  1  0  0  0  0
  3 10  1  0  0  0  0
  4  3  1  0  0  0  0
  5  4  2  0  0  0  0
  6  5  1  0  0  0  0
  6  1  2  0  0  0  0
  8  5  1  0  0  0  0
  9 17  1  0  0  0  0
 10  9  2  0  0  0  0
 10 11  1  0  0  0  0
 11 12  2  0  0  0  0
 12 16  1  0  0  0  0
 12 13  1  0  0  0  0
 13 20  1  0  0  0  0
 13 14  1  0  0  0  0
 14 21  1  0  0  0  0
 15 14  2  0  0  0  0
 16 15  1  0  0  0  0
 17 22  1  0  0  0  0
 17 16  2  0  0  0  0
 18  9  1  0  0  0  0
 19 11  1  0  0  0  0
 23  1  1  0  0  0  0
 24 23  1  0  0  0  0
 24 25  2  0  0  0  0
 25 29  1  0  0  0  0
 26 25  1  0  0  0  0
 27 28  2  0  0  0  0
 27 26  1  0  0  0  0
 28 24  1  0  0  0  0
 30 27  1  0  0  0  0
 31 30  1  0  0  0  0
 32 30  2  0  0  0  0
M  END
>  <minimizedAffinity>
-5.45120907

$$$$

 OpenBabel03252507393D

 32 35  0  0  0  0  0  0  0  0999 V2000
   38.4690   27.1350   43.3730 C   0  0  0  0  0  0  0  0  0  0  0  0
   37.7710   26.3430   42.4290 C   0  0  0  0  0  0  0  0  0  0  0  0
   38.2860   25.0810   42.1680 C   0  0  0  0  0  0  0  0  0  0  0  0
   39.4010   24.6790   42.8100 N   0  0  0  0  0  0  0  0  0  0  0  0
   40.0490   25.4610   43.7090 C   0  0  0  0  0  0  0  0  0  0  0  0
   39.5860   26.6630   43.9800 N   0  0  0  0  0  0  0  0  0  0  0  0
   36.8970   26.6550   41.9240 H   0  0  0  0  0  0  0  0  0  0  0  0
   40.9440   25.1390   44.2270 H   0  0  0  0  0  0  0  0  0  0  0  0
   38.4750   23.1160   40.7460 C   0  0  0  0  0  0  0  0  0  0  0  0
   37.6800   24.1480   41.2220 C   0  0  0  0  0  0  0  0  0  0  0  0
   36.3820   24.2260   40.7780 C   0  0  0  0  0  0  0  0  0  0  0  0
   35.8490   23.3240   39.8870 C   0  0  0  0  0  0  0  0  0  0  0  0
   34.6220   23.2070   39.3210 N   0  0  0  0  0  0  0  0  0  0  0  0
   34.6570   22.0970   38.4930 C   0  0  0  0  0  0  0  0  0  0  0  0
   35.8960   21.5700   38.5730 N   0  0  0  0  0  0  0  0  0  0  0  0
   36.6350   22.3040   39.4160 C   0  0  0  0  0  0  0  0  0  0  0  0
   37.9410   22.1980   39.8420 C   0  0  0  0  0  0  0  0  0  0  0  0
   39.5070   23.0400   41.0880 H   0  0  0  0  0  0  0  0  0  0  0  0
   35.7930   25.0390   41.1670 H   0  0  0  0  0  0  0  0  0  0  0  0
   33.8140   23.8330   39.4840 H   0  0  0  0  0  0  0  0  0  0  0  0
   33.8020   21.7710   37.9120 H   0  0  0  0  0  0  0  0  0  0  0  0
   38.5930   21.4070   39.4940 H   0  0  0  0  0  0  0  0  0  0  0  0
   37.9580   28.4110   43.6440 O   0  0  0  0  0  0  0  0  0  0  0  0
   37.8970   29.3620   42.6400 C   0  0  0  0  0  0  0  0  0  0  0  0
   39.1200   29.9140   42.7580 C   0  0  0  0  0  0  0  0  0  0  0  0
   39.0790   31.2390   41.3790 S   0  0  0  0  0  0  0  0  0  0  0  0
   37.3200   30.6960   40.9540 C   0  0  0  0  0  0  0  0  0  0  0  0
   37.1760   29.8960   41.6930 N   0  0  0  0  0  0  0  0  0  0  0  0
   40.2550   30.1340   43.1660 H   0  0  0  0  0  0  0  0  0  0  0  0
   36.6390   31.4220   39.8330 C   0  0  0  0  0  0  0  0  0  0  0  0
   35.7580   30.9210   39.5290 H   0  0  0  0  0  0  0  0  0  0  0  0
   37.0980   32.4720   39.3630 O   0  0  0  0  0  0  0  0  0  0  0  0
  1 23  1  0  0  0  0
  1  6  1  0  0  0  0
  2  1  2  0  0  0  0
  3  2  1  0  0  0  0
  3  4  2  0  0  0  0
  4  5  1  0  0  0  0
  5  6  2  0  0  0  0
  5  8  1  0  0  0  0
  7  2  1  0  0  0  0
  9 18  1  0  0  0  0
  9 10  1  0  0  0  0
 10  3  1  0  0  0  0
 11 19  1  0  0  0  0
 11 10  2  0  0  0  0
 12 11  1  0  0  0  0
 13 20  1  0  0  0  0
 13 12  1  0  0  0  0
 14 15  2  0  0  0  0
 14 13  1  0  0  0  0
 15 16  1  0  0  0  0
 16 17  1  0  0  0  0
 16 12  2  0  0  0  0
 17  9  2  0  0  0  0
 21 14  1  0  0  0  0
 22 17  1  0  0  0  0
 24 25  2  0  0  0  0
 24 23  1  0  0  0  0
 25 29  1  0  0  0  0
 26 25  1  0  0  0  0
 27 26  1  0  0  0  0
 27 28  2  0  0  0  0
 28 24  1  0  0  0  0
 30 27  1  0  0  0  0
 31 30  1  0  0  0  0
 32 30  2  0  0  0  0
M  END
>  <minimizedAffinity>
-5.44484711

$$$$

 OpenBabel03252507393D

 32 35  0  0  0  0  0  0  0  0999 V2000
   38.2840   32.9050   39.9000 C   0  0  0  0  0  0  0  0  0  0  0  0
   39.2020   32.1660   39.1130 C   0  0  0  0  0  0  0  0  0  0  0  0
   40.4200   32.7710   38.8380 C   0  0  0  0  0  0  0  0  0  0  0  0
   40.6670   34.0050   39.3220 N   0  0  0  0  0  0  0  0  0  0  0  0
   39.7680   34.6890   40.0720 C   0  0  0  0  0  0  0  0  0  0  0  0
   38.6030   34.1440   40.3520 N   0  0  0  0  0  0  0  0  0  0  0  0
   39.0120   31.1990   38.7330 H   0  0  0  0  0  0  0  0  0  0  0  0
   39.9650   35.6800   40.4620 H   0  0  0  0  0  0  0  0  0  0  0  0
   41.1860   30.8960   37.4890 C   0  0  0  0  0  0  0  0  0  0  0  0
   41.4670   32.1370   38.0420 C   0  0  0  0  0  0  0  0  0  0  0  0
   42.7040   32.6890   37.8050 C   0  0  0  0  0  0  0  0  0  0  0  0
   43.6620   32.0590   37.0470 C   0  0  0  0  0  0  0  0  0  0  0  0
   44.9240   32.4050   36.6890 N   0  0  0  0  0  0  0  0  0  0  0  0
   45.4260   31.3740   35.9110 C   0  0  0  0  0  0  0  0  0  0  0  0
   44.4650   30.4320   35.8150 N   0  0  0  0  0  0  0  0  0  0  0  0
   43.3850   30.8330   36.5010 C   0  0  0  0  0  0  0  0  0  0  0  0
   42.1540   30.2520   36.7190 C   0  0  0  0  0  0  0  0  0  0  0  0
   40.2100   30.4440   37.6670 H   0  0  0  0  0  0  0  0  0  0  0  0
   42.8880   33.6520   38.2500 H   0  0  0  0  0  0  0  0  0  0  0  0
   45.4130   33.2780   36.9520 H   0  0  0  0  0  0  0  0  0  0  0  0
   46.4240   31.3910   35.4890 H   0  0  0  0  0  0  0  0  0  0  0  0
   41.8980   29.2850   36.3050 H   0  0  0  0  0  0  0  0  0  0  0  0
   37.0520   32.3040   40.1830 O   0  0  0  0  0  0  0  0  0  0  0  0
   37.0080   31.0820   40.8330 C   0  0  0  0  0  0  0  0  0  0  0  0
   36.0660   30.4560   40.1000 C   0  0  0  0  0  0  0  0  0  0  0  0
   35.9750   28.7530   40.9660 S   0  0  0  0  0  0  0  0  0  0  0  0
   37.3040   29.3330   42.1760 C   0  0  0  0  0  0  0  0  0  0  0  0
   37.4820   30.3500   41.8030 N   0  0  0  0  0  0  0  0  0  0  0  0
   35.2200   30.2490   39.2370 H   0  0  0  0  0  0  0  0  0  0  0  0
   37.7320   28.3580   43.2310 C   0  0  0  0  0  0  0  0  0  0  0  0
   38.3220   28.8280   43.9740 H   0  0  0  0  0  0  0  0  0  0  0  0
   37.4060   27.1630   43.1850 O   0  0  0  0  0  0  0  0  0  0  0  0
  1 23  1  0  0  0  0
  1  6  1  0  0  0  0
  2  1  2  0  0  0  0
  3  2  1  0  0  0  0
  3  4  2  0  0  0  0
  4  5  1  0  0  0  0
  5  6  2  0  0  0  0
  5  8  1  0  0  0  0
  7  2  1  0  0  0  0
  9 18  1  0  0  0  0
  9 10  1  0  0  0  0
 10  3  1  0  0  0  0
 11 10  2  0  0  0  0
 11 19  1  0  0  0  0
 12 11  1  0  0  0  0
 13 20  1  0  0  0  0
 13 12  1  0  0  0  0
 14 13  1  0  0  0  0
 15 14  2  0  0  0  0
 15 16  1  0  0  0  0
 16 17  1  0  0  0  0
 16 12  2  0  0  0  0
 17  9  2  0  0  0  0
 21 14  1  0  0  0  0
 22 17  1  0  0  0  0
 23 24  1  0  0  0  0
 24 28  1  0  0  0  0
 25 24  2  0  0  0  0
 25 26  1  0  0  0  0
 26 27  1  0  0  0  0
 27 30  1  0  0  0  0
 28 27  2  0  0  0  0
 29 25  1  0  0  0  0
 30 31  1  0  0  0  0
 32 30  2  0  0  0  0
M  END
>  <minimizedAffinity>
-5.4153676

$$$$
