
 OpenBabel03242516393D

 14 14  0  0  0  0  0  0  0  0999 V2000
   37.7000   27.7160   43.3410 C   0  0  0  0  0  0  0  0  0  0  0  0
   36.9950   26.7090   42.6600 C   0  0  0  0  0  0  0  0  0  0  0  0
   37.6710   25.5220   42.3400 C   0  0  0  0  0  0  0  0  0  0  0  0
   38.9680   25.4100   42.7030 N   0  0  0  0  0  0  0  0  0  0  0  0
   39.6180   26.4000   43.3580 C   0  0  0  0  0  0  0  0  0  0  0  0
   38.9780   27.5320   43.6660 N   0  0  0  0  0  0  0  0  0  0  0  0
   37.0290   28.9210   43.6710 N   0  0  0  0  0  0  0  0  0  0  0  0
   35.9720   26.9010   42.4200 H   0  0  0  0  0  0  0  0  0  0  0  0
   40.6550   26.1920   43.5960 H   0  0  0  0  0  0  0  0  0  0  0  0
   35.9780   28.9000   43.7540 H   0  0  0  0  0  0  0  0  0  0  0  0
   37.5650   29.8120   43.8300 H   0  0  0  0  0  0  0  0  0  0  0  0
   36.8920   24.5320   41.6430 C   0  0  0  0  0  0  0  0  0  0  0  0
   35.8320   24.5880   41.4310 H   0  0  0  0  0  0  0  0  0  0  0  0
   37.3400   23.4510   41.1780 O   0  0  0  0  0  0  0  0  0  0  0  0
  1  6  1  0  0  0  0
  1  7  1  0  0  0  0
  2  1  2  0  0  0  0
  3  2  1  0  0  0  0
  3  4  2  0  0  0  0
  4  5  1  0  0  0  0
  5  9  1  0  0  0  0
  5  6  2  0  0  0  0
  7 10  1  0  0  0  0
  7 11  1  0  0  0  0
  8  2  1  0  0  0  0
 12  3  1  0  0  0  0
 13 12  1  0  0  0  0
 14 12  2  0  0  0  0
M  END
>  <minimizedAffinity>
-3.29704714

$$$$

 OpenBabel03242516393D

 14 14  0  0  0  0  0  0  0  0999 V2000
   36.6790   31.3250   40.2510 C   0  0  0  0  0  0  0  0  0  0  0  0
   37.7320   32.1970   40.5770 C   0  0  0  0  0  0  0  0  0  0  0  0
   38.6550   32.5330   39.5750 C   0  0  0  0  0  0  0  0  0  0  0  0
   38.4830   31.9970   38.3460 N   0  0  0  0  0  0  0  0  0  0  0  0
   37.4580   31.1590   38.0650 C   0  0  0  0  0  0  0  0  0  0  0  0
   36.5770   30.8370   39.0160 N   0  0  0  0  0  0  0  0  0  0  0  0
   35.7390   30.9770   41.2540 N   0  0  0  0  0  0  0  0  0  0  0  0
   37.7740   32.5630   41.5790 H   0  0  0  0  0  0  0  0  0  0  0  0
   37.4260   30.7950   37.0450 H   0  0  0  0  0  0  0  0  0  0  0  0
   35.6120   31.6360   42.0670 H   0  0  0  0  0  0  0  0  0  0  0  0
   35.1830   30.0870   41.1890 H   0  0  0  0  0  0  0  0  0  0  0  0
   39.7070   33.4300   39.9750 C   0  0  0  0  0  0  0  0  0  0  0  0
   39.9240   33.7470   40.9860 H   0  0  0  0  0  0  0  0  0  0  0  0
   40.5300   33.9770   39.1950 O   0  0  0  0  0  0  0  0  0  0  0  0
  1  2  1  0  0  0  0
  1  7  1  0  0  0  0
  2  8  1  0  0  0  0
  3 12  1  0  0  0  0
  3  2  2  0  0  0  0
  4  3  1  0  0  0  0
  5  4  2  0  0  0  0
  5  6  1  0  0  0  0
  6  1  2  0  0  0  0
  7 10  1  0  0  0  0
  9  5  1  0  0  0  0
 11  7  1  0  0  0  0
 12 13  1  0  0  0  0
 14 12  2  0  0  0  0
M  END
>  <minimizedAffinity>
-3.27611089

$$$$

 OpenBabel03242516393D

 14 14  0  0  0  0  0  0  0  0999 V2000
   37.4320   32.3250   40.4440 C   0  0  0  0  0  0  0  0  0  0  0  0
   36.6040   31.1950   40.5610 C   0  0  0  0  0  0  0  0  0  0  0  0
   37.1200   30.0530   41.1910 C   0  0  0  0  0  0  0  0  0  0  0  0
   38.3900   30.0980   41.6520 N   0  0  0  0  0  0  0  0  0  0  0  0
   39.1620   31.2030   41.5210 C   0  0  0  0  0  0  0  0  0  0  0  0
   38.6750   32.2930   40.9230 N   0  0  0  0  0  0  0  0  0  0  0  0
   36.9240   33.4870   39.8100 N   0  0  0  0  0  0  0  0  0  0  0  0
   35.6160   31.2670   40.1630 H   0  0  0  0  0  0  0  0  0  0  0  0
   40.1620   31.1170   41.9300 H   0  0  0  0  0  0  0  0  0  0  0  0
   35.8790   33.6260   39.7880 H   0  0  0  0  0  0  0  0  0  0  0  0
   37.5710   34.1920   39.3730 H   0  0  0  0  0  0  0  0  0  0  0  0
   36.2210   28.9330   41.2790 C   0  0  0  0  0  0  0  0  0  0  0  0
   35.2990   28.8100   40.7260 H   0  0  0  0  0  0  0  0  0  0  0  0
   36.3820   27.9280   42.0200 O   0  0  0  0  0  0  0  0  0  0  0  0
  1  2  2  0  0  0  0
  1  6  1  0  0  0  0
  2  3  1  0  0  0  0
  3 12  1  0  0  0  0
  3  4  2  0  0  0  0
  5  4  1  0  0  0  0
  5  9  1  0  0  0  0
  6  5  2  0  0  0  0
  7  1  1  0  0  0  0
  8  2  1  0  0  0  0
 10  7  1  0  0  0  0
 11  7  1  0  0  0  0
 12 14  2  0  0  0  0
 13 12  1  0  0  0  0
M  END
>  <minimizedAffinity>
-3.25712729

$$$$

 OpenBabel03242516393D

 14 14  0  0  0  0  0  0  0  0999 V2000
   36.3140   29.6360   41.2710 C   0  0  0  0  0  0  0  0  0  0  0  0
   37.2640   29.3210   42.2570 C   0  0  0  0  0  0  0  0  0  0  0  0
   37.8390   28.0410   42.2440 C   0  0  0  0  0  0  0  0  0  0  0  0
   37.4470   27.1760   41.2810 N   0  0  0  0  0  0  0  0  0  0  0  0
   36.5280   27.5120   40.3470 C   0  0  0  0  0  0  0  0  0  0  0  0
   35.9780   28.7290   40.3550 N   0  0  0  0  0  0  0  0  0  0  0  0
   35.7250   30.9260   41.2720 N   0  0  0  0  0  0  0  0  0  0  0  0
   37.5020   30.0790   42.9700 H   0  0  0  0  0  0  0  0  0  0  0  0
   36.2960   26.7350   39.6280 H   0  0  0  0  0  0  0  0  0  0  0  0
   36.2530   31.7150   41.7310 H   0  0  0  0  0  0  0  0  0  0  0  0
   34.7860   31.0920   40.8270 H   0  0  0  0  0  0  0  0  0  0  0  0
   38.8040   27.7830   43.2790 C   0  0  0  0  0  0  0  0  0  0  0  0
   38.6090   27.3000   44.2280 H   0  0  0  0  0  0  0  0  0  0  0  0
   40.0250   28.0870   43.2260 O   0  0  0  0  0  0  0  0  0  0  0  0
  1  7  1  0  0  0  0
  1  2  1  0  0  0  0
  2  8  1  0  0  0  0
  3  2  2  0  0  0  0
  3 12  1  0  0  0  0
  4  3  1  0  0  0  0
  5  6  1  0  0  0  0
  5  4  2  0  0  0  0
  6  1  2  0  0  0  0
  7 10  1  0  0  0  0
  9  5  1  0  0  0  0
 11  7  1  0  0  0  0
 12 13  1  0  0  0  0
 14 12  2  0  0  0  0
M  END
>  <minimizedAffinity>
-3.24199319

$$$$

 OpenBabel03242516393D

 14 14  0  0  0  0  0  0  0  0999 V2000
   36.5230   31.2310   40.2700 C   0  0  0  0  0  0  0  0  0  0  0  0
   36.5100   30.4210   39.1210 C   0  0  0  0  0  0  0  0  0  0  0  0
   37.3390   30.7770   38.0460 C   0  0  0  0  0  0  0  0  0  0  0  0
   38.1060   31.8820   38.1710 N   0  0  0  0  0  0  0  0  0  0  0  0
   38.0940   32.6410   39.2920 C   0  0  0  0  0  0  0  0  0  0  0  0
   37.3080   32.3060   40.3180 N   0  0  0  0  0  0  0  0  0  0  0  0
   35.6910   30.8830   41.3640 N   0  0  0  0  0  0  0  0  0  0  0  0
   35.8660   29.5700   39.1270 H   0  0  0  0  0  0  0  0  0  0  0  0
   38.7520   33.5010   39.2730 H   0  0  0  0  0  0  0  0  0  0  0  0
   35.3910   29.8780   41.4630 H   0  0  0  0  0  0  0  0  0  0  0  0
   35.3830   31.6090   42.0610 H   0  0  0  0  0  0  0  0  0  0  0  0
   37.2780   29.9060   36.9020 C   0  0  0  0  0  0  0  0  0  0  0  0
   37.7120   28.9170   36.8290 H   0  0  0  0  0  0  0  0  0  0  0  0
   36.7040   30.1750   35.8140 O   0  0  0  0  0  0  0  0  0  0  0  0
  1  6  1  0  0  0  0
  1  7  1  0  0  0  0
  2  8  1  0  0  0  0
  2  1  2  0  0  0  0
  3  4  2  0  0  0  0
  3  2  1  0  0  0  0
  4  5  1  0  0  0  0
  5  6  2  0  0  0  0
  7 10  1  0  0  0  0
  7 11  1  0  0  0  0
  9  5  1  0  0  0  0
 12  3  1  0  0  0  0
 13 12  1  0  0  0  0
 14 12  2  0  0  0  0
M  END
>  <minimizedAffinity>
-3.23683572

$$$$

 OpenBabel03242516393D

 14 14  0  0  0  0  0  0  0  0999 V2000
   36.7200   29.8260   41.5800 C   0  0  0  0  0  0  0  0  0  0  0  0
   36.4150   28.4740   41.3460 C   0  0  0  0  0  0  0  0  0  0  0  0
   37.3860   27.5090   41.6550 C   0  0  0  0  0  0  0  0  0  0  0  0
   38.5660   27.9320   42.1610 N   0  0  0  0  0  0  0  0  0  0  0  0
   38.8270   29.2430   42.3720 C   0  0  0  0  0  0  0  0  0  0  0  0
   37.9070   30.1650   42.0810 N   0  0  0  0  0  0  0  0  0  0  0  0
   35.7480   30.8120   41.2730 N   0  0  0  0  0  0  0  0  0  0  0  0
   35.4520   28.2500   40.9440 H   0  0  0  0  0  0  0  0  0  0  0  0
   39.8080   29.4560   42.7820 H   0  0  0  0  0  0  0  0  0  0  0  0
   34.7350   30.5230   41.2490 H   0  0  0  0  0  0  0  0  0  0  0  0
   36.0300   31.8060   41.0750 H   0  0  0  0  0  0  0  0  0  0  0  0
   37.0100   26.1450   41.3930 C   0  0  0  0  0  0  0  0  0  0  0  0
   36.6940   25.7420   40.4390 H   0  0  0  0  0  0  0  0  0  0  0  0
   36.9970   25.2190   42.2460 O   0  0  0  0  0  0  0  0  0  0  0  0
  1  6  1  0  0  0  0
  2  1  2  0  0  0  0
  2  3  1  0  0  0  0
  3  4  2  0  0  0  0
  4  5  1  0  0  0  0
  5  9  1  0  0  0  0
  6  5  2  0  0  0  0
  7  1  1  0  0  0  0
  8  2  1  0  0  0  0
 10  7  1  0  0  0  0
 11  7  1  0  0  0  0
 12  3  1  0  0  0  0
 12 14  2  0  0  0  0
 13 12  1  0  0  0  0
M  END
>  <minimizedAffinity>
-3.23658872

$$$$

 OpenBabel03242516393D

 14 14  0  0  0  0  0  0  0  0999 V2000
   35.9200   29.5840   40.8010 C   0  0  0  0  0  0  0  0  0  0  0  0
   36.5240   28.6310   41.6400 C   0  0  0  0  0  0  0  0  0  0  0  0
   36.7590   27.3460   41.1270 C   0  0  0  0  0  0  0  0  0  0  0  0
   36.3910   27.0910   39.8520 N   0  0  0  0  0  0  0  0  0  0  0  0
   35.8100   28.0320   39.0720 C   0  0  0  0  0  0  0  0  0  0  0  0
   35.5840   29.2560   39.5540 N   0  0  0  0  0  0  0  0  0  0  0  0
   35.6760   30.8860   41.3050 N   0  0  0  0  0  0  0  0  0  0  0  0
   36.7750   28.9380   42.6310 H   0  0  0  0  0  0  0  0  0  0  0  0
   35.5600   27.7080   38.0680 H   0  0  0  0  0  0  0  0  0  0  0  0
   36.2650   31.2280   42.1100 H   0  0  0  0  0  0  0  0  0  0  0  0
   34.9270   31.4960   40.8880 H   0  0  0  0  0  0  0  0  0  0  0  0
   37.3810   26.4200   42.0370 C   0  0  0  0  0  0  0  0  0  0  0  0
   38.2540   26.6130   42.6460 H   0  0  0  0  0  0  0  0  0  0  0  0
   36.9910   25.2420   42.2530 O   0  0  0  0  0  0  0  0  0  0  0  0
  1  7  1  0  0  0  0
  1  2  1  0  0  0  0
  2  8  1  0  0  0  0
  3  2  2  0  0  0  0
  3 12  1  0  0  0  0
  4  3  1  0  0  0  0
  5  6  1  0  0  0  0
  5  4  2  0  0  0  0
  6  1  2  0  0  0  0
  7 10  1  0  0  0  0
  9  5  1  0  0  0  0
 11  7  1  0  0  0  0
 12 14  2  0  0  0  0
 12 13  1  0  0  0  0
M  END
>  <minimizedAffinity>
-3.2140789

$$$$

 OpenBabel03242516393D

 14 14  0  0  0  0  0  0  0  0999 V2000
   37.4930   28.0890   42.9540 C   0  0  0  0  0  0  0  0  0  0  0  0
   38.5370   27.2500   43.3810 C   0  0  0  0  0  0  0  0  0  0  0  0
   38.7880   26.0760   42.6540 C   0  0  0  0  0  0  0  0  0  0  0  0
   38.0090   25.8130   41.5810 N   0  0  0  0  0  0  0  0  0  0  0  0
   37.0110   26.6420   41.1980 C   0  0  0  0  0  0  0  0  0  0  0  0
   36.7680   27.7610   41.8850 N   0  0  0  0  0  0  0  0  0  0  0  0
   37.2280   29.2790   43.6790 N   0  0  0  0  0  0  0  0  0  0  0  0
   39.0900   27.5540   44.2420 H   0  0  0  0  0  0  0  0  0  0  0  0
   36.4570   26.3230   40.3220 H   0  0  0  0  0  0  0  0  0  0  0  0
   38.0080   29.7000   44.2490 H   0  0  0  0  0  0  0  0  0  0  0  0
   36.2780   29.7310   43.6480 H   0  0  0  0  0  0  0  0  0  0  0  0
   39.8700   25.2640   43.1430 C   0  0  0  0  0  0  0  0  0  0  0  0
   40.8100   25.6240   43.5400 H   0  0  0  0  0  0  0  0  0  0  0  0
   39.8750   24.0050   43.1780 O   0  0  0  0  0  0  0  0  0  0  0  0
  1  2  1  0  0  0  0
  1  7  1  0  0  0  0
  2  8  1  0  0  0  0
  3 12  1  0  0  0  0
  3  2  2  0  0  0  0
  4  3  1  0  0  0  0
  5  4  2  0  0  0  0
  5  6  1  0  0  0  0
  6  1  2  0  0  0  0
  7 10  1  0  0  0  0
  9  5  1  0  0  0  0
 11  7  1  0  0  0  0
 12 14  2  0  0  0  0
 12 13  1  0  0  0  0
M  END
>  <minimizedAffinity>
-3.19154024

$$$$

 OpenBabel03242516393D

 14 14  0  0  0  0  0  0  0  0999 V2000
   38.4950   24.4730   42.3260 C   0  0  0  0  0  0  0  0  0  0  0  0
   37.6300   25.5770   42.2330 C   0  0  0  0  0  0  0  0  0  0  0  0
   37.9810   26.7580   42.9050 C   0  0  0  0  0  0  0  0  0  0  0  0
   39.1340   26.7710   43.6100 N   0  0  0  0  0  0  0  0  0  0  0  0
   39.9440   25.6890   43.6800 C   0  0  0  0  0  0  0  0  0  0  0  0
   39.6150   24.5630   43.0420 N   0  0  0  0  0  0  0  0  0  0  0  0
   38.1530   23.2740   41.6520 N   0  0  0  0  0  0  0  0  0  0  0  0
   36.7440   25.4590   41.6490 H   0  0  0  0  0  0  0  0  0  0  0  0
   40.8410   25.8230   44.2750 H   0  0  0  0  0  0  0  0  0  0  0  0
   37.5060   23.3350   40.8230 H   0  0  0  0  0  0  0  0  0  0  0  0
   38.5350   22.3470   41.9710 H   0  0  0  0  0  0  0  0  0  0  0  0
   37.0530   27.8490   42.7680 C   0  0  0  0  0  0  0  0  0  0  0  0
   35.9970   27.7650   42.5480 H   0  0  0  0  0  0  0  0  0  0  0  0
   37.3440   29.0690   42.8850 O   0  0  0  0  0  0  0  0  0  0  0  0
  1  6  1  0  0  0  0
  2  1  2  0  0  0  0
  2  3  1  0  0  0  0
  3  4  2  0  0  0  0
  4  5  1  0  0  0  0
  5  9  1  0  0  0  0
  6  5  2  0  0  0  0
  7 11  1  0  0  0  0
  7  1  1  0  0  0  0
  8  2  1  0  0  0  0
 10  7  1  0  0  0  0
 12 14  2  0  0  0  0
 12  3  1  0  0  0  0
 13 12  1  0  0  0  0
M  END
>  <minimizedAffinity>
-3.10315847

$$$$
