
 OpenBabel03252509333D

 34 35  0  0  1  0  0  0  0  0999 V2000
   44.6890   35.1830   45.1580 O   0  0  0  0  0  0  0  0  0  0  0  0
   45.5040   34.1550   44.4480 P   0  0  2  0  0  0  0  0  0  0  0  0
   44.5740   32.9080   43.8180 O   0  0  0  0  0  0  0  0  0  0  0  0
   44.8690   32.6240   42.9360 H   0  0  0  0  0  0  0  0  0  0  0  0
   46.5750   33.4250   45.5450 O   0  0  0  0  0  0  0  0  0  0  0  0
   46.3410   32.0830   45.5400 C   0  0  0  0  0  0  0  0  0  0  0  0
   45.6600   31.6690   44.8110 H   0  0  0  0  0  0  0  0  0  0  0  0
   47.3390   31.6020   45.3150 H   0  0  0  0  0  0  0  0  0  0  0  0
   45.7050   31.9250   49.2020 C   0  0  0  0  0  0  0  0  0  0  0  0
   46.0740   32.4210   47.9450 C   0  0  0  0  0  0  0  0  0  0  0  0
   45.9580   31.5730   46.8580 C   0  0  0  0  0  0  0  0  0  0  0  0
   45.4930   30.3010   47.0700 N   0  0  0  0  0  0  0  0  0  0  0  0
   45.1470   29.8540   48.2940 C   0  0  0  0  0  0  0  0  0  0  0  0
   45.2570   30.6740   49.3480 N   0  0  0  0  0  0  0  0  0  0  0  0
   45.8110   32.6160   50.0190 H   0  0  0  0  0  0  0  0  0  0  0  0
   46.4370   33.4290   47.8120 H   0  0  0  0  0  0  0  0  0  0  0  0
   44.7830   28.8540   48.4490 H   0  0  0  0  0  0  0  0  0  0  0  0
   46.4270   34.9080   43.2610 O   0  0  0  0  0  0  0  0  0  0  0  0
   46.6710   34.0080   42.2240 C   0  0  1  0  0  0  0  0  0  0  0  0
   45.9560   34.3540   40.9470 C   0  0  0  0  0  0  0  0  0  0  0  0
   46.6700   33.4510   39.9580 C   0  0  0  0  0  0  0  0  0  0  0  0
   48.0630   33.2390   40.5110 C   0  0  0  0  0  0  0  0  0  0  0  0
   48.1320   34.1080   41.7760 C   0  0  1  0  0  0  0  0  0  0  0  0
   46.4940   32.9570   42.4820 H   0  0  0  0  0  0  0  0  0  0  0  0
   46.0100   35.4100   40.6900 H   0  0  0  0  0  0  0  0  0  0  0  0
   44.9100   33.9780   41.0040 H   0  0  0  0  0  0  0  0  0  0  0  0
   46.1250   32.5040   39.8050 H   0  0  0  0  0  0  0  0  0  0  0  0
   46.7830   34.0030   38.9980 H   0  0  0  0  0  0  0  0  0  0  0  0
   48.1120   32.1860   40.8600 H   0  0  0  0  0  0  0  0  0  0  0  0
   48.8490   33.4980   39.7830 H   0  0  0  0  0  0  0  0  0  0  0  0
   48.7540   33.6480   42.5470 H   0  0  0  0  0  0  0  0  0  0  0  0
   48.5440   35.4860   41.4850 C   0  0  0  0  0  0  0  0  0  0  0  0
   47.9800   36.1220   40.8200 H   0  0  0  0  0  0  0  0  0  0  0  0
   49.5710   35.9200   42.0250 O   0  0  0  0  0  0  0  0  0  0  0  0
  2  1  2  1  0  0  0
  2  5  1  0  0  0  0
  3  2  1  0  0  0  0
  4  3  1  0  0  0  0
  6  5  1  0  0  0  0
  6 11  1  0  0  0  0
  7  6  1  0  0  0  0
  8  6  1  0  0  0  0
  9 14  1  0  0  0  0
  9 15  1  0  0  0  0
 10  9  2  0  0  0  0
 11 12  2  0  0  0  0
 11 10  1  0  0  0  0
 12 13  1  0  0  0  0
 13 17  1  0  0  0  0
 13 14  2  0  0  0  0
 16 10  1  0  0  0  0
 18  2  1  0  0  0  0
 19 24  1  1  0  0  0
 19 18  1  0  0  0  0
 20 26  1  0  0  0  0
 20 19  1  0  0  0  0
 21 22  1  0  0  0  0
 21 20  1  0  0  0  0
 22 29  1  0  0  0  0
 22 23  1  0  0  0  0
 23 19  1  0  0  0  0
 23 31  1  1  0  0  0
 25 20  1  0  0  0  0
 27 21  1  0  0  0  0
 28 21  1  0  0  0  0
 30 22  1  0  0  0  0
 32 23  1  0  0  0  0
 32 34  2  0  0  0  0
 33 32  1  0  0  0  0
M  END
>  <minimizedAffinity>
-4.92238188

>  <minimizedRMSD>
0.73065114

$$$$
