
 OpenBabel03242521503D

 14 14  0  0  0  0  0  0  0  0999 V2000
   35.6950   28.6960   40.7000 C   0  0  0  0  0  0  0  0  0  0  0  0
   35.7050   30.0390   40.2790 C   0  0  0  0  0  0  0  0  0  0  0  0
   36.6060   30.9050   40.8870 C   0  0  0  0  0  0  0  0  0  0  0  0
   37.4260   30.4180   41.8500 N   0  0  0  0  0  0  0  0  0  0  0  0
   37.3860   29.1250   42.2250 C   0  0  0  0  0  0  0  0  0  0  0  0
   36.5350   28.2730   41.6600 N   0  0  0  0  0  0  0  0  0  0  0  0
   34.9980   28.0140   40.2340 H   0  0  0  0  0  0  0  0  0  0  0  0
   35.0420   30.3930   39.5140 H   0  0  0  0  0  0  0  0  0  0  0  0
   36.6450   32.2520   40.4940 N   0  0  0  0  0  0  0  0  0  0  0  0
   37.4700   32.8880   40.5720 H   0  0  0  0  0  0  0  0  0  0  0  0
   35.8120   32.7330   40.0770 H   0  0  0  0  0  0  0  0  0  0  0  0
   38.3000   28.6760   43.2670 C   0  0  0  0  0  0  0  0  0  0  0  0
   39.0010   29.3900   43.7180 H   0  0  0  0  0  0  0  0  0  0  0  0
   38.3090   27.4860   43.6680 O   0  0  0  0  0  0  0  0  0  0  0  0
  1  6  1  0  0  0  0
  2  1  2  0  0  0  0
  2  3  1  0  0  0  0
  3  4  2  0  0  0  0
  4  5  1  0  0  0  0
  5 12  1  0  0  0  0
  6  5  2  0  0  0  0
  7  1  1  0  0  0  0
  8  2  1  0  0  0  0
  9 10  1  0  0  0  0
  9  3  1  0  0  0  0
 11  9  1  0  0  0  0
 12 14  2  0  0  0  0
 12 13  1  0  0  0  0
M  END
>  <minimizedAffinity>
-3.43383336

$$$$

 OpenBabel03242521503D

 14 14  0  0  0  0  0  0  0  0999 V2000
   37.5310   31.1750   38.0880 C   0  0  0  0  0  0  0  0  0  0  0  0
   36.6000   30.7380   39.0490 C   0  0  0  0  0  0  0  0  0  0  0  0
   36.6390   31.3270   40.3070 C   0  0  0  0  0  0  0  0  0  0  0  0
   37.5650   32.2880   40.5460 N   0  0  0  0  0  0  0  0  0  0  0  0
   38.4380   32.6790   39.5990 C   0  0  0  0  0  0  0  0  0  0  0  0
   38.4250   32.1340   38.3860 N   0  0  0  0  0  0  0  0  0  0  0  0
   37.5100   30.7240   37.1060 H   0  0  0  0  0  0  0  0  0  0  0  0
   35.8810   29.9750   38.8280 H   0  0  0  0  0  0  0  0  0  0  0  0
   35.7280   30.9170   41.2930 N   0  0  0  0  0  0  0  0  0  0  0  0
   35.3980   31.4940   42.0990 H   0  0  0  0  0  0  0  0  0  0  0  0
   35.2950   29.9620   41.2860 H   0  0  0  0  0  0  0  0  0  0  0  0
   39.4040   33.7180   39.9320 C   0  0  0  0  0  0  0  0  0  0  0  0
   39.1950   34.4080   40.7610 H   0  0  0  0  0  0  0  0  0  0  0  0
   40.4770   33.8500   39.2930 O   0  0  0  0  0  0  0  0  0  0  0  0
  1  6  2  0  0  0  0
  1  2  1  0  0  0  0
  2  3  2  0  0  0  0
  3  4  1  0  0  0  0
  3  9  1  0  0  0  0
  5 12  1  0  0  0  0
  5  4  2  0  0  0  0
  6  5  1  0  0  0  0
  7  1  1  0  0  0  0
  8  2  1  0  0  0  0
  9 10  1  0  0  0  0
 11  9  1  0  0  0  0
 12 13  1  0  0  0  0
 14 12  2  0  0  0  0
M  END
>  <minimizedAffinity>
-3.36501145

$$$$

 OpenBabel03242521503D

 14 14  0  0  0  0  0  0  0  0999 V2000
   36.6530   27.4460   40.7570 C   0  0  0  0  0  0  0  0  0  0  0  0
   35.9320   28.6500   40.6520 C   0  0  0  0  0  0  0  0  0  0  0  0
   36.3990   29.7520   41.3580 C   0  0  0  0  0  0  0  0  0  0  0  0
   37.5200   29.6160   42.1080 N   0  0  0  0  0  0  0  0  0  0  0  0
   38.1830   28.4460   42.1820 C   0  0  0  0  0  0  0  0  0  0  0  0
   37.7600   27.3740   41.5170 N   0  0  0  0  0  0  0  0  0  0  0  0
   36.2990   26.5820   40.2130 H   0  0  0  0  0  0  0  0  0  0  0  0
   35.0480   28.7240   40.0500 H   0  0  0  0  0  0  0  0  0  0  0  0
   35.7060   30.9700   41.2790 N   0  0  0  0  0  0  0  0  0  0  0  0
   36.1170   31.9190   41.4250 H   0  0  0  0  0  0  0  0  0  0  0  0
   34.6810   31.0120   41.0580 H   0  0  0  0  0  0  0  0  0  0  0  0
   39.3800   28.3770   43.0100 C   0  0  0  0  0  0  0  0  0  0  0  0
   39.9990   29.2750   43.1430 H   0  0  0  0  0  0  0  0  0  0  0  0
   39.7280   27.3140   43.5790 O   0  0  0  0  0  0  0  0  0  0  0  0
  1  6  1  0  0  0  0
  2  1  2  0  0  0  0
  2  3  1  0  0  0  0
  3  4  2  0  0  0  0
  4  5  1  0  0  0  0
  5 12  1  0  0  0  0
  6  5  2  0  0  0  0
  7  1  1  0  0  0  0
  8  2  1  0  0  0  0
  9  3  1  0  0  0  0
  9 10  1  0  0  0  0
 11  9  1  0  0  0  0
 12 13  1  0  0  0  0
 12 14  2  0  0  0  0
M  END
>  <minimizedAffinity>
-3.36048388

$$$$

 OpenBabel03242521503D

 14 14  0  0  0  0  0  0  0  0999 V2000
   37.0960   30.6940   37.8490 C   0  0  0  0  0  0  0  0  0  0  0  0
   37.3940   31.9770   38.3450 C   0  0  0  0  0  0  0  0  0  0  0  0
   37.0380   32.2660   39.6570 C   0  0  0  0  0  0  0  0  0  0  0  0
   36.4250   31.3060   40.3910 N   0  0  0  0  0  0  0  0  0  0  0  0
   36.1570   30.0890   39.8800 C   0  0  0  0  0  0  0  0  0  0  0  0
   36.4860   29.7830   38.6280 N   0  0  0  0  0  0  0  0  0  0  0  0
   37.3670   30.4580   36.8300 H   0  0  0  0  0  0  0  0  0  0  0  0
   37.8790   32.7150   37.7380 H   0  0  0  0  0  0  0  0  0  0  0  0
   37.3180   33.5360   40.1870 N   0  0  0  0  0  0  0  0  0  0  0  0
   37.4580   33.7600   41.1980 H   0  0  0  0  0  0  0  0  0  0  0  0
   37.4120   34.3840   39.5770 H   0  0  0  0  0  0  0  0  0  0  0  0
   35.4960   29.1080   40.7310 C   0  0  0  0  0  0  0  0  0  0  0  0
   34.4000   29.1020   40.8010 H   0  0  0  0  0  0  0  0  0  0  0  0
   36.1480   28.2640   41.3930 O   0  0  0  0  0  0  0  0  0  0  0  0
  1  2  2  0  0  0  0
  1  6  1  0  0  0  0
  2  3  1  0  0  0  0
  3  9  1  0  0  0  0
  3  4  2  0  0  0  0
  5  4  1  0  0  0  0
  5 12  1  0  0  0  0
  6  5  2  0  0  0  0
  7  1  1  0  0  0  0
  8  2  1  0  0  0  0
  9 10  1  0  0  0  0
 11  9  1  0  0  0  0
 12 13  1  0  0  0  0
 12 14  2  0  0  0  0
M  END
>  <minimizedAffinity>
-3.21544671

$$$$

 OpenBabel03242521503D

 14 14  0  0  0  0  0  0  0  0999 V2000
   36.2430   29.6240   37.4310 C   0  0  0  0  0  0  0  0  0  0  0  0
   37.0070   30.4000   36.5400 C   0  0  0  0  0  0  0  0  0  0  0  0
   37.6590   31.5190   37.0460 C   0  0  0  0  0  0  0  0  0  0  0  0
   37.5280   31.8070   38.3630 N   0  0  0  0  0  0  0  0  0  0  0  0
   36.7870   31.0390   39.1840 C   0  0  0  0  0  0  0  0  0  0  0  0
   36.1520   29.9620   38.7300 N   0  0  0  0  0  0  0  0  0  0  0  0
   35.7310   28.7530   37.0500 H   0  0  0  0  0  0  0  0  0  0  0  0
   37.0900   30.1450   35.5020 H   0  0  0  0  0  0  0  0  0  0  0  0
   38.4300   32.3170   36.1870 N   0  0  0  0  0  0  0  0  0  0  0  0
   39.2360   32.9190   36.4700 H   0  0  0  0  0  0  0  0  0  0  0  0
   38.2430   32.3670   35.1560 H   0  0  0  0  0  0  0  0  0  0  0  0
   36.6940   31.4140   40.5900 C   0  0  0  0  0  0  0  0  0  0  0  0
   37.0740   32.3910   40.9170 H   0  0  0  0  0  0  0  0  0  0  0  0
   36.1890   30.6450   41.4450 O   0  0  0  0  0  0  0  0  0  0  0  0
  1  6  1  0  0  0  0
  2  3  1  0  0  0  0
  2  1  2  0  0  0  0
  3  4  2  0  0  0  0
  4  5  1  0  0  0  0
  5 12  1  0  0  0  0
  6  5  2  0  0  0  0
  7  1  1  0  0  0  0
  8  2  1  0  0  0  0
  9 10  1  0  0  0  0
  9  3  1  0  0  0  0
 11  9  1  0  0  0  0
 12 13  1  0  0  0  0
 12 14  2  0  0  0  0
M  END
>  <minimizedAffinity>
-3.15896606

$$$$

 OpenBabel03242521503D

 14 14  0  0  0  0  0  0  0  0999 V2000
   36.5590   27.3570   40.3600 C   0  0  0  0  0  0  0  0  0  0  0  0
   36.5680   28.3420   41.3660 C   0  0  0  0  0  0  0  0  0  0  0  0
   36.9360   27.9570   42.6500 C   0  0  0  0  0  0  0  0  0  0  0  0
   37.2650   26.6610   42.8700 N   0  0  0  0  0  0  0  0  0  0  0  0
   37.2440   25.7480   41.8800 C   0  0  0  0  0  0  0  0  0  0  0  0
   36.8970   26.0870   40.6420 N   0  0  0  0  0  0  0  0  0  0  0  0
   36.2740   27.6450   39.3590 H   0  0  0  0  0  0  0  0  0  0  0  0
   36.3010   29.3590   41.1590 H   0  0  0  0  0  0  0  0  0  0  0  0
   36.9570   28.9110   43.6800 N   0  0  0  0  0  0  0  0  0  0  0  0
   37.5430   28.8660   44.5430 H   0  0  0  0  0  0  0  0  0  0  0  0
   36.3590   29.7720   43.6510 H   0  0  0  0  0  0  0  0  0  0  0  0
   37.6110   24.3730   42.1960 C   0  0  0  0  0  0  0  0  0  0  0  0
   37.8840   24.1070   43.2250 H   0  0  0  0  0  0  0  0  0  0  0  0
   37.6260   23.4770   41.3160 O   0  0  0  0  0  0  0  0  0  0  0  0
  1  6  2  0  0  0  0
  1  2  1  0  0  0  0
  2  3  2  0  0  0  0
  3  4  1  0  0  0  0
  3  9  1  0  0  0  0
  5 12  1  0  0  0  0
  5  4  2  0  0  0  0
  6  5  1  0  0  0  0
  7  1  1  0  0  0  0
  8  2  1  0  0  0  0
  9 10  1  0  0  0  0
 11  9  1  0  0  0  0
 12 13  1  0  0  0  0
 14 12  2  0  0  0  0
M  END
>  <minimizedAffinity>
-3.15343833

$$$$

 OpenBabel03242521503D

 14 14  0  0  0  0  0  0  0  0999 V2000
   40.0680   25.6510   43.6800 C   0  0  0  0  0  0  0  0  0  0  0  0
   39.6770   24.4750   43.0120 C   0  0  0  0  0  0  0  0  0  0  0  0
   38.4810   24.4960   42.3040 C   0  0  0  0  0  0  0  0  0  0  0  0
   37.7540   25.6390   42.2900 N   0  0  0  0  0  0  0  0  0  0  0  0
   38.1620   26.7440   42.9430 C   0  0  0  0  0  0  0  0  0  0  0  0
   39.3020   26.7550   43.6280 N   0  0  0  0  0  0  0  0  0  0  0  0
   40.9950   25.6460   44.2340 H   0  0  0  0  0  0  0  0  0  0  0  0
   40.2760   23.5860   43.0430 H   0  0  0  0  0  0  0  0  0  0  0  0
   38.0580   23.3420   41.6250 N   0  0  0  0  0  0  0  0  0  0  0  0
   37.4300   23.3190   40.7910 H   0  0  0  0  0  0  0  0  0  0  0  0
   38.3570   22.3820   41.9220 H   0  0  0  0  0  0  0  0  0  0  0  0
   37.3250   27.9360   42.8810 C   0  0  0  0  0  0  0  0  0  0  0  0
   37.5640   28.7990   43.5160 H   0  0  0  0  0  0  0  0  0  0  0  0
   36.3310   28.0040   42.1180 O   0  0  0  0  0  0  0  0  0  0  0  0
  1  7  1  0  0  0  0
  2  8  1  0  0  0  0
  2  1  2  0  0  0  0
  3  2  1  0  0  0  0
  4  3  2  0  0  0  0
  4  5  1  0  0  0  0
  5  6  2  0  0  0  0
  6  1  1  0  0  0  0
  9 11  1  0  0  0  0
  9  3  1  0  0  0  0
 10  9  1  0  0  0  0
 12  5  1  0  0  0  0
 12 13  1  0  0  0  0
 14 12  2  0  0  0  0
M  END
>  <minimizedAffinity>
-3.14842319

$$$$

 OpenBabel03242521503D

 14 14  0  0  0  0  0  0  0  0999 V2000
   39.0020   28.6730   42.9670 C   0  0  0  0  0  0  0  0  0  0  0  0
   38.1240   29.6870   42.5390 C   0  0  0  0  0  0  0  0  0  0  0  0
   36.9050   29.3040   41.9940 C   0  0  0  0  0  0  0  0  0  0  0  0
   36.6220   27.9820   41.9000 N   0  0  0  0  0  0  0  0  0  0  0  0
   37.4890   27.0410   42.3200 C   0  0  0  0  0  0  0  0  0  0  0  0
   38.6630   27.3770   42.8470 N   0  0  0  0  0  0  0  0  0  0  0  0
   39.9540   28.9580   43.3920 H   0  0  0  0  0  0  0  0  0  0  0  0
   38.3800   30.7240   42.6280 H   0  0  0  0  0  0  0  0  0  0  0  0
   36.0030   30.2870   41.5560 N   0  0  0  0  0  0  0  0  0  0  0  0
   34.9660   30.1800   41.4910 H   0  0  0  0  0  0  0  0  0  0  0  0
   36.3230   31.2380   41.2520 H   0  0  0  0  0  0  0  0  0  0  0  0
   37.1130   25.6400   42.1850 C   0  0  0  0  0  0  0  0  0  0  0  0
   36.0740   25.3780   41.9420 H   0  0  0  0  0  0  0  0  0  0  0  0
   37.9480   24.7160   42.3410 O   0  0  0  0  0  0  0  0  0  0  0  0
  1  7  1  0  0  0  0
  2  8  1  0  0  0  0
  2  1  2  0  0  0  0
  3  2  1  0  0  0  0
  4  3  2  0  0  0  0
  4  5  1  0  0  0  0
  5  6  2  0  0  0  0
  6  1  1  0  0  0  0
  9  3  1  0  0  0  0
 10  9  1  0  0  0  0
 11  9  1  0  0  0  0
 12  5  1  0  0  0  0
 12 14  2  0  0  0  0
 13 12  1  0  0  0  0
M  END
>  <minimizedAffinity>
-3.14207244

$$$$

 OpenBabel03242521503D

 14 14  0  0  0  0  0  0  0  0999 V2000
   37.7300   32.2230   38.5920 C   0  0  0  0  0  0  0  0  0  0  0  0
   37.1560   32.1080   39.8720 C   0  0  0  0  0  0  0  0  0  0  0  0
   36.3320   31.0170   40.1190 C   0  0  0  0  0  0  0  0  0  0  0  0
   36.1210   30.1220   39.1240 N   0  0  0  0  0  0  0  0  0  0  0  0
   36.6890   30.2670   37.9110 C   0  0  0  0  0  0  0  0  0  0  0  0
   37.4830   31.3010   37.6450 N   0  0  0  0  0  0  0  0  0  0  0  0
   38.3720   33.0670   38.3870 H   0  0  0  0  0  0  0  0  0  0  0  0
   37.3430   32.8340   40.6380 H   0  0  0  0  0  0  0  0  0  0  0  0
   35.7410   30.8680   41.3840 N   0  0  0  0  0  0  0  0  0  0  0  0
   35.4360   29.9670   41.8150 H   0  0  0  0  0  0  0  0  0  0  0  0
   35.5570   31.6890   42.0110 H   0  0  0  0  0  0  0  0  0  0  0  0
   36.4150   29.2630   36.8910 C   0  0  0  0  0  0  0  0  0  0  0  0
   37.2440   28.6860   36.4610 H   0  0  0  0  0  0  0  0  0  0  0  0
   35.2480   29.0380   36.4860 O   0  0  0  0  0  0  0  0  0  0  0  0
  1  2  1  0  0  0  0
  2  3  2  0  0  0  0
  2  8  1  0  0  0  0
  3  9  1  0  0  0  0
  4  3  1  0  0  0  0
  5  4  2  0  0  0  0
  6  5  1  0  0  0  0
  6  1  2  0  0  0  0
  7  1  1  0  0  0  0
  9 10  1  0  0  0  0
  9 11  1  0  0  0  0
 12  5  1  0  0  0  0
 13 12  1  0  0  0  0
 14 12  2  0  0  0  0
M  END
>  <minimizedAffinity>
-3.11566758

$$$$
