
 OpenBabel03252507123D

 18 18  0  0  0  0  0  0  0  0999 V2000
   38.1960   28.1870   40.9720 C   0  0  0  0  0  0  0  0  0  0  0  0
   38.1800   29.3500   41.7190 C   0  0  0  0  0  0  0  0  0  0  0  0
   38.0560   29.2050   43.1280 C   0  0  0  0  0  0  0  0  0  0  0  0
   37.9560   27.9800   43.6750 N   0  0  0  0  0  0  0  0  0  0  0  0
   37.9680   26.8650   42.9030 C   0  0  0  0  0  0  0  0  0  0  0  0
   38.0880   26.9580   41.5460 N   0  0  0  0  0  0  0  0  0  0  0  0
   38.0580   30.1570   43.6220 H   0  0  0  0  0  0  0  0  0  0  0  0
   37.8720   25.9990   43.5540 H   0  0  0  0  0  0  0  0  0  0  0  0
   38.4020   27.8550   39.5690 C   0  0  0  0  0  3  0  0  0  0  0  0
   39.3280   27.8180   39.0190 H   0  0  0  0  0  0  0  0  0  0  0  0
   37.1650   27.6420   39.2710 O   0  0  0  0  0  1  0  0  0  0  0  0
   38.2790   30.4970   40.9820 O   0  0  0  0  0  0  0  0  0  0  0  0
   36.5580   30.9340   39.0170 O   0  0  0  0  0  0  0  0  0  0  0  0
   36.8930   31.3350   40.4220 P   0  0  0  0  0  0  0  0  0  0  0  0
   35.5590   30.9610   41.4040 O   0  0  0  0  0  0  0  0  0  0  0  0
   35.1880   30.0900   41.0880 H   0  0  0  0  0  0  0  0  0  0  0  0
   37.0840   33.0110   40.4880 O   0  0  0  0  0  0  0  0  0  0  0  0
   37.6930   33.3350   39.7720 H   0  0  0  0  0  0  0  0  0  0  0  0
  1  6  2  0  0  0  0
  1  2  1  0  0  0  0
  2  3  2  0  0  0  0
  3  7  1  0  0  0  0
  3  4  1  0  0  0  0
  5  8  1  0  0  0  0
  5  4  2  0  0  0  0
  6  5  1  0  0  0  0
  9  1  1  0  0  0  0
 10  9  1  0  0  0  0
 11  9  1  0  0  0  0
 12  2  1  0  0  0  0
 13 14  2  0  0  0  0
 14 17  1  0  0  0  0
 14 12  1  0  0  0  0
 14 15  1  0  0  0  0
 16 15  1  0  0  0  0
 18 17  1  0  0  0  0
M  END
>  <minimizedAffinity>
-4.23974085

$$$$

 OpenBabel03252507123D

 18 18  0  0  0  0  0  0  0  0999 V2000
   38.6100   28.7590   41.8900 C   0  0  0  0  0  0  0  0  0  0  0  0
   38.8660   29.6180   40.8370 C   0  0  0  0  0  0  0  0  0  0  0  0
   39.5660   29.0770   39.7240 C   0  0  0  0  0  0  0  0  0  0  0  0
   39.9500   27.7880   39.7280 N   0  0  0  0  0  0  0  0  0  0  0  0
   39.6830   26.9820   40.7860 C   0  0  0  0  0  0  0  0  0  0  0  0
   39.0110   27.4590   41.8750 N   0  0  0  0  0  0  0  0  0  0  0  0
   39.7140   29.8140   38.9590 H   0  0  0  0  0  0  0  0  0  0  0  0
   40.0870   25.9950   40.5710 H   0  0  0  0  0  0  0  0  0  0  0  0
   37.8640   28.8370   43.1390 C   0  0  0  0  0  3  0  0  0  0  0  0
   38.2100   29.1640   44.1050 H   0  0  0  0  0  0  0  0  0  0  0  0
   36.7380   28.4050   42.6810 O   0  0  0  0  0  1  0  0  0  0  0  0
   38.4090   30.8930   41.0260 O   0  0  0  0  0  0  0  0  0  0  0  0
   36.6590   30.7960   39.0410 O   0  0  0  0  0  0  0  0  0  0  0  0
   36.9140   31.4230   40.3770 P   0  0  0  0  0  0  0  0  0  0  0  0
   35.6460   30.9740   41.4140 O   0  0  0  0  0  0  0  0  0  0  0  0
   35.4200   30.0220   41.2180 H   0  0  0  0  0  0  0  0  0  0  0  0
   36.8380   33.1020   40.2240 O   0  0  0  0  0  0  0  0  0  0  0  0
   37.3950   33.4220   39.4650 H   0  0  0  0  0  0  0  0  0  0  0  0
  1  9  1  0  0  0  0
  2 12  1  0  0  0  0
  2  1  2  0  0  0  0
  3  4  2  0  0  0  0
  3  2  1  0  0  0  0
  4  5  1  0  0  0  0
  5  6  2  0  0  0  0
  6  1  1  0  0  0  0
  7  3  1  0  0  0  0
  8  5  1  0  0  0  0
  9 10  1  0  0  0  0
 11  9  1  0  0  0  0
 13 14  2  0  0  0  0
 14 12  1  0  0  0  0
 14 15  1  0  0  0  0
 16 15  1  0  0  0  0
 17 14  1  0  0  0  0
 18 17  1  0  0  0  0
M  END
>  <minimizedAffinity>
-3.98087955

$$$$

 OpenBabel03252507123D

 18 18  0  0  0  0  0  0  0  0999 V2000
   38.6980   31.7860   39.5110 C   0  0  0  0  0  0  0  0  0  0  0  0
   38.8780   30.7980   40.4620 C   0  0  0  0  0  0  0  0  0  0  0  0
   39.9500   30.9780   41.3780 C   0  0  0  0  0  0  0  0  0  0  0  0
   40.7370   32.0650   41.2940 N   0  0  0  0  0  0  0  0  0  0  0  0
   40.5290   33.0080   40.3400 C   0  0  0  0  0  0  0  0  0  0  0  0
   39.5090   32.8760   39.4410 N   0  0  0  0  0  0  0  0  0  0  0  0
   40.0090   30.1660   42.0780 H   0  0  0  0  0  0  0  0  0  0  0  0
   41.2800   33.7850   40.4610 H   0  0  0  0  0  0  0  0  0  0  0  0
   37.7100   32.0690   38.4790 C   0  0  0  0  0  3  0  0  0  0  0  0
   37.6890   31.7210   37.4600 H   0  0  0  0  0  0  0  0  0  0  0  0
   36.9460   32.8240   39.1930 O   0  0  0  0  0  1  0  0  0  0  0  0
   37.9870   29.7640   40.3780 O   0  0  0  0  0  0  0  0  0  0  0  0
   35.7370   28.5160   41.0040 O   0  0  0  0  0  0  0  0  0  0  0  0
   36.5990   29.6830   41.3800 P   0  0  0  0  0  0  0  0  0  0  0  0
   37.0700   29.4820   42.9990 O   0  0  0  0  0  0  0  0  0  0  0  0
   37.2570   28.5110   43.1400 H   0  0  0  0  0  0  0  0  0  0  0  0
   35.6770   31.0950   41.3200 O   0  0  0  0  0  0  0  0  0  0  0  0
   35.1780   31.1650   40.4630 H   0  0  0  0  0  0  0  0  0  0  0  0
  1  2  1  0  0  0  0
  2  3  2  0  0  0  0
  3  7  1  0  0  0  0
  4  3  1  0  0  0  0
  5  8  1  0  0  0  0
  5  4  2  0  0  0  0
  6  1  2  0  0  0  0
  6  5  1  0  0  0  0
  9 11  1  0  0  0  0
  9  1  1  0  0  0  0
 10  9  1  0  0  0  0
 12  2  1  0  0  0  0
 12 14  1  0  0  0  0
 13 14  2  0  0  0  0
 14 15  1  0  0  0  0
 15 16  1  0  0  0  0
 17 14  1  0  0  0  0
 18 17  1  0  0  0  0
M  END
>  <minimizedAffinity>
-3.97236538

$$$$

 OpenBabel03252507123D

 18 18  0  0  0  0  0  0  0  0999 V2000
   39.1360   32.3500   40.1320 C   0  0  0  0  0  0  0  0  0  0  0  0
   40.3010   31.7430   39.6980 C   0  0  0  0  0  0  0  0  0  0  0  0
   40.4310   30.3510   39.9540 C   0  0  0  0  0  0  0  0  0  0  0  0
   39.4520   29.6860   40.5930 N   0  0  0  0  0  0  0  0  0  0  0  0
   38.3280   30.3230   41.0080 C   0  0  0  0  0  0  0  0  0  0  0  0
   38.1610   31.6590   40.7810 N   0  0  0  0  0  0  0  0  0  0  0  0
   41.3610   29.9690   39.5790 H   0  0  0  0  0  0  0  0  0  0  0  0
   37.6860   29.5950   41.4980 H   0  0  0  0  0  0  0  0  0  0  0  0
   38.5440   33.6750   40.0040 C   0  0  0  0  0  3  0  0  0  0  0  0
   37.9480   34.0660   39.1970 H   0  0  0  0  0  0  0  0  0  0  0  0
   38.9680   34.1490   41.1270 O   0  0  0  0  0  1  0  0  0  0  0  0
   41.1820   32.5880   39.0820 O   0  0  0  0  0  0  0  0  0  0  0  0
   42.3020   31.3720   37.0130 O   0  0  0  0  0  0  0  0  0  0  0  0
   41.4450   32.5420   37.3890 P   0  0  0  0  0  0  0  0  0  0  0  0
   39.9600   32.3810   36.5810 O   0  0  0  0  0  0  0  0  0  0  0  0
   39.7150   31.4140   36.5910 H   0  0  0  0  0  0  0  0  0  0  0  0
   42.1560   33.9590   36.8090 O   0  0  0  0  0  0  0  0  0  0  0  0
   43.1170   34.0090   37.0590 H   0  0  0  0  0  0  0  0  0  0  0  0
  1  6  1  0  0  0  0
  2  3  1  0  0  0  0
  2  1  2  0  0  0  0
  3  4  2  0  0  0  0
  4  5  1  0  0  0  0
  5  8  1  0  0  0  0
  6  5  2  0  0  0  0
  7  3  1  0  0  0  0
  9  1  1  0  0  0  0
  9 11  1  0  0  0  0
 10  9  1  0  0  0  0
 12  2  1  0  0  0  0
 13 14  2  0  0  0  0
 14 12  1  0  0  0  0
 15 16  1  0  0  0  0
 15 14  1  0  0  0  0
 17 18  1  0  0  0  0
 17 14  1  0  0  0  0
M  END
>  <minimizedAffinity>
-3.89537716

$$$$

 OpenBabel03252507123D

 18 18  0  0  0  0  0  0  0  0999 V2000
   38.0150   25.1250   41.6900 C   0  0  0  0  0  0  0  0  0  0  0  0
   37.9790   26.3420   42.3470 C   0  0  0  0  0  0  0  0  0  0  0  0
   38.9720   26.5640   43.3400 C   0  0  0  0  0  0  0  0  0  0  0  0
   39.8860   25.6140   43.6060 N   0  0  0  0  0  0  0  0  0  0  0  0
   39.8810   24.4310   42.9420 C   0  0  0  0  0  0  0  0  0  0  0  0
   38.9460   24.1760   41.9790 N   0  0  0  0  0  0  0  0  0  0  0  0
   38.8670   27.5320   43.7900 H   0  0  0  0  0  0  0  0  0  0  0  0
   40.6990   23.8230   43.3220 H   0  0  0  0  0  0  0  0  0  0  0  0
   37.2970   24.5230   40.5750 C   0  0  0  0  0  3  0  0  0  0  0  0
   37.5360   24.5630   39.5250 H   0  0  0  0  0  0  0  0  0  0  0  0
   36.3550   23.9770   41.2670 O   0  0  0  0  0  1  0  0  0  0  0  0
   36.9680   27.1700   41.9460 O   0  0  0  0  0  0  0  0  0  0  0  0
   38.2970   29.3790   41.3420 O   0  0  0  0  0  0  0  0  0  0  0  0
   37.0900   28.8750   42.0730 P   0  0  0  0  0  0  0  0  0  0  0  0
   35.7200   29.6020   41.3830 O   0  0  0  0  0  0  0  0  0  0  0  0
   35.8650   29.6430   40.3970 H   0  0  0  0  0  0  0  0  0  0  0  0
   37.1550   29.3970   43.6770 O   0  0  0  0  0  0  0  0  0  0  0  0
   38.0410   29.2030   44.0850 H   0  0  0  0  0  0  0  0  0  0  0  0
  1  6  2  0  0  0  0
  1  2  1  0  0  0  0
  2  3  2  0  0  0  0
  3  4  1  0  0  0  0
  3  7  1  0  0  0  0
  5  8  1  0  0  0  0
  5  4  2  0  0  0  0
  6  5  1  0  0  0  0
  9 11  1  0  0  0  0
  9  1  1  0  0  0  0
 10  9  1  0  0  0  0
 12 14  1  0  0  0  0
 12  2  1  0  0  0  0
 13 14  2  0  0  0  0
 14 17  1  0  0  0  0
 15 14  1  0  0  0  0
 16 15  1  0  0  0  0
 17 18  1  0  0  0  0
M  END
>  <minimizedAffinity>
-3.82085156

$$$$

 OpenBabel03252507123D

 18 18  0  0  0  0  0  0  0  0999 V2000
   36.9300   28.7990   41.2520 C   0  0  0  0  0  0  0  0  0  0  0  0
   38.0980   29.5050   41.4750 C   0  0  0  0  0  0  0  0  0  0  0  0
   38.7040   29.3520   42.7520 C   0  0  0  0  0  0  0  0  0  0  0  0
   38.1410   28.5540   43.6770 N   0  0  0  0  0  0  0  0  0  0  0  0
   36.9890   27.8860   43.4170 C   0  0  0  0  0  0  0  0  0  0  0  0
   36.3740   28.0020   42.2040 N   0  0  0  0  0  0  0  0  0  0  0  0
   39.6040   29.9310   42.8310 H   0  0  0  0  0  0  0  0  0  0  0  0
   36.7210   27.3140   44.3030 H   0  0  0  0  0  0  0  0  0  0  0  0
   36.0530   28.5740   40.1100 C   0  0  0  0  0  3  0  0  0  0  0  0
   36.1400   27.8300   39.3370 H   0  0  0  0  0  0  0  0  0  0  0  0
   35.2140   29.5210   40.3640 O   0  0  0  0  0  1  0  0  0  0  0  0
   38.5060   30.2710   40.4190 O   0  0  0  0  0  0  0  0  0  0  0  0
   38.4650   32.4880   38.9700 O   0  0  0  0  0  0  0  0  0  0  0  0
   38.1760   31.9510   40.3390 P   0  0  0  0  0  0  0  0  0  0  0  0
   36.5340   32.2310   40.6730 O   0  0  0  0  0  0  0  0  0  0  0  0
   36.0240   32.0680   39.8310 H   0  0  0  0  0  0  0  0  0  0  0  0
   39.0550   32.8350   41.4780 O   0  0  0  0  0  0  0  0  0  0  0  0
   40.0120   32.9080   41.2180 H   0  0  0  0  0  0  0  0  0  0  0  0
  1  2  2  0  0  0  0
  1  6  1  0  0  0  0
  2  3  1  0  0  0  0
  3  7  1  0  0  0  0
  3  4  2  0  0  0  0
  5  4  1  0  0  0  0
  5  8  1  0  0  0  0
  6  5  2  0  0  0  0
  9 11  1  0  0  0  0
  9  1  1  0  0  0  0
 10  9  1  0  0  0  0
 12  2  1  0  0  0  0
 13 14  2  0  0  0  0
 14 12  1  0  0  0  0
 14 15  1  0  0  0  0
 14 17  1  0  0  0  0
 16 15  1  0  0  0  0
 18 17  1  0  0  0  0
M  END
>  <minimizedAffinity>
-3.78769636

$$$$

 OpenBabel03252507123D

 18 18  0  0  0  0  0  0  0  0999 V2000
   37.0880   26.6320   41.6050 C   0  0  0  0  0  0  0  0  0  0  0  0
   36.8910   27.4230   40.4880 C   0  0  0  0  0  0  0  0  0  0  0  0
   36.5580   26.7540   39.2790 C   0  0  0  0  0  0  0  0  0  0  0  0
   36.4520   25.4130   39.2560 N   0  0  0  0  0  0  0  0  0  0  0  0
   36.6610   24.6740   40.3750 C   0  0  0  0  0  0  0  0  0  0  0  0
   36.9810   25.2770   41.5580 N   0  0  0  0  0  0  0  0  0  0  0  0
   36.4200   27.4470   38.4720 H   0  0  0  0  0  0  0  0  0  0  0  0
   36.5270   23.6260   40.1200 H   0  0  0  0  0  0  0  0  0  0  0  0
   37.3310   26.8730   43.0210 C   0  0  0  0  0  3  0  0  0  0  0  0
   36.6230   27.1510   43.7830 H   0  0  0  0  0  0  0  0  0  0  0  0
   38.6010   26.6470   43.0060 O   0  0  0  0  0  1  0  0  0  0  0  0
   37.0570   28.7630   40.7080 O   0  0  0  0  0  0  0  0  0  0  0  0
   36.1400   30.4640   38.8980 O   0  0  0  0  0  0  0  0  0  0  0  0
   35.8630   29.9080   40.2620 P   0  0  0  0  0  0  0  0  0  0  0  0
   34.3380   29.1620   40.2210 O   0  0  0  0  0  0  0  0  0  0  0  0
   34.2540   28.6970   39.3410 H   0  0  0  0  0  0  0  0  0  0  0  0
   35.7450   31.1800   41.3650 O   0  0  0  0  0  0  0  0  0  0  0  0
   36.5160   31.8020   41.2820 H   0  0  0  0  0  0  0  0  0  0  0  0
  1  9  1  0  0  0  0
  2 12  1  0  0  0  0
  2  1  2  0  0  0  0
  3  2  1  0  0  0  0
  4  3  2  0  0  0  0
  4  5  1  0  0  0  0
  5  6  2  0  0  0  0
  6  1  1  0  0  0  0
  7  3  1  0  0  0  0
  8  5  1  0  0  0  0
  9 10  1  0  0  0  0
 11  9  1  0  0  0  0
 13 14  2  0  0  0  0
 14 12  1  0  0  0  0
 14 17  1  0  0  0  0
 15 14  1  0  0  0  0
 16 15  1  0  0  0  0
 18 17  1  0  0  0  0
M  END
>  <minimizedAffinity>
-3.77329779

$$$$

 OpenBabel03252507123D

 18 18  0  0  0  0  0  0  0  0999 V2000
   39.8830   31.5330   39.8320 C   0  0  0  0  0  0  0  0  0  0  0  0
   40.3740   32.8020   39.5850 C   0  0  0  0  0  0  0  0  0  0  0  0
   39.5060   33.8920   39.8680 C   0  0  0  0  0  0  0  0  0  0  0  0
   38.2700   33.6640   40.3490 N   0  0  0  0  0  0  0  0  0  0  0  0
   37.8260   32.4010   40.5700 C   0  0  0  0  0  0  0  0  0  0  0  0
   38.6280   31.3260   40.3130 N   0  0  0  0  0  0  0  0  0  0  0  0
   39.9730   34.8330   39.6500 H   0  0  0  0  0  0  0  0  0  0  0  0
   36.8090   32.4600   40.9500 H   0  0  0  0  0  0  0  0  0  0  0  0
   40.4260   30.1820   39.7940 C   0  0  0  0  0  3  0  0  0  0  0  0
   41.0030   29.6720   40.5470 H   0  0  0  0  0  0  0  0  0  0  0  0
   39.9890   29.8670   38.6220 O   0  0  0  0  0  1  0  0  0  0  0  0
   41.6470   32.8280   39.0850 O   0  0  0  0  0  0  0  0  0  0  0  0
   43.0330   31.6740   37.1460 O   0  0  0  0  0  0  0  0  0  0  0  0
   41.9620   32.6900   37.4060 P   0  0  0  0  0  0  0  0  0  0  0  0
   40.5570   32.1840   36.5970 O   0  0  0  0  0  0  0  0  0  0  0  0
   40.4960   31.1920   36.6900 H   0  0  0  0  0  0  0  0  0  0  0  0
   42.4130   34.1610   36.7120 O   0  0  0  0  0  0  0  0  0  0  0  0
   43.3410   34.4120   36.9680 H   0  0  0  0  0  0  0  0  0  0  0  0
  1  6  1  0  0  0  0
  2  1  2  0  0  0  0
  2  3  1  0  0  0  0
  3  4  2  0  0  0  0
  4  5  1  0  0  0  0
  5  8  1  0  0  0  0
  6  5  2  0  0  0  0
  7  3  1  0  0  0  0
  9  1  1  0  0  0  0
  9 10  1  0  0  0  0
 11  9  1  0  0  0  0
 12  2  1  0  0  0  0
 13 14  2  0  0  0  0
 14 12  1  0  0  0  0
 15 16  1  0  0  0  0
 15 14  1  0  0  0  0
 17 18  1  0  0  0  0
 17 14  1  0  0  0  0
M  END
>  <minimizedAffinity>
-3.76964569

$$$$

 OpenBabel03252507123D

 18 18  0  0  0  0  0  0  0  0999 V2000
   37.2220   28.6040   42.0120 C   0  0  0  0  0  0  0  0  0  0  0  0
   37.5810   29.9350   41.9090 C   0  0  0  0  0  0  0  0  0  0  0  0
   36.7840   30.7490   41.0580 C   0  0  0  0  0  0  0  0  0  0  0  0
   35.7410   30.2180   40.3960 N   0  0  0  0  0  0  0  0  0  0  0  0
   35.4290   28.9030   40.5210 C   0  0  0  0  0  0  0  0  0  0  0  0
   36.1660   28.0850   41.3300 N   0  0  0  0  0  0  0  0  0  0  0  0
   37.1350   31.7630   41.0450 H   0  0  0  0  0  0  0  0  0  0  0  0
   34.5610   28.6990   39.8980 H   0  0  0  0  0  0  0  0  0  0  0  0
   37.6610   27.4670   42.8100 C   0  0  0  0  0  3  0  0  0  0  0  0
   38.5260   26.8410   42.6640 H   0  0  0  0  0  0  0  0  0  0  0  0
   36.7050   27.5000   43.6760 O   0  0  0  0  0  1  0  0  0  0  0  0
   38.6780   30.2840   42.6470 O   0  0  0  0  0  0  0  0  0  0  0  0
   40.4790   30.5500   40.7250 O   0  0  0  0  0  0  0  0  0  0  0  0
   39.9680   31.1920   41.9780 P   0  0  0  0  0  0  0  0  0  0  0  0
   39.4270   32.7530   41.5820 O   0  0  0  0  0  0  0  0  0  0  0  0
   38.9750   32.6980   40.6940 H   0  0  0  0  0  0  0  0  0  0  0  0
   41.2470   31.3880   43.0620 O   0  0  0  0  0  0  0  0  0  0  0  0
   41.7630   30.5440   43.1680 H   0  0  0  0  0  0  0  0  0  0  0  0
  1  9  1  0  0  0  0
  2  1  1  0  0  0  0
  2 12  1  0  0  0  0
  3  2  2  0  0  0  0
  4  5  2  0  0  0  0
  4  3  1  0  0  0  0
  5  6  1  0  0  0  0
  6  1  2  0  0  0  0
  7  3  1  0  0  0  0
  8  5  1  0  0  0  0
  9 11  1  0  0  0  0
 10  9  1  0  0  0  0
 13 14  2  0  0  0  0
 14 12  1  0  0  0  0
 14 17  1  0  0  0  0
 15 14  1  0  0  0  0
 16 15  1  0  0  0  0
 17 18  1  0  0  0  0
M  END
>  <minimizedAffinity>
-3.73418522

$$$$
