
 OpenBabel03252503253D

 41 45  0  0  1  0  0  0  0  0999 V2000
   35.1760   28.8720   37.7920 C   0  0  1  0  0  0  0  0  0  0  0  0
   35.3250   28.0530   36.5960 C   0  0  0  0  0  0  0  0  0  0  0  0
   33.9720   28.1550   37.2020 C   0  0  2  0  0  0  0  0  0  0  0  0
   35.1640   29.9730   37.7140 H   0  0  0  0  0  0  0  0  0  0  0  0
   35.8840   27.0760   36.7550 H   0  0  0  0  0  0  0  0  0  0  0  0
   35.6690   28.5480   35.7000 H   0  0  0  0  0  0  0  0  0  0  0  0
   33.5720   27.3560   37.8710 H   0  0  0  0  0  0  0  0  0  0  0  0
   32.9940   29.0570   36.5370 C   0  0  0  0  0  0  0  0  0  0  0  0
   33.0260   29.4090   35.2030 C   0  0  0  0  0  0  0  0  0  0  0  0
   32.0790   30.2590   34.6710 C   0  0  0  0  0  0  0  0  0  0  0  0
   31.0830   30.7750   35.4540 C   0  0  0  0  0  0  0  0  0  0  0  0
   30.1400   31.6110   34.9560 N   0  0  0  0  0  0  0  0  0  0  0  0
   29.1600   32.1090   35.7610 C   0  0  0  0  0  0  0  0  0  0  0  0
   29.0470   31.8070   37.1340 C   0  0  0  0  0  0  0  0  0  0  0  0
   30.0050   30.9560   37.6450 C   0  0  0  0  0  0  0  0  0  0  0  0
   31.0000   30.4550   36.8140 C   0  0  0  0  0  0  0  0  0  0  0  0
   31.9670   29.6000   37.3070 C   0  0  0  0  0  0  0  0  0  0  0  0
   33.8170   28.9930   34.6060 H   0  0  0  0  0  0  0  0  0  0  0  0
   32.1270   30.5230   33.6090 H   0  0  0  0  0  0  0  0  0  0  0  0
   28.4150   32.7770   35.3420 H   0  0  0  0  0  0  0  0  0  0  0  0
   28.2380   32.2470   37.6990 H   0  0  0  0  0  0  0  0  0  0  0  0
   29.9590   30.6960   38.6940 H   0  0  0  0  0  0  0  0  0  0  0  0
   31.8410   29.4060   38.3650 H   0  0  0  0  0  0  0  0  0  0  0  0
   35.3700   29.1080   40.2970 C   0  0  0  0  0  0  0  0  0  0  0  0
   35.6760   28.3790   39.1100 C   0  0  0  0  0  0  0  0  0  0  0  0
   36.4460   27.2520   39.2340 C   0  0  0  0  0  0  0  0  0  0  0  0
   36.8710   26.9010   40.4780 N   0  0  0  0  0  0  0  0  0  0  0  0
   36.5680   27.6100   41.5980 C   0  0  0  0  0  0  0  0  0  0  0  0
   35.8150   28.7160   41.4980 N   0  0  0  0  0  0  0  0  0  0  0  0
   34.7520   30.0160   40.2240 H   0  0  0  0  0  0  0  0  0  0  0  0
   36.7070   26.6620   38.3660 H   0  0  0  0  0  0  0  0  0  0  0  0
   37.0960   27.1190   42.8990 C   0  0  2  0  0  0  0  0  0  0  0  0
   37.1660   27.9810   44.0680 C   0  0  0  0  0  0  0  0  0  0  0  0
   38.4510   27.7810   43.3000 C   0  0  2  0  0  0  0  0  0  0  0  0
   37.1770   26.0000   42.9250 H   0  0  0  0  0  0  0  0  0  0  0  0
   37.0320   27.4630   45.0560 H   0  0  0  0  0  0  0  0  0  0  0  0
   36.6280   28.9440   44.0260 H   0  0  0  0  0  0  0  0  0  0  0  0
   39.1710   27.1500   43.8180 H   0  0  0  0  0  0  0  0  0  0  0  0
   38.9000   28.9340   42.5100 C   0  0  0  0  0  0  0  0  0  0  0  0
   39.3520   28.7740   41.5400 H   0  0  0  0  0  0  0  0  0  0  0  0
   38.9060   30.1580   42.6560 O   0  0  0  0  0  0  0  0  0  0  0  0
  1  4  1  6  0  0  0
  1 25  1  0  0  0  0
  2  5  1  0  0  0  0
  2  3  1  0  0  0  0
  2  1  1  0  0  0  0
  3  1  1  0  0  0  0
  3  7  1  1  0  0  0
  6  2  1  0  0  0  0
  8  3  1  0  0  0  0
  8 17  1  0  0  0  0
  9  8  2  0  0  0  0
 10  9  1  0  0  0  0
 10 11  2  0  0  0  0
 11 16  1  0  0  0  0
 12 11  1  0  0  0  0
 12 13  2  0  0  0  0
 13 14  1  0  0  0  0
 14 15  2  0  0  0  0
 14 21  1  0  0  0  0
 15 22  1  0  0  0  0
 16 17  2  0  0  0  0
 16 15  1  0  0  0  0
 17 23  1  0  0  0  0
 18  9  1  0  0  0  0
 19 10  1  0  0  0  0
 20 13  1  0  0  0  0
 24 29  1  0  0  0  0
 25 26  1  0  0  0  0
 25 24  2  0  0  0  0
 26 27  2  0  0  0  0
 27 28  1  0  0  0  0
 28 32  1  0  0  0  0
 29 28  2  0  0  0  0
 30 24  1  0  0  0  0
 31 26  1  0  0  0  0
 32 35  1  1  0  0  0
 32 34  1  0  0  0  0
 32 33  1  0  0  0  0
 33 36  1  0  0  0  0
 34 38  1  1  0  0  0
 34 33  1  0  0  0  0
 37 33  1  0  0  0  0
 39 41  2  0  0  0  0
 39 34  1  0  0  0  0
 40 39  1  0  0  0  0
M  END
>  <minimizedAffinity>
-6.17286253

$$$$

 OpenBabel03252503253D

 41 45  0  0  1  0  0  0  0  0999 V2000
   34.6190   29.2070   37.9450 C   0  0  1  0  0  0  0  0  0  0  0  0
   34.5390   28.5170   36.6640 C   0  0  0  0  0  0  0  0  0  0  0  0
   33.3250   28.5270   37.5220 C   0  0  2  0  0  0  0  0  0  0  0  0
   34.5890   30.3090   37.9860 H   0  0  0  0  0  0  0  0  0  0  0  0
   35.1200   27.5420   36.6130 H   0  0  0  0  0  0  0  0  0  0  0  0
   34.7050   29.1080   35.7770 H   0  0  0  0  0  0  0  0  0  0  0  0
   33.0620   27.6570   38.1680 H   0  0  0  0  0  0  0  0  0  0  0  0
   32.2370   29.4710   37.1520 C   0  0  0  0  0  0  0  0  0  0  0  0
   31.2500   29.9140   38.0090 C   0  0  0  0  0  0  0  0  0  0  0  0
   30.2750   30.7870   37.5770 C   0  0  0  0  0  0  0  0  0  0  0  0
   30.2600   31.2380   36.2850 C   0  0  0  0  0  0  0  0  0  0  0  0
   29.3140   32.0960   35.8350 N   0  0  0  0  0  0  0  0  0  0  0  0
   29.3270   32.5260   34.5420 C   0  0  0  0  0  0  0  0  0  0  0  0
   30.2920   32.1290   33.5950 C   0  0  0  0  0  0  0  0  0  0  0  0
   31.2580   31.2540   34.0480 C   0  0  0  0  0  0  0  0  0  0  0  0
   31.2350   30.8220   35.3690 C   0  0  0  0  0  0  0  0  0  0  0  0
   32.1940   29.9480   35.8420 C   0  0  0  0  0  0  0  0  0  0  0  0
   31.2790   29.5480   39.0190 H   0  0  0  0  0  0  0  0  0  0  0  0
   29.5030   31.1240   38.2770 H   0  0  0  0  0  0  0  0  0  0  0  0
   28.5590   33.2140   34.2030 H   0  0  0  0  0  0  0  0  0  0  0  0
   30.2270   32.5190   32.5890 H   0  0  0  0  0  0  0  0  0  0  0  0
   32.0200   30.9210   33.3570 H   0  0  0  0  0  0  0  0  0  0  0  0
   32.9060   29.6680   35.0770 H   0  0  0  0  0  0  0  0  0  0  0  0
   35.1830   29.1120   40.4030 C   0  0  0  0  0  0  0  0  0  0  0  0
   35.3600   28.5940   39.0870 C   0  0  0  0  0  0  0  0  0  0  0  0
   36.2370   27.5520   38.9240 C   0  0  0  0  0  0  0  0  0  0  0  0
   36.8810   27.0810   40.0260 N   0  0  0  0  0  0  0  0  0  0  0  0
   36.6980   27.5890   41.2740 C   0  0  0  0  0  0  0  0  0  0  0  0
   35.8440   28.6090   41.4540 N   0  0  0  0  0  0  0  0  0  0  0  0
   34.4830   29.9490   40.5600 H   0  0  0  0  0  0  0  0  0  0  0  0
   36.4080   27.1210   37.9480 H   0  0  0  0  0  0  0  0  0  0  0  0
   37.4650   26.9830   42.3950 C   0  0  2  0  0  0  0  0  0  0  0  0
   37.6060   27.6590   43.6750 C   0  0  0  0  0  0  0  0  0  0  0  0
   38.7780   27.7580   42.7280 C   0  0  2  0  0  0  0  0  0  0  0  0
   37.6780   25.8960   42.2190 H   0  0  0  0  0  0  0  0  0  0  0  0
   37.6800   26.9820   44.5690 H   0  0  0  0  0  0  0  0  0  0  0  0
   36.9600   28.5320   43.8660 H   0  0  0  0  0  0  0  0  0  0  0  0
   39.6350   27.1610   43.0360 H   0  0  0  0  0  0  0  0  0  0  0  0
   38.9690   29.0690   42.0950 C   0  0  0  0  0  0  0  0  0  0  0  0
   39.2490   29.1230   41.0520 H   0  0  0  0  0  0  0  0  0  0  0  0
   38.8900   30.2450   42.4560 O   0  0  0  0  0  0  0  0  0  0  0  0
  1  4  1  6  0  0  0
  1 25  1  0  0  0  0
  2  3  1  0  0  0  0
  2  1  1  0  0  0  0
  3  1  1  0  0  0  0
  3  7  1  1  0  0  0
  5  2  1  0  0  0  0
  6  2  1  0  0  0  0
  8  3  1  0  0  0  0
  8  9  1  0  0  0  0
  9 18  1  0  0  0  0
 10  9  2  0  0  0  0
 10 19  1  0  0  0  0
 11 10  1  0  0  0  0
 12 11  1  0  0  0  0
 13 12  2  0  0  0  0
 14 15  2  0  0  0  0
 14 13  1  0  0  0  0
 15 16  1  0  0  0  0
 16 17  1  0  0  0  0
 16 11  2  0  0  0  0
 17  8  2  0  0  0  0
 20 13  1  0  0  0  0
 21 14  1  0  0  0  0
 22 15  1  0  0  0  0
 23 17  1  0  0  0  0
 24 30  1  0  0  0  0
 24 29  1  0  0  0  0
 25 24  2  0  0  0  0
 26 25  1  0  0  0  0
 26 27  2  0  0  0  0
 27 28  1  0  0  0  0
 28 29  2  0  0  0  0
 28 32  1  0  0  0  0
 31 26  1  0  0  0  0
 32 35  1  1  0  0  0
 32 34  1  0  0  0  0
 32 33  1  0  0  0  0
 33 37  1  0  0  0  0
 33 36  1  0  0  0  0
 34 38  1  1  0  0  0
 34 33  1  0  0  0  0
 39 41  2  0  0  0  0
 39 34  1  0  0  0  0
 40 39  1  0  0  0  0
M  END
>  <minimizedAffinity>
-6.11636353

$$$$

 OpenBabel03252503253D

 41 45  0  0  1  0  0  0  0  0999 V2000
   35.4430   29.5190   37.8400 C   0  0  1  0  0  0  0  0  0  0  0  0
   35.5290   28.3970   36.9150 C   0  0  0  0  0  0  0  0  0  0  0  0
   34.2680   28.5650   37.6840 C   0  0  2  0  0  0  0  0  0  0  0  0
   35.2820   30.5420   37.4590 H   0  0  0  0  0  0  0  0  0  0  0  0
   36.2220   27.5590   37.2470 H   0  0  0  0  0  0  0  0  0  0  0  0
   35.6830   28.6290   35.8720 H   0  0  0  0  0  0  0  0  0  0  0  0
   34.0670   27.9720   38.6080 H   0  0  0  0  0  0  0  0  0  0  0  0
   33.1040   29.1480   36.9650 C   0  0  0  0  0  0  0  0  0  0  0  0
   32.9930   29.2470   35.5940 C   0  0  0  0  0  0  0  0  0  0  0  0
   31.8760   29.8080   35.0110 C   0  0  0  0  0  0  0  0  0  0  0  0
   30.8490   30.2820   35.7800 C   0  0  0  0  0  0  0  0  0  0  0  0
   29.7410   30.8380   35.2340 N   0  0  0  0  0  0  0  0  0  0  0  0
   28.7340   31.3000   36.0270 C   0  0  0  0  0  0  0  0  0  0  0  0
   28.7580   31.2430   37.4350 C   0  0  0  0  0  0  0  0  0  0  0  0
   29.8850   30.6790   37.9970 C   0  0  0  0  0  0  0  0  0  0  0  0
   30.9050   30.2100   37.1780 C   0  0  0  0  0  0  0  0  0  0  0  0
   32.0410   29.6400   37.7210 C   0  0  0  0  0  0  0  0  0  0  0  0
   33.8110   28.8700   35.0080 H   0  0  0  0  0  0  0  0  0  0  0  0
   31.8130   29.8750   33.9190 H   0  0  0  0  0  0  0  0  0  0  0  0
   27.8560   31.7420   35.5680 H   0  0  0  0  0  0  0  0  0  0  0  0
   27.9150   31.6350   37.9870 H   0  0  0  0  0  0  0  0  0  0  0  0
   29.9480   30.6130   39.0740 H   0  0  0  0  0  0  0  0  0  0  0  0
   32.0140   29.6260   38.8030 H   0  0  0  0  0  0  0  0  0  0  0  0
   37.3100   28.6330   39.2870 C   0  0  0  0  0  0  0  0  0  0  0  0
   36.1740   29.4820   39.1410 C   0  0  0  0  0  0  0  0  0  0  0  0
   35.7860   30.2210   40.2280 C   0  0  0  0  0  0  0  0  0  0  0  0
   36.5070   30.0970   41.3760 N   0  0  0  0  0  0  0  0  0  0  0  0
   37.5880   29.2820   41.4950 C   0  0  0  0  0  0  0  0  0  0  0  0
   37.9840   28.5500   40.4420 N   0  0  0  0  0  0  0  0  0  0  0  0
   37.6430   28.0300   38.4280 H   0  0  0  0  0  0  0  0  0  0  0  0
   34.9320   30.8820   40.1720 H   0  0  0  0  0  0  0  0  0  0  0  0
   38.2880   29.2380   42.8060 C   0  0  2  0  0  0  0  0  0  0  0  0
   39.1010   28.0970   43.1980 C   0  0  0  0  0  0  0  0  0  0  0  0
   37.7070   28.1620   43.7760 C   0  0  2  0  0  0  0  0  0  0  0  0
   38.3190   30.2440   43.3010 H   0  0  0  0  0  0  0  0  0  0  0  0
   39.9780   28.3380   43.8580 H   0  0  0  0  0  0  0  0  0  0  0  0
   39.3550   27.3580   42.4190 H   0  0  0  0  0  0  0  0  0  0  0  0
   37.6880   28.4140   44.8350 H   0  0  0  0  0  0  0  0  0  0  0  0
   36.7480   27.1980   43.2200 C   0  0  0  0  0  0  0  0  0  0  0  0
   35.6940   27.4410   43.2040 H   0  0  0  0  0  0  0  0  0  0  0  0
   36.8150   26.0760   42.7140 O   0  0  0  0  0  0  0  0  0  0  0  0
  1  4  1  6  0  0  0
  1 25  1  0  0  0  0
  2  5  1  0  0  0  0
  2  3  1  0  0  0  0
  2  1  1  0  0  0  0
  3  1  1  0  0  0  0
  3  7  1  1  0  0  0
  6  2  1  0  0  0  0
  8  3  1  0  0  0  0
  8 17  1  0  0  0  0
  9  8  2  0  0  0  0
 10  9  1  0  0  0  0
 10 11  2  0  0  0  0
 11 16  1  0  0  0  0
 12 11  1  0  0  0  0
 12 13  2  0  0  0  0
 13 14  1  0  0  0  0
 14 21  1  0  0  0  0
 14 15  2  0  0  0  0
 15 22  1  0  0  0  0
 16 17  2  0  0  0  0
 16 15  1  0  0  0  0
 17 23  1  0  0  0  0
 18  9  1  0  0  0  0
 19 10  1  0  0  0  0
 20 13  1  0  0  0  0
 24 29  1  0  0  0  0
 25 24  2  0  0  0  0
 25 26  1  0  0  0  0
 26 27  2  0  0  0  0
 27 28  1  0  0  0  0
 28 32  1  0  0  0  0
 29 28  2  0  0  0  0
 30 24  1  0  0  0  0
 31 26  1  0  0  0  0
 32 33  1  0  0  0  0
 32 35  1  1  0  0  0
 32 34  1  0  0  0  0
 33 34  1  0  0  0  0
 33 36  1  0  0  0  0
 34 38  1  1  0  0  0
 37 33  1  0  0  0  0
 39 34  1  0  0  0  0
 40 39  1  0  0  0  0
 41 39  2  0  0  0  0
M  END
>  <minimizedAffinity>
-5.78696489

$$$$

 OpenBabel03252503253D

 41 45  0  0  1  0  0  0  0  0999 V2000
   36.1950   29.4930   39.4910 C   0  0  1  0  0  0  0  0  0  0  0  0
   36.0120   30.5260   40.5020 C   0  0  0  0  0  0  0  0  0  0  0  0
   35.7840   29.1140   40.9060 C   0  0  2  0  0  0  0  0  0  0  0  0
   37.2100   29.1850   39.1890 H   0  0  0  0  0  0  0  0  0  0  0  0
   35.0870   31.1720   40.3600 H   0  0  0  0  0  0  0  0  0  0  0  0
   36.8690   31.1350   40.7440 H   0  0  0  0  0  0  0  0  0  0  0  0
   34.7560   28.6820   40.9580 H   0  0  0  0  0  0  0  0  0  0  0  0
   36.8570   28.4490   41.6920 C   0  0  0  0  0  0  0  0  0  0  0  0
   37.6780   29.0840   42.6010 C   0  0  0  0  0  0  0  0  0  0  0  0
   38.6540   28.3880   43.2830 C   0  0  0  0  0  0  0  0  0  0  0  0
   38.8320   27.0470   43.0750 C   0  0  0  0  0  0  0  0  0  0  0  0
   39.7820   26.3400   43.7320 N   0  0  0  0  0  0  0  0  0  0  0  0
   39.9350   25.0060   43.5030 C   0  0  0  0  0  0  0  0  0  0  0  0
   39.1460   24.2720   42.5950 C   0  0  0  0  0  0  0  0  0  0  0  0
   38.1770   24.9880   41.9230 C   0  0  0  0  0  0  0  0  0  0  0  0
   38.0300   26.3490   42.1640 C   0  0  0  0  0  0  0  0  0  0  0  0
   37.0650   27.0830   41.5030 C   0  0  0  0  0  0  0  0  0  0  0  0
   37.5220   30.1370   42.7490 H   0  0  0  0  0  0  0  0  0  0  0  0
   39.2930   28.9160   44.0000 H   0  0  0  0  0  0  0  0  0  0  0  0
   40.7030   24.4580   44.0410 H   0  0  0  0  0  0  0  0  0  0  0  0
   39.3360   23.2150   42.4750 H   0  0  0  0  0  0  0  0  0  0  0  0
   37.5460   24.4680   41.2150 H   0  0  0  0  0  0  0  0  0  0  0  0
   36.4910   26.4780   40.8130 H   0  0  0  0  0  0  0  0  0  0  0  0
   33.8230   29.0180   38.7720 C   0  0  0  0  0  0  0  0  0  0  0  0
   35.1750   29.2980   38.4180 C   0  0  0  0  0  0  0  0  0  0  0  0
   35.4870   29.3550   37.0840 C   0  0  0  0  0  0  0  0  0  0  0  0
   34.4880   29.1410   36.1850 N   0  0  0  0  0  0  0  0  0  0  0  0
   33.2040   28.8740   36.5430 C   0  0  0  0  0  0  0  0  0  0  0  0
   32.8790   28.8150   37.8440 N   0  0  0  0  0  0  0  0  0  0  0  0
   33.5470   28.9680   39.8380 H   0  0  0  0  0  0  0  0  0  0  0  0
   36.4970   29.5650   36.7600 H   0  0  0  0  0  0  0  0  0  0  0  0
   32.2070   28.6580   35.4600 C   0  0  2  0  0  0  0  0  0  0  0  0
   32.0170   29.6290   34.3950 C   0  0  0  0  0  0  0  0  0  0  0  0
   31.0110   29.6570   35.5210 C   0  0  2  0  0  0  0  0  0  0  0  0
   31.8400   27.5980   35.4330 H   0  0  0  0  0  0  0  0  0  0  0  0
   31.7150   29.1980   33.4020 H   0  0  0  0  0  0  0  0  0  0  0  0
   32.7700   30.4280   34.2910 H   0  0  0  0  0  0  0  0  0  0  0  0
   30.0330   29.2700   35.2390 H   0  0  0  0  0  0  0  0  0  0  0  0
   31.1260   30.7950   36.4420 C   0  0  0  0  0  0  0  0  0  0  0  0
   31.7340   30.7030   37.3320 H   0  0  0  0  0  0  0  0  0  0  0  0
   30.6800   31.9430   36.4880 O   0  0  0  0  0  0  0  0  0  0  0  0
  1  4  1  6  0  0  0
  1  2  1  0  0  0  0
  1  3  1  0  0  0  0
  2  6  1  0  0  0  0
  2  3  1  0  0  0  0
  3  7  1  1  0  0  0
  3  8  1  0  0  0  0
  5  2  1  0  0  0  0
  8  9  1  0  0  0  0
  9 18  1  0  0  0  0
  9 10  2  0  0  0  0
 10 19  1  0  0  0  0
 11 10  1  0  0  0  0
 11 12  1  0  0  0  0
 13 12  2  0  0  0  0
 13 20  1  0  0  0  0
 14 13  1  0  0  0  0
 15 16  1  0  0  0  0
 15 14  2  0  0  0  0
 16 11  2  0  0  0  0
 17  8  2  0  0  0  0
 17 16  1  0  0  0  0
 21 14  1  0  0  0  0
 22 15  1  0  0  0  0
 23 17  1  0  0  0  0
 24 30  1  0  0  0  0
 25 24  1  0  0  0  0
 25  1  1  0  0  0  0
 26 25  2  0  0  0  0
 27 28  2  0  0  0  0
 27 26  1  0  0  0  0
 28 29  1  0  0  0  0
 29 24  2  0  0  0  0
 31 26  1  0  0  0  0
 32 35  1  6  0  0  0
 32 34  1  0  0  0  0
 32 28  1  0  0  0  0
 33 32  1  0  0  0  0
 33 34  1  0  0  0  0
 34 38  1  6  0  0  0
 34 39  1  0  0  0  0
 36 33  1  0  0  0  0
 37 33  1  0  0  0  0
 39 41  2  0  0  0  0
 39 40  1  0  0  0  0
M  END
>  <minimizedAffinity>
-5.62645054

$$$$

 OpenBabel03252503253D

 41 45  0  0  1  0  0  0  0  0999 V2000
   33.8940   28.4530   37.6960 C   0  0  1  0  0  0  0  0  0  0  0  0
   35.1170   27.8740   37.1540 C   0  0  0  0  0  0  0  0  0  0  0  0
   35.2020   29.2290   37.7620 C   0  0  2  0  0  0  0  0  0  0  0  0
   33.4950   28.1040   38.6630 H   0  0  0  0  0  0  0  0  0  0  0  0
   35.1560   27.8210   36.0190 H   0  0  0  0  0  0  0  0  0  0  0  0
   35.4590   26.9500   37.5920 H   0  0  0  0  0  0  0  0  0  0  0  0
   35.1910   30.1500   37.1330 H   0  0  0  0  0  0  0  0  0  0  0  0
   35.7800   29.3270   39.1280 C   0  0  0  0  0  0  0  0  0  0  0  0
   35.9940   30.5070   39.8120 C   0  0  0  0  0  0  0  0  0  0  0  0
   36.5420   30.5040   41.0770 C   0  0  0  0  0  0  0  0  0  0  0  0
   36.8890   29.3290   41.6880 C   0  0  0  0  0  0  0  0  0  0  0  0
   37.4280   29.2990   42.9300 N   0  0  0  0  0  0  0  0  0  0  0  0
   37.7630   28.1130   43.5110 C   0  0  0  0  0  0  0  0  0  0  0  0
   37.5830   26.8600   42.8910 C   0  0  0  0  0  0  0  0  0  0  0  0
   37.0350   26.8850   41.6250 C   0  0  0  0  0  0  0  0  0  0  0  0
   36.6970   28.1010   41.0430 C   0  0  0  0  0  0  0  0  0  0  0  0
   36.1450   28.1480   39.7770 C   0  0  0  0  0  0  0  0  0  0  0  0
   35.7150   31.4170   39.3150 H   0  0  0  0  0  0  0  0  0  0  0  0
   36.7010   31.4540   41.5990 H   0  0  0  0  0  0  0  0  0  0  0  0
   38.1940   28.1110   44.5070 H   0  0  0  0  0  0  0  0  0  0  0  0
   37.8780   25.9670   43.4250 H   0  0  0  0  0  0  0  0  0  0  0  0
   36.8780   25.9470   41.1100 H   0  0  0  0  0  0  0  0  0  0  0  0
   36.0340   27.1630   39.3420 H   0  0  0  0  0  0  0  0  0  0  0  0
   31.6590   29.5650   37.3250 C   0  0  0  0  0  0  0  0  0  0  0  0
   32.8410   28.9840   36.7800 C   0  0  0  0  0  0  0  0  0  0  0  0
   32.9480   28.9180   35.4140 C   0  0  0  0  0  0  0  0  0  0  0  0
   31.9210   29.4090   34.6680 N   0  0  0  0  0  0  0  0  0  0  0  0
   30.8020   29.9590   35.2090 C   0  0  0  0  0  0  0  0  0  0  0  0
   30.6780   30.0330   36.5430 N   0  0  0  0  0  0  0  0  0  0  0  0
   31.5500   29.6300   38.4200 H   0  0  0  0  0  0  0  0  0  0  0  0
   33.8240   28.4880   34.9480 H   0  0  0  0  0  0  0  0  0  0  0  0
   29.7510   30.4590   34.2810 C   0  0  2  0  0  0  0  0  0  0  0  0
   30.0750   30.9190   32.9400 C   0  0  0  0  0  0  0  0  0  0  0  0
   29.8700   31.9870   33.9880 C   0  0  2  0  0  0  0  0  0  0  0  0
   28.7190   30.2000   34.6360 H   0  0  0  0  0  0  0  0  0  0  0  0
   29.2760   30.7480   32.1690 H   0  0  0  0  0  0  0  0  0  0  0  0
   31.0840   30.6960   32.5520 H   0  0  0  0  0  0  0  0  0  0  0  0
   28.9380   32.5370   33.8690 H   0  0  0  0  0  0  0  0  0  0  0  0
   31.0890   32.6700   34.4400 C   0  0  0  0  0  0  0  0  0  0  0  0
   31.2040   32.9210   35.4860 H   0  0  0  0  0  0  0  0  0  0  0  0
   32.1220   33.0780   33.9080 O   0  0  0  0  0  0  0  0  0  0  0  0
  1  3  1  0  0  0  0
  1  4  1  1  0  0  0
  2  6  1  0  0  0  0
  2  1  1  0  0  0  0
  2  3  1  0  0  0  0
  3  7  1  6  0  0  0
  3  8  1  0  0  0  0
  5  2  1  0  0  0  0
  8 17  2  0  0  0  0
  8  9  1  0  0  0  0
  9 10  2  0  0  0  0
 10 19  1  0  0  0  0
 10 11  1  0  0  0  0
 11 12  1  0  0  0  0
 12 13  2  0  0  0  0
 13 20  1  0  0  0  0
 14 21  1  0  0  0  0
 14 13  1  0  0  0  0
 15 14  2  0  0  0  0
 16 15  1  0  0  0  0
 16 11  2  0  0  0  0
 17 16  1  0  0  0  0
 18  9  1  0  0  0  0
 22 15  1  0  0  0  0
 23 17  1  0  0  0  0
 24 30  1  0  0  0  0
 25 24  1  0  0  0  0
 25  1  1  0  0  0  0
 26 25  2  0  0  0  0
 27 28  2  0  0  0  0
 27 26  1  0  0  0  0
 28 29  1  0  0  0  0
 29 24  2  0  0  0  0
 31 26  1  0  0  0  0
 32 35  1  1  0  0  0
 32 28  1  0  0  0  0
 33 34  1  0  0  0  0
 33 32  1  0  0  0  0
 34 38  1  6  0  0  0
 34 32  1  0  0  0  0
 34 39  1  0  0  0  0
 36 33  1  0  0  0  0
 37 33  1  0  0  0  0
 39 40  1  0  0  0  0
 41 39  2  0  0  0  0
M  END
>  <minimizedAffinity>
-5.61176252

$$$$

 OpenBabel03252503253D

 41 45  0  0  1  0  0  0  0  0999 V2000
   34.7600   29.2470   37.8680 C   0  0  1  0  0  0  0  0  0  0  0  0
   34.6710   28.6310   36.5510 C   0  0  0  0  0  0  0  0  0  0  0  0
   33.4850   28.5350   37.4420 C   0  0  2  0  0  0  0  0  0  0  0  0
   34.6850   30.3420   37.9760 H   0  0  0  0  0  0  0  0  0  0  0  0
   35.2920   27.6870   36.4240 H   0  0  0  0  0  0  0  0  0  0  0  0
   34.7830   29.2790   35.6950 H   0  0  0  0  0  0  0  0  0  0  0  0
   33.2800   27.6170   38.0420 H   0  0  0  0  0  0  0  0  0  0  0  0
   32.3460   29.4490   37.1600 C   0  0  0  0  0  0  0  0  0  0  0  0
   31.3740   29.8040   38.0730 C   0  0  0  0  0  0  0  0  0  0  0  0
   30.3480   30.6550   37.7210 C   0  0  0  0  0  0  0  0  0  0  0  0
   30.2670   31.1710   36.4560 C   0  0  0  0  0  0  0  0  0  0  0  0
   29.2710   32.0090   36.0860 N   0  0  0  0  0  0  0  0  0  0  0  0
   29.2180   32.5060   34.8180 C   0  0  0  0  0  0  0  0  0  0  0  0
   30.1630   32.2000   33.8180 C   0  0  0  0  0  0  0  0  0  0  0  0
   31.1810   31.3460   34.1910 C   0  0  0  0  0  0  0  0  0  0  0  0
   31.2240   30.8450   35.4870 C   0  0  0  0  0  0  0  0  0  0  0  0
   32.2350   29.9900   35.8800 C   0  0  0  0  0  0  0  0  0  0  0  0
   31.4550   29.3880   39.0600 H   0  0  0  0  0  0  0  0  0  0  0  0
   29.5890   30.9220   38.4650 H   0  0  0  0  0  0  0  0  0  0  0  0
   28.4100   33.1760   34.5420 H   0  0  0  0  0  0  0  0  0  0  0  0
   30.0450   32.6380   32.8370 H   0  0  0  0  0  0  0  0  0  0  0  0
   31.9300   31.0820   33.4570 H   0  0  0  0  0  0  0  0  0  0  0  0
   32.9300   29.7810   35.0760 H   0  0  0  0  0  0  0  0  0  0  0  0
   36.6210   27.7100   38.6060 C   0  0  0  0  0  0  0  0  0  0  0  0
   35.5630   28.6020   38.9490 C   0  0  0  0  0  0  0  0  0  0  0  0
   35.3130   28.8120   40.2810 C   0  0  0  0  0  0  0  0  0  0  0  0
   36.0870   28.1570   41.1880 N   0  0  0  0  0  0  0  0  0  0  0  0
   37.0920   27.3100   40.8390 C   0  0  0  0  0  0  0  0  0  0  0  0
   37.3530   27.0920   39.5420 N   0  0  0  0  0  0  0  0  0  0  0  0
   36.8430   27.5260   37.5420 H   0  0  0  0  0  0  0  0  0  0  0  0
   34.5220   29.4790   40.5960 H   0  0  0  0  0  0  0  0  0  0  0  0
   37.8650   26.6570   41.9300 C   0  0  2  0  0  0  0  0  0  0  0  0
   38.7890   25.5670   41.6620 C   0  0  0  0  0  0  0  0  0  0  0  0
   37.4280   25.1810   42.1900 C   0  0  2  0  0  0  0  0  0  0  0  0
   37.8380   27.2530   42.8800 H   0  0  0  0  0  0  0  0  0  0  0  0
   39.6780   25.5130   42.3470 H   0  0  0  0  0  0  0  0  0  0  0  0
   39.0610   25.3750   40.6100 H   0  0  0  0  0  0  0  0  0  0  0  0
   37.4450   24.8390   43.2240 H   0  0  0  0  0  0  0  0  0  0  0  0
   36.5240   24.5610   41.2130 C   0  0  0  0  0  0  0  0  0  0  0  0
   35.4790   24.8400   41.1990 H   0  0  0  0  0  0  0  0  0  0  0  0
   36.6350   23.7270   40.3120 O   0  0  0  0  0  0  0  0  0  0  0  0
  1  4  1  1  0  0  0
  1 25  1  0  0  0  0
  2  3  1  0  0  0  0
  2  1  1  0  0  0  0
  3  1  1  0  0  0  0
  3  7  1  1  0  0  0
  5  2  1  0  0  0  0
  6  2  1  0  0  0  0
  8  3  1  0  0  0  0
  8  9  1  0  0  0  0
  9 18  1  0  0  0  0
 10  9  2  0  0  0  0
 10 19  1  0  0  0  0
 11 10  1  0  0  0  0
 12 11  1  0  0  0  0
 13 12  2  0  0  0  0
 14 15  2  0  0  0  0
 14 13  1  0  0  0  0
 15 16  1  0  0  0  0
 16 17  1  0  0  0  0
 16 11  2  0  0  0  0
 17  8  2  0  0  0  0
 20 13  1  0  0  0  0
 21 14  1  0  0  0  0
 22 15  1  0  0  0  0
 23 17  1  0  0  0  0
 24 25  2  0  0  0  0
 24 29  1  0  0  0  0
 25 26  1  0  0  0  0
 26 31  1  0  0  0  0
 26 27  2  0  0  0  0
 28 27  1  0  0  0  0
 28 32  1  0  0  0  0
 29 28  2  0  0  0  0
 30 24  1  0  0  0  0
 32 34  1  0  0  0  0
 32 35  1  1  0  0  0
 33 32  1  0  0  0  0
 33 34  1  0  0  0  0
 33 36  1  0  0  0  0
 34 38  1  1  0  0  0
 37 33  1  0  0  0  0
 39 34  1  0  0  0  0
 40 39  1  0  0  0  0
 41 39  2  0  0  0  0
M  END
>  <minimizedAffinity>
-5.59636879

$$$$

 OpenBabel03252503253D

 41 45  0  0  1  0  0  0  0  0999 V2000
   37.7110   30.4290   40.1310 C   0  0  1  0  0  0  0  0  0  0  0  0
   36.7980   31.4770   40.5700 C   0  0  0  0  0  0  0  0  0  0  0  0
   38.1960   31.5190   41.0750 C   0  0  2  0  0  0  0  0  0  0  0  0
   38.1360   30.4520   39.1140 H   0  0  0  0  0  0  0  0  0  0  0  0
   36.0000   31.1360   41.3040 H   0  0  0  0  0  0  0  0  0  0  0  0
   36.3710   32.1080   39.8060 H   0  0  0  0  0  0  0  0  0  0  0  0
   38.4600   31.1290   42.0870 H   0  0  0  0  0  0  0  0  0  0  0  0
   39.1190   32.5010   40.4450 C   0  0  0  0  0  0  0  0  0  0  0  0
   39.0420   33.8690   40.6030 C   0  0  0  0  0  0  0  0  0  0  0  0
   39.9390   34.7070   39.9750 C   0  0  0  0  0  0  0  0  0  0  0  0
   40.9300   34.2010   39.1780 C   0  0  0  0  0  0  0  0  0  0  0  0
   41.8240   35.0010   38.5500 N   0  0  0  0  0  0  0  0  0  0  0  0
   42.8000   34.4670   37.7630 C   0  0  0  0  0  0  0  0  0  0  0  0
   42.9560   33.0840   37.5420 C   0  0  0  0  0  0  0  0  0  0  0  0
   42.0480   32.2640   38.1790 C   0  0  0  0  0  0  0  0  0  0  0  0
   41.0570   32.8200   38.9800 C   0  0  0  0  0  0  0  0  0  0  0  0
   40.1380   32.0170   39.6270 C   0  0  0  0  0  0  0  0  0  0  0  0
   38.2570   34.2460   41.2320 H   0  0  0  0  0  0  0  0  0  0  0  0
   39.8570   35.7900   40.1160 H   0  0  0  0  0  0  0  0  0  0  0  0
   43.5060   35.1270   37.2690 H   0  0  0  0  0  0  0  0  0  0  0  0
   43.7590   32.7460   36.9020 H   0  0  0  0  0  0  0  0  0  0  0  0
   42.1280   31.1950   38.0390 H   0  0  0  0  0  0  0  0  0  0  0  0
   40.2960   30.9660   39.4200 H   0  0  0  0  0  0  0  0  0  0  0  0
   38.6020   28.0820   40.3880 C   0  0  0  0  0  0  0  0  0  0  0  0
   37.6010   29.0500   40.6930 C   0  0  0  0  0  0  0  0  0  0  0  0
   36.5530   28.6560   41.4850 C   0  0  0  0  0  0  0  0  0  0  0  0
   36.5340   27.3690   41.9270 N   0  0  0  0  0  0  0  0  0  0  0  0
   37.4990   26.4610   41.6240 C   0  0  0  0  0  0  0  0  0  0  0  0
   38.5330   26.8270   40.8510 N   0  0  0  0  0  0  0  0  0  0  0  0
   39.4550   28.3740   39.7550 H   0  0  0  0  0  0  0  0  0  0  0  0
   35.7670   29.3500   41.7480 H   0  0  0  0  0  0  0  0  0  0  0  0
   37.3600   25.0850   42.1720 C   0  0  2  0  0  0  0  0  0  0  0  0
   38.0360   23.9510   41.5630 C   0  0  0  0  0  0  0  0  0  0  0  0
   36.5750   24.1260   41.2240 C   0  0  2  0  0  0  0  0  0  0  0  0
   36.9100   25.0840   43.1990 H   0  0  0  0  0  0  0  0  0  0  0  0
   38.3390   23.1350   42.2740 H   0  0  0  0  0  0  0  0  0  0  0  0
   38.8180   24.1630   40.8140 H   0  0  0  0  0  0  0  0  0  0  0  0
   35.9290   23.3880   41.6970 H   0  0  0  0  0  0  0  0  0  0  0  0
   36.2960   24.5990   39.8620 C   0  0  0  0  0  0  0  0  0  0  0  0
   35.4170   25.2010   39.6760 H   0  0  0  0  0  0  0  0  0  0  0  0
   36.8380   24.4920   38.7600 O   0  0  0  0  0  0  0  0  0  0  0  0
  1  4  1  6  0  0  0
  1  2  1  0  0  0  0
  1 25  1  0  0  0  0
  1  3  1  0  0  0  0
  2  3  1  0  0  0  0
  2  5  1  0  0  0  0
  3  7  1  1  0  0  0
  6  2  1  0  0  0  0
  8  9  1  0  0  0  0
  8  3  1  0  0  0  0
  9 18  1  0  0  0  0
 10 19  1  0  0  0  0
 10  9  2  0  0  0  0
 11 10  1  0  0  0  0
 12 11  2  0  0  0  0
 13 12  1  0  0  0  0
 14 13  2  0  0  0  0
 14 15  1  0  0  0  0
 15 16  2  0  0  0  0
 16 11  1  0  0  0  0
 16 17  1  0  0  0  0
 17  8  2  0  0  0  0
 20 13  1  0  0  0  0
 21 14  1  0  0  0  0
 22 15  1  0  0  0  0
 23 17  1  0  0  0  0
 24 25  2  0  0  0  0
 24 29  1  0  0  0  0
 25 26  1  0  0  0  0
 26 31  1  0  0  0  0
 26 27  2  0  0  0  0
 28 27  1  0  0  0  0
 28 32  1  0  0  0  0
 29 28  2  0  0  0  0
 30 24  1  0  0  0  0
 32 35  1  1  0  0  0
 33 32  1  0  0  0  0
 33 36  1  0  0  0  0
 34 33  1  0  0  0  0
 34 38  1  1  0  0  0
 34 32  1  0  0  0  0
 37 33  1  0  0  0  0
 39 34  1  0  0  0  0
 40 39  1  0  0  0  0
 41 39  2  0  0  0  0
M  END
>  <minimizedAffinity>
-5.53101444

$$$$

 OpenBabel03252503253D

 41 45  0  0  1  0  0  0  0  0999 V2000
   36.1260   29.4440   39.5420 C   0  0  1  0  0  0  0  0  0  0  0  0
   35.6550   30.2990   40.6240 C   0  0  0  0  0  0  0  0  0  0  0  0
   35.6680   28.8300   40.8560 C   0  0  2  0  0  0  0  0  0  0  0  0
   37.2060   29.3640   39.3270 H   0  0  0  0  0  0  0  0  0  0  0  0
   34.6400   30.7780   40.4430 H   0  0  0  0  0  0  0  0  0  0  0  0
   36.3520   31.0200   41.0210 H   0  0  0  0  0  0  0  0  0  0  0  0
   34.7430   28.2160   40.7480 H   0  0  0  0  0  0  0  0  0  0  0  0
   36.7730   28.2830   41.6880 C   0  0  0  0  0  0  0  0  0  0  0  0
   37.5030   29.0090   42.6070 C   0  0  0  0  0  0  0  0  0  0  0  0
   38.5160   28.4190   43.3320 C   0  0  0  0  0  0  0  0  0  0  0  0
   38.8240   27.0970   43.1590 C   0  0  0  0  0  0  0  0  0  0  0  0
   39.8130   26.4930   43.8600 N   0  0  0  0  0  0  0  0  0  0  0  0
   40.0950   25.1740   43.6650 C   0  0  0  0  0  0  0  0  0  0  0  0
   39.4050   24.3540   42.7500 C   0  0  0  0  0  0  0  0  0  0  0  0
   38.3960   24.9640   42.0340 C   0  0  0  0  0  0  0  0  0  0  0  0
   38.1180   26.3100   42.2410 C   0  0  0  0  0  0  0  0  0  0  0  0
   37.1100   26.9390   41.5350 C   0  0  0  0  0  0  0  0  0  0  0  0
   37.2460   30.0450   42.7270 H   0  0  0  0  0  0  0  0  0  0  0  0
   39.0810   29.0170   44.0560 H   0  0  0  0  0  0  0  0  0  0  0  0
   40.8930   24.7110   44.2360 H   0  0  0  0  0  0  0  0  0  0  0  0
   39.6960   23.3170   42.6580 H   0  0  0  0  0  0  0  0  0  0  0  0
   37.8390   24.3740   41.3190 H   0  0  0  0  0  0  0  0  0  0  0  0
   36.6170   26.2700   40.8420 H   0  0  0  0  0  0  0  0  0  0  0  0
   35.8400   29.2530   37.0420 C   0  0  0  0  0  0  0  0  0  0  0  0
   35.2670   29.1970   38.3460 C   0  0  0  0  0  0  0  0  0  0  0  0
   33.9240   28.9370   38.4430 C   0  0  0  0  0  0  0  0  0  0  0  0
   33.2250   28.7500   37.2910 N   0  0  0  0  0  0  0  0  0  0  0  0
   33.7900   28.8070   36.0560 C   0  0  0  0  0  0  0  0  0  0  0  0
   35.1030   29.0610   35.9400 N   0  0  0  0  0  0  0  0  0  0  0  0
   36.9170   29.4600   36.9380 H   0  0  0  0  0  0  0  0  0  0  0  0
   33.4390   28.8820   39.4080 H   0  0  0  0  0  0  0  0  0  0  0  0
   32.9130   28.5850   34.8750 C   0  0  2  0  0  0  0  0  0  0  0  0
   31.7310   27.7420   34.9520 C   0  0  0  0  0  0  0  0  0  0  0  0
   32.9640   27.1190   34.3420 C   0  0  2  0  0  0  0  0  0  0  0  0
   33.1250   29.3150   34.0500 H   0  0  0  0  0  0  0  0  0  0  0  0
   30.8810   28.0450   34.2810 H   0  0  0  0  0  0  0  0  0  0  0  0
   31.3820   27.4400   35.9540 H   0  0  0  0  0  0  0  0  0  0  0  0
   32.8940   26.9850   33.2640 H   0  0  0  0  0  0  0  0  0  0  0  0
   33.6430   26.1190   35.1760 C   0  0  0  0  0  0  0  0  0  0  0  0
   33.1730   25.7740   36.0870 H   0  0  0  0  0  0  0  0  0  0  0  0
   34.7070   25.5000   35.1230 O   0  0  0  0  0  0  0  0  0  0  0  0
  1  4  1  6  0  0  0
  1  2  1  0  0  0  0
  1  3  1  0  0  0  0
  2  3  1  0  0  0  0
  2  6  1  0  0  0  0
  3  7  1  1  0  0  0
  3  8  1  0  0  0  0
  5  2  1  0  0  0  0
  8  9  1  0  0  0  0
  9 18  1  0  0  0  0
  9 10  2  0  0  0  0
 10 19  1  0  0  0  0
 11 10  1  0  0  0  0
 11 12  1  0  0  0  0
 13 12  2  0  0  0  0
 13 20  1  0  0  0  0
 14 13  1  0  0  0  0
 15 16  1  0  0  0  0
 15 14  2  0  0  0  0
 16 11  2  0  0  0  0
 17  8  2  0  0  0  0
 17 16  1  0  0  0  0
 21 14  1  0  0  0  0
 22 15  1  0  0  0  0
 23 17  1  0  0  0  0
 24 25  1  0  0  0  0
 25 26  2  0  0  0  0
 25  1  1  0  0  0  0
 26 31  1  0  0  0  0
 27 26  1  0  0  0  0
 28 27  2  0  0  0  0
 29 28  1  0  0  0  0
 29 24  2  0  0  0  0
 30 24  1  0  0  0  0
 32 35  1  6  0  0  0
 32 33  1  0  0  0  0
 32 28  1  0  0  0  0
 33 37  1  0  0  0  0
 34 38  1  6  0  0  0
 34 32  1  0  0  0  0
 34 33  1  0  0  0  0
 34 39  1  0  0  0  0
 36 33  1  0  0  0  0
 39 40  1  0  0  0  0
 41 39  2  0  0  0  0
M  END
>  <minimizedAffinity>
-5.40851307

$$$$

 OpenBabel03252503253D

 41 45  0  0  1  0  0  0  0  0999 V2000
   39.3540   28.7160   42.1360 C   0  0  1  0  0  0  0  0  0  0  0  0
   38.4620   28.7850   43.2860 C   0  0  0  0  0  0  0  0  0  0  0  0
   37.8510   28.5760   41.9460 C   0  0  2  0  0  0  0  0  0  0  0  0
   39.9480   27.8050   41.9480 H   0  0  0  0  0  0  0  0  0  0  0  0
   38.3520   29.8210   43.7400 H   0  0  0  0  0  0  0  0  0  0  0  0
   38.5930   28.0420   44.0570 H   0  0  0  0  0  0  0  0  0  0  0  0
   37.4070   29.4220   41.3710 H   0  0  0  0  0  0  0  0  0  0  0  0
   37.4080   27.1970   41.6080 C   0  0  0  0  0  0  0  0  0  0  0  0
   37.3580   26.1440   42.4980 C   0  0  0  0  0  0  0  0  0  0  0  0
   36.9380   24.8940   42.0950 C   0  0  0  0  0  0  0  0  0  0  0  0
   36.5600   24.6660   40.8000 C   0  0  0  0  0  0  0  0  0  0  0  0
   36.1430   23.4490   40.3780 N   0  0  0  0  0  0  0  0  0  0  0  0
   35.7730   23.2540   39.0810 C   0  0  0  0  0  0  0  0  0  0  0  0
   35.7910   24.2670   38.1020 C   0  0  0  0  0  0  0  0  0  0  0  0
   36.2160   25.5090   38.5260 C   0  0  0  0  0  0  0  0  0  0  0  0
   36.5910   25.6960   39.8510 C   0  0  0  0  0  0  0  0  0  0  0  0
   37.0170   26.9330   40.2960 C   0  0  0  0  0  0  0  0  0  0  0  0
   37.6600   26.3430   43.5100 H   0  0  0  0  0  0  0  0  0  0  0  0
   36.9080   24.0740   42.8210 H   0  0  0  0  0  0  0  0  0  0  0  0
   35.4420   22.2700   38.7640 H   0  0  0  0  0  0  0  0  0  0  0  0
   35.4810   24.0250   37.0950 H   0  0  0  0  0  0  0  0  0  0  0  0
   36.2470   26.3180   37.8090 H   0  0  0  0  0  0  0  0  0  0  0  0
   37.0200   27.6730   39.5070 H   0  0  0  0  0  0  0  0  0  0  0  0
   40.1020   30.1360   40.1890 C   0  0  0  0  0  0  0  0  0  0  0  0
   39.9900   29.9550   41.5990 C   0  0  0  0  0  0  0  0  0  0  0  0
   40.4990   30.9360   42.4100 C   0  0  0  0  0  0  0  0  0  0  0  0
   41.0800   32.0160   41.8210 N   0  0  0  0  0  0  0  0  0  0  0  0
   41.1770   32.1690   40.4730 C   0  0  0  0  0  0  0  0  0  0  0  0
   40.6840   31.2210   39.6620 N   0  0  0  0  0  0  0  0  0  0  0  0
   39.6990   29.3630   39.5160 H   0  0  0  0  0  0  0  0  0  0  0  0
   40.4400   30.8500   43.4860 H   0  0  0  0  0  0  0  0  0  0  0  0
   41.8370   33.3990   39.9560 C   0  0  2  0  0  0  0  0  0  0  0  0
   41.8370   34.6400   40.7140 C   0  0  0  0  0  0  0  0  0  0  0  0
   40.8250   34.5310   39.5970 C   0  0  2  0  0  0  0  0  0  0  0  0
   42.5130   33.1800   39.0880 H   0  0  0  0  0  0  0  0  0  0  0  0
   42.7430   35.2890   40.5700 H   0  0  0  0  0  0  0  0  0  0  0  0
   41.5190   34.5950   41.7690 H   0  0  0  0  0  0  0  0  0  0  0  0
   41.0650   35.1490   38.7330 H   0  0  0  0  0  0  0  0  0  0  0  0
   39.4310   34.3540   40.0240 C   0  0  0  0  0  0  0  0  0  0  0  0
   39.0430   33.3560   40.1780 H   0  0  0  0  0  0  0  0  0  0  0  0
   38.4840   35.0990   40.2830 O   0  0  0  0  0  0  0  0  0  0  0  0
  1  4  1  6  0  0  0
  1  2  1  0  0  0  0
  2  5  1  0  0  0  0
  2  6  1  0  0  0  0
  3  7  1  6  0  0  0
  3  1  1  0  0  0  0
  3  2  1  0  0  0  0
  8  3  1  0  0  0  0
  8  9  1  0  0  0  0
  9 18  1  0  0  0  0
 10  9  2  0  0  0  0
 10 19  1  0  0  0  0
 11 10  1  0  0  0  0
 12 11  1  0  0  0  0
 13 12  2  0  0  0  0
 14 15  2  0  0  0  0
 14 13  1  0  0  0  0
 15 16  1  0  0  0  0
 16 17  1  0  0  0  0
 16 11  2  0  0  0  0
 17  8  2  0  0  0  0
 20 13  1  0  0  0  0
 21 14  1  0  0  0  0
 22 15  1  0  0  0  0
 23 17  1  0  0  0  0
 24 25  1  0  0  0  0
 25  1  1  0  0  0  0
 25 26  2  0  0  0  0
 26 31  1  0  0  0  0
 27 26  1  0  0  0  0
 28 27  2  0  0  0  0
 29 24  2  0  0  0  0
 29 28  1  0  0  0  0
 30 24  1  0  0  0  0
 32 35  1  6  0  0  0
 32 28  1  0  0  0  0
 32 33  1  0  0  0  0
 33 37  1  0  0  0  0
 34 38  1  6  0  0  0
 34 32  1  0  0  0  0
 34 39  1  0  0  0  0
 34 33  1  0  0  0  0
 36 33  1  0  0  0  0
 39 40  1  0  0  0  0
 39 41  2  0  0  0  0
M  END
>  <minimizedAffinity>
-5.36771441

$$$$
