
 OpenBabel03242514453D

 15 15  0  0  0  0  0  0  0  0999 V2000
   37.3430   28.5960   42.6760 C   0  0  0  0  0  0  0  0  0  0  0  0
   36.8740   29.0970   41.4430 C   0  0  0  0  0  0  0  0  0  0  0  0
   37.5940   30.1610   40.8700 C   0  0  0  0  0  0  0  0  0  0  0  0
   38.6800   30.6300   41.5330 N   0  0  0  0  0  0  0  0  0  0  0  0
   39.0930   30.1170   42.7150 C   0  0  0  0  0  0  0  0  0  0  0  0
   38.4200   29.1020   43.2790 N   0  0  0  0  0  0  0  0  0  0  0  0
   37.3290   30.6120   39.9450 H   0  0  0  0  0  0  0  0  0  0  0  0
   39.9710   30.5620   43.1630 H   0  0  0  0  0  0  0  0  0  0  0  0
   36.5760   27.4680   43.2810 C   0  0  0  0  0  0  0  0  0  0  0  0
   35.4890   27.5480   43.1770 H   0  0  0  0  0  0  0  0  0  0  0  0
   36.7570   27.5460   44.3930 H   0  0  0  0  0  0  0  0  0  0  0  0
   37.0050   26.4890   42.9890 H   0  0  0  0  0  0  0  0  0  0  0  0
   35.7110   28.5880   40.7400 C   0  0  0  0  0  0  0  0  0  0  0  0
   35.5920   27.5180   40.6310 H   0  0  0  0  0  0  0  0  0  0  0  0
   34.8420   29.3820   40.2590 O   0  0  0  0  0  0  0  0  0  0  0  0
  1  6  1  0  0  0  0
  1  9  1  0  0  0  0
  2  1  2  0  0  0  0
  3  2  1  0  0  0  0
  3  4  2  0  0  0  0
  4  5  1  0  0  0  0
  5  8  1  0  0  0  0
  5  6  2  0  0  0  0
  7  3  1  0  0  0  0
  9 11  1  0  0  0  0
 10  9  1  0  0  0  0
 12  9  1  0  0  0  0
 13  2  1  0  0  0  0
 14 13  1  0  0  0  0
 15 13  2  0  0  0  0
M  END
>  <minimizedAffinity>
-2.9831152

$$$$

 OpenBabel03242514453D

 15 15  0  0  0  0  0  0  0  0999 V2000
   37.6040   25.9890   42.4670 C   0  0  0  0  0  0  0  0  0  0  0  0
   38.9270   25.9370   42.9550 C   0  0  0  0  0  0  0  0  0  0  0  0
   39.5060   27.1530   43.3630 C   0  0  0  0  0  0  0  0  0  0  0  0
   38.7620   28.2820   43.2620 N   0  0  0  0  0  0  0  0  0  0  0  0
   37.4950   28.2840   42.7880 C   0  0  0  0  0  0  0  0  0  0  0  0
   36.9240   27.1350   42.3930 N   0  0  0  0  0  0  0  0  0  0  0  0
   40.4940   27.2260   43.7460 H   0  0  0  0  0  0  0  0  0  0  0  0
   36.9870   29.2370   42.7470 H   0  0  0  0  0  0  0  0  0  0  0  0
   36.9930   24.6980   42.0340 C   0  0  0  0  0  0  0  0  0  0  0  0
   37.6750   24.0270   41.5030 H   0  0  0  0  0  0  0  0  0  0  0  0
   36.2170   24.9780   41.2620 H   0  0  0  0  0  0  0  0  0  0  0  0
   36.4200   24.2290   42.8580 H   0  0  0  0  0  0  0  0  0  0  0  0
   39.7150   24.7230   43.0590 C   0  0  0  0  0  0  0  0  0  0  0  0
   39.2070   23.7840   43.2360 H   0  0  0  0  0  0  0  0  0  0  0  0
   40.9800   24.7570   42.9460 O   0  0  0  0  0  0  0  0  0  0  0  0
  1  2  1  0  0  0  0
  2 13  1  0  0  0  0
  2  3  2  0  0  0  0
  3  7  1  0  0  0  0
  4  3  1  0  0  0  0
  5  4  2  0  0  0  0
  6  1  2  0  0  0  0
  6  5  1  0  0  0  0
  8  5  1  0  0  0  0
  9  1  1  0  0  0  0
  9 12  1  0  0  0  0
 10  9  1  0  0  0  0
 11  9  1  0  0  0  0
 13 14  1  0  0  0  0
 15 13  2  0  0  0  0
M  END
>  <minimizedAffinity>
-2.95147991

$$$$

 OpenBabel03242514453D

 15 15  0  0  0  0  0  0  0  0999 V2000
   38.4280   25.2070   42.5480 C   0  0  0  0  0  0  0  0  0  0  0  0
   38.2770   26.5580   42.9270 C   0  0  0  0  0  0  0  0  0  0  0  0
   39.3910   27.1850   43.5170 C   0  0  0  0  0  0  0  0  0  0  0  0
   40.5230   26.4570   43.6790 N   0  0  0  0  0  0  0  0  0  0  0  0
   40.6220   25.1620   43.3000 C   0  0  0  0  0  0  0  0  0  0  0  0
   39.5710   24.5450   42.7350 N   0  0  0  0  0  0  0  0  0  0  0  0
   39.3850   28.1970   43.8380 H   0  0  0  0  0  0  0  0  0  0  0  0
   41.5690   24.6700   43.4730 H   0  0  0  0  0  0  0  0  0  0  0  0
   37.2450   24.5450   41.9240 C   0  0  0  0  0  0  0  0  0  0  0  0
   36.2830   24.8140   42.3720 H   0  0  0  0  0  0  0  0  0  0  0  0
   37.3630   23.4450   42.1510 H   0  0  0  0  0  0  0  0  0  0  0  0
   37.2830   24.6150   40.8190 H   0  0  0  0  0  0  0  0  0  0  0  0
   37.0600   27.3280   42.7490 C   0  0  0  0  0  0  0  0  0  0  0  0
   36.8970   27.8360   41.8070 H   0  0  0  0  0  0  0  0  0  0  0  0
   36.1980   27.4090   43.6800 O   0  0  0  0  0  0  0  0  0  0  0  0
  1  6  2  0  0  0  0
  1  2  1  0  0  0  0
  2  3  2  0  0  0  0
  3  4  1  0  0  0  0
  3  7  1  0  0  0  0
  5  8  1  0  0  0  0
  5  4  2  0  0  0  0
  6  5  1  0  0  0  0
  9 11  1  0  0  0  0
  9 10  1  0  0  0  0
  9  1  1  0  0  0  0
 12  9  1  0  0  0  0
 13  2  1  0  0  0  0
 13 15  2  0  0  0  0
 14 13  1  0  0  0  0
M  END
>  <minimizedAffinity>
-2.95042396

$$$$

 OpenBabel03242514453D

 15 15  0  0  0  0  0  0  0  0999 V2000
   38.6210   29.2770   42.6550 C   0  0  0  0  0  0  0  0  0  0  0  0
   37.3420   29.2900   42.0570 C   0  0  0  0  0  0  0  0  0  0  0  0
   36.5930   28.1010   42.1230 C   0  0  0  0  0  0  0  0  0  0  0  0
   37.1430   27.0320   42.7500 N   0  0  0  0  0  0  0  0  0  0  0  0
   38.3750   27.0660   43.3100 C   0  0  0  0  0  0  0  0  0  0  0  0
   39.1060   28.1910   43.2580 N   0  0  0  0  0  0  0  0  0  0  0  0
   35.6220   28.0020   41.7060 H   0  0  0  0  0  0  0  0  0  0  0  0
   38.7230   26.1600   43.7860 H   0  0  0  0  0  0  0  0  0  0  0  0
   39.4120   30.5400   42.5830 C   0  0  0  0  0  0  0  0  0  0  0  0
   39.3330   31.0740   41.6300 H   0  0  0  0  0  0  0  0  0  0  0  0
   40.4940   30.2190   42.6340 H   0  0  0  0  0  0  0  0  0  0  0  0
   39.2550   31.1640   43.4850 H   0  0  0  0  0  0  0  0  0  0  0  0
   36.7620   30.4400   41.3880 C   0  0  0  0  0  0  0  0  0  0  0  0
   37.1990   31.4160   41.5530 H   0  0  0  0  0  0  0  0  0  0  0  0
   35.7580   30.3070   40.6200 O   0  0  0  0  0  0  0  0  0  0  0  0
  1  6  1  0  0  0  0
  2  3  1  0  0  0  0
  2  1  2  0  0  0  0
  3  4  2  0  0  0  0
  4  5  1  0  0  0  0
  5  8  1  0  0  0  0
  6  5  2  0  0  0  0
  7  3  1  0  0  0  0
  9 11  1  0  0  0  0
  9  1  1  0  0  0  0
  9 12  1  0  0  0  0
 10  9  1  0  0  0  0
 13 14  1  0  0  0  0
 13  2  1  0  0  0  0
 15 13  2  0  0  0  0
M  END
>  <minimizedAffinity>
-2.94479465

$$$$

 OpenBabel03242514453D

 15 15  0  0  0  0  0  0  0  0999 V2000
   36.2230   28.9800   41.2430 C   0  0  0  0  0  0  0  0  0  0  0  0
   37.0490   30.1180   41.3620 C   0  0  0  0  0  0  0  0  0  0  0  0
   38.1520   30.0200   42.2310 C   0  0  0  0  0  0  0  0  0  0  0  0
   38.3450   28.8510   42.8900 N   0  0  0  0  0  0  0  0  0  0  0  0
   37.5250   27.7840   42.7450 C   0  0  0  0  0  0  0  0  0  0  0  0
   36.4680   27.8570   41.9200 N   0  0  0  0  0  0  0  0  0  0  0  0
   38.8360   30.8150   42.3940 H   0  0  0  0  0  0  0  0  0  0  0  0
   37.7670   26.8990   43.3150 H   0  0  0  0  0  0  0  0  0  0  0  0
   35.0550   29.0880   40.3210 C   0  0  0  0  0  0  0  0  0  0  0  0
   34.5410   30.0540   40.3470 H   0  0  0  0  0  0  0  0  0  0  0  0
   34.2930   28.3540   40.7170 H   0  0  0  0  0  0  0  0  0  0  0  0
   35.3080   28.7190   39.3080 H   0  0  0  0  0  0  0  0  0  0  0  0
   36.8340   31.3650   40.6520 C   0  0  0  0  0  0  0  0  0  0  0  0
   35.9100   31.5030   40.1060 H   0  0  0  0  0  0  0  0  0  0  0  0
   37.7130   32.2830   40.6670 O   0  0  0  0  0  0  0  0  0  0  0  0
  1  2  2  0  0  0  0
  1  6  1  0  0  0  0
  2  3  1  0  0  0  0
  3  7  1  0  0  0  0
  3  4  2  0  0  0  0
  5  4  1  0  0  0  0
  5  8  1  0  0  0  0
  6  5  2  0  0  0  0
  9 10  1  0  0  0  0
  9 11  1  0  0  0  0
  9  1  1  0  0  0  0
 12  9  1  0  0  0  0
 13 15  2  0  0  0  0
 13  2  1  0  0  0  0
 14 13  1  0  0  0  0
M  END
>  <minimizedAffinity>
-2.9387002

$$$$

 OpenBabel03242514453D

 15 15  0  0  0  0  0  0  0  0999 V2000
   37.3560   27.1370   42.0910 C   0  0  0  0  0  0  0  0  0  0  0  0
   38.3450   27.7470   42.8910 C   0  0  0  0  0  0  0  0  0  0  0  0
   38.3720   29.1540   42.9140 C   0  0  0  0  0  0  0  0  0  0  0  0
   37.4540   29.8230   42.1740 N   0  0  0  0  0  0  0  0  0  0  0  0
   36.5220   29.1950   41.4200 C   0  0  0  0  0  0  0  0  0  0  0  0
   36.4790   27.8530   41.3850 N   0  0  0  0  0  0  0  0  0  0  0  0
   39.0730   29.7130   43.4820 H   0  0  0  0  0  0  0  0  0  0  0  0
   35.8350   29.8200   40.8670 H   0  0  0  0  0  0  0  0  0  0  0  0
   37.3310   25.6450   42.0690 C   0  0  0  0  0  0  0  0  0  0  0  0
   38.3190   25.1730   42.0540 H   0  0  0  0  0  0  0  0  0  0  0  0
   36.8740   25.3680   41.0730 H   0  0  0  0  0  0  0  0  0  0  0  0
   36.6300   25.2440   42.8270 H   0  0  0  0  0  0  0  0  0  0  0  0
   39.3230   27.0210   43.6800 C   0  0  0  0  0  0  0  0  0  0  0  0
   38.9950   26.1780   44.2730 H   0  0  0  0  0  0  0  0  0  0  0  0
   40.5470   27.3670   43.6780 O   0  0  0  0  0  0  0  0  0  0  0  0
  1  2  1  0  0  0  0
  2  3  2  0  0  0  0
  2 13  1  0  0  0  0
  3  7  1  0  0  0  0
  4  3  1  0  0  0  0
  5  4  2  0  0  0  0
  6  5  1  0  0  0  0
  6  1  2  0  0  0  0
  8  5  1  0  0  0  0
  9  1  1  0  0  0  0
  9 12  1  0  0  0  0
 10  9  1  0  0  0  0
 11  9  1  0  0  0  0
 13 14  1  0  0  0  0
 15 13  2  0  0  0  0
M  END
>  <minimizedAffinity>
-2.9248054

$$$$

 OpenBabel03242514453D

 15 15  0  0  0  0  0  0  0  0999 V2000
   36.5930   28.5410   41.9010 C   0  0  0  0  0  0  0  0  0  0  0  0
   37.5300   29.5880   42.0370 C   0  0  0  0  0  0  0  0  0  0  0  0
   37.3700   30.7040   41.1960 C   0  0  0  0  0  0  0  0  0  0  0  0
   36.3360   30.7010   40.3190 N   0  0  0  0  0  0  0  0  0  0  0  0
   35.4600   29.6730   40.2230 C   0  0  0  0  0  0  0  0  0  0  0  0
   35.5960   28.5990   41.0170 N   0  0  0  0  0  0  0  0  0  0  0  0
   38.0170   31.5450   41.2160 H   0  0  0  0  0  0  0  0  0  0  0  0
   34.6700   29.7680   39.4910 H   0  0  0  0  0  0  0  0  0  0  0  0
   36.7670   27.3590   42.7940 C   0  0  0  0  0  0  0  0  0  0  0  0
   37.8070   27.0550   42.9510 H   0  0  0  0  0  0  0  0  0  0  0  0
   36.3030   26.4930   42.2380 H   0  0  0  0  0  0  0  0  0  0  0  0
   36.1640   27.4620   43.7180 H   0  0  0  0  0  0  0  0  0  0  0  0
   38.6340   29.5820   42.9790 C   0  0  0  0  0  0  0  0  0  0  0  0
   38.4450   29.8630   44.0070 H   0  0  0  0  0  0  0  0  0  0  0  0
   39.8050   29.2530   42.6090 O   0  0  0  0  0  0  0  0  0  0  0  0
  1  2  1  0  0  0  0
  1  9  1  0  0  0  0
  2 13  1  0  0  0  0
  3  7  1  0  0  0  0
  3  2  2  0  0  0  0
  4  3  1  0  0  0  0
  5  4  2  0  0  0  0
  5  6  1  0  0  0  0
  6  1  2  0  0  0  0
  8  5  1  0  0  0  0
  9 10  1  0  0  0  0
  9 12  1  0  0  0  0
 11  9  1  0  0  0  0
 13 14  1  0  0  0  0
 15 13  2  0  0  0  0
M  END
>  <minimizedAffinity>
-2.91613007

$$$$

 OpenBabel03242514453D

 15 15  0  0  0  0  0  0  0  0999 V2000
   38.8830   27.1290   43.1250 C   0  0  0  0  0  0  0  0  0  0  0  0
   37.8340   26.5150   42.4080 C   0  0  0  0  0  0  0  0  0  0  0  0
   36.8370   27.3600   41.8860 C   0  0  0  0  0  0  0  0  0  0  0  0
   36.9490   28.6930   42.1040 N   0  0  0  0  0  0  0  0  0  0  0  0
   37.9750   29.2380   42.7990 C   0  0  0  0  0  0  0  0  0  0  0  0
   38.9360   28.4500   43.3050 N   0  0  0  0  0  0  0  0  0  0  0  0
   36.0050   27.0030   41.3310 H   0  0  0  0  0  0  0  0  0  0  0  0
   37.9720   30.3120   42.9170 H   0  0  0  0  0  0  0  0  0  0  0  0
   39.9390   26.2300   43.6770 C   0  0  0  0  0  0  0  0  0  0  0  0
   39.5650   25.2860   44.0870 H   0  0  0  0  0  0  0  0  0  0  0  0
   40.3590   26.7770   44.5730 H   0  0  0  0  0  0  0  0  0  0  0  0
   40.7910   26.1330   42.9760 H   0  0  0  0  0  0  0  0  0  0  0  0
   37.7240   25.0860   42.1800 C   0  0  0  0  0  0  0  0  0  0  0  0
   38.6280   24.4990   42.0920 H   0  0  0  0  0  0  0  0  0  0  0  0
   36.5850   24.5290   42.0830 O   0  0  0  0  0  0  0  0  0  0  0  0
  1  6  1  0  0  0  0
  1  9  1  0  0  0  0
  2  1  2  0  0  0  0
  3  4  2  0  0  0  0
  3  2  1  0  0  0  0
  4  5  1  0  0  0  0
  5  8  1  0  0  0  0
  5  6  2  0  0  0  0
  7  3  1  0  0  0  0
  9 10  1  0  0  0  0
  9 11  1  0  0  0  0
 12  9  1  0  0  0  0
 13  2  1  0  0  0  0
 14 13  1  0  0  0  0
 15 13  2  0  0  0  0
M  END
>  <minimizedAffinity>
-2.91311002

$$$$

 OpenBabel03242514453D

 15 15  0  0  0  0  0  0  0  0999 V2000
   37.2410   31.9170   38.9380 C   0  0  0  0  0  0  0  0  0  0  0  0
   36.6260   30.8250   39.5880 C   0  0  0  0  0  0  0  0  0  0  0  0
   36.3780   29.6770   38.8130 C   0  0  0  0  0  0  0  0  0  0  0  0
   36.7450   29.6940   37.5080 N   0  0  0  0  0  0  0  0  0  0  0  0
   37.3340   30.7660   36.9270 C   0  0  0  0  0  0  0  0  0  0  0  0
   37.5780   31.8710   37.6480 N   0  0  0  0  0  0  0  0  0  0  0  0
   35.9210   28.8010   39.2020 H   0  0  0  0  0  0  0  0  0  0  0  0
   37.5870   30.6780   35.8800 H   0  0  0  0  0  0  0  0  0  0  0  0
   37.5020   33.1330   39.7630 C   0  0  0  0  0  0  0  0  0  0  0  0
   36.7050   33.3830   40.4710 H   0  0  0  0  0  0  0  0  0  0  0  0
   37.5070   33.9940   39.0320 H   0  0  0  0  0  0  0  0  0  0  0  0
   38.5220   33.1160   40.1920 H   0  0  0  0  0  0  0  0  0  0  0  0
   36.2370   30.8170   40.9860 C   0  0  0  0  0  0  0  0  0  0  0  0
   35.3830   31.4040   41.2950 H   0  0  0  0  0  0  0  0  0  0  0  0
   36.8870   30.1320   41.8380 O   0  0  0  0  0  0  0  0  0  0  0  0
  1  2  1  0  0  0  0
  1  9  1  0  0  0  0
  2 13  1  0  0  0  0
  3  7  1  0  0  0  0
  3  2  2  0  0  0  0
  4  3  1  0  0  0  0
  5  4  2  0  0  0  0
  5  6  1  0  0  0  0
  6  1  2  0  0  0  0
  8  5  1  0  0  0  0
  9 12  1  0  0  0  0
  9 10  1  0  0  0  0
 11  9  1  0  0  0  0
 13 14  1  0  0  0  0
 13 15  2  0  0  0  0
M  END
>  <minimizedAffinity>
-2.90295959

$$$$
