
 OpenBabel03252505533D

 27 28  0  0  0  0  0  0  0  0999 V2000
   45.3290   31.3640   47.7890 C   0  0  0  0  0  0  0  0  0  0  0  0
   44.6550   31.2290   48.6510 H   0  0  0  0  0  0  0  0  0  0  0  0
   44.7720   31.0650   46.8930 H   0  0  0  0  0  0  0  0  0  0  0  0
   46.5550   30.5620   47.9090 C   0  0  0  0  0  0  0  0  0  0  0  0
   46.8950   29.3810   47.2890 C   0  0  0  0  0  0  0  0  0  0  0  0
   48.0930   28.8030   47.5480 C   0  0  0  0  0  0  0  0  0  0  0  0
   48.9570   29.3690   48.4050 N   0  0  0  0  0  0  0  0  0  0  0  0
   48.6350   30.5180   49.0130 C   0  0  0  0  0  0  0  0  0  0  0  0
   47.4390   31.1180   48.7710 N   0  0  0  0  0  0  0  0  0  0  0  0
   46.1110   29.0270   46.6190 H   0  0  0  0  0  0  0  0  0  0  0  0
   48.2900   27.8790   47.0240 H   0  0  0  0  0  0  0  0  0  0  0  0
   49.5900   31.1390   49.9580 C   0  0  0  0  0  0  0  0  0  0  0  0
   49.8680   32.1700   49.8240 H   0  0  0  0  0  0  0  0  0  0  0  0
   50.0110   30.3900   50.8640 O   0  0  0  0  0  0  0  0  0  0  0  0
   45.7160   32.7140   47.6840 O   0  0  0  0  0  0  0  0  0  0  0  0
   44.9150   34.9980   45.0720 C   0  0  0  0  0  0  0  0  0  0  0  0
   45.7990   34.6640   44.0480 C   0  0  0  0  0  0  0  0  0  0  0  0
   46.6880   33.6160   44.2900 C   0  0  0  0  0  0  0  0  0  0  0  0
   46.6470   32.9880   45.4860 N   0  0  0  0  0  0  0  0  0  0  0  0
   45.7760   33.3460   46.4460 C   0  0  0  0  0  0  0  0  0  0  0  0
   44.9130   34.3420   46.2470 N   0  0  0  0  0  0  0  0  0  0  0  0
   44.2010   35.8100   44.9330 H   0  0  0  0  0  0  0  0  0  0  0  0
   47.3530   33.3790   43.4910 H   0  0  0  0  0  0  0  0  0  0  0  0
   45.7320   35.4450   42.7740 C   0  0  0  0  0  0  0  0  0  0  0  0
   45.2960   36.6930   43.1350 F   0  0  0  0  0  0  0  0  0  0  0  0
   44.7790   34.8090   41.9800 F   0  0  0  0  0  0  0  0  0  0  0  0
   46.9670   35.4430   42.1960 F   0  0  0  0  0  0  0  0  0  0  0  0
  1  4  1  0  0  0  0
  1  2  1  0  0  0  0
  3  1  1  0  0  0  0
  4  9  1  0  0  0  0
  5  6  1  0  0  0  0
  5  4  2  0  0  0  0
  6  7  2  0  0  0  0
  7  8  1  0  0  0  0
  8 12  1  0  0  0  0
  9  8  2  0  0  0  0
 10  5  1  0  0  0  0
 11  6  1  0  0  0  0
 12 14  2  0  0  0  0
 13 12  1  0  0  0  0
 15  1  1  0  0  0  0
 16 21  1  0  0  0  0
 17 18  1  0  0  0  0
 17 16  2  0  0  0  0
 18 19  2  0  0  0  0
 19 20  1  0  0  0  0
 20 15  1  0  0  0  0
 21 20  2  0  0  0  0
 22 16  1  0  0  0  0
 23 18  1  0  0  0  0
 24 25  1  0  0  0  0
 24 17  1  0  0  0  0
 26 24  1  0  0  0  0
 27 24  1  0  0  0  0
M  END
>  <minimizedAffinity>
-5.00921392

>  <minimizedRMSD>
0.440570712

$$$$
