
 OpenBabel03252503143D

 28 30  0  0  0  0  0  0  0  0999 V2000
   39.3270   27.8240   43.3810 C   0  0  0  0  0  0  0  0  0  0  0  0
   38.3070   27.2050   42.6380 C   0  0  0  0  0  0  0  0  0  0  0  0
   38.6970   26.0990   41.9080 C   0  0  0  0  0  0  0  0  0  0  0  0
   39.9660   25.6430   41.9060 N   0  0  0  0  0  0  0  0  0  0  0  0
   40.9160   26.2800   42.6420 C   0  0  0  0  0  0  0  0  0  0  0  0
   40.5940   27.3590   43.3710 N   0  0  0  0  0  0  0  0  0  0  0  0
   39.0920   28.6970   43.9770 H   0  0  0  0  0  0  0  0  0  0  0  0
   41.9220   25.8810   42.6130 H   0  0  0  0  0  0  0  0  0  0  0  0
   37.7360   25.4270   41.1350 C   0  0  0  0  0  0  0  0  0  0  0  0
   36.8720   24.3930   41.3510 C   0  0  0  0  0  0  0  0  0  0  0  0
   36.0430   23.9350   40.4290 C   0  0  0  0  0  0  0  0  0  0  0  0
   36.0840   24.5530   39.2170 C   0  0  0  0  0  0  0  0  0  0  0  0
   37.3750   25.8420   39.4370 S   0  0  0  0  0  0  0  0  0  0  0  0
   36.9340   23.9750   42.3780 H   0  0  0  0  0  0  0  0  0  0  0  0
   35.3460   23.1170   40.5670 H   0  0  0  0  0  0  0  0  0  0  0  0
   35.4310   24.2910   38.2830 H   0  0  0  0  0  0  0  0  0  0  0  0
   36.9830   27.7280   42.6760 C   0  0  0  0  0  0  0  0  0  0  0  0
   36.2060   27.1850   43.5270 O   0  0  0  0  0  0  0  0  0  0  0  0
   36.5840   28.8400   41.7550 C   0  0  0  0  0  0  0  0  0  0  0  0
   35.4950   28.8450   40.9010 C   0  0  0  0  0  0  0  0  0  0  0  0
   35.5330   30.0370   40.2770 N   0  0  0  0  0  0  0  0  0  0  0  0
   36.6160   30.7340   40.7430 C   0  0  0  0  0  0  0  0  0  0  0  0
   37.2650   29.9930   41.6580 N   0  0  0  0  0  0  0  0  0  0  0  0
   34.8110   28.0010   40.8270 H   0  0  0  0  0  0  0  0  0  0  0  0
   34.8220   30.3310   39.5590 H   0  0  0  0  0  0  0  0  0  0  0  0
   36.9950   32.0710   40.3070 C   0  0  0  0  0  0  0  0  0  0  0  0
   37.2890   32.8230   41.0200 H   0  0  0  0  0  0  0  0  0  0  0  0
   36.9810   32.3650   39.0740 O   0  0  0  0  0  0  0  0  0  0  0  0
  1  7  1  0  0  0  0
  2 17  1  0  0  0  0
  2  1  2  0  0  0  0
  3  2  1  0  0  0  0
  4  3  2  0  0  0  0
  4  5  1  0  0  0  0
  5  6  2  0  0  0  0
  6  1  1  0  0  0  0
  8  5  1  0  0  0  0
  9 10  2  0  0  0  0
  9  3  1  0  0  0  0
 10 14  1  0  0  0  0
 11 15  1  0  0  0  0
 11 10  1  0  0  0  0
 12 13  1  0  0  0  0
 12 11  2  0  0  0  0
 13  9  1  0  0  0  0
 16 12  1  0  0  0  0
 17 18  2  0  0  0  0
 19 17  1  0  0  0  0
 20 19  2  0  0  0  0
 21 22  1  0  0  0  0
 21 20  1  0  0  0  0
 22 23  2  0  0  0  0
 23 19  1  0  0  0  0
 24 20  1  0  0  0  0
 25 21  1  0  0  0  0
 26 22  1  0  0  0  0
 26 27  1  0  0  0  0
 28 26  2  0  0  0  0
M  END
>  <minimizedAffinity>
-4.95259476

$$$$

 OpenBabel03252503143D

 28 30  0  0  0  0  0  0  0  0999 V2000
   35.6720   29.5560   38.2560 C   0  0  0  0  0  0  0  0  0  0  0  0
   36.2720   29.4870   39.5250 C   0  0  0  0  0  0  0  0  0  0  0  0
   36.5240   28.2100   39.9890 C   0  0  0  0  0  0  0  0  0  0  0  0
   36.2190   27.1070   39.2760 N   0  0  0  0  0  0  0  0  0  0  0  0
   35.6380   27.2300   38.0520 C   0  0  0  0  0  0  0  0  0  0  0  0
   35.3700   28.4460   37.5520 N   0  0  0  0  0  0  0  0  0  0  0  0
   35.4460   30.5260   37.8310 H   0  0  0  0  0  0  0  0  0  0  0  0
   35.4090   26.3200   37.5130 H   0  0  0  0  0  0  0  0  0  0  0  0
   37.1180   28.0550   41.2510 C   0  0  0  0  0  0  0  0  0  0  0  0
   36.6600   27.8150   42.5140 C   0  0  0  0  0  0  0  0  0  0  0  0
   37.4520   27.7090   43.5670 C   0  0  0  0  0  0  0  0  0  0  0  0
   38.7860   27.8520   43.3380 C   0  0  0  0  0  0  0  0  0  0  0  0
   38.8800   28.1500   41.5270 S   0  0  0  0  0  0  0  0  0  0  0  0
   35.5540   27.7190   42.5690 H   0  0  0  0  0  0  0  0  0  0  0  0
   37.1200   27.5210   44.5810 H   0  0  0  0  0  0  0  0  0  0  0  0
   39.6370   27.7910   44.1380 H   0  0  0  0  0  0  0  0  0  0  0  0
   36.5750   30.6840   40.2350 C   0  0  0  0  0  0  0  0  0  0  0  0
   35.8880   30.8820   41.2890 O   0  0  0  0  0  0  0  0  0  0  0  0
   37.6380   31.6120   39.7310 C   0  0  0  0  0  0  0  0  0  0  0  0
   37.5710   32.9930   39.7010 C   0  0  0  0  0  0  0  0  0  0  0  0
   38.7410   33.3980   39.1710 N   0  0  0  0  0  0  0  0  0  0  0  0
   39.4940   32.2890   38.8900 C   0  0  0  0  0  0  0  0  0  0  0  0
   38.8110   31.1850   39.2360 N   0  0  0  0  0  0  0  0  0  0  0  0
   36.7000   33.5410   40.0580 H   0  0  0  0  0  0  0  0  0  0  0  0
   38.9820   34.4110   39.0220 H   0  0  0  0  0  0  0  0  0  0  0  0
   40.8270   32.3160   38.3050 C   0  0  0  0  0  0  0  0  0  0  0  0
   41.7020   32.4180   38.9260 H   0  0  0  0  0  0  0  0  0  0  0  0
   40.9730   32.2220   37.0490 O   0  0  0  0  0  0  0  0  0  0  0  0
  1  2  1  0  0  0  0
  2  3  2  0  0  0  0
  2 17  1  0  0  0  0
  3  9  1  0  0  0  0
  4  3  1  0  0  0  0
  5  4  2  0  0  0  0
  6  5  1  0  0  0  0
  6  1  2  0  0  0  0
  7  1  1  0  0  0  0
  8  5  1  0  0  0  0
  9 13  1  0  0  0  0
  9 10  2  0  0  0  0
 10 14  1  0  0  0  0
 10 11  1  0  0  0  0
 11 15  1  0  0  0  0
 12 11  2  0  0  0  0
 12 16  1  0  0  0  0
 13 12  1  0  0  0  0
 17 18  2  0  0  0  0
 19 17  1  0  0  0  0
 20 19  2  0  0  0  0
 20 24  1  0  0  0  0
 21 20  1  0  0  0  0
 22 21  1  0  0  0  0
 22 23  2  0  0  0  0
 23 19  1  0  0  0  0
 25 21  1  0  0  0  0
 26 22  1  0  0  0  0
 26 27  1  0  0  0  0
 28 26  2  0  0  0  0
M  END
>  <minimizedAffinity>
-4.77390909

$$$$

 OpenBabel03252503143D

 28 30  0  0  0  0  0  0  0  0999 V2000
   35.4630   27.2540   38.0390 C   0  0  0  0  0  0  0  0  0  0  0  0
   35.8600   27.8530   39.2470 C   0  0  0  0  0  0  0  0  0  0  0  0
   36.6750   27.0760   40.0490 C   0  0  0  0  0  0  0  0  0  0  0  0
   37.0620   25.8330   39.7000 N   0  0  0  0  0  0  0  0  0  0  0  0
   36.6480   25.3000   38.5190 C   0  0  0  0  0  0  0  0  0  0  0  0
   35.8560   26.0090   37.7010 N   0  0  0  0  0  0  0  0  0  0  0  0
   34.8230   27.8070   37.3610 H   0  0  0  0  0  0  0  0  0  0  0  0
   36.9820   24.3000   38.2770 H   0  0  0  0  0  0  0  0  0  0  0  0
   37.1120   27.6010   41.2760 C   0  0  0  0  0  0  0  0  0  0  0  0
   36.6310   27.6060   42.5530 C   0  0  0  0  0  0  0  0  0  0  0  0
   37.2560   28.1880   43.5620 C   0  0  0  0  0  0  0  0  0  0  0  0
   38.4340   28.8030   43.2710 C   0  0  0  0  0  0  0  0  0  0  0  0
   38.6320   28.5180   41.4670 S   0  0  0  0  0  0  0  0  0  0  0  0
   35.6630   27.0720   42.6600 H   0  0  0  0  0  0  0  0  0  0  0  0
   36.9010   28.2110   44.5860 H   0  0  0  0  0  0  0  0  0  0  0  0
   39.1260   29.3680   44.0270 H   0  0  0  0  0  0  0  0  0  0  0  0
   35.4230   29.1700   39.5670 C   0  0  0  0  0  0  0  0  0  0  0  0
   34.2880   29.2440   40.1390 O   0  0  0  0  0  0  0  0  0  0  0  0
   36.2800   30.3520   39.2290 C   0  0  0  0  0  0  0  0  0  0  0  0
   36.9300   30.5750   38.0280 C   0  0  0  0  0  0  0  0  0  0  0  0
   37.5720   31.7490   38.1800 N   0  0  0  0  0  0  0  0  0  0  0  0
   37.3140   32.2220   39.4390 C   0  0  0  0  0  0  0  0  0  0  0  0
   36.5150   31.3570   40.0870 N   0  0  0  0  0  0  0  0  0  0  0  0
   36.8690   29.8750   37.1960 H   0  0  0  0  0  0  0  0  0  0  0  0
   38.1590   32.1820   37.4230 H   0  0  0  0  0  0  0  0  0  0  0  0
   37.8330   33.4700   39.9800 C   0  0  0  0  0  0  0  0  0  0  0  0
   37.4650   34.4210   39.6300 H   0  0  0  0  0  0  0  0  0  0  0  0
   38.7320   33.4520   40.8740 O   0  0  0  0  0  0  0  0  0  0  0  0
  1  2  1  0  0  0  0
  2 17  1  0  0  0  0
  2  3  2  0  0  0  0
  3  9  1  0  0  0  0
  4  3  1  0  0  0  0
  5  4  2  0  0  0  0
  6  1  2  0  0  0  0
  6  5  1  0  0  0  0
  7  1  1  0  0  0  0
  8  5  1  0  0  0  0
  9 13  1  0  0  0  0
  9 10  2  0  0  0  0
 10 14  1  0  0  0  0
 10 11  1  0  0  0  0
 11 15  1  0  0  0  0
 12 11  2  0  0  0  0
 12 16  1  0  0  0  0
 13 12  1  0  0  0  0
 17 18  2  0  0  0  0
 19 17  1  0  0  0  0
 19 23  1  0  0  0  0
 20 21  1  0  0  0  0
 20 19  2  0  0  0  0
 21 22  1  0  0  0  0
 22 26  1  0  0  0  0
 22 23  2  0  0  0  0
 24 20  1  0  0  0  0
 25 21  1  0  0  0  0
 26 28  2  0  0  0  0
 27 26  1  0  0  0  0
M  END
>  <minimizedAffinity>
-4.71320677

$$$$

 OpenBabel03252503143D

 28 30  0  0  0  0  0  0  0  0999 V2000
   39.1270   30.1900   41.9790 C   0  0  0  0  0  0  0  0  0  0  0  0
   38.1580   30.1640   40.9620 C   0  0  0  0  0  0  0  0  0  0  0  0
   37.5350   28.9450   40.7720 C   0  0  0  0  0  0  0  0  0  0  0  0
   37.8330   27.8570   41.5100 N   0  0  0  0  0  0  0  0  0  0  0  0
   38.7810   27.9370   42.4840 C   0  0  0  0  0  0  0  0  0  0  0  0
   39.4180   29.0950   42.7110 N   0  0  0  0  0  0  0  0  0  0  0  0
   39.6560   31.1140   42.1830 H   0  0  0  0  0  0  0  0  0  0  0  0
   38.9890   27.0400   43.0520 H   0  0  0  0  0  0  0  0  0  0  0  0
   36.5570   28.8360   39.7710 C   0  0  0  0  0  0  0  0  0  0  0  0
   35.2160   29.0770   39.6970 C   0  0  0  0  0  0  0  0  0  0  0  0
   34.5030   28.8880   38.6000 C   0  0  0  0  0  0  0  0  0  0  0  0
   35.1780   28.4280   37.5110 C   0  0  0  0  0  0  0  0  0  0  0  0
   36.9060   28.2700   38.1140 S   0  0  0  0  0  0  0  0  0  0  0  0
   34.7830   29.4490   40.6510 H   0  0  0  0  0  0  0  0  0  0  0  0
   33.4390   29.0690   38.5090 H   0  0  0  0  0  0  0  0  0  0  0  0
   34.7210   28.2020   36.4580 H   0  0  0  0  0  0  0  0  0  0  0  0
   37.8820   31.3430   40.2130 C   0  0  0  0  0  0  0  0  0  0  0  0
   36.9370   32.0670   40.6640 O   0  0  0  0  0  0  0  0  0  0  0  0
   38.6780   31.6610   38.9840 C   0  0  0  0  0  0  0  0  0  0  0  0
   38.1840   31.7890   37.6980 C   0  0  0  0  0  0  0  0  0  0  0  0
   39.2520   32.0750   36.9290 N   0  0  0  0  0  0  0  0  0  0  0  0
   40.3610   32.1180   37.7310 C   0  0  0  0  0  0  0  0  0  0  0  0
   40.0050   31.8630   39.0020 N   0  0  0  0  0  0  0  0  0  0  0  0
   37.1270   31.6620   37.4670 H   0  0  0  0  0  0  0  0  0  0  0  0
   39.1840   32.2280   35.8910 H   0  0  0  0  0  0  0  0  0  0  0  0
   41.7120   32.4000   37.2650 C   0  0  0  0  0  0  0  0  0  0  0  0
   42.3810   31.6000   36.9920 H   0  0  0  0  0  0  0  0  0  0  0  0
   42.1180   33.5980   37.1770 O   0  0  0  0  0  0  0  0  0  0  0  0
  1  7  1  0  0  0  0
  1  6  1  0  0  0  0
  2  1  2  0  0  0  0
  3  2  1  0  0  0  0
  3  4  2  0  0  0  0
  4  5  1  0  0  0  0
  5  6  2  0  0  0  0
  5  8  1  0  0  0  0
  9  3  1  0  0  0  0
 10  9  2  0  0  0  0
 10 14  1  0  0  0  0
 11 10  1  0  0  0  0
 12 13  1  0  0  0  0
 12 11  2  0  0  0  0
 13  9  1  0  0  0  0
 15 11  1  0  0  0  0
 16 12  1  0  0  0  0
 17 18  2  0  0  0  0
 17  2  1  0  0  0  0
 19 23  1  0  0  0  0
 19 17  1  0  0  0  0
 20 19  2  0  0  0  0
 21 20  1  0  0  0  0
 21 22  1  0  0  0  0
 22 23  2  0  0  0  0
 24 20  1  0  0  0  0
 25 21  1  0  0  0  0
 26 22  1  0  0  0  0
 27 26  1  0  0  0  0
 28 26  2  0  0  0  0
M  END
>  <minimizedAffinity>
-4.64880228

$$$$

 OpenBabel03252503143D

 28 30  0  0  0  0  0  0  0  0999 V2000
   36.6790   27.1300   41.0980 C   0  0  0  0  0  0  0  0  0  0  0  0
   37.7990   27.8100   41.6080 C   0  0  0  0  0  0  0  0  0  0  0  0
   39.0160   27.2010   41.3700 C   0  0  0  0  0  0  0  0  0  0  0  0
   39.1260   26.0390   40.6950 N   0  0  0  0  0  0  0  0  0  0  0  0
   38.0090   25.4210   40.2230 C   0  0  0  0  0  0  0  0  0  0  0  0
   36.8010   25.9670   40.4250 N   0  0  0  0  0  0  0  0  0  0  0  0
   35.6920   27.5500   41.2480 H   0  0  0  0  0  0  0  0  0  0  0  0
   38.1420   24.4900   39.6870 H   0  0  0  0  0  0  0  0  0  0  0  0
   40.1830   27.8160   41.8510 C   0  0  0  0  0  0  0  0  0  0  0  0
   40.8820   27.7820   43.0230 C   0  0  0  0  0  0  0  0  0  0  0  0
   41.9880   28.4760   43.2300 C   0  0  0  0  0  0  0  0  0  0  0  0
   42.4190   29.2510   42.1970 C   0  0  0  0  0  0  0  0  0  0  0  0
   41.1660   28.9520   40.8860 S   0  0  0  0  0  0  0  0  0  0  0  0
   40.4290   27.1140   43.7860 H   0  0  0  0  0  0  0  0  0  0  0  0
   42.5640   28.4720   44.1470 H   0  0  0  0  0  0  0  0  0  0  0  0
   43.3700   29.9310   42.1910 H   0  0  0  0  0  0  0  0  0  0  0  0
   37.6270   29.0350   42.3120 C   0  0  0  0  0  0  0  0  0  0  0  0
   37.6750   28.9470   43.5810 O   0  0  0  0  0  0  0  0  0  0  0  0
   37.4050   30.3130   41.5610 C   0  0  0  0  0  0  0  0  0  0  0  0
   36.2000   30.7680   41.0580 C   0  0  0  0  0  0  0  0  0  0  0  0
   36.4790   31.9440   40.4650 N   0  0  0  0  0  0  0  0  0  0  0  0
   37.8180   32.1920   40.6080 C   0  0  0  0  0  0  0  0  0  0  0  0
   38.3900   31.1820   41.2860 N   0  0  0  0  0  0  0  0  0  0  0  0
   35.2730   30.2070   41.1730 H   0  0  0  0  0  0  0  0  0  0  0  0
   35.7490   32.5320   39.9870 H   0  0  0  0  0  0  0  0  0  0  0  0
   38.5030   33.3720   40.0990 C   0  0  0  0  0  0  0  0  0  0  0  0
   38.5220   33.5890   39.0430 H   0  0  0  0  0  0  0  0  0  0  0  0
   39.0910   34.1610   40.8990 O   0  0  0  0  0  0  0  0  0  0  0  0
  1  7  1  0  0  0  0
  1  2  1  0  0  0  0
  2 17  1  0  0  0  0
  3  2  2  0  0  0  0
  3  9  1  0  0  0  0
  4  3  1  0  0  0  0
  5  6  1  0  0  0  0
  5  4  2  0  0  0  0
  6  1  2  0  0  0  0
  8  5  1  0  0  0  0
  9 10  2  0  0  0  0
 10 11  1  0  0  0  0
 10 14  1  0  0  0  0
 11 15  1  0  0  0  0
 12 11  2  0  0  0  0
 13  9  1  0  0  0  0
 13 12  1  0  0  0  0
 16 12  1  0  0  0  0
 17 18  2  0  0  0  0
 19 17  1  0  0  0  0
 20 24  1  0  0  0  0
 20 19  2  0  0  0  0
 21 22  1  0  0  0  0
 21 20  1  0  0  0  0
 22 23  2  0  0  0  0
 23 19  1  0  0  0  0
 25 21  1  0  0  0  0
 26 22  1  0  0  0  0
 26 28  2  0  0  0  0
 27 26  1  0  0  0  0
M  END
>  <minimizedAffinity>
-4.58594561

$$$$

 OpenBabel03252503143D

 28 30  0  0  0  0  0  0  0  0999 V2000
   35.9940   29.0990   41.1680 C   0  0  0  0  0  0  0  0  0  0  0  0
   36.5970   27.8520   41.4080 C   0  0  0  0  0  0  0  0  0  0  0  0
   36.6090   26.9870   40.3300 C   0  0  0  0  0  0  0  0  0  0  0  0
   36.0810   27.3130   39.1330 N   0  0  0  0  0  0  0  0  0  0  0  0
   35.5080   28.5340   38.9550 C   0  0  0  0  0  0  0  0  0  0  0  0
   35.4690   29.4150   39.9660 N   0  0  0  0  0  0  0  0  0  0  0  0
   35.9500   29.8280   41.9690 H   0  0  0  0  0  0  0  0  0  0  0  0
   35.0960   28.7550   37.9790 H   0  0  0  0  0  0  0  0  0  0  0  0
   37.1900   25.7190   40.4900 C   0  0  0  0  0  0  0  0  0  0  0  0
   36.8240   24.5570   41.1050 C   0  0  0  0  0  0  0  0  0  0  0  0
   37.5750   23.4690   41.1090 C   0  0  0  0  0  0  0  0  0  0  0  0
   38.7650   23.5520   40.4530 C   0  0  0  0  0  0  0  0  0  0  0  0
   38.7820   25.2750   39.8150 S   0  0  0  0  0  0  0  0  0  0  0  0
   35.8330   24.6170   41.6040 H   0  0  0  0  0  0  0  0  0  0  0  0
   37.3140   22.5330   41.5880 H   0  0  0  0  0  0  0  0  0  0  0  0
   39.5580   22.7000   40.3480 H   0  0  0  0  0  0  0  0  0  0  0  0
   37.1410   27.5600   42.6910 C   0  0  0  0  0  0  0  0  0  0  0  0
   36.2860   27.3230   43.6040 O   0  0  0  0  0  0  0  0  0  0  0  0
   38.6250   27.5460   42.8960 C   0  0  0  0  0  0  0  0  0  0  0  0
   39.4790   28.6280   42.7710 C   0  0  0  0  0  0  0  0  0  0  0  0
   40.7070   28.1500   43.0450 N   0  0  0  0  0  0  0  0  0  0  0  0
   40.5970   26.8140   43.3280 C   0  0  0  0  0  0  0  0  0  0  0  0
   39.3090   26.4420   43.2360 N   0  0  0  0  0  0  0  0  0  0  0  0
   39.1230   29.6210   42.5000 H   0  0  0  0  0  0  0  0  0  0  0  0
   41.5720   28.7490   43.0280 H   0  0  0  0  0  0  0  0  0  0  0  0
   41.7120   25.9430   43.6730 C   0  0  0  0  0  0  0  0  0  0  0  0
   42.1170   25.9320   44.6720 H   0  0  0  0  0  0  0  0  0  0  0  0
   42.2230   25.1850   42.7960 O   0  0  0  0  0  0  0  0  0  0  0  0
  1  2  1  0  0  0  0
  1  7  1  0  0  0  0
  2 17  1  0  0  0  0
  3  9  1  0  0  0  0
  3  2  2  0  0  0  0
  4  3  1  0  0  0  0
  5  4  2  0  0  0  0
  5  6  1  0  0  0  0
  6  1  2  0  0  0  0
  8  5  1  0  0  0  0
  9 10  2  0  0  0  0
 10 11  1  0  0  0  0
 10 14  1  0  0  0  0
 11 15  1  0  0  0  0
 12 11  2  0  0  0  0
 13 12  1  0  0  0  0
 13  9  1  0  0  0  0
 16 12  1  0  0  0  0
 17 19  1  0  0  0  0
 17 18  2  0  0  0  0
 19 23  1  0  0  0  0
 20 19  2  0  0  0  0
 20 21  1  0  0  0  0
 21 22  1  0  0  0  0
 22 26  1  0  0  0  0
 23 22  2  0  0  0  0
 24 20  1  0  0  0  0
 25 21  1  0  0  0  0
 26 27  1  0  0  0  0
 28 26  2  0  0  0  0
M  END
>  <minimizedAffinity>
-4.5822463

$$$$

 OpenBabel03252503143D

 28 30  0  0  0  0  0  0  0  0999 V2000
   39.4790   27.6430   43.1130 C   0  0  0  0  0  0  0  0  0  0  0  0
   38.2830   27.6450   42.3750 C   0  0  0  0  0  0  0  0  0  0  0  0
   38.1640   28.6640   41.4490 C   0  0  0  0  0  0  0  0  0  0  0  0
   39.1260   29.5910   41.2640 N   0  0  0  0  0  0  0  0  0  0  0  0
   40.2650   29.5430   42.0060 C   0  0  0  0  0  0  0  0  0  0  0  0
   40.4340   28.5760   42.9200 N   0  0  0  0  0  0  0  0  0  0  0  0
   39.6400   26.8720   43.8570 H   0  0  0  0  0  0  0  0  0  0  0  0
   41.0110   30.3060   41.8260 H   0  0  0  0  0  0  0  0  0  0  0  0
   36.9960   28.7390   40.6740 C   0  0  0  0  0  0  0  0  0  0  0  0
   35.7590   29.2920   40.8370 C   0  0  0  0  0  0  0  0  0  0  0  0
   34.8040   29.2200   39.9260 C   0  0  0  0  0  0  0  0  0  0  0  0
   35.1100   28.5530   38.7800 C   0  0  0  0  0  0  0  0  0  0  0  0
   36.8470   28.0160   39.0480 S   0  0  0  0  0  0  0  0  0  0  0  0
   35.6350   29.8080   41.8130 H   0  0  0  0  0  0  0  0  0  0  0  0
   33.8140   29.6470   40.0260 H   0  0  0  0  0  0  0  0  0  0  0  0
   34.4010   28.3860   37.8650 H   0  0  0  0  0  0  0  0  0  0  0  0
   37.3000   26.6420   42.6100 C   0  0  0  0  0  0  0  0  0  0  0  0
   36.3520   26.9780   43.3900 O   0  0  0  0  0  0  0  0  0  0  0  0
   37.4240   25.2980   41.9580 C   0  0  0  0  0  0  0  0  0  0  0  0
   38.3290   24.3070   42.2920 C   0  0  0  0  0  0  0  0  0  0  0  0
   38.0740   23.2890   41.4480 N   0  0  0  0  0  0  0  0  0  0  0  0
   37.0410   23.6560   40.6280 C   0  0  0  0  0  0  0  0  0  0  0  0
   36.6390   24.9000   40.9440 N   0  0  0  0  0  0  0  0  0  0  0  0
   39.0580   24.4310   43.0910 H   0  0  0  0  0  0  0  0  0  0  0  0
   38.6120   22.3840   41.4630 H   0  0  0  0  0  0  0  0  0  0  0  0
   36.4750   22.8200   39.5780 C   0  0  0  0  0  0  0  0  0  0  0  0
   35.5280   23.0640   39.1270 H   0  0  0  0  0  0  0  0  0  0  0  0
   37.0960   21.7870   39.1830 O   0  0  0  0  0  0  0  0  0  0  0  0
  1  7  1  0  0  0  0
  2 17  1  0  0  0  0
  2  1  2  0  0  0  0
  3  2  1  0  0  0  0
  4  3  2  0  0  0  0
  4  5  1  0  0  0  0
  5  6  2  0  0  0  0
  6  1  1  0  0  0  0
  8  5  1  0  0  0  0
  9 10  2  0  0  0  0
  9  3  1  0  0  0  0
 10 14  1  0  0  0  0
 11 15  1  0  0  0  0
 11 10  1  0  0  0  0
 12 13  1  0  0  0  0
 12 11  2  0  0  0  0
 13  9  1  0  0  0  0
 16 12  1  0  0  0  0
 17 18  2  0  0  0  0
 19 20  2  0  0  0  0
 19 17  1  0  0  0  0
 20 24  1  0  0  0  0
 21 25  1  0  0  0  0
 21 20  1  0  0  0  0
 22 23  2  0  0  0  0
 22 21  1  0  0  0  0
 23 19  1  0  0  0  0
 26 22  1  0  0  0  0
 27 26  1  0  0  0  0
 28 26  2  0  0  0  0
M  END
>  <minimizedAffinity>
-4.58102369

$$$$

 OpenBabel03252503143D

 28 30  0  0  0  0  0  0  0  0999 V2000
   37.2960   33.1800   39.5790 C   0  0  0  0  0  0  0  0  0  0  0  0
   37.4510   31.8570   40.0270 C   0  0  0  0  0  0  0  0  0  0  0  0
   38.5250   31.6420   40.8700 C   0  0  0  0  0  0  0  0  0  0  0  0
   39.3660   32.6300   41.2380 N   0  0  0  0  0  0  0  0  0  0  0  0
   39.1710   33.8940   40.7750 C   0  0  0  0  0  0  0  0  0  0  0  0
   38.1440   34.1600   39.9540 N   0  0  0  0  0  0  0  0  0  0  0  0
   36.4750   33.4200   38.9150 H   0  0  0  0  0  0  0  0  0  0  0  0
   39.8690   34.6570   41.0950 H   0  0  0  0  0  0  0  0  0  0  0  0
   38.7510   30.3450   41.3580 C   0  0  0  0  0  0  0  0  0  0  0  0
   38.4140   29.6660   42.4930 C   0  0  0  0  0  0  0  0  0  0  0  0
   38.7600   28.4100   42.7180 C   0  0  0  0  0  0  0  0  0  0  0  0
   39.4880   27.7990   41.7440 C   0  0  0  0  0  0  0  0  0  0  0  0
   39.6700   29.1040   40.4630 S   0  0  0  0  0  0  0  0  0  0  0  0
   37.8210   30.2740   43.2090 H   0  0  0  0  0  0  0  0  0  0  0  0
   38.5100   27.8440   43.6070 H   0  0  0  0  0  0  0  0  0  0  0  0
   39.8830   26.6980   41.7620 H   0  0  0  0  0  0  0  0  0  0  0  0
   36.5330   30.8520   39.6090 C   0  0  0  0  0  0  0  0  0  0  0  0
   35.6580   30.5180   40.4710 O   0  0  0  0  0  0  0  0  0  0  0  0
   36.6370   30.2610   38.2350 C   0  0  0  0  0  0  0  0  0  0  0  0
   37.6870   30.4250   37.3500 C   0  0  0  0  0  0  0  0  0  0  0  0
   37.3480   29.7200   36.2540 N   0  0  0  0  0  0  0  0  0  0  0  0
   36.1240   29.1460   36.4730 C   0  0  0  0  0  0  0  0  0  0  0  0
   35.6850   29.4810   37.6980 N   0  0  0  0  0  0  0  0  0  0  0  0
   38.5630   31.0250   37.5940 H   0  0  0  0  0  0  0  0  0  0  0  0
   37.9600   29.6580   35.4010 H   0  0  0  0  0  0  0  0  0  0  0  0
   35.4180   28.3050   35.5160 C   0  0  0  0  0  0  0  0  0  0  0  0
   35.5700   28.4250   34.4560 H   0  0  0  0  0  0  0  0  0  0  0  0
   34.6100   27.4170   35.9240 O   0  0  0  0  0  0  0  0  0  0  0  0
  1  6  2  0  0  0  0
  1  2  1  0  0  0  0
  2  3  2  0  0  0  0
  3  4  1  0  0  0  0
  3  9  1  0  0  0  0
  5  8  1  0  0  0  0
  5  4  2  0  0  0  0
  6  5  1  0  0  0  0
  7  1  1  0  0  0  0
  9 10  2  0  0  0  0
 10 11  1  0  0  0  0
 10 14  1  0  0  0  0
 11 15  1  0  0  0  0
 12 16  1  0  0  0  0
 12 11  2  0  0  0  0
 13  9  1  0  0  0  0
 13 12  1  0  0  0  0
 17  2  1  0  0  0  0
 17 18  2  0  0  0  0
 19 17  1  0  0  0  0
 20 24  1  0  0  0  0
 20 19  2  0  0  0  0
 21 22  1  0  0  0  0
 21 20  1  0  0  0  0
 22 23  2  0  0  0  0
 23 19  1  0  0  0  0
 25 21  1  0  0  0  0
 26 28  2  0  0  0  0
 26 22  1  0  0  0  0
 27 26  1  0  0  0  0
M  END
>  <minimizedAffinity>
-4.51881361

$$$$

 OpenBabel03252503143D

 28 30  0  0  0  0  0  0  0  0999 V2000
   36.9400   24.9470   41.0150 C   0  0  0  0  0  0  0  0  0  0  0  0
   37.0410   26.3180   41.3090 C   0  0  0  0  0  0  0  0  0  0  0  0
   36.7260   27.1700   40.2680 C   0  0  0  0  0  0  0  0  0  0  0  0
   36.3470   26.7210   39.0540 N   0  0  0  0  0  0  0  0  0  0  0  0
   36.2660   25.3820   38.8210 C   0  0  0  0  0  0  0  0  0  0  0  0
   36.5600   24.5100   39.7960 N   0  0  0  0  0  0  0  0  0  0  0  0
   37.1720   24.2220   41.7850 H   0  0  0  0  0  0  0  0  0  0  0  0
   35.9580   25.0650   37.8340 H   0  0  0  0  0  0  0  0  0  0  0  0
   36.8070   28.5550   40.4810 C   0  0  0  0  0  0  0  0  0  0  0  0
   35.9440   29.5200   40.9150 C   0  0  0  0  0  0  0  0  0  0  0  0
   36.2770   30.7940   41.0310 C   0  0  0  0  0  0  0  0  0  0  0  0
   37.5540   31.1190   40.6910 C   0  0  0  0  0  0  0  0  0  0  0  0
   38.2860   29.5100   40.1880 S   0  0  0  0  0  0  0  0  0  0  0  0
   34.9340   29.1280   41.1600 H   0  0  0  0  0  0  0  0  0  0  0  0
   35.6170   31.5820   41.3710 H   0  0  0  0  0  0  0  0  0  0  0  0
   38.0310   32.1860   40.7280 H   0  0  0  0  0  0  0  0  0  0  0  0
   37.4450   26.7380   42.6080 C   0  0  0  0  0  0  0  0  0  0  0  0
   36.5060   27.1330   43.3710 O   0  0  0  0  0  0  0  0  0  0  0  0
   38.8920   26.6990   42.9980 C   0  0  0  0  0  0  0  0  0  0  0  0
   39.6080   25.5760   43.3740 C   0  0  0  0  0  0  0  0  0  0  0  0
   40.8540   26.0150   43.6320 N   0  0  0  0  0  0  0  0  0  0  0  0
   40.8890   27.3670   43.4180 C   0  0  0  0  0  0  0  0  0  0  0  0
   39.6750   27.7890   43.0260 N   0  0  0  0  0  0  0  0  0  0  0  0
   39.1560   24.5860   43.4180 H   0  0  0  0  0  0  0  0  0  0  0  0
   41.6320   25.3790   43.9450 H   0  0  0  0  0  0  0  0  0  0  0  0
   42.0660   28.2060   43.5920 C   0  0  0  0  0  0  0  0  0  0  0  0
   42.9410   27.8340   44.1000 H   0  0  0  0  0  0  0  0  0  0  0  0
   42.0730   29.3930   43.1470 O   0  0  0  0  0  0  0  0  0  0  0  0
  1  2  1  0  0  0  0
  1  7  1  0  0  0  0
  2 17  1  0  0  0  0
  3  9  1  0  0  0  0
  3  2  2  0  0  0  0
  4  3  1  0  0  0  0
  5  4  2  0  0  0  0
  5  6  1  0  0  0  0
  6  1  2  0  0  0  0
  8  5  1  0  0  0  0
  9 10  2  0  0  0  0
 10 11  1  0  0  0  0
 10 14  1  0  0  0  0
 11 15  1  0  0  0  0
 12 16  1  0  0  0  0
 12 11  2  0  0  0  0
 13  9  1  0  0  0  0
 13 12  1  0  0  0  0
 17 19  1  0  0  0  0
 17 18  2  0  0  0  0
 19 23  1  0  0  0  0
 19 20  2  0  0  0  0
 20 24  1  0  0  0  0
 20 21  1  0  0  0  0
 21 25  1  0  0  0  0
 22 26  1  0  0  0  0
 22 21  1  0  0  0  0
 23 22  2  0  0  0  0
 26 27  1  0  0  0  0
 28 26  2  0  0  0  0
M  END
>  <minimizedAffinity>
-4.48218203

$$$$
