
 OpenBabel03252508363D

 25 26  0  0  0  0  0  0  0  0999 V2000
   37.5680   28.1510   40.9790 C   0  0  0  0  0  0  0  0  0  0  0  0
   37.7770   29.1830   41.8750 C   0  0  0  0  0  0  0  0  0  0  0  0
   37.5180   28.9380   43.2030 C   0  0  0  0  0  0  0  0  0  0  0  0
   37.0640   27.7200   43.6690 C   0  0  0  0  0  0  0  0  0  0  0  0
   36.8670   26.7110   42.7480 C   0  0  0  0  0  0  0  0  0  0  0  0
   37.1170   26.9260   41.4140 C   0  0  0  0  0  0  0  0  0  0  0  0
   37.6860   29.7640   43.9040 H   0  0  0  0  0  0  0  0  0  0  0  0
   36.8810   27.5870   44.7080 H   0  0  0  0  0  0  0  0  0  0  0  0
   36.5100   25.7560   43.1290 H   0  0  0  0  0  0  0  0  0  0  0  0
   37.8560   32.6130   40.3140 C   0  0  0  0  0  0  0  0  0  0  0  0
   37.3570   31.4070   40.8280 C   0  0  0  0  0  0  0  0  0  0  0  0
   38.2540   30.4460   41.3330 C   0  0  0  0  0  0  0  0  0  0  0  0
   39.5550   30.7820   41.2760 N   0  0  0  0  0  0  0  0  0  0  0  0
   40.0170   31.9310   40.7850 C   0  0  0  0  0  0  0  0  0  0  0  0
   39.1700   32.8500   40.3030 N   0  0  0  0  0  0  0  0  0  0  0  0
   36.9040   33.5480   39.8170 N   0  0  0  0  0  0  0  0  0  0  0  0
   36.3000   31.2150   40.8370 H   0  0  0  0  0  0  0  0  0  0  0  0
   41.0820   32.1110   40.7820 H   0  0  0  0  0  0  0  0  0  0  0  0
   36.5620   33.7790   38.8580 H   0  0  0  0  0  0  0  0  0  0  0  0
   36.6080   33.9810   40.7410 H   0  0  0  0  0  0  0  0  0  0  0  0
   36.9070   25.8550   40.4470 C   0  0  0  0  0  0  0  0  0  0  0  0
   36.7990   26.0550   39.3960 H   0  0  0  0  0  0  0  0  0  0  0  0
   36.8470   24.6560   40.8590 O   0  0  0  0  0  0  0  0  0  0  0  0
   38.0440   28.4930   38.4360 N   0  0  0  0  0  0  0  0  0  0  0  0
   37.8180   28.3380   39.5840 C   0  0  0  0  0  0  0  0  0  0  0  0
  1  6  2  0  0  0  0
  1  2  1  0  0  0  0
  2  3  2  0  0  0  0
  3  4  1  0  0  0  0
  3  7  1  0  0  0  0
  4  8  1  0  0  0  0
  5  9  1  0  0  0  0
  5  4  2  0  0  0  0
  6  5  1  0  0  0  0
 10 11  1  0  0  0  0
 11 17  1  0  0  0  0
 11 12  2  0  0  0  0
 12  2  1  0  0  0  0
 13 12  1  0  0  0  0
 14 13  2  0  0  0  0
 15 10  2  0  0  0  0
 15 14  1  0  0  0  0
 16 10  1  0  0  0  0
 16 20  1  0  0  0  0
 18 14  1  0  0  0  0
 19 16  1  0  0  0  0
 21 23  2  0  0  0  0
 21  6  1  0  0  0  0
 22 21  1  0  0  0  0
 24 25  3  0  0  0  0
 25  1  1  0  0  0  0
M  END
>  <minimizedAffinity>
-4.91588736

$$$$

 OpenBabel03252508363D

 25 26  0  0  0  0  0  0  0  0999 V2000
   38.8190   28.5460   42.0600 C   0  0  0  0  0  0  0  0  0  0  0  0
   37.5620   28.8700   41.5870 C   0  0  0  0  0  0  0  0  0  0  0  0
   36.4800   28.2720   42.1880 C   0  0  0  0  0  0  0  0  0  0  0  0
   36.5970   27.3740   43.2300 C   0  0  0  0  0  0  0  0  0  0  0  0
   37.8680   27.0740   43.6800 C   0  0  0  0  0  0  0  0  0  0  0  0
   38.9690   27.6550   43.0980 C   0  0  0  0  0  0  0  0  0  0  0  0
   35.4870   28.5360   41.8040 H   0  0  0  0  0  0  0  0  0  0  0  0
   35.7250   26.9430   43.6570 H   0  0  0  0  0  0  0  0  0  0  0  0
   37.9470   26.3650   44.5020 H   0  0  0  0  0  0  0  0  0  0  0  0
   37.1920   32.0730   39.6340 C   0  0  0  0  0  0  0  0  0  0  0  0
   37.2530   31.1880   40.7210 C   0  0  0  0  0  0  0  0  0  0  0  0
   37.4910   29.8190   40.4870 C   0  0  0  0  0  0  0  0  0  0  0  0
   37.6430   29.4710   39.1980 N   0  0  0  0  0  0  0  0  0  0  0  0
   37.5830   30.3220   38.1740 C   0  0  0  0  0  0  0  0  0  0  0  0
   37.3570   31.6240   38.3880 N   0  0  0  0  0  0  0  0  0  0  0  0
   36.9490   33.4450   39.9300 N   0  0  0  0  0  0  0  0  0  0  0  0
   37.1200   31.5480   41.7240 H   0  0  0  0  0  0  0  0  0  0  0  0
   37.7180   29.9460   37.1690 H   0  0  0  0  0  0  0  0  0  0  0  0
   36.0920   34.0400   39.9100 H   0  0  0  0  0  0  0  0  0  0  0  0
   37.9380   33.7270   40.1960 H   0  0  0  0  0  0  0  0  0  0  0  0
   40.3080   27.3320   43.5780 C   0  0  0  0  0  0  0  0  0  0  0  0
   41.0020   28.0980   43.8750 H   0  0  0  0  0  0  0  0  0  0  0  0
   40.6610   26.1150   43.6450 O   0  0  0  0  0  0  0  0  0  0  0  0
   40.9430   29.6120   40.9820 N   0  0  0  0  0  0  0  0  0  0  0  0
   39.9870   29.1310   41.4800 C   0  0  0  0  0  0  0  0  0  0  0  0
  1  6  1  0  0  0  0
  2  1  2  0  0  0  0
  2  3  1  0  0  0  0
  3  4  2  0  0  0  0
  4  8  1  0  0  0  0
  4  5  1  0  0  0  0
  5  9  1  0  0  0  0
  6 21  1  0  0  0  0
  6  5  2  0  0  0  0
  7  3  1  0  0  0  0
 10 16  1  0  0  0  0
 10 11  1  0  0  0  0
 11 17  1  0  0  0  0
 12 11  2  0  0  0  0
 12  2  1  0  0  0  0
 13 12  1  0  0  0  0
 14 15  1  0  0  0  0
 14 13  2  0  0  0  0
 15 10  2  0  0  0  0
 16 20  1  0  0  0  0
 18 14  1  0  0  0  0
 19 16  1  0  0  0  0
 21 23  2  0  0  0  0
 21 22  1  0  0  0  0
 24 25  3  0  0  0  0
 25  1  1  0  0  0  0
M  END
>  <minimizedAffinity>
-4.7905941

$$$$

 OpenBabel03252508363D

 25 26  0  0  0  0  0  0  0  0999 V2000
   38.6700   26.4570   41.9100 C   0  0  0  0  0  0  0  0  0  0  0  0
   37.5830   26.5500   41.0610 C   0  0  0  0  0  0  0  0  0  0  0  0
   36.8400   25.4130   40.8490 C   0  0  0  0  0  0  0  0  0  0  0  0
   37.1330   24.2000   41.4410 C   0  0  0  0  0  0  0  0  0  0  0  0
   38.2250   24.1430   42.2840 C   0  0  0  0  0  0  0  0  0  0  0  0
   38.9870   25.2630   42.5150 C   0  0  0  0  0  0  0  0  0  0  0  0
   35.9800   25.4980   40.1740 H   0  0  0  0  0  0  0  0  0  0  0  0
   36.5230   23.3530   41.2410 H   0  0  0  0  0  0  0  0  0  0  0  0
   38.4440   23.1820   42.7440 H   0  0  0  0  0  0  0  0  0  0  0  0
   36.3660   30.0800   40.5490 C   0  0  0  0  0  0  0  0  0  0  0  0
   36.6020   28.8400   41.1610 C   0  0  0  0  0  0  0  0  0  0  0  0
   37.3180   27.8480   40.4620 C   0  0  0  0  0  0  0  0  0  0  0  0
   37.7250   28.1910   39.2270 N   0  0  0  0  0  0  0  0  0  0  0  0
   37.4940   29.3730   38.6570 C   0  0  0  0  0  0  0  0  0  0  0  0
   36.8150   30.3200   39.3150 N   0  0  0  0  0  0  0  0  0  0  0  0
   35.6370   31.0450   41.3020 N   0  0  0  0  0  0  0  0  0  0  0  0
   36.2410   28.6450   42.1540 H   0  0  0  0  0  0  0  0  0  0  0  0
   37.8620   29.5550   37.6580 H   0  0  0  0  0  0  0  0  0  0  0  0
   34.6360   31.3410   41.3060 H   0  0  0  0  0  0  0  0  0  0  0  0
   36.4330   31.4120   41.9020 H   0  0  0  0  0  0  0  0  0  0  0  0
   40.1390   25.1940   43.4070 C   0  0  0  0  0  0  0  0  0  0  0  0
   40.0730   25.4860   44.4400 H   0  0  0  0  0  0  0  0  0  0  0  0
   41.2480   24.7820   42.9480 O   0  0  0  0  0  0  0  0  0  0  0  0
   40.1730   28.5380   42.3800 N   0  0  0  0  0  0  0  0  0  0  0  0
   39.4860   27.6020   42.1740 C   0  0  0  0  0  0  0  0  0  0  0  0
  1 25  1  0  0  0  0
  1  6  1  0  0  0  0
  2  1  2  0  0  0  0
  3  2  1  0  0  0  0
  3  4  2  0  0  0  0
  4  5  1  0  0  0  0
  5  6  2  0  0  0  0
  5  9  1  0  0  0  0
  6 21  1  0  0  0  0
  7  3  1  0  0  0  0
  8  4  1  0  0  0  0
 10 11  1  0  0  0  0
 10 16  1  0  0  0  0
 11 17  1  0  0  0  0
 12  2  1  0  0  0  0
 12 11  2  0  0  0  0
 13 12  1  0  0  0  0
 14 13  2  0  0  0  0
 14 15  1  0  0  0  0
 15 10  2  0  0  0  0
 16 19  1  0  0  0  0
 16 20  1  0  0  0  0
 18 14  1  0  0  0  0
 21 22  1  0  0  0  0
 23 21  2  0  0  0  0
 25 24  3  0  0  0  0
M  END
>  <minimizedAffinity>
-4.72264433

$$$$

 OpenBabel03252508363D

 25 26  0  0  0  0  0  0  0  0999 V2000
   37.4650   28.0690   41.0000 C   0  0  0  0  0  0  0  0  0  0  0  0
   37.5860   29.0870   41.9280 C   0  0  0  0  0  0  0  0  0  0  0  0
   37.3670   28.7770   43.2490 C   0  0  0  0  0  0  0  0  0  0  0  0
   37.0350   27.5070   43.6790 C   0  0  0  0  0  0  0  0  0  0  0  0
   36.9240   26.5130   42.7270 C   0  0  0  0  0  0  0  0  0  0  0  0
   37.1370   26.7940   41.3990 C   0  0  0  0  0  0  0  0  0  0  0  0
   37.4650   29.5920   43.9760 H   0  0  0  0  0  0  0  0  0  0  0  0
   36.8770   27.3240   44.7140 H   0  0  0  0  0  0  0  0  0  0  0  0
   36.6630   25.5180   43.0790 H   0  0  0  0  0  0  0  0  0  0  0  0
   39.5260   32.2130   41.1090 C   0  0  0  0  0  0  0  0  0  0  0  0
   39.2270   30.9370   41.6100 C   0  0  0  0  0  0  0  0  0  0  0  0
   37.9360   30.4060   41.4240 C   0  0  0  0  0  0  0  0  0  0  0  0
   37.0750   31.1970   40.7610 N   0  0  0  0  0  0  0  0  0  0  0  0
   37.3710   32.4080   40.2890 C   0  0  0  0  0  0  0  0  0  0  0  0
   38.5960   32.9190   40.4620 N   0  0  0  0  0  0  0  0  0  0  0  0
   40.8460   32.7000   41.3260 N   0  0  0  0  0  0  0  0  0  0  0  0
   39.9740   30.3680   42.1310 H   0  0  0  0  0  0  0  0  0  0  0  0
   36.6100   32.9700   39.7670 H   0  0  0  0  0  0  0  0  0  0  0  0
   41.2630   33.3500   42.0290 H   0  0  0  0  0  0  0  0  0  0  0  0
   41.3350   32.1950   40.5290 H   0  0  0  0  0  0  0  0  0  0  0  0
   37.0170   25.7390   40.3990 C   0  0  0  0  0  0  0  0  0  0  0  0
   37.2350   25.9170   39.3610 H   0  0  0  0  0  0  0  0  0  0  0  0
   36.6440   24.5830   40.7650 O   0  0  0  0  0  0  0  0  0  0  0  0
   37.8410   28.5480   38.4630 N   0  0  0  0  0  0  0  0  0  0  0  0
   37.6800   28.3240   39.6100 C   0  0  0  0  0  0  0  0  0  0  0  0
  1  6  2  0  0  0  0
  1  2  1  0  0  0  0
  2  3  2  0  0  0  0
  3  4  1  0  0  0  0
  3  7  1  0  0  0  0
  4  8  1  0  0  0  0
  5  9  1  0  0  0  0
  5  4  2  0  0  0  0
  6  5  1  0  0  0  0
 10 16  1  0  0  0  0
 10 11  1  0  0  0  0
 11 17  1  0  0  0  0
 12 11  2  0  0  0  0
 12  2  1  0  0  0  0
 13 12  1  0  0  0  0
 14 15  1  0  0  0  0
 14 13  2  0  0  0  0
 15 10  2  0  0  0  0
 16 19  1  0  0  0  0
 18 14  1  0  0  0  0
 20 16  1  0  0  0  0
 21 23  2  0  0  0  0
 21  6  1  0  0  0  0
 22 21  1  0  0  0  0
 24 25  3  0  0  0  0
 25  1  1  0  0  0  0
M  END
>  <minimizedAffinity>
-4.69882679

$$$$

 OpenBabel03252508363D

 25 26  0  0  0  0  0  0  0  0999 V2000
   36.8350   26.0130   39.8780 C   0  0  0  0  0  0  0  0  0  0  0  0
   37.1590   26.5640   41.1030 C   0  0  0  0  0  0  0  0  0  0  0  0
   37.1760   25.7280   42.1940 C   0  0  0  0  0  0  0  0  0  0  0  0
   36.8870   24.3800   42.1150 C   0  0  0  0  0  0  0  0  0  0  0  0
   36.5680   23.8620   40.8750 C   0  0  0  0  0  0  0  0  0  0  0  0
   36.5420   24.6730   39.7670 C   0  0  0  0  0  0  0  0  0  0  0  0
   37.4340   26.1750   43.1620 H   0  0  0  0  0  0  0  0  0  0  0  0
   36.9160   23.7810   42.9920 H   0  0  0  0  0  0  0  0  0  0  0  0
   36.3420   22.7990   40.8270 H   0  0  0  0  0  0  0  0  0  0  0  0
   36.7510   30.3080   41.2520 C   0  0  0  0  0  0  0  0  0  0  0  0
   36.4250   28.9440   41.2250 C   0  0  0  0  0  0  0  0  0  0  0  0
   37.4550   27.9880   41.1340 C   0  0  0  0  0  0  0  0  0  0  0  0
   38.7030   28.4850   41.0790 N   0  0  0  0  0  0  0  0  0  0  0  0
   39.0000   29.7840   41.1050 C   0  0  0  0  0  0  0  0  0  0  0  0
   38.0260   30.6990   41.1920 N   0  0  0  0  0  0  0  0  0  0  0  0
   35.6700   31.2300   41.3450 N   0  0  0  0  0  0  0  0  0  0  0  0
   35.4000   28.6280   41.2730 H   0  0  0  0  0  0  0  0  0  0  0  0
   40.0350   30.0880   41.0560 H   0  0  0  0  0  0  0  0  0  0  0  0
   35.1580   31.8060   40.6410 H   0  0  0  0  0  0  0  0  0  0  0  0
   35.5040   31.1750   42.3930 H   0  0  0  0  0  0  0  0  0  0  0  0
   36.2050   24.1190   38.4610 C   0  0  0  0  0  0  0  0  0  0  0  0
   36.9320   24.0460   37.6720 H   0  0  0  0  0  0  0  0  0  0  0  0
   35.0200   23.7140   38.2510 O   0  0  0  0  0  0  0  0  0  0  0  0
   36.7500   27.4900   37.7280 N   0  0  0  0  0  0  0  0  0  0  0  0
   36.7990   26.8270   38.7020 C   0  0  0  0  0  0  0  0  0  0  0  0
  1  2  1  0  0  0  0
  2 12  1  0  0  0  0
  2  3  2  0  0  0  0
  3  7  1  0  0  0  0
  4  3  1  0  0  0  0
  4  8  1  0  0  0  0
  5  4  2  0  0  0  0
  6  1  2  0  0  0  0
  6  5  1  0  0  0  0
  9  5  1  0  0  0  0
 10 16  1  0  0  0  0
 11 10  1  0  0  0  0
 11 17  1  0  0  0  0
 12 11  2  0  0  0  0
 13 14  2  0  0  0  0
 13 12  1  0  0  0  0
 14 15  1  0  0  0  0
 15 10  2  0  0  0  0
 16 20  1  0  0  0  0
 18 14  1  0  0  0  0
 19 16  1  0  0  0  0
 21  6  1  0  0  0  0
 22 21  1  0  0  0  0
 23 21  2  0  0  0  0
 24 25  3  0  0  0  0
 25  1  1  0  0  0  0
M  END
>  <minimizedAffinity>
-4.64636135

$$$$

 OpenBabel03252508363D

 25 26  0  0  0  0  0  0  0  0999 V2000
   38.3780   29.4850   42.0410 C   0  0  0  0  0  0  0  0  0  0  0  0
   39.6150   29.9820   41.6760 C   0  0  0  0  0  0  0  0  0  0  0  0
   40.7290   29.3240   42.1380 C   0  0  0  0  0  0  0  0  0  0  0  0
   40.6620   28.2020   42.9410 C   0  0  0  0  0  0  0  0  0  0  0  0
   39.4110   27.7320   43.2860 C   0  0  0  0  0  0  0  0  0  0  0  0
   38.2790   28.3690   42.8400 C   0  0  0  0  0  0  0  0  0  0  0  0
   41.7060   29.7260   41.8420 H   0  0  0  0  0  0  0  0  0  0  0  0
   41.5580   27.7330   43.2690 H   0  0  0  0  0  0  0  0  0  0  0  0
   39.3720   26.8480   43.9190 H   0  0  0  0  0  0  0  0  0  0  0  0
   39.7010   32.2200   38.6440 C   0  0  0  0  0  0  0  0  0  0  0  0
   39.6870   31.0560   39.4260 C   0  0  0  0  0  0  0  0  0  0  0  0
   39.6320   31.1650   40.8290 C   0  0  0  0  0  0  0  0  0  0  0  0
   39.5970   32.4200   41.3110 N   0  0  0  0  0  0  0  0  0  0  0  0
   39.6110   33.5190   40.5570 C   0  0  0  0  0  0  0  0  0  0  0  0
   39.6630   33.4230   39.2230 N   0  0  0  0  0  0  0  0  0  0  0  0
   39.7570   32.0510   37.2310 N   0  0  0  0  0  0  0  0  0  0  0  0
   39.7170   30.0880   38.9620 H   0  0  0  0  0  0  0  0  0  0  0  0
   39.5800   34.4860   41.0370 H   0  0  0  0  0  0  0  0  0  0  0  0
   40.5360   32.0900   36.5360 H   0  0  0  0  0  0  0  0  0  0  0  0
   38.7280   31.8580   37.0530 H   0  0  0  0  0  0  0  0  0  0  0  0
   36.9600   27.8670   43.2090 C   0  0  0  0  0  0  0  0  0  0  0  0
   36.2290   28.4950   43.6840 H   0  0  0  0  0  0  0  0  0  0  0  0
   36.6730   26.6550   42.9630 O   0  0  0  0  0  0  0  0  0  0  0  0
   36.1990   30.6580   41.2110 N   0  0  0  0  0  0  0  0  0  0  0  0
   37.1780   30.1230   41.5940 C   0  0  0  0  0  0  0  0  0  0  0  0
  1  6  1  0  0  0  0
  2  1  2  0  0  0  0
  2  3  1  0  0  0  0
  3  4  2  0  0  0  0
  4  8  1  0  0  0  0
  4  5  1  0  0  0  0
  5  9  1  0  0  0  0
  6 21  1  0  0  0  0
  6  5  2  0  0  0  0
  7  3  1  0  0  0  0
 10 15  2  0  0  0  0
 10 11  1  0  0  0  0
 11 12  2  0  0  0  0
 12 13  1  0  0  0  0
 12  2  1  0  0  0  0
 14 18  1  0  0  0  0
 14 13  2  0  0  0  0
 15 14  1  0  0  0  0
 16 10  1  0  0  0  0
 17 11  1  0  0  0  0
 19 16  1  0  0  0  0
 20 16  1  0  0  0  0
 21 22  1  0  0  0  0
 23 21  2  0  0  0  0
 24 25  3  0  0  0  0
 25  1  1  0  0  0  0
M  END
>  <minimizedAffinity>
-4.62876034

$$$$

 OpenBabel03252508363D

 25 26  0  0  0  0  0  0  0  0999 V2000
   38.1980   28.6090   42.0230 C   0  0  0  0  0  0  0  0  0  0  0  0
   39.3750   29.3170   41.8660 C   0  0  0  0  0  0  0  0  0  0  0  0
   40.4930   28.8490   42.5150 C   0  0  0  0  0  0  0  0  0  0  0  0
   40.4860   27.7170   43.3070 C   0  0  0  0  0  0  0  0  0  0  0  0
   39.2930   27.0340   43.4410 C   0  0  0  0  0  0  0  0  0  0  0  0
   38.1600   27.4770   42.8040 C   0  0  0  0  0  0  0  0  0  0  0  0
   41.4210   29.4180   42.3850 H   0  0  0  0  0  0  0  0  0  0  0  0
   41.3800   27.4010   43.7850 H   0  0  0  0  0  0  0  0  0  0  0  0
   39.3020   26.1440   44.0670 H   0  0  0  0  0  0  0  0  0  0  0  0
   39.0630   32.8960   40.7270 C   0  0  0  0  0  0  0  0  0  0  0  0
   39.0990   31.7770   41.5730 C   0  0  0  0  0  0  0  0  0  0  0  0
   39.3300   30.5020   41.0230 C   0  0  0  0  0  0  0  0  0  0  0  0
   39.5020   30.4680   39.6900 N   0  0  0  0  0  0  0  0  0  0  0  0
   39.4660   31.5390   38.8980 C   0  0  0  0  0  0  0  0  0  0  0  0
   39.2470   32.7550   39.4130 N   0  0  0  0  0  0  0  0  0  0  0  0
   38.8250   34.1610   41.3370 N   0  0  0  0  0  0  0  0  0  0  0  0
   38.9510   31.8900   42.6310 H   0  0  0  0  0  0  0  0  0  0  0  0
   39.6160   31.4120   37.8350 H   0  0  0  0  0  0  0  0  0  0  0  0
   37.9730   34.7530   41.4470 H   0  0  0  0  0  0  0  0  0  0  0  0
   39.8110   34.3610   41.6780 H   0  0  0  0  0  0  0  0  0  0  0  0
   36.9040   26.7500   42.9510 C   0  0  0  0  0  0  0  0  0  0  0  0
   36.0490   27.1900   43.4320 H   0  0  0  0  0  0  0  0  0  0  0  0
   36.8220   25.5670   42.5010 O   0  0  0  0  0  0  0  0  0  0  0  0
   36.0080   29.4130   40.8540 N   0  0  0  0  0  0  0  0  0  0  0  0
   36.9990   29.0410   41.3750 C   0  0  0  0  0  0  0  0  0  0  0  0
  1  6  1  0  0  0  0
  2  1  2  0  0  0  0
  2  3  1  0  0  0  0
  3  4  2  0  0  0  0
  4  5  1  0  0  0  0
  4  8  1  0  0  0  0
  5  9  1  0  0  0  0
  6 21  1  0  0  0  0
  6  5  2  0  0  0  0
  7  3  1  0  0  0  0
 10 16  1  0  0  0  0
 10 11  1  0  0  0  0
 11 17  1  0  0  0  0
 12 11  2  0  0  0  0
 12  2  1  0  0  0  0
 13 12  1  0  0  0  0
 14 15  1  0  0  0  0
 14 13  2  0  0  0  0
 15 10  2  0  0  0  0
 16 19  1  0  0  0  0
 16 20  1  0  0  0  0
 18 14  1  0  0  0  0
 21 22  1  0  0  0  0
 23 21  2  0  0  0  0
 24 25  3  0  0  0  0
 25  1  1  0  0  0  0
M  END
>  <minimizedAffinity>
-4.59287977

$$$$

 OpenBabel03252508363D

 25 26  0  0  0  0  0  0  0  0999 V2000
   37.8990   29.8630   41.4170 C   0  0  0  0  0  0  0  0  0  0  0  0
   37.4940   30.7580   40.4450 C   0  0  0  0  0  0  0  0  0  0  0  0
   36.2570   30.5690   39.8770 C   0  0  0  0  0  0  0  0  0  0  0  0
   35.4150   29.5340   40.2350 C   0  0  0  0  0  0  0  0  0  0  0  0
   35.8490   28.6590   41.2100 C   0  0  0  0  0  0  0  0  0  0  0  0
   37.0810   28.8220   41.7950 C   0  0  0  0  0  0  0  0  0  0  0  0
   35.9460   31.2840   39.1060 H   0  0  0  0  0  0  0  0  0  0  0  0
   34.4680   29.4360   39.7620 H   0  0  0  0  0  0  0  0  0  0  0  0
   35.1760   27.8480   41.4830 H   0  0  0  0  0  0  0  0  0  0  0  0
   40.0280   32.8570   38.6050 C   0  0  0  0  0  0  0  0  0  0  0  0
   39.1470   31.8050   38.8990 C   0  0  0  0  0  0  0  0  0  0  0  0
   38.4170   31.8290   40.1030 C   0  0  0  0  0  0  0  0  0  0  0  0
   38.6370   32.8960   40.8910 N   0  0  0  0  0  0  0  0  0  0  0  0
   39.4770   33.8890   40.6010 C   0  0  0  0  0  0  0  0  0  0  0  0
   40.1740   33.8730   39.4580 N   0  0  0  0  0  0  0  0  0  0  0  0
   40.7400   32.7800   37.3740 N   0  0  0  0  0  0  0  0  0  0  0  0
   39.0290   30.9870   38.2140 H   0  0  0  0  0  0  0  0  0  0  0  0
   39.5870   34.7060   41.3000 H   0  0  0  0  0  0  0  0  0  0  0  0
   41.7060   32.4730   37.1250 H   0  0  0  0  0  0  0  0  0  0  0  0
   39.9780   33.1410   36.7270 H   0  0  0  0  0  0  0  0  0  0  0  0
   37.5340   27.8940   42.8250 C   0  0  0  0  0  0  0  0  0  0  0  0
   37.6640   28.2020   43.8470 H   0  0  0  0  0  0  0  0  0  0  0  0
   37.7800   26.6910   42.5030 O   0  0  0  0  0  0  0  0  0  0  0  0
   40.2350   30.1220   42.5500 N   0  0  0  0  0  0  0  0  0  0  0  0
   39.1740   30.0030   42.0480 C   0  0  0  0  0  0  0  0  0  0  0  0
  1  6  1  0  0  0  0
  1 25  1  0  0  0  0
  2  1  2  0  0  0  0
  3  4  2  0  0  0  0
  3  2  1  0  0  0  0
  4  5  1  0  0  0  0
  5  9  1  0  0  0  0
  5  6  2  0  0  0  0
  6 21  1  0  0  0  0
  7  3  1  0  0  0  0
  8  4  1  0  0  0  0
 10 11  2  0  0  0  0
 10 15  1  0  0  0  0
 11 12  1  0  0  0  0
 12  2  1  0  0  0  0
 12 13  2  0  0  0  0
 14 13  1  0  0  0  0
 14 18  1  0  0  0  0
 15 14  2  0  0  0  0
 16 10  1  0  0  0  0
 17 11  1  0  0  0  0
 19 16  1  0  0  0  0
 20 16  1  0  0  0  0
 21 22  1  0  0  0  0
 23 21  2  0  0  0  0
 25 24  3  0  0  0  0
M  END
>  <minimizedAffinity>
-4.54082537

$$$$

 OpenBabel03252508363D

 25 26  0  0  0  0  0  0  0  0999 V2000
   39.7170   27.6510   42.4600 C   0  0  0  0  0  0  0  0  0  0  0  0
   40.0470   28.9300   42.0540 C   0  0  0  0  0  0  0  0  0  0  0  0
   41.2460   29.4480   42.4830 C   0  0  0  0  0  0  0  0  0  0  0  0
   42.1200   28.7510   43.2930 C   0  0  0  0  0  0  0  0  0  0  0  0
   41.7610   27.4750   43.6800 C   0  0  0  0  0  0  0  0  0  0  0  0
   40.5690   26.9310   43.2670 C   0  0  0  0  0  0  0  0  0  0  0  0
   41.4970   30.4640   42.1550 H   0  0  0  0  0  0  0  0  0  0  0  0
   43.0340   29.2010   43.5940 H   0  0  0  0  0  0  0  0  0  0  0  0
   42.4590   26.9360   44.3170 H   0  0  0  0  0  0  0  0  0  0  0  0
   36.9150   30.6280   40.8210 C   0  0  0  0  0  0  0  0  0  0  0  0
   37.8080   29.9600   41.6720 C   0  0  0  0  0  0  0  0  0  0  0  0
   39.0920   29.6230   41.2020 C   0  0  0  0  0  0  0  0  0  0  0  0
   39.3570   29.9840   39.9350 N   0  0  0  0  0  0  0  0  0  0  0  0
   38.5000   30.6180   39.1350 C   0  0  0  0  0  0  0  0  0  0  0  0
   37.2780   30.9420   39.5750 N   0  0  0  0  0  0  0  0  0  0  0  0
   35.6310   30.9440   41.3490 N   0  0  0  0  0  0  0  0  0  0  0  0
   37.5170   29.7070   42.6750 H   0  0  0  0  0  0  0  0  0  0  0  0
   38.8050   30.8670   38.1290 H   0  0  0  0  0  0  0  0  0  0  0  0
   34.6940   30.4910   41.2710 H   0  0  0  0  0  0  0  0  0  0  0  0
   35.8920   31.8240   41.8850 H   0  0  0  0  0  0  0  0  0  0  0  0
   40.1960   25.5830   43.6790 C   0  0  0  0  0  0  0  0  0  0  0  0
   39.6400   25.4010   44.5820 H   0  0  0  0  0  0  0  0  0  0  0  0
   40.5390   24.6000   42.9540 O   0  0  0  0  0  0  0  0  0  0  0  0
   37.4660   26.5750   41.6970 N   0  0  0  0  0  0  0  0  0  0  0  0
   38.4860   27.0530   42.0490 C   0  0  0  0  0  0  0  0  0  0  0  0
  1  6  1  0  0  0  0
  2  1  2  0  0  0  0
  2  3  1  0  0  0  0
  3  4  2  0  0  0  0
  4  8  1  0  0  0  0
  4  5  1  0  0  0  0
  5  9  1  0  0  0  0
  6 21  1  0  0  0  0
  6  5  2  0  0  0  0
  7  3  1  0  0  0  0
 10 16  1  0  0  0  0
 10 11  1  0  0  0  0
 11 17  1  0  0  0  0
 12 11  2  0  0  0  0
 12  2  1  0  0  0  0
 13 12  1  0  0  0  0
 14 15  1  0  0  0  0
 14 13  2  0  0  0  0
 15 10  2  0  0  0  0
 16 20  1  0  0  0  0
 18 14  1  0  0  0  0
 19 16  1  0  0  0  0
 21 22  1  0  0  0  0
 23 21  2  0  0  0  0
 24 25  3  0  0  0  0
 25  1  1  0  0  0  0
M  END
>  <minimizedAffinity>
-4.50364113

$$$$
