
 OpenBabel03242523333D

 31 33  0  0  0  0  0  0  0  0999 V2000
   47.5930   31.1260   47.2690 C   0  0  0  0  0  0  0  0  0  0  0  0
   47.9160   31.9640   48.3090 C   0  0  0  0  0  0  0  0  0  0  0  0
   48.7160   31.4670   49.3210 C   0  0  0  0  0  0  0  0  0  0  0  0
   49.1900   30.1630   49.3100 C   0  0  0  0  0  0  0  0  0  0  0  0
   49.9650   29.7130   50.3110 N   0  0  0  0  0  0  0  0  0  0  0  0
   50.4370   28.4550   50.3240 C   0  0  0  0  0  0  0  0  0  0  0  0
   50.1150   27.6130   49.2830 C   0  0  0  0  0  0  0  0  0  0  0  0
   49.3140   28.0670   48.2420 C   0  0  0  0  0  0  0  0  0  0  0  0
   48.8220   29.3760   48.2270 C   0  0  0  0  0  0  0  0  0  0  0  0
   48.0300   29.8300   47.2010 C   0  0  0  0  0  0  0  0  0  0  0  0
   47.6270   32.9860   48.4540 H   0  0  0  0  0  0  0  0  0  0  0  0
   49.0190   32.0700   50.1850 H   0  0  0  0  0  0  0  0  0  0  0  0
   51.0640   28.1000   51.1400 H   0  0  0  0  0  0  0  0  0  0  0  0
   50.4540   26.5890   49.2210 H   0  0  0  0  0  0  0  0  0  0  0  0
   49.0670   27.3970   47.4290 H   0  0  0  0  0  0  0  0  0  0  0  0
   47.7700   29.1890   46.3860 H   0  0  0  0  0  0  0  0  0  0  0  0
   46.5610   31.7930   45.9850 S   0  0  0  0  0  0  0  0  0  0  0  0
   45.5890   33.1830   46.5900 C   0  0  0  0  0  0  0  0  0  0  0  0
   46.0050   33.7080   47.4460 H   0  0  0  0  0  0  0  0  0  0  0  0
   44.5520   32.8200   46.8050 H   0  0  0  0  0  0  0  0  0  0  0  0
   44.5330   36.0700   44.4730 C   0  0  0  0  0  0  0  0  0  0  0  0
   45.3290   35.8540   43.3340 C   0  0  0  0  0  0  0  0  0  0  0  0
   46.1900   34.7540   43.3130 C   0  0  0  0  0  0  0  0  0  0  0  0
   46.2390   33.9170   44.3900 N   0  0  0  0  0  0  0  0  0  0  0  0
   45.4540   34.1580   45.4740 C   0  0  0  0  0  0  0  0  0  0  0  0
   44.6270   35.2140   45.4980 N   0  0  0  0  0  0  0  0  0  0  0  0
   43.8770   36.9250   44.4680 H   0  0  0  0  0  0  0  0  0  0  0  0
   45.2620   36.5380   42.5040 H   0  0  0  0  0  0  0  0  0  0  0  0
   47.0250   34.5070   42.1470 C   0  0  0  0  0  0  0  0  0  0  0  0
   46.8660   33.6090   41.5720 H   0  0  0  0  0  0  0  0  0  0  0  0
   47.9110   35.3380   41.8300 O   0  0  0  0  0  0  0  0  0  0  0  0
  1  2  1  0  0  0  0
  2 11  1  0  0  0  0
  2  3  2  0  0  0  0
  3 12  1  0  0  0  0
  4  3  1  0  0  0  0
  4  5  1  0  0  0  0
  5  6  2  0  0  0  0
  6 13  1  0  0  0  0
  7  6  1  0  0  0  0
  8  7  2  0  0  0  0
  9  8  1  0  0  0  0
  9  4  2  0  0  0  0
 10  1  2  0  0  0  0
 10  9  1  0  0  0  0
 14  7  1  0  0  0  0
 15  8  1  0  0  0  0
 16 10  1  0  0  0  0
 17 18  1  0  0  0  0
 17  1  1  0  0  0  0
 18 20  1  0  0  0  0
 18 19  1  0  0  0  0
 21 26  1  0  0  0  0
 22 21  2  0  0  0  0
 23 22  1  0  0  0  0
 23 24  2  0  0  0  0
 24 25  1  0  0  0  0
 25 26  2  0  0  0  0
 25 18  1  0  0  0  0
 27 21  1  0  0  0  0
 28 22  1  0  0  0  0
 29 23  1  0  0  0  0
 30 29  1  0  0  0  0
 31 29  2  0  0  0  0
M  END
>  <minimizedAffinity>
-5.19349289

>  <minimizedRMSD>
0.12207485

$$$$
