
 OpenBabel03252507313D

 43 45  0  0  1  0  0  0  0  0999 V2000
   47.6090   31.8140   46.3580 C   0  0  2  0  0  0  0  0  0  0  0  0
   47.4050   30.3660   45.8370 C   0  0  0  0  0  0  0  0  0  0  0  0
   48.2400   29.4300   46.6480 C   0  0  0  0  0  0  0  0  0  0  0  0
   48.2020   29.6350   48.1230 C   0  0  0  0  0  0  0  0  0  0  0  0
   48.1640   31.0170   48.5310 C   0  0  0  0  0  0  0  0  0  0  0  0
   47.1590   31.8770   47.7350 C   0  0  2  0  0  0  0  0  0  0  0  0
   48.7070   31.9490   46.2540 H   0  0  0  0  0  0  0  0  0  0  0  0
   47.7100   30.2880   44.7740 H   0  0  0  0  0  0  0  0  0  0  0  0
   46.3620   30.0450   45.8910 H   0  0  0  0  0  0  0  0  0  0  0  0
   49.2400   29.4300   46.1690 H   0  0  0  0  0  0  0  0  0  0  0  0
   47.8390   28.3940   46.4510 H   0  0  0  0  0  0  0  0  0  0  0  0
   47.8470   28.8180   48.7510 H   0  0  0  0  0  0  0  0  0  0  0  0
   49.3180   29.4060   48.3620 H   0  0  0  0  0  0  0  0  0  0  0  0
   47.8120   31.0900   49.5970 H   0  0  0  0  0  0  0  0  0  0  0  0
   49.0950   31.6210   48.5040 H   0  0  0  0  0  0  0  0  0  0  0  0
   47.2060   32.8130   48.2950 H   0  0  0  0  0  0  0  0  0  0  0  0
   46.9560   32.7880   45.5080 C   0  0  0  0  0  0  0  0  0  0  0  0
   45.8590   33.4590   46.0320 C   0  0  0  0  0  0  0  0  0  0  0  0
   45.1740   34.4050   45.2330 C   0  0  0  0  0  0  0  0  0  0  0  0
   45.6640   34.6020   43.9460 N   0  0  0  0  0  0  0  0  0  0  0  0
   46.7260   33.9260   43.5050 C   0  0  0  0  0  0  0  0  0  0  0  0
   47.3610   33.0350   44.2680 N   0  0  0  0  0  0  0  0  0  0  0  0
   45.3470   33.4930   46.9720 H   0  0  0  0  0  0  0  0  0  0  0  0
   44.3300   35.0000   45.4600 H   0  0  0  0  0  0  0  0  0  0  0  0
   47.2070   34.1930   42.1440 C   0  0  0  0  0  0  0  0  0  0  0  0
   48.1990   35.1180   41.9080 C   0  0  0  0  0  0  0  0  0  0  0  0
   48.7140   35.4350   40.6780 C   0  0  0  0  0  0  0  0  0  0  0  0
   48.1530   34.7390   39.6380 C   0  0  0  0  0  0  0  0  0  0  0  0
   47.1460   33.7950   39.8380 C   0  0  0  0  0  0  0  0  0  0  0  0
   46.6800   33.5310   41.1010 N   0  0  0  0  0  0  0  0  0  0  0  0
   48.5940   35.6300   42.7950 H   0  0  0  0  0  0  0  0  0  0  0  0
   49.4950   36.1660   40.5250 H   0  0  0  0  0  0  0  0  0  0  0  0
   48.4770   34.9030   38.6170 H   0  0  0  0  0  0  0  0  0  0  0  0
   46.5810   33.0830   38.7060 C   0  0  0  0  0  0  0  0  0  0  0  0
   45.9680   32.2230   38.8600 H   0  0  0  0  0  0  0  0  0  0  0  0
   46.8140   33.4790   37.5390 O   0  0  0  0  0  0  0  0  0  0  0  0
   45.8320   31.2660   47.8470 N   0  0  0  0  0  0  0  0  0  0  0  0
   45.1550   30.7040   48.9430 C   0  0  0  0  0  0  0  0  0  0  0  0
   44.5950   31.4110   49.8550 O   0  0  0  0  0  0  0  0  0  0  0  0
   45.1320   29.2760   48.9630 N   0  0  0  0  0  0  0  0  0  0  0  0
   45.1950   31.1140   46.9760 H   0  0  0  0  0  0  0  0  0  0  0  0
   44.8290   28.6120   48.2130 H   0  0  0  0  0  0  0  0  0  0  0  0
   45.4470   28.7580   49.8130 H   0  0  0  0  0  0  0  0  0  0  0  0
  1  7  1  6  0  0  0
  1  6  1  0  0  0  0
  2  9  1  0  0  0  0
  2  1  1  0  0  0  0
  2  3  1  0  0  0  0
  3  4  1  0  0  0  0
  4 13  1  0  0  0  0
  4  5  1  0  0  0  0
  4 12  1  0  0  0  0
  5 14  1  0  0  0  0
  6 37  1  0  0  0  0
  6 16  1  1  0  0  0
  6  5  1  0  0  0  0
  8  2  1  0  0  0  0
 10  3  1  0  0  0  0
 11  3  1  0  0  0  0
 15  5  1  0  0  0  0
 17 18  1  0  0  0  0
 17  1  1  0  0  0  0
 18 23  1  0  0  0  0
 19 24  1  0  0  0  0
 19 18  2  0  0  0  0
 20 19  1  0  0  0  0
 21 20  2  0  0  0  0
 21 22  1  0  0  0  0
 22 17  2  0  0  0  0
 25 21  1  0  0  0  0
 26 25  1  0  0  0  0
 26 31  1  0  0  0  0
 27 26  2  0  0  0  0
 28 29  2  0  0  0  0
 28 27  1  0  0  0  0
 29 30  1  0  0  0  0
 30 25  2  0  0  0  0
 32 27  1  0  0  0  0
 33 28  1  0  0  0  0
 34 35  1  0  0  0  0
 34 29  1  0  0  0  0
 36 34  2  0  0  0  0
 37 38  1  0  0  0  0
 38 40  1  0  0  0  0
 38 39  2  0  0  0  0
 40 43  1  0  0  0  0
 41 37  1  0  0  0  0
 42 40  1  0  0  0  0
M  END
>  <minimizedAffinity>
-5.93205833

>  <minimizedRMSD>
0.163895085

$$$$
