REMARK  Name = 
REMARK  3 active torsions:
REMARK  status: ('A' for Active; 'I' for Inactive)
REMARK    1  A    between atoms: C_2  and  N_10
REMARK    2  A    between atoms: C_3  and  C_7
REMARK    3  A    between atoms: C_9  and  C_19
REMARK                            x       y       z     vdW  Elec       q    Type
REMARK                         _______ _______ _______ _____ _____    ______ ____
ROOT
ATOM      1  C   UNL     1      44.633  35.460  45.126  0.00  0.00    +0.000 A 
ATOM      2  C   UNL     1      45.096  35.712  43.809  0.00  0.00    +0.000 A 
ATOM      3  C   UNL     1      46.040  34.827  43.353  0.00  0.00    +0.000 A 
ATOM      4  N   UNL     1      46.485  33.781  44.146  0.00  0.00    +0.000 NA
ATOM      5  C   UNL     1      46.014  33.587  45.383  0.00  0.00    +0.000 A 
ATOM      6  N   UNL     1      45.076  34.438  45.880  0.00  0.00    +0.000 NA
ATOM      7  H   UNL     1      43.890  36.128  45.530  0.00  0.00    +0.000 HD
ATOM      8  H   UNL     1      46.477  32.728  45.838  0.00  0.00    +0.000 HD
ENDROOT
BRANCH   3   9
ATOM      9  C   UNL     1      46.542  34.982  41.936  0.00  0.00    +0.000 C 
ATOM     10  C   UNL     1      48.069  35.269  41.935  0.00  0.00    +0.000 C 
ATOM     11  C   UNL     1      47.387  33.975  41.401  0.00  0.00    +0.000 C 
ATOM     12  H   UNL     1      45.978  35.720  41.341  0.00  0.00    +0.000 HD
ATOM     13  H   UNL     1      48.456  35.910  41.139  0.00  0.00    +0.000 HD
ATOM     14  H   UNL     1      48.632  35.187  42.858  0.00  0.00    +0.000 HD
ATOM     15  H   UNL     1      47.727  33.064  41.922  0.00  0.00    +0.000 HD
BRANCH  11  16
ATOM     16  C   UNL     1      47.374  33.804  39.901  0.00  0.00    +0.000 C 
ATOM     17  H   UNL     1      47.770  34.562  39.206  0.00  0.00    +0.000 HD
ATOM     18  O   UNL     1      46.911  32.789  39.369  0.00  0.00    +0.000 OA
ENDBRANCH  11  16
ENDBRANCH   3   9
BRANCH   2  19
ATOM     19  N   UNL     1      44.640  36.809  43.019  0.00  0.00    +0.000 N 
ATOM     20  H   UNL     1      43.636  36.786  42.699  0.00  0.00    +0.000 HD
ATOM     21  H   UNL     1      45.131  37.667  42.682  0.00  0.00    +0.000 HD
ENDBRANCH   2  19
TORSDOF 3
