
 OpenBabel03252509233D

 21 22  0  0  1  0  0  0  0  0999 V2000
   44.6500   35.4010   45.1230 C   0  0  0  0  0  0  0  0  0  0  0  0
   45.1220   35.7010   43.8190 C   0  0  0  0  0  0  0  0  0  0  0  0
   46.0860   34.8460   43.3470 C   0  0  0  0  0  0  0  0  0  0  0  0
   46.5410   33.7850   44.1130 N   0  0  0  0  0  0  0  0  0  0  0  0
   46.0610   33.5460   45.3390 C   0  0  0  0  0  0  0  0  0  0  0  0
   45.1040   34.3650   45.8510 N   0  0  0  0  0  0  0  0  0  0  0  0
   43.8910   36.0440   45.5390 H   0  0  0  0  0  0  0  0  0  0  0  0
   46.5350   32.6820   45.7730 H   0  0  0  0  0  0  0  0  0  0  0  0
   46.5990   35.0520   41.9410 C   0  0  1  0  0  0  0  0  0  0  0  0
   48.1250   35.3460   41.9630 C   0  0  0  0  0  0  0  0  0  0  0  0
   47.4540   34.0680   41.3790 C   0  0  2  0  0  0  0  0  0  0  0  0
   46.0370   35.8070   41.3670 H   0  0  0  0  0  0  0  0  0  0  0  0
   48.5160   36.0160   41.1930 H   0  0  0  0  0  0  0  0  0  0  0  0
   48.6800   35.2350   42.8880 H   0  0  0  0  0  0  0  0  0  0  0  0
   47.7940   33.1410   41.8710 H   0  0  0  0  0  0  0  0  0  0  0  0
   47.4550   33.9490   39.8740 C   0  0  0  0  0  0  0  0  0  0  0  0
   46.8000   34.5500   39.2230 H   0  0  0  0  0  0  0  0  0  0  0  0
   48.2020   33.1590   39.2880 O   0  0  0  0  0  0  0  0  0  0  0  0
   44.6550   36.8130   43.0570 N   0  0  0  0  0  0  0  0  0  0  0  0
   43.6540   36.7820   42.7260 H   0  0  0  0  0  0  0  0  0  0  0  0
   45.1340   37.6890   42.7510 H   0  0  0  0  0  0  0  0  0  0  0  0
  1  7  1  0  0  0  0
  1  6  1  0  0  0  0
  2  1  2  0  0  0  0
  3  2  1  0  0  0  0
  3  4  2  0  0  0  0
  4  5  1  0  0  0  0
  5  8  1  0  0  0  0
  5  6  2  0  0  0  0
  9 12  1  6  0  0  0
  9 10  1  0  0  0  0
  9  3  1  0  0  0  0
 10 14  1  0  0  0  0
 11 15  1  1  0  0  0
 11  9  1  0  0  0  0
 11 10  1  0  0  0  0
 13 10  1  0  0  0  0
 16 11  1  0  0  0  0
 17 16  1  0  0  0  0
 18 16  2  0  0  0  0
 19  2  1  0  0  0  0
 20 19  1  0  0  0  0
 21 19  1  0  0  0  0
M  END
>  <minimizedAffinity>
-4.1620822

>  <minimizedRMSD>
0.459914923

$$$$
