
 OpenBabel03242521313D

 41 43  0  0  1  0  0  0  0  0999 V2000
   38.4550   29.3870   41.1390 C   0  0  1  0  0  0  0  0  0  0  0  0
   37.6670   28.2250   40.5360 C   0  0  2  0  0  0  0  0  0  0  0  0
   36.3210   28.4190   40.6230 O   0  0  0  0  0  0  0  0  0  0  0  0
   35.9800   29.4450   39.7810 C   0  0  0  0  0  0  0  0  0  0  0  0
   36.4940   30.7340   40.3300 C   0  0  2  0  0  0  0  0  0  0  0  0
   37.9370   30.7150   40.7960 C   0  0  2  0  0  0  0  0  0  0  0  0
   39.4900   29.2890   40.6860 H   0  0  0  0  0  0  0  0  0  0  0  0
   37.9650   28.2180   39.4520 H   0  0  0  0  0  0  0  0  0  0  0  0
   36.3190   29.2450   38.7440 H   0  0  0  0  0  0  0  0  0  0  0  0
   34.8760   29.5210   39.7440 H   0  0  0  0  0  0  0  0  0  0  0  0
   36.3990   31.4930   39.5530 H   0  0  0  0  0  0  0  0  0  0  0  0
   37.9250   31.3840   41.6800 H   0  0  0  0  0  0  0  0  0  0  0  0
   37.4420   24.8170   42.1760 C   0  0  0  0  0  0  0  0  0  0  0  0
   37.0490   26.0100   41.5520 C   0  0  0  0  0  0  0  0  0  0  0  0
   38.0530   26.9630   41.1810 C   0  0  0  0  0  0  0  0  0  0  0  0
   39.3390   26.6810   41.4440 N   0  0  0  0  0  0  0  0  0  0  0  0
   39.6850   25.5040   42.0570 C   0  0  0  0  0  0  0  0  0  0  0  0
   38.7530   24.5860   42.4180 N   0  0  0  0  0  0  0  0  0  0  0  0
   36.6130   24.1640   42.4160 H   0  0  0  0  0  0  0  0  0  0  0  0
   36.0040   26.2250   41.3450 H   0  0  0  0  0  0  0  0  0  0  0  0
   40.7270   25.2690   42.2740 H   0  0  0  0  0  0  0  0  0  0  0  0
   38.6710   29.2170   42.4980 O   0  0  0  0  0  0  0  0  0  0  0  0
   39.4810   28.6800   42.6980 H   0  0  0  0  0  0  0  0  0  0  0  0
   35.6350   31.0400   41.4030 O   0  0  0  0  0  0  0  0  0  0  0  0
   34.8800   31.5970   41.1380 H   0  0  0  0  0  0  0  0  0  0  0  0
   38.7410   31.4090   39.8660 O   0  0  0  0  0  0  0  0  0  0  0  0
   40.1730   32.3480   41.5110 N   0  0  0  0  0  0  0  0  0  0  0  0
   41.3130   31.7520   40.7720 C   0  0  0  0  0  0  0  0  0  0  0  0
   41.6070   32.9070   39.8350 C   0  0  0  0  0  0  0  0  0  0  0  0
   40.1990   33.2680   39.3890 C   0  0  0  0  0  0  0  0  0  0  0  0
   39.2820   32.5580   40.3970 C   0  0  1  0  0  0  0  0  0  0  0  0
   40.4830   33.2980   41.8180 H   0  0  0  0  0  0  0  0  0  0  0  0
   42.1330   31.5390   41.4730 H   0  0  0  0  0  0  0  0  0  0  0  0
   40.9650   30.9010   40.1840 H   0  0  0  0  0  0  0  0  0  0  0  0
   42.2500   32.5950   38.9870 H   0  0  0  0  0  0  0  0  0  0  0  0
   42.1050   33.7340   40.3940 H   0  0  0  0  0  0  0  0  0  0  0  0
   40.0060   32.8880   38.3620 H   0  0  0  0  0  0  0  0  0  0  0  0
   40.0540   34.3580   39.3870 H   0  0  0  0  0  0  0  0  0  0  0  0
   38.2270   33.5830   40.6950 C   0  0  0  0  0  0  0  0  0  0  0  0
   37.8070   34.0290   41.5530 H   0  0  0  0  0  0  0  0  0  0  0  0
   37.6610   34.0680   39.7150 O   0  0  0  0  0  0  0  0  0  0  0  0
  1  7  1  6  0  0  0
  1 22  1  0  0  0  0
  2  8  1  6  0  0  0
  2  3  1  0  0  0  0
  2  1  1  0  0  0  0
  2 15  1  0  0  0  0
  4  5  1  0  0  0  0
  4  3  1  0  0  0  0
  5 11  1  6  0  0  0
  5  6  1  0  0  0  0
  5 24  1  0  0  0  0
  6  1  1  0  0  0  0
  6 12  1  1  0  0  0
  9  4  1  0  0  0  0
 10  4  1  0  0  0  0
 13 19  1  0  0  0  0
 13 18  1  0  0  0  0
 14 13  2  0  0  0  0
 15 16  2  0  0  0  0
 15 14  1  0  0  0  0
 16 17  1  0  0  0  0
 17 21  1  0  0  0  0
 17 18  2  0  0  0  0
 20 14  1  0  0  0  0
 22 23  1  0  0  0  0
 25 24  1  0  0  0  0
 26  6  1  0  0  0  0
 27 32  1  0  0  0  0
 28 33  1  0  0  0  0
 28 27  1  0  0  0  0
 29 36  1  0  0  0  0
 29 28  1  0  0  0  0
 30 29  1  0  0  0  0
 30 31  1  0  0  0  0
 31 26  1  6  0  0  0
 31 39  1  0  0  0  0
 31 27  1  0  0  0  0
 34 28  1  0  0  0  0
 35 29  1  0  0  0  0
 37 30  1  0  0  0  0
 38 30  1  0  0  0  0
 39 40  1  0  0  0  0
 41 39  2  0  0  0  0
M  END
>  <minimizedAffinity>
-5.2765336

$$$$

 OpenBabel03242521313D

 41 43  0  0  1  0  0  0  0  0999 V2000
   36.8160   28.7310   39.5230 C   0  0  1  0  0  0  0  0  0  0  0  0
   36.9800   29.8040   38.4470 C   0  0  2  0  0  0  0  0  0  0  0  0
   36.3900   30.9800   38.8020 O   0  0  0  0  0  0  0  0  0  0  0  0
   37.1030   31.5230   39.8370 C   0  0  0  0  0  0  0  0  0  0  0  0
   36.8920   30.7100   41.0710 C   0  0  2  0  0  0  0  0  0  0  0  0
   37.0240   29.2090   40.8930 C   0  0  2  0  0  0  0  0  0  0  0  0
   37.6280   27.9750   39.2920 H   0  0  0  0  0  0  0  0  0  0  0  0
   38.0910   29.9600   38.3750 H   0  0  0  0  0  0  0  0  0  0  0  0
   38.1730   31.6430   39.5710 H   0  0  0  0  0  0  0  0  0  0  0  0
   36.7130   32.5390   40.0420 H   0  0  0  0  0  0  0  0  0  0  0  0
   37.6220   31.0290   41.8140 H   0  0  0  0  0  0  0  0  0  0  0  0
   36.2550   28.8050   41.5830 H   0  0  0  0  0  0  0  0  0  0  0  0
   36.8120   28.4020   34.9320 C   0  0  0  0  0  0  0  0  0  0  0  0
   37.3430   28.8490   36.1490 C   0  0  0  0  0  0  0  0  0  0  0  0
   36.4480   29.3200   37.1660 C   0  0  0  0  0  0  0  0  0  0  0  0
   35.1300   29.3150   36.9170 N   0  0  0  0  0  0  0  0  0  0  0  0
   34.6470   28.8700   35.7130 C   0  0  0  0  0  0  0  0  0  0  0  0
   35.4740   28.4210   34.7350 N   0  0  0  0  0  0  0  0  0  0  0  0
   37.5660   28.0670   34.2310 H   0  0  0  0  0  0  0  0  0  0  0  0
   38.4140   28.8470   36.3380 H   0  0  0  0  0  0  0  0  0  0  0  0
   33.5770   28.8650   35.5040 H   0  0  0  0  0  0  0  0  0  0  0  0
   35.6400   28.0140   39.3660 O   0  0  0  0  0  0  0  0  0  0  0  0
   35.7340   27.2480   38.7420 H   0  0  0  0  0  0  0  0  0  0  0  0
   35.5930   31.0400   41.5060 O   0  0  0  0  0  0  0  0  0  0  0  0
   35.5830   31.7800   42.1410 H   0  0  0  0  0  0  0  0  0  0  0  0
   38.2410   28.7750   41.4630 O   0  0  0  0  0  0  0  0  0  0  0  0
   37.9230   26.4560   41.8630 N   0  0  0  0  0  0  0  0  0  0  0  0
   39.3270   26.2500   41.4360 C   0  0  0  0  0  0  0  0  0  0  0  0
   40.0030   26.4070   42.7840 C   0  0  0  0  0  0  0  0  0  0  0  0
   39.2830   27.6370   43.3140 C   0  0  0  0  0  0  0  0  0  0  0  0
   38.0550   27.7860   42.4030 C   0  0  1  0  0  0  0  0  0  0  0  0
   37.7670   25.8260   42.6820 H   0  0  0  0  0  0  0  0  0  0  0  0
   39.4360   25.2430   41.0060 H   0  0  0  0  0  0  0  0  0  0  0  0
   39.6390   27.0720   40.7890 H   0  0  0  0  0  0  0  0  0  0  0  0
   41.0950   26.5690   42.6810 H   0  0  0  0  0  0  0  0  0  0  0  0
   39.8190   25.5010   43.4090 H   0  0  0  0  0  0  0  0  0  0  0  0
   39.9340   28.5350   43.2300 H   0  0  0  0  0  0  0  0  0  0  0  0
   39.0080   27.5070   44.3710 H   0  0  0  0  0  0  0  0  0  0  0  0
   36.9490   28.1290   43.3570 C   0  0  0  0  0  0  0  0  0  0  0  0
   36.6060   28.9890   43.8600 H   0  0  0  0  0  0  0  0  0  0  0  0
   36.2130   27.1970   43.6800 O   0  0  0  0  0  0  0  0  0  0  0  0
  1  7  1  6  0  0  0
  1  6  1  0  0  0  0
  2  8  1  6  0  0  0
  2  3  1  0  0  0  0
  2  1  1  0  0  0  0
  3  4  1  0  0  0  0
  4 10  1  0  0  0  0
  4  5  1  0  0  0  0
  5 24  1  0  0  0  0
  5 11  1  1  0  0  0
  6  5  1  0  0  0  0
  6 26  1  0  0  0  0
  6 12  1  1  0  0  0
  9  4  1  0  0  0  0
 13 14  1  0  0  0  0
 14 20  1  0  0  0  0
 14 15  2  0  0  0  0
 15  2  1  0  0  0  0
 16 15  1  0  0  0  0
 17 16  2  0  0  0  0
 18 13  2  0  0  0  0
 18 17  1  0  0  0  0
 19 13  1  0  0  0  0
 21 17  1  0  0  0  0
 22  1  1  0  0  0  0
 23 22  1  0  0  0  0
 24 25  1  0  0  0  0
 27 31  1  0  0  0  0
 27 32  1  0  0  0  0
 28 27  1  0  0  0  0
 28 29  1  0  0  0  0
 29 30  1  0  0  0  0
 29 36  1  0  0  0  0
 30 38  1  0  0  0  0
 31 26  1  6  0  0  0
 31 30  1  0  0  0  0
 31 39  1  0  0  0  0
 33 28  1  0  0  0  0
 34 28  1  0  0  0  0
 35 29  1  0  0  0  0
 37 30  1  0  0  0  0
 39 41  2  0  0  0  0
 39 40  1  0  0  0  0
M  END
>  <minimizedAffinity>
-5.16445971

$$$$

 OpenBabel03242521313D

 41 43  0  0  1  0  0  0  0  0999 V2000
   39.8460   31.4390   39.9560 C   0  0  1  0  0  0  0  0  0  0  0  0
   40.4370   32.8480   39.9980 C   0  0  2  0  0  0  0  0  0  0  0  0
   39.5280   33.7960   39.6320 O   0  0  0  0  0  0  0  0  0  0  0  0
   38.5710   33.8730   40.6080 C   0  0  0  0  0  0  0  0  0  0  0  0
   37.7300   32.6410   40.5840 C   0  0  2  0  0  0  0  0  0  0  0  0
   38.4930   31.3320   40.5090 C   0  0  2  0  0  0  0  0  0  0  0  0
   40.5390   30.8250   40.6100 H   0  0  0  0  0  0  0  0  0  0  0  0
   40.7120   33.0040   41.0770 H   0  0  0  0  0  0  0  0  0  0  0  0
   39.0240   34.0730   41.6010 H   0  0  0  0  0  0  0  0  0  0  0  0
   37.9060   34.7300   40.3860 H   0  0  0  0  0  0  0  0  0  0  0  0
   37.1230   32.6280   41.4890 H   0  0  0  0  0  0  0  0  0  0  0  0
   37.8440   30.6980   39.8700 H   0  0  0  0  0  0  0  0  0  0  0  0
   42.9180   34.0160   37.3840 C   0  0  0  0  0  0  0  0  0  0  0  0
   41.7720   33.9760   38.1900 C   0  0  0  0  0  0  0  0  0  0  0  0
   41.6340   32.9190   39.1500 C   0  0  0  0  0  0  0  0  0  0  0  0
   42.6100   32.0030   39.2450 N   0  0  0  0  0  0  0  0  0  0  0  0
   43.7180   32.0750   38.4400 C   0  0  0  0  0  0  0  0  0  0  0  0
   43.8710   33.0650   37.5230 N   0  0  0  0  0  0  0  0  0  0  0  0
   42.9290   34.8490   36.6940 H   0  0  0  0  0  0  0  0  0  0  0  0
   40.9890   34.7240   38.1020 H   0  0  0  0  0  0  0  0  0  0  0  0
   44.5140   31.3340   38.5110 H   0  0  0  0  0  0  0  0  0  0  0  0
   39.9740   30.8600   38.7030 O   0  0  0  0  0  0  0  0  0  0  0  0
   40.8450   30.4030   38.5740 H   0  0  0  0  0  0  0  0  0  0  0  0
   36.9000   32.7900   39.4560 O   0  0  0  0  0  0  0  0  0  0  0  0
   36.0490   33.2170   39.6650 H   0  0  0  0  0  0  0  0  0  0  0  0
   38.4470   30.6890   41.7660 O   0  0  0  0  0  0  0  0  0  0  0  0
   38.5700   28.4160   41.0930 N   0  0  0  0  0  0  0  0  0  0  0  0
   39.5730   28.2140   42.1660 C   0  0  0  0  0  0  0  0  0  0  0  0
   38.6310   27.8460   43.2950 C   0  0  0  0  0  0  0  0  0  0  0  0
   37.5530   28.9020   43.1130 C   0  0  0  0  0  0  0  0  0  0  0  0
   37.8060   29.4730   41.7090 C   0  0  1  0  0  0  0  0  0  0  0  0
   37.9540   27.5710   41.1010 H   0  0  0  0  0  0  0  0  0  0  0  0
   40.2550   27.3990   41.8820 H   0  0  0  0  0  0  0  0  0  0  0  0
   40.0530   29.1660   42.4040 H   0  0  0  0  0  0  0  0  0  0  0  0
   39.1270   27.9170   44.2850 H   0  0  0  0  0  0  0  0  0  0  0  0
   38.2450   26.8100   43.1460 H   0  0  0  0  0  0  0  0  0  0  0  0
   37.6590   29.7040   43.8770 H   0  0  0  0  0  0  0  0  0  0  0  0
   36.5500   28.4620   43.2110 H   0  0  0  0  0  0  0  0  0  0  0  0
   36.4290   29.5970   41.1260 C   0  0  0  0  0  0  0  0  0  0  0  0
   35.8460   30.3570   40.6850 H   0  0  0  0  0  0  0  0  0  0  0  0
   35.7480   28.5730   41.1400 O   0  0  0  0  0  0  0  0  0  0  0  0
  1  2  1  0  0  0  0
  1  6  1  0  0  0  0
  1  7  1  1  0  0  0
  2  8  1  1  0  0  0
  3  2  1  0  0  0  0
  3  4  1  0  0  0  0
  4  9  1  0  0  0  0
  5  4  1  0  0  0  0
  5 11  1  1  0  0  0
  6 12  1  6  0  0  0
  6  5  1  0  0  0  0
  6 26  1  0  0  0  0
 10  4  1  0  0  0  0
 13 18  2  0  0  0  0
 13 14  1  0  0  0  0
 14 15  2  0  0  0  0
 15 16  1  0  0  0  0
 15  2  1  0  0  0  0
 17 21  1  0  0  0  0
 17 16  2  0  0  0  0
 18 17  1  0  0  0  0
 19 13  1  0  0  0  0
 20 14  1  0  0  0  0
 22  1  1  0  0  0  0
 23 22  1  0  0  0  0
 24 25  1  0  0  0  0
 24  5  1  0  0  0  0
 27 32  1  0  0  0  0
 27 31  1  0  0  0  0
 27 28  1  0  0  0  0
 28 34  1  0  0  0  0
 28 29  1  0  0  0  0
 29 35  1  0  0  0  0
 30 38  1  0  0  0  0
 30 29  1  0  0  0  0
 30 37  1  0  0  0  0
 31 39  1  6  0  0  0
 31 26  1  0  0  0  0
 31 30  1  0  0  0  0
 33 28  1  0  0  0  0
 36 29  1  0  0  0  0
 39 41  2  0  0  0  0
 40 39  1  0  0  0  0
M  END
>  <minimizedAffinity>
-5.01961994

$$$$

 OpenBabel03242521313D

 41 43  0  0  1  0  0  0  0  0999 V2000
   39.0270   31.3190   38.8740 C   0  0  1  0  0  0  0  0  0  0  0  0
   37.6200   31.8520   39.1410 C   0  0  2  0  0  0  0  0  0  0  0  0
   37.5670   32.6190   40.2660 O   0  0  0  0  0  0  0  0  0  0  0  0
   38.2560   33.7780   40.0290 C   0  0  0  0  0  0  0  0  0  0  0  0
   39.7170   33.4850   39.9480 C   0  0  2  0  0  0  0  0  0  0  0  0
   40.0970   32.3010   39.0780 C   0  0  2  0  0  0  0  0  0  0  0  0
   39.0180   31.0380   37.7760 H   0  0  0  0  0  0  0  0  0  0  0  0
   37.3920   32.4970   38.2490 H   0  0  0  0  0  0  0  0  0  0  0  0
   37.8660   34.3030   39.1330 H   0  0  0  0  0  0  0  0  0  0  0  0
   38.1060   34.4620   40.8860 H   0  0  0  0  0  0  0  0  0  0  0  0
   40.2180   34.3690   39.5540 H   0  0  0  0  0  0  0  0  0  0  0  0
   40.9560   31.8560   39.6200 H   0  0  0  0  0  0  0  0  0  0  0  0
   35.3090   29.0250   38.1320 C   0  0  0  0  0  0  0  0  0  0  0  0
   36.2280   30.0790   38.0280 C   0  0  0  0  0  0  0  0  0  0  0  0
   36.6660   30.7390   39.2230 C   0  0  0  0  0  0  0  0  0  0  0  0
   36.1810   30.3240   40.4040 N   0  0  0  0  0  0  0  0  0  0  0  0
   35.2820   29.2900   40.4660 C   0  0  0  0  0  0  0  0  0  0  0  0
   34.8520   28.6500   39.3490 N   0  0  0  0  0  0  0  0  0  0  0  0
   35.0410   28.5930   37.1770 H   0  0  0  0  0  0  0  0  0  0  0  0
   36.6130   30.4040   37.0650 H   0  0  0  0  0  0  0  0  0  0  0  0
   34.8830   28.9490   41.4210 H   0  0  0  0  0  0  0  0  0  0  0  0
   39.2580   30.1160   39.5220 O   0  0  0  0  0  0  0  0  0  0  0  0
   38.9560   29.3290   38.9980 H   0  0  0  0  0  0  0  0  0  0  0  0
   40.1180   33.2640   41.2800 O   0  0  0  0  0  0  0  0  0  0  0  0
   40.4310   34.0750   41.7210 H   0  0  0  0  0  0  0  0  0  0  0  0
   40.6710   32.7670   37.8750 O   0  0  0  0  0  0  0  0  0  0  0  0
   42.8110   33.0920   36.9010 N   0  0  0  0  0  0  0  0  0  0  0  0
   43.0590   34.1270   37.9340 C   0  0  0  0  0  0  0  0  0  0  0  0
   43.6630   33.2420   39.0050 C   0  0  0  0  0  0  0  0  0  0  0  0
   42.7000   32.0660   38.9710 C   0  0  0  0  0  0  0  0  0  0  0  0
   41.9240   32.2420   37.6560 C   0  0  1  0  0  0  0  0  0  0  0  0
   43.7040   32.5580   36.7960 H   0  0  0  0  0  0  0  0  0  0  0  0
   43.7600   34.8780   37.5400 H   0  0  0  0  0  0  0  0  0  0  0  0
   42.1070   34.5190   38.2970 H   0  0  0  0  0  0  0  0  0  0  0  0
   43.6790   33.7440   39.9940 H   0  0  0  0  0  0  0  0  0  0  0  0
   44.7020   32.9520   38.7190 H   0  0  0  0  0  0  0  0  0  0  0  0
   42.0020   32.1090   39.8360 H   0  0  0  0  0  0  0  0  0  0  0  0
   43.2420   31.1100   39.0120 H   0  0  0  0  0  0  0  0  0  0  0  0
   41.8540   30.8510   37.1000 C   0  0  0  0  0  0  0  0  0  0  0  0
   41.2900   29.9780   37.2780 H   0  0  0  0  0  0  0  0  0  0  0  0
   42.6450   30.5970   36.1910 O   0  0  0  0  0  0  0  0  0  0  0  0
  1  7  1  6  0  0  0
  1  6  1  0  0  0  0
  1  2  1  0  0  0  0
  1 22  1  0  0  0  0
  2  8  1  6  0  0  0
  2 15  1  0  0  0  0
  2  3  1  0  0  0  0
  4  3  1  0  0  0  0
  4 10  1  0  0  0  0
  5 11  1  6  0  0  0
  5  4  1  0  0  0  0
  5 24  1  0  0  0  0
  6 12  1  1  0  0  0
  6  5  1  0  0  0  0
  9  4  1  0  0  0  0
 13 18  1  0  0  0  0
 14 13  2  0  0  0  0
 14 15  1  0  0  0  0
 15 16  2  0  0  0  0
 16 17  1  0  0  0  0
 17 21  1  0  0  0  0
 18 17  2  0  0  0  0
 19 13  1  0  0  0  0
 20 14  1  0  0  0  0
 23 22  1  0  0  0  0
 24 25  1  0  0  0  0
 26  6  1  0  0  0  0
 27 31  1  0  0  0  0
 27 28  1  0  0  0  0
 28 34  1  0  0  0  0
 28 29  1  0  0  0  0
 29 35  1  0  0  0  0
 30 29  1  0  0  0  0
 30 38  1  0  0  0  0
 30 37  1  0  0  0  0
 31 39  1  6  0  0  0
 31 26  1  0  0  0  0
 31 30  1  0  0  0  0
 32 27  1  0  0  0  0
 33 28  1  0  0  0  0
 36 29  1  0  0  0  0
 39 40  1  0  0  0  0
 41 39  2  0  0  0  0
M  END
>  <minimizedAffinity>
-5.01338339

$$$$

 OpenBabel03242521313D

 41 43  0  0  1  0  0  0  0  0999 V2000
   39.3310   31.0660   40.7000 C   0  0  1  0  0  0  0  0  0  0  0  0
   38.1460   30.1200   40.5110 C   0  0  2  0  0  0  0  0  0  0  0  0
   36.9570   30.7860   40.4910 O   0  0  0  0  0  0  0  0  0  0  0  0
   36.8990   31.5270   39.3410 C   0  0  0  0  0  0  0  0  0  0  0  0
   37.8640   32.6620   39.4280 C   0  0  2  0  0  0  0  0  0  0  0  0
   39.2560   32.2990   39.9100 C   0  0  2  0  0  0  0  0  0  0  0  0
   40.2260   30.4730   40.3350 H   0  0  0  0  0  0  0  0  0  0  0  0
   38.3200   29.6530   39.5030 H   0  0  0  0  0  0  0  0  0  0  0  0
   37.0510   30.8920   38.4440 H   0  0  0  0  0  0  0  0  0  0  0  0
   35.8860   31.9630   39.2510 H   0  0  0  0  0  0  0  0  0  0  0  0
   37.9540   33.1050   38.4360 H   0  0  0  0  0  0  0  0  0  0  0  0
   39.5530   33.1830   40.5110 H   0  0  0  0  0  0  0  0  0  0  0  0
   38.8370   26.8890   42.3650 C   0  0  0  0  0  0  0  0  0  0  0  0
   38.8580   27.8600   41.3540 C   0  0  0  0  0  0  0  0  0  0  0  0
   38.1500   29.0910   41.5580 C   0  0  0  0  0  0  0  0  0  0  0  0
   37.4910   29.2710   42.7140 N   0  0  0  0  0  0  0  0  0  0  0  0
   37.4930   28.2980   43.6800 C   0  0  0  0  0  0  0  0  0  0  0  0
   38.1550   27.1240   43.5090 N   0  0  0  0  0  0  0  0  0  0  0  0
   39.4000   25.9980   42.1160 H   0  0  0  0  0  0  0  0  0  0  0  0
   39.3960   27.7010   40.4230 H   0  0  0  0  0  0  0  0  0  0  0  0
   36.9600   28.4370   44.6200 H   0  0  0  0  0  0  0  0  0  0  0  0
   39.6070   31.2910   42.0400 O   0  0  0  0  0  0  0  0  0  0  0  0
   40.2060   30.6040   42.4330 H   0  0  0  0  0  0  0  0  0  0  0  0
   37.2640   33.5820   40.3090 O   0  0  0  0  0  0  0  0  0  0  0  0
   36.7170   34.2460   39.8490 H   0  0  0  0  0  0  0  0  0  0  0  0
   40.1520   32.3240   38.8190 O   0  0  0  0  0  0  0  0  0  0  0  0
   42.4310   32.1270   39.4560 N   0  0  0  0  0  0  0  0  0  0  0  0
   42.6980   31.5700   38.1080 C   0  0  0  0  0  0  0  0  0  0  0  0
   42.9970   32.8650   37.3800 C   0  0  0  0  0  0  0  0  0  0  0  0
   41.8700   33.7430   37.9000 C   0  0  0  0  0  0  0  0  0  0  0  0
   41.3230   32.9850   39.1190 C   0  0  1  0  0  0  0  0  0  0  0  0
   43.2310   32.7620   39.6780 H   0  0  0  0  0  0  0  0  0  0  0  0
   43.5590   30.8870   38.1570 H   0  0  0  0  0  0  0  0  0  0  0  0
   41.7810   31.1400   37.7000 H   0  0  0  0  0  0  0  0  0  0  0  0
   42.9580   32.7370   36.2790 H   0  0  0  0  0  0  0  0  0  0  0  0
   44.0050   33.2430   37.6740 H   0  0  0  0  0  0  0  0  0  0  0  0
   41.0760   33.8540   37.1290 H   0  0  0  0  0  0  0  0  0  0  0  0
   42.2400   34.7450   38.1610 H   0  0  0  0  0  0  0  0  0  0  0  0
   41.1050   34.0650   40.1370 C   0  0  0  0  0  0  0  0  0  0  0  0
   40.3830   34.8090   40.3270 H   0  0  0  0  0  0  0  0  0  0  0  0
   41.9690   34.1610   41.0080 O   0  0  0  0  0  0  0  0  0  0  0  0
  1  7  1  6  0  0  0
  1 22  1  0  0  0  0
  2  8  1  6  0  0  0
  2  1  1  0  0  0  0
  2 15  1  0  0  0  0
  3  2  1  0  0  0  0
  4  5  1  0  0  0  0
  4  3  1  0  0  0  0
  5 11  1  6  0  0  0
  5  6  1  0  0  0  0
  5 24  1  0  0  0  0
  6 12  1  1  0  0  0
  6  1  1  0  0  0  0
  9  4  1  0  0  0  0
 10  4  1  0  0  0  0
 13 18  1  0  0  0  0
 14 15  1  0  0  0  0
 14 13  2  0  0  0  0
 15 16  2  0  0  0  0
 16 17  1  0  0  0  0
 17 21  1  0  0  0  0
 18 17  2  0  0  0  0
 19 13  1  0  0  0  0
 20 14  1  0  0  0  0
 22 23  1  0  0  0  0
 25 24  1  0  0  0  0
 26  6  1  0  0  0  0
 27 32  1  0  0  0  0
 28 33  1  0  0  0  0
 28 27  1  0  0  0  0
 29 36  1  0  0  0  0
 29 30  1  0  0  0  0
 29 28  1  0  0  0  0
 30 38  1  0  0  0  0
 30 31  1  0  0  0  0
 31 26  1  6  0  0  0
 31 27  1  0  0  0  0
 31 39  1  0  0  0  0
 34 28  1  0  0  0  0
 35 29  1  0  0  0  0
 37 30  1  0  0  0  0
 39 40  1  0  0  0  0
 39 41  2  0  0  0  0
M  END
>  <minimizedAffinity>
-4.98035765

$$$$

 OpenBabel03242521313D

 41 43  0  0  1  0  0  0  0  0999 V2000
   38.2800   28.8870   40.5560 C   0  0  1  0  0  0  0  0  0  0  0  0
   37.2830   27.7650   40.2670 C   0  0  2  0  0  0  0  0  0  0  0  0
   36.0550   28.0220   40.8000 O   0  0  0  0  0  0  0  0  0  0  0  0
   35.4970   29.0650   40.1100 C   0  0  0  0  0  0  0  0  0  0  0  0
   36.2230   30.3270   40.4380 C   0  0  2  0  0  0  0  0  0  0  0  0
   37.7370   30.2390   40.3910 C   0  0  2  0  0  0  0  0  0  0  0  0
   39.0960   28.7440   39.7820 H   0  0  0  0  0  0  0  0  0  0  0  0
   37.1990   27.7480   39.1470 H   0  0  0  0  0  0  0  0  0  0  0  0
   35.4580   28.8530   39.0220 H   0  0  0  0  0  0  0  0  0  0  0  0
   34.4500   29.1920   40.4460 H   0  0  0  0  0  0  0  0  0  0  0  0
   35.9070   31.0920   39.7290 H   0  0  0  0  0  0  0  0  0  0  0  0
   38.0540   30.9050   41.2190 H   0  0  0  0  0  0  0  0  0  0  0  0
   37.5510   24.4730   42.1220 C   0  0  0  0  0  0  0  0  0  0  0  0
   37.0240   25.6860   41.6570 C   0  0  0  0  0  0  0  0  0  0  0  0
   37.8080   26.4850   40.7600 C   0  0  0  0  0  0  0  0  0  0  0  0
   39.0210   26.0420   40.3940 N   0  0  0  0  0  0  0  0  0  0  0  0
   39.5030   24.8500   40.8700 C   0  0  0  0  0  0  0  0  0  0  0  0
   38.7810   24.0760   41.7210 N   0  0  0  0  0  0  0  0  0  0  0  0
   36.8860   23.9440   42.7920 H   0  0  0  0  0  0  0  0  0  0  0  0
   36.0400   26.0320   41.9620 H   0  0  0  0  0  0  0  0  0  0  0  0
   40.4880   24.4850   40.5780 H   0  0  0  0  0  0  0  0  0  0  0  0
   38.9340   28.7030   41.7640 O   0  0  0  0  0  0  0  0  0  0  0  0
   39.7380   28.1280   41.6870 H   0  0  0  0  0  0  0  0  0  0  0  0
   35.7910   30.6690   41.7340 O   0  0  0  0  0  0  0  0  0  0  0  0
   35.0170   31.2610   41.7320 H   0  0  0  0  0  0  0  0  0  0  0  0
   38.2110   30.8990   39.2360 O   0  0  0  0  0  0  0  0  0  0  0  0
   39.2290   33.0000   38.8080 N   0  0  0  0  0  0  0  0  0  0  0  0
   38.1000   33.6290   39.5360 C   0  0  0  0  0  0  0  0  0  0  0  0
   38.6890   33.6100   40.9330 C   0  0  0  0  0  0  0  0  0  0  0  0
   39.2530   32.1990   40.9780 C   0  0  0  0  0  0  0  0  0  0  0  0
   39.2640   31.7420   39.5100 C   0  0  1  0  0  0  0  0  0  0  0  0
   40.0910   33.5170   39.0960 H   0  0  0  0  0  0  0  0  0  0  0  0
   37.9320   34.6430   39.1460 H   0  0  0  0  0  0  0  0  0  0  0  0
   37.2330   32.9670   39.5110 H   0  0  0  0  0  0  0  0  0  0  0  0
   37.9150   33.7790   41.7090 H   0  0  0  0  0  0  0  0  0  0  0  0
   39.4810   34.3910   41.0220 H   0  0  0  0  0  0  0  0  0  0  0  0
   38.5950   31.5350   41.5810 H   0  0  0  0  0  0  0  0  0  0  0  0
   40.2570   32.1900   41.4260 H   0  0  0  0  0  0  0  0  0  0  0  0
   40.5850   31.0440   39.3690 C   0  0  0  0  0  0  0  0  0  0  0  0
   41.2030   30.7190   38.5800 H   0  0  0  0  0  0  0  0  0  0  0  0
   41.1460   30.7430   40.4220 O   0  0  0  0  0  0  0  0  0  0  0  0
  1  7  1  6  0  0  0
  1 22  1  0  0  0  0
  2  8  1  6  0  0  0
  2  1  1  0  0  0  0
  2 15  1  0  0  0  0
  2  3  1  0  0  0  0
  4  5  1  0  0  0  0
  4 10  1  0  0  0  0
  4  3  1  0  0  0  0
  5 11  1  6  0  0  0
  5 24  1  0  0  0  0
  6  5  1  0  0  0  0
  6  1  1  0  0  0  0
  6 12  1  1  0  0  0
  9  4  1  0  0  0  0
 13 19  1  0  0  0  0
 14 20  1  0  0  0  0
 14 13  2  0  0  0  0
 15 14  1  0  0  0  0
 16 15  2  0  0  0  0
 16 17  1  0  0  0  0
 17 18  2  0  0  0  0
 18 13  1  0  0  0  0
 21 17  1  0  0  0  0
 23 22  1  0  0  0  0
 25 24  1  0  0  0  0
 26  6  1  0  0  0  0
 27 32  1  0  0  0  0
 27 31  1  0  0  0  0
 27 28  1  0  0  0  0
 28 29  1  0  0  0  0
 29 30  1  0  0  0  0
 29 36  1  0  0  0  0
 29 35  1  0  0  0  0
 30 38  1  0  0  0  0
 30 37  1  0  0  0  0
 31 26  1  6  0  0  0
 31 30  1  0  0  0  0
 33 28  1  0  0  0  0
 34 28  1  0  0  0  0
 39 31  1  0  0  0  0
 39 41  2  0  0  0  0
 40 39  1  0  0  0  0
M  END
>  <minimizedAffinity>
-4.97513485

$$$$

 OpenBabel03242521313D

 41 43  0  0  1  0  0  0  0  0999 V2000
   39.4760   31.8670   39.1430 C   0  0  1  0  0  0  0  0  0  0  0  0
   40.3480   32.9530   39.7710 C   0  0  2  0  0  0  0  0  0  0  0  0
   39.7170   34.1610   39.8060 O   0  0  0  0  0  0  0  0  0  0  0  0
   38.6890   34.0820   40.7070 C   0  0  0  0  0  0  0  0  0  0  0  0
   37.6100   33.2080   40.1610 C   0  0  2  0  0  0  0  0  0  0  0  0
   38.0750   31.8890   39.5730 C   0  0  2  0  0  0  0  0  0  0  0  0
   39.9350   30.8950   39.5020 H   0  0  0  0  0  0  0  0  0  0  0  0
   40.5180   32.6000   40.8250 H   0  0  0  0  0  0  0  0  0  0  0  0
   39.0510   33.7580   41.7040 H   0  0  0  0  0  0  0  0  0  0  0  0
   38.2570   35.0930   40.8410 H   0  0  0  0  0  0  0  0  0  0  0  0
   36.9100   32.9910   40.9680 H   0  0  0  0  0  0  0  0  0  0  0  0
   37.3870   31.7380   38.7170 H   0  0  0  0  0  0  0  0  0  0  0  0
   43.9470   32.3550   38.7490 C   0  0  0  0  0  0  0  0  0  0  0  0
   42.7350   32.2330   39.4440 C   0  0  0  0  0  0  0  0  0  0  0  0
   41.6250   33.0540   39.0530 C   0  0  0  0  0  0  0  0  0  0  0  0
   41.7860   33.9120   38.0340 N   0  0  0  0  0  0  0  0  0  0  0  0
   42.9870   34.0030   37.3780 C   0  0  0  0  0  0  0  0  0  0  0  0
   44.0520   33.2380   37.7300 N   0  0  0  0  0  0  0  0  0  0  0  0
   44.7210   31.6940   39.1180 H   0  0  0  0  0  0  0  0  0  0  0  0
   42.6190   31.5340   40.2680 H   0  0  0  0  0  0  0  0  0  0  0  0
   43.1240   34.6980   36.5500 H   0  0  0  0  0  0  0  0  0  0  0  0
   39.6250   31.8140   37.7650 O   0  0  0  0  0  0  0  0  0  0  0  0
   40.3860   31.2450   37.4790 H   0  0  0  0  0  0  0  0  0  0  0  0
   36.9740   33.9880   39.1760 O   0  0  0  0  0  0  0  0  0  0  0  0
   36.2170   34.4940   39.5230 H   0  0  0  0  0  0  0  0  0  0  0  0
   37.7400   30.8380   40.4550 O   0  0  0  0  0  0  0  0  0  0  0  0
   37.8580   28.6330   39.5840 N   0  0  0  0  0  0  0  0  0  0  0  0
   37.9570   28.1490   40.9820 C   0  0  0  0  0  0  0  0  0  0  0  0
   36.4790   27.9740   41.2690 C   0  0  0  0  0  0  0  0  0  0  0  0
   35.9280   29.2660   40.6890 C   0  0  0  0  0  0  0  0  0  0  0  0
   37.0700   29.8160   39.8200 C   0  0  1  0  0  0  0  0  0  0  0  0
   37.2320   27.9630   39.0820 H   0  0  0  0  0  0  0  0  0  0  0  0
   38.5220   27.2060   41.0050 H   0  0  0  0  0  0  0  0  0  0  0  0
   38.3470   28.9450   41.6190 H   0  0  0  0  0  0  0  0  0  0  0  0
   36.2790   27.8810   42.3560 H   0  0  0  0  0  0  0  0  0  0  0  0
   36.0940   27.0690   40.7420 H   0  0  0  0  0  0  0  0  0  0  0  0
   35.6850   29.9860   41.5010 H   0  0  0  0  0  0  0  0  0  0  0  0
   35.0130   29.0790   40.1080 H   0  0  0  0  0  0  0  0  0  0  0  0
   36.3710   30.2950   38.5820 C   0  0  0  0  0  0  0  0  0  0  0  0
   36.3890   31.1540   37.9720 H   0  0  0  0  0  0  0  0  0  0  0  0
   35.5410   29.5230   38.1040 O   0  0  0  0  0  0  0  0  0  0  0  0
  1  7  1  1  0  0  0
  1  6  1  0  0  0  0
  1  2  1  0  0  0  0
  2  3  1  0  0  0  0
  2  8  1  1  0  0  0
  3  4  1  0  0  0  0
  4 10  1  0  0  0  0
  4  9  1  0  0  0  0
  5  4  1  0  0  0  0
  5 11  1  1  0  0  0
  6 12  1  6  0  0  0
  6  5  1  0  0  0  0
  6 26  1  0  0  0  0
 13 19  1  0  0  0  0
 13 14  1  0  0  0  0
 14 20  1  0  0  0  0
 15 14  2  0  0  0  0
 15  2  1  0  0  0  0
 16 15  1  0  0  0  0
 17 18  1  0  0  0  0
 17 16  2  0  0  0  0
 18 13  2  0  0  0  0
 21 17  1  0  0  0  0
 22  1  1  0  0  0  0
 23 22  1  0  0  0  0
 24 25  1  0  0  0  0
 24  5  1  0  0  0  0
 27 31  1  0  0  0  0
 27 28  1  0  0  0  0
 28 33  1  0  0  0  0
 28 29  1  0  0  0  0
 28 34  1  0  0  0  0
 29 35  1  0  0  0  0
 30 29  1  0  0  0  0
 30 37  1  0  0  0  0
 31 39  1  6  0  0  0
 31 26  1  0  0  0  0
 31 30  1  0  0  0  0
 32 27  1  0  0  0  0
 36 29  1  0  0  0  0
 38 30  1  0  0  0  0
 40 39  1  0  0  0  0
 41 39  2  0  0  0  0
M  END
>  <minimizedAffinity>
-4.94382095

$$$$

 OpenBabel03242521313D

 41 43  0  0  1  0  0  0  0  0999 V2000
   37.4500   28.0190   40.6640 C   0  0  1  0  0  0  0  0  0  0  0  0
   38.0220   29.3440   41.1640 C   0  0  2  0  0  0  0  0  0  0  0  0
   37.5060   29.7010   42.3740 O   0  0  0  0  0  0  0  0  0  0  0  0
   37.9800   28.8280   43.3170 C   0  0  0  0  0  0  0  0  0  0  0  0
   37.3520   27.4880   43.1190 C   0  0  2  0  0  0  0  0  0  0  0  0
   37.3440   26.9770   41.6910 C   0  0  2  0  0  0  0  0  0  0  0  0
   38.1960   27.6650   39.8870 H   0  0  0  0  0  0  0  0  0  0  0  0
   39.1230   29.1470   41.2800 H   0  0  0  0  0  0  0  0  0  0  0  0
   39.0890   28.7960   43.3160 H   0  0  0  0  0  0  0  0  0  0  0  0
   37.6760   29.1890   44.3190 H   0  0  0  0  0  0  0  0  0  0  0  0
   37.8920   26.7690   43.7330 H   0  0  0  0  0  0  0  0  0  0  0  0
   36.3770   26.4390   41.6220 H   0  0  0  0  0  0  0  0  0  0  0  0
   37.0840   32.6710   39.6130 C   0  0  0  0  0  0  0  0  0  0  0  0
   37.3040   31.6830   40.5830 C   0  0  0  0  0  0  0  0  0  0  0  0
   37.7940   30.4000   40.1690 C   0  0  0  0  0  0  0  0  0  0  0  0
   38.0270   30.1890   38.8640 N   0  0  0  0  0  0  0  0  0  0  0  0
   37.8000   31.1800   37.9440 C   0  0  0  0  0  0  0  0  0  0  0  0
   37.3360   32.4020   38.3110 N   0  0  0  0  0  0  0  0  0  0  0  0
   36.7150   33.6020   40.0240 H   0  0  0  0  0  0  0  0  0  0  0  0
   37.1110   31.8680   41.6360 H   0  0  0  0  0  0  0  0  0  0  0  0
   37.9860   31.0160   36.8830 H   0  0  0  0  0  0  0  0  0  0  0  0
   36.2800   28.1970   39.9420 O   0  0  0  0  0  0  0  0  0  0  0  0
   36.4420   28.3880   38.9830 H   0  0  0  0  0  0  0  0  0  0  0  0
   36.0350   27.6300   43.5970 O   0  0  0  0  0  0  0  0  0  0  0  0
   35.9460   27.3950   44.5390 H   0  0  0  0  0  0  0  0  0  0  0  0
   38.3040   25.9510   41.5540 O   0  0  0  0  0  0  0  0  0  0  0  0
   37.7440   25.1920   39.3750 N   0  0  0  0  0  0  0  0  0  0  0  0
   39.1910   25.2350   39.0530 C   0  0  0  0  0  0  0  0  0  0  0  0
   39.5600   23.8240   39.4670 C   0  0  0  0  0  0  0  0  0  0  0  0
   38.8290   23.7240   40.7960 C   0  0  0  0  0  0  0  0  0  0  0  0
   37.8460   24.9060   40.7840 C   0  0  1  0  0  0  0  0  0  0  0  0
   37.3670   24.3240   38.9300 H   0  0  0  0  0  0  0  0  0  0  0  0
   39.3220   25.4230   37.9770 H   0  0  0  0  0  0  0  0  0  0  0  0
   39.6950   25.9390   39.7170 H   0  0  0  0  0  0  0  0  0  0  0  0
   40.6570   23.7010   39.5800 H   0  0  0  0  0  0  0  0  0  0  0  0
   39.1800   23.0940   38.7140 H   0  0  0  0  0  0  0  0  0  0  0  0
   39.5430   23.8280   41.6430 H   0  0  0  0  0  0  0  0  0  0  0  0
   38.3180   22.7550   40.8930 H   0  0  0  0  0  0  0  0  0  0  0  0
   36.5830   24.3180   41.3420 C   0  0  0  0  0  0  0  0  0  0  0  0
   36.1140   24.2540   42.2830 H   0  0  0  0  0  0  0  0  0  0  0  0
   35.8590   23.7400   40.5310 O   0  0  0  0  0  0  0  0  0  0  0  0
  1  7  1  6  0  0  0
  1  2  1  0  0  0  0
  1  6  1  0  0  0  0
  2  8  1  1  0  0  0
  2  3  1  0  0  0  0
  3  4  1  0  0  0  0
  4 10  1  0  0  0  0
  5  4  1  0  0  0  0
  5 24  1  0  0  0  0
  5 11  1  1  0  0  0
  6 12  1  6  0  0  0
  6  5  1  0  0  0  0
  9  4  1  0  0  0  0
 13 19  1  0  0  0  0
 13 14  1  0  0  0  0
 14 20  1  0  0  0  0
 15 14  2  0  0  0  0
 15  2  1  0  0  0  0
 16 15  1  0  0  0  0
 17 18  1  0  0  0  0
 17 16  2  0  0  0  0
 18 13  2  0  0  0  0
 21 17  1  0  0  0  0
 22  1  1  0  0  0  0
 23 22  1  0  0  0  0
 24 25  1  0  0  0  0
 26  6  1  0  0  0  0
 27 31  1  0  0  0  0
 28 27  1  0  0  0  0
 28 29  1  0  0  0  0
 28 34  1  0  0  0  0
 29 35  1  0  0  0  0
 29 30  1  0  0  0  0
 30 38  1  0  0  0  0
 30 37  1  0  0  0  0
 31 30  1  0  0  0  0
 31 39  1  1  0  0  0
 31 26  1  0  0  0  0
 32 27  1  0  0  0  0
 33 28  1  0  0  0  0
 36 29  1  0  0  0  0
 39 40  1  0  0  0  0
 41 39  2  0  0  0  0
M  END
>  <minimizedAffinity>
-4.9403677

$$$$

 OpenBabel03242521313D

 41 43  0  0  1  0  0  0  0  0999 V2000
   37.5380   29.5200   38.5050 C   0  0  1  0  0  0  0  0  0  0  0  0
   37.3520   30.4750   39.6830 C   0  0  2  0  0  0  0  0  0  0  0  0
   37.9920   31.6620   39.4870 O   0  0  0  0  0  0  0  0  0  0  0  0
   37.3470   32.3380   38.4860 C   0  0  0  0  0  0  0  0  0  0  0  0
   37.5960   31.6560   37.1810 C   0  0  2  0  0  0  0  0  0  0  0  0
   37.4120   30.1510   37.1870 C   0  0  2  0  0  0  0  0  0  0  0  0
   36.6940   28.7710   38.6140 H   0  0  0  0  0  0  0  0  0  0  0  0
   36.2440   30.6600   39.7200 H   0  0  0  0  0  0  0  0  0  0  0  0
   36.2690   32.4640   38.7150 H   0  0  0  0  0  0  0  0  0  0  0  0
   37.7760   33.3560   38.4120 H   0  0  0  0  0  0  0  0  0  0  0  0
   36.9130   32.0780   36.4450 H   0  0  0  0  0  0  0  0  0  0  0  0
   38.2020   29.7980   36.4930 H   0  0  0  0  0  0  0  0  0  0  0  0
   37.3420   28.4770   42.9020 C   0  0  0  0  0  0  0  0  0  0  0  0
   36.8870   29.0670   41.7150 C   0  0  0  0  0  0  0  0  0  0  0  0
   37.8050   29.8370   40.9260 C   0  0  0  0  0  0  0  0  0  0  0  0
   39.0710   29.9650   41.3530 N   0  0  0  0  0  0  0  0  0  0  0  0
   39.4790   29.3730   42.5210 C   0  0  0  0  0  0  0  0  0  0  0  0
   38.6290   28.6410   43.2850 N   0  0  0  0  0  0  0  0  0  0  0  0
   36.5760   27.9180   43.4240 H   0  0  0  0  0  0  0  0  0  0  0  0
   35.8590   28.9550   41.3810 H   0  0  0  0  0  0  0  0  0  0  0  0
   40.5060   29.4740   42.8730 H   0  0  0  0  0  0  0  0  0  0  0  0
   38.6830   28.7500   38.6360 O   0  0  0  0  0  0  0  0  0  0  0  0
   38.5370   27.9250   39.1670 H   0  0  0  0  0  0  0  0  0  0  0  0
   38.9230   31.9870   36.8460 O   0  0  0  0  0  0  0  0  0  0  0  0
   38.9860   32.7910   36.2970 H   0  0  0  0  0  0  0  0  0  0  0  0
   36.2130   29.8210   36.5180 O   0  0  0  0  0  0  0  0  0  0  0  0
   37.5830   28.5350   35.0680 N   0  0  0  0  0  0  0  0  0  0  0  0
   37.0540   27.3230   35.7400 C   0  0  0  0  0  0  0  0  0  0  0  0
   35.8520   27.0750   34.8500 C   0  0  0  0  0  0  0  0  0  0  0  0
   35.2950   28.4850   34.7350 C   0  0  0  0  0  0  0  0  0  0  0  0
   36.4340   29.3900   35.2300 C   0  0  1  0  0  0  0  0  0  0  0  0
   37.6360   28.3090   34.0490 H   0  0  0  0  0  0  0  0  0  0  0  0
   37.8050   26.5210   35.6950 H   0  0  0  0  0  0  0  0  0  0  0  0
   36.7030   27.5820   36.7410 H   0  0  0  0  0  0  0  0  0  0  0  0
   35.1300   26.3740   35.3190 H   0  0  0  0  0  0  0  0  0  0  0  0
   36.1840   26.6640   33.8670 H   0  0  0  0  0  0  0  0  0  0  0  0
   34.4010   28.6050   35.3850 H   0  0  0  0  0  0  0  0  0  0  0  0
   35.0020   28.7090   33.6990 H   0  0  0  0  0  0  0  0  0  0  0  0
   36.4270   30.5290   34.2530 C   0  0  0  0  0  0  0  0  0  0  0  0
   36.3040   31.5750   34.2920 H   0  0  0  0  0  0  0  0  0  0  0  0
   36.6050   30.2240   33.0740 O   0  0  0  0  0  0  0  0  0  0  0  0
  1  7  1  1  0  0  0
  1 22  1  0  0  0  0
  1  2  1  0  0  0  0
  2  8  1  1  0  0  0
  2 15  1  0  0  0  0
  3  2  1  0  0  0  0
  4  9  1  0  0  0  0
  4  3  1  0  0  0  0
  5 11  1  6  0  0  0
  5  6  1  0  0  0  0
  5  4  1  0  0  0  0
  6 12  1  6  0  0  0
  6  1  1  0  0  0  0
 10  4  1  0  0  0  0
 13 18  1  0  0  0  0
 13 19  1  0  0  0  0
 14 13  2  0  0  0  0
 15 16  2  0  0  0  0
 15 14  1  0  0  0  0
 16 17  1  0  0  0  0
 17 21  1  0  0  0  0
 17 18  2  0  0  0  0
 20 14  1  0  0  0  0
 22 23  1  0  0  0  0
 24  5  1  0  0  0  0
 25 24  1  0  0  0  0
 26  6  1  0  0  0  0
 27 31  1  0  0  0  0
 27 28  1  0  0  0  0
 28 34  1  0  0  0  0
 29 35  1  0  0  0  0
 29 28  1  0  0  0  0
 30 29  1  0  0  0  0
 30 31  1  0  0  0  0
 30 37  1  0  0  0  0
 31 39  1  6  0  0  0
 31 26  1  0  0  0  0
 32 27  1  0  0  0  0
 33 28  1  0  0  0  0
 36 29  1  0  0  0  0
 38 30  1  0  0  0  0
 39 40  1  0  0  0  0
 41 39  2  0  0  0  0
M  END
>  <minimizedAffinity>
-4.91841793

$$$$
