
 OpenBabel03252506073D

 37 40  0  0  0  0  0  0  0  0999 V2000
   36.9120   33.9090   39.0410 Cl  0  0  0  0  0  0  0  0  0  0  0  0
   37.3730   32.4250   39.8030 C   0  0  0  0  0  0  0  0  0  0  0  0
   38.6980   32.1950   40.1330 C   0  0  0  0  0  0  0  0  0  0  0  0
   38.9530   30.9820   40.7360 C   0  0  0  0  0  0  0  0  0  0  0  0
   38.0070   30.0160   41.0200 C   0  0  0  0  0  0  0  0  0  0  0  0
   36.7100   30.2910   40.6750 C   0  0  0  0  0  0  0  0  0  0  0  0
   35.5350   29.0380   41.0540 Cl  0  0  0  0  0  0  0  0  0  0  0  0
   36.3900   31.4730   40.0760 C   0  0  0  0  0  0  0  0  0  0  0  0
   40.0040   30.8100   40.9920 H   0  0  0  0  0  0  0  0  0  0  0  0
   35.3520   31.6460   39.8200 H   0  0  0  0  0  0  0  0  0  0  0  0
   38.4820   28.7990   41.6620 C   0  0  0  0  0  0  0  0  0  0  0  0
   39.1320   28.7830   42.8790 C   0  0  0  0  0  0  0  0  0  0  0  0
   39.5910   27.6490   43.5080 C   0  0  0  0  0  0  0  0  0  0  0  0
   39.3980   26.4220   42.8910 C   0  0  0  0  0  0  0  0  0  0  0  0
   39.8510   25.3270   43.5160 N   0  0  0  0  0  0  0  0  0  0  0  0
   39.7120   24.0970   42.9980 C   0  0  0  0  0  0  0  0  0  0  0  0
   39.0620   24.0110   41.7610 C   0  0  0  0  0  0  0  0  0  0  0  0
   38.6060   25.1310   41.1350 C   0  0  0  0  0  0  0  0  0  0  0  0
   38.7580   26.3890   41.6800 C   0  0  0  0  0  0  0  0  0  0  0  0
   38.3090   27.5390   41.0750 C   0  0  0  0  0  0  0  0  0  0  0  0
   39.2880   29.7430   43.3710 H   0  0  0  0  0  0  0  0  0  0  0  0
   40.0990   27.7060   44.4720 H   0  0  0  0  0  0  0  0  0  0  0  0
   40.0800   23.2300   43.5100 H   0  0  0  0  0  0  0  0  0  0  0  0
   38.9570   23.0100   41.3570 H   0  0  0  0  0  0  0  0  0  0  0  0
   38.1040   25.0430   40.1730 H   0  0  0  0  0  0  0  0  0  0  0  0
   37.8100   27.4680   40.1230 H   0  0  0  0  0  0  0  0  0  0  0  0
   40.8500   35.1100   40.4830 C   0  0  0  0  0  0  0  0  0  0  0  0
   41.7170   35.0050   39.3900 C   0  0  0  0  0  0  0  0  0  0  0  0
   41.5600   33.9100   38.5150 C   0  0  0  0  0  0  0  0  0  0  0  0
   40.5670   33.0400   38.8130 N   0  0  0  0  0  0  0  0  0  0  0  0
   39.7460   33.1600   39.8650 C   0  0  0  0  0  0  0  0  0  0  0  0
   39.8820   34.2030   40.7150 N   0  0  0  0  0  0  0  0  0  0  0  0
   40.9840   35.9630   41.1510 H   0  0  0  0  0  0  0  0  0  0  0  0
   42.4750   35.7480   39.2400 H   0  0  0  0  0  0  0  0  0  0  0  0
   42.4340   33.7610   37.3720 C   0  0  0  0  0  0  0  0  0  0  0  0
   42.8180   34.6710   36.9320 H   0  0  0  0  0  0  0  0  0  0  0  0
   42.7060   32.6090   36.9450 O   0  0  0  0  0  0  0  0  0  0  0  0
  1  2  1  0  0  0  0
  2  8  2  0  0  0  0
  2  3  1  0  0  0  0
  3  4  2  0  0  0  0
  4  9  1  0  0  0  0
  4  5  1  0  0  0  0
  5 11  1  0  0  0  0
  6  5  2  0  0  0  0
  6  7  1  0  0  0  0
  8  6  1  0  0  0  0
 10  8  1  0  0  0  0
 11 12  1  0  0  0  0
 12 21  1  0  0  0  0
 12 13  2  0  0  0  0
 13 22  1  0  0  0  0
 14 13  1  0  0  0  0
 14 15  1  0  0  0  0
 16 23  1  0  0  0  0
 16 15  2  0  0  0  0
 17 16  1  0  0  0  0
 18 19  1  0  0  0  0
 18 17  2  0  0  0  0
 19 14  2  0  0  0  0
 20 11  2  0  0  0  0
 20 19  1  0  0  0  0
 24 17  1  0  0  0  0
 25 18  1  0  0  0  0
 26 20  1  0  0  0  0
 27 32  1  0  0  0  0
 27 33  1  0  0  0  0
 28 27  2  0  0  0  0
 29 30  2  0  0  0  0
 29 28  1  0  0  0  0
 30 31  1  0  0  0  0
 31  3  1  0  0  0  0
 31 32  2  0  0  0  0
 34 28  1  0  0  0  0
 35 29  1  0  0  0  0
 36 35  1  0  0  0  0
 37 35  2  0  0  0  0
M  END
>  <minimizedAffinity>
-6.36257935

$$$$

 OpenBabel03252506073D

 37 40  0  0  0  0  0  0  0  0999 V2000
   40.5150   31.2850   42.7020 Cl  0  0  0  0  0  0  0  0  0  0  0  0
   39.1930   30.7890   41.7000 C   0  0  0  0  0  0  0  0  0  0  0  0
   38.7730   31.5940   40.6540 C   0  0  0  0  0  0  0  0  0  0  0  0
   37.7140   31.1020   39.9210 C   0  0  0  0  0  0  0  0  0  0  0  0
   37.0690   29.9030   40.1550 C   0  0  0  0  0  0  0  0  0  0  0  0
   37.5220   29.1440   41.2000 C   0  0  0  0  0  0  0  0  0  0  0  0
   36.6750   27.6240   41.4650 Cl  0  0  0  0  0  0  0  0  0  0  0  0
   38.5650   29.5710   41.9650 C   0  0  0  0  0  0  0  0  0  0  0  0
   37.3900   31.7460   39.0970 H   0  0  0  0  0  0  0  0  0  0  0  0
   38.8890   28.9380   42.7810 H   0  0  0  0  0  0  0  0  0  0  0  0
   35.9680   29.5640   39.2630 C   0  0  0  0  0  0  0  0  0  0  0  0
   34.6750   29.3530   39.6960 C   0  0  0  0  0  0  0  0  0  0  0  0
   33.6170   29.0330   38.8760 C   0  0  0  0  0  0  0  0  0  0  0  0
   33.8460   28.9080   37.5140 C   0  0  0  0  0  0  0  0  0  0  0  0
   32.8060   28.5960   36.7290 N   0  0  0  0  0  0  0  0  0  0  0  0
   32.9270   28.4520   35.4000 C   0  0  0  0  0  0  0  0  0  0  0  0
   34.2070   28.6480   34.8670 C   0  0  0  0  0  0  0  0  0  0  0  0
   35.2570   28.9650   35.6740 C   0  0  0  0  0  0  0  0  0  0  0  0
   35.1150   29.1080   37.0390 C   0  0  0  0  0  0  0  0  0  0  0  0
   36.1530   29.4270   37.8820 C   0  0  0  0  0  0  0  0  0  0  0  0
   34.4870   29.4500   40.7650 H   0  0  0  0  0  0  0  0  0  0  0  0
   32.6170   28.8790   39.2820 H   0  0  0  0  0  0  0  0  0  0  0  0
   32.0860   28.2020   34.7860 H   0  0  0  0  0  0  0  0  0  0  0  0
   34.2890   28.5290   33.7920 H   0  0  0  0  0  0  0  0  0  0  0  0
   36.2450   29.1130   35.2400 H   0  0  0  0  0  0  0  0  0  0  0  0
   37.1360   29.5770   37.4670 H   0  0  0  0  0  0  0  0  0  0  0  0
   39.4260   35.1750   40.6050 C   0  0  0  0  0  0  0  0  0  0  0  0
   40.5580   35.2860   39.7900 C   0  0  0  0  0  0  0  0  0  0  0  0
   41.1090   34.1070   39.2470 C   0  0  0  0  0  0  0  0  0  0  0  0
   40.4840   32.9490   39.5660 N   0  0  0  0  0  0  0  0  0  0  0  0
   39.4000   32.8640   40.3480 C   0  0  0  0  0  0  0  0  0  0  0  0
   38.8590   33.9840   40.8780 N   0  0  0  0  0  0  0  0  0  0  0  0
   39.0110   36.0960   41.0190 H   0  0  0  0  0  0  0  0  0  0  0  0
   40.9810   36.2520   39.5980 H   0  0  0  0  0  0  0  0  0  0  0  0
   42.2790   34.1740   38.4000 C   0  0  0  0  0  0  0  0  0  0  0  0
   43.1780   34.5790   38.8440 H   0  0  0  0  0  0  0  0  0  0  0  0
   42.2080   33.7680   37.2100 O   0  0  0  0  0  0  0  0  0  0  0  0
  2  8  1  0  0  0  0
  2  1  1  0  0  0  0
  3  2  2  0  0  0  0
  4  5  2  0  0  0  0
  4  3  1  0  0  0  0
  5  6  1  0  0  0  0
  6  7  1  0  0  0  0
  6  8  2  0  0  0  0
  8 10  1  0  0  0  0
  9  4  1  0  0  0  0
 11 12  1  0  0  0  0
 11  5  1  0  0  0  0
 12 21  1  0  0  0  0
 13 22  1  0  0  0  0
 13 12  2  0  0  0  0
 14 13  1  0  0  0  0
 15 14  2  0  0  0  0
 16 15  1  0  0  0  0
 17 16  2  0  0  0  0
 17 18  1  0  0  0  0
 18 19  2  0  0  0  0
 19 14  1  0  0  0  0
 19 20  1  0  0  0  0
 20 11  2  0  0  0  0
 23 16  1  0  0  0  0
 24 17  1  0  0  0  0
 25 18  1  0  0  0  0
 26 20  1  0  0  0  0
 27 32  1  0  0  0  0
 27 33  1  0  0  0  0
 28 27  2  0  0  0  0
 29 30  2  0  0  0  0
 29 28  1  0  0  0  0
 30 31  1  0  0  0  0
 31  3  1  0  0  0  0
 31 32  2  0  0  0  0
 34 28  1  0  0  0  0
 35 36  1  0  0  0  0
 35 29  1  0  0  0  0
 37 35  2  0  0  0  0
M  END
>  <minimizedAffinity>
-6.25274658

$$$$

 OpenBabel03252506073D

 37 40  0  0  0  0  0  0  0  0999 V2000
   36.9140   25.9420   38.7440 Cl  0  0  0  0  0  0  0  0  0  0  0  0
   35.5960   26.9490   38.2480 C   0  0  0  0  0  0  0  0  0  0  0  0
   35.4200   28.1960   38.8240 C   0  0  0  0  0  0  0  0  0  0  0  0
   34.3400   28.9140   38.3550 C   0  0  0  0  0  0  0  0  0  0  0  0
   33.4550   28.4840   37.3850 C   0  0  0  0  0  0  0  0  0  0  0  0
   33.6730   27.2440   36.8470 C   0  0  0  0  0  0  0  0  0  0  0  0
   32.5260   26.7330   35.6140 Cl  0  0  0  0  0  0  0  0  0  0  0  0
   34.7230   26.4830   37.2650 C   0  0  0  0  0  0  0  0  0  0  0  0
   34.2100   29.8980   38.8170 H   0  0  0  0  0  0  0  0  0  0  0  0
   34.8550   25.5090   36.8120 H   0  0  0  0  0  0  0  0  0  0  0  0
   32.3770   29.3960   37.0290 C   0  0  0  0  0  0  0  0  0  0  0  0
   31.3550   29.7400   37.8900 C   0  0  0  0  0  0  0  0  0  0  0  0
   30.3250   30.5970   37.5810 C   0  0  0  0  0  0  0  0  0  0  0  0
   30.2920   31.1680   36.3170 C   0  0  0  0  0  0  0  0  0  0  0  0
   29.2830   32.0010   36.0310 N   0  0  0  0  0  0  0  0  0  0  0  0
   29.1640   32.6010   34.8360 C   0  0  0  0  0  0  0  0  0  0  0  0
   30.1570   32.3120   33.8930 C   0  0  0  0  0  0  0  0  0  0  0  0
   31.1790   31.4640   34.1950 C   0  0  0  0  0  0  0  0  0  0  0  0
   31.2860   30.8540   35.4280 C   0  0  0  0  0  0  0  0  0  0  0  0
   32.3030   29.9940   35.7650 C   0  0  0  0  0  0  0  0  0  0  0  0
   31.3740   29.2960   38.8860 H   0  0  0  0  0  0  0  0  0  0  0  0
   29.5470   30.8280   38.3090 H   0  0  0  0  0  0  0  0  0  0  0  0
   28.3510   33.2640   34.6220 H   0  0  0  0  0  0  0  0  0  0  0  0
   30.0480   32.8040   32.9330 H   0  0  0  0  0  0  0  0  0  0  0  0
   31.9410   31.2520   33.4470 H   0  0  0  0  0  0  0  0  0  0  0  0
   33.0660   29.7750   35.0360 H   0  0  0  0  0  0  0  0  0  0  0  0
   37.9900   30.2030   40.4430 C   0  0  0  0  0  0  0  0  0  0  0  0
   37.9990   29.7190   41.7560 C   0  0  0  0  0  0  0  0  0  0  0  0
   37.1020   28.6840   42.0920 C   0  0  0  0  0  0  0  0  0  0  0  0
   36.2980   28.2390   41.0990 N   0  0  0  0  0  0  0  0  0  0  0  0
   36.3060   28.7150   39.8470 C   0  0  0  0  0  0  0  0  0  0  0  0
   37.1580   29.7080   39.5070 N   0  0  0  0  0  0  0  0  0  0  0  0
   38.6890   31.0040   40.1980 H   0  0  0  0  0  0  0  0  0  0  0  0
   38.6750   30.1400   42.4720 H   0  0  0  0  0  0  0  0  0  0  0  0
   37.0750   28.1540   43.4380 C   0  0  0  0  0  0  0  0  0  0  0  0
   37.8370   28.5110   44.1160 H   0  0  0  0  0  0  0  0  0  0  0  0
   36.1890   27.3190   43.7580 O   0  0  0  0  0  0  0  0  0  0  0  0
  2  1  1  0  0  0  0
  2  3  1  0  0  0  0
  3 31  1  0  0  0  0
  4  9  1  0  0  0  0
  4  3  2  0  0  0  0
  5  4  1  0  0  0  0
  6  8  1  0  0  0  0
  6  5  2  0  0  0  0
  7  6  1  0  0  0  0
  8  2  2  0  0  0  0
 10  8  1  0  0  0  0
 11  5  1  0  0  0  0
 11 12  1  0  0  0  0
 12 21  1  0  0  0  0
 13 12  2  0  0  0  0
 13 22  1  0  0  0  0
 14 13  1  0  0  0  0
 15 14  1  0  0  0  0
 16 15  2  0  0  0  0
 17 18  2  0  0  0  0
 17 16  1  0  0  0  0
 18 19  1  0  0  0  0
 19 20  1  0  0  0  0
 19 14  2  0  0  0  0
 20 11  2  0  0  0  0
 23 16  1  0  0  0  0
 24 17  1  0  0  0  0
 25 18  1  0  0  0  0
 26 20  1  0  0  0  0
 27 28  1  0  0  0  0
 28 29  2  0  0  0  0
 28 34  1  0  0  0  0
 29 35  1  0  0  0  0
 30 29  1  0  0  0  0
 31 30  2  0  0  0  0
 32 31  1  0  0  0  0
 32 27  2  0  0  0  0
 33 27  1  0  0  0  0
 35 37  2  0  0  0  0
 35 36  1  0  0  0  0
M  END
>  <minimizedAffinity>
-6.21103907

$$$$

 OpenBabel03252506073D

 37 40  0  0  0  0  0  0  0  0999 V2000
   39.7990   35.2690   39.8600 Cl  0  0  0  0  0  0  0  0  0  0  0  0
   39.5360   33.6280   40.3440 C   0  0  0  0  0  0  0  0  0  0  0  0
   40.6110   32.8200   40.6730 C   0  0  0  0  0  0  0  0  0  0  0  0
   40.2890   31.5320   41.0450 C   0  0  0  0  0  0  0  0  0  0  0  0
   39.0080   31.0160   41.1080 C   0  0  0  0  0  0  0  0  0  0  0  0
   37.9790   31.8550   40.7740 C   0  0  0  0  0  0  0  0  0  0  0  0
   36.3650   31.1610   40.8670 Cl  0  0  0  0  0  0  0  0  0  0  0  0
   38.2300   33.1410   40.3970 C   0  0  0  0  0  0  0  0  0  0  0  0
   41.1450   30.9010   41.3030 H   0  0  0  0  0  0  0  0  0  0  0  0
   37.3850   33.7680   40.1410 H   0  0  0  0  0  0  0  0  0  0  0  0
   38.8800   29.6270   41.5260 C   0  0  0  0  0  0  0  0  0  0  0  0
   38.6980   29.2400   42.8380 C   0  0  0  0  0  0  0  0  0  0  0  0
   38.5730   27.9370   43.2600 C   0  0  0  0  0  0  0  0  0  0  0  0
   38.6320   26.9230   42.3150 C   0  0  0  0  0  0  0  0  0  0  0  0
   38.5090   25.6590   42.7420 N   0  0  0  0  0  0  0  0  0  0  0  0
   38.5550   24.6110   41.9040 C   0  0  0  0  0  0  0  0  0  0  0  0
   38.7380   24.9050   40.5480 C   0  0  0  0  0  0  0  0  0  0  0  0
   38.8610   26.1940   40.1250 C   0  0  0  0  0  0  0  0  0  0  0  0
   38.8140   27.2600   41.0000 C   0  0  0  0  0  0  0  0  0  0  0  0
   38.9350   28.5720   40.6070 C   0  0  0  0  0  0  0  0  0  0  0  0
   38.6490   30.0300   43.5870 H   0  0  0  0  0  0  0  0  0  0  0  0
   38.4300   27.6970   44.3150 H   0  0  0  0  0  0  0  0  0  0  0  0
   38.4550   23.6060   42.2610 H   0  0  0  0  0  0  0  0  0  0  0  0
   38.7720   24.0490   39.8840 H   0  0  0  0  0  0  0  0  0  0  0  0
   39.0030   26.4020   39.0660 H   0  0  0  0  0  0  0  0  0  0  0  0
   39.0750   28.7940   39.5620 H   0  0  0  0  0  0  0  0  0  0  0  0
   44.0080   33.3910   39.4950 C   0  0  0  0  0  0  0  0  0  0  0  0
   44.5790   34.1610   40.5150 C   0  0  0  0  0  0  0  0  0  0  0  0
   43.7800   34.4920   41.6290 C   0  0  0  0  0  0  0  0  0  0  0  0
   42.5090   34.0270   41.6160 N   0  0  0  0  0  0  0  0  0  0  0  0
   41.9820   33.2900   40.6300 C   0  0  0  0  0  0  0  0  0  0  0  0
   42.7320   32.9640   39.5540 N   0  0  0  0  0  0  0  0  0  0  0  0
   44.6380   33.1430   38.6390 H   0  0  0  0  0  0  0  0  0  0  0  0
   45.5980   34.4820   40.4310 H   0  0  0  0  0  0  0  0  0  0  0  0
   44.3280   35.2860   42.7070 C   0  0  0  0  0  0  0  0  0  0  0  0
   44.1380   36.3500   42.6700 H   0  0  0  0  0  0  0  0  0  0  0  0
   44.9860   34.7240   43.6210 O   0  0  0  0  0  0  0  0  0  0  0  0
  1  2  1  0  0  0  0
  2  8  2  0  0  0  0
  2  3  1  0  0  0  0
  3  4  2  0  0  0  0
  4  5  1  0  0  0  0
  4  9  1  0  0  0  0
  5 11  1  0  0  0  0
  6  7  1  0  0  0  0
  6  5  2  0  0  0  0
  8  6  1  0  0  0  0
 10  8  1  0  0  0  0
 11 12  1  0  0  0  0
 12 13  2  0  0  0  0
 12 21  1  0  0  0  0
 13 22  1  0  0  0  0
 14 15  1  0  0  0  0
 14 13  1  0  0  0  0
 16 23  1  0  0  0  0
 16 15  2  0  0  0  0
 17 16  1  0  0  0  0
 18 17  2  0  0  0  0
 18 19  1  0  0  0  0
 19 14  2  0  0  0  0
 20 19  1  0  0  0  0
 20 11  2  0  0  0  0
 24 17  1  0  0  0  0
 25 18  1  0  0  0  0
 26 20  1  0  0  0  0
 27 32  2  0  0  0  0
 27 28  1  0  0  0  0
 28 29  2  0  0  0  0
 29 35  1  0  0  0  0
 30 29  1  0  0  0  0
 31  3  1  0  0  0  0
 31 30  2  0  0  0  0
 32 31  1  0  0  0  0
 33 27  1  0  0  0  0
 34 28  1  0  0  0  0
 35 37  2  0  0  0  0
 36 35  1  0  0  0  0
M  END
>  <minimizedAffinity>
-5.96530485

$$$$

 OpenBabel03252506073D

 37 40  0  0  0  0  0  0  0  0999 V2000
   31.4840   27.3140   35.2360 Cl  0  0  0  0  0  0  0  0  0  0  0  0
   32.7310   27.7220   36.3650 C   0  0  0  0  0  0  0  0  0  0  0  0
   32.7240   28.9560   36.9930 C   0  0  0  0  0  0  0  0  0  0  0  0
   33.7620   29.1760   37.8720 C   0  0  0  0  0  0  0  0  0  0  0  0
   34.7730   28.2770   38.1560 C   0  0  0  0  0  0  0  0  0  0  0  0
   34.7350   27.0710   37.5090 C   0  0  0  0  0  0  0  0  0  0  0  0
   36.0380   25.9540   37.8980 Cl  0  0  0  0  0  0  0  0  0  0  0  0
   33.7350   26.7900   36.6270 C   0  0  0  0  0  0  0  0  0  0  0  0
   33.7470   30.1540   38.3630 H   0  0  0  0  0  0  0  0  0  0  0  0
   33.7470   25.8230   36.1390 H   0  0  0  0  0  0  0  0  0  0  0  0
   35.7800   28.7030   39.1180 C   0  0  0  0  0  0  0  0  0  0  0  0
   36.7560   29.6360   38.8360 C   0  0  0  0  0  0  0  0  0  0  0  0
   37.7180   30.0570   39.7240 C   0  0  0  0  0  0  0  0  0  0  0  0
   37.7250   29.5150   41.0020 C   0  0  0  0  0  0  0  0  0  0  0  0
   38.6690   29.9350   41.8550 N   0  0  0  0  0  0  0  0  0  0  0  0
   38.7580   29.4700   43.1110 C   0  0  0  0  0  0  0  0  0  0  0  0
   37.8070   28.5160   43.4920 C   0  0  0  0  0  0  0  0  0  0  0  0
   36.8520   28.0970   42.6150 C   0  0  0  0  0  0  0  0  0  0  0  0
   36.7750   28.5840   41.3270 C   0  0  0  0  0  0  0  0  0  0  0  0
   35.8250   28.1830   40.4170 C   0  0  0  0  0  0  0  0  0  0  0  0
   36.7580   30.0660   37.8340 H   0  0  0  0  0  0  0  0  0  0  0  0
   38.4640   30.7990   39.4380 H   0  0  0  0  0  0  0  0  0  0  0  0
   39.5180   29.8150   43.7830 H   0  0  0  0  0  0  0  0  0  0  0  0
   37.8910   28.1510   44.5090 H   0  0  0  0  0  0  0  0  0  0  0  0
   36.1210   27.3540   42.9300 H   0  0  0  0  0  0  0  0  0  0  0  0
   35.0950   27.4490   40.7150 H   0  0  0  0  0  0  0  0  0  0  0  0
   29.7670   31.0270   37.4650 C   0  0  0  0  0  0  0  0  0  0  0  0
   29.7400   31.8190   36.3130 C   0  0  0  0  0  0  0  0  0  0  0  0
   30.7580   31.6400   35.3540 C   0  0  0  0  0  0  0  0  0  0  0  0
   31.6900   30.7000   35.6360 N   0  0  0  0  0  0  0  0  0  0  0  0
   31.6980   29.9500   36.7460 C   0  0  0  0  0  0  0  0  0  0  0  0
   30.7300   30.1090   37.6760 N   0  0  0  0  0  0  0  0  0  0  0  0
   28.9720   31.1770   38.1980 H   0  0  0  0  0  0  0  0  0  0  0  0
   28.9570   32.5390   36.1820 H   0  0  0  0  0  0  0  0  0  0  0  0
   30.7710   32.4370   34.1470 C   0  0  0  0  0  0  0  0  0  0  0  0
   31.7330   32.8100   33.8210 H   0  0  0  0  0  0  0  0  0  0  0  0
   29.6920   32.6610   33.5390 O   0  0  0  0  0  0  0  0  0  0  0  0
  1  2  1  0  0  0  0
  2  8  2  0  0  0  0
  2  3  1  0  0  0  0
  3  4  2  0  0  0  0
  4  5  1  0  0  0  0
  4  9  1  0  0  0  0
  5 11  1  0  0  0  0
  6  7  1  0  0  0  0
  6  5  2  0  0  0  0
  8  6  1  0  0  0  0
 10  8  1  0  0  0  0
 11 20  1  0  0  0  0
 12 11  2  0  0  0  0
 12 13  1  0  0  0  0
 13 14  2  0  0  0  0
 14 19  1  0  0  0  0
 14 15  1  0  0  0  0
 15 16  2  0  0  0  0
 16 17  1  0  0  0  0
 16 23  1  0  0  0  0
 17 24  1  0  0  0  0
 18 25  1  0  0  0  0
 18 17  2  0  0  0  0
 19 18  1  0  0  0  0
 20 26  1  0  0  0  0
 20 19  2  0  0  0  0
 21 12  1  0  0  0  0
 22 13  1  0  0  0  0
 27 32  1  0  0  0  0
 27 33  1  0  0  0  0
 28 27  2  0  0  0  0
 29 30  2  0  0  0  0
 29 28  1  0  0  0  0
 30 31  1  0  0  0  0
 31  3  1  0  0  0  0
 31 32  2  0  0  0  0
 34 28  1  0  0  0  0
 35 29  1  0  0  0  0
 36 35  1  0  0  0  0
 37 35  2  0  0  0  0
M  END
>  <minimizedAffinity>
-5.94531107

$$$$

 OpenBabel03252506073D

 37 40  0  0  0  0  0  0  0  0999 V2000
   38.3040   34.7200   39.7440 Cl  0  0  0  0  0  0  0  0  0  0  0  0
   38.4100   33.0210   40.0590 C   0  0  0  0  0  0  0  0  0  0  0  0
   39.6320   32.3750   39.9770 C   0  0  0  0  0  0  0  0  0  0  0  0
   39.6030   31.0230   40.2470 C   0  0  0  0  0  0  0  0  0  0  0  0
   38.4740   30.3000   40.5820 C   0  0  0  0  0  0  0  0  0  0  0  0
   37.2910   30.9850   40.6500 C   0  0  0  0  0  0  0  0  0  0  0  0
   35.8770   30.0290   41.0800 Cl  0  0  0  0  0  0  0  0  0  0  0  0
   37.2500   32.3230   40.3950 C   0  0  0  0  0  0  0  0  0  0  0  0
   40.5730   30.5210   40.1790 H   0  0  0  0  0  0  0  0  0  0  0  0
   36.2920   32.8230   40.4610 H   0  0  0  0  0  0  0  0  0  0  0  0
   38.6560   28.8760   40.8300 C   0  0  0  0  0  0  0  0  0  0  0  0
   38.3890   27.9000   39.8930 C   0  0  0  0  0  0  0  0  0  0  0  0
   38.5520   26.5490   40.1000 C   0  0  0  0  0  0  0  0  0  0  0  0
   39.0160   26.1180   41.3340 C   0  0  0  0  0  0  0  0  0  0  0  0
   39.1690   24.8000   41.5200 N   0  0  0  0  0  0  0  0  0  0  0  0
   39.6110   24.2850   42.6790 C   0  0  0  0  0  0  0  0  0  0  0  0
   39.9090   25.2020   43.6940 C   0  0  0  0  0  0  0  0  0  0  0  0
   39.7500   26.5400   43.4930 C   0  0  0  0  0  0  0  0  0  0  0  0
   39.2930   27.0520   42.2960 C   0  0  0  0  0  0  0  0  0  0  0  0
   39.1210   28.3960   42.0600 C   0  0  0  0  0  0  0  0  0  0  0  0
   38.0240   28.2300   38.9210 H   0  0  0  0  0  0  0  0  0  0  0  0
   38.3220   25.8270   39.3160 H   0  0  0  0  0  0  0  0  0  0  0  0
   39.7280   23.2290   42.8130 H   0  0  0  0  0  0  0  0  0  0  0  0
   40.2650   24.7720   44.6230 H   0  0  0  0  0  0  0  0  0  0  0  0
   39.9870   27.2370   44.2960 H   0  0  0  0  0  0  0  0  0  0  0  0
   39.3520   29.0970   42.8440 H   0  0  0  0  0  0  0  0  0  0  0  0
   42.2540   33.9200   37.9790 C   0  0  0  0  0  0  0  0  0  0  0  0
   43.1690   34.3690   38.9380 C   0  0  0  0  0  0  0  0  0  0  0  0
   42.8780   34.1380   40.2990 C   0  0  0  0  0  0  0  0  0  0  0  0
   41.7200   33.4890   40.5640 N   0  0  0  0  0  0  0  0  0  0  0  0
   40.8580   33.0660   39.6310 C   0  0  0  0  0  0  0  0  0  0  0  0
   41.1200   33.2800   38.3220 N   0  0  0  0  0  0  0  0  0  0  0  0
   42.4920   34.1070   36.9310 H   0  0  0  0  0  0  0  0  0  0  0  0
   44.0600   34.8760   38.6260 H   0  0  0  0  0  0  0  0  0  0  0  0
   43.7940   34.5850   41.3250 C   0  0  0  0  0  0  0  0  0  0  0  0
   44.8450   34.5940   41.0670 H   0  0  0  0  0  0  0  0  0  0  0  0
   43.3460   34.9380   42.4460 O   0  0  0  0  0  0  0  0  0  0  0  0
  1  2  1  0  0  0  0
  2  8  1  0  0  0  0
  3  2  2  0  0  0  0
  3  4  1  0  0  0  0
  4  5  2  0  0  0  0
  5  6  1  0  0  0  0
  5 11  1  0  0  0  0
  6  7  1  0  0  0  0
  8 10  1  0  0  0  0
  8  6  2  0  0  0  0
  9  4  1  0  0  0  0
 11 20  1  0  0  0  0
 12 13  1  0  0  0  0
 12 11  2  0  0  0  0
 13 14  2  0  0  0  0
 14 15  1  0  0  0  0
 14 19  1  0  0  0  0
 15 16  2  0  0  0  0
 16 23  1  0  0  0  0
 16 17  1  0  0  0  0
 17 24  1  0  0  0  0
 18 17  2  0  0  0  0
 18 25  1  0  0  0  0
 19 18  1  0  0  0  0
 20 19  2  0  0  0  0
 20 26  1  0  0  0  0
 21 12  1  0  0  0  0
 22 13  1  0  0  0  0
 27 32  2  0  0  0  0
 27 28  1  0  0  0  0
 28 29  2  0  0  0  0
 29 30  1  0  0  0  0
 29 35  1  0  0  0  0
 31  3  1  0  0  0  0
 31 30  2  0  0  0  0
 32 31  1  0  0  0  0
 33 27  1  0  0  0  0
 34 28  1  0  0  0  0
 35 37  2  0  0  0  0
 36 35  1  0  0  0  0
M  END
>  <minimizedAffinity>
-5.87784719

$$$$

 OpenBabel03252506073D

 37 40  0  0  0  0  0  0  0  0999 V2000
   39.6030   35.1200   39.8700 Cl  0  0  0  0  0  0  0  0  0  0  0  0
   39.4110   33.4700   40.3560 C   0  0  0  0  0  0  0  0  0  0  0  0
   40.5240   32.6790   40.5870 C   0  0  0  0  0  0  0  0  0  0  0  0
   40.2560   31.3820   40.9700 C   0  0  0  0  0  0  0  0  0  0  0  0
   38.9950   30.8410   41.1320 C   0  0  0  0  0  0  0  0  0  0  0  0
   37.9270   31.6640   40.8910 C   0  0  0  0  0  0  0  0  0  0  0  0
   36.3390   30.9380   41.1080 Cl  0  0  0  0  0  0  0  0  0  0  0  0
   38.1230   32.9570   40.5100 C   0  0  0  0  0  0  0  0  0  0  0  0
   41.1430   30.7650   41.1500 H   0  0  0  0  0  0  0  0  0  0  0  0
   37.2480   33.5700   40.3310 H   0  0  0  0  0  0  0  0  0  0  0  0
   38.9270   29.4460   41.5430 C   0  0  0  0  0  0  0  0  0  0  0  0
   38.8330   29.0440   42.8600 C   0  0  0  0  0  0  0  0  0  0  0  0
   38.7660   27.7340   43.2770 C   0  0  0  0  0  0  0  0  0  0  0  0
   38.7950   26.7300   42.3200 C   0  0  0  0  0  0  0  0  0  0  0  0
   38.7290   25.4600   42.7420 N   0  0  0  0  0  0  0  0  0  0  0  0
   38.7500   24.4200   41.8930 C   0  0  0  0  0  0  0  0  0  0  0  0
   38.8440   24.7300   40.5310 C   0  0  0  0  0  0  0  0  0  0  0  0
   38.9100   26.0240   40.1140 C   0  0  0  0  0  0  0  0  0  0  0  0
   38.8880   27.0820   41.0000 C   0  0  0  0  0  0  0  0  0  0  0  0
   38.9530   28.4000   40.6130 C   0  0  0  0  0  0  0  0  0  0  0  0
   38.8100   29.8270   43.6180 H   0  0  0  0  0  0  0  0  0  0  0  0
   38.6930   27.4830   44.3360 H   0  0  0  0  0  0  0  0  0  0  0  0
   38.6970   23.4100   42.2460 H   0  0  0  0  0  0  0  0  0  0  0  0
   38.8590   23.8800   39.8590 H   0  0  0  0  0  0  0  0  0  0  0  0
   38.9830   26.2440   39.0500 H   0  0  0  0  0  0  0  0  0  0  0  0
   39.0240   28.6330   39.5630 H   0  0  0  0  0  0  0  0  0  0  0  0
   43.7500   34.1500   41.4120 C   0  0  0  0  0  0  0  0  0  0  0  0
   44.4380   34.1260   40.1940 C   0  0  0  0  0  0  0  0  0  0  0  0
   43.7800   33.5930   39.0660 C   0  0  0  0  0  0  0  0  0  0  0  0
   42.5190   33.1430   39.2620 N   0  0  0  0  0  0  0  0  0  0  0  0
   41.8780   33.1760   40.4380 C   0  0  0  0  0  0  0  0  0  0  0  0
   42.4930   33.6830   41.5300 N   0  0  0  0  0  0  0  0  0  0  0  0
   44.2720   34.5650   42.2760 H   0  0  0  0  0  0  0  0  0  0  0  0
   45.4380   34.5070   40.1410 H   0  0  0  0  0  0  0  0  0  0  0  0
   44.4520   33.5480   37.7860 C   0  0  0  0  0  0  0  0  0  0  0  0
   43.8440   33.2960   36.9270 H   0  0  0  0  0  0  0  0  0  0  0  0
   45.6840   33.7970   37.7220 O   0  0  0  0  0  0  0  0  0  0  0  0
  1  2  1  0  0  0  0
  2  8  2  0  0  0  0
  2  3  1  0  0  0  0
  3  4  2  0  0  0  0
  4  5  1  0  0  0  0
  4  9  1  0  0  0  0
  5 11  1  0  0  0  0
  6  7  1  0  0  0  0
  6  5  2  0  0  0  0
  8  6  1  0  0  0  0
 10  8  1  0  0  0  0
 11 12  1  0  0  0  0
 12 13  2  0  0  0  0
 12 21  1  0  0  0  0
 13 22  1  0  0  0  0
 14 15  1  0  0  0  0
 14 13  1  0  0  0  0
 16 23  1  0  0  0  0
 16 15  2  0  0  0  0
 17 16  1  0  0  0  0
 18 17  2  0  0  0  0
 18 19  1  0  0  0  0
 19 14  2  0  0  0  0
 20 19  1  0  0  0  0
 20 11  2  0  0  0  0
 24 17  1  0  0  0  0
 25 18  1  0  0  0  0
 26 20  1  0  0  0  0
 27 32  1  0  0  0  0
 27 33  1  0  0  0  0
 28 27  2  0  0  0  0
 29 30  2  0  0  0  0
 29 28  1  0  0  0  0
 30 31  1  0  0  0  0
 31  3  1  0  0  0  0
 31 32  2  0  0  0  0
 34 28  1  0  0  0  0
 35 29  1  0  0  0  0
 36 35  1  0  0  0  0
 37 35  2  0  0  0  0
M  END
>  <minimizedAffinity>
-5.87523031

$$$$

 OpenBabel03252506073D

 37 40  0  0  0  0  0  0  0  0999 V2000
   36.2440   27.7460   43.0790 Cl  0  0  0  0  0  0  0  0  0  0  0  0
   37.2610   28.7230   42.0750 C   0  0  0  0  0  0  0  0  0  0  0  0
   38.5010   28.2520   41.6750 C   0  0  0  0  0  0  0  0  0  0  0  0
   39.2280   29.1100   40.8780 C   0  0  0  0  0  0  0  0  0  0  0  0
   38.8140   30.3640   40.4690 C   0  0  0  0  0  0  0  0  0  0  0  0
   37.5810   30.7840   40.8920 C   0  0  0  0  0  0  0  0  0  0  0  0
   37.0910   32.3840   40.3510 Cl  0  0  0  0  0  0  0  0  0  0  0  0
   36.8120   29.9830   41.6820 C   0  0  0  0  0  0  0  0  0  0  0  0
   40.2060   28.7290   40.5670 H   0  0  0  0  0  0  0  0  0  0  0  0
   35.8440   30.3570   41.9920 H   0  0  0  0  0  0  0  0  0  0  0  0
   39.7330   31.1170   39.6270 C   0  0  0  0  0  0  0  0  0  0  0  0
   39.6340   31.1720   38.2520 C   0  0  0  0  0  0  0  0  0  0  0  0
   40.4870   31.8750   37.4330 C   0  0  0  0  0  0  0  0  0  0  0  0
   41.5290   32.5850   38.0110 C   0  0  0  0  0  0  0  0  0  0  0  0
   42.3510   33.2640   37.1990 N   0  0  0  0  0  0  0  0  0  0  0  0
   43.3880   33.9790   37.6630 C   0  0  0  0  0  0  0  0  0  0  0  0
   43.5700   33.9840   39.0510 C   0  0  0  0  0  0  0  0  0  0  0  0
   42.7280   33.2900   39.8660 C   0  0  0  0  0  0  0  0  0  0  0  0
   41.6680   32.5580   39.3730 C   0  0  0  0  0  0  0  0  0  0  0  0
   40.7990   31.8470   40.1670 C   0  0  0  0  0  0  0  0  0  0  0  0
   38.8180   30.6170   37.7900 H   0  0  0  0  0  0  0  0  0  0  0  0
   40.3540   31.8770   36.3500 H   0  0  0  0  0  0  0  0  0  0  0  0
   44.0360   34.5170   37.0020 H   0  0  0  0  0  0  0  0  0  0  0  0
   44.4100   34.5670   39.4110 H   0  0  0  0  0  0  0  0  0  0  0  0
   42.8870   33.3060   40.9440 H   0  0  0  0  0  0  0  0  0  0  0  0
   40.9430   31.8540   41.2350 H   0  0  0  0  0  0  0  0  0  0  0  0
   40.2890   25.6730   43.5200 C   0  0  0  0  0  0  0  0  0  0  0  0
   39.9710   24.5000   42.8270 C   0  0  0  0  0  0  0  0  0  0  0  0
   39.1240   24.5960   41.7040 C   0  0  0  0  0  0  0  0  0  0  0  0
   38.6850   25.8370   41.3870 N   0  0  0  0  0  0  0  0  0  0  0  0
   39.0020   26.9480   42.0630 C   0  0  0  0  0  0  0  0  0  0  0  0
   39.8120   26.8750   43.1430 N   0  0  0  0  0  0  0  0  0  0  0  0
   40.9450   25.5830   44.3880 H   0  0  0  0  0  0  0  0  0  0  0  0
   40.3700   23.5630   43.1590 H   0  0  0  0  0  0  0  0  0  0  0  0
   38.7680   23.4100   40.9570 C   0  0  0  0  0  0  0  0  0  0  0  0
   39.5650   22.9190   40.4150 H   0  0  0  0  0  0  0  0  0  0  0  0
   37.5760   23.0050   40.9670 O   0  0  0  0  0  0  0  0  0  0  0  0
  2  1  1  0  0  0  0
  3 31  1  0  0  0  0
  3  2  2  0  0  0  0
  4  3  1  0  0  0  0
  5  4  2  0  0  0  0
  5  6  1  0  0  0  0
  6  8  2  0  0  0  0
  7  6  1  0  0  0  0
  8 10  1  0  0  0  0
  8  2  1  0  0  0  0
  9  4  1  0  0  0  0
 11 20  1  0  0  0  0
 11  5  1  0  0  0  0
 12 11  2  0  0  0  0
 13 14  2  0  0  0  0
 13 12  1  0  0  0  0
 14 19  1  0  0  0  0
 15 16  2  0  0  0  0
 15 14  1  0  0  0  0
 16 17  1  0  0  0  0
 17 24  1  0  0  0  0
 17 18  2  0  0  0  0
 18 25  1  0  0  0  0
 19 18  1  0  0  0  0
 19 20  2  0  0  0  0
 20 26  1  0  0  0  0
 21 12  1  0  0  0  0
 22 13  1  0  0  0  0
 23 16  1  0  0  0  0
 27 33  1  0  0  0  0
 28 34  1  0  0  0  0
 28 27  2  0  0  0  0
 29 28  1  0  0  0  0
 30 29  2  0  0  0  0
 30 31  1  0  0  0  0
 31 32  2  0  0  0  0
 32 27  1  0  0  0  0
 35 37  2  0  0  0  0
 35 29  1  0  0  0  0
 36 35  1  0  0  0  0
M  END
>  <minimizedAffinity>
-5.84444857

$$$$

 OpenBabel03252506073D

 37 40  0  0  0  0  0  0  0  0999 V2000
   37.5540   33.6130   39.6990 Cl  0  0  0  0  0  0  0  0  0  0  0  0
   37.5300   31.9080   39.9940 C   0  0  0  0  0  0  0  0  0  0  0  0
   38.7180   31.2100   40.1380 C   0  0  0  0  0  0  0  0  0  0  0  0
   38.5840   29.8580   40.3700 C   0  0  0  0  0  0  0  0  0  0  0  0
   37.3840   29.1800   40.4640 C   0  0  0  0  0  0  0  0  0  0  0  0
   36.2380   29.9140   40.3160 C   0  0  0  0  0  0  0  0  0  0  0  0
   34.7310   29.0140   40.4440 Cl  0  0  0  0  0  0  0  0  0  0  0  0
   36.3010   31.2550   40.0840 C   0  0  0  0  0  0  0  0  0  0  0  0
   39.5280   29.3160   40.4810 H   0  0  0  0  0  0  0  0  0  0  0  0
   35.3680   31.7950   39.9730 H   0  0  0  0  0  0  0  0  0  0  0  0
   37.4570   27.7470   40.7150 C   0  0  0  0  0  0  0  0  0  0  0  0
   37.3810   27.1890   41.9740 C   0  0  0  0  0  0  0  0  0  0  0  0
   37.4470   25.8400   42.2390 C   0  0  0  0  0  0  0  0  0  0  0  0
   37.6020   24.9610   41.1770 C   0  0  0  0  0  0  0  0  0  0  0  0
   37.6650   23.6520   41.4510 N   0  0  0  0  0  0  0  0  0  0  0  0
   37.8140   22.7240   40.4930 C   0  0  0  0  0  0  0  0  0  0  0  0
   37.9010   23.1960   39.1780 C   0  0  0  0  0  0  0  0  0  0  0  0
   37.8350   24.5300   38.9110 C   0  0  0  0  0  0  0  0  0  0  0  0
   37.6830   25.4700   39.9080 C   0  0  0  0  0  0  0  0  0  0  0  0
   37.6130   26.8240   39.6740 C   0  0  0  0  0  0  0  0  0  0  0  0
   37.2600   27.8720   42.8140 H   0  0  0  0  0  0  0  0  0  0  0  0
   37.3810   25.4630   43.2600 H   0  0  0  0  0  0  0  0  0  0  0  0
   37.8630   21.6800   40.7280 H   0  0  0  0  0  0  0  0  0  0  0  0
   38.0200   22.4350   38.4140 H   0  0  0  0  0  0  0  0  0  0  0  0
   37.9050   24.8770   37.8810 H   0  0  0  0  0  0  0  0  0  0  0  0
   37.6800   27.1820   38.6600 H   0  0  0  0  0  0  0  0  0  0  0  0
   41.9230   32.6220   41.1330 C   0  0  0  0  0  0  0  0  0  0  0  0
   42.4700   33.0660   39.9250 C   0  0  0  0  0  0  0  0  0  0  0  0
   41.7240   32.8760   38.7430 C   0  0  0  0  0  0  0  0  0  0  0  0
   40.5210   32.2700   38.8830 N   0  0  0  0  0  0  0  0  0  0  0  0
   40.0150   31.8530   40.0500 C   0  0  0  0  0  0  0  0  0  0  0  0
   40.7170   32.0260   41.1930 N   0  0  0  0  0  0  0  0  0  0  0  0
   42.5120   32.7760   42.0390 H   0  0  0  0  0  0  0  0  0  0  0  0
   43.4340   33.5350   39.9180 H   0  0  0  0  0  0  0  0  0  0  0  0
   42.2500   33.3190   37.4710 C   0  0  0  0  0  0  0  0  0  0  0  0
   42.1110   32.6540   36.6290 H   0  0  0  0  0  0  0  0  0  0  0  0
   42.8330   34.4320   37.3930 O   0  0  0  0  0  0  0  0  0  0  0  0
  1  2  1  0  0  0  0
  2  8  2  0  0  0  0
  2  3  1  0  0  0  0
  3  4  2  0  0  0  0
  4  5  1  0  0  0  0
  4  9  1  0  0  0  0
  5 11  1  0  0  0  0
  6  7  1  0  0  0  0
  6  5  2  0  0  0  0
  8  6  1  0  0  0  0
 10  8  1  0  0  0  0
 11 12  1  0  0  0  0
 12 13  2  0  0  0  0
 12 21  1  0  0  0  0
 13 22  1  0  0  0  0
 14 15  1  0  0  0  0
 14 13  1  0  0  0  0
 16 23  1  0  0  0  0
 16 15  2  0  0  0  0
 17 16  1  0  0  0  0
 18 17  2  0  0  0  0
 18 19  1  0  0  0  0
 19 14  2  0  0  0  0
 20 19  1  0  0  0  0
 20 11  2  0  0  0  0
 24 17  1  0  0  0  0
 25 18  1  0  0  0  0
 26 20  1  0  0  0  0
 27 32  1  0  0  0  0
 27 33  1  0  0  0  0
 28 27  2  0  0  0  0
 29 30  2  0  0  0  0
 29 28  1  0  0  0  0
 30 31  1  0  0  0  0
 31  3  1  0  0  0  0
 31 32  2  0  0  0  0
 34 28  1  0  0  0  0
 35 29  1  0  0  0  0
 36 35  1  0  0  0  0
 37 35  2  0  0  0  0
M  END
>  <minimizedAffinity>
-5.81543255

$$$$
