
 OpenBabel03242523353D

 31 33  0  0  0  0  0  0  0  0999 V2000
   37.1700   29.0780   41.6920 C   0  0  0  0  0  0  0  0  0  0  0  0
   38.2880   29.3360   42.4470 C   0  0  0  0  0  0  0  0  0  0  0  0
   39.0160   28.2610   42.9210 C   0  0  0  0  0  0  0  0  0  0  0  0
   38.6480   26.9500   42.6560 C   0  0  0  0  0  0  0  0  0  0  0  0
   39.3790   25.9280   43.1330 N   0  0  0  0  0  0  0  0  0  0  0  0
   39.0440   24.6500   42.8900 C   0  0  0  0  0  0  0  0  0  0  0  0
   37.9240   24.3880   42.1330 C   0  0  0  0  0  0  0  0  0  0  0  0
   37.1590   25.4360   41.6330 C   0  0  0  0  0  0  0  0  0  0  0  0
   37.5070   26.7670   41.8850 C   0  0  0  0  0  0  0  0  0  0  0  0
   36.7550   27.8060   41.3950 C   0  0  0  0  0  0  0  0  0  0  0  0
   38.6920   30.2870   42.7330 H   0  0  0  0  0  0  0  0  0  0  0  0
   39.9190   28.3810   43.5300 H   0  0  0  0  0  0  0  0  0  0  0  0
   39.6420   23.8290   43.2810 H   0  0  0  0  0  0  0  0  0  0  0  0
   37.5880   23.3880   41.8940 H   0  0  0  0  0  0  0  0  0  0  0  0
   36.2810   25.2190   41.0400 H   0  0  0  0  0  0  0  0  0  0  0  0
   35.8830   27.6200   40.8060 H   0  0  0  0  0  0  0  0  0  0  0  0
   36.2530   30.4800   41.0990 S   0  0  0  0  0  0  0  0  0  0  0  0
   36.7760   30.9410   39.4380 C   0  0  0  0  0  0  0  0  0  0  0  0
   36.0240   31.4380   38.8310 H   0  0  0  0  0  0  0  0  0  0  0  0
   37.1670   30.0260   38.9250 H   0  0  0  0  0  0  0  0  0  0  0  0
   39.1480   33.5530   40.6570 C   0  0  0  0  0  0  0  0  0  0  0  0
   40.1420   33.4750   39.6660 C   0  0  0  0  0  0  0  0  0  0  0  0
   39.9870   32.5560   38.6260 C   0  0  0  0  0  0  0  0  0  0  0  0
   38.8800   31.7560   38.5940 N   0  0  0  0  0  0  0  0  0  0  0  0
   37.9400   31.8600   39.5710 C   0  0  0  0  0  0  0  0  0  0  0  0
   38.0870   32.7420   40.5710 N   0  0  0  0  0  0  0  0  0  0  0  0
   39.2890   34.2680   41.4500 H   0  0  0  0  0  0  0  0  0  0  0  0
   41.0010   34.1230   39.7260 H   0  0  0  0  0  0  0  0  0  0  0  0
   41.0000   32.4540   37.5870 C   0  0  0  0  0  0  0  0  0  0  0  0
   41.0800   31.5390   37.0230 H   0  0  0  0  0  0  0  0  0  0  0  0
   41.7600   33.4290   37.3630 O   0  0  0  0  0  0  0  0  0  0  0  0
  1  2  1  0  0  0  0
  2 11  1  0  0  0  0
  2  3  2  0  0  0  0
  3 12  1  0  0  0  0
  4  3  1  0  0  0  0
  4  5  1  0  0  0  0
  6  5  2  0  0  0  0
  6 13  1  0  0  0  0
  7  6  1  0  0  0  0
  8  9  1  0  0  0  0
  8  7  2  0  0  0  0
  9  4  2  0  0  0  0
 10  1  2  0  0  0  0
 10  9  1  0  0  0  0
 14  7  1  0  0  0  0
 15  8  1  0  0  0  0
 16 10  1  0  0  0  0
 17  1  1  0  0  0  0
 18 25  1  0  0  0  0
 18 17  1  0  0  0  0
 19 18  1  0  0  0  0
 20 18  1  0  0  0  0
 21 27  1  0  0  0  0
 22 28  1  0  0  0  0
 22 21  2  0  0  0  0
 23 22  1  0  0  0  0
 24 23  2  0  0  0  0
 24 25  1  0  0  0  0
 25 26  2  0  0  0  0
 26 21  1  0  0  0  0
 29 23  1  0  0  0  0
 30 29  1  0  0  0  0
 31 29  2  0  0  0  0
M  END
>  <minimizedAffinity>
-5.19486475

$$$$

 OpenBabel03242523353D

 31 33  0  0  0  0  0  0  0  0999 V2000
   38.0080   26.3930   42.6450 C   0  0  0  0  0  0  0  0  0  0  0  0
   39.1470   25.6600   42.8820 C   0  0  0  0  0  0  0  0  0  0  0  0
   39.2880   24.4490   42.2300 C   0  0  0  0  0  0  0  0  0  0  0  0
   38.3230   23.9660   41.3580 C   0  0  0  0  0  0  0  0  0  0  0  0
   38.4940   22.7850   40.7410 N   0  0  0  0  0  0  0  0  0  0  0  0
   37.5750   22.2950   39.8920 C   0  0  0  0  0  0  0  0  0  0  0  0
   36.4330   23.0280   39.6530 C   0  0  0  0  0  0  0  0  0  0  0  0
   36.2450   24.2520   40.2840 C   0  0  0  0  0  0  0  0  0  0  0  0
   37.2010   24.7630   41.1680 C   0  0  0  0  0  0  0  0  0  0  0  0
   37.0200   25.9710   41.7950 C   0  0  0  0  0  0  0  0  0  0  0  0
   39.9710   25.9010   43.5230 H   0  0  0  0  0  0  0  0  0  0  0  0
   40.1650   23.8050   42.3630 H   0  0  0  0  0  0  0  0  0  0  0  0
   37.7220   21.3370   39.3980 H   0  0  0  0  0  0  0  0  0  0  0  0
   35.6480   22.7020   38.9850 H   0  0  0  0  0  0  0  0  0  0  0  0
   35.3450   24.8190   40.0890 H   0  0  0  0  0  0  0  0  0  0  0  0
   36.1400   26.5510   41.6200 H   0  0  0  0  0  0  0  0  0  0  0  0
   37.8530   27.9430   43.4990 S   0  0  0  0  0  0  0  0  0  0  0  0
   39.0210   29.1560   42.8580 C   0  0  0  0  0  0  0  0  0  0  0  0
   39.8390   28.7520   42.2680 H   0  0  0  0  0  0  0  0  0  0  0  0
   39.4040   29.7640   43.7170 H   0  0  0  0  0  0  0  0  0  0  0  0
   36.3040   30.8450   40.9350 C   0  0  0  0  0  0  0  0  0  0  0  0
   37.0110   31.9380   40.4020 C   0  0  0  0  0  0  0  0  0  0  0  0
   38.3690   32.0720   40.7030 C   0  0  0  0  0  0  0  0  0  0  0  0
   38.9760   31.1470   41.5020 N   0  0  0  0  0  0  0  0  0  0  0  0
   38.2590   30.1040   41.9990 C   0  0  0  0  0  0  0  0  0  0  0  0
   36.9550   29.9720   41.7120 N   0  0  0  0  0  0  0  0  0  0  0  0
   35.2580   30.7620   40.6900 H   0  0  0  0  0  0  0  0  0  0  0  0
   36.4960   32.6470   39.7760 H   0  0  0  0  0  0  0  0  0  0  0  0
   39.1250   33.1930   40.1650 C   0  0  0  0  0  0  0  0  0  0  0  0
   39.0610   34.1500   40.6570 H   0  0  0  0  0  0  0  0  0  0  0  0
   39.8370   33.0290   39.1440 O   0  0  0  0  0  0  0  0  0  0  0  0
  1  2  1  0  0  0  0
  1 17  1  0  0  0  0
  2 11  1  0  0  0  0
  3 12  1  0  0  0  0
  3  2  2  0  0  0  0
  4  3  1  0  0  0  0
  5  4  2  0  0  0  0
  6  5  1  0  0  0  0
  7  6  2  0  0  0  0
  7  8  1  0  0  0  0
  8  9  2  0  0  0  0
  9  4  1  0  0  0  0
  9 10  1  0  0  0  0
 10  1  2  0  0  0  0
 13  6  1  0  0  0  0
 14  7  1  0  0  0  0
 15  8  1  0  0  0  0
 16 10  1  0  0  0  0
 18 17  1  0  0  0  0
 18 20  1  0  0  0  0
 19 18  1  0  0  0  0
 21 26  1  0  0  0  0
 22 23  1  0  0  0  0
 22 21  2  0  0  0  0
 23 24  2  0  0  0  0
 24 25  1  0  0  0  0
 25 18  1  0  0  0  0
 26 25  2  0  0  0  0
 27 21  1  0  0  0  0
 28 22  1  0  0  0  0
 29 30  1  0  0  0  0
 29 23  1  0  0  0  0
 31 29  2  0  0  0  0
M  END
>  <minimizedAffinity>
-5.15620899

$$$$

 OpenBabel03242523353D

 31 33  0  0  0  0  0  0  0  0999 V2000
   37.3840   30.9070   39.2680 C   0  0  0  0  0  0  0  0  0  0  0  0
   37.0210   31.9310   40.1100 C   0  0  0  0  0  0  0  0  0  0  0  0
   37.8970   32.9900   40.2610 C   0  0  0  0  0  0  0  0  0  0  0  0
   39.1130   33.0400   39.5940 C   0  0  0  0  0  0  0  0  0  0  0  0
   39.9400   34.0840   39.7640 N   0  0  0  0  0  0  0  0  0  0  0  0
   41.1220   34.1570   39.1300 C   0  0  0  0  0  0  0  0  0  0  0  0
   41.4880   33.1320   38.2860 C   0  0  0  0  0  0  0  0  0  0  0  0
   40.6410   32.0450   38.1010 C   0  0  0  0  0  0  0  0  0  0  0  0
   39.4100   31.9690   38.7600 C   0  0  0  0  0  0  0  0  0  0  0  0
   38.5690   30.8990   38.5810 C   0  0  0  0  0  0  0  0  0  0  0  0
   36.1240   32.0310   40.6870 H   0  0  0  0  0  0  0  0  0  0  0  0
   37.6830   33.8450   40.9120 H   0  0  0  0  0  0  0  0  0  0  0  0
   41.7860   35.0070   39.2760 H   0  0  0  0  0  0  0  0  0  0  0  0
   42.4210   33.1160   37.7410 H   0  0  0  0  0  0  0  0  0  0  0  0
   40.9380   31.2460   37.4350 H   0  0  0  0  0  0  0  0  0  0  0  0
   38.8380   30.0950   37.9300 H   0  0  0  0  0  0  0  0  0  0  0  0
   36.2390   29.5590   39.0960 S   0  0  0  0  0  0  0  0  0  0  0  0
   35.4440   29.1790   40.6670 C   0  0  0  0  0  0  0  0  0  0  0  0
   34.6170   28.4760   40.6160 H   0  0  0  0  0  0  0  0  0  0  0  0
   35.1250   30.1420   41.1420 H   0  0  0  0  0  0  0  0  0  0  0  0
   38.0870   28.7700   43.2720 C   0  0  0  0  0  0  0  0  0  0  0  0
   38.3530   27.3950   43.1490 C   0  0  0  0  0  0  0  0  0  0  0  0
   37.6410   26.6530   42.2040 C   0  0  0  0  0  0  0  0  0  0  0  0
   36.7090   27.2740   41.4220 N   0  0  0  0  0  0  0  0  0  0  0  0
   36.4800   28.6060   41.5700 C   0  0  0  0  0  0  0  0  0  0  0  0
   37.1610   29.3210   42.4770 N   0  0  0  0  0  0  0  0  0  0  0  0
   38.6460   29.3230   44.0080 H   0  0  0  0  0  0  0  0  0  0  0  0
   39.0950   26.9410   43.7840 H   0  0  0  0  0  0  0  0  0  0  0  0
   37.8960   25.2280   42.0560 C   0  0  0  0  0  0  0  0  0  0  0  0
   38.8990   24.8960   41.8420 H   0  0  0  0  0  0  0  0  0  0  0  0
   36.9500   24.4110   42.1800 O   0  0  0  0  0  0  0  0  0  0  0  0
  1  2  1  0  0  0  0
  2  3  2  0  0  0  0
  2 11  1  0  0  0  0
  3 12  1  0  0  0  0
  4  5  1  0  0  0  0
  4  3  1  0  0  0  0
  6 13  1  0  0  0  0
  6  5  2  0  0  0  0
  7  6  1  0  0  0  0
  8  7  2  0  0  0  0
  8  9  1  0  0  0  0
  9  4  2  0  0  0  0
 10  9  1  0  0  0  0
 10  1  2  0  0  0  0
 14  7  1  0  0  0  0
 15  8  1  0  0  0  0
 16 10  1  0  0  0  0
 17  1  1  0  0  0  0
 17 18  1  0  0  0  0
 18 20  1  0  0  0  0
 18 25  1  0  0  0  0
 19 18  1  0  0  0  0
 21 27  1  0  0  0  0
 22 21  1  0  0  0  0
 22 28  1  0  0  0  0
 23 22  2  0  0  0  0
 24 25  2  0  0  0  0
 24 23  1  0  0  0  0
 25 26  1  0  0  0  0
 26 21  2  0  0  0  0
 29 31  2  0  0  0  0
 29 23  1  0  0  0  0
 30 29  1  0  0  0  0
M  END
>  <minimizedAffinity>
-5.02172947

$$$$

 OpenBabel03242523353D

 31 33  0  0  0  0  0  0  0  0999 V2000
   36.6320   28.4630   41.4170 C   0  0  0  0  0  0  0  0  0  0  0  0
   37.3180   29.2760   42.2860 C   0  0  0  0  0  0  0  0  0  0  0  0
   38.3350   28.7150   43.0370 C   0  0  0  0  0  0  0  0  0  0  0  0
   38.6700   27.3730   42.9330 C   0  0  0  0  0  0  0  0  0  0  0  0
   39.6640   26.8620   43.6790 N   0  0  0  0  0  0  0  0  0  0  0  0
   40.0090   25.5650   43.5970 C   0  0  0  0  0  0  0  0  0  0  0  0
   39.3230   24.7480   42.7270 C   0  0  0  0  0  0  0  0  0  0  0  0
   38.2930   25.2650   41.9490 C   0  0  0  0  0  0  0  0  0  0  0  0
   37.9330   26.6140   42.0330 C   0  0  0  0  0  0  0  0  0  0  0  0
   36.9170   27.1310   41.2690 C   0  0  0  0  0  0  0  0  0  0  0  0
   37.1730   30.3220   42.4730 H   0  0  0  0  0  0  0  0  0  0  0  0
   38.9300   29.2950   43.7520 H   0  0  0  0  0  0  0  0  0  0  0  0
   40.8150   25.1600   44.2060 H   0  0  0  0  0  0  0  0  0  0  0  0
   39.5400   23.6960   42.6040 H   0  0  0  0  0  0  0  0  0  0  0  0
   37.7610   24.6150   41.2690 H   0  0  0  0  0  0  0  0  0  0  0  0
   36.3740   26.5100   40.5880 H   0  0  0  0  0  0  0  0  0  0  0  0
   35.3290   29.2110   40.4670 S   0  0  0  0  0  0  0  0  0  0  0  0
   35.8550   29.5140   38.7710 C   0  0  0  0  0  0  0  0  0  0  0  0
   35.1450   30.0540   38.1500 H   0  0  0  0  0  0  0  0  0  0  0  0
   36.1300   28.5320   38.3070 H   0  0  0  0  0  0  0  0  0  0  0  0
   39.4100   30.6020   38.4340 C   0  0  0  0  0  0  0  0  0  0  0  0
   39.3360   31.8870   39.0000 C   0  0  0  0  0  0  0  0  0  0  0  0
   38.1050   32.3460   39.4740 C   0  0  0  0  0  0  0  0  0  0  0  0
   37.0050   31.5410   39.3780 N   0  0  0  0  0  0  0  0  0  0  0  0
   37.1150   30.3040   38.8250 C   0  0  0  0  0  0  0  0  0  0  0  0
   38.2970   29.8620   38.3690 N   0  0  0  0  0  0  0  0  0  0  0  0
   40.3690   30.2700   38.0750 H   0  0  0  0  0  0  0  0  0  0  0  0
   40.2260   32.4920   39.0570 H   0  0  0  0  0  0  0  0  0  0  0  0
   38.0000   33.6710   40.0640 C   0  0  0  0  0  0  0  0  0  0  0  0
   37.0730   34.2130   39.9700 H   0  0  0  0  0  0  0  0  0  0  0  0
   38.9840   34.1610   40.6700 O   0  0  0  0  0  0  0  0  0  0  0  0
  1  2  1  0  0  0  0
  2 11  1  0  0  0  0
  2  3  2  0  0  0  0
  3 12  1  0  0  0  0
  4  3  1  0  0  0  0
  4  5  1  0  0  0  0
  6  5  2  0  0  0  0
  6 13  1  0  0  0  0
  7  6  1  0  0  0  0
  8  9  1  0  0  0  0
  8  7  2  0  0  0  0
  9  4  2  0  0  0  0
 10  1  2  0  0  0  0
 10  9  1  0  0  0  0
 14  7  1  0  0  0  0
 15  8  1  0  0  0  0
 16 10  1  0  0  0  0
 17  1  1  0  0  0  0
 18 25  1  0  0  0  0
 18 17  1  0  0  0  0
 19 18  1  0  0  0  0
 20 18  1  0  0  0  0
 21 22  1  0  0  0  0
 22 28  1  0  0  0  0
 22 23  2  0  0  0  0
 23 29  1  0  0  0  0
 24 23  1  0  0  0  0
 25 24  2  0  0  0  0
 26 21  2  0  0  0  0
 26 25  1  0  0  0  0
 27 21  1  0  0  0  0
 29 31  2  0  0  0  0
 30 29  1  0  0  0  0
M  END
>  <minimizedAffinity>
-5.00952721

$$$$

 OpenBabel03242523353D

 31 33  0  0  0  0  0  0  0  0999 V2000
   37.2960   30.0280   41.3140 C   0  0  0  0  0  0  0  0  0  0  0  0
   36.4590   30.9220   40.6910 C   0  0  0  0  0  0  0  0  0  0  0  0
   36.9970   32.1160   40.2470 C   0  0  0  0  0  0  0  0  0  0  0  0
   38.3390   32.4250   40.4140 C   0  0  0  0  0  0  0  0  0  0  0  0
   38.8280   33.5950   39.9700 N   0  0  0  0  0  0  0  0  0  0  0  0
   40.1240   33.9180   40.1190 C   0  0  0  0  0  0  0  0  0  0  0  0
   40.9650   33.0230   40.7420 C   0  0  0  0  0  0  0  0  0  0  0  0
   40.4720   31.8090   41.2060 C   0  0  0  0  0  0  0  0  0  0  0  0
   39.1230   31.4710   41.0510 C   0  0  0  0  0  0  0  0  0  0  0  0
   38.6300   30.2740   41.5070 C   0  0  0  0  0  0  0  0  0  0  0  0
   35.4100   30.8240   40.4930 H   0  0  0  0  0  0  0  0  0  0  0  0
   36.3980   32.8820   39.7420 H   0  0  0  0  0  0  0  0  0  0  0  0
   40.5100   34.8690   39.7560 H   0  0  0  0  0  0  0  0  0  0  0  0
   42.0180   33.2090   40.9000 H   0  0  0  0  0  0  0  0  0  0  0  0
   41.1410   31.1140   41.6930 H   0  0  0  0  0  0  0  0  0  0  0  0
   39.2700   29.5690   41.9930 H   0  0  0  0  0  0  0  0  0  0  0  0
   36.5760   28.5030   41.8760 S   0  0  0  0  0  0  0  0  0  0  0  0
   37.2730   28.0030   43.4610 C   0  0  0  0  0  0  0  0  0  0  0  0
   36.5520   27.6870   44.2100 H   0  0  0  0  0  0  0  0  0  0  0  0
   37.9120   28.8390   43.8440 H   0  0  0  0  0  0  0  0  0  0  0  0
   40.2600   25.7650   43.4290 C   0  0  0  0  0  0  0  0  0  0  0  0
   39.7740   24.7040   42.6440 C   0  0  0  0  0  0  0  0  0  0  0  0
   38.4680   24.7730   42.1540 C   0  0  0  0  0  0  0  0  0  0  0  0
   37.6950   25.8610   42.4440 N   0  0  0  0  0  0  0  0  0  0  0  0
   38.2010   26.8670   43.2060 C   0  0  0  0  0  0  0  0  0  0  0  0
   39.4540   26.8040   43.6790 N   0  0  0  0  0  0  0  0  0  0  0  0
   41.2700   25.6910   43.7970 H   0  0  0  0  0  0  0  0  0  0  0  0
   40.4140   23.8630   42.4370 H   0  0  0  0  0  0  0  0  0  0  0  0
   37.9390   23.6890   41.3390 C   0  0  0  0  0  0  0  0  0  0  0  0
   37.6760   22.7590   41.8150 H   0  0  0  0  0  0  0  0  0  0  0  0
   37.7980   23.8540   40.1020 O   0  0  0  0  0  0  0  0  0  0  0  0
  1 10  1  0  0  0  0
  1 17  1  0  0  0  0
  2  1  2  0  0  0  0
  3  4  2  0  0  0  0
  3  2  1  0  0  0  0
  4  9  1  0  0  0  0
  5  6  2  0  0  0  0
  5  4  1  0  0  0  0
  6  7  1  0  0  0  0
  7 14  1  0  0  0  0
  7  8  2  0  0  0  0
  8 15  1  0  0  0  0
  9  8  1  0  0  0  0
  9 10  2  0  0  0  0
 10 16  1  0  0  0  0
 11  2  1  0  0  0  0
 12  3  1  0  0  0  0
 13  6  1  0  0  0  0
 17 18  1  0  0  0  0
 18 20  1  0  0  0  0
 18 19  1  0  0  0  0
 21 26  1  0  0  0  0
 21 27  1  0  0  0  0
 22 21  2  0  0  0  0
 23 24  2  0  0  0  0
 23 22  1  0  0  0  0
 24 25  1  0  0  0  0
 25 18  1  0  0  0  0
 25 26  2  0  0  0  0
 28 22  1  0  0  0  0
 29 30  1  0  0  0  0
 29 23  1  0  0  0  0
 31 29  2  0  0  0  0
M  END
>  <minimizedAffinity>
-4.95360231

$$$$

 OpenBabel03242523353D

 31 33  0  0  0  0  0  0  0  0999 V2000
   37.9070   29.3980   42.4830 C   0  0  0  0  0  0  0  0  0  0  0  0
   39.1590   29.8300   42.8500 C   0  0  0  0  0  0  0  0  0  0  0  0
   39.6440   30.9870   42.2700 C   0  0  0  0  0  0  0  0  0  0  0  0
   38.9080   31.7080   41.3420 C   0  0  0  0  0  0  0  0  0  0  0  0
   39.4110   32.8290   40.7980 N   0  0  0  0  0  0  0  0  0  0  0  0
   38.7180   33.5460   39.8960 C   0  0  0  0  0  0  0  0  0  0  0  0
   37.4630   33.1150   39.5270 C   0  0  0  0  0  0  0  0  0  0  0  0
   36.9310   31.9580   40.0830 C   0  0  0  0  0  0  0  0  0  0  0  0
   37.6510   31.2110   41.0210 C   0  0  0  0  0  0  0  0  0  0  0  0
   37.1310   30.0660   41.5730 C   0  0  0  0  0  0  0  0  0  0  0  0
   39.8390   29.3820   43.5480 H   0  0  0  0  0  0  0  0  0  0  0  0
   40.6310   31.3980   42.5080 H   0  0  0  0  0  0  0  0  0  0  0  0
   39.1340   34.4520   39.4610 H   0  0  0  0  0  0  0  0  0  0  0  0
   36.8440   33.6350   38.8090 H   0  0  0  0  0  0  0  0  0  0  0  0
   35.9450   31.6290   39.7860 H   0  0  0  0  0  0  0  0  0  0  0  0
   36.1590   29.7180   41.2970 H   0  0  0  0  0  0  0  0  0  0  0  0
   37.3120   27.9060   43.2440 S   0  0  0  0  0  0  0  0  0  0  0  0
   38.4200   26.5240   42.9160 C   0  0  0  0  0  0  0  0  0  0  0  0
   38.6200   25.8730   43.7630 H   0  0  0  0  0  0  0  0  0  0  0  0
   39.3710   26.9300   42.4870 H   0  0  0  0  0  0  0  0  0  0  0  0
   37.1180   23.6610   40.9060 C   0  0  0  0  0  0  0  0  0  0  0  0
   36.6550   24.3410   39.7660 C   0  0  0  0  0  0  0  0  0  0  0  0
   36.7930   25.7300   39.7070 C   0  0  0  0  0  0  0  0  0  0  0  0
   37.3710   26.3940   40.7520 N   0  0  0  0  0  0  0  0  0  0  0  0
   37.8070   25.7010   41.8380 C   0  0  0  0  0  0  0  0  0  0  0  0
   37.6750   24.3680   41.8970 N   0  0  0  0  0  0  0  0  0  0  0  0
   37.0010   22.5900   40.9300 H   0  0  0  0  0  0  0  0  0  0  0  0
   36.2050   23.7820   38.9630 H   0  0  0  0  0  0  0  0  0  0  0  0
   36.3230   26.4590   38.5400 C   0  0  0  0  0  0  0  0  0  0  0  0
   36.9190   27.2710   38.1560 H   0  0  0  0  0  0  0  0  0  0  0  0
   35.2370   26.1330   37.9990 O   0  0  0  0  0  0  0  0  0  0  0  0
  1  2  1  0  0  0  0
  1 17  1  0  0  0  0
  2 11  1  0  0  0  0
  3 12  1  0  0  0  0
  3  2  2  0  0  0  0
  4  3  1  0  0  0  0
  5  4  2  0  0  0  0
  6  5  1  0  0  0  0
  7  6  2  0  0  0  0
  7  8  1  0  0  0  0
  8  9  2  0  0  0  0
  9  4  1  0  0  0  0
  9 10  1  0  0  0  0
 10  1  2  0  0  0  0
 13  6  1  0  0  0  0
 14  7  1  0  0  0  0
 15  8  1  0  0  0  0
 16 10  1  0  0  0  0
 18 17  1  0  0  0  0
 18 19  1  0  0  0  0
 20 18  1  0  0  0  0
 21 27  1  0  0  0  0
 21 26  1  0  0  0  0
 22 21  2  0  0  0  0
 23 22  1  0  0  0  0
 23 24  2  0  0  0  0
 24 25  1  0  0  0  0
 25 26  2  0  0  0  0
 25 18  1  0  0  0  0
 28 22  1  0  0  0  0
 29 23  1  0  0  0  0
 30 29  1  0  0  0  0
 31 29  2  0  0  0  0
M  END
>  <minimizedAffinity>
-4.92020082

$$$$

 OpenBabel03242523353D

 31 33  0  0  0  0  0  0  0  0999 V2000
   37.2580   31.3580   40.4490 C   0  0  0  0  0  0  0  0  0  0  0  0
   36.1720   30.6580   39.9810 C   0  0  0  0  0  0  0  0  0  0  0  0
   35.9130   29.4160   40.5310 C   0  0  0  0  0  0  0  0  0  0  0  0
   36.7110   28.8710   41.5260 C   0  0  0  0  0  0  0  0  0  0  0  0
   36.4300   27.6610   42.0370 N   0  0  0  0  0  0  0  0  0  0  0  0
   37.1870   27.1110   43.0010 C   0  0  0  0  0  0  0  0  0  0  0  0
   38.2760   27.8100   43.4710 C   0  0  0  0  0  0  0  0  0  0  0  0
   38.5780   29.0630   42.9510 C   0  0  0  0  0  0  0  0  0  0  0  0
   37.7900   29.6370   41.9480 C   0  0  0  0  0  0  0  0  0  0  0  0
   38.0840   30.8740   41.4300 C   0  0  0  0  0  0  0  0  0  0  0  0
   35.4710   30.9470   39.2230 H   0  0  0  0  0  0  0  0  0  0  0  0
   35.0670   28.7950   40.2140 H   0  0  0  0  0  0  0  0  0  0  0  0
   36.9510   26.1290   43.4080 H   0  0  0  0  0  0  0  0  0  0  0  0
   38.9330   27.4360   44.2440 H   0  0  0  0  0  0  0  0  0  0  0  0
   39.4350   29.6040   43.3280 H   0  0  0  0  0  0  0  0  0  0  0  0
   38.9260   31.4300   41.7830 H   0  0  0  0  0  0  0  0  0  0  0  0
   37.5680   32.9500   39.7220 S   0  0  0  0  0  0  0  0  0  0  0  0
   38.8370   33.8440   40.6360 C   0  0  0  0  0  0  0  0  0  0  0  0
   38.9390   33.5710   41.6840 H   0  0  0  0  0  0  0  0  0  0  0  0
   38.6460   34.9410   40.5220 H   0  0  0  0  0  0  0  0  0  0  0  0
   41.4520   32.8140   38.1790 C   0  0  0  0  0  0  0  0  0  0  0  0
   42.6150   33.1860   38.8770 C   0  0  0  0  0  0  0  0  0  0  0  0
   42.4870   33.7670   40.1400 C   0  0  0  0  0  0  0  0  0  0  0  0
   41.2430   33.9600   40.6700 N   0  0  0  0  0  0  0  0  0  0  0  0
   40.1410   33.5870   39.9650 C   0  0  0  0  0  0  0  0  0  0  0  0
   40.2610   33.0300   38.7510 N   0  0  0  0  0  0  0  0  0  0  0  0
   41.5750   32.3690   37.2060 H   0  0  0  0  0  0  0  0  0  0  0  0
   43.5790   33.0180   38.4250 H   0  0  0  0  0  0  0  0  0  0  0  0
   43.6740   34.1610   40.8830 C   0  0  0  0  0  0  0  0  0  0  0  0
   44.4590   34.6920   40.3700 H   0  0  0  0  0  0  0  0  0  0  0  0
   43.7650   33.8800   42.1040 O   0  0  0  0  0  0  0  0  0  0  0  0
  1 10  1  0  0  0  0
  2  1  2  0  0  0  0
  2  3  1  0  0  0  0
  3  4  2  0  0  0  0
  4  9  1  0  0  0  0
  4  5  1  0  0  0  0
  5  6  2  0  0  0  0
  6 13  1  0  0  0  0
  6  7  1  0  0  0  0
  7 14  1  0  0  0  0
  8 15  1  0  0  0  0
  8  7  2  0  0  0  0
  9  8  1  0  0  0  0
 10 16  1  0  0  0  0
 10  9  2  0  0  0  0
 11  2  1  0  0  0  0
 12  3  1  0  0  0  0
 17  1  1  0  0  0  0
 17 18  1  0  0  0  0
 18 19  1  0  0  0  0
 20 18  1  0  0  0  0
 21 26  2  0  0  0  0
 21 22  1  0  0  0  0
 22 23  2  0  0  0  0
 23 24  1  0  0  0  0
 23 29  1  0  0  0  0
 25 18  1  0  0  0  0
 25 24  2  0  0  0  0
 26 25  1  0  0  0  0
 27 21  1  0  0  0  0
 28 22  1  0  0  0  0
 29 31  2  0  0  0  0
 30 29  1  0  0  0  0
M  END
>  <minimizedAffinity>
-4.91720486

$$$$

 OpenBabel03242523353D

 31 33  0  0  0  0  0  0  0  0999 V2000
   37.1950   27.5370   41.5840 C   0  0  0  0  0  0  0  0  0  0  0  0
   36.6300   27.7180   40.3450 C   0  0  0  0  0  0  0  0  0  0  0  0
   36.4900   26.6140   39.5250 C   0  0  0  0  0  0  0  0  0  0  0  0
   36.9010   25.3490   39.9200 C   0  0  0  0  0  0  0  0  0  0  0  0
   36.7500   24.2980   39.0970 N   0  0  0  0  0  0  0  0  0  0  0  0
   37.1400   23.0630   39.4550 C   0  0  0  0  0  0  0  0  0  0  0  0
   37.7080   22.8780   40.6960 C   0  0  0  0  0  0  0  0  0  0  0  0
   37.8690   23.9570   41.5570 C   0  0  0  0  0  0  0  0  0  0  0  0
   37.4630   25.2430   41.1850 C   0  0  0  0  0  0  0  0  0  0  0  0
   37.6210   26.3130   42.0310 C   0  0  0  0  0  0  0  0  0  0  0  0
   36.2680   28.6270   39.9060 H   0  0  0  0  0  0  0  0  0  0  0  0
   36.0490   26.6740   38.5240 H   0  0  0  0  0  0  0  0  0  0  0  0
   37.0140   22.2170   38.7810 H   0  0  0  0  0  0  0  0  0  0  0  0
   38.0470   21.9170   41.0570 H   0  0  0  0  0  0  0  0  0  0  0  0
   38.3150   23.8010   42.5290 H   0  0  0  0  0  0  0  0  0  0  0  0
   38.0590   26.1870   42.9980 H   0  0  0  0  0  0  0  0  0  0  0  0
   37.3650   28.9750   42.6140 S   0  0  0  0  0  0  0  0  0  0  0  0
   38.8520   29.9010   42.1950 C   0  0  0  0  0  0  0  0  0  0  0  0
   39.6170   29.3420   41.6610 H   0  0  0  0  0  0  0  0  0  0  0  0
   39.2640   30.3500   43.1340 H   0  0  0  0  0  0  0  0  0  0  0  0
   36.9070   32.2070   39.9970 C   0  0  0  0  0  0  0  0  0  0  0  0
   37.8510   33.2310   39.8050 C   0  0  0  0  0  0  0  0  0  0  0  0
   39.1030   33.1160   40.4140 C   0  0  0  0  0  0  0  0  0  0  0  0
   39.3820   32.0200   41.1790 N   0  0  0  0  0  0  0  0  0  0  0  0
   38.4420   31.0500   41.3420 C   0  0  0  0  0  0  0  0  0  0  0  0
   37.2390   31.1580   40.7580 N   0  0  0  0  0  0  0  0  0  0  0  0
   35.9480   32.3170   39.5180 H   0  0  0  0  0  0  0  0  0  0  0  0
   37.5930   34.0800   39.1940 H   0  0  0  0  0  0  0  0  0  0  0  0
   40.0990   34.1610   40.2320 C   0  0  0  0  0  0  0  0  0  0  0  0
   40.1880   34.9330   40.9780 H   0  0  0  0  0  0  0  0  0  0  0  0
   40.8360   34.1460   39.2150 O   0  0  0  0  0  0  0  0  0  0  0  0
  1 10  1  0  0  0  0
  1 17  1  0  0  0  0
  2  1  2  0  0  0  0
  3  4  2  0  0  0  0
  3  2  1  0  0  0  0
  4  9  1  0  0  0  0
  5  6  2  0  0  0  0
  5  4  1  0  0  0  0
  6  7  1  0  0  0  0
  7 14  1  0  0  0  0
  7  8  2  0  0  0  0
  8 15  1  0  0  0  0
  9  8  1  0  0  0  0
  9 10  2  0  0  0  0
 10 16  1  0  0  0  0
 11  2  1  0  0  0  0
 12  3  1  0  0  0  0
 13  6  1  0  0  0  0
 18 17  1  0  0  0  0
 18 20  1  0  0  0  0
 19 18  1  0  0  0  0
 21 26  1  0  0  0  0
 22 21  2  0  0  0  0
 22 23  1  0  0  0  0
 23 24  2  0  0  0  0
 24 25  1  0  0  0  0
 25 18  1  0  0  0  0
 26 25  2  0  0  0  0
 27 21  1  0  0  0  0
 28 22  1  0  0  0  0
 29 23  1  0  0  0  0
 29 30  1  0  0  0  0
 31 29  2  0  0  0  0
M  END
>  <minimizedAffinity>
-4.81522655

$$$$

 OpenBabel03242523353D

 31 33  0  0  0  0  0  0  0  0999 V2000
   38.1580   26.3480   42.6080 C   0  0  0  0  0  0  0  0  0  0  0  0
   39.2690   25.5650   42.8110 C   0  0  0  0  0  0  0  0  0  0  0  0
   39.3440   24.3560   42.1450 C   0  0  0  0  0  0  0  0  0  0  0  0
   38.3390   23.9230   41.2930 C   0  0  0  0  0  0  0  0  0  0  0  0
   38.4440   22.7420   40.6620 N   0  0  0  0  0  0  0  0  0  0  0  0
   37.4850   22.3000   39.8310 C   0  0  0  0  0  0  0  0  0  0  0  0
   36.3700   23.0830   39.6260 C   0  0  0  0  0  0  0  0  0  0  0  0
   36.2500   24.3070   40.2720 C   0  0  0  0  0  0  0  0  0  0  0  0
   37.2470   24.7690   41.1370 C   0  0  0  0  0  0  0  0  0  0  0  0
   37.1330   25.9770   41.7780 C   0  0  0  0  0  0  0  0  0  0  0  0
   40.1180   25.7650   43.4350 H   0  0  0  0  0  0  0  0  0  0  0  0
   40.1950   23.6740   42.2520 H   0  0  0  0  0  0  0  0  0  0  0  0
   37.5790   21.3410   39.3250 H   0  0  0  0  0  0  0  0  0  0  0  0
   35.5560   22.7980   38.9740 H   0  0  0  0  0  0  0  0  0  0  0  0
   35.3700   24.9140   40.1030 H   0  0  0  0  0  0  0  0  0  0  0  0
   36.2750   26.5960   41.6300 H   0  0  0  0  0  0  0  0  0  0  0  0
   38.0900   27.8960   43.4800 S   0  0  0  0  0  0  0  0  0  0  0  0
   39.3210   29.0500   42.8480 C   0  0  0  0  0  0  0  0  0  0  0  0
   40.1240   28.6060   42.2660 H   0  0  0  0  0  0  0  0  0  0  0  0
   39.7260   29.6390   43.7100 H   0  0  0  0  0  0  0  0  0  0  0  0
   38.4530   32.0850   40.8560 C   0  0  0  0  0  0  0  0  0  0  0  0
   37.1800   31.7210   40.3800 C   0  0  0  0  0  0  0  0  0  0  0  0
   36.6570   30.4770   40.7400 C   0  0  0  0  0  0  0  0  0  0  0  0
   37.3870   29.6450   41.5410 N   0  0  0  0  0  0  0  0  0  0  0  0
   38.6140   30.0330   41.9820 C   0  0  0  0  0  0  0  0  0  0  0  0
   39.1190   31.2270   41.6380 N   0  0  0  0  0  0  0  0  0  0  0  0
   38.8360   33.0490   40.5650 H   0  0  0  0  0  0  0  0  0  0  0  0
   36.6360   32.4040   39.7500 H   0  0  0  0  0  0  0  0  0  0  0  0
   35.3440   30.0740   40.2620 C   0  0  0  0  0  0  0  0  0  0  0  0
   34.6280   30.8360   39.9970 H   0  0  0  0  0  0  0  0  0  0  0  0
   35.0650   28.8540   40.1640 O   0  0  0  0  0  0  0  0  0  0  0  0
  1  2  1  0  0  0  0
  1 17  1  0  0  0  0
  2 11  1  0  0  0  0
  3 12  1  0  0  0  0
  3  2  2  0  0  0  0
  4  3  1  0  0  0  0
  5  4  2  0  0  0  0
  6  5  1  0  0  0  0
  7  6  2  0  0  0  0
  7  8  1  0  0  0  0
  8  9  2  0  0  0  0
  9  4  1  0  0  0  0
  9 10  1  0  0  0  0
 10  1  2  0  0  0  0
 13  6  1  0  0  0  0
 14  7  1  0  0  0  0
 15  8  1  0  0  0  0
 16 10  1  0  0  0  0
 18 17  1  0  0  0  0
 18 20  1  0  0  0  0
 19 18  1  0  0  0  0
 21 26  1  0  0  0  0
 22 23  1  0  0  0  0
 22 21  2  0  0  0  0
 23 24  2  0  0  0  0
 24 25  1  0  0  0  0
 25 18  1  0  0  0  0
 26 25  2  0  0  0  0
 27 21  1  0  0  0  0
 28 22  1  0  0  0  0
 29 23  1  0  0  0  0
 30 29  1  0  0  0  0
 31 29  2  0  0  0  0
M  END
>  <minimizedAffinity>
-4.77316952

$$$$
