
 OpenBabel03252509223D

 21 22  0  0  1  0  0  0  0  0999 V2000
   44.6470   35.4130   45.1320 C   0  0  0  0  0  0  0  0  0  0  0  0
   45.1150   35.7060   43.8250 C   0  0  0  0  0  0  0  0  0  0  0  0
   46.0720   34.8450   43.3520 C   0  0  0  0  0  0  0  0  0  0  0  0
   46.5250   33.7840   44.1200 N   0  0  0  0  0  0  0  0  0  0  0  0
   46.0500   33.5510   45.3480 C   0  0  0  0  0  0  0  0  0  0  0  0
   45.0980   34.3770   45.8610 N   0  0  0  0  0  0  0  0  0  0  0  0
   43.8930   36.0610   45.5490 H   0  0  0  0  0  0  0  0  0  0  0  0
   46.5200   32.6860   45.7830 H   0  0  0  0  0  0  0  0  0  0  0  0
   46.5810   35.0430   41.9420 C   0  0  1  0  0  0  0  0  0  0  0  0
   48.1100   35.3190   41.9560 C   0  0  0  0  0  0  0  0  0  0  0  0
   47.4200   34.0490   41.3770 C   0  0  2  0  0  0  0  0  0  0  0  0
   46.0240   35.8050   41.3700 H   0  0  0  0  0  0  0  0  0  0  0  0
   48.5040   35.9830   41.1840 H   0  0  0  0  0  0  0  0  0  0  0  0
   48.6690   35.2020   42.8780 H   0  0  0  0  0  0  0  0  0  0  0  0
   47.7520   33.1180   41.8680 H   0  0  0  0  0  0  0  0  0  0  0  0
   47.4120   33.9280   39.8720 C   0  0  0  0  0  0  0  0  0  0  0  0
   46.8460   34.6100   39.2180 H   0  0  0  0  0  0  0  0  0  0  0  0
   48.0490   33.0440   39.2910 O   0  0  0  0  0  0  0  0  0  0  0  0
   44.6500   36.8180   43.0610 N   0  0  0  0  0  0  0  0  0  0  0  0
   43.6480   36.7910   42.7340 H   0  0  0  0  0  0  0  0  0  0  0  0
   45.1320   37.6900   42.7500 H   0  0  0  0  0  0  0  0  0  0  0  0
  1  7  1  0  0  0  0
  1  6  1  0  0  0  0
  2  1  2  0  0  0  0
  3  2  1  0  0  0  0
  3  4  2  0  0  0  0
  4  5  1  0  0  0  0
  5  8  1  0  0  0  0
  5  6  2  0  0  0  0
  9 12  1  6  0  0  0
  9 10  1  0  0  0  0
  9  3  1  0  0  0  0
 10 14  1  0  0  0  0
 11 15  1  1  0  0  0
 11  9  1  0  0  0  0
 11 10  1  0  0  0  0
 13 10  1  0  0  0  0
 16 11  1  0  0  0  0
 17 16  1  0  0  0  0
 18 16  2  0  0  0  0
 19  2  1  0  0  0  0
 20 19  1  0  0  0  0
 21 19  1  0  0  0  0
M  END
>  <minimizedAffinity>
-4.14824724

>  <minimizedRMSD>
0.0888110101

$$$$
