
 OpenBabel03252505003D

 26 27  0  0  1  0  0  0  0  0999 V2000
   47.2770   33.8230   42.5490 C   0  0  2  0  0  0  0  0  0  0  0  0
   48.5150   34.6490   42.6470 C   0  0  0  0  0  0  0  0  0  0  0  0
   48.6940   35.6430   41.5520 C   0  0  0  0  0  0  0  0  0  0  0  0
   48.6630   34.8360   40.2630 C   0  0  0  0  0  0  0  0  0  0  0  0
   47.3300   34.2660   40.0130 C   0  0  0  0  0  0  0  0  0  0  0  0
   46.6400   33.7560   41.2350 C   0  0  0  0  0  0  0  0  0  0  0  0
   47.5150   32.7700   42.8740 H   0  0  0  0  0  0  0  0  0  0  0  0
   48.6000   35.1610   43.6310 H   0  0  0  0  0  0  0  0  0  0  0  0
   49.3960   33.9620   42.6030 H   0  0  0  0  0  0  0  0  0  0  0  0
   49.7150   36.0590   41.6030 H   0  0  0  0  0  0  0  0  0  0  0  0
   47.9680   36.4610   41.5400 H   0  0  0  0  0  0  0  0  0  0  0  0
   49.4920   34.1300   40.2530 H   0  0  0  0  0  0  0  0  0  0  0  0
   48.8260   35.5900   39.4600 H   0  0  0  0  0  0  0  0  0  0  0  0
   46.8740   34.2180   39.0630 H   0  0  0  0  0  0  0  0  0  0  0  0
   45.3660   34.1490   45.6960 C   0  0  0  0  0  0  0  0  0  0  0  0
   44.6070   35.3250   45.4710 C   0  0  0  0  0  0  0  0  0  0  0  0
   44.7690   35.9790   44.2330 C   0  0  0  0  0  0  0  0  0  0  0  0
   45.6390   35.4530   43.3280 N   0  0  0  0  0  0  0  0  0  0  0  0
   46.3420   34.3360   43.5750 C   0  0  0  0  0  0  0  0  0  0  0  0
   46.2080   33.6830   44.7570 N   0  0  0  0  0  0  0  0  0  0  0  0
   45.3010   33.5910   46.6090 H   0  0  0  0  0  0  0  0  0  0  0  0
   43.9380   35.6700   46.2500 H   0  0  0  0  0  0  0  0  0  0  0  0
   44.1910   36.8740   44.0630 H   0  0  0  0  0  0  0  0  0  0  0  0
   45.3650   33.2410   40.8780 C   0  0  0  0  0  0  0  0  0  0  0  0
   45.1120   32.2410   40.5790 H   0  0  0  0  0  0  0  0  0  0  0  0
   44.1700   33.5740   40.7520 O   0  0  0  0  0  0  0  0  0  0  0  0
  1  2  1  0  0  0  0
  1  7  1  1  0  0  0
  1 19  1  0  0  0  0
  2  8  1  0  0  0  0
  3 10  1  0  0  0  0
  3  2  1  0  0  0  0
  4  3  1  0  0  0  0
  5  4  1  0  0  0  0
  5  6  2  0  0  0  0
  6  1  1  0  0  0  0
  9  2  1  0  0  0  0
 11  3  1  0  0  0  0
 12  4  1  0  0  0  0
 13  4  1  0  0  0  0
 14  5  1  0  0  0  0
 15 21  1  0  0  0  0
 16 15  1  0  0  0  0
 16 22  1  0  0  0  0
 17 16  2  0  0  0  0
 18 19  2  0  0  0  0
 18 17  1  0  0  0  0
 19 20  1  0  0  0  0
 20 15  2  0  0  0  0
 23 17  1  0  0  0  0
 24  6  1  0  0  0  0
 25 24  1  0  0  0  0
 26 24  2  0  0  0  0
M  END
>  <minimizedAffinity>
-4.6257596

>  <minimizedRMSD>
5.6759429

$$$$
