
 OpenBabel03252506173D

 17 17  0  0  0  0  0  0  0  0999 V2000
   44.8180   35.7080   43.7810 C   0  0  0  0  0  0  0  0  0  0  0  0
   44.1650   35.4780   42.5550 C   0  0  0  0  0  0  0  0  0  0  0  0
   44.1200   34.1610   42.0620 C   0  0  0  0  0  0  0  0  0  0  0  0
   44.7130   33.1780   42.8010 N   0  0  0  0  0  0  0  0  0  0  0  0
   45.3380   33.4430   43.9880 C   0  0  0  0  0  0  0  0  0  0  0  0
   45.3760   34.7110   44.4520 N   0  0  0  0  0  0  0  0  0  0  0  0
   43.6860   36.2430   41.9480 H   0  0  0  0  0  0  0  0  0  0  0  0
   43.6430   33.8830   41.1330 H   0  0  0  0  0  0  0  0  0  0  0  0
   45.9410   32.3230   44.7000 C   0  0  0  0  0  0  0  0  0  0  0  0
   45.4900   31.3410   44.6480 H   0  0  0  0  0  0  0  0  0  0  0  0
   46.9860   32.5660   45.3580 O   0  0  0  0  0  0  0  0  0  0  0  0
   44.8470   37.0790   44.2680 C   0  0  0  0  0  0  0  0  0  0  0  0
   45.3690   38.0230   43.5170 C   0  0  0  0  0  0  0  0  0  0  0  0
   45.4350   39.4390   43.9310 C   0  0  0  0  0  0  0  0  0  0  0  0
   44.5760   39.6650   44.6210 H   0  0  0  0  0  0  0  0  0  0  0  0
   46.3440   39.6370   44.5410 H   0  0  0  0  0  0  0  0  0  0  0  0
   45.3090   40.1480   43.0820 H   0  0  0  0  0  0  0  0  0  0  0  0
  1 12  1  0  0  0  0
  1  6  1  0  0  0  0
  2  1  2  0  0  0  0
  3  2  1  0  0  0  0
  3  4  2  0  0  0  0
  4  5  1  0  0  0  0
  5  6  2  0  0  0  0
  5  9  1  0  0  0  0
  7  2  1  0  0  0  0
  8  3  1  0  0  0  0
  9 11  2  0  0  0  0
 10  9  1  0  0  0  0
 13 14  1  0  0  0  0
 13 12  2  0  0  0  0
 14 16  1  0  0  0  0
 14 15  1  0  0  0  0
 17 14  1  0  0  0  0
M  END
>  <minimizedAffinity>
-2.71700025

>  <minimizedRMSD>
0.673123717

$$$$
