
 OpenBabel03252502133D

 31 33  0  0  0  0  0  0  0  0999 V2000
   39.5080   30.7440   42.8620 Cl  0  0  0  0  0  0  0  0  0  0  0  0
   38.2450   29.5490   42.6300 C   0  0  0  0  0  0  0  0  0  0  0  0
   37.5560   29.4750   41.4670 C   0  0  0  0  0  0  0  0  0  0  0  0
   36.5840   28.4970   41.3910 C   0  0  0  0  0  0  0  0  0  0  0  0
   36.3140   27.6430   42.4130 C   0  0  0  0  0  0  0  0  0  0  0  0
   37.0280   27.7350   43.5890 C   0  0  0  0  0  0  0  0  0  0  0  0
   37.9900   28.6940   43.6790 C   0  0  0  0  0  0  0  0  0  0  0  0
   35.5490   26.8810   42.3410 H   0  0  0  0  0  0  0  0  0  0  0  0
   36.8030   27.0470   44.3970 H   0  0  0  0  0  0  0  0  0  0  0  0
   38.5310   28.7390   44.6130 H   0  0  0  0  0  0  0  0  0  0  0  0
   37.5640   32.5080   39.2030 C   0  0  0  0  0  0  0  0  0  0  0  0
   37.2530   31.6230   40.2370 C   0  0  0  0  0  0  0  0  0  0  0  0
   37.8710   30.4040   40.3970 C   0  0  0  0  0  0  0  0  0  0  0  0
   38.8240   30.1110   39.4650 N   0  0  0  0  0  0  0  0  0  0  0  0
   39.1330   30.9560   38.4650 C   0  0  0  0  0  0  0  0  0  0  0  0
   38.5200   32.1410   38.3240 N   0  0  0  0  0  0  0  0  0  0  0  0
   37.0540   33.4490   39.1210 H   0  0  0  0  0  0  0  0  0  0  0  0
   36.4950   31.8580   40.9750 H   0  0  0  0  0  0  0  0  0  0  0  0
   39.8970   30.6770   37.7510 H   0  0  0  0  0  0  0  0  0  0  0  0
   35.8130   28.3870   40.1420 C   0  0  0  0  0  0  0  0  0  0  0  0
   34.6430   29.1510   40.0490 C   0  0  0  0  0  0  0  0  0  0  0  0
   34.0100   28.9670   38.8400 C   0  0  0  0  0  0  0  0  0  0  0  0
   34.4100   28.1580   37.8050 C   0  0  0  0  0  0  0  0  0  0  0  0
   35.5830   27.4440   37.9970 C   0  0  0  0  0  0  0  0  0  0  0  0
   36.2260   27.6010   39.1690 N   0  0  0  0  0  0  0  0  0  0  0  0
   34.2770   29.7950   40.8090 H   0  0  0  0  0  0  0  0  0  0  0  0
   33.0670   29.5560   38.7140 H   0  0  0  0  0  0  0  0  0  0  0  0
   33.8260   28.0970   36.9000 H   0  0  0  0  0  0  0  0  0  0  0  0
   36.0720   26.5640   36.9500 C   0  0  0  0  0  0  0  0  0  0  0  0
   35.8760   25.4870   37.0670 H   0  0  0  0  0  0  0  0  0  0  0  0
   36.6920   27.0380   35.9610 O   0  0  0  0  0  0  0  0  0  0  0  0
  2  1  1  0  0  0  0
  2  7  1  0  0  0  0
  3  2  2  0  0  0  0
  4  3  1  0  0  0  0
  4  5  2  0  0  0  0
  5  6  1  0  0  0  0
  6  7  2  0  0  0  0
  6  9  1  0  0  0  0
  7 10  1  0  0  0  0
  8  5  1  0  0  0  0
 11 12  1  0  0  0  0
 12 13  2  0  0  0  0
 12 18  1  0  0  0  0
 13  3  1  0  0  0  0
 14 13  1  0  0  0  0
 15 14  2  0  0  0  0
 16 15  1  0  0  0  0
 16 11  2  0  0  0  0
 17 11  1  0  0  0  0
 19 15  1  0  0  0  0
 20  4  1  0  0  0  0
 21 20  1  0  0  0  0
 21 26  1  0  0  0  0
 22 21  2  0  0  0  0
 23 24  2  0  0  0  0
 23 22  1  0  0  0  0
 24 25  1  0  0  0  0
 25 20  2  0  0  0  0
 27 22  1  0  0  0  0
 28 23  1  0  0  0  0
 29 30  1  0  0  0  0
 29 24  1  0  0  0  0
 31 29  2  0  0  0  0
M  END
>  <minimizedAffinity>
-5.37422466

$$$$

 OpenBabel03252502133D

 31 33  0  0  0  0  0  0  0  0999 V2000
   36.8010   25.7660   40.2580 Cl  0  0  0  0  0  0  0  0  0  0  0  0
   37.1090   27.1620   41.2730 C   0  0  0  0  0  0  0  0  0  0  0  0
   37.4380   28.3600   40.7350 C   0  0  0  0  0  0  0  0  0  0  0  0
   37.6590   29.3940   41.6250 C   0  0  0  0  0  0  0  0  0  0  0  0
   37.5600   29.2420   42.9710 C   0  0  0  0  0  0  0  0  0  0  0  0
   37.2240   28.0130   43.5000 C   0  0  0  0  0  0  0  0  0  0  0  0
   37.0020   26.9850   42.6350 C   0  0  0  0  0  0  0  0  0  0  0  0
   37.7360   30.0590   43.6590 H   0  0  0  0  0  0  0  0  0  0  0  0
   37.1480   27.9050   44.5760 H   0  0  0  0  0  0  0  0  0  0  0  0
   36.7410   26.0360   43.0810 H   0  0  0  0  0  0  0  0  0  0  0  0
   36.5690   28.8700   37.0870 C   0  0  0  0  0  0  0  0  0  0  0  0
   36.4630   28.7530   38.4740 C   0  0  0  0  0  0  0  0  0  0  0  0
   37.5360   28.4860   39.2920 C   0  0  0  0  0  0  0  0  0  0  0  0
   38.7320   28.3420   38.6510 N   0  0  0  0  0  0  0  0  0  0  0  0
   38.8470   28.4530   37.3150 C   0  0  0  0  0  0  0  0  0  0  0  0
   37.7890   28.7140   36.5320 N   0  0  0  0  0  0  0  0  0  0  0  0
   35.7020   29.0800   36.4910 H   0  0  0  0  0  0  0  0  0  0  0  0
   35.5120   28.8670   38.9810 H   0  0  0  0  0  0  0  0  0  0  0  0
   39.8180   28.3310   36.8540 H   0  0  0  0  0  0  0  0  0  0  0  0
   38.0190   30.7110   41.0760 C   0  0  0  0  0  0  0  0  0  0  0  0
   36.9670   31.5160   40.6220 C   0  0  0  0  0  0  0  0  0  0  0  0
   37.4240   32.7200   40.1320 C   0  0  0  0  0  0  0  0  0  0  0  0
   38.7260   33.1520   40.0630 C   0  0  0  0  0  0  0  0  0  0  0  0
   39.6910   32.2770   40.5390 C   0  0  0  0  0  0  0  0  0  0  0  0
   39.2790   31.0920   41.0240 N   0  0  0  0  0  0  0  0  0  0  0  0
   35.9420   31.2470   40.6460 H   0  0  0  0  0  0  0  0  0  0  0  0
   36.6220   33.4040   39.7560 H   0  0  0  0  0  0  0  0  0  0  0  0
   38.9610   34.1220   39.6560 H   0  0  0  0  0  0  0  0  0  0  0  0
   41.0930   32.6590   40.5000 C   0  0  0  0  0  0  0  0  0  0  0  0
   41.8180   31.8770   40.2230 H   0  0  0  0  0  0  0  0  0  0  0  0
   41.4380   33.8380   40.7760 O   0  0  0  0  0  0  0  0  0  0  0  0
  1  2  1  0  0  0  0
  2  7  1  0  0  0  0
  3  2  2  0  0  0  0
  3  4  1  0  0  0  0
  4  5  2  0  0  0  0
  5  6  1  0  0  0  0
  5  8  1  0  0  0  0
  6  9  1  0  0  0  0
  7 10  1  0  0  0  0
  7  6  2  0  0  0  0
 11 12  1  0  0  0  0
 12 18  1  0  0  0  0
 12 13  2  0  0  0  0
 13  3  1  0  0  0  0
 14 13  1  0  0  0  0
 15 14  2  0  0  0  0
 16 11  2  0  0  0  0
 16 15  1  0  0  0  0
 17 11  1  0  0  0  0
 19 15  1  0  0  0  0
 20  4  1  0  0  0  0
 21 26  1  0  0  0  0
 21 20  2  0  0  0  0
 22 21  1  0  0  0  0
 23 22  2  0  0  0  0
 23 24  1  0  0  0  0
 24 25  2  0  0  0  0
 25 20  1  0  0  0  0
 27 22  1  0  0  0  0
 28 23  1  0  0  0  0
 29 24  1  0  0  0  0
 29 31  2  0  0  0  0
 30 29  1  0  0  0  0
M  END
>  <minimizedAffinity>
-5.16550493

$$$$

 OpenBabel03252502133D

 31 33  0  0  0  0  0  0  0  0999 V2000
   37.5280   32.5070   39.4900 Cl  0  0  0  0  0  0  0  0  0  0  0  0
   38.2490   31.4230   40.6660 C   0  0  0  0  0  0  0  0  0  0  0  0
   37.8250   30.1430   40.7900 C   0  0  0  0  0  0  0  0  0  0  0  0
   38.4610   29.3760   41.7470 C   0  0  0  0  0  0  0  0  0  0  0  0
   39.4590   29.8560   42.5330 C   0  0  0  0  0  0  0  0  0  0  0  0
   39.8760   31.1630   42.3900 C   0  0  0  0  0  0  0  0  0  0  0  0
   39.2590   31.9310   41.4510 C   0  0  0  0  0  0  0  0  0  0  0  0
   39.9500   29.2440   43.2800 H   0  0  0  0  0  0  0  0  0  0  0  0
   40.6750   31.5330   43.0240 H   0  0  0  0  0  0  0  0  0  0  0  0
   39.6100   32.9490   41.3650 H   0  0  0  0  0  0  0  0  0  0  0  0
   34.4080   29.1940   39.4680 C   0  0  0  0  0  0  0  0  0  0  0  0
   35.4280   29.6560   40.3000 C   0  0  0  0  0  0  0  0  0  0  0  0
   36.7540   29.6650   39.9330 C   0  0  0  0  0  0  0  0  0  0  0  0
   37.0130   29.1850   38.6820 N   0  0  0  0  0  0  0  0  0  0  0  0
   36.0380   28.7370   37.8710 C   0  0  0  0  0  0  0  0  0  0  0  0
   34.7500   28.7350   38.2450 N   0  0  0  0  0  0  0  0  0  0  0  0
   33.3870   29.2080   39.7990 H   0  0  0  0  0  0  0  0  0  0  0  0
   35.2210   30.0370   41.2930 H   0  0  0  0  0  0  0  0  0  0  0  0
   36.2950   28.3660   36.8870 H   0  0  0  0  0  0  0  0  0  0  0  0
   38.0260   27.9800   41.9110 C   0  0  0  0  0  0  0  0  0  0  0  0
   37.0820   27.7230   42.9130 C   0  0  0  0  0  0  0  0  0  0  0  0
   36.7520   26.3870   42.9720 C   0  0  0  0  0  0  0  0  0  0  0  0
   37.2400   25.3740   42.1850 C   0  0  0  0  0  0  0  0  0  0  0  0
   38.1710   25.7340   41.2210 C   0  0  0  0  0  0  0  0  0  0  0  0
   38.5150   27.0320   41.1380 N   0  0  0  0  0  0  0  0  0  0  0  0
   36.6640   28.4570   43.5560 H   0  0  0  0  0  0  0  0  0  0  0  0
   36.0000   26.1270   43.7590 H   0  0  0  0  0  0  0  0  0  0  0  0
   36.9040   24.3590   42.3260 H   0  0  0  0  0  0  0  0  0  0  0  0
   38.7360   24.7190   40.3480 C   0  0  0  0  0  0  0  0  0  0  0  0
   39.0550   25.0420   39.3450 H   0  0  0  0  0  0  0  0  0  0  0  0
   38.8440   23.5290   40.7450 O   0  0  0  0  0  0  0  0  0  0  0  0
  1  2  1  0  0  0  0
  2  3  2  0  0  0  0
  2  7  1  0  0  0  0
  3  4  1  0  0  0  0
  4 20  1  0  0  0  0
  4  5  2  0  0  0  0
  5  8  1  0  0  0  0
  6  5  1  0  0  0  0
  6  9  1  0  0  0  0
  7  6  2  0  0  0  0
 10  7  1  0  0  0  0
 11 17  1  0  0  0  0
 11 12  1  0  0  0  0
 12 18  1  0  0  0  0
 13 12  2  0  0  0  0
 13  3  1  0  0  0  0
 14 13  1  0  0  0  0
 15 16  1  0  0  0  0
 15 14  2  0  0  0  0
 16 11  2  0  0  0  0
 19 15  1  0  0  0  0
 20 21  1  0  0  0  0
 21 22  2  0  0  0  0
 21 26  1  0  0  0  0
 22 27  1  0  0  0  0
 23 28  1  0  0  0  0
 23 22  1  0  0  0  0
 24 23  2  0  0  0  0
 25 24  1  0  0  0  0
 25 20  2  0  0  0  0
 29 31  2  0  0  0  0
 29 24  1  0  0  0  0
 30 29  1  0  0  0  0
M  END
>  <minimizedAffinity>
-5.04000711

$$$$

 OpenBabel03252502133D

 31 33  0  0  0  0  0  0  0  0999 V2000
   37.6560   31.5180   37.3900 Cl  0  0  0  0  0  0  0  0  0  0  0  0
   36.9580   30.2010   38.3150 C   0  0  0  0  0  0  0  0  0  0  0  0
   37.5460   29.7540   39.4500 C   0  0  0  0  0  0  0  0  0  0  0  0
   36.9130   28.7130   40.1000 C   0  0  0  0  0  0  0  0  0  0  0  0
   35.7620   28.1510   39.6480 C   0  0  0  0  0  0  0  0  0  0  0  0
   35.1790   28.6220   38.4900 C   0  0  0  0  0  0  0  0  0  0  0  0
   35.7910   29.6480   37.8380 C   0  0  0  0  0  0  0  0  0  0  0  0
   35.2760   27.3350   40.1660 H   0  0  0  0  0  0  0  0  0  0  0  0
   34.2600   28.1640   38.1390 H   0  0  0  0  0  0  0  0  0  0  0  0
   35.3080   29.9920   36.9350 H   0  0  0  0  0  0  0  0  0  0  0  0
   41.2070   30.5390   40.0030 C   0  0  0  0  0  0  0  0  0  0  0  0
   40.0320   29.9310   39.5610 C   0  0  0  0  0  0  0  0  0  0  0  0
   38.7770   30.3780   39.9030 C   0  0  0  0  0  0  0  0  0  0  0  0
   38.7530   31.4740   40.7170 N   0  0  0  0  0  0  0  0  0  0  0  0
   39.8800   32.0680   41.1490 C   0  0  0  0  0  0  0  0  0  0  0  0
   41.0960   31.6190   40.8060 N   0  0  0  0  0  0  0  0  0  0  0  0
   42.1640   30.1530   39.7080 H   0  0  0  0  0  0  0  0  0  0  0  0
   40.0530   29.0610   38.9150 H   0  0  0  0  0  0  0  0  0  0  0  0
   39.8080   32.9350   41.7940 H   0  0  0  0  0  0  0  0  0  0  0  0
   37.5250   28.2000   41.3370 C   0  0  0  0  0  0  0  0  0  0  0  0
   37.1900   28.8550   42.5280 C   0  0  0  0  0  0  0  0  0  0  0  0
   37.8200   28.2890   43.6150 C   0  0  0  0  0  0  0  0  0  0  0  0
   38.6790   27.2180   43.6140 C   0  0  0  0  0  0  0  0  0  0  0  0
   38.9450   26.6400   42.3820 C   0  0  0  0  0  0  0  0  0  0  0  0
   38.3450   27.1700   41.3000 N   0  0  0  0  0  0  0  0  0  0  0  0
   36.5340   29.6860   42.6010 H   0  0  0  0  0  0  0  0  0  0  0  0
   37.5860   28.7760   44.5950 H   0  0  0  0  0  0  0  0  0  0  0  0
   39.1120   26.8620   44.5350 H   0  0  0  0  0  0  0  0  0  0  0  0
   39.8450   25.5030   42.2960 C   0  0  0  0  0  0  0  0  0  0  0  0
   40.5500   25.4840   41.4500 H   0  0  0  0  0  0  0  0  0  0  0  0
   39.8000   24.5910   43.1640 O   0  0  0  0  0  0  0  0  0  0  0  0
  1  2  1  0  0  0  0
  2  3  1  0  0  0  0
  3 13  1  0  0  0  0
  3  4  2  0  0  0  0
  4 20  1  0  0  0  0
  5  4  1  0  0  0  0
  5  8  1  0  0  0  0
  6  5  2  0  0  0  0
  7  2  2  0  0  0  0
  7  6  1  0  0  0  0
  9  6  1  0  0  0  0
 10  7  1  0  0  0  0
 11 16  1  0  0  0  0
 12 13  1  0  0  0  0
 12 11  2  0  0  0  0
 13 14  2  0  0  0  0
 14 15  1  0  0  0  0
 15 19  1  0  0  0  0
 16 15  2  0  0  0  0
 17 11  1  0  0  0  0
 18 12  1  0  0  0  0
 20 21  1  0  0  0  0
 21 26  1  0  0  0  0
 21 22  2  0  0  0  0
 22 27  1  0  0  0  0
 23 22  1  0  0  0  0
 23 28  1  0  0  0  0
 24 23  2  0  0  0  0
 25 20  2  0  0  0  0
 25 24  1  0  0  0  0
 29 24  1  0  0  0  0
 29 31  2  0  0  0  0
 30 29  1  0  0  0  0
M  END
>  <minimizedAffinity>
-5.02840233

$$$$

 OpenBabel03252502133D

 31 33  0  0  0  0  0  0  0  0999 V2000
   35.6110   25.4690   37.2570 Cl  0  0  0  0  0  0  0  0  0  0  0  0
   36.1510   25.2140   38.9070 C   0  0  0  0  0  0  0  0  0  0  0  0
   36.6430   26.2350   39.6480 C   0  0  0  0  0  0  0  0  0  0  0  0
   37.0390   25.9240   40.9340 C   0  0  0  0  0  0  0  0  0  0  0  0
   36.9500   24.6710   41.4510 C   0  0  0  0  0  0  0  0  0  0  0  0
   36.4450   23.6450   40.6790 C   0  0  0  0  0  0  0  0  0  0  0  0
   36.0510   23.9370   39.4090 C   0  0  0  0  0  0  0  0  0  0  0  0
   37.2640   24.4400   42.4610 H   0  0  0  0  0  0  0  0  0  0  0  0
   36.3800   22.6500   41.1040 H   0  0  0  0  0  0  0  0  0  0  0  0
   35.6610   23.1110   38.8320 H   0  0  0  0  0  0  0  0  0  0  0  0
   35.8240   29.7810   38.6120 C   0  0  0  0  0  0  0  0  0  0  0  0
   35.7350   28.5100   39.1800 C   0  0  0  0  0  0  0  0  0  0  0  0
   36.7240   27.5610   39.0620 C   0  0  0  0  0  0  0  0  0  0  0  0
   37.8180   27.9490   38.3430 N   0  0  0  0  0  0  0  0  0  0  0  0
   37.9150   29.1720   37.7920 C   0  0  0  0  0  0  0  0  0  0  0  0
   36.9400   30.0860   37.9160 N   0  0  0  0  0  0  0  0  0  0  0  0
   35.0250   30.4880   38.7330 H   0  0  0  0  0  0  0  0  0  0  0  0
   34.8660   28.2040   39.7500 H   0  0  0  0  0  0  0  0  0  0  0  0
   38.8030   29.4320   37.2300 H   0  0  0  0  0  0  0  0  0  0  0  0
   37.5800   27.0080   41.7690 C   0  0  0  0  0  0  0  0  0  0  0  0
   36.7100   27.5820   42.7050 C   0  0  0  0  0  0  0  0  0  0  0  0
   37.3240   28.5820   43.4260 C   0  0  0  0  0  0  0  0  0  0  0  0
   38.6200   29.0200   43.3040 C   0  0  0  0  0  0  0  0  0  0  0  0
   39.3990   28.3860   42.3480 C   0  0  0  0  0  0  0  0  0  0  0  0
   38.8280   27.4040   41.6260 N   0  0  0  0  0  0  0  0  0  0  0  0
   35.6990   27.2920   42.8520 H   0  0  0  0  0  0  0  0  0  0  0  0
   36.6710   29.0740   44.1890 H   0  0  0  0  0  0  0  0  0  0  0  0
   38.9910   29.8160   43.9300 H   0  0  0  0  0  0  0  0  0  0  0  0
   40.7810   28.7920   42.1570 C   0  0  0  0  0  0  0  0  0  0  0  0
   41.0240   29.3180   41.2200 H   0  0  0  0  0  0  0  0  0  0  0  0
   41.6440   28.5410   43.0380 O   0  0  0  0  0  0  0  0  0  0  0  0
  1  2  1  0  0  0  0
  2  7  2  0  0  0  0
  2  3  1  0  0  0  0
  3  4  2  0  0  0  0
  4  5  1  0  0  0  0
  4 20  1  0  0  0  0
  5  8  1  0  0  0  0
  6  9  1  0  0  0  0
  6  5  2  0  0  0  0
  7  6  1  0  0  0  0
 10  7  1  0  0  0  0
 11 17  1  0  0  0  0
 11 12  1  0  0  0  0
 12 18  1  0  0  0  0
 13 12  2  0  0  0  0
 13  3  1  0  0  0  0
 14 13  1  0  0  0  0
 15 16  1  0  0  0  0
 15 14  2  0  0  0  0
 16 11  2  0  0  0  0
 19 15  1  0  0  0  0
 20 21  1  0  0  0  0
 21 26  1  0  0  0  0
 21 22  2  0  0  0  0
 22 27  1  0  0  0  0
 23 22  1  0  0  0  0
 23 28  1  0  0  0  0
 24 23  2  0  0  0  0
 25 20  2  0  0  0  0
 25 24  1  0  0  0  0
 29 24  1  0  0  0  0
 29 31  2  0  0  0  0
 30 29  1  0  0  0  0
M  END
>  <minimizedAffinity>
-4.95927954

$$$$

 OpenBabel03252502133D

 31 33  0  0  0  0  0  0  0  0999 V2000
   36.2400   29.6000   36.6480 Cl  0  0  0  0  0  0  0  0  0  0  0  0
   36.2970   28.2470   37.7630 C   0  0  0  0  0  0  0  0  0  0  0  0
   36.8100   28.3870   39.0080 C   0  0  0  0  0  0  0  0  0  0  0  0
   36.8060   27.2580   39.8040 C   0  0  0  0  0  0  0  0  0  0  0  0
   36.3220   26.0610   39.3840 C   0  0  0  0  0  0  0  0  0  0  0  0
   35.8050   25.9390   38.1110 C   0  0  0  0  0  0  0  0  0  0  0  0
   35.8000   27.0440   37.3150 C   0  0  0  0  0  0  0  0  0  0  0  0
   36.3250   25.1830   40.0170 H   0  0  0  0  0  0  0  0  0  0  0  0
   35.4210   24.9770   37.7880 H   0  0  0  0  0  0  0  0  0  0  0  0
   35.3880   26.9140   36.3250 H   0  0  0  0  0  0  0  0  0  0  0  0
   37.0420   31.9000   40.3950 C   0  0  0  0  0  0  0  0  0  0  0  0
   36.5420   30.6590   40.0010 C   0  0  0  0  0  0  0  0  0  0  0  0
   37.3190   29.6820   39.4230 C   0  0  0  0  0  0  0  0  0  0  0  0
   38.6340   30.0090   39.2590 N   0  0  0  0  0  0  0  0  0  0  0  0
   39.1280   31.2020   39.6350 C   0  0  0  0  0  0  0  0  0  0  0  0
   38.3550   32.1440   40.1970 N   0  0  0  0  0  0  0  0  0  0  0  0
   36.3960   32.6310   40.8430 H   0  0  0  0  0  0  0  0  0  0  0  0
   35.4970   30.4020   40.1320 H   0  0  0  0  0  0  0  0  0  0  0  0
   40.1780   31.4130   39.4830 H   0  0  0  0  0  0  0  0  0  0  0  0
   37.3560   27.3730   41.1640 C   0  0  0  0  0  0  0  0  0  0  0  0
   36.4590   27.7190   42.1830 C   0  0  0  0  0  0  0  0  0  0  0  0
   37.0850   27.7960   43.4070 C   0  0  0  0  0  0  0  0  0  0  0  0
   38.4120   27.5750   43.6790 C   0  0  0  0  0  0  0  0  0  0  0  0
   39.2150   27.2370   42.6010 C   0  0  0  0  0  0  0  0  0  0  0  0
   38.6350   27.1540   41.3900 N   0  0  0  0  0  0  0  0  0  0  0  0
   35.4230   27.9040   42.0430 H   0  0  0  0  0  0  0  0  0  0  0  0
   36.4120   28.0710   44.2580 H   0  0  0  0  0  0  0  0  0  0  0  0
   38.7880   27.6650   44.6860 H   0  0  0  0  0  0  0  0  0  0  0  0
   40.6320   26.9880   42.8050 C   0  0  0  0  0  0  0  0  0  0  0  0
   41.0780   26.1460   42.2530 H   0  0  0  0  0  0  0  0  0  0  0  0
   41.2990   27.7170   43.5870 O   0  0  0  0  0  0  0  0  0  0  0  0
  1  2  1  0  0  0  0
  2  3  1  0  0  0  0
  3 13  1  0  0  0  0
  3  4  2  0  0  0  0
  4 20  1  0  0  0  0
  5  4  1  0  0  0  0
  5  8  1  0  0  0  0
  6  5  2  0  0  0  0
  7  2  2  0  0  0  0
  7  6  1  0  0  0  0
  9  6  1  0  0  0  0
 10  7  1  0  0  0  0
 11 17  1  0  0  0  0
 12 18  1  0  0  0  0
 12 11  2  0  0  0  0
 13 12  1  0  0  0  0
 14 13  2  0  0  0  0
 14 15  1  0  0  0  0
 15 16  2  0  0  0  0
 16 11  1  0  0  0  0
 19 15  1  0  0  0  0
 20 25  2  0  0  0  0
 20 21  1  0  0  0  0
 21 22  2  0  0  0  0
 22 23  1  0  0  0  0
 22 27  1  0  0  0  0
 23 28  1  0  0  0  0
 24 29  1  0  0  0  0
 24 23  2  0  0  0  0
 25 24  1  0  0  0  0
 26 21  1  0  0  0  0
 29 31  2  0  0  0  0
 30 29  1  0  0  0  0
M  END
>  <minimizedAffinity>
-4.92907906

$$$$

 OpenBabel03252502133D

 31 33  0  0  0  0  0  0  0  0999 V2000
   35.7010   25.3000   37.1340 Cl  0  0  0  0  0  0  0  0  0  0  0  0
   35.6540   26.7080   38.1790 C   0  0  0  0  0  0  0  0  0  0  0  0
   36.3550   26.7450   39.3360 C   0  0  0  0  0  0  0  0  0  0  0  0
   36.2480   27.9020   40.0830 C   0  0  0  0  0  0  0  0  0  0  0  0
   35.4870   28.9590   39.7000 C   0  0  0  0  0  0  0  0  0  0  0  0
   34.7810   28.9020   38.5170 C   0  0  0  0  0  0  0  0  0  0  0  0
   34.8770   27.7680   37.7690 C   0  0  0  0  0  0  0  0  0  0  0  0
   35.4110   29.8610   40.2940 H   0  0  0  0  0  0  0  0  0  0  0  0
   34.1770   29.7540   38.2220 H   0  0  0  0  0  0  0  0  0  0  0  0
   34.3110   27.7560   36.8490 H   0  0  0  0  0  0  0  0  0  0  0  0
   37.4610   23.4420   40.8160 C   0  0  0  0  0  0  0  0  0  0  0  0
   36.6800   24.5410   40.4580 C   0  0  0  0  0  0  0  0  0  0  0  0
   37.1580   25.5950   39.7150 C   0  0  0  0  0  0  0  0  0  0  0  0
   38.4670   25.4950   39.3420 N   0  0  0  0  0  0  0  0  0  0  0  0
   39.2290   24.4400   39.6810 C   0  0  0  0  0  0  0  0  0  0  0  0
   38.7470   23.4200   40.4070 N   0  0  0  0  0  0  0  0  0  0  0  0
   37.0410   22.6420   41.3980 H   0  0  0  0  0  0  0  0  0  0  0  0
   35.6410   24.6190   40.7560 H   0  0  0  0  0  0  0  0  0  0  0  0
   40.2630   24.4070   39.3610 H   0  0  0  0  0  0  0  0  0  0  0  0
   36.9960   27.9770   41.3480 C   0  0  0  0  0  0  0  0  0  0  0  0
   36.3270   27.5610   42.5060 C   0  0  0  0  0  0  0  0  0  0  0  0
   37.1250   27.6760   43.6230 C   0  0  0  0  0  0  0  0  0  0  0  0
   38.4200   28.1290   43.6800 C   0  0  0  0  0  0  0  0  0  0  0  0
   38.9900   28.5170   42.4770 C   0  0  0  0  0  0  0  0  0  0  0  0
   38.2380   28.4180   41.3660 N   0  0  0  0  0  0  0  0  0  0  0  0
   35.3300   27.2000   42.5340 H   0  0  0  0  0  0  0  0  0  0  0  0
   36.6370   27.3550   44.5780 H   0  0  0  0  0  0  0  0  0  0  0  0
   38.9450   28.1730   44.6200 H   0  0  0  0  0  0  0  0  0  0  0  0
   40.3570   29.0100   42.4520 C   0  0  0  0  0  0  0  0  0  0  0  0
   41.1570   28.2640   42.3230 H   0  0  0  0  0  0  0  0  0  0  0  0
   40.5900   30.2410   42.5750 O   0  0  0  0  0  0  0  0  0  0  0  0
  1  2  1  0  0  0  0
  2  3  1  0  0  0  0
  3 13  1  0  0  0  0
  3  4  2  0  0  0  0
  4 20  1  0  0  0  0
  5  4  1  0  0  0  0
  5  8  1  0  0  0  0
  6  5  2  0  0  0  0
  7  2  2  0  0  0  0
  7  6  1  0  0  0  0
  9  6  1  0  0  0  0
 10  7  1  0  0  0  0
 11 17  1  0  0  0  0
 12 18  1  0  0  0  0
 12 11  1  0  0  0  0
 13 12  2  0  0  0  0
 14 15  2  0  0  0  0
 14 13  1  0  0  0  0
 15 16  1  0  0  0  0
 16 11  2  0  0  0  0
 19 15  1  0  0  0  0
 20 25  2  0  0  0  0
 20 21  1  0  0  0  0
 21 26  1  0  0  0  0
 21 22  2  0  0  0  0
 22 23  1  0  0  0  0
 22 27  1  0  0  0  0
 23 28  1  0  0  0  0
 24 23  2  0  0  0  0
 25 24  1  0  0  0  0
 29 24  1  0  0  0  0
 29 31  2  0  0  0  0
 30 29  1  0  0  0  0
M  END
>  <minimizedAffinity>
-4.90875196

$$$$

 OpenBabel03252502133D

 31 33  0  0  0  0  0  0  0  0999 V2000
   39.6920   30.8780   42.7160 Cl  0  0  0  0  0  0  0  0  0  0  0  0
   38.6870   31.3530   41.3590 C   0  0  0  0  0  0  0  0  0  0  0  0
   37.9320   30.4460   40.6950 C   0  0  0  0  0  0  0  0  0  0  0  0
   37.1780   30.9270   39.6420 C   0  0  0  0  0  0  0  0  0  0  0  0
   37.1770   32.2340   39.2730 C   0  0  0  0  0  0  0  0  0  0  0  0
   37.9530   33.1420   39.9620 C   0  0  0  0  0  0  0  0  0  0  0  0
   38.7010   32.6830   41.0030 C   0  0  0  0  0  0  0  0  0  0  0  0
   36.5820   32.5990   38.4450 H   0  0  0  0  0  0  0  0  0  0  0  0
   37.9430   34.1830   39.6560 H   0  0  0  0  0  0  0  0  0  0  0  0
   39.2970   33.4200   41.5210 H   0  0  0  0  0  0  0  0  0  0  0  0
   38.7950   26.7720   40.9750 C   0  0  0  0  0  0  0  0  0  0  0  0
   38.7780   28.1040   40.5600 C   0  0  0  0  0  0  0  0  0  0  0  0
   37.9580   29.0570   41.1180 C   0  0  0  0  0  0  0  0  0  0  0  0
   37.1490   28.6100   42.1220 N   0  0  0  0  0  0  0  0  0  0  0  0
   37.1560   27.3280   42.5300 C   0  0  0  0  0  0  0  0  0  0  0  0
   37.9620   26.4110   41.9740 N   0  0  0  0  0  0  0  0  0  0  0  0
   39.4540   26.0650   40.5080 H   0  0  0  0  0  0  0  0  0  0  0  0
   39.4220   28.4570   39.7630 H   0  0  0  0  0  0  0  0  0  0  0  0
   36.4950   27.0220   43.3310 H   0  0  0  0  0  0  0  0  0  0  0  0
   36.3450   29.9700   38.8980 C   0  0  0  0  0  0  0  0  0  0  0  0
   35.0780   29.6880   39.4240 C   0  0  0  0  0  0  0  0  0  0  0  0
   34.3930   28.7820   38.6450 C   0  0  0  0  0  0  0  0  0  0  0  0
   34.8250   28.1860   37.4860 C   0  0  0  0  0  0  0  0  0  0  0  0
   36.0940   28.5340   37.0490 C   0  0  0  0  0  0  0  0  0  0  0  0
   36.7910   29.4160   37.7890 N   0  0  0  0  0  0  0  0  0  0  0  0
   34.6820   30.1120   40.3130 H   0  0  0  0  0  0  0  0  0  0  0  0
   33.3720   28.5220   39.0220 H   0  0  0  0  0  0  0  0  0  0  0  0
   34.1930   27.4890   36.9600 H   0  0  0  0  0  0  0  0  0  0  0  0
   36.6250   27.9460   35.8310 C   0  0  0  0  0  0  0  0  0  0  0  0
   36.6440   26.8460   35.7720 H   0  0  0  0  0  0  0  0  0  0  0  0
   37.0410   28.6830   34.8990 O   0  0  0  0  0  0  0  0  0  0  0  0
  2  1  1  0  0  0  0
  3 13  1  0  0  0  0
  3  2  2  0  0  0  0
  4  3  1  0  0  0  0
  5  4  2  0  0  0  0
  5  6  1  0  0  0  0
  6  7  2  0  0  0  0
  7  2  1  0  0  0  0
  7 10  1  0  0  0  0
  8  5  1  0  0  0  0
  9  6  1  0  0  0  0
 11 16  1  0  0  0  0
 12 11  2  0  0  0  0
 12 13  1  0  0  0  0
 13 14  2  0  0  0  0
 14 15  1  0  0  0  0
 15 19  1  0  0  0  0
 16 15  2  0  0  0  0
 17 11  1  0  0  0  0
 18 12  1  0  0  0  0
 20 21  1  0  0  0  0
 20  4  1  0  0  0  0
 21 26  1  0  0  0  0
 22 27  1  0  0  0  0
 22 21  2  0  0  0  0
 23 22  1  0  0  0  0
 24 23  2  0  0  0  0
 24 25  1  0  0  0  0
 25 20  2  0  0  0  0
 28 23  1  0  0  0  0
 29 24  1  0  0  0  0
 30 29  1  0  0  0  0
 31 29  2  0  0  0  0
M  END
>  <minimizedAffinity>
-4.88197422

$$$$

 OpenBabel03252502133D

 31 33  0  0  0  0  0  0  0  0999 V2000
   36.9450   30.0860   36.6650 Cl  0  0  0  0  0  0  0  0  0  0  0  0
   37.2080   30.5820   38.3270 C   0  0  0  0  0  0  0  0  0  0  0  0
   37.4250   29.6700   39.3040 C   0  0  0  0  0  0  0  0  0  0  0  0
   37.6210   30.1680   40.5770 C   0  0  0  0  0  0  0  0  0  0  0  0
   37.6020   31.4970   40.8600 C   0  0  0  0  0  0  0  0  0  0  0  0
   37.3800   32.4100   39.8500 C   0  0  0  0  0  0  0  0  0  0  0  0
   37.1850   31.9330   38.5900 C   0  0  0  0  0  0  0  0  0  0  0  0
   37.7570   31.8750   41.8620 H   0  0  0  0  0  0  0  0  0  0  0  0
   37.3660   33.4670   40.0900 H   0  0  0  0  0  0  0  0  0  0  0  0
   37.0140   32.6740   37.8230 H   0  0  0  0  0  0  0  0  0  0  0  0
   36.3410   26.1060   38.6330 C   0  0  0  0  0  0  0  0  0  0  0  0
   36.3160   27.4620   38.9610 C   0  0  0  0  0  0  0  0  0  0  0  0
   37.4380   28.2580   38.9640 C   0  0  0  0  0  0  0  0  0  0  0  0
   38.5980   27.6260   38.6200 N   0  0  0  0  0  0  0  0  0  0  0  0
   38.6340   26.3190   38.3020 C   0  0  0  0  0  0  0  0  0  0  0  0
   37.5300   25.5580   38.3040 N   0  0  0  0  0  0  0  0  0  0  0  0
   35.4370   25.5270   38.6450 H   0  0  0  0  0  0  0  0  0  0  0  0
   35.3940   27.9620   39.2350 H   0  0  0  0  0  0  0  0  0  0  0  0
   39.5790   25.8640   38.0350 H   0  0  0  0  0  0  0  0  0  0  0  0
   37.8590   29.2060   41.6640 C   0  0  0  0  0  0  0  0  0  0  0  0
   36.7320   28.7150   42.3340 C   0  0  0  0  0  0  0  0  0  0  0  0
   37.0780   27.8250   43.3280 C   0  0  0  0  0  0  0  0  0  0  0  0
   38.3410   27.4190   43.6790 C   0  0  0  0  0  0  0  0  0  0  0  0
   39.3890   27.9650   42.9530 C   0  0  0  0  0  0  0  0  0  0  0  0
   39.0850   28.8380   41.9750 N   0  0  0  0  0  0  0  0  0  0  0  0
   35.7300   28.9860   42.1150 H   0  0  0  0  0  0  0  0  0  0  0  0
   36.2110   27.4020   43.8960 H   0  0  0  0  0  0  0  0  0  0  0  0
   38.4870   26.7110   44.4790 H   0  0  0  0  0  0  0  0  0  0  0  0
   40.7570   27.5860   43.2630 C   0  0  0  0  0  0  0  0  0  0  0  0
   40.9500   26.5200   43.4610 H   0  0  0  0  0  0  0  0  0  0  0  0
   41.6650   28.4580   43.3000 O   0  0  0  0  0  0  0  0  0  0  0  0
  1  2  1  0  0  0  0
  2  7  2  0  0  0  0
  2  3  1  0  0  0  0
  3  4  2  0  0  0  0
  4  5  1  0  0  0  0
  4 20  1  0  0  0  0
  5  8  1  0  0  0  0
  6  9  1  0  0  0  0
  6  5  2  0  0  0  0
  7  6  1  0  0  0  0
 10  7  1  0  0  0  0
 11 17  1  0  0  0  0
 11 12  1  0  0  0  0
 12 13  2  0  0  0  0
 12 18  1  0  0  0  0
 13  3  1  0  0  0  0
 14 13  1  0  0  0  0
 15 16  1  0  0  0  0
 15 14  2  0  0  0  0
 16 11  2  0  0  0  0
 19 15  1  0  0  0  0
 20 25  2  0  0  0  0
 20 21  1  0  0  0  0
 21 22  2  0  0  0  0
 22 23  1  0  0  0  0
 22 27  1  0  0  0  0
 23 28  1  0  0  0  0
 24 29  1  0  0  0  0
 24 23  2  0  0  0  0
 25 24  1  0  0  0  0
 26 21  1  0  0  0  0
 29 31  2  0  0  0  0
 29 30  1  0  0  0  0
M  END
>  <minimizedAffinity>
-4.85187387

$$$$
