
     RDKit          3D

 19 20  0  0  0  0  0  0  0  0999 V2000
   44.5824   35.9123   44.3135 C   0  0  0  0  0  0  0  0  0  0  0  0
   45.3493   35.9114   43.1101 C   0  0  0  0  0  0  0  0  0  0  0  0
   46.3069   34.9162   43.0365 C   0  0  0  0  0  0  0  0  0  0  0  0
   46.4811   34.0075   44.0688 N   0  0  0  0  0  0  0  0  0  0  0  0
   45.7333   34.0568   45.1701 C   0  0  0  0  0  0  0  0  0  0  0  0
   44.7782   35.0091   45.3022 N   0  0  0  0  0  0  0  0  0  0  0  0
   47.0779   34.7995   41.7395 C   0  0  0  0  0  0  0  0  0  0  0  0
   48.4596   35.4638   41.8825 C   0  0  0  0  0  0  0  0  0  0  0  0
   48.2283   33.9375   41.7347 C   0  0  0  0  0  0  0  0  0  0  0  0
   43.8076   36.6477   44.4753 H   0  0  0  0  0  0  0  0  0  0  0  0
   46.0169   33.2742   45.8475 H   0  0  0  0  0  0  0  0  0  0  0  0
   46.5702   35.2051   40.8399 H   0  0  0  0  0  0  0  0  0  0  0  0
   48.8040   36.0026   40.9991 H   0  0  0  0  0  0  0  0  0  0  0  0
   48.7341   35.8768   42.8422 H   0  0  0  0  0  0  0  0  0  0  0  0
   48.6991   33.5134   40.8245 H   0  0  0  0  0  0  0  0  0  0  0  0
   48.4841   33.4092   42.6975 H   0  0  0  0  0  0  0  0  0  0  0  0
   45.0801   36.9147   42.0950 C   0  0  0  0  0  0  0  0  0  0  0  0
   45.8547   37.4534   41.6009 H   0  0  0  0  0  0  0  0  0  0  0  0
   43.8966   37.1824   41.7627 O   0  0  0  0  0  0  0  0  0  0  0  0
  1  6  2  0
  2  1  1  0
  3  2  2  0
  3  4  1  0
  4  5  2  0
  5  6  1  0
  7  8  1  0
  7  9  1  0
  7  3  1  0
  8  9  1  0
  1 10  1  0
  5 11  1  0
  7 12  1  0
  8 13  1  0
  8 14  1  0
  9 15  1  0
  9 16  1  0
 17 18  1  0
 17 19  2  0
  2 17  1  0
M  ISO  8  10  14  11  14  12  13  13  13  14  13  15  13  16  13  18   6
M  END
>  <DihAtoms>  (1) 
0,1,16,17

>  <DihDeg>  (1) 
179.84318877910056

$$$$
