
 OpenBabel03242522193D

 38 40  0  0  0  0  0  0  0  0999 V2000
   36.9100   30.1650   37.9480 C   0  0  0  0  0  0  0  0  0  0  0  0
   37.5710   29.4790   37.3650 H   0  0  0  0  0  0  0  0  0  0  0  0
   36.3890   30.7980   37.1780 H   0  0  0  0  0  0  0  0  0  0  0  0
   39.3330   32.4930   39.4650 C   0  0  0  0  0  0  0  0  0  0  0  0
   38.6260   32.8960   40.5260 C   0  0  0  0  0  0  0  0  0  0  0  0
   37.0580   31.9430   40.3120 S   0  0  0  0  0  0  0  0  0  0  0  0
   37.6920   31.1510   38.7620 C   0  0  0  0  0  0  0  0  0  0  0  0
   38.7070   31.6430   38.7250 N   0  0  0  0  0  0  0  0  0  0  0  0
   38.8330   33.5930   41.3480 H   0  0  0  0  0  0  0  0  0  0  0  0
   42.5310   33.4550   37.7050 C   0  0  0  0  0  0  0  0  0  0  0  0
   41.2230   32.9830   37.9000 C   0  0  0  0  0  0  0  0  0  0  0  0
   40.7060   32.9750   39.1650 C   0  0  0  0  0  0  0  0  0  0  0  0
   41.5300   33.4470   40.1910 N   0  0  0  0  0  0  0  0  0  0  0  0
   42.7760   33.8860   39.9380 C   0  0  0  0  0  0  0  0  0  0  0  0
   43.2740   33.8910   38.7060 N   0  0  0  0  0  0  0  0  0  0  0  0
   42.9390   33.4590   36.7020 H   0  0  0  0  0  0  0  0  0  0  0  0
   43.3800   34.2440   40.7690 H   0  0  0  0  0  0  0  0  0  0  0  0
   40.5200   32.5400   36.7560 N   0  0  0  0  0  0  0  0  0  0  0  0
   41.0040   32.1410   35.9210 H   0  0  0  0  0  0  0  0  0  0  0  0
   39.4940   32.5680   36.6440 H   0  0  0  0  0  0  0  0  0  0  0  0
   35.8950   29.4470   38.7800 C   0  0  0  0  0  0  0  0  0  0  0  0
   35.5460   30.1540   39.5630 H   0  0  0  0  0  0  0  0  0  0  0  0
   34.9880   29.2610   38.1480 H   0  0  0  0  0  0  0  0  0  0  0  0
   36.3180   28.2230   39.4310 C   0  0  0  0  0  0  0  0  0  0  0  0
   36.5430   26.9920   38.9060 C   0  0  0  0  0  0  0  0  0  0  0  0
   36.9460   25.8760   39.6110 C   0  0  0  0  0  0  0  0  0  0  0  0
   37.1280   26.0620   40.9680 C   0  0  0  0  0  0  0  0  0  0  0  0
   36.8950   27.3120   41.4790 C   0  0  0  0  0  0  0  0  0  0  0  0
   36.5070   28.3620   40.7670 N   0  0  0  0  0  0  0  0  0  0  0  0
   36.3610   26.9810   37.8160 H   0  0  0  0  0  0  0  0  0  0  0  0
   37.0720   24.9960   39.0280 H   0  0  0  0  0  0  0  0  0  0  0  0
   37.1280   27.3930   42.9560 C   0  0  0  0  0  0  0  0  0  0  0  0
   38.4160   27.0020   43.2760 F   0  0  0  0  0  0  0  0  0  0  0  0
   36.1770   26.7140   43.6800 F   0  0  0  0  0  0  0  0  0  0  0  0
   37.0250   28.7320   43.3670 F   0  0  0  0  0  0  0  0  0  0  0  0
   37.5640   24.8280   41.5770 C   0  0  0  0  0  0  0  0  0  0  0  0
   38.2740   24.4480   42.2700 H   0  0  0  0  0  0  0  0  0  0  0  0
   37.1420   23.6580   41.4180 O   0  0  0  0  0  0  0  0  0  0  0  0
  1  7  1  0  0  0  0
  1 21  1  0  0  0  0
  2  1  1  0  0  0  0
  3  1  1  0  0  0  0
  4  5  2  0  0  0  0
  5  9  1  0  0  0  0
  6  5  1  0  0  0  0
  7  6  1  0  0  0  0
  8  7  2  0  0  0  0
  8  4  1  0  0  0  0
 10 11  2  0  0  0  0
 10 15  1  0  0  0  0
 11 12  1  0  0  0  0
 12  4  1  0  0  0  0
 12 13  2  0  0  0  0
 14 13  1  0  0  0  0
 14 17  1  0  0  0  0
 15 14  2  0  0  0  0
 16 10  1  0  0  0  0
 18 11  1  0  0  0  0
 19 18  1  0  0  0  0
 20 18  1  0  0  0  0
 21 24  1  0  0  0  0
 21 22  1  0  0  0  0
 23 21  1  0  0  0  0
 24 29  1  0  0  0  0
 25 24  2  0  0  0  0
 25 26  1  0  0  0  0
 26 27  2  0  0  0  0
 27 28  1  0  0  0  0
 27 36  1  0  0  0  0
 28 32  1  0  0  0  0
 29 28  2  0  0  0  0
 30 25  1  0  0  0  0
 31 26  1  0  0  0  0
 32 33  1  0  0  0  0
 32 35  1  0  0  0  0
 32 34  1  0  0  0  0
 36 37  1  0  0  0  0
 38 36  2  0  0  0  0
M  END
>  <minimizedAffinity>
-6.05065346

$$$$

 OpenBabel03242522193D

 38 40  0  0  0  0  0  0  0  0999 V2000
   39.0800   32.9700   40.5590 C   0  0  0  0  0  0  0  0  0  0  0  0
   39.7260   33.3070   39.7120 H   0  0  0  0  0  0  0  0  0  0  0  0
   39.2000   33.7570   41.3530 H   0  0  0  0  0  0  0  0  0  0  0  0
   39.7020   29.6440   42.0220 C   0  0  0  0  0  0  0  0  0  0  0  0
   40.9760   29.7970   42.4000 C   0  0  0  0  0  0  0  0  0  0  0  0
   41.3170   31.5320   41.8630 S   0  0  0  0  0  0  0  0  0  0  0  0
   39.5960   31.7200   41.2040 C   0  0  0  0  0  0  0  0  0  0  0  0
   39.2060   30.6910   41.4570 N   0  0  0  0  0  0  0  0  0  0  0  0
   41.6990   29.1370   42.8960 H   0  0  0  0  0  0  0  0  0  0  0  0
   36.9430   27.1590   42.6990 C   0  0  0  0  0  0  0  0  0  0  0  0
   37.5950   28.3880   42.5140 C   0  0  0  0  0  0  0  0  0  0  0  0
   38.9320   28.3920   42.2310 C   0  0  0  0  0  0  0  0  0  0  0  0
   39.5650   27.1480   42.1430 N   0  0  0  0  0  0  0  0  0  0  0  0
   38.8830   26.0040   42.3310 C   0  0  0  0  0  0  0  0  0  0  0  0
   37.5830   26.0070   42.6070 N   0  0  0  0  0  0  0  0  0  0  0  0
   35.8840   27.1590   42.9240 H   0  0  0  0  0  0  0  0  0  0  0  0
   39.4190   25.0610   42.2530 H   0  0  0  0  0  0  0  0  0  0  0  0
   36.8100   29.5590   42.6360 N   0  0  0  0  0  0  0  0  0  0  0  0
   35.9640   29.6050   43.2470 H   0  0  0  0  0  0  0  0  0  0  0  0
   36.9960   30.4500   42.1480 H   0  0  0  0  0  0  0  0  0  0  0  0
   37.6360   32.8420   40.1890 C   0  0  0  0  0  0  0  0  0  0  0  0
   37.0720   32.6190   41.1210 H   0  0  0  0  0  0  0  0  0  0  0  0
   37.2620   33.8510   39.8710 H   0  0  0  0  0  0  0  0  0  0  0  0
   37.2910   31.8410   39.2000 C   0  0  0  0  0  0  0  0  0  0  0  0
   37.7080   31.7070   37.9160 C   0  0  0  0  0  0  0  0  0  0  0  0
   37.3210   30.7110   37.0410 C   0  0  0  0  0  0  0  0  0  0  0  0
   36.4280   29.7860   37.5500 C   0  0  0  0  0  0  0  0  0  0  0  0
   36.0190   29.9390   38.8480 C   0  0  0  0  0  0  0  0  0  0  0  0
   36.4140   30.9120   39.6580 N   0  0  0  0  0  0  0  0  0  0  0  0
   38.4160   32.5080   37.6380 H   0  0  0  0  0  0  0  0  0  0  0  0
   37.7540   30.7690   36.0720 H   0  0  0  0  0  0  0  0  0  0  0  0
   35.0580   28.8780   39.2880 C   0  0  0  0  0  0  0  0  0  0  0  0
   35.6980   27.6590   39.4310 F   0  0  0  0  0  0  0  0  0  0  0  0
   33.9500   28.7990   38.4770 F   0  0  0  0  0  0  0  0  0  0  0  0
   34.5660   29.2000   40.5620 F   0  0  0  0  0  0  0  0  0  0  0  0
   36.1230   28.7970   36.5430 C   0  0  0  0  0  0  0  0  0  0  0  0
   35.8940   27.7660   36.4330 H   0  0  0  0  0  0  0  0  0  0  0  0
   36.0310   28.9170   35.2980 O   0  0  0  0  0  0  0  0  0  0  0  0
  1  7  1  0  0  0  0
  1  3  1  0  0  0  0
  2  1  1  0  0  0  0
  4 12  1  0  0  0  0
  4  5  2  0  0  0  0
  5  9  1  0  0  0  0
  6  5  1  0  0  0  0
  7  8  2  0  0  0  0
  7  6  1  0  0  0  0
  8  4  1  0  0  0  0
 10 16  1  0  0  0  0
 11 18  1  0  0  0  0
 11 10  2  0  0  0  0
 12 11  1  0  0  0  0
 13 12  2  0  0  0  0
 13 14  1  0  0  0  0
 14 15  2  0  0  0  0
 15 10  1  0  0  0  0
 17 14  1  0  0  0  0
 18 19  1  0  0  0  0
 20 18  1  0  0  0  0
 21  1  1  0  0  0  0
 21 22  1  0  0  0  0
 23 21  1  0  0  0  0
 24 29  1  0  0  0  0
 24 21  1  0  0  0  0
 25 24  2  0  0  0  0
 26 27  2  0  0  0  0
 26 25  1  0  0  0  0
 27 28  1  0  0  0  0
 28 32  1  0  0  0  0
 28 29  2  0  0  0  0
 30 25  1  0  0  0  0
 31 26  1  0  0  0  0
 32 33  1  0  0  0  0
 32 35  1  0  0  0  0
 34 32  1  0  0  0  0
 36 27  1  0  0  0  0
 37 36  1  0  0  0  0
 38 36  2  0  0  0  0
M  END
>  <minimizedAffinity>
-5.65515709

$$$$

 OpenBabel03242522193D

 38 40  0  0  0  0  0  0  0  0999 V2000
   39.5580   30.4180   42.0410 C   0  0  0  0  0  0  0  0  0  0  0  0
   40.2300   31.2310   42.4060 H   0  0  0  0  0  0  0  0  0  0  0  0
   40.2320   29.6930   41.5090 H   0  0  0  0  0  0  0  0  0  0  0  0
   37.1050   30.9040   39.3330 C   0  0  0  0  0  0  0  0  0  0  0  0
   37.1500   32.2360   39.2220 C   0  0  0  0  0  0  0  0  0  0  0  0
   38.3950   32.6740   40.5150 S   0  0  0  0  0  0  0  0  0  0  0  0
   38.6210   30.8940   40.9730 C   0  0  0  0  0  0  0  0  0  0  0  0
   37.8920   30.4390   40.2400 N   0  0  0  0  0  0  0  0  0  0  0  0
   36.6320   32.9560   38.5750 H   0  0  0  0  0  0  0  0  0  0  0  0
   34.3960   28.5620   38.1370 C   0  0  0  0  0  0  0  0  0  0  0  0
   35.1670   29.3560   39.0010 C   0  0  0  0  0  0  0  0  0  0  0  0
   36.2330   30.0430   38.4920 C   0  0  0  0  0  0  0  0  0  0  0  0
   36.4830   29.9040   37.1240 N   0  0  0  0  0  0  0  0  0  0  0  0
   35.7050   29.1280   36.3480 C   0  0  0  0  0  0  0  0  0  0  0  0
   34.6700   28.4610   36.8490 N   0  0  0  0  0  0  0  0  0  0  0  0
   33.5520   28.0190   38.5430 H   0  0  0  0  0  0  0  0  0  0  0  0
   35.9390   29.0520   35.2890 H   0  0  0  0  0  0  0  0  0  0  0  0
   34.7820   29.3900   40.3620 N   0  0  0  0  0  0  0  0  0  0  0  0
   34.2960   28.5910   40.8260 H   0  0  0  0  0  0  0  0  0  0  0  0
   34.9410   30.1830   41.0030 H   0  0  0  0  0  0  0  0  0  0  0  0
   38.8260   29.7130   43.1390 C   0  0  0  0  0  0  0  0  0  0  0  0
   39.4970   29.6880   44.0240 H   0  0  0  0  0  0  0  0  0  0  0  0
   37.9650   30.3570   43.4600 H   0  0  0  0  0  0  0  0  0  0  0  0
   38.3740   28.3610   42.8740 C   0  0  0  0  0  0  0  0  0  0  0  0
   37.1160   27.8540   42.8490 C   0  0  0  0  0  0  0  0  0  0  0  0
   36.7810   26.5410   42.5840 C   0  0  0  0  0  0  0  0  0  0  0  0
   37.8440   25.6950   42.3270 C   0  0  0  0  0  0  0  0  0  0  0  0
   39.1060   26.2270   42.3570 C   0  0  0  0  0  0  0  0  0  0  0  0
   39.3880   27.4970   42.6170 N   0  0  0  0  0  0  0  0  0  0  0  0
   36.3650   28.6330   43.0710 H   0  0  0  0  0  0  0  0  0  0  0  0
   35.7400   26.3280   42.6090 H   0  0  0  0  0  0  0  0  0  0  0  0
   40.1730   25.2190   42.0600 C   0  0  0  0  0  0  0  0  0  0  0  0
   40.0540   24.7390   40.7680 F   0  0  0  0  0  0  0  0  0  0  0  0
   40.2230   24.2110   42.9930 F   0  0  0  0  0  0  0  0  0  0  0  0
   41.4280   25.8440   42.1190 F   0  0  0  0  0  0  0  0  0  0  0  0
   37.3540   24.3650   42.0510 C   0  0  0  0  0  0  0  0  0  0  0  0
   37.5110   23.3500   42.3180 H   0  0  0  0  0  0  0  0  0  0  0  0
   36.4440   23.9870   41.2760 O   0  0  0  0  0  0  0  0  0  0  0  0
  1  2  1  0  0  0  0
  1 21  1  0  0  0  0
  3  1  1  0  0  0  0
  4  8  1  0  0  0  0
  5  4  2  0  0  0  0
  5  6  1  0  0  0  0
  6  7  1  0  0  0  0
  7  1  1  0  0  0  0
  8  7  2  0  0  0  0
  9  5  1  0  0  0  0
 10 16  1  0  0  0  0
 10 11  1  0  0  0  0
 11 18  1  0  0  0  0
 12 11  2  0  0  0  0
 12  4  1  0  0  0  0
 13 12  1  0  0  0  0
 14 15  1  0  0  0  0
 14 13  2  0  0  0  0
 15 10  2  0  0  0  0
 17 14  1  0  0  0  0
 18 19  1  0  0  0  0
 18 20  1  0  0  0  0
 21 23  1  0  0  0  0
 21 22  1  0  0  0  0
 24 21  1  0  0  0  0
 25 24  1  0  0  0  0
 25 30  1  0  0  0  0
 26 31  1  0  0  0  0
 26 25  2  0  0  0  0
 27 28  2  0  0  0  0
 27 26  1  0  0  0  0
 28 29  1  0  0  0  0
 29 24  2  0  0  0  0
 32 35  1  0  0  0  0
 32 28  1  0  0  0  0
 32 34  1  0  0  0  0
 33 32  1  0  0  0  0
 36 37  1  0  0  0  0
 36 27  1  0  0  0  0
 38 36  2  0  0  0  0
M  END
>  <minimizedAffinity>
-5.64689255

$$$$

 OpenBabel03242522193D

 38 40  0  0  0  0  0  0  0  0999 V2000
   36.1810   30.7880   40.8670 C   0  0  0  0  0  0  0  0  0  0  0  0
   35.2830   31.3870   40.5780 H   0  0  0  0  0  0  0  0  0  0  0  0
   36.5150   31.2130   41.8530 H   0  0  0  0  0  0  0  0  0  0  0  0
   39.3150   31.7280   39.1700 C   0  0  0  0  0  0  0  0  0  0  0  0
   39.0980   31.1790   37.9700 C   0  0  0  0  0  0  0  0  0  0  0  0
   37.4250   30.4290   38.2030 S   0  0  0  0  0  0  0  0  0  0  0  0
   37.3430   31.0310   39.9530 C   0  0  0  0  0  0  0  0  0  0  0  0
   38.3460   31.5480   40.0000 N   0  0  0  0  0  0  0  0  0  0  0  0
   39.6860   31.1330   37.0450 H   0  0  0  0  0  0  0  0  0  0  0  0
   41.7780   34.1600   40.6780 C   0  0  0  0  0  0  0  0  0  0  0  0
   40.5640   33.5070   40.4100 C   0  0  0  0  0  0  0  0  0  0  0  0
   40.5530   32.4740   39.5150 C   0  0  0  0  0  0  0  0  0  0  0  0
   41.7720   32.1350   38.9230 N   0  0  0  0  0  0  0  0  0  0  0  0
   42.9030   32.8000   39.2230 C   0  0  0  0  0  0  0  0  0  0  0  0
   42.9070   33.8050   40.0930 N   0  0  0  0  0  0  0  0  0  0  0  0
   41.7830   34.9790   41.3870 H   0  0  0  0  0  0  0  0  0  0  0  0
   43.8280   32.4990   38.7360 H   0  0  0  0  0  0  0  0  0  0  0  0
   39.4170   33.9720   41.0940 N   0  0  0  0  0  0  0  0  0  0  0  0
   39.3150   34.9630   41.4080 H   0  0  0  0  0  0  0  0  0  0  0  0
   38.5970   33.3930   41.3390 H   0  0  0  0  0  0  0  0  0  0  0  0
   35.8970   29.3270   41.0180 C   0  0  0  0  0  0  0  0  0  0  0  0
   34.9180   29.2290   41.5340 H   0  0  0  0  0  0  0  0  0  0  0  0
   35.7210   28.8940   39.9980 H   0  0  0  0  0  0  0  0  0  0  0  0
   36.8720   28.5340   41.7420 C   0  0  0  0  0  0  0  0  0  0  0  0
   37.7050   28.8890   42.7520 C   0  0  0  0  0  0  0  0  0  0  0  0
   38.6070   28.0570   43.3840 C   0  0  0  0  0  0  0  0  0  0  0  0
   38.6390   26.7540   42.9240 C   0  0  0  0  0  0  0  0  0  0  0  0
   37.7900   26.4150   41.9020 C   0  0  0  0  0  0  0  0  0  0  0  0
   36.9360   27.2460   41.3190 N   0  0  0  0  0  0  0  0  0  0  0  0
   37.5770   29.9520   43.0220 H   0  0  0  0  0  0  0  0  0  0  0  0
   39.1760   28.5140   44.1560 H   0  0  0  0  0  0  0  0  0  0  0  0
   37.9120   24.9800   41.4920 C   0  0  0  0  0  0  0  0  0  0  0  0
   37.5550   24.1370   42.5290 F   0  0  0  0  0  0  0  0  0  0  0  0
   39.1500   24.6820   40.9730 F   0  0  0  0  0  0  0  0  0  0  0  0
   37.0010   24.7170   40.4570 F   0  0  0  0  0  0  0  0  0  0  0  0
   39.6060   25.9930   43.6780 C   0  0  0  0  0  0  0  0  0  0  0  0
   39.7020   25.4200   44.5670 H   0  0  0  0  0  0  0  0  0  0  0  0
   40.8150   25.7650   43.4390 O   0  0  0  0  0  0  0  0  0  0  0  0
  1 21  1  0  0  0  0
  1  3  1  0  0  0  0
  2  1  1  0  0  0  0
  4 12  1  0  0  0  0
  4  8  1  0  0  0  0
  5  6  1  0  0  0  0
  5  4  2  0  0  0  0
  6  7  1  0  0  0  0
  7  8  2  0  0  0  0
  7  1  1  0  0  0  0
  9  5  1  0  0  0  0
 10 16  1  0  0  0  0
 11 10  1  0  0  0  0
 11 18  1  0  0  0  0
 12 11  2  0  0  0  0
 13 14  2  0  0  0  0
 13 12  1  0  0  0  0
 14 15  1  0  0  0  0
 15 10  2  0  0  0  0
 17 14  1  0  0  0  0
 18 20  1  0  0  0  0
 18 19  1  0  0  0  0
 21 22  1  0  0  0  0
 21 24  1  0  0  0  0
 23 21  1  0  0  0  0
 24 25  1  0  0  0  0
 25 30  1  0  0  0  0
 25 26  2  0  0  0  0
 26 31  1  0  0  0  0
 27 26  1  0  0  0  0
 27 36  1  0  0  0  0
 28 27  2  0  0  0  0
 29 24  2  0  0  0  0
 29 28  1  0  0  0  0
 32 28  1  0  0  0  0
 32 33  1  0  0  0  0
 34 32  1  0  0  0  0
 35 32  1  0  0  0  0
 36 37  1  0  0  0  0
 38 36  2  0  0  0  0
M  END
>  <minimizedAffinity>
-5.57276106

$$$$

 OpenBabel03242522193D

 38 40  0  0  0  0  0  0  0  0999 V2000
   35.3500   28.9550   37.6710 C   0  0  0  0  0  0  0  0  0  0  0  0
   35.9180   28.0740   37.2860 H   0  0  0  0  0  0  0  0  0  0  0  0
   35.5080   29.7650   36.9070 H   0  0  0  0  0  0  0  0  0  0  0  0
   37.2260   30.7110   40.3140 C   0  0  0  0  0  0  0  0  0  0  0  0
   36.6620   30.1620   41.3950 C   0  0  0  0  0  0  0  0  0  0  0  0
   35.4390   29.0080   40.6310 S   0  0  0  0  0  0  0  0  0  0  0  0
   35.9510   29.5140   38.9240 C   0  0  0  0  0  0  0  0  0  0  0  0
   36.7450   30.2670   39.2040 N   0  0  0  0  0  0  0  0  0  0  0  0
   36.8150   30.2950   42.4740 H   0  0  0  0  0  0  0  0  0  0  0  0
   39.1540   33.9550   40.2050 C   0  0  0  0  0  0  0  0  0  0  0  0
   38.0790   33.0550   40.1190 C   0  0  0  0  0  0  0  0  0  0  0  0
   38.3020   31.7330   40.3820 C   0  0  0  0  0  0  0  0  0  0  0  0
   39.6060   31.3650   40.7250 N   0  0  0  0  0  0  0  0  0  0  0  0
   40.5940   32.2770   40.7910 C   0  0  0  0  0  0  0  0  0  0  0  0
   40.3710   33.5620   40.5330 N   0  0  0  0  0  0  0  0  0  0  0  0
   38.9740   35.0020   39.9960 H   0  0  0  0  0  0  0  0  0  0  0  0
   41.5920   31.9430   41.0620 H   0  0  0  0  0  0  0  0  0  0  0  0
   36.8190   33.5880   39.7590 N   0  0  0  0  0  0  0  0  0  0  0  0
   36.7210   34.4380   39.1610 H   0  0  0  0  0  0  0  0  0  0  0  0
   35.9070   33.1970   40.0460 H   0  0  0  0  0  0  0  0  0  0  0  0
   33.8860   28.6940   37.8330 C   0  0  0  0  0  0  0  0  0  0  0  0
   33.7460   27.5920   37.8740 H   0  0  0  0  0  0  0  0  0  0  0  0
   33.5740   29.0530   38.8490 H   0  0  0  0  0  0  0  0  0  0  0  0
   33.0010   29.2260   36.8150 C   0  0  0  0  0  0  0  0  0  0  0  0
   33.0240   29.0590   35.4690 C   0  0  0  0  0  0  0  0  0  0  0  0
   32.1300   29.6100   34.5720 C   0  0  0  0  0  0  0  0  0  0  0  0
   31.1380   30.3970   35.1270 C   0  0  0  0  0  0  0  0  0  0  0  0
   31.1330   30.5540   36.4890 C   0  0  0  0  0  0  0  0  0  0  0  0
   32.0110   30.0060   37.3180 N   0  0  0  0  0  0  0  0  0  0  0  0
   33.8630   28.4110   35.1600 H   0  0  0  0  0  0  0  0  0  0  0  0
   32.3070   29.3670   33.5530 H   0  0  0  0  0  0  0  0  0  0  0  0
   30.0130   31.4210   36.9730 C   0  0  0  0  0  0  0  0  0  0  0  0
   28.7850   30.8570   36.6740 F   0  0  0  0  0  0  0  0  0  0  0  0
   30.1180   32.7180   36.5300 F   0  0  0  0  0  0  0  0  0  0  0  0
   30.0630   31.5000   38.3740 F   0  0  0  0  0  0  0  0  0  0  0  0
   30.2680   30.8930   34.0870 C   0  0  0  0  0  0  0  0  0  0  0  0
   29.3900   30.6390   33.5470 H   0  0  0  0  0  0  0  0  0  0  0  0
   30.3330   31.9530   33.4210 O   0  0  0  0  0  0  0  0  0  0  0  0
  1 21  1  0  0  0  0
  1  7  1  0  0  0  0
  2  1  1  0  0  0  0
  3  1  1  0  0  0  0
  4 12  1  0  0  0  0
  4  5  2  0  0  0  0
  5  9  1  0  0  0  0
  6  5  1  0  0  0  0
  7  8  2  0  0  0  0
  7  6  1  0  0  0  0
  8  4  1  0  0  0  0
 10 15  1  0  0  0  0
 11 10  2  0  0  0  0
 11 12  1  0  0  0  0
 12 13  2  0  0  0  0
 13 14  1  0  0  0  0
 14 17  1  0  0  0  0
 15 14  2  0  0  0  0
 16 10  1  0  0  0  0
 18 20  1  0  0  0  0
 18 11  1  0  0  0  0
 19 18  1  0  0  0  0
 21 22  1  0  0  0  0
 21 23  1  0  0  0  0
 24 29  1  0  0  0  0
 24 21  1  0  0  0  0
 25 24  2  0  0  0  0
 26 27  2  0  0  0  0
 26 25  1  0  0  0  0
 27 28  1  0  0  0  0
 28 32  1  0  0  0  0
 28 29  2  0  0  0  0
 30 25  1  0  0  0  0
 31 26  1  0  0  0  0
 32 35  1  0  0  0  0
 33 32  1  0  0  0  0
 34 32  1  0  0  0  0
 36 27  1  0  0  0  0
 37 36  1  0  0  0  0
 38 36  2  0  0  0  0
M  END
>  <minimizedAffinity>
-5.56292963

$$$$

 OpenBabel03242522193D

 38 40  0  0  0  0  0  0  0  0999 V2000
   37.5800   29.1120   43.0300 C   0  0  0  0  0  0  0  0  0  0  0  0
   36.5810   28.7210   43.3400 H   0  0  0  0  0  0  0  0  0  0  0  0
   37.8710   29.8470   43.8300 H   0  0  0  0  0  0  0  0  0  0  0  0
   38.0520   31.3410   40.1320 C   0  0  0  0  0  0  0  0  0  0  0  0
   36.8600   31.2010   39.5420 C   0  0  0  0  0  0  0  0  0  0  0  0
   36.0160   30.0190   40.6840 S   0  0  0  0  0  0  0  0  0  0  0  0
   37.5050   29.9400   41.7840 C   0  0  0  0  0  0  0  0  0  0  0  0
   38.1740   30.6460   41.2110 N   0  0  0  0  0  0  0  0  0  0  0  0
   36.4150   31.6270   38.6340 H   0  0  0  0  0  0  0  0  0  0  0  0
   40.5120   34.1570   39.6150 C   0  0  0  0  0  0  0  0  0  0  0  0
   39.4790   33.3950   40.1850 C   0  0  0  0  0  0  0  0  0  0  0  0
   39.1320   32.2110   39.5990 C   0  0  0  0  0  0  0  0  0  0  0  0
   39.8430   31.8360   38.4560 N   0  0  0  0  0  0  0  0  0  0  0  0
   40.8230   32.6110   37.9580 C   0  0  0  0  0  0  0  0  0  0  0  0
   41.1560   33.7630   38.5320 N   0  0  0  0  0  0  0  0  0  0  0  0
   40.7840   35.0960   40.0810 H   0  0  0  0  0  0  0  0  0  0  0  0
   41.3480   32.2770   37.0660 H   0  0  0  0  0  0  0  0  0  0  0  0
   38.8590   33.9150   41.3450 N   0  0  0  0  0  0  0  0  0  0  0  0
   38.7960   34.9400   41.5340 H   0  0  0  0  0  0  0  0  0  0  0  0
   38.4240   33.3470   42.0890 H   0  0  0  0  0  0  0  0  0  0  0  0
   38.6260   28.0480   42.9200 C   0  0  0  0  0  0  0  0  0  0  0  0
   39.4910   28.4850   42.3770 H   0  0  0  0  0  0  0  0  0  0  0  0
   39.0210   27.8330   43.9470 H   0  0  0  0  0  0  0  0  0  0  0  0
   38.2510   26.8150   42.2550 C   0  0  0  0  0  0  0  0  0  0  0  0
   37.2610   25.9340   42.5500 C   0  0  0  0  0  0  0  0  0  0  0  0
   36.9780   24.7770   41.8530 C   0  0  0  0  0  0  0  0  0  0  0  0
   37.7920   24.5220   40.7650 C   0  0  0  0  0  0  0  0  0  0  0  0
   38.7850   25.4230   40.4840 C   0  0  0  0  0  0  0  0  0  0  0  0
   39.0270   26.5260   41.1800 N   0  0  0  0  0  0  0  0  0  0  0  0
   36.6890   26.2570   43.4380 H   0  0  0  0  0  0  0  0  0  0  0  0
   36.1630   24.2110   42.2330 H   0  0  0  0  0  0  0  0  0  0  0  0
   39.5980   25.0440   39.2850 C   0  0  0  0  0  0  0  0  0  0  0  0
   38.8340   25.1020   38.1320 F   0  0  0  0  0  0  0  0  0  0  0  0
   40.2320   23.8340   39.4370 F   0  0  0  0  0  0  0  0  0  0  0  0
   40.6240   25.9850   39.1070 F   0  0  0  0  0  0  0  0  0  0  0  0
   37.3770   23.2990   40.1200 C   0  0  0  0  0  0  0  0  0  0  0  0
   36.7840   22.9440   39.3140 H   0  0  0  0  0  0  0  0  0  0  0  0
   37.6600   22.1090   40.3940 O   0  0  0  0  0  0  0  0  0  0  0  0
  1  2  1  0  0  0  0
  1  3  1  0  0  0  0
  4  8  1  0  0  0  0
  5  4  2  0  0  0  0
  5  6  1  0  0  0  0
  6  7  1  0  0  0  0
  7  1  1  0  0  0  0
  8  7  2  0  0  0  0
  9  5  1  0  0  0  0
 10 16  1  0  0  0  0
 10 11  1  0  0  0  0
 11 18  1  0  0  0  0
 12  4  1  0  0  0  0
 12 11  2  0  0  0  0
 13 12  1  0  0  0  0
 14 13  2  0  0  0  0
 14 15  1  0  0  0  0
 15 10  2  0  0  0  0
 17 14  1  0  0  0  0
 18 19  1  0  0  0  0
 18 20  1  0  0  0  0
 21  1  1  0  0  0  0
 21 23  1  0  0  0  0
 22 21  1  0  0  0  0
 24 25  1  0  0  0  0
 24 21  1  0  0  0  0
 25 30  1  0  0  0  0
 26 31  1  0  0  0  0
 26 25  2  0  0  0  0
 27 26  1  0  0  0  0
 28 27  2  0  0  0  0
 28 29  1  0  0  0  0
 29 24  2  0  0  0  0
 32 34  1  0  0  0  0
 32 28  1  0  0  0  0
 33 32  1  0  0  0  0
 35 32  1  0  0  0  0
 36 38  2  0  0  0  0
 36 27  1  0  0  0  0
 37 36  1  0  0  0  0
M  END
>  <minimizedAffinity>
-5.51670361

$$$$

 OpenBabel03242522193D

 38 40  0  0  0  0  0  0  0  0999 V2000
   34.1090   28.2340   37.0390 C   0  0  0  0  0  0  0  0  0  0  0  0
   33.2910   28.3880   37.7840 H   0  0  0  0  0  0  0  0  0  0  0  0
   34.2250   27.1190   36.9540 H   0  0  0  0  0  0  0  0  0  0  0  0
   37.1530   29.1330   38.9120 C   0  0  0  0  0  0  0  0  0  0  0  0
   37.8670   29.6930   37.9300 C   0  0  0  0  0  0  0  0  0  0  0  0
   36.7150   29.5320   36.4950 S   0  0  0  0  0  0  0  0  0  0  0  0
   35.4370   28.7010   37.5490 C   0  0  0  0  0  0  0  0  0  0  0  0
   35.9980   28.7100   38.5290 N   0  0  0  0  0  0  0  0  0  0  0  0
   38.8640   30.1490   37.8890 H   0  0  0  0  0  0  0  0  0  0  0  0
   37.5000   29.3730   42.6640 C   0  0  0  0  0  0  0  0  0  0  0  0
   36.9670   29.5350   41.3750 C   0  0  0  0  0  0  0  0  0  0  0  0
   37.6420   29.0080   40.3100 C   0  0  0  0  0  0  0  0  0  0  0  0
   38.8340   28.3340   40.5850 N   0  0  0  0  0  0  0  0  0  0  0  0
   39.2920   28.2120   41.8440 C   0  0  0  0  0  0  0  0  0  0  0  0
   38.6320   28.7270   42.8760 N   0  0  0  0  0  0  0  0  0  0  0  0
   36.9630   29.7910   43.5060 H   0  0  0  0  0  0  0  0  0  0  0  0
   40.2250   27.6780   42.0090 H   0  0  0  0  0  0  0  0  0  0  0  0
   35.7480   30.2440   41.2650 N   0  0  0  0  0  0  0  0  0  0  0  0
   35.4690   30.9860   41.9460 H   0  0  0  0  0  0  0  0  0  0  0  0
   35.0430   30.1000   40.5250 H   0  0  0  0  0  0  0  0  0  0  0  0
   33.8030   28.8130   35.6930 C   0  0  0  0  0  0  0  0  0  0  0  0
   34.6560   29.4650   35.4090 H   0  0  0  0  0  0  0  0  0  0  0  0
   33.8220   27.9820   34.9390 H   0  0  0  0  0  0  0  0  0  0  0  0
   32.5810   29.5830   35.5640 C   0  0  0  0  0  0  0  0  0  0  0  0
   32.0060   30.1240   34.4610 C   0  0  0  0  0  0  0  0  0  0  0  0
   30.8310   30.8480   34.4360 C   0  0  0  0  0  0  0  0  0  0  0  0
   30.2110   31.0190   35.6600 C   0  0  0  0  0  0  0  0  0  0  0  0
   30.8080   30.4650   36.7620 C   0  0  0  0  0  0  0  0  0  0  0  0
   31.9410   29.7750   36.7450 N   0  0  0  0  0  0  0  0  0  0  0  0
   32.6010   29.9130   33.5540 H   0  0  0  0  0  0  0  0  0  0  0  0
   30.5350   31.1930   33.4760 H   0  0  0  0  0  0  0  0  0  0  0  0
   30.0450   30.7130   38.0270 C   0  0  0  0  0  0  0  0  0  0  0  0
   28.7950   30.1200   37.9740 F   0  0  0  0  0  0  0  0  0  0  0  0
   29.9820   32.0460   38.3550 F   0  0  0  0  0  0  0  0  0  0  0  0
   30.7120   30.0960   39.0970 F   0  0  0  0  0  0  0  0  0  0  0  0
   28.9920   31.7730   35.4890 C   0  0  0  0  0  0  0  0  0  0  0  0
   27.9370   31.6550   35.4750 H   0  0  0  0  0  0  0  0  0  0  0  0
   28.8260   32.9960   35.2700 O   0  0  0  0  0  0  0  0  0  0  0  0
  1  7  1  0  0  0  0
  1  2  1  0  0  0  0
  3  1  1  0  0  0  0
  4 12  1  0  0  0  0
  5  4  2  0  0  0  0
  6  7  1  0  0  0  0
  6  5  1  0  0  0  0
  7  8  2  0  0  0  0
  8  4  1  0  0  0  0
  9  5  1  0  0  0  0
 10 15  1  0  0  0  0
 10 16  1  0  0  0  0
 11 10  2  0  0  0  0
 12 13  2  0  0  0  0
 12 11  1  0  0  0  0
 13 14  1  0  0  0  0
 14 17  1  0  0  0  0
 14 15  2  0  0  0  0
 18 11  1  0  0  0  0
 18 19  1  0  0  0  0
 20 18  1  0  0  0  0
 21  1  1  0  0  0  0
 22 21  1  0  0  0  0
 23 21  1  0  0  0  0
 24 21  1  0  0  0  0
 24 29  1  0  0  0  0
 25 24  2  0  0  0  0
 26 25  1  0  0  0  0
 26 27  2  0  0  0  0
 27 28  1  0  0  0  0
 28 32  1  0  0  0  0
 29 28  2  0  0  0  0
 30 25  1  0  0  0  0
 31 26  1  0  0  0  0
 32 34  1  0  0  0  0
 32 35  1  0  0  0  0
 33 32  1  0  0  0  0
 36 27  1  0  0  0  0
 37 36  1  0  0  0  0
 38 36  2  0  0  0  0
M  END
>  <minimizedAffinity>
-5.37667608

$$$$

 OpenBabel03242522193D

 38 40  0  0  0  0  0  0  0  0999 V2000
   37.2270   30.7390   41.2320 C   0  0  0  0  0  0  0  0  0  0  0  0
   36.7380   31.6140   41.7250 H   0  0  0  0  0  0  0  0  0  0  0  0
   38.1290   30.5110   41.8630 H   0  0  0  0  0  0  0  0  0  0  0  0
   39.2020   31.7950   38.3040 C   0  0  0  0  0  0  0  0  0  0  0  0
   38.3230   31.5330   37.3310 C   0  0  0  0  0  0  0  0  0  0  0  0
   36.8900   30.8720   38.2930 S   0  0  0  0  0  0  0  0  0  0  0  0
   37.7990   31.0890   39.8920 C   0  0  0  0  0  0  0  0  0  0  0  0
   38.7630   31.5100   39.4820 N   0  0  0  0  0  0  0  0  0  0  0  0
   38.3520   31.6450   36.2400 H   0  0  0  0  0  0  0  0  0  0  0  0
   42.7730   32.2840   37.1800 C   0  0  0  0  0  0  0  0  0  0  0  0
   41.5200   31.6780   37.3700 C   0  0  0  0  0  0  0  0  0  0  0  0
   40.5540   32.3580   38.0550 C   0  0  0  0  0  0  0  0  0  0  0  0
   40.8870   33.6320   38.5250 N   0  0  0  0  0  0  0  0  0  0  0  0
   42.1060   34.1580   38.3100 C   0  0  0  0  0  0  0  0  0  0  0  0
   43.0430   33.4910   37.6430 N   0  0  0  0  0  0  0  0  0  0  0  0
   43.5370   31.7420   36.6370 H   0  0  0  0  0  0  0  0  0  0  0  0
   42.3190   35.1530   38.6950 H   0  0  0  0  0  0  0  0  0  0  0  0
   41.3420   30.3820   36.8310 N   0  0  0  0  0  0  0  0  0  0  0  0
   42.1340   29.7120   36.7110 H   0  0  0  0  0  0  0  0  0  0  0  0
   40.4410   29.9910   36.5150 H   0  0  0  0  0  0  0  0  0  0  0  0
   36.3480   29.5310   41.1560 C   0  0  0  0  0  0  0  0  0  0  0  0
   35.4560   29.7270   41.7890 H   0  0  0  0  0  0  0  0  0  0  0  0
   35.9390   29.4580   40.1140 H   0  0  0  0  0  0  0  0  0  0  0  0
   36.9240   28.2640   41.5620 C   0  0  0  0  0  0  0  0  0  0  0  0
   37.7280   27.9730   42.6150 C   0  0  0  0  0  0  0  0  0  0  0  0
   38.2320   26.7250   42.9240 C   0  0  0  0  0  0  0  0  0  0  0  0
   37.8660   25.7060   42.0660 C   0  0  0  0  0  0  0  0  0  0  0  0
   37.0540   26.0210   41.0080 C   0  0  0  0  0  0  0  0  0  0  0  0
   36.5900   27.2350   40.7440 N   0  0  0  0  0  0  0  0  0  0  0  0
   37.9420   28.8730   43.2180 H   0  0  0  0  0  0  0  0  0  0  0  0
   38.8460   26.6900   43.7910 H   0  0  0  0  0  0  0  0  0  0  0  0
   36.7230   24.8370   40.1510 C   0  0  0  0  0  0  0  0  0  0  0  0
   35.9780   23.9090   40.8570 F   0  0  0  0  0  0  0  0  0  0  0  0
   37.8350   24.2830   39.5630 F   0  0  0  0  0  0  0  0  0  0  0  0
   35.9050   25.2520   39.0880 F   0  0  0  0  0  0  0  0  0  0  0  0
   38.4430   24.4600   42.5120 C   0  0  0  0  0  0  0  0  0  0  0  0
   38.1700   23.4880   42.8430 H   0  0  0  0  0  0  0  0  0  0  0  0
   39.6460   24.1350   42.6550 O   0  0  0  0  0  0  0  0  0  0  0  0
  1  2  1  0  0  0  0
  1  3  1  0  0  0  0
  4  8  1  0  0  0  0
  5  6  1  0  0  0  0
  5  4  2  0  0  0  0
  6  7  1  0  0  0  0
  7  1  1  0  0  0  0
  8  7  2  0  0  0  0
  9  5  1  0  0  0  0
 10 11  2  0  0  0  0
 10 15  1  0  0  0  0
 11 12  1  0  0  0  0
 12  4  1  0  0  0  0
 12 13  2  0  0  0  0
 14 13  1  0  0  0  0
 14 17  1  0  0  0  0
 15 14  2  0  0  0  0
 16 10  1  0  0  0  0
 18 11  1  0  0  0  0
 19 18  1  0  0  0  0
 20 18  1  0  0  0  0
 21  1  1  0  0  0  0
 21 24  1  0  0  0  0
 21 22  1  0  0  0  0
 23 21  1  0  0  0  0
 24 25  1  0  0  0  0
 25 26  2  0  0  0  0
 25 30  1  0  0  0  0
 26 31  1  0  0  0  0
 27 36  1  0  0  0  0
 27 26  1  0  0  0  0
 28 27  2  0  0  0  0
 29 28  1  0  0  0  0
 29 24  2  0  0  0  0
 32 33  1  0  0  0  0
 32 28  1  0  0  0  0
 34 32  1  0  0  0  0
 35 32  1  0  0  0  0
 36 38  2  0  0  0  0
 36 37  1  0  0  0  0
M  END
>  <minimizedAffinity>
-5.35738373

$$$$

 OpenBabel03242522193D

 38 40  0  0  0  0  0  0  0  0999 V2000
   35.8310   29.1230   38.9750 C   0  0  0  0  0  0  0  0  0  0  0  0
   36.2840   30.1190   38.7500 H   0  0  0  0  0  0  0  0  0  0  0  0
   36.5920   28.3690   38.6330 H   0  0  0  0  0  0  0  0  0  0  0  0
   32.6490   29.0480   37.1160 C   0  0  0  0  0  0  0  0  0  0  0  0
   32.7720   27.8660   36.5020 C   0  0  0  0  0  0  0  0  0  0  0  0
   34.4220   27.3000   37.1130 S   0  0  0  0  0  0  0  0  0  0  0  0
   34.6310   28.8390   38.1240 C   0  0  0  0  0  0  0  0  0  0  0  0
   33.6570   29.3450   37.8620 N   0  0  0  0  0  0  0  0  0  0  0  0
   32.1300   27.3060   35.8110 H   0  0  0  0  0  0  0  0  0  0  0  0
   29.5240   31.0680   37.7510 C   0  0  0  0  0  0  0  0  0  0  0  0
   30.6200   30.2230   37.9890 C   0  0  0  0  0  0  0  0  0  0  0  0
   31.4660   29.9330   36.9560 C   0  0  0  0  0  0  0  0  0  0  0  0
   31.1770   30.5100   35.7170 N   0  0  0  0  0  0  0  0  0  0  0  0
   30.1100   31.3130   35.5530 C   0  0  0  0  0  0  0  0  0  0  0  0
   29.2890   31.5910   36.5610 N   0  0  0  0  0  0  0  0  0  0  0  0
   28.8540   31.2960   38.5710 H   0  0  0  0  0  0  0  0  0  0  0  0
   29.9250   31.7390   34.5700 H   0  0  0  0  0  0  0  0  0  0  0  0
   30.7730   29.7200   39.3020 N   0  0  0  0  0  0  0  0  0  0  0  0
   29.9620   29.5680   39.9420 H   0  0  0  0  0  0  0  0  0  0  0  0
   31.6750   29.4650   39.7370 H   0  0  0  0  0  0  0  0  0  0  0  0
   35.5360   28.9180   40.4270 C   0  0  0  0  0  0  0  0  0  0  0  0
   35.3490   29.9180   40.8740 H   0  0  0  0  0  0  0  0  0  0  0  0
   34.5530   28.3850   40.5160 H   0  0  0  0  0  0  0  0  0  0  0  0
   36.5470   28.2480   41.2220 C   0  0  0  0  0  0  0  0  0  0  0  0
   37.4130   28.7560   42.1350 C   0  0  0  0  0  0  0  0  0  0  0  0
   38.3490   28.0330   42.8480 C   0  0  0  0  0  0  0  0  0  0  0  0
   38.3800   26.6770   42.5850 C   0  0  0  0  0  0  0  0  0  0  0  0
   37.4970   26.1840   41.6590 C   0  0  0  0  0  0  0  0  0  0  0  0
   36.6120   26.9130   40.9930 N   0  0  0  0  0  0  0  0  0  0  0  0
   37.2820   29.8470   42.2480 H   0  0  0  0  0  0  0  0  0  0  0  0
   38.9410   28.6040   43.5200 H   0  0  0  0  0  0  0  0  0  0  0  0
   37.6220   24.7040   41.4620 C   0  0  0  0  0  0  0  0  0  0  0  0
   37.7430   24.0520   42.6760 F   0  0  0  0  0  0  0  0  0  0  0  0
   38.6250   24.3710   40.5830 F   0  0  0  0  0  0  0  0  0  0  0  0
   36.4400   24.2150   40.8840 F   0  0  0  0  0  0  0  0  0  0  0  0
   39.3840   26.0430   43.4060 C   0  0  0  0  0  0  0  0  0  0  0  0
   39.5450   25.1810   44.0050 H   0  0  0  0  0  0  0  0  0  0  0  0
   40.5510   26.4120   43.6800 O   0  0  0  0  0  0  0  0  0  0  0  0
  1 21  1  0  0  0  0
  2  1  1  0  0  0  0
  3  1  1  0  0  0  0
  4  8  1  0  0  0  0
  5  6  1  0  0  0  0
  5  4  2  0  0  0  0
  6  7  1  0  0  0  0
  7  1  1  0  0  0  0
  8  7  2  0  0  0  0
  9  5  1  0  0  0  0
 10 11  1  0  0  0  0
 10 16  1  0  0  0  0
 11 18  1  0  0  0  0
 12  4  1  0  0  0  0
 12 11  2  0  0  0  0
 13 12  1  0  0  0  0
 14 13  2  0  0  0  0
 14 15  1  0  0  0  0
 15 10  2  0  0  0  0
 17 14  1  0  0  0  0
 18 20  1  0  0  0  0
 18 19  1  0  0  0  0
 21 23  1  0  0  0  0
 21 22  1  0  0  0  0
 21 24  1  0  0  0  0
 24 25  1  0  0  0  0
 25 30  1  0  0  0  0
 25 26  2  0  0  0  0
 26 31  1  0  0  0  0
 27 26  1  0  0  0  0
 27 36  1  0  0  0  0
 28 27  2  0  0  0  0
 29 24  2  0  0  0  0
 29 28  1  0  0  0  0
 32 28  1  0  0  0  0
 32 33  1  0  0  0  0
 34 32  1  0  0  0  0
 35 32  1  0  0  0  0
 36 38  2  0  0  0  0
 36 37  1  0  0  0  0
M  END
>  <minimizedAffinity>
-5.35152292

$$$$
