
 OpenBabel03252509203D

 19 20  0  0  0  0  0  0  0  0999 V2000
   44.8030   35.0100   45.2960 C   0  0  0  0  0  0  0  0  0  0  0  0
   45.4810   35.0460   44.0410 C   0  0  0  0  0  0  0  0  0  0  0  0
   46.4850   34.1060   43.8980 C   0  0  0  0  0  0  0  0  0  0  0  0
   46.7830   33.2130   44.9160 N   0  0  0  0  0  0  0  0  0  0  0  0
   46.1140   33.2250   46.0680 C   0  0  0  0  0  0  0  0  0  0  0  0
   45.1200   34.1230   46.2680 N   0  0  0  0  0  0  0  0  0  0  0  0
   44.0030   35.7020   45.5130 H   0  0  0  0  0  0  0  0  0  0  0  0
   46.4890   32.4620   46.7230 H   0  0  0  0  0  0  0  0  0  0  0  0
   47.1660   34.0280   42.5490 C   0  0  0  0  0  0  0  0  0  0  0  0
   48.6050   34.5670   42.6500 C   0  0  0  0  0  0  0  0  0  0  0  0
   48.2380   33.0800   42.4100 C   0  0  0  0  0  0  0  0  0  0  0  0
   46.6420   34.5380   41.7160 H   0  0  0  0  0  0  0  0  0  0  0  0
   48.9400   35.1430   41.7860 H   0  0  0  0  0  0  0  0  0  0  0  0
   48.9680   34.8840   43.6160 H   0  0  0  0  0  0  0  0  0  0  0  0
   48.6170   32.6890   41.4440 H   0  0  0  0  0  0  0  0  0  0  0  0
   48.5050   32.4610   43.3140 H   0  0  0  0  0  0  0  0  0  0  0  0
   45.0840   36.0300   43.0480 C   0  0  0  0  0  0  0  0  0  0  0  0
   44.6910   35.7580   42.0960 H   0  0  0  0  0  0  0  0  0  0  0  0
   45.1970   37.2590   43.2890 O   0  0  0  0  0  0  0  0  0  0  0  0
  1  7  1  0  0  0  0
  1  6  1  0  0  0  0
  2  1  2  0  0  0  0
  3  2  1  0  0  0  0
  3  4  2  0  0  0  0
  4  5  1  0  0  0  0
  5  6  2  0  0  0  0
  5  8  1  0  0  0  0
  9 10  1  0  0  0  0
  9  3  1  0  0  0  0
 10 14  1  0  0  0  0
 11  9  1  0  0  0  0
 11 10  1  0  0  0  0
 11 16  1  0  0  0  0
 12  9  1  0  0  0  0
 13 10  1  0  0  0  0
 15 11  1  0  0  0  0
 17 19  2  0  0  0  0
 17  2  1  0  0  0  0
 18 17  1  0  0  0  0
M  END
>  <minimizedAffinity>
-3.45046163

>  <minimizedRMSD>
1.24504709

$$$$
