REMARK  Name = 
REMARK  2 active torsions:
REMARK  status: ('A' for Active; 'I' for Inactive)
REMARK    1  A    between atoms: C_5  and  C_7
REMARK    2  A    between atoms: C_10  and  C_17
REMARK                            x       y       z     vdW  Elec       q    Type
REMARK                         _______ _______ _______ _____ _____    ______ ____
ROOT
ATOM      1  C   UNL     1      45.871  32.930  46.708  0.00  0.00    +0.000 A 
ATOM      2  C   UNL     1      45.113  32.767  47.893  0.00  0.00    +0.000 A 
ATOM      3  C   UNL     1      45.482  31.814  48.776  0.00  0.00    +0.000 A 
ATOM      4  C   UNL     1      46.615  31.011  48.487  0.00  0.00    +0.000 A 
ATOM      5  S   UNL     1      47.166  31.663  46.872  0.00  0.00    +0.000 S 
ATOM      6  H   UNL     1      44.255  33.397  48.081  0.00  0.00    +0.000 HD
ATOM      7  H   UNL     1      45.011  31.585  49.691  0.00  0.00    +0.000 HD
ENDROOT
BRANCH   1  12
ATOM      8  C   UNL     1      44.599  35.798  44.732  0.00  0.00    +0.000 A 
ATOM      9  C   UNL     1      45.276  35.563  43.506  0.00  0.00    +0.000 A 
ATOM     10  C   UNL     1      46.120  34.454  43.418  0.00  0.00    +0.000 A 
ATOM     11  N   UNL     1      46.243  33.659  44.525  0.00  0.00    +0.000 NA
ATOM     12  C   UNL     1      45.576  33.925  45.670  0.00  0.00    +0.000 A 
ATOM     13  N   UNL     1      44.751  34.997  45.779  0.00  0.00    +0.000 NA
ATOM     14  H   UNL     1      43.946  36.655  44.800  0.00  0.00    +0.000 HD
ATOM     15  H   UNL     1      45.158  36.216  42.638  0.00  0.00    +0.000 HD
ATOM     16  H   UNL     1      46.669  34.208  42.523  0.00  0.00    +0.000 HD
ENDBRANCH   1  12
BRANCH   4  17
ATOM     17  C   UNL     1      47.277  29.925  49.189  0.00  0.00    +0.000 C 
ATOM     18  H   UNL     1      47.950  29.376  48.579  0.00  0.00    +0.000 HD
ATOM     19  O   UNL     1      46.956  29.809  50.383  0.00  0.00    +0.000 OA
ENDBRANCH   4  17
TORSDOF 2
