
 OpenBabel03252509203D

 19 20  0  0  0  0  0  0  0  0999 V2000
   45.1720   36.0760   43.1120 C   0  0  0  0  0  0  0  0  0  0  0  0
   45.6720   34.7680   42.8350 C   0  0  0  0  0  0  0  0  0  0  0  0
   45.6140   33.8900   43.9020 C   0  0  0  0  0  0  0  0  0  0  0  0
   45.1040   34.2820   45.1290 N   0  0  0  0  0  0  0  0  0  0  0  0
   44.6490   35.5180   45.3290 C   0  0  0  0  0  0  0  0  0  0  0  0
   44.6800   36.4260   44.3230 N   0  0  0  0  0  0  0  0  0  0  0  0
   45.1720   36.8410   42.3490 H   0  0  0  0  0  0  0  0  0  0  0  0
   44.2970   35.6260   46.3370 H   0  0  0  0  0  0  0  0  0  0  0  0
   46.0310   32.4590   43.6360 C   0  0  0  0  0  0  0  0  0  0  0  0
   47.4210   32.1920   44.2440 C   0  0  0  0  0  0  0  0  0  0  0  0
   46.0980   31.5760   44.7680 C   0  0  0  0  0  0  0  0  0  0  0  0
   46.0320   32.1480   42.5720 H   0  0  0  0  0  0  0  0  0  0  0  0
   48.0670   31.5480   43.6450 H   0  0  0  0  0  0  0  0  0  0  0  0
   47.9020   32.9850   44.7960 H   0  0  0  0  0  0  0  0  0  0  0  0
   46.0810   30.4680   44.7090 H   0  0  0  0  0  0  0  0  0  0  0  0
   45.8400   32.0050   45.7780 H   0  0  0  0  0  0  0  0  0  0  0  0
   46.1860   34.4700   41.5090 C   0  0  0  0  0  0  0  0  0  0  0  0
   45.5990   33.9930   40.7610 H   0  0  0  0  0  0  0  0  0  0  0  0
   47.3670   34.7740   41.2020 O   0  0  0  0  0  0  0  0  0  0  0  0
  1  6  1  0  0  0  0
  2  1  2  0  0  0  0
  2  3  1  0  0  0  0
  3  4  2  0  0  0  0
  4  5  1  0  0  0  0
  5  8  1  0  0  0  0
  6  5  2  0  0  0  0
  7  1  1  0  0  0  0
  9  3  1  0  0  0  0
  9 10  1  0  0  0  0
  9 11  1  0  0  0  0
 10 11  1  0  0  0  0
 10 14  1  0  0  0  0
 11 16  1  0  0  0  0
 12  9  1  0  0  0  0
 13 10  1  0  0  0  0
 15 11  1  0  0  0  0
 17  2  1  0  0  0  0
 18 17  1  0  0  0  0
 19 17  2  0  0  0  0
M  END
>  <minimizedAffinity>
-3.2660265

>  <minimizedRMSD>
2.65884566

$$$$
