
 OpenBabel03252504053D

 13 13  0  0  0  0  0  0  0  0999 V2000
   37.2910   32.0610   40.0280 C   0  0  0  0  0  0  0  0  0  0  0  0
   36.8530   31.0960   40.9450 C   0  0  0  0  0  0  0  0  0  0  0  0
   37.8050   30.2110   41.4390 C   0  0  0  0  0  0  0  0  0  0  0  0
   39.0780   30.3160   41.0220 N   0  0  0  0  0  0  0  0  0  0  0  0
   39.4710   31.2580   40.1330 C   0  0  0  0  0  0  0  0  0  0  0  0
   38.5600   32.1290   39.6420 N   0  0  0  0  0  0  0  0  0  0  0  0
   36.5400   32.7420   39.6520 H   0  0  0  0  0  0  0  0  0  0  0  0
   40.5160   31.2820   39.8420 H   0  0  0  0  0  0  0  0  0  0  0  0
   37.3920   29.2020   42.3880 C   0  0  0  0  0  0  0  0  0  0  0  0
   37.8140   29.1600   43.3840 H   0  0  0  0  0  0  0  0  0  0  0  0
   36.5340   28.3070   42.1650 O   0  0  0  0  0  0  0  0  0  0  0  0
   35.5440   30.9840   41.3770 O   0  0  0  0  0  0  0  0  0  0  0  0
   34.7450   31.0460   40.7310 H   0  0  0  0  0  0  0  0  0  0  0  0
  1  2  1  0  0  0  0
  2 12  1  0  0  0  0
  2  3  2  0  0  0  0
  3  9  1  0  0  0  0
  4  3  1  0  0  0  0
  5  4  2  0  0  0  0
  6  1  2  0  0  0  0
  6  5  1  0  0  0  0
  7  1  1  0  0  0  0
  8  5  1  0  0  0  0
  9 10  1  0  0  0  0
 11  9  2  0  0  0  0
 13 12  1  0  0  0  0
M  END
>  <minimizedAffinity>
-3.26907802

$$$$

 OpenBabel03252504053D

 13 13  0  0  0  0  0  0  0  0999 V2000
   37.2360   29.2920   42.1960 C   0  0  0  0  0  0  0  0  0  0  0  0
   36.9090   30.4700   41.5110 C   0  0  0  0  0  0  0  0  0  0  0  0
   37.9570   31.1940   40.9560 C   0  0  0  0  0  0  0  0  0  0  0  0
   39.2160   30.7420   41.0990 N   0  0  0  0  0  0  0  0  0  0  0  0
   39.5010   29.6000   41.7680 C   0  0  0  0  0  0  0  0  0  0  0  0
   38.4930   28.8820   42.3150 N   0  0  0  0  0  0  0  0  0  0  0  0
   36.4100   28.7400   42.6230 H   0  0  0  0  0  0  0  0  0  0  0  0
   40.5400   29.2980   41.8440 H   0  0  0  0  0  0  0  0  0  0  0  0
   37.6600   32.4140   40.2400 C   0  0  0  0  0  0  0  0  0  0  0  0
   38.0730   33.3640   40.5520 H   0  0  0  0  0  0  0  0  0  0  0  0
   36.9230   32.4930   39.2220 O   0  0  0  0  0  0  0  0  0  0  0  0
   35.6160   30.9380   41.3610 O   0  0  0  0  0  0  0  0  0  0  0  0
   34.9410   30.9460   42.1380 H   0  0  0  0  0  0  0  0  0  0  0  0
  1  6  1  0  0  0  0
  1  7  1  0  0  0  0
  2  1  2  0  0  0  0
  3  4  2  0  0  0  0
  3  2  1  0  0  0  0
  4  5  1  0  0  0  0
  5  8  1  0  0  0  0
  5  6  2  0  0  0  0
  9 10  1  0  0  0  0
  9  3  1  0  0  0  0
 11  9  2  0  0  0  0
 12  2  1  0  0  0  0
 12 13  1  0  0  0  0
M  END
>  <minimizedAffinity>
-3.17657971

$$$$

 OpenBabel03252504053D

 13 13  0  0  0  0  0  0  0  0999 V2000
   37.4710   26.9430   42.7160 C   0  0  0  0  0  0  0  0  0  0  0  0
   36.9150   28.2010   42.4490 C   0  0  0  0  0  0  0  0  0  0  0  0
   36.3890   28.4070   41.1780 C   0  0  0  0  0  0  0  0  0  0  0  0
   36.4380   27.4100   40.2780 N   0  0  0  0  0  0  0  0  0  0  0  0
   36.9820   26.2040   40.5660 C   0  0  0  0  0  0  0  0  0  0  0  0
   37.4980   25.9850   41.7970 N   0  0  0  0  0  0  0  0  0  0  0  0
   37.8750   26.7980   43.7070 H   0  0  0  0  0  0  0  0  0  0  0  0
   36.9860   25.4470   39.7880 H   0  0  0  0  0  0  0  0  0  0  0  0
   35.8060   29.6920   40.8650 C   0  0  0  0  0  0  0  0  0  0  0  0
   34.8660   29.7690   40.3340 H   0  0  0  0  0  0  0  0  0  0  0  0
   36.3100   30.8070   41.1650 O   0  0  0  0  0  0  0  0  0  0  0  0
   36.8630   29.2310   43.3720 O   0  0  0  0  0  0  0  0  0  0  0  0
   37.6640   29.4710   43.9710 H   0  0  0  0  0  0  0  0  0  0  0  0
  1  7  1  0  0  0  0
  2  1  1  0  0  0  0
  2 12  1  0  0  0  0
  3  2  2  0  0  0  0
  4  5  2  0  0  0  0
  4  3  1  0  0  0  0
  5  6  1  0  0  0  0
  6  1  2  0  0  0  0
  8  5  1  0  0  0  0
  9 11  2  0  0  0  0
  9  3  1  0  0  0  0
 10  9  1  0  0  0  0
 12 13  1  0  0  0  0
M  END
>  <minimizedAffinity>
-3.11961889

$$$$

 OpenBabel03252504053D

 13 13  0  0  0  0  0  0  0  0999 V2000
   35.6270   29.5300   39.4230 C   0  0  0  0  0  0  0  0  0  0  0  0
   36.0860   30.6860   40.0690 C   0  0  0  0  0  0  0  0  0  0  0  0
   36.9240   31.5270   39.3460 C   0  0  0  0  0  0  0  0  0  0  0  0
   37.2540   31.2000   38.0850 N   0  0  0  0  0  0  0  0  0  0  0  0
   36.7960   30.0750   37.4880 C   0  0  0  0  0  0  0  0  0  0  0  0
   35.9780   29.2440   38.1750 N   0  0  0  0  0  0  0  0  0  0  0  0
   34.9770   28.8860   39.9970 H   0  0  0  0  0  0  0  0  0  0  0  0
   37.1050   29.8760   36.4670 H   0  0  0  0  0  0  0  0  0  0  0  0
   37.4170   32.7310   39.9780 C   0  0  0  0  0  0  0  0  0  0  0  0
   37.0570   33.7080   39.6850 H   0  0  0  0  0  0  0  0  0  0  0  0
   38.2790   32.7640   40.8960 O   0  0  0  0  0  0  0  0  0  0  0  0
   35.7490   31.0270   41.3670 O   0  0  0  0  0  0  0  0  0  0  0  0
   35.7470   30.3380   42.1320 H   0  0  0  0  0  0  0  0  0  0  0  0
  1  7  1  0  0  0  0
  1  2  1  0  0  0  0
  2 12  1  0  0  0  0
  3  9  1  0  0  0  0
  3  2  2  0  0  0  0
  4  3  1  0  0  0  0
  5  4  2  0  0  0  0
  5  6  1  0  0  0  0
  6  1  2  0  0  0  0
  8  5  1  0  0  0  0
  9 11  2  0  0  0  0
 10  9  1  0  0  0  0
 12 13  1  0  0  0  0
M  END
>  <minimizedAffinity>
-3.09978867

$$$$

 OpenBabel03252504053D

 13 13  0  0  0  0  0  0  0  0999 V2000
   36.6040   31.0780   40.8180 C   0  0  0  0  0  0  0  0  0  0  0  0
   37.3690   32.2220   40.5480 C   0  0  0  0  0  0  0  0  0  0  0  0
   38.7110   32.1890   40.9090 C   0  0  0  0  0  0  0  0  0  0  0  0
   39.2080   31.0830   41.4910 N   0  0  0  0  0  0  0  0  0  0  0  0
   38.4440   29.9940   41.7400 C   0  0  0  0  0  0  0  0  0  0  0  0
   37.1350   30.0070   41.3950 N   0  0  0  0  0  0  0  0  0  0  0  0
   35.5630   31.1180   40.5330 H   0  0  0  0  0  0  0  0  0  0  0  0
   38.9140   29.1380   42.2130 H   0  0  0  0  0  0  0  0  0  0  0  0
   39.5320   33.3490   40.6460 C   0  0  0  0  0  0  0  0  0  0  0  0
   39.9820   33.9140   41.4520 H   0  0  0  0  0  0  0  0  0  0  0  0
   39.7980   33.8020   39.5010 O   0  0  0  0  0  0  0  0  0  0  0  0
   36.8620   33.3610   39.9500 O   0  0  0  0  0  0  0  0  0  0  0  0
   35.9540   33.7660   40.2200 H   0  0  0  0  0  0  0  0  0  0  0  0
  1  6  1  0  0  0  0
  2  1  2  0  0  0  0
  2  3  1  0  0  0  0
  3  4  2  0  0  0  0
  4  5  1  0  0  0  0
  5  8  1  0  0  0  0
  6  5  2  0  0  0  0
  7  1  1  0  0  0  0
  9  3  1  0  0  0  0
  9 10  1  0  0  0  0
 11  9  2  0  0  0  0
 12 13  1  0  0  0  0
 12  2  1  0  0  0  0
M  END
>  <minimizedAffinity>
-3.08513594

$$$$

 OpenBabel03252504053D

 13 13  0  0  0  0  0  0  0  0999 V2000
   35.3970   29.1460   39.6540 C   0  0  0  0  0  0  0  0  0  0  0  0
   35.9620   29.4680   40.8960 C   0  0  0  0  0  0  0  0  0  0  0  0
   36.7720   28.5090   41.4930 C   0  0  0  0  0  0  0  0  0  0  0  0
   36.9740   27.3370   40.8660 N   0  0  0  0  0  0  0  0  0  0  0  0
   36.4140   27.0540   39.6660 C   0  0  0  0  0  0  0  0  0  0  0  0
   35.6230   27.9750   39.0690 N   0  0  0  0  0  0  0  0  0  0  0  0
   34.7690   29.9000   39.2020 H   0  0  0  0  0  0  0  0  0  0  0  0
   36.6220   26.0870   39.2210 H   0  0  0  0  0  0  0  0  0  0  0  0
   37.3730   28.8040   42.7740 C   0  0  0  0  0  0  0  0  0  0  0  0
   37.0800   28.2720   43.6690 H   0  0  0  0  0  0  0  0  0  0  0  0
   38.2630   29.6740   42.9720 O   0  0  0  0  0  0  0  0  0  0  0  0
   35.7560   30.6720   41.5440 O   0  0  0  0  0  0  0  0  0  0  0  0
   34.8270   31.1090   41.6100 H   0  0  0  0  0  0  0  0  0  0  0  0
  1  2  1  0  0  0  0
  2  3  2  0  0  0  0
  2 12  1  0  0  0  0
  3  9  1  0  0  0  0
  4  3  1  0  0  0  0
  5  4  2  0  0  0  0
  6  1  2  0  0  0  0
  6  5  1  0  0  0  0
  7  1  1  0  0  0  0
  8  5  1  0  0  0  0
  9 11  2  0  0  0  0
  9 10  1  0  0  0  0
 12 13  1  0  0  0  0
M  END
>  <minimizedAffinity>
-3.01139331

$$$$

 OpenBabel03252504053D

 13 13  0  0  0  0  0  0  0  0999 V2000
   37.4160   30.6480   41.1130 C   0  0  0  0  0  0  0  0  0  0  0  0
   36.9660   29.4660   41.7170 C   0  0  0  0  0  0  0  0  0  0  0  0
   37.8030   28.8740   42.6560 C   0  0  0  0  0  0  0  0  0  0  0  0
   38.9850   29.4490   42.9370 N   0  0  0  0  0  0  0  0  0  0  0  0
   39.3930   30.5910   42.3360 C   0  0  0  0  0  0  0  0  0  0  0  0
   38.5920   31.1820   41.4200 N   0  0  0  0  0  0  0  0  0  0  0  0
   36.7550   31.0970   40.3850 H   0  0  0  0  0  0  0  0  0  0  0  0
   40.3610   30.9970   42.6140 H   0  0  0  0  0  0  0  0  0  0  0  0
   37.3730   27.6550   43.3020 C   0  0  0  0  0  0  0  0  0  0  0  0
   38.0680   26.8510   43.5060 H   0  0  0  0  0  0  0  0  0  0  0  0
   36.1960   27.4130   43.6800 O   0  0  0  0  0  0  0  0  0  0  0  0
   35.7500   28.8710   41.4310 O   0  0  0  0  0  0  0  0  0  0  0  0
   35.4030   28.7670   40.4670 H   0  0  0  0  0  0  0  0  0  0  0  0
  1  6  2  0  0  0  0
  1  2  1  0  0  0  0
  2  3  2  0  0  0  0
  3  4  1  0  0  0  0
  3  9  1  0  0  0  0
  5  8  1  0  0  0  0
  5  4  2  0  0  0  0
  6  5  1  0  0  0  0
  7  1  1  0  0  0  0
  9 10  1  0  0  0  0
  9 11  2  0  0  0  0
 12  2  1  0  0  0  0
 13 12  1  0  0  0  0
M  END
>  <minimizedAffinity>
-2.94329548

$$$$

 OpenBabel03252504053D

 13 13  0  0  0  0  0  0  0  0999 V2000
   37.1350   27.6320   42.9020 C   0  0  0  0  0  0  0  0  0  0  0  0
   37.5470   28.9570   42.7050 C   0  0  0  0  0  0  0  0  0  0  0  0
   38.9090   29.2200   42.8000 C   0  0  0  0  0  0  0  0  0  0  0  0
   39.7550   28.2120   43.0750 N   0  0  0  0  0  0  0  0  0  0  0  0
   39.3270   26.9410   43.2610 C   0  0  0  0  0  0  0  0  0  0  0  0
   38.0050   26.6650   43.1710 N   0  0  0  0  0  0  0  0  0  0  0  0
   36.0740   27.4420   42.8250 H   0  0  0  0  0  0  0  0  0  0  0  0
   40.0680   26.1790   43.4790 H   0  0  0  0  0  0  0  0  0  0  0  0
   39.3720   30.5740   42.6020 C   0  0  0  0  0  0  0  0  0  0  0  0
   39.9590   31.0850   43.3550 H   0  0  0  0  0  0  0  0  0  0  0  0
   39.1530   31.2710   41.5750 O   0  0  0  0  0  0  0  0  0  0  0  0
   36.6800   29.9970   42.4230 O   0  0  0  0  0  0  0  0  0  0  0  0
   35.7890   30.1200   42.9230 H   0  0  0  0  0  0  0  0  0  0  0  0
  1  6  1  0  0  0  0
  2  3  1  0  0  0  0
  2  1  2  0  0  0  0
  3  4  2  0  0  0  0
  4  5  1  0  0  0  0
  5  8  1  0  0  0  0
  6  5  2  0  0  0  0
  7  1  1  0  0  0  0
  9  3  1  0  0  0  0
  9 10  1  0  0  0  0
 11  9  2  0  0  0  0
 12  2  1  0  0  0  0
 12 13  1  0  0  0  0
M  END
>  <minimizedAffinity>
-2.93224931

$$$$

 OpenBabel03252504053D

 13 13  0  0  0  0  0  0  0  0999 V2000
   36.6500   30.3520   38.3260 C   0  0  0  0  0  0  0  0  0  0  0  0
   37.2120   31.6270   38.4830 C   0  0  0  0  0  0  0  0  0  0  0  0
   37.1680   32.1880   39.7540 C   0  0  0  0  0  0  0  0  0  0  0  0
   36.5990   31.4970   40.7580 N   0  0  0  0  0  0  0  0  0  0  0  0
   36.0640   30.2670   40.5750 C   0  0  0  0  0  0  0  0  0  0  0  0
   36.0980   29.7040   39.3450 N   0  0  0  0  0  0  0  0  0  0  0  0
   36.6910   29.9280   37.3330 H   0  0  0  0  0  0  0  0  0  0  0  0
   35.6220   29.7700   41.4320 H   0  0  0  0  0  0  0  0  0  0  0  0
   37.7370   33.5010   39.9560 C   0  0  0  0  0  0  0  0  0  0  0  0
   37.3490   34.3680   39.4390 H   0  0  0  0  0  0  0  0  0  0  0  0
   38.7020   33.7600   40.7240 O   0  0  0  0  0  0  0  0  0  0  0  0
   37.7980   32.3410   37.4530 O   0  0  0  0  0  0  0  0  0  0  0  0
   37.3720   32.4050   36.5190 H   0  0  0  0  0  0  0  0  0  0  0  0
  1  2  2  0  0  0  0
  1  6  1  0  0  0  0
  2  3  1  0  0  0  0
  3  9  1  0  0  0  0
  3  4  2  0  0  0  0
  5  4  1  0  0  0  0
  5  8  1  0  0  0  0
  6  5  2  0  0  0  0
  7  1  1  0  0  0  0
  9 11  2  0  0  0  0
 10  9  1  0  0  0  0
 12  2  1  0  0  0  0
 13 12  1  0  0  0  0
M  END
>  <minimizedAffinity>
-2.91347814

$$$$
