
 OpenBabel03252508303D

 33 35  0  0  1  0  0  0  0  0999 V2000
   39.1780   31.4760   39.5590 N   0  0  0  0  0  0  0  0  0  0  0  0
   37.8170   30.9690   39.7450 C   0  0  2  0  0  0  0  0  0  0  0  0
   36.8680   32.0220   40.1710 C   0  0  0  0  0  0  0  0  0  0  0  0
   37.4350   33.3620   40.1210 N   0  0  0  0  0  0  0  0  0  0  0  0
   38.7220   33.5030   40.6960 C   0  0  0  0  0  0  0  0  0  0  0  0
   39.4680   32.1980   40.8200 C   0  0  2  0  0  0  0  0  0  0  0  0
   39.8070   30.6720   39.4250 H   0  0  0  0  0  0  0  0  0  0  0  0
   37.5550   30.4800   38.7750 H   0  0  0  0  0  0  0  0  0  0  0  0
   36.4670   31.9970   41.1820 H   0  0  0  0  0  0  0  0  0  0  0  0
   36.0480   32.0460   39.3900 H   0  0  0  0  0  0  0  0  0  0  0  0
   37.3030   33.8180   39.2030 H   0  0  0  0  0  0  0  0  0  0  0  0
   39.3590   34.1560   40.0410 H   0  0  0  0  0  0  0  0  0  0  0  0
   38.7230   34.0340   41.6810 H   0  0  0  0  0  0  0  0  0  0  0  0
   39.0770   31.5750   41.6270 H   0  0  0  0  0  0  0  0  0  0  0  0
   38.3700   28.1130   41.8720 C   0  0  0  0  0  0  0  0  0  0  0  0
   37.3600   28.8330   42.5240 C   0  0  0  0  0  0  0  0  0  0  0  0
   37.0460   29.9670   41.7950 C   0  0  0  0  0  0  0  0  0  0  0  0
   37.8550   29.9150   40.7410 N   0  0  0  0  0  0  0  0  0  0  0  0
   38.6270   28.8360   40.7830 N   0  0  0  0  0  0  0  0  0  0  0  0
   36.9690   28.4380   43.4650 H   0  0  0  0  0  0  0  0  0  0  0  0
   36.2600   30.5270   42.2900 H   0  0  0  0  0  0  0  0  0  0  0  0
   40.3470   25.4740   43.6800 C   0  0  0  0  0  0  0  0  0  0  0  0
   39.9090   26.7930   43.3190 C   0  0  0  0  0  0  0  0  0  0  0  0
   38.9390   26.8530   42.3510 C   0  0  0  0  0  0  0  0  0  0  0  0
   38.4520   25.7040   41.7970 N   0  0  0  0  0  0  0  0  0  0  0  0
   38.8940   24.4810   42.1670 C   0  0  0  0  0  0  0  0  0  0  0  0
   39.8290   24.3910   43.0970 N   0  0  0  0  0  0  0  0  0  0  0  0
   41.1130   25.4940   44.4490 H   0  0  0  0  0  0  0  0  0  0  0  0
   40.2820   27.6920   43.7460 H   0  0  0  0  0  0  0  0  0  0  0  0
   38.5120   23.5680   41.7310 H   0  0  0  0  0  0  0  0  0  0  0  0
   40.9300   32.4770   40.9150 C   0  0  0  0  0  0  0  0  0  0  0  0
   41.5570   31.6320   41.1420 H   0  0  0  0  0  0  0  0  0  0  0  0
   41.2650   33.6500   40.7210 O   0  0  0  0  0  0  0  0  0  0  0  0
  1  2  1  0  0  0  0
  1  6  1  0  0  0  0
  2  8  1  6  0  0  0
  2  3  1  0  0  0  0
  2 18  1  0  0  0  0
  3  9  1  0  0  0  0
  4  3  1  0  0  0  0
  4  5  1  0  0  0  0
  5  6  1  0  0  0  0
  5 13  1  0  0  0  0
  6 31  1  0  0  0  0
  6 14  1  1  0  0  0
  7  1  1  0  0  0  0
 10  3  1  0  0  0  0
 11  4  1  0  0  0  0
 12  5  1  0  0  0  0
 15 24  1  0  0  0  0
 15 16  1  0  0  0  0
 16 20  1  0  0  0  0
 17 21  1  0  0  0  0
 17 16  2  0  0  0  0
 18 19  1  0  0  0  0
 18 17  1  0  0  0  0
 19 15  2  0  0  0  0
 22 28  1  0  0  0  0
 23 22  1  0  0  0  0
 23 29  1  0  0  0  0
 24 23  2  0  0  0  0
 25 26  2  0  0  0  0
 25 24  1  0  0  0  0
 26 27  1  0  0  0  0
 27 22  2  0  0  0  0
 30 26  1  0  0  0  0
 31 32  1  0  0  0  0
 33 31  2  0  0  0  0
M  END
>  <minimizedAffinity>
-4.95653391

$$$$

 OpenBabel03252508303D

 33 35  0  0  1  0  0  0  0  0999 V2000
   42.1680   32.7990   36.5640 N   0  0  0  0  0  0  0  0  0  0  0  0
   42.1700   33.7900   37.6410 C   0  0  2  0  0  0  0  0  0  0  0  0
   43.5370   34.1590   38.0760 C   0  0  0  0  0  0  0  0  0  0  0  0
   44.5790   33.6170   37.2170 N   0  0  0  0  0  0  0  0  0  0  0  0
   44.4490   32.2460   36.8860 C   0  0  0  0  0  0  0  0  0  0  0  0
   43.0470   31.7180   37.0690 C   0  0  2  0  0  0  0  0  0  0  0  0
   41.2010   32.4720   36.4270 H   0  0  0  0  0  0  0  0  0  0  0  0
   41.5680   34.6450   37.2490 H   0  0  0  0  0  0  0  0  0  0  0  0
   43.8830   33.8450   39.0570 H   0  0  0  0  0  0  0  0  0  0  0  0
   43.6240   35.2790   37.9340 H   0  0  0  0  0  0  0  0  0  0  0  0
   44.8170   34.2460   36.4310 H   0  0  0  0  0  0  0  0  0  0  0  0
   44.6910   32.0930   35.8010 H   0  0  0  0  0  0  0  0  0  0  0  0
   45.1750   31.5800   37.4160 H   0  0  0  0  0  0  0  0  0  0  0  0
   42.7920   31.5820   38.1210 H   0  0  0  0  0  0  0  0  0  0  0  0
   39.9140   32.2710   40.0050 C   0  0  0  0  0  0  0  0  0  0  0  0
   40.9970   32.6920   40.7890 C   0  0  0  0  0  0  0  0  0  0  0  0
   41.9450   33.3070   39.9900 C   0  0  0  0  0  0  0  0  0  0  0  0
   41.4320   33.2460   38.7640 N   0  0  0  0  0  0  0  0  0  0  0  0
   40.2490   32.6430   38.7700 N   0  0  0  0  0  0  0  0  0  0  0  0
   40.9620   32.4960   41.8630 H   0  0  0  0  0  0  0  0  0  0  0  0
   42.7830   33.6410   40.5900 H   0  0  0  0  0  0  0  0  0  0  0  0
   36.3930   31.1940   40.7670 C   0  0  0  0  0  0  0  0  0  0  0  0
   37.4470   31.9720   40.1810 C   0  0  0  0  0  0  0  0  0  0  0  0
   38.7220   31.5960   40.5200 C   0  0  0  0  0  0  0  0  0  0  0  0
   38.9240   30.5410   41.3630 N   0  0  0  0  0  0  0  0  0  0  0  0
   37.8990   29.8350   41.8920 C   0  0  0  0  0  0  0  0  0  0  0  0
   36.6600   30.1740   41.5850 N   0  0  0  0  0  0  0  0  0  0  0  0
   35.4100   31.5410   40.4610 H   0  0  0  0  0  0  0  0  0  0  0  0
   37.2990   32.7950   39.5230 H   0  0  0  0  0  0  0  0  0  0  0  0
   38.0540   28.9990   42.5610 H   0  0  0  0  0  0  0  0  0  0  0  0
   42.8720   30.4950   36.2320 C   0  0  0  0  0  0  0  0  0  0  0  0
   41.9690   29.9340   36.4020 H   0  0  0  0  0  0  0  0  0  0  0  0
   43.7840   30.2590   35.4330 O   0  0  0  0  0  0  0  0  0  0  0  0
  1  6  1  0  0  0  0
  1  2  1  0  0  0  0
  2  8  1  6  0  0  0
  2  3  1  0  0  0  0
  2 18  1  0  0  0  0
  3  9  1  0  0  0  0
  4  3  1  0  0  0  0
  5  6  1  0  0  0  0
  5  4  1  0  0  0  0
  5 13  1  0  0  0  0
  6 14  1  1  0  0  0
  7  1  1  0  0  0  0
 10  3  1  0  0  0  0
 11  4  1  0  0  0  0
 12  5  1  0  0  0  0
 15 24  1  0  0  0  0
 15 16  1  0  0  0  0
 16 20  1  0  0  0  0
 17 21  1  0  0  0  0
 17 16  2  0  0  0  0
 18 19  1  0  0  0  0
 18 17  1  0  0  0  0
 19 15  2  0  0  0  0
 22 27  1  0  0  0  0
 23 24  1  0  0  0  0
 23 22  2  0  0  0  0
 24 25  2  0  0  0  0
 25 26  1  0  0  0  0
 26 30  1  0  0  0  0
 27 26  2  0  0  0  0
 28 22  1  0  0  0  0
 29 23  1  0  0  0  0
 31 32  1  0  0  0  0
 31  6  1  0  0  0  0
 33 31  2  0  0  0  0
M  END
>  <minimizedAffinity>
-4.84438467

$$$$

 OpenBabel03252508303D

 33 35  0  0  1  0  0  0  0  0999 V2000
   38.5790   32.2660   37.5710 N   0  0  0  0  0  0  0  0  0  0  0  0
   37.3560   32.2500   38.3760 C   0  0  2  0  0  0  0  0  0  0  0  0
   37.4700   33.0660   39.6060 C   0  0  0  0  0  0  0  0  0  0  0  0
   38.6870   33.8630   39.6570 N   0  0  0  0  0  0  0  0  0  0  0  0
   39.8820   33.1780   39.3270 C   0  0  0  0  0  0  0  0  0  0  0  0
   39.6480   31.9140   38.5360 C   0  0  2  0  0  0  0  0  0  0  0  0
   38.4870   31.5600   36.8290 H   0  0  0  0  0  0  0  0  0  0  0  0
   36.5470   32.5820   37.6800 H   0  0  0  0  0  0  0  0  0  0  0  0
   37.5010   32.5670   40.5720 H   0  0  0  0  0  0  0  0  0  0  0  0
   36.6430   33.8370   39.5540 H   0  0  0  0  0  0  0  0  0  0  0  0
   38.5730   34.7950   39.2240 H   0  0  0  0  0  0  0  0  0  0  0  0
   40.5240   33.8280   38.6770 H   0  0  0  0  0  0  0  0  0  0  0  0
   40.5350   32.9560   40.2080 H   0  0  0  0  0  0  0  0  0  0  0  0
   39.2490   31.1090   39.1550 H   0  0  0  0  0  0  0  0  0  0  0  0
   36.8480   28.9830   39.8090 C   0  0  0  0  0  0  0  0  0  0  0  0
   36.3320   28.8710   38.5120 C   0  0  0  0  0  0  0  0  0  0  0  0
   36.4740   30.0740   37.8420 C   0  0  0  0  0  0  0  0  0  0  0  0
   37.0580   30.8760   38.7280 N   0  0  0  0  0  0  0  0  0  0  0  0
   37.2780   30.2440   39.8750 N   0  0  0  0  0  0  0  0  0  0  0  0
   35.9090   27.9100   38.2070 H   0  0  0  0  0  0  0  0  0  0  0  0
   36.0820   29.9930   36.8350 H   0  0  0  0  0  0  0  0  0  0  0  0
   37.1460   25.6640   41.5510 C   0  0  0  0  0  0  0  0  0  0  0  0
   37.1440   26.5970   40.4600 C   0  0  0  0  0  0  0  0  0  0  0  0
   36.8790   27.9010   40.7940 C   0  0  0  0  0  0  0  0  0  0  0  0
   36.6400   28.2400   42.0940 N   0  0  0  0  0  0  0  0  0  0  0  0
   36.6520   27.3280   43.0920 C   0  0  0  0  0  0  0  0  0  0  0  0
   36.9040   26.0630   42.8010 N   0  0  0  0  0  0  0  0  0  0  0  0
   37.3610   24.6520   41.2230 H   0  0  0  0  0  0  0  0  0  0  0  0
   37.3290   26.3410   39.4440 H   0  0  0  0  0  0  0  0  0  0  0  0
   36.4630   27.5910   44.1240 H   0  0  0  0  0  0  0  0  0  0  0  0
   40.8950   31.5610   37.7980 C   0  0  0  0  0  0  0  0  0  0  0  0
   41.3010   30.5850   38.0000 H   0  0  0  0  0  0  0  0  0  0  0  0
   41.3270   32.4280   37.0310 O   0  0  0  0  0  0  0  0  0  0  0  0
  1  2  1  0  0  0  0
  1  6  1  0  0  0  0
  2  8  1  6  0  0  0
  2 18  1  0  0  0  0
  2  3  1  0  0  0  0
  3  4  1  0  0  0  0
  3  9  1  0  0  0  0
  5  4  1  0  0  0  0
  5 13  1  0  0  0  0
  6 14  1  1  0  0  0
  6  5  1  0  0  0  0
  7  1  1  0  0  0  0
 10  3  1  0  0  0  0
 11  4  1  0  0  0  0
 12  5  1  0  0  0  0
 15 19  2  0  0  0  0
 15 24  1  0  0  0  0
 16 15  1  0  0  0  0
 17 16  2  0  0  0  0
 17 18  1  0  0  0  0
 18 19  1  0  0  0  0
 20 16  1  0  0  0  0
 21 17  1  0  0  0  0
 22 27  1  0  0  0  0
 23 24  1  0  0  0  0
 23 22  2  0  0  0  0
 24 25  2  0  0  0  0
 25 26  1  0  0  0  0
 26 30  1  0  0  0  0
 27 26  2  0  0  0  0
 28 22  1  0  0  0  0
 29 23  1  0  0  0  0
 31 32  1  0  0  0  0
 31  6  1  0  0  0  0
 33 31  2  0  0  0  0
M  END
>  <minimizedAffinity>
-4.80308485

$$$$

 OpenBabel03252508303D

 33 35  0  0  1  0  0  0  0  0999 V2000
   37.3100   29.6460   42.9470 N   0  0  0  0  0  0  0  0  0  0  0  0
   38.4020   28.7110   43.2310 C   0  0  2  0  0  0  0  0  0  0  0  0
   39.7010   29.1700   42.6900 C   0  0  0  0  0  0  0  0  0  0  0  0
   39.6620   30.5300   42.1730 N   0  0  0  0  0  0  0  0  0  0  0  0
   38.5670   30.8300   41.3260 C   0  0  0  0  0  0  0  0  0  0  0  0
   37.4070   29.8780   41.4870 C   0  0  2  0  0  0  0  0  0  0  0  0
   36.4230   29.1930   43.2040 H   0  0  0  0  0  0  0  0  0  0  0  0
   38.3880   28.5780   44.3400 H   0  0  0  0  0  0  0  0  0  0  0  0
   40.1460   28.6350   41.8530 H   0  0  0  0  0  0  0  0  0  0  0  0
   40.4070   29.2360   43.5730 H   0  0  0  0  0  0  0  0  0  0  0  0
   39.8770   31.2390   42.8940 H   0  0  0  0  0  0  0  0  0  0  0  0
   38.1620   31.8470   41.5770 H   0  0  0  0  0  0  0  0  0  0  0  0
   38.8390   30.9140   40.2440 H   0  0  0  0  0  0  0  0  0  0  0  0
   37.6070   28.9060   41.0340 H   0  0  0  0  0  0  0  0  0  0  0  0
   38.1170   25.5440   41.5350 C   0  0  0  0  0  0  0  0  0  0  0  0
   36.9240   25.6500   42.2640 C   0  0  0  0  0  0  0  0  0  0  0  0
   36.9050   26.8430   42.9640 C   0  0  0  0  0  0  0  0  0  0  0  0
   38.0610   27.4240   42.6560 N   0  0  0  0  0  0  0  0  0  0  0  0
   38.7690   26.6700   41.8240 N   0  0  0  0  0  0  0  0  0  0  0  0
   36.2030   24.8310   42.1940 H   0  0  0  0  0  0  0  0  0  0  0  0
   35.9820   26.9350   43.5260 H   0  0  0  0  0  0  0  0  0  0  0  0
   38.3400   22.1960   39.8390 C   0  0  0  0  0  0  0  0  0  0  0  0
   37.8850   23.1830   40.7770 C   0  0  0  0  0  0  0  0  0  0  0  0
   38.4700   24.4190   40.6690 C   0  0  0  0  0  0  0  0  0  0  0  0
   39.4170   24.6480   39.7130 N   0  0  0  0  0  0  0  0  0  0  0  0
   39.8160   23.6880   38.8480 C   0  0  0  0  0  0  0  0  0  0  0  0
   39.2720   22.4860   38.9280 N   0  0  0  0  0  0  0  0  0  0  0  0
   37.8420   21.2410   39.9760 H   0  0  0  0  0  0  0  0  0  0  0  0
   37.1480   23.0130   41.5240 H   0  0  0  0  0  0  0  0  0  0  0  0
   40.5660   23.8630   38.0890 H   0  0  0  0  0  0  0  0  0  0  0  0
   36.1610   30.5380   40.9990 C   0  0  0  0  0  0  0  0  0  0  0  0
   36.0450   31.5760   41.2600 H   0  0  0  0  0  0  0  0  0  0  0  0
   35.3960   29.8200   40.3470 O   0  0  0  0  0  0  0  0  0  0  0  0
  1  7  1  0  0  0  0
  1  2  1  0  0  0  0
  2  8  1  1  0  0  0
  3  2  1  0  0  0  0
  3 10  1  0  0  0  0
  4  3  1  0  0  0  0
  4 11  1  0  0  0  0
  5  6  1  0  0  0  0
  5 12  1  0  0  0  0
  5  4  1  0  0  0  0
  6 14  1  6  0  0  0
  6  1  1  0  0  0  0
  9  3  1  0  0  0  0
 13  5  1  0  0  0  0
 15 19  2  0  0  0  0
 15 16  1  0  0  0  0
 16 17  2  0  0  0  0
 17 21  1  0  0  0  0
 18 17  1  0  0  0  0
 18  2  1  0  0  0  0
 19 18  1  0  0  0  0
 20 16  1  0  0  0  0
 22 28  1  0  0  0  0
 22 23  1  0  0  0  0
 23 29  1  0  0  0  0
 24 23  2  0  0  0  0
 24 15  1  0  0  0  0
 25 24  1  0  0  0  0
 26 27  1  0  0  0  0
 26 25  2  0  0  0  0
 27 22  2  0  0  0  0
 30 26  1  0  0  0  0
 31 32  1  0  0  0  0
 31  6  1  0  0  0  0
 33 31  2  0  0  0  0
M  END
>  <minimizedAffinity>
-4.69808388

$$$$

 OpenBabel03252508303D

 33 35  0  0  1  0  0  0  0  0999 V2000
   38.8800   32.5450   38.2820 N   0  0  0  0  0  0  0  0  0  0  0  0
   37.8630   31.5620   38.6590 C   0  0  2  0  0  0  0  0  0  0  0  0
   36.9410   32.0660   39.7030 C   0  0  0  0  0  0  0  0  0  0  0  0
   37.1120   33.4830   39.9870 N   0  0  0  0  0  0  0  0  0  0  0  0
   38.4500   33.9130   40.1670 C   0  0  0  0  0  0  0  0  0  0  0  0
   39.4670   32.9690   39.5750 C   0  0  2  0  0  0  0  0  0  0  0  0
   39.5740   32.0780   37.6820 H   0  0  0  0  0  0  0  0  0  0  0  0
   37.3610   31.2820   37.7010 H   0  0  0  0  0  0  0  0  0  0  0  0
   36.9890   31.6400   40.7030 H   0  0  0  0  0  0  0  0  0  0  0  0
   35.8990   32.0010   39.2650 H   0  0  0  0  0  0  0  0  0  0  0  0
   36.5260   34.0850   39.3840 H   0  0  0  0  0  0  0  0  0  0  0  0
   38.6050   34.8940   39.6430 H   0  0  0  0  0  0  0  0  0  0  0  0
   38.7150   34.1360   41.2300 H   0  0  0  0  0  0  0  0  0  0  0  0
   39.5830   32.0620   40.1710 H   0  0  0  0  0  0  0  0  0  0  0  0
   39.1960   28.6790   40.3620 C   0  0  0  0  0  0  0  0  0  0  0  0
   39.8210   28.6540   39.1080 C   0  0  0  0  0  0  0  0  0  0  0  0
   39.3930   29.7290   38.3480 C   0  0  0  0  0  0  0  0  0  0  0  0
   38.5350   30.3690   39.1370 N   0  0  0  0  0  0  0  0  0  0  0  0
   38.4180   29.7610   40.3110 N   0  0  0  0  0  0  0  0  0  0  0  0
   40.5220   27.8430   38.8980 H   0  0  0  0  0  0  0  0  0  0  0  0
   39.8780   29.7200   37.3780 H   0  0  0  0  0  0  0  0  0  0  0  0
   39.5010   26.9180   43.6700 C   0  0  0  0  0  0  0  0  0  0  0  0
   39.2470   27.9960   42.7570 C   0  0  0  0  0  0  0  0  0  0  0  0
   39.4220   27.7030   41.4280 C   0  0  0  0  0  0  0  0  0  0  0  0
   39.8120   26.4510   41.0490 N   0  0  0  0  0  0  0  0  0  0  0  0
   40.0400   25.4640   41.9440 C   0  0  0  0  0  0  0  0  0  0  0  0
   39.8800   25.7160   43.2320 N   0  0  0  0  0  0  0  0  0  0  0  0
   39.3450   27.2130   44.7040 H   0  0  0  0  0  0  0  0  0  0  0  0
   38.9430   28.9740   43.0440 H   0  0  0  0  0  0  0  0  0  0  0  0
   40.3490   24.4700   41.6490 H   0  0  0  0  0  0  0  0  0  0  0  0
   40.7390   33.7100   39.3310 C   0  0  0  0  0  0  0  0  0  0  0  0
   41.1040   34.3010   40.1530 H   0  0  0  0  0  0  0  0  0  0  0  0
   41.2370   33.5630   38.2100 O   0  0  0  0  0  0  0  0  0  0  0  0
  1  2  1  0  0  0  0
  1  6  1  0  0  0  0
  2  8  1  6  0  0  0
  2 18  1  0  0  0  0
  2  3  1  0  0  0  0
  3  4  1  0  0  0  0
  3  9  1  0  0  0  0
  4  5  1  0  0  0  0
  5 13  1  0  0  0  0
  6  5  1  0  0  0  0
  6 14  1  1  0  0  0
  7  1  1  0  0  0  0
 10  3  1  0  0  0  0
 11  4  1  0  0  0  0
 12  5  1  0  0  0  0
 15 24  1  0  0  0  0
 16 15  1  0  0  0  0
 17 16  2  0  0  0  0
 17 18  1  0  0  0  0
 18 19  1  0  0  0  0
 19 15  2  0  0  0  0
 20 16  1  0  0  0  0
 21 17  1  0  0  0  0
 22 28  1  0  0  0  0
 23 29  1  0  0  0  0
 23 22  2  0  0  0  0
 24 23  1  0  0  0  0
 25 24  2  0  0  0  0
 25 26  1  0  0  0  0
 26 27  2  0  0  0  0
 27 22  1  0  0  0  0
 30 26  1  0  0  0  0
 31  6  1  0  0  0  0
 31 32  1  0  0  0  0
 33 31  2  0  0  0  0
M  END
>  <minimizedAffinity>
-4.67484093

$$$$

 OpenBabel03252508303D

 33 35  0  0  1  0  0  0  0  0999 V2000
   36.9420   31.7240   39.3270 N   0  0  0  0  0  0  0  0  0  0  0  0
   37.4970   31.6240   40.6780 C   0  0  2  0  0  0  0  0  0  0  0  0
   38.9110   32.0560   40.7490 C   0  0  0  0  0  0  0  0  0  0  0  0
   39.3880   32.6710   39.5190 N   0  0  0  0  0  0  0  0  0  0  0  0
   39.0750   31.9750   38.3260 C   0  0  0  0  0  0  0  0  0  0  0  0
   37.9260   31.0080   38.4810 C   0  0  2  0  0  0  0  0  0  0  0  0
   36.0240   31.2610   39.3190 H   0  0  0  0  0  0  0  0  0  0  0  0
   36.8030   32.2190   41.3210 H   0  0  0  0  0  0  0  0  0  0  0  0
   39.6840   31.3130   40.9300 H   0  0  0  0  0  0  0  0  0  0  0  0
   38.9480   32.8980   41.5060 H   0  0  0  0  0  0  0  0  0  0  0  0
   39.2280   33.6930   39.4950 H   0  0  0  0  0  0  0  0  0  0  0  0
   38.7530   32.7040   37.5350 H   0  0  0  0  0  0  0  0  0  0  0  0
   39.9490   31.4510   37.8640 H   0  0  0  0  0  0  0  0  0  0  0  0
   38.2140   30.1130   39.0360 H   0  0  0  0  0  0  0  0  0  0  0  0
   37.8330   28.2370   41.8630 C   0  0  0  0  0  0  0  0  0  0  0  0
   36.4600   28.3800   41.6230 C   0  0  0  0  0  0  0  0  0  0  0  0
   36.1950   29.6540   41.1510 C   0  0  0  0  0  0  0  0  0  0  0  0
   37.3850   30.2460   41.1170 N   0  0  0  0  0  0  0  0  0  0  0  0
   38.3420   29.4240   41.5300 N   0  0  0  0  0  0  0  0  0  0  0  0
   35.8100   27.5250   41.8250 H   0  0  0  0  0  0  0  0  0  0  0  0
   35.1340   29.7700   40.9580 H   0  0  0  0  0  0  0  0  0  0  0  0
   39.9740   25.7360   43.6790 C   0  0  0  0  0  0  0  0  0  0  0  0
   39.4630   27.0240   43.3030 C   0  0  0  0  0  0  0  0  0  0  0  0
   38.4740   27.0160   42.3530 C   0  0  0  0  0  0  0  0  0  0  0  0
   38.0350   25.8340   41.8300 N   0  0  0  0  0  0  0  0  0  0  0  0
   38.5450   24.6420   42.2130 C   0  0  0  0  0  0  0  0  0  0  0  0
   39.5000   24.6170   43.1270 N   0  0  0  0  0  0  0  0  0  0  0  0
   40.7520   25.8080   44.4320 H   0  0  0  0  0  0  0  0  0  0  0  0
   39.7990   27.9490   43.7060 H   0  0  0  0  0  0  0  0  0  0  0  0
   38.2010   23.7030   41.8020 H   0  0  0  0  0  0  0  0  0  0  0  0
   37.3330   30.7350   37.1400 C   0  0  0  0  0  0  0  0  0  0  0  0
   37.7050   31.3360   36.3290 H   0  0  0  0  0  0  0  0  0  0  0  0
   36.4760   29.8450   37.1060 O   0  0  0  0  0  0  0  0  0  0  0  0
  1  2  1  0  0  0  0
  2  3  1  0  0  0  0
  2 18  1  0  0  0  0
  2  8  1  1  0  0  0
  3  9  1  0  0  0  0
  3 10  1  0  0  0  0
  4  3  1  0  0  0  0
  5  6  1  0  0  0  0
  5  4  1  0  0  0  0
  6 14  1  1  0  0  0
  6  1  1  0  0  0  0
  7  1  1  0  0  0  0
 11  4  1  0  0  0  0
 12  5  1  0  0  0  0
 13  5  1  0  0  0  0
 15 24  1  0  0  0  0
 16 20  1  0  0  0  0
 16 15  1  0  0  0  0
 17 16  2  0  0  0  0
 18 17  1  0  0  0  0
 18 19  1  0  0  0  0
 19 15  2  0  0  0  0
 21 17  1  0  0  0  0
 22 28  1  0  0  0  0
 23 22  1  0  0  0  0
 23 29  1  0  0  0  0
 24 23  2  0  0  0  0
 25 26  2  0  0  0  0
 25 24  1  0  0  0  0
 26 27  1  0  0  0  0
 27 22  2  0  0  0  0
 30 26  1  0  0  0  0
 31  6  1  0  0  0  0
 32 31  1  0  0  0  0
 33 31  2  0  0  0  0
M  END
>  <minimizedAffinity>
-4.64872837

$$$$

 OpenBabel03252508303D

 33 35  0  0  1  0  0  0  0  0999 V2000
   40.7600   31.2470   36.8660 N   0  0  0  0  0  0  0  0  0  0  0  0
   40.3550   32.3980   37.6760 C   0  0  2  0  0  0  0  0  0  0  0  0
   41.4240   33.4150   37.7970 C   0  0  0  0  0  0  0  0  0  0  0  0
   42.5660   33.1560   36.9320 N   0  0  0  0  0  0  0  0  0  0  0  0
   43.0550   31.8270   36.9470 C   0  0  0  0  0  0  0  0  0  0  0  0
   42.0500   30.8250   37.4610 C   0  0  2  0  0  0  0  0  0  0  0  0
   40.0400   30.5170   36.9590 H   0  0  0  0  0  0  0  0  0  0  0  0
   39.4170   32.7730   37.1980 H   0  0  0  0  0  0  0  0  0  0  0  0
   41.9120   33.5600   38.7580 H   0  0  0  0  0  0  0  0  0  0  0  0
   40.9910   34.3810   37.3920 H   0  0  0  0  0  0  0  0  0  0  0  0
   42.4640   33.5850   35.9960 H   0  0  0  0  0  0  0  0  0  0  0  0
   43.2990   31.5020   35.9000 H   0  0  0  0  0  0  0  0  0  0  0  0
   44.0220   31.7060   37.4940 H   0  0  0  0  0  0  0  0  0  0  0  0
   41.9240   30.8870   38.5430 H   0  0  0  0  0  0  0  0  0  0  0  0
   39.1100   30.7790   40.6450 C   0  0  0  0  0  0  0  0  0  0  0  0
   39.9320   31.8040   41.1340 C   0  0  0  0  0  0  0  0  0  0  0  0
   40.4740   32.5160   40.0780 C   0  0  0  0  0  0  0  0  0  0  0  0
   39.9840   31.9210   38.9940 N   0  0  0  0  0  0  0  0  0  0  0  0
   39.1890   30.9090   39.3200 N   0  0  0  0  0  0  0  0  0  0  0  0
   40.0360   31.9080   42.2170 H   0  0  0  0  0  0  0  0  0  0  0  0
   41.1060   33.3150   40.4490 H   0  0  0  0  0  0  0  0  0  0  0  0
   37.8580   28.6180   43.4550 C   0  0  0  0  0  0  0  0  0  0  0  0
   38.7070   29.5560   42.7770 C   0  0  0  0  0  0  0  0  0  0  0  0
   38.3630   29.8380   41.4790 C   0  0  0  0  0  0  0  0  0  0  0  0
   37.2730   29.2390   40.9140 N   0  0  0  0  0  0  0  0  0  0  0  0
   36.5000   28.3600   41.5910 C   0  0  0  0  0  0  0  0  0  0  0  0
   36.8070   28.0680   42.8430 N   0  0  0  0  0  0  0  0  0  0  0  0
   38.1820   28.4370   44.4760 H   0  0  0  0  0  0  0  0  0  0  0  0
   39.5560   30.0260   43.2100 H   0  0  0  0  0  0  0  0  0  0  0  0
   35.6370   27.8840   41.1480 H   0  0  0  0  0  0  0  0  0  0  0  0
   42.4140   29.4670   36.9620 C   0  0  0  0  0  0  0  0  0  0  0  0
   42.4680   28.6920   37.7060 H   0  0  0  0  0  0  0  0  0  0  0  0
   42.6130   29.3790   35.7460 O   0  0  0  0  0  0  0  0  0  0  0  0
  1  7  1  0  0  0  0
  1  6  1  0  0  0  0
  1  2  1  0  0  0  0
  2  8  1  6  0  0  0
  2  3  1  0  0  0  0
  2 18  1  0  0  0  0
  3  9  1  0  0  0  0
  4  5  1  0  0  0  0
  4  3  1  0  0  0  0
  5  6  1  0  0  0  0
  5 13  1  0  0  0  0
  6 14  1  1  0  0  0
 10  3  1  0  0  0  0
 11  4  1  0  0  0  0
 12  5  1  0  0  0  0
 15 16  1  0  0  0  0
 15 24  1  0  0  0  0
 16 20  1  0  0  0  0
 17 21  1  0  0  0  0
 17 16  2  0  0  0  0
 18 19  1  0  0  0  0
 18 17  1  0  0  0  0
 19 15  2  0  0  0  0
 22 28  1  0  0  0  0
 23 29  1  0  0  0  0
 23 22  2  0  0  0  0
 24 23  1  0  0  0  0
 25 24  2  0  0  0  0
 25 26  1  0  0  0  0
 26 27  2  0  0  0  0
 27 22  1  0  0  0  0
 30 26  1  0  0  0  0
 31  6  1  0  0  0  0
 31 32  1  0  0  0  0
 33 31  2  0  0  0  0
M  END
>  <minimizedAffinity>
-4.64315128

$$$$

 OpenBabel03252508303D

 33 35  0  0  1  0  0  0  0  0999 V2000
   39.0790   25.5410   40.7030 N   0  0  0  0  0  0  0  0  0  0  0  0
   39.8370   26.1650   41.7890 C   0  0  2  0  0  0  0  0  0  0  0  0
   39.7180   25.4260   43.0660 C   0  0  0  0  0  0  0  0  0  0  0  0
   39.0460   24.1420   42.9290 N   0  0  0  0  0  0  0  0  0  0  0  0
   37.8450   24.1590   42.1780 C   0  0  0  0  0  0  0  0  0  0  0  0
   37.7220   25.3590   41.2710 C   0  0  2  0  0  0  0  0  0  0  0  0
   39.0730   26.1870   39.9010 H   0  0  0  0  0  0  0  0  0  0  0  0
   40.8820   26.2470   41.4030 H   0  0  0  0  0  0  0  0  0  0  0  0
   39.1610   25.8720   43.8870 H   0  0  0  0  0  0  0  0  0  0  0  0
   40.7730   25.1480   43.3720 H   0  0  0  0  0  0  0  0  0  0  0  0
   39.6980   23.3700   42.7100 H   0  0  0  0  0  0  0  0  0  0  0  0
   37.8070   23.2630   41.5030 H   0  0  0  0  0  0  0  0  0  0  0  0
   36.9200   24.0600   42.8000 H   0  0  0  0  0  0  0  0  0  0  0  0
   37.4960   26.2720   41.8240 H   0  0  0  0  0  0  0  0  0  0  0  0
   38.6990   29.5790   41.6050 C   0  0  0  0  0  0  0  0  0  0  0  0
   38.5920   29.2560   42.9640 C   0  0  0  0  0  0  0  0  0  0  0  0
   39.0110   27.9540   43.1730 C   0  0  0  0  0  0  0  0  0  0  0  0
   39.3540   27.5210   41.9640 N   0  0  0  0  0  0  0  0  0  0  0  0
   39.1740   28.4650   41.0480 N   0  0  0  0  0  0  0  0  0  0  0  0
   38.2160   30.0220   43.6480 H   0  0  0  0  0  0  0  0  0  0  0  0
   38.9370   27.6990   44.2240 H   0  0  0  0  0  0  0  0  0  0  0  0
   37.0750   32.4070   39.7340 C   0  0  0  0  0  0  0  0  0  0  0  0
   37.2720   31.0660   40.2060 C   0  0  0  0  0  0  0  0  0  0  0  0
   38.3570   30.8780   41.0250 C   0  0  0  0  0  0  0  0  0  0  0  0
   39.1660   31.9310   41.3420 N   0  0  0  0  0  0  0  0  0  0  0  0
   38.9430   33.1790   40.8740 C   0  0  0  0  0  0  0  0  0  0  0  0
   37.9060   33.3920   40.0830 N   0  0  0  0  0  0  0  0  0  0  0  0
   36.2030   32.4910   39.0920 H   0  0  0  0  0  0  0  0  0  0  0  0
   36.6460   30.2410   39.9640 H   0  0  0  0  0  0  0  0  0  0  0  0
   39.5810   34.0160   41.1230 H   0  0  0  0  0  0  0  0  0  0  0  0
   36.7570   25.0490   40.1770 C   0  0  0  0  0  0  0  0  0  0  0  0
   36.7290   25.7500   39.3610 H   0  0  0  0  0  0  0  0  0  0  0  0
   36.0920   24.0180   40.3260 O   0  0  0  0  0  0  0  0  0  0  0  0
  1  6  1  0  0  0  0
  1  2  1  0  0  0  0
  2  8  1  6  0  0  0
  2 18  1  0  0  0  0
  2  3  1  0  0  0  0
  3 10  1  0  0  0  0
  3  9  1  0  0  0  0
  4  3  1  0  0  0  0
  5 13  1  0  0  0  0
  5  4  1  0  0  0  0
  6 14  1  1  0  0  0
  6  5  1  0  0  0  0
  7  1  1  0  0  0  0
 11  4  1  0  0  0  0
 12  5  1  0  0  0  0
 15 16  1  0  0  0  0
 16 17  2  0  0  0  0
 16 20  1  0  0  0  0
 17 21  1  0  0  0  0
 18 17  1  0  0  0  0
 19 15  2  0  0  0  0
 19 18  1  0  0  0  0
 22 27  2  0  0  0  0
 22 23  1  0  0  0  0
 23 24  2  0  0  0  0
 24 25  1  0  0  0  0
 24 15  1  0  0  0  0
 26 30  1  0  0  0  0
 26 25  2  0  0  0  0
 27 26  1  0  0  0  0
 28 22  1  0  0  0  0
 29 23  1  0  0  0  0
 31 33  2  0  0  0  0
 31  6  1  0  0  0  0
 32 31  1  0  0  0  0
M  END
>  <minimizedAffinity>
-4.63415813

$$$$

 OpenBabel03252508303D

 33 35  0  0  1  0  0  0  0  0999 V2000
   38.4530   25.1180   42.6540 N   0  0  0  0  0  0  0  0  0  0  0  0
   37.3340   25.8120   42.0130 C   0  0  2  0  0  0  0  0  0  0  0  0
   37.2150   25.4940   40.5720 C   0  0  0  0  0  0  0  0  0  0  0  0
   38.0980   24.4190   40.1450 N   0  0  0  0  0  0  0  0  0  0  0  0
   39.4400   24.5180   40.5860 C   0  0  0  0  0  0  0  0  0  0  0  0
   39.6110   25.4230   41.7820 C   0  0  2  0  0  0  0  0  0  0  0  0
   38.5750   25.5060   43.6000 H   0  0  0  0  0  0  0  0  0  0  0  0
   36.4370   25.5360   42.6190 H   0  0  0  0  0  0  0  0  0  0  0  0
   37.4440   26.2630   39.8390 H   0  0  0  0  0  0  0  0  0  0  0  0
   36.1760   25.0650   40.4260 H   0  0  0  0  0  0  0  0  0  0  0  0
   37.6650   23.4840   40.2380 H   0  0  0  0  0  0  0  0  0  0  0  0
   39.8060   23.5090   40.9140 H   0  0  0  0  0  0  0  0  0  0  0  0
   40.1610   24.8130   39.7830 H   0  0  0  0  0  0  0  0  0  0  0  0
   39.5250   26.4780   41.5150 H   0  0  0  0  0  0  0  0  0  0  0  0
   37.7640   29.3840   41.8160 C   0  0  0  0  0  0  0  0  0  0  0  0
   37.7820   29.1140   43.1900 C   0  0  0  0  0  0  0  0  0  0  0  0
   37.6310   27.7550   43.4050 C   0  0  0  0  0  0  0  0  0  0  0  0
   37.5230   27.2390   42.1830 N   0  0  0  0  0  0  0  0  0  0  0  0
   37.6010   28.1850   41.2560 N   0  0  0  0  0  0  0  0  0  0  0  0
   37.9060   29.9530   43.8790 H   0  0  0  0  0  0  0  0  0  0  0  0
   37.6500   27.5370   44.4670 H   0  0  0  0  0  0  0  0  0  0  0  0
   37.2370   32.6230   39.9790 C   0  0  0  0  0  0  0  0  0  0  0  0
   36.9300   31.3110   40.4750 C   0  0  0  0  0  0  0  0  0  0  0  0
   37.9130   30.7140   41.2230 C   0  0  0  0  0  0  0  0  0  0  0  0
   39.0890   31.3670   41.4550 N   0  0  0  0  0  0  0  0  0  0  0  0
   39.3370   32.6030   40.9680 C   0  0  0  0  0  0  0  0  0  0  0  0
   38.4090   33.2040   40.2430 N   0  0  0  0  0  0  0  0  0  0  0  0
   36.4220   33.0400   39.3950 H   0  0  0  0  0  0  0  0  0  0  0  0
   36.0170   30.7960   40.2990 H   0  0  0  0  0  0  0  0  0  0  0  0
   40.2670   33.1250   41.1490 H   0  0  0  0  0  0  0  0  0  0  0  0
   40.8780   25.0700   42.4850 C   0  0  0  0  0  0  0  0  0  0  0  0
   41.5360   24.3980   41.9610 H   0  0  0  0  0  0  0  0  0  0  0  0
   41.0360   25.5880   43.5960 O   0  0  0  0  0  0  0  0  0  0  0  0
  1  7  1  0  0  0  0
  2 18  1  0  0  0  0
  2  8  1  1  0  0  0
  2  1  1  0  0  0  0
  3  2  1  0  0  0  0
  4 11  1  0  0  0  0
  4  3  1  0  0  0  0
  4  5  1  0  0  0  0
  5 12  1  0  0  0  0
  5  6  1  0  0  0  0
  6 14  1  6  0  0  0
  6 31  1  0  0  0  0
  6  1  1  0  0  0  0
  9  3  1  0  0  0  0
 10  3  1  0  0  0  0
 13  5  1  0  0  0  0
 15 16  1  0  0  0  0
 16 17  2  0  0  0  0
 16 20  1  0  0  0  0
 17 21  1  0  0  0  0
 18 17  1  0  0  0  0
 19 15  2  0  0  0  0
 19 18  1  0  0  0  0
 22 27  2  0  0  0  0
 22 23  1  0  0  0  0
 23 24  2  0  0  0  0
 24 25  1  0  0  0  0
 24 15  1  0  0  0  0
 26 30  1  0  0  0  0
 26 25  2  0  0  0  0
 27 26  1  0  0  0  0
 28 22  1  0  0  0  0
 29 23  1  0  0  0  0
 31 33  2  0  0  0  0
 32 31  1  0  0  0  0
M  END
>  <minimizedAffinity>
-4.56418371

$$$$
