
 OpenBabel03252504203D

 13 13  0  0  0  0  0  0  0  0999 V2000
   45.4550   34.3790   45.0100 C   0  0  0  0  0  0  0  0  0  0  0  0
   46.4040   33.7690   44.1920 C   0  0  0  0  0  0  0  0  0  0  0  0
   47.1180   32.6740   44.7020 C   0  0  0  0  0  0  0  0  0  0  0  0
   46.8460   32.2690   45.9680 N   0  0  0  0  0  0  0  0  0  0  0  0
   45.9270   32.8780   46.7280 C   0  0  0  0  0  0  0  0  0  0  0  0
   45.2240   33.9300   46.2710 N   0  0  0  0  0  0  0  0  0  0  0  0
   46.6050   34.1160   43.1740 H   0  0  0  0  0  0  0  0  0  0  0  0
   47.8600   32.1540   44.1400 H   0  0  0  0  0  0  0  0  0  0  0  0
   45.7040   32.3700   48.0760 C   0  0  0  0  0  0  0  0  0  0  0  0
   46.4030   32.5710   48.8920 H   0  0  0  0  0  0  0  0  0  0  0  0
   44.6780   31.6800   48.2980 O   0  0  0  0  0  0  0  0  0  0  0  0
   44.5900   35.7720   44.2750 S   0  0  0  0  0  0  0  0  0  0  0  0
   45.4470   36.5010   43.4270 H   0  0  0  0  0  0  0  0  0  0  0  0
  1  6  1  0  0  0  0
  2  3  1  0  0  0  0
  2  1  2  0  0  0  0
  3  4  2  0  0  0  0
  4  5  1  0  0  0  0
  5  9  1  0  0  0  0
  6  5  2  0  0  0  0
  7  2  1  0  0  0  0
  8  3  1  0  0  0  0
  9 11  2  0  0  0  0
  9 10  1  0  0  0  0
 12  1  1  0  0  0  0
 13 12  1  0  0  0  0
M  END
>  <minimizedAffinity>
-3.07025576

>  <minimizedRMSD>
0.886566043

$$$$
