
 OpenBabel03242522013D

 29 30  0  0  1  0  0  0  0  0999 V2000
   47.6340   33.4510   43.2080 N   0  0  0  0  0  0  0  0  0  0  0  0
   47.2750   32.5750   42.1080 C   0  0  0  0  0  0  0  0  0  0  0  0
   48.4600   32.1920   41.2850 C   0  0  0  0  0  0  0  0  0  0  0  0
   49.2570   33.2820   40.8680 N   0  0  0  0  0  0  0  0  0  0  0  0
   49.4000   34.3610   41.7710 C   0  0  2  0  0  0  0  0  0  0  0  0
   48.8460   34.2010   43.1320 C   0  0  0  0  0  0  0  0  0  0  0  0
   46.7430   31.6890   42.4650 H   0  0  0  0  0  0  0  0  0  0  0  0
   46.5770   33.1540   41.4350 H   0  0  0  0  0  0  0  0  0  0  0  0
   48.1070   31.6560   40.3830 H   0  0  0  0  0  0  0  0  0  0  0  0
   49.0720   31.4850   41.8880 H   0  0  0  0  0  0  0  0  0  0  0  0
   48.9510   33.5990   39.9120 H   0  0  0  0  0  0  0  0  0  0  0  0
   50.4970   34.5830   41.8880 H   0  0  0  0  0  0  0  0  0  0  0  0
   49.6070   33.7660   43.8380 H   0  0  0  0  0  0  0  0  0  0  0  0
   48.6270   35.2080   43.5490 H   0  0  0  0  0  0  0  0  0  0  0  0
   44.9770   34.5010   45.6330 C   0  0  0  0  0  0  0  0  0  0  0  0
   45.7400   34.4730   44.4610 C   0  0  0  0  0  0  0  0  0  0  0  0
   46.7920   33.5650   44.3540 C   0  0  0  0  0  0  0  0  0  0  0  0
   47.0120   32.7500   45.4150 N   0  0  0  0  0  0  0  0  0  0  0  0
   46.2600   32.7960   46.5360 C   0  0  0  0  0  0  0  0  0  0  0  0
   45.2470   33.6660   46.6480 N   0  0  0  0  0  0  0  0  0  0  0  0
   44.1680   35.2160   45.6850 H   0  0  0  0  0  0  0  0  0  0  0  0
   45.5690   35.1140   43.6250 H   0  0  0  0  0  0  0  0  0  0  0  0
   46.6150   31.8590   47.5930 C   0  0  0  0  0  0  0  0  0  0  0  0
   47.0460   30.8800   47.4310 H   0  0  0  0  0  0  0  0  0  0  0  0
   46.4210   32.1770   48.7820 O   0  0  0  0  0  0  0  0  0  0  0  0
   48.7780   35.5940   41.1500 C   0  0  0  0  0  0  0  0  0  0  0  0
   49.5540   36.7170   41.4160 F   0  0  0  0  0  0  0  0  0  0  0  0
   47.5850   35.7940   41.8240 F   0  0  0  0  0  0  0  0  0  0  0  0
   48.6060   35.4860   39.8000 F   0  0  0  0  0  0  0  0  0  0  0  0
  1 17  1  0  0  0  0
  2  7  1  0  0  0  0
  2  1  1  0  0  0  0
  3 10  1  0  0  0  0
  3  2  1  0  0  0  0
  4  3  1  0  0  0  0
  4  5  1  0  0  0  0
  5 12  1  1  0  0  0
  5  6  1  0  0  0  0
  6  1  1  0  0  0  0
  6 14  1  0  0  0  0
  6 13  1  0  0  0  0
  8  2  1  0  0  0  0
  9  3  1  0  0  0  0
 11  4  1  0  0  0  0
 15 21  1  0  0  0  0
 15 20  1  0  0  0  0
 16 15  2  0  0  0  0
 17 16  1  0  0  0  0
 17 18  2  0  0  0  0
 18 19  1  0  0  0  0
 19 20  2  0  0  0  0
 19 23  1  0  0  0  0
 22 16  1  0  0  0  0
 23 25  2  0  0  0  0
 24 23  1  0  0  0  0
 26 27  1  0  0  0  0
 26  5  1  0  0  0  0
 26 28  1  0  0  0  0
 29 26  1  0  0  0  0
M  END
>  <minimizedAffinity>
-5.34951687

>  <minimizedRMSD>
0.278454185

$$$$
