
 OpenBabel03252508123D

 24 25  0  0  1  0  0  0  0  0999 V2000
   46.2370   30.9390   46.6510 C   0  0  0  0  0  0  0  0  0  0  0  0
   45.7830   30.0050   46.2680 H   0  0  0  0  0  0  0  0  0  0  0  0
   47.3480   30.8890   46.7450 H   0  0  0  0  0  0  0  0  0  0  0  0
   45.5550   31.3450   47.9360 C   0  0  1  0  0  0  0  0  0  0  0  0
   45.2780   30.3030   48.9530 C   0  0  0  0  0  0  0  0  0  0  0  0
   46.3420   31.2850   49.1980 C   0  0  1  0  0  0  0  0  0  0  0  0
   44.6710   32.0420   47.8320 H   0  0  0  0  0  0  0  0  0  0  0  0
   44.3530   30.2930   49.5710 H   0  0  0  0  0  0  0  0  0  0  0  0
   45.6720   29.2770   48.6880 H   0  0  0  0  0  0  0  0  0  0  0  0
   46.1080   32.0450   49.9910 H   0  0  0  0  0  0  0  0  0  0  0  0
   47.7680   30.9410   49.0990 C   0  0  0  0  0  0  0  0  0  0  0  0
   48.4040   30.9150   48.2380 H   0  0  0  0  0  0  0  0  0  0  0  0
   48.7100   30.5970   49.7920 O   0  0  0  0  0  0  0  0  0  0  0  0
   45.7970   33.1910   45.9810 C   0  0  0  0  0  0  0  0  0  0  0  0
   46.0060   31.9780   45.5850 C   0  0  0  0  0  0  0  0  0  0  0  0
   44.5520   36.2140   44.3210 C   0  0  0  0  0  0  0  0  0  0  0  0
   45.2490   36.1750   43.0820 C   0  0  0  0  0  0  0  0  0  0  0  0
   46.1040   35.1290   42.8410 C   0  0  0  0  0  0  0  0  0  0  0  0
   46.2220   34.2060   43.8050 N   0  0  0  0  0  0  0  0  0  0  0  0
   45.5780   34.2230   44.9760 C   0  0  0  0  0  0  0  0  0  0  0  0
   44.7410   35.2350   45.2230 N   0  0  0  0  0  0  0  0  0  0  0  0
   43.8660   37.0250   44.5470 H   0  0  0  0  0  0  0  0  0  0  0  0
   45.0950   36.9670   42.3550 H   0  0  0  0  0  0  0  0  0  0  0  0
   46.6580   35.0330   41.9400 H   0  0  0  0  0  0  0  0  0  0  0  0
  1  3  1  0  0  0  0
  1  4  1  0  0  0  0
  2  1  1  0  0  0  0
  4  7  1  6  0  0  0
  4  5  1  0  0  0  0
  4  6  1  0  0  0  0
  5  6  1  0  0  0  0
  5  8  1  0  0  0  0
  6 10  1  1  0  0  0
  9  5  1  0  0  0  0
 11  6  1  0  0  0  0
 11 13  2  0  0  0  0
 12 11  1  0  0  0  0
 15 14  2  0  0  0  0
 15  1  1  0  0  0  0
 16 22  1  0  0  0  0
 16 21  1  0  0  0  0
 17 16  2  0  0  0  0
 18 17  1  0  0  0  0
 18 19  2  0  0  0  0
 19 20  1  0  0  0  0
 20 21  2  0  0  0  0
 20 14  1  0  0  0  0
 23 17  1  0  0  0  0
 24 18  1  0  0  0  0
M  END
>  <minimizedAffinity>
-4.36076403

>  <minimizedRMSD>
1.05786514

$$$$
