
 OpenBabel03252502123D

 31 33  0  0  0  0  0  0  0  0999 V2000
   41.9200   34.9100   41.4030 Cl  0  0  0  0  0  0  0  0  0  0  0  0
   43.2630   34.2320   40.5010 C   0  0  0  0  0  0  0  0  0  0  0  0
   44.4790   34.0680   41.0740 C   0  0  0  0  0  0  0  0  0  0  0  0
   45.4660   33.5250   40.2750 C   0  0  0  0  0  0  0  0  0  0  0  0
   45.2550   33.1690   38.9810 C   0  0  0  0  0  0  0  0  0  0  0  0
   44.0090   33.3440   38.4170 C   0  0  0  0  0  0  0  0  0  0  0  0
   43.0260   33.8770   39.1930 C   0  0  0  0  0  0  0  0  0  0  0  0
   46.0370   32.7450   38.3650 H   0  0  0  0  0  0  0  0  0  0  0  0
   43.8540   33.0550   37.3830 H   0  0  0  0  0  0  0  0  0  0  0  0
   42.0620   34.0020   38.7190 H   0  0  0  0  0  0  0  0  0  0  0  0
   44.7630   36.1260   44.2370 C   0  0  0  0  0  0  0  0  0  0  0  0
   44.5790   35.7600   42.9040 C   0  0  0  0  0  0  0  0  0  0  0  0
   44.6680   34.4610   42.4590 C   0  0  0  0  0  0  0  0  0  0  0  0
   44.9530   33.5370   43.4220 N   0  0  0  0  0  0  0  0  0  0  0  0
   45.1320   33.8780   44.7110 C   0  0  0  0  0  0  0  0  0  0  0  0
   45.0420   35.1500   45.1280 N   0  0  0  0  0  0  0  0  0  0  0  0
   44.6830   37.1540   44.5360 H   0  0  0  0  0  0  0  0  0  0  0  0
   44.3540   36.4950   42.1400 H   0  0  0  0  0  0  0  0  0  0  0  0
   45.3560   33.1080   45.4380 H   0  0  0  0  0  0  0  0  0  0  0  0
   46.8010   33.3320   40.8640 C   0  0  0  0  0  0  0  0  0  0  0  0
   47.2300   32.0110   41.0410 C   0  0  0  0  0  0  0  0  0  0  0  0
   48.4890   31.9550   41.5980 C   0  0  0  0  0  0  0  0  0  0  0  0
   49.2870   33.0130   41.9610 C   0  0  0  0  0  0  0  0  0  0  0  0
   48.7680   34.2800   41.7430 C   0  0  0  0  0  0  0  0  0  0  0  0
   47.5400   34.3690   41.2010 N   0  0  0  0  0  0  0  0  0  0  0  0
   46.6670   31.1500   40.7830 H   0  0  0  0  0  0  0  0  0  0  0  0
   48.8810   30.9200   41.7610 H   0  0  0  0  0  0  0  0  0  0  0  0
   50.2610   32.8420   42.3900 H   0  0  0  0  0  0  0  0  0  0  0  0
   49.5490   35.4510   42.1020 C   0  0  0  0  0  0  0  0  0  0  0  0
   50.3230   35.3210   42.8750 H   0  0  0  0  0  0  0  0  0  0  0  0
   49.3320   36.5570   41.5390 O   0  0  0  0  0  0  0  0  0  0  0  0
  2  3  1  0  0  0  0
  2  1  1  0  0  0  0
  3 13  1  0  0  0  0
  4 20  1  0  0  0  0
  4  3  2  0  0  0  0
  5  4  1  0  0  0  0
  6  5  2  0  0  0  0
  6  7  1  0  0  0  0
  7  2  2  0  0  0  0
  8  5  1  0  0  0  0
  9  6  1  0  0  0  0
 10  7  1  0  0  0  0
 11 17  1  0  0  0  0
 11 16  1  0  0  0  0
 12 11  2  0  0  0  0
 13 12  1  0  0  0  0
 13 14  2  0  0  0  0
 14 15  1  0  0  0  0
 15 16  2  0  0  0  0
 15 19  1  0  0  0  0
 18 12  1  0  0  0  0
 20 21  2  0  0  0  0
 20 25  1  0  0  0  0
 21 22  1  0  0  0  0
 22 27  1  0  0  0  0
 22 23  2  0  0  0  0
 23 28  1  0  0  0  0
 24 23  1  0  0  0  0
 24 29  1  0  0  0  0
 25 24  2  0  0  0  0
 26 21  1  0  0  0  0
 29 30  1  0  0  0  0
 31 29  2  0  0  0  0
M  END
>  <minimizedAffinity>
-5.04372454

>  <minimizedRMSD>
1.32030153

$$$$
