
 OpenBabel03252506193D

 17 17  0  0  0  0  0  0  0  0999 V2000
   37.1960   26.8120   42.2770 C   0  0  0  0  0  0  0  0  0  0  0  0
   38.0370   27.3050   43.2920 C   0  0  0  0  0  0  0  0  0  0  0  0
   38.1640   28.6990   43.4320 C   0  0  0  0  0  0  0  0  0  0  0  0
   37.4630   29.4970   42.5750 N   0  0  0  0  0  0  0  0  0  0  0  0
   36.6550   28.9790   41.6000 C   0  0  0  0  0  0  0  0  0  0  0  0
   36.5410   27.6390   41.4750 N   0  0  0  0  0  0  0  0  0  0  0  0
   38.6050   26.6910   43.9870 H   0  0  0  0  0  0  0  0  0  0  0  0
   38.7840   29.1740   44.1790 H   0  0  0  0  0  0  0  0  0  0  0  0
   35.9500   29.9160   40.7360 C   0  0  0  0  0  0  0  0  0  0  0  0
   35.2810   29.5500   39.9690 H   0  0  0  0  0  0  0  0  0  0  0  0
   36.1630   31.1400   40.9340 O   0  0  0  0  0  0  0  0  0  0  0  0
   37.0810   25.3670   42.1570 C   0  0  0  0  0  3  0  0  0  0  0  0
   37.6700   24.7500   41.1570 C   0  0  0  0  0  3  0  0  0  0  0  0
   37.6090   23.2880   40.9610 C   0  0  0  0  0  0  0  0  0  0  0  0
   37.5000   22.7830   41.9610 H   0  0  0  0  0  0  0  0  0  0  0  0
   36.6940   22.9950   40.3980 H   0  0  0  0  0  0  0  0  0  0  0  0
   38.5460   22.8650   40.5330 H   0  0  0  0  0  0  0  0  0  0  0  0
  1  2  1  0  0  0  0
  2  3  2  0  0  0  0
  2  7  1  0  0  0  0
  3  8  1  0  0  0  0
  4  3  1  0  0  0  0
  5  4  2  0  0  0  0
  6  5  1  0  0  0  0
  6  1  2  0  0  0  0
  9 11  2  0  0  0  0
  9  5  1  0  0  0  0
 10  9  1  0  0  0  0
 12  1  1  0  0  0  0
 13 12  2  0  0  0  0
 14 13  1  0  0  0  0
 14 15  1  0  0  0  0
 16 14  1  0  0  0  0
 17 14  1  0  0  0  0
M  END
>  <minimizedAffinity>
-3.6530683

$$$$

 OpenBabel03252506193D

 17 17  0  0  0  0  0  0  0  0999 V2000
   37.3540   29.0790   42.1420 C   0  0  0  0  0  0  0  0  0  0  0  0
   36.2040   28.4400   41.6400 C   0  0  0  0  0  0  0  0  0  0  0  0
   35.4330   29.1160   40.6770 C   0  0  0  0  0  0  0  0  0  0  0  0
   35.8440   30.3570   40.2820 N   0  0  0  0  0  0  0  0  0  0  0  0
   36.9680   30.9440   40.7930 C   0  0  0  0  0  0  0  0  0  0  0  0
   37.7000   30.2850   41.7180 N   0  0  0  0  0  0  0  0  0  0  0  0
   35.8560   27.4540   41.9390 H   0  0  0  0  0  0  0  0  0  0  0  0
   34.5350   28.7100   40.2330 H   0  0  0  0  0  0  0  0  0  0  0  0
   37.3210   32.2710   40.3050 C   0  0  0  0  0  0  0  0  0  0  0  0
   37.6760   33.0260   40.9930 H   0  0  0  0  0  0  0  0  0  0  0  0
   37.1890   32.4740   39.0700 O   0  0  0  0  0  0  0  0  0  0  0  0
   38.1330   28.3550   43.1340 C   0  0  0  0  0  3  0  0  0  0  0  0
   38.9970   27.4450   42.7420 C   0  0  0  0  0  3  0  0  0  0  0  0
   39.8320   26.6670   43.6800 C   0  0  0  0  0  0  0  0  0  0  0  0
   40.0260   27.2820   44.6010 H   0  0  0  0  0  0  0  0  0  0  0  0
   39.2890   25.7690   44.0500 H   0  0  0  0  0  0  0  0  0  0  0  0
   40.8430   26.4370   43.2760 H   0  0  0  0  0  0  0  0  0  0  0  0
  1 12  1  0  0  0  0
  2  7  1  0  0  0  0
  2  1  2  0  0  0  0
  3  2  1  0  0  0  0
  4  3  2  0  0  0  0
  4  5  1  0  0  0  0
  5  6  2  0  0  0  0
  6  1  1  0  0  0  0
  8  3  1  0  0  0  0
  9  5  1  0  0  0  0
  9 10  1  0  0  0  0
 11  9  2  0  0  0  0
 13 12  2  0  0  0  0
 13 14  1  0  0  0  0
 14 16  1  0  0  0  0
 14 15  1  0  0  0  0
 17 14  1  0  0  0  0
M  END
>  <minimizedAffinity>
-3.63385081

$$$$

 OpenBabel03252506193D

 17 17  0  0  0  0  0  0  0  0999 V2000
   36.8860   30.8300   40.8010 C   0  0  0  0  0  0  0  0  0  0  0  0
   35.8100   30.1320   40.2210 C   0  0  0  0  0  0  0  0  0  0  0  0
   35.4990   28.8540   40.7180 C   0  0  0  0  0  0  0  0  0  0  0  0
   36.2600   28.3600   41.7380 N   0  0  0  0  0  0  0  0  0  0  0  0
   37.2990   29.0690   42.2760 C   0  0  0  0  0  0  0  0  0  0  0  0
   37.5880   30.2960   41.7900 N   0  0  0  0  0  0  0  0  0  0  0  0
   35.1890   30.5040   39.4080 H   0  0  0  0  0  0  0  0  0  0  0  0
   34.6930   28.2410   40.3400 H   0  0  0  0  0  0  0  0  0  0  0  0
   38.0490   28.4520   43.3610 C   0  0  0  0  0  0  0  0  0  0  0  0
   38.4420   29.0610   44.1650 H   0  0  0  0  0  0  0  0  0  0  0  0
   38.2060   27.2050   43.3050 O   0  0  0  0  0  0  0  0  0  0  0  0
   37.1830   32.1510   40.2690 C   0  0  0  0  0  3  0  0  0  0  0  0
   38.2820   32.7680   40.6410 C   0  0  0  0  0  3  0  0  0  0  0  0
   38.6630   34.1070   40.1480 C   0  0  0  0  0  0  0  0  0  0  0  0
   38.2450   34.2550   39.1140 H   0  0  0  0  0  0  0  0  0  0  0  0
   38.1910   34.9090   40.7590 H   0  0  0  0  0  0  0  0  0  0  0  0
   39.7630   34.2310   40.0280 H   0  0  0  0  0  0  0  0  0  0  0  0
  1  6  1  0  0  0  0
  2  3  1  0  0  0  0
  2  1  2  0  0  0  0
  3  4  2  0  0  0  0
  4  5  1  0  0  0  0
  5  9  1  0  0  0  0
  6  5  2  0  0  0  0
  7  2  1  0  0  0  0
  8  3  1  0  0  0  0
  9 10  1  0  0  0  0
 11  9  2  0  0  0  0
 12 13  2  0  0  0  0
 12  1  1  0  0  0  0
 14 13  1  0  0  0  0
 14 16  1  0  0  0  0
 15 14  1  0  0  0  0
 17 14  1  0  0  0  0
M  END
>  <minimizedAffinity>
-3.62692046

$$$$

 OpenBabel03252506193D

 17 17  0  0  0  0  0  0  0  0999 V2000
   37.5500   28.1590   42.4100 C   0  0  0  0  0  0  0  0  0  0  0  0
   38.8200   28.4840   42.9220 C   0  0  0  0  0  0  0  0  0  0  0  0
   39.3370   29.7650   42.6560 C   0  0  0  0  0  0  0  0  0  0  0  0
   38.5770   30.6240   41.9160 N   0  0  0  0  0  0  0  0  0  0  0  0
   37.3460   30.2700   41.4360 C   0  0  0  0  0  0  0  0  0  0  0  0
   36.8590   29.0370   41.6970 N   0  0  0  0  0  0  0  0  0  0  0  0
   39.4450   27.8180   43.5130 H   0  0  0  0  0  0  0  0  0  0  0  0
   40.3010   30.1080   43.0050 H   0  0  0  0  0  0  0  0  0  0  0  0
   36.6140   31.2600   40.6560 C   0  0  0  0  0  0  0  0  0  0  0  0
   35.6140   31.0420   40.3040 H   0  0  0  0  0  0  0  0  0  0  0  0
   37.2020   32.3480   40.4260 O   0  0  0  0  0  0  0  0  0  0  0  0
   37.0380   26.8290   42.7020 C   0  0  0  0  0  3  0  0  0  0  0  0
   37.3090   25.8360   41.8840 C   0  0  0  0  0  3  0  0  0  0  0  0
   36.8340   24.4550   42.1060 C   0  0  0  0  0  0  0  0  0  0  0  0
   36.7240   24.2740   43.2110 H   0  0  0  0  0  0  0  0  0  0  0  0
   35.8110   24.3110   41.6940 H   0  0  0  0  0  0  0  0  0  0  0  0
   37.5620   23.6840   41.7650 H   0  0  0  0  0  0  0  0  0  0  0  0
  1 12  1  0  0  0  0
  1  2  1  0  0  0  0
  2  7  1  0  0  0  0
  3  2  2  0  0  0  0
  3  8  1  0  0  0  0
  4  3  1  0  0  0  0
  5  6  1  0  0  0  0
  5  4  2  0  0  0  0
  6  1  2  0  0  0  0
  9  5  1  0  0  0  0
 10  9  1  0  0  0  0
 11  9  2  0  0  0  0
 13 14  1  0  0  0  0
 13 12  2  0  0  0  0
 14 15  1  0  0  0  0
 16 14  1  0  0  0  0
 17 14  1  0  0  0  0
M  END
>  <minimizedAffinity>
-3.61567712

$$$$

 OpenBabel03252506193D

 17 17  0  0  0  0  0  0  0  0999 V2000
   37.1430   30.2570   40.9120 C   0  0  0  0  0  0  0  0  0  0  0  0
   36.6300   29.6980   39.7260 C   0  0  0  0  0  0  0  0  0  0  0  0
   36.5590   30.5120   38.5820 C   0  0  0  0  0  0  0  0  0  0  0  0
   36.9940   31.8020   38.6840 N   0  0  0  0  0  0  0  0  0  0  0  0
   37.4870   32.3090   39.8550 C   0  0  0  0  0  0  0  0  0  0  0  0
   37.5500   31.5180   40.9470 N   0  0  0  0  0  0  0  0  0  0  0  0
   36.2770   28.6740   39.6200 H   0  0  0  0  0  0  0  0  0  0  0  0
   36.1810   30.1760   37.6270 H   0  0  0  0  0  0  0  0  0  0  0  0
   37.9250   33.6990   39.8590 C   0  0  0  0  0  0  0  0  0  0  0  0
   37.6190   34.3670   39.0650 H   0  0  0  0  0  0  0  0  0  0  0  0
   38.6600   34.0590   40.8150 O   0  0  0  0  0  0  0  0  0  0  0  0
   37.2080   29.3910   42.0790 C   0  0  0  0  0  3  0  0  0  0  0  0
   36.6010   28.2260   42.0560 C   0  0  0  0  0  3  0  0  0  0  0  0
   36.6180   27.2840   43.1930 C   0  0  0  0  0  0  0  0  0  0  0  0
   37.5710   27.4220   43.7750 H   0  0  0  0  0  0  0  0  0  0  0  0
   35.8080   27.5160   43.9190 H   0  0  0  0  0  0  0  0  0  0  0  0
   36.6350   26.2170   42.8750 H   0  0  0  0  0  0  0  0  0  0  0  0
  1  6  1  0  0  0  0
  1 12  1  0  0  0  0
  2  1  2  0  0  0  0
  3  4  2  0  0  0  0
  3  2  1  0  0  0  0
  4  5  1  0  0  0  0
  5  9  1  0  0  0  0
  5  6  2  0  0  0  0
  7  2  1  0  0  0  0
  8  3  1  0  0  0  0
  9 11  2  0  0  0  0
 10  9  1  0  0  0  0
 13 12  2  0  0  0  0
 13 14  1  0  0  0  0
 14 15  1  0  0  0  0
 14 16  1  0  0  0  0
 17 14  1  0  0  0  0
M  END
>  <minimizedAffinity>
-3.47196603

$$$$

 OpenBabel03252506193D

 17 17  0  0  0  0  0  0  0  0999 V2000
   36.5120   28.9930   41.4730 C   0  0  0  0  0  0  0  0  0  0  0  0
   36.6400   28.0380   42.5000 C   0  0  0  0  0  0  0  0  0  0  0  0
   37.7670   28.1080   43.3380 C   0  0  0  0  0  0  0  0  0  0  0  0
   38.6760   29.1000   43.1100 N   0  0  0  0  0  0  0  0  0  0  0  0
   38.5170   30.0100   42.1010 C   0  0  0  0  0  0  0  0  0  0  0  0
   37.4300   29.9330   41.3020 N   0  0  0  0  0  0  0  0  0  0  0  0
   35.9300   27.2390   42.7020 H   0  0  0  0  0  0  0  0  0  0  0  0
   37.9540   27.4220   44.1520 H   0  0  0  0  0  0  0  0  0  0  0  0
   39.5450   31.0300   41.9400 C   0  0  0  0  0  0  0  0  0  0  0  0
   39.5670   31.6440   41.0500 H   0  0  0  0  0  0  0  0  0  0  0  0
   40.3790   31.1460   42.8760 O   0  0  0  0  0  0  0  0  0  0  0  0
   35.3350   28.8990   40.6240 C   0  0  0  0  0  3  0  0  0  0  0  0
   35.4710   28.9640   39.3180 C   0  0  0  0  0  3  0  0  0  0  0  0
   34.3320   28.8720   38.3820 C   0  0  0  0  0  0  0  0  0  0  0  0
   33.5220   28.2430   38.8440 H   0  0  0  0  0  0  0  0  0  0  0  0
   33.8600   29.8680   38.2260 H   0  0  0  0  0  0  0  0  0  0  0  0
   34.5880   28.3500   37.4330 H   0  0  0  0  0  0  0  0  0  0  0  0
  1  2  1  0  0  0  0
  2  7  1  0  0  0  0
  2  3  2  0  0  0  0
  3  8  1  0  0  0  0
  4  3  1  0  0  0  0
  5  4  2  0  0  0  0
  6  1  2  0  0  0  0
  6  5  1  0  0  0  0
  9  5  1  0  0  0  0
  9 11  2  0  0  0  0
 10  9  1  0  0  0  0
 12  1  1  0  0  0  0
 13 12  2  0  0  0  0
 14 15  1  0  0  0  0
 14 13  1  0  0  0  0
 16 14  1  0  0  0  0
 17 14  1  0  0  0  0
M  END
>  <minimizedAffinity>
-3.39949942

$$$$

 OpenBabel03252506193D

 17 17  0  0  0  0  0  0  0  0999 V2000
   35.8010   29.5750   40.4530 C   0  0  0  0  0  0  0  0  0  0  0  0
   36.4680   30.7340   40.0120 C   0  0  0  0  0  0  0  0  0  0  0  0
   37.6060   31.1580   40.7230 C   0  0  0  0  0  0  0  0  0  0  0  0
   38.0010   30.4200   41.8010 N   0  0  0  0  0  0  0  0  0  0  0  0
   37.3260   29.2990   42.1980 C   0  0  0  0  0  0  0  0  0  0  0  0
   36.2340   28.9020   41.5080 N   0  0  0  0  0  0  0  0  0  0  0  0
   36.1730   31.3390   39.1570 H   0  0  0  0  0  0  0  0  0  0  0  0
   38.1850   32.0330   40.4640 H   0  0  0  0  0  0  0  0  0  0  0  0
   37.8290   28.5820   43.3620 C   0  0  0  0  0  0  0  0  0  0  0  0
   38.6720   28.9720   43.9170 H   0  0  0  0  0  0  0  0  0  0  0  0
   37.2380   27.5150   43.6700 O   0  0  0  0  0  0  0  0  0  0  0  0
   34.6300   29.1580   39.6970 C   0  0  0  0  0  3  0  0  0  0  0  0
   34.7170   29.0140   38.3930 C   0  0  0  0  0  3  0  0  0  0  0  0
   33.5810   28.5910   37.5510 C   0  0  0  0  0  0  0  0  0  0  0  0
   32.8930   27.9370   38.1550 H   0  0  0  0  0  0  0  0  0  0  0  0
   32.9530   29.4610   37.2560 H   0  0  0  0  0  0  0  0  0  0  0  0
   33.8890   27.9560   36.6890 H   0  0  0  0  0  0  0  0  0  0  0  0
  1  6  1  0  0  0  0
  2  1  2  0  0  0  0
  2  3  1  0  0  0  0
  3  4  2  0  0  0  0
  4  5  1  0  0  0  0
  5  9  1  0  0  0  0
  6  5  2  0  0  0  0
  7  2  1  0  0  0  0
  8  3  1  0  0  0  0
  9 11  2  0  0  0  0
  9 10  1  0  0  0  0
 12  1  1  0  0  0  0
 13 12  2  0  0  0  0
 14 15  1  0  0  0  0
 14 13  1  0  0  0  0
 16 14  1  0  0  0  0
 17 14  1  0  0  0  0
M  END
>  <minimizedAffinity>
-3.39625263

$$$$

 OpenBabel03252506193D

 17 17  0  0  0  0  0  0  0  0999 V2000
   38.2550   25.0260   42.3850 C   0  0  0  0  0  0  0  0  0  0  0  0
   39.5030   24.8090   43.0000 C   0  0  0  0  0  0  0  0  0  0  0  0
   40.1170   25.8890   43.6590 C   0  0  0  0  0  0  0  0  0  0  0  0
   39.4690   27.0900   43.6660 N   0  0  0  0  0  0  0  0  0  0  0  0
   38.2560   27.2610   43.0570 C   0  0  0  0  0  0  0  0  0  0  0  0
   37.6760   26.2170   42.4270 N   0  0  0  0  0  0  0  0  0  0  0  0
   40.0390   23.8630   43.0090 H   0  0  0  0  0  0  0  0  0  0  0  0
   41.0730   25.8220   44.1600 H   0  0  0  0  0  0  0  0  0  0  0  0
   37.6470   28.5830   43.1210 C   0  0  0  0  0  0  0  0  0  0  0  0
   36.5720   28.6890   43.0700 H   0  0  0  0  0  0  0  0  0  0  0  0
   38.4290   29.5630   43.2370 O   0  0  0  0  0  0  0  0  0  0  0  0
   37.6410   23.8910   41.7140 C   0  0  0  0  0  3  0  0  0  0  0  0
   38.2950   23.2740   40.7550 C   0  0  0  0  0  3  0  0  0  0  0  0
   37.7500   22.1120   40.0240 C   0  0  0  0  0  0  0  0  0  0  0  0
   37.0500   21.5450   40.6980 H   0  0  0  0  0  0  0  0  0  0  0  0
   37.1150   22.4370   39.1700 H   0  0  0  0  0  0  0  0  0  0  0  0
   38.5300   21.3710   39.7390 H   0  0  0  0  0  0  0  0  0  0  0  0
  1  6  2  0  0  0  0
  1  2  1  0  0  0  0
  2  7  1  0  0  0  0
  2  3  2  0  0  0  0
  3  4  1  0  0  0  0
  3  8  1  0  0  0  0
  5  9  1  0  0  0  0
  5  4  2  0  0  0  0
  6  5  1  0  0  0  0
  9 11  2  0  0  0  0
 10  9  1  0  0  0  0
 12  1  1  0  0  0  0
 13 12  2  0  0  0  0
 14 15  1  0  0  0  0
 14 13  1  0  0  0  0
 16 14  1  0  0  0  0
 17 14  1  0  0  0  0
M  END
>  <minimizedAffinity>
-3.38937974

$$$$

 OpenBabel03252506193D

 17 17  0  0  0  0  0  0  0  0999 V2000
   37.8780   30.4730   41.4660 C   0  0  0  0  0  0  0  0  0  0  0  0
   39.2390   30.7220   41.7260 C   0  0  0  0  0  0  0  0  0  0  0  0
   39.9490   29.7910   42.5060 C   0  0  0  0  0  0  0  0  0  0  0  0
   39.2790   28.6950   42.9660 N   0  0  0  0  0  0  0  0  0  0  0  0
   37.9550   28.4880   42.6910 C   0  0  0  0  0  0  0  0  0  0  0  0
   37.2830   29.3890   41.9420 N   0  0  0  0  0  0  0  0  0  0  0  0
   39.7950   31.5870   41.3710 H   0  0  0  0  0  0  0  0  0  0  0  0
   40.9950   29.8940   42.7600 H   0  0  0  0  0  0  0  0  0  0  0  0
   37.3320   27.2860   43.2300 C   0  0  0  0  0  0  0  0  0  0  0  0
   37.8920   26.3630   43.2870 H   0  0  0  0  0  0  0  0  0  0  0  0
   36.1370   27.3900   43.6130 O   0  0  0  0  0  0  0  0  0  0  0  0
   37.1690   31.4500   40.6550 C   0  0  0  0  0  3  0  0  0  0  0  0
   37.7880   32.5430   40.2680 C   0  0  0  0  0  3  0  0  0  0  0  0
   37.1470   33.5850   39.4410 C   0  0  0  0  0  0  0  0  0  0  0  0
   36.3600   33.1110   38.7910 H   0  0  0  0  0  0  0  0  0  0  0  0
   36.5880   34.3120   40.0720 H   0  0  0  0  0  0  0  0  0  0  0  0
   37.8500   34.0690   38.7260 H   0  0  0  0  0  0  0  0  0  0  0  0
  1  2  2  0  0  0  0
  1  6  1  0  0  0  0
  2  3  1  0  0  0  0
  3  8  1  0  0  0  0
  3  4  2  0  0  0  0
  5  4  1  0  0  0  0
  5  9  1  0  0  0  0
  6  5  2  0  0  0  0
  7  2  1  0  0  0  0
  9 10  1  0  0  0  0
  9 11  2  0  0  0  0
 12  1  1  0  0  0  0
 13 12  2  0  0  0  0
 14 16  1  0  0  0  0
 14 13  1  0  0  0  0
 15 14  1  0  0  0  0
 17 14  1  0  0  0  0
M  END
>  <minimizedAffinity>
-3.3544364

$$$$
