
 OpenBabel03252508423D

 22 23  0  0  0  0  0  0  0  0999 V2000
   36.9610   27.0880   40.8650 C   0  0  0  0  0  0  0  0  0  0  0  0
   37.1690   26.4760   42.0660 C   0  0  0  0  0  0  0  0  0  0  0  0
   37.0780   25.1060   42.1880 C   0  0  0  0  0  0  0  0  0  0  0  0
   36.7720   24.3640   41.0650 C   0  0  0  0  0  0  0  0  0  0  0  0
   36.5500   24.9220   39.8220 C   0  0  0  0  0  0  0  0  0  0  0  0
   36.6600   26.3110   39.7840 C   0  0  0  0  0  0  0  0  0  0  0  0
   37.2380   24.6100   43.1240 H   0  0  0  0  0  0  0  0  0  0  0  0
   36.6950   23.2890   41.1380 H   0  0  0  0  0  0  0  0  0  0  0  0
   36.3090   24.3480   38.9370 H   0  0  0  0  0  0  0  0  0  0  0  0
   36.5040   26.8550   38.8470 H   0  0  0  0  0  0  0  0  0  0  0  0
   36.2150   30.7890   40.9590 C   0  0  0  0  0  0  0  0  0  0  0  0
   35.9920   29.3970   41.0350 C   0  0  0  0  0  0  0  0  0  0  0  0
   37.0730   28.5390   40.8140 C   0  0  0  0  0  0  0  0  0  0  0  0
   38.2820   29.0860   40.5370 N   0  0  0  0  0  0  0  0  0  0  0  0
   38.4860   30.4240   40.4660 C   0  0  0  0  0  0  0  0  0  0  0  0
   37.4400   31.2760   40.6810 N   0  0  0  0  0  0  0  0  0  0  0  0
   35.3350   31.3740   41.1420 H   0  0  0  0  0  0  0  0  0  0  0  0
   35.0250   28.9630   41.2560 H   0  0  0  0  0  0  0  0  0  0  0  0
   39.4670   30.8240   40.2430 H   0  0  0  0  0  0  0  0  0  0  0  0
   37.4910   27.2610   43.2490 C   0  0  0  0  0  0  0  0  0  0  0  0
   36.7320   27.8040   43.7960 H   0  0  0  0  0  0  0  0  0  0  0  0
   38.6750   27.3360   43.6790 O   0  0  0  0  0  0  0  0  0  0  0  0
  1  2  1  0  0  0  0
  2  3  2  0  0  0  0
  2 20  1  0  0  0  0
  3  7  1  0  0  0  0
  4  8  1  0  0  0  0
  4  3  1  0  0  0  0
  5  4  2  0  0  0  0
  6  5  1  0  0  0  0
  6  1  2  0  0  0  0
  9  5  1  0  0  0  0
 10  6  1  0  0  0  0
 11 12  1  0  0  0  0
 11 17  1  0  0  0  0
 12 18  1  0  0  0  0
 13  1  1  0  0  0  0
 13 12  2  0  0  0  0
 14 13  1  0  0  0  0
 15 14  2  0  0  0  0
 15 16  1  0  0  0  0
 16 11  2  0  0  0  0
 19 15  1  0  0  0  0
 20 22  2  0  0  0  0
 20 21  1  0  0  0  0
M  END
>  <minimizedAffinity>
-4.28238869

$$$$

 OpenBabel03252508423D

 22 23  0  0  0  0  0  0  0  0999 V2000
   36.8730   30.8450   38.9510 C   0  0  0  0  0  0  0  0  0  0  0  0
   36.1440   30.1830   39.8950 C   0  0  0  0  0  0  0  0  0  0  0  0
   35.2710   29.1780   39.5380 C   0  0  0  0  0  0  0  0  0  0  0  0
   35.1500   28.8530   38.2020 C   0  0  0  0  0  0  0  0  0  0  0  0
   35.8590   29.4850   37.2000 C   0  0  0  0  0  0  0  0  0  0  0  0
   36.7180   30.4890   37.6420 C   0  0  0  0  0  0  0  0  0  0  0  0
   34.6920   28.6480   40.2670 H   0  0  0  0  0  0  0  0  0  0  0  0
   34.4720   28.0690   37.9010 H   0  0  0  0  0  0  0  0  0  0  0  0
   35.7700   29.2370   36.1500 H   0  0  0  0  0  0  0  0  0  0  0  0
   37.3280   31.0530   36.9300 H   0  0  0  0  0  0  0  0  0  0  0  0
   38.3310   34.1600   40.0240 C   0  0  0  0  0  0  0  0  0  0  0  0
   37.3710   33.2230   39.5830 C   0  0  0  0  0  0  0  0  0  0  0  0
   37.7740   31.8960   39.4030 C   0  0  0  0  0  0  0  0  0  0  0  0
   39.0660   31.5750   39.6610 N   0  0  0  0  0  0  0  0  0  0  0  0
   39.9790   32.4830   40.0840 C   0  0  0  0  0  0  0  0  0  0  0  0
   39.6020   33.7830   40.2660 N   0  0  0  0  0  0  0  0  0  0  0  0
   37.9390   35.1520   40.1360 H   0  0  0  0  0  0  0  0  0  0  0  0
   36.3400   33.4820   39.3780 H   0  0  0  0  0  0  0  0  0  0  0  0
   41.0020   32.1890   40.2800 H   0  0  0  0  0  0  0  0  0  0  0  0
   36.2730   30.5270   41.3030 C   0  0  0  0  0  0  0  0  0  0  0  0
   35.7760   31.3890   41.7270 H   0  0  0  0  0  0  0  0  0  0  0  0
   36.9750   29.8270   42.0840 O   0  0  0  0  0  0  0  0  0  0  0  0
  1 13  1  0  0  0  0
  1  2  1  0  0  0  0
  2 20  1  0  0  0  0
  3  2  2  0  0  0  0
  3  7  1  0  0  0  0
  4  3  1  0  0  0  0
  5  6  1  0  0  0  0
  5  4  2  0  0  0  0
  6  1  2  0  0  0  0
  8  4  1  0  0  0  0
  9  5  1  0  0  0  0
 10  6  1  0  0  0  0
 11 17  1  0  0  0  0
 11 16  1  0  0  0  0
 12 11  2  0  0  0  0
 13 12  1  0  0  0  0
 13 14  2  0  0  0  0
 14 15  1  0  0  0  0
 15 16  2  0  0  0  0
 15 19  1  0  0  0  0
 18 12  1  0  0  0  0
 20 21  1  0  0  0  0
 20 22  2  0  0  0  0
M  END
>  <minimizedAffinity>
-4.2427597

$$$$

 OpenBabel03252508423D

 22 23  0  0  0  0  0  0  0  0999 V2000
   37.4950   29.3380   41.4610 C   0  0  0  0  0  0  0  0  0  0  0  0
   38.5840   29.3070   42.2830 C   0  0  0  0  0  0  0  0  0  0  0  0
   38.6510   28.4200   43.3350 C   0  0  0  0  0  0  0  0  0  0  0  0
   37.5920   27.5600   43.5410 C   0  0  0  0  0  0  0  0  0  0  0  0
   36.4620   27.5410   42.7470 C   0  0  0  0  0  0  0  0  0  0  0  0
   36.4720   28.4680   41.7060 C   0  0  0  0  0  0  0  0  0  0  0  0
   39.4990   28.3830   43.9890 H   0  0  0  0  0  0  0  0  0  0  0  0
   37.6230   26.8570   44.3600 H   0  0  0  0  0  0  0  0  0  0  0  0
   35.6270   26.8710   42.9020 H   0  0  0  0  0  0  0  0  0  0  0  0
   35.6250   28.5370   41.0160 H   0  0  0  0  0  0  0  0  0  0  0  0
   37.0900   32.4690   39.3880 C   0  0  0  0  0  0  0  0  0  0  0  0
   37.0470   31.6190   40.5150 C   0  0  0  0  0  0  0  0  0  0  0  0
   37.4940   30.3020   40.3710 C   0  0  0  0  0  0  0  0  0  0  0  0
   37.9470   29.9070   39.1560 N   0  0  0  0  0  0  0  0  0  0  0  0
   37.9840   30.7310   38.0800 C   0  0  0  0  0  0  0  0  0  0  0  0
   37.5520   32.0200   38.2040 N   0  0  0  0  0  0  0  0  0  0  0  0
   36.7300   33.4600   39.5860 H   0  0  0  0  0  0  0  0  0  0  0  0
   36.6850   31.9380   41.4840 H   0  0  0  0  0  0  0  0  0  0  0  0
   38.3530   30.3790   37.1250 H   0  0  0  0  0  0  0  0  0  0  0  0
   39.7000   30.2150   42.0630 C   0  0  0  0  0  0  0  0  0  0  0  0
   40.3730   30.0980   41.2240 H   0  0  0  0  0  0  0  0  0  0  0  0
   39.9230   31.1770   42.8490 O   0  0  0  0  0  0  0  0  0  0  0  0
  1  6  2  0  0  0  0
  1  2  1  0  0  0  0
  2  3  2  0  0  0  0
  3  4  1  0  0  0  0
  3  7  1  0  0  0  0
  4  8  1  0  0  0  0
  5  9  1  0  0  0  0
  5  4  2  0  0  0  0
  6  5  1  0  0  0  0
 10  6  1  0  0  0  0
 11 17  1  0  0  0  0
 11 12  1  0  0  0  0
 12 18  1  0  0  0  0
 13 12  2  0  0  0  0
 13  1  1  0  0  0  0
 14 13  1  0  0  0  0
 15 16  1  0  0  0  0
 15 14  2  0  0  0  0
 16 11  2  0  0  0  0
 19 15  1  0  0  0  0
 20  2  1  0  0  0  0
 20 22  2  0  0  0  0
 21 20  1  0  0  0  0
M  END
>  <minimizedAffinity>
-4.22958946

$$$$

 OpenBabel03252508423D

 22 23  0  0  0  0  0  0  0  0999 V2000
   37.5640   29.5640   41.6200 C   0  0  0  0  0  0  0  0  0  0  0  0
   36.5230   28.7540   41.2740 C   0  0  0  0  0  0  0  0  0  0  0  0
   36.1320   27.7150   42.0920 C   0  0  0  0  0  0  0  0  0  0  0  0
   36.8190   27.5110   43.2720 C   0  0  0  0  0  0  0  0  0  0  0  0
   37.8800   28.2950   43.6790 C   0  0  0  0  0  0  0  0  0  0  0  0
   38.2120   29.3220   42.7970 C   0  0  0  0  0  0  0  0  0  0  0  0
   35.3170   27.0700   41.8350 H   0  0  0  0  0  0  0  0  0  0  0  0
   36.5300   26.7030   43.9270 H   0  0  0  0  0  0  0  0  0  0  0  0
   38.4240   28.1420   44.6020 H   0  0  0  0  0  0  0  0  0  0  0  0
   39.0390   30.0030   43.0230 H   0  0  0  0  0  0  0  0  0  0  0  0
   39.2450   31.6660   38.9700 C   0  0  0  0  0  0  0  0  0  0  0  0
   38.9900   30.5600   39.8100 C   0  0  0  0  0  0  0  0  0  0  0  0
   37.9200   30.6410   40.7070 C   0  0  0  0  0  0  0  0  0  0  0  0
   37.1800   31.7760   40.7240 N   0  0  0  0  0  0  0  0  0  0  0  0
   37.4340   32.8320   39.9130 C   0  0  0  0  0  0  0  0  0  0  0  0
   38.4750   32.7700   39.0320 N   0  0  0  0  0  0  0  0  0  0  0  0
   40.0820   31.5210   38.3150 H   0  0  0  0  0  0  0  0  0  0  0  0
   39.5830   29.6540   39.7940 H   0  0  0  0  0  0  0  0  0  0  0  0
   36.8200   33.7240   39.9560 H   0  0  0  0  0  0  0  0  0  0  0  0
   35.8000   28.9710   40.0290 C   0  0  0  0  0  0  0  0  0  0  0  0
   36.3040   28.9730   39.0720 H   0  0  0  0  0  0  0  0  0  0  0  0
   34.5540   29.1640   40.0230 O   0  0  0  0  0  0  0  0  0  0  0  0
  1  6  1  0  0  0  0
  2  1  2  0  0  0  0
  2  3  1  0  0  0  0
  3  4  2  0  0  0  0
  4  5  1  0  0  0  0
  4  8  1  0  0  0  0
  5  9  1  0  0  0  0
  6 10  1  0  0  0  0
  6  5  2  0  0  0  0
  7  3  1  0  0  0  0
 11 16  2  0  0  0  0
 11 12  1  0  0  0  0
 12 13  2  0  0  0  0
 13 14  1  0  0  0  0
 13  1  1  0  0  0  0
 15 19  1  0  0  0  0
 15 14  2  0  0  0  0
 16 15  1  0  0  0  0
 17 11  1  0  0  0  0
 18 12  1  0  0  0  0
 20  2  1  0  0  0  0
 21 20  1  0  0  0  0
 22 20  2  0  0  0  0
M  END
>  <minimizedAffinity>
-4.15817165

$$$$

 OpenBabel03252508423D

 22 23  0  0  0  0  0  0  0  0999 V2000
   37.5800   29.3160   41.5990 C   0  0  0  0  0  0  0  0  0  0  0  0
   37.1680   28.2230   40.8950 C   0  0  0  0  0  0  0  0  0  0  0  0
   36.8650   27.0410   41.5360 C   0  0  0  0  0  0  0  0  0  0  0  0
   36.9870   26.9860   42.9100 C   0  0  0  0  0  0  0  0  0  0  0  0
   37.3990   28.0560   43.6800 C   0  0  0  0  0  0  0  0  0  0  0  0
   37.6860   29.2120   42.9570 C   0  0  0  0  0  0  0  0  0  0  0  0
   36.5390   26.1740   40.9980 H   0  0  0  0  0  0  0  0  0  0  0  0
   36.7550   26.0700   43.4330 H   0  0  0  0  0  0  0  0  0  0  0  0
   37.4980   28.0220   44.7570 H   0  0  0  0  0  0  0  0  0  0  0  0
   38.0210   30.1190   43.4690 H   0  0  0  0  0  0  0  0  0  0  0  0
   37.3320   32.6460   39.8360 C   0  0  0  0  0  0  0  0  0  0  0  0
   36.9270   31.5090   40.5670 C   0  0  0  0  0  0  0  0  0  0  0  0
   37.8830   30.5290   40.8540 C   0  0  0  0  0  0  0  0  0  0  0  0
   39.1510   30.7210   40.4170 N   0  0  0  0  0  0  0  0  0  0  0  0
   39.5300   31.8180   39.7150 C   0  0  0  0  0  0  0  0  0  0  0  0
   38.6090   32.7840   39.4260 N   0  0  0  0  0  0  0  0  0  0  0  0
   36.5390   33.3460   39.6590 H   0  0  0  0  0  0  0  0  0  0  0  0
   35.9130   31.3580   40.9150 H   0  0  0  0  0  0  0  0  0  0  0  0
   40.5530   31.9360   39.3820 H   0  0  0  0  0  0  0  0  0  0  0  0
   37.0390   28.2830   39.4470 C   0  0  0  0  0  0  0  0  0  0  0  0
   37.9040   28.3530   38.8010 H   0  0  0  0  0  0  0  0  0  0  0  0
   35.9080   28.2550   38.8900 O   0  0  0  0  0  0  0  0  0  0  0  0
  1  6  1  0  0  0  0
  2  3  1  0  0  0  0
  2  1  2  0  0  0  0
  3  4  2  0  0  0  0
  4  8  1  0  0  0  0
  4  5  1  0  0  0  0
  5  9  1  0  0  0  0
  6 10  1  0  0  0  0
  6  5  2  0  0  0  0
  7  3  1  0  0  0  0
 11 12  1  0  0  0  0
 12 13  2  0  0  0  0
 12 18  1  0  0  0  0
 13  1  1  0  0  0  0
 14 13  1  0  0  0  0
 15 14  2  0  0  0  0
 16 15  1  0  0  0  0
 16 11  2  0  0  0  0
 17 11  1  0  0  0  0
 19 15  1  0  0  0  0
 20  2  1  0  0  0  0
 21 20  1  0  0  0  0
 22 20  2  0  0  0  0
M  END
>  <minimizedAffinity>
-4.12925625

$$$$

 OpenBabel03252508423D

 22 23  0  0  0  0  0  0  0  0999 V2000
   36.5320   28.4770   41.3310 C   0  0  0  0  0  0  0  0  0  0  0  0
   37.4160   29.5070   41.4640 C   0  0  0  0  0  0  0  0  0  0  0  0
   38.1540   29.6630   42.6170 C   0  0  0  0  0  0  0  0  0  0  0  0
   37.9800   28.7520   43.6390 C   0  0  0  0  0  0  0  0  0  0  0  0
   37.1020   27.6880   43.5670 C   0  0  0  0  0  0  0  0  0  0  0  0
   36.3940   27.6010   42.3700 C   0  0  0  0  0  0  0  0  0  0  0  0
   38.8520   30.4660   42.7370 H   0  0  0  0  0  0  0  0  0  0  0  0
   38.5470   28.8550   44.5520 H   0  0  0  0  0  0  0  0  0  0  0  0
   36.9590   26.9690   44.3640 H   0  0  0  0  0  0  0  0  0  0  0  0
   35.6720   26.7950   42.2080 H   0  0  0  0  0  0  0  0  0  0  0  0
   33.9960   28.9490   38.5730 C   0  0  0  0  0  0  0  0  0  0  0  0
   34.6390   29.1280   39.8170 C   0  0  0  0  0  0  0  0  0  0  0  0
   35.7880   28.3760   40.0840 C   0  0  0  0  0  0  0  0  0  0  0  0
   36.2270   27.5140   39.1350 N   0  0  0  0  0  0  0  0  0  0  0  0
   35.6010   27.3490   37.9440 C   0  0  0  0  0  0  0  0  0  0  0  0
   34.4790   28.0760   37.6670 N   0  0  0  0  0  0  0  0  0  0  0  0
   33.1250   29.5620   38.4500 H   0  0  0  0  0  0  0  0  0  0  0  0
   34.2860   29.8170   40.5730 H   0  0  0  0  0  0  0  0  0  0  0  0
   35.9820   26.6500   37.2100 H   0  0  0  0  0  0  0  0  0  0  0  0
   37.5980   30.4670   40.3850 C   0  0  0  0  0  0  0  0  0  0  0  0
   38.1150   30.2050   39.4710 H   0  0  0  0  0  0  0  0  0  0  0  0
   37.1560   31.6450   40.4780 O   0  0  0  0  0  0  0  0  0  0  0  0
  1  2  2  0  0  0  0
  1  6  1  0  0  0  0
  2  3  1  0  0  0  0
  3  7  1  0  0  0  0
  3  4  2  0  0  0  0
  4  8  1  0  0  0  0
  5  4  1  0  0  0  0
  5  9  1  0  0  0  0
  6  5  2  0  0  0  0
 10  6  1  0  0  0  0
 11 12  1  0  0  0  0
 12 13  2  0  0  0  0
 12 18  1  0  0  0  0
 13  1  1  0  0  0  0
 14 13  1  0  0  0  0
 15 14  2  0  0  0  0
 16 15  1  0  0  0  0
 16 11  2  0  0  0  0
 17 11  1  0  0  0  0
 19 15  1  0  0  0  0
 20 22  2  0  0  0  0
 20  2  1  0  0  0  0
 21 20  1  0  0  0  0
M  END
>  <minimizedAffinity>
-4.11505365

$$$$

 OpenBabel03252508423D

 22 23  0  0  0  0  0  0  0  0999 V2000
   36.7140   30.7790   39.6120 C   0  0  0  0  0  0  0  0  0  0  0  0
   36.6380   30.3500   38.3200 C   0  0  0  0  0  0  0  0  0  0  0  0
   35.7470   29.3650   37.9520 C   0  0  0  0  0  0  0  0  0  0  0  0
   34.9290   28.8220   38.9220 C   0  0  0  0  0  0  0  0  0  0  0  0
   34.9570   29.2120   40.2460 C   0  0  0  0  0  0  0  0  0  0  0  0
   35.8850   30.2100   40.5360 C   0  0  0  0  0  0  0  0  0  0  0  0
   35.6740   29.0180   36.9420 H   0  0  0  0  0  0  0  0  0  0  0  0
   34.2230   28.0490   38.6560 H   0  0  0  0  0  0  0  0  0  0  0  0
   34.3190   28.7900   41.0130 H   0  0  0  0  0  0  0  0  0  0  0  0
   35.9890   30.5930   41.5560 H   0  0  0  0  0  0  0  0  0  0  0  0
   39.8360   32.6420   40.6370 C   0  0  0  0  0  0  0  0  0  0  0  0
   38.9830   31.5520   40.3590 C   0  0  0  0  0  0  0  0  0  0  0  0
   37.6800   31.8220   39.9270 C   0  0  0  0  0  0  0  0  0  0  0  0
   37.3020   33.1170   39.7940 N   0  0  0  0  0  0  0  0  0  0  0  0
   38.1300   34.1560   40.0640 C   0  0  0  0  0  0  0  0  0  0  0  0
   39.4040   33.9100   40.4870 N   0  0  0  0  0  0  0  0  0  0  0  0
   40.8140   32.3470   40.9620 H   0  0  0  0  0  0  0  0  0  0  0  0
   39.2870   30.5190   40.4660 H   0  0  0  0  0  0  0  0  0  0  0  0
   37.7910   35.1780   39.9460 H   0  0  0  0  0  0  0  0  0  0  0  0
   37.5020   30.9250   37.3000 C   0  0  0  0  0  0  0  0  0  0  0  0
   38.4680   31.3470   37.5420 H   0  0  0  0  0  0  0  0  0  0  0  0
   37.1520   30.9520   36.0880 O   0  0  0  0  0  0  0  0  0  0  0  0
  1 13  1  0  0  0  0
  1  6  1  0  0  0  0
  2  1  2  0  0  0  0
  3  2  1  0  0  0  0
  3  4  2  0  0  0  0
  4  5  1  0  0  0  0
  5  6  2  0  0  0  0
  5  9  1  0  0  0  0
  6 10  1  0  0  0  0
  7  3  1  0  0  0  0
  8  4  1  0  0  0  0
 11 17  1  0  0  0  0
 12 18  1  0  0  0  0
 12 11  2  0  0  0  0
 13 12  1  0  0  0  0
 14 13  2  0  0  0  0
 14 15  1  0  0  0  0
 15 16  2  0  0  0  0
 16 11  1  0  0  0  0
 19 15  1  0  0  0  0
 20 21  1  0  0  0  0
 20  2  1  0  0  0  0
 22 20  2  0  0  0  0
M  END
>  <minimizedAffinity>
-4.08989

$$$$

 OpenBabel03252508423D

 22 23  0  0  0  0  0  0  0  0999 V2000
   36.6440   27.1590   40.3310 C   0  0  0  0  0  0  0  0  0  0  0  0
   36.3150   28.2090   41.1360 C   0  0  0  0  0  0  0  0  0  0  0  0
   35.4960   29.2210   40.6810 C   0  0  0  0  0  0  0  0  0  0  0  0
   35.0150   29.1480   39.3890 C   0  0  0  0  0  0  0  0  0  0  0  0
   35.3110   28.1130   38.5250 C   0  0  0  0  0  0  0  0  0  0  0  0
   36.1440   27.1320   39.0600 C   0  0  0  0  0  0  0  0  0  0  0  0
   35.2280   30.0520   41.3010 H   0  0  0  0  0  0  0  0  0  0  0  0
   34.3730   29.9300   39.0130 H   0  0  0  0  0  0  0  0  0  0  0  0
   34.9390   28.0480   37.5110 H   0  0  0  0  0  0  0  0  0  0  0  0
   36.4410   26.2670   38.4600 H   0  0  0  0  0  0  0  0  0  0  0  0
   37.9670   24.0610   42.0380 C   0  0  0  0  0  0  0  0  0  0  0  0
   37.0320   24.9960   41.5450 C   0  0  0  0  0  0  0  0  0  0  0  0
   37.5140   26.1280   40.8800 C   0  0  0  0  0  0  0  0  0  0  0  0
   38.8550   26.2700   40.7410 N   0  0  0  0  0  0  0  0  0  0  0  0
   39.7440   25.3660   41.2180 C   0  0  0  0  0  0  0  0  0  0  0  0
   39.2900   24.2550   41.8700 N   0  0  0  0  0  0  0  0  0  0  0  0
   37.5140   23.2240   42.5340 H   0  0  0  0  0  0  0  0  0  0  0  0
   35.9620   24.8810   41.6580 H   0  0  0  0  0  0  0  0  0  0  0  0
   40.8090   25.5140   41.0880 H   0  0  0  0  0  0  0  0  0  0  0  0
   36.8240   28.2830   42.4980 C   0  0  0  0  0  0  0  0  0  0  0  0
   36.6270   27.5040   43.2220 H   0  0  0  0  0  0  0  0  0  0  0  0
   37.5160   29.2650   42.8830 O   0  0  0  0  0  0  0  0  0  0  0  0
  1 13  1  0  0  0  0
  1  2  1  0  0  0  0
  2 20  1  0  0  0  0
  3  2  2  0  0  0  0
  3  7  1  0  0  0  0
  4  3  1  0  0  0  0
  5  6  1  0  0  0  0
  5  4  2  0  0  0  0
  6  1  2  0  0  0  0
  8  4  1  0  0  0  0
  9  5  1  0  0  0  0
 10  6  1  0  0  0  0
 11 17  1  0  0  0  0
 12 18  1  0  0  0  0
 12 11  2  0  0  0  0
 13 12  1  0  0  0  0
 14 13  2  0  0  0  0
 14 15  1  0  0  0  0
 15 16  2  0  0  0  0
 16 11  1  0  0  0  0
 19 15  1  0  0  0  0
 20 22  2  0  0  0  0
 20 21  1  0  0  0  0
M  END
>  <minimizedAffinity>
-4.0225606

$$$$

 OpenBabel03252508423D

 22 23  0  0  0  0  0  0  0  0999 V2000
   36.9390   26.9190   41.0290 C   0  0  0  0  0  0  0  0  0  0  0  0
   36.6530   26.2560   39.8720 C   0  0  0  0  0  0  0  0  0  0  0  0
   36.5280   24.8840   39.8540 C   0  0  0  0  0  0  0  0  0  0  0  0
   36.6980   24.1910   41.0360 C   0  0  0  0  0  0  0  0  0  0  0  0
   36.9890   24.8030   42.2400 C   0  0  0  0  0  0  0  0  0  0  0  0
   37.0990   26.1900   42.1730 C   0  0  0  0  0  0  0  0  0  0  0  0
   36.3040   24.3490   38.9540 H   0  0  0  0  0  0  0  0  0  0  0  0
   36.6050   23.1160   41.0450 H   0  0  0  0  0  0  0  0  0  0  0  0
   37.1250   24.2670   43.1710 H   0  0  0  0  0  0  0  0  0  0  0  0
   37.3270   26.7730   43.0700 H   0  0  0  0  0  0  0  0  0  0  0  0
   36.1850   30.6190   40.9590 C   0  0  0  0  0  0  0  0  0  0  0  0
   35.9540   29.2280   41.0250 C   0  0  0  0  0  0  0  0  0  0  0  0
   37.0560   28.3690   40.9710 C   0  0  0  0  0  0  0  0  0  0  0  0
   38.2920   28.9150   40.8600 N   0  0  0  0  0  0  0  0  0  0  0  0
   38.5030   30.2520   40.7970 C   0  0  0  0  0  0  0  0  0  0  0  0
   37.4370   31.1050   40.8480 N   0  0  0  0  0  0  0  0  0  0  0  0
   35.2880   31.2040   41.0060 H   0  0  0  0  0  0  0  0  0  0  0  0
   34.9660   28.7940   41.1130 H   0  0  0  0  0  0  0  0  0  0  0  0
   39.5050   30.6510   40.7080 H   0  0  0  0  0  0  0  0  0  0  0  0
   36.4740   26.9890   38.6270 C   0  0  0  0  0  0  0  0  0  0  0  0
   36.8190   28.0070   38.5110 H   0  0  0  0  0  0  0  0  0  0  0  0
   35.9070   26.4580   37.6330 O   0  0  0  0  0  0  0  0  0  0  0  0
  1  6  1  0  0  0  0
  2  1  2  0  0  0  0
  3  2  1  0  0  0  0
  3  4  2  0  0  0  0
  4  8  1  0  0  0  0
  4  5  1  0  0  0  0
  5  9  1  0  0  0  0
  6  5  2  0  0  0  0
  6 10  1  0  0  0  0
  7  3  1  0  0  0  0
 11 17  1  0  0  0  0
 11 12  1  0  0  0  0
 12 18  1  0  0  0  0
 13 12  2  0  0  0  0
 13  1  1  0  0  0  0
 14 13  1  0  0  0  0
 15 16  1  0  0  0  0
 15 14  2  0  0  0  0
 16 11  2  0  0  0  0
 19 15  1  0  0  0  0
 20  2  1  0  0  0  0
 21 20  1  0  0  0  0
 22 20  2  0  0  0  0
M  END
>  <minimizedAffinity>
-4.01611233

$$$$
