
 OpenBabel03242522183D

 38 40  0  0  0  0  0  0  0  0999 V2000
   43.2940   35.1930   41.9050 C   0  0  0  0  0  0  0  0  0  0  0  0
   42.9320   36.0990   42.4470 H   0  0  0  0  0  0  0  0  0  0  0  0
   42.5570   34.3820   42.1570 H   0  0  0  0  0  0  0  0  0  0  0  0
   46.6040   33.7220   42.5900 C   0  0  0  0  0  0  0  0  0  0  0  0
   46.7090   33.9960   43.8950 C   0  0  0  0  0  0  0  0  0  0  0  0
   45.1130   34.8690   44.2200 S   0  0  0  0  0  0  0  0  0  0  0  0
   44.5940   34.6860   42.4510 C   0  0  0  0  0  0  0  0  0  0  0  0
   45.5030   34.1390   42.0650 N   0  0  0  0  0  0  0  0  0  0  0  0
   47.4840   33.7980   44.6460 H   0  0  0  0  0  0  0  0  0  0  0  0
   48.9340   32.5680   39.8530 C   0  0  0  0  0  0  0  0  0  0  0  0
   47.9270   33.2930   40.5100 C   0  0  0  0  0  0  0  0  0  0  0  0
   47.6530   33.0080   41.8180 C   0  0  0  0  0  0  0  0  0  0  0  0
   48.4100   31.9980   42.4190 N   0  0  0  0  0  0  0  0  0  0  0  0
   49.3630   31.3400   41.7340 C   0  0  0  0  0  0  0  0  0  0  0  0
   49.6250   31.6210   40.4620 N   0  0  0  0  0  0  0  0  0  0  0  0
   49.1480   32.7950   38.8160 H   0  0  0  0  0  0  0  0  0  0  0  0
   49.9270   30.5620   42.2450 H   0  0  0  0  0  0  0  0  0  0  0  0
   47.2520   34.2840   39.7590 N   0  0  0  0  0  0  0  0  0  0  0  0
   47.1330   34.2180   38.7240 H   0  0  0  0  0  0  0  0  0  0  0  0
   46.8260   35.1380   40.1530 H   0  0  0  0  0  0  0  0  0  0  0  0
   43.3550   35.3730   40.4200 C   0  0  0  0  0  0  0  0  0  0  0  0
   43.6470   36.4270   40.2240 H   0  0  0  0  0  0  0  0  0  0  0  0
   44.2130   34.7670   40.0260 H   0  0  0  0  0  0  0  0  0  0  0  0
   42.1490   35.0890   39.6680 C   0  0  0  0  0  0  0  0  0  0  0  0
   41.8070   35.4500   38.4050 C   0  0  0  0  0  0  0  0  0  0  0  0
   40.6250   35.1300   37.7680 C   0  0  0  0  0  0  0  0  0  0  0  0
   39.7340   34.3760   38.5080 C   0  0  0  0  0  0  0  0  0  0  0  0
   40.0980   34.0230   39.7810 C   0  0  0  0  0  0  0  0  0  0  0  0
   41.2460   34.3510   40.3600 N   0  0  0  0  0  0  0  0  0  0  0  0
   42.6040   36.0460   37.9280 H   0  0  0  0  0  0  0  0  0  0  0  0
   40.5330   35.5010   36.7760 H   0  0  0  0  0  0  0  0  0  0  0  0
   39.0570   33.2060   40.4830 C   0  0  0  0  0  0  0  0  0  0  0  0
   37.7960   33.7430   40.2920 F   0  0  0  0  0  0  0  0  0  0  0  0
   39.3480   33.0050   41.8110 F   0  0  0  0  0  0  0  0  0  0  0  0
   39.0130   31.9250   39.9110 F   0  0  0  0  0  0  0  0  0  0  0  0
   38.5550   34.0990   37.7210 C   0  0  0  0  0  0  0  0  0  0  0  0
   37.6540   34.5500   37.3870 H   0  0  0  0  0  0  0  0  0  0  0  0
   38.2220   33.0560   37.1100 O   0  0  0  0  0  0  0  0  0  0  0  0
  1  3  1  0  0  0  0
  1  2  1  0  0  0  0
  1  7  1  0  0  0  0
  4  5  2  0  0  0  0
  5  6  1  0  0  0  0
  5  9  1  0  0  0  0
  7  6  1  0  0  0  0
  8  7  2  0  0  0  0
  8  4  1  0  0  0  0
 10 15  2  0  0  0  0
 10 11  1  0  0  0  0
 11 12  2  0  0  0  0
 12 13  1  0  0  0  0
 12  4  1  0  0  0  0
 14 17  1  0  0  0  0
 14 13  2  0  0  0  0
 15 14  1  0  0  0  0
 16 10  1  0  0  0  0
 18 20  1  0  0  0  0
 18 11  1  0  0  0  0
 19 18  1  0  0  0  0
 21  1  1  0  0  0  0
 22 21  1  0  0  0  0
 23 21  1  0  0  0  0
 24 29  1  0  0  0  0
 24 21  1  0  0  0  0
 25 24  2  0  0  0  0
 26 25  1  0  0  0  0
 26 27  2  0  0  0  0
 27 28  1  0  0  0  0
 28 29  2  0  0  0  0
 28 32  1  0  0  0  0
 30 25  1  0  0  0  0
 31 26  1  0  0  0  0
 32 34  1  0  0  0  0
 33 32  1  0  0  0  0
 35 32  1  0  0  0  0
 36 27  1  0  0  0  0
 37 36  1  0  0  0  0
 38 36  2  0  0  0  0
M  END
>  <minimizedAffinity>
-5.87340784

>  <minimizedRMSD>
1.04948878

$$$$
