
 OpenBabel03252509103D

 25 27  0  0  0  0  0  0  0  0999 V2000
   47.4870   31.6570   44.7810 C   0  0  0  0  0  0  0  0  0  0  0  0
   46.8590   32.8660   44.5010 C   0  0  0  0  0  0  0  0  0  0  0  0
   45.9740   33.4900   45.3800 C   0  0  0  0  0  0  0  0  0  0  0  0
   45.6920   32.8820   46.6080 C   0  0  0  0  0  0  0  0  0  0  0  0
   44.9260   33.1620   47.6800 N   0  0  0  0  0  0  0  0  0  0  0  0
   45.0590   32.1760   48.6000 C   0  0  0  0  0  0  0  0  0  0  0  0
   45.9210   31.2820   48.0770 N   0  0  0  0  0  0  0  0  0  0  0  0
   46.3230   31.6900   46.8610 C   0  0  0  0  0  0  0  0  0  0  0  0
   47.2070   31.0490   46.0060 C   0  0  0  0  0  0  0  0  0  0  0  0
   48.1670   31.2080   44.0700 H   0  0  0  0  0  0  0  0  0  0  0  0
   44.3280   34.0340   47.7450 H   0  0  0  0  0  0  0  0  0  0  0  0
   44.5600   32.1390   49.5560 H   0  0  0  0  0  0  0  0  0  0  0  0
   47.6760   30.1080   46.2590 H   0  0  0  0  0  0  0  0  0  0  0  0
   46.5530   33.9330   40.9930 C   0  0  0  0  0  0  0  0  0  0  0  0
   47.6520   34.7920   40.8440 C   0  0  0  0  0  0  0  0  0  0  0  0
   48.5000   35.0010   41.9620 C   0  0  0  0  0  0  0  0  0  0  0  0
   48.1740   34.3390   43.1130 N   0  0  0  0  0  0  0  0  0  0  0  0
   47.1240   33.5260   43.2370 C   0  0  0  0  0  0  0  0  0  0  0  0
   46.3330   33.3370   42.1780 N   0  0  0  0  0  0  0  0  0  0  0  0
   45.9200   33.7910   40.1200 H   0  0  0  0  0  0  0  0  0  0  0  0
   47.8620   35.2890   39.9090 H   0  0  0  0  0  0  0  0  0  0  0  0
   49.3630   35.6570   41.8970 H   0  0  0  0  0  0  0  0  0  0  0  0
   45.3190   34.7420   45.0990 C   0  0  0  0  0  0  0  0  0  0  0  0
   45.4180   35.3710   44.2030 H   0  0  0  0  0  0  0  0  0  0  0  0
   44.5370   35.1660   45.9970 O   0  0  0  0  0  0  0  0  0  0  0  0
  1  9  1  0  0  0  0
  2  1  2  0  0  0  0
  2  3  1  0  0  0  0
  3  4  2  0  0  0  0
  4  8  1  0  0  0  0
  4  5  1  0  0  0  0
  5 11  1  0  0  0  0
  5  6  1  0  0  0  0
  6 12  1  0  0  0  0
  7  6  2  0  0  0  0
  8  7  1  0  0  0  0
  9 13  1  0  0  0  0
  9  8  2  0  0  0  0
 10  1  1  0  0  0  0
 14 19  1  0  0  0  0
 15 14  2  0  0  0  0
 15 16  1  0  0  0  0
 16 17  2  0  0  0  0
 17 18  1  0  0  0  0
 18  2  1  0  0  0  0
 19 18  2  0  0  0  0
 20 14  1  0  0  0  0
 21 15  1  0  0  0  0
 22 16  1  0  0  0  0
 23  3  1  0  0  0  0
 23 25  2  0  0  0  0
 24 23  1  0  0  0  0
M  END
>  <minimizedAffinity>
-5.17827845

>  <minimizedRMSD>
0.996855259

$$$$
