
 OpenBabel03252504043D

 13 13  0  0  0  0  0  0  0  0999 V2000
   44.5200   35.5950   45.1040 C   0  0  0  0  0  0  0  0  0  0  0  0
   45.0710   35.7530   43.8250 C   0  0  0  0  0  0  0  0  0  0  0  0
   46.0260   34.8250   43.4250 C   0  0  0  0  0  0  0  0  0  0  0  0
   46.3740   33.8370   44.2680 N   0  0  0  0  0  0  0  0  0  0  0  0
   45.8250   33.7110   45.4980 C   0  0  0  0  0  0  0  0  0  0  0  0
   44.8930   34.6040   45.9050 N   0  0  0  0  0  0  0  0  0  0  0  0
   43.7800   36.3240   45.4010 H   0  0  0  0  0  0  0  0  0  0  0  0
   46.1550   32.8870   46.1230 H   0  0  0  0  0  0  0  0  0  0  0  0
   46.6160   34.9540   42.1120 C   0  0  0  0  0  0  0  0  0  0  0  0
   46.0670   34.6840   41.2190 H   0  0  0  0  0  0  0  0  0  0  0  0
   47.7800   35.3770   41.8810 O   0  0  0  0  0  0  0  0  0  0  0  0
   44.7160   36.7690   42.9550 O   0  0  0  0  0  0  0  0  0  0  0  0
   44.6070   37.7440   43.2660 H   0  0  0  0  0  0  0  0  0  0  0  0
  1  7  1  0  0  0  0
  1  6  1  0  0  0  0
  2  1  2  0  0  0  0
  3  2  1  0  0  0  0
  3  4  2  0  0  0  0
  4  5  1  0  0  0  0
  5  6  2  0  0  0  0
  5  8  1  0  0  0  0
  9  3  1  0  0  0  0
 10  9  1  0  0  0  0
 11  9  2  0  0  0  0
 12 13  1  0  0  0  0
 12  2  1  0  0  0  0
M  END
>  <minimizedAffinity>
-3.48567271

>  <minimizedRMSD>
0.303763539

$$$$
