
 OpenBabel03242515473D

 35 37  0  0  1  0  0  0  0  0999 V2000
   36.4100   30.3720   39.6740 C   0  0  0  0  0  0  0  0  0  0  0  0
   36.6180   30.0060   38.3970 C   0  0  0  0  0  0  0  0  0  0  0  0
   37.1870   30.9950   37.5830 C   0  0  0  0  0  0  0  0  0  0  0  0
   37.4940   32.2160   38.0660 N   0  0  0  0  0  0  0  0  0  0  0  0
   37.2630   32.5310   39.3550 C   0  0  0  0  0  0  0  0  0  0  0  0
   36.7270   31.5880   40.1110 N   0  0  0  0  0  0  0  0  0  0  0  0
   37.4730   30.7140   36.1970 N   0  0  0  0  0  0  0  0  0  0  0  0
   36.8970   30.9650   35.3480 H   0  0  0  0  0  0  0  0  0  0  0  0
   38.3630   30.2000   36.0130 H   0  0  0  0  0  0  0  0  0  0  0  0
   36.3670   28.7720   37.5930 C   0  0  0  0  0  0  0  0  0  0  0  0
   35.5490   28.2350   38.1530 H   0  0  0  0  0  0  0  0  0  0  0  0
   35.9320   28.9950   36.6130 H   0  0  0  0  0  0  0  0  0  0  0  0
   37.2310   28.0830   37.5860 H   0  0  0  0  0  0  0  0  0  0  0  0
   35.6920   29.0920   40.7550 S   0  0  0  0  0  0  0  0  0  0  0  0
   36.4720   27.8380   42.9640 C   0  0  0  0  0  0  0  0  0  0  0  0
   36.9750   28.3770   41.7800 C   0  0  0  0  0  0  0  0  0  0  0  0
   38.3220   28.3200   41.4790 C   0  0  0  0  0  0  0  0  0  0  0  0
   39.2080   27.7310   42.3400 C   0  0  0  0  0  0  0  0  0  0  0  0
   38.7310   27.1920   43.5150 C   0  0  0  0  0  0  0  0  0  0  0  0
   37.3990   27.2300   43.8490 C   0  0  0  0  0  0  0  0  0  0  0  0
   39.8360   26.6570   44.2050 O   0  0  0  0  0  0  0  0  0  0  0  0
   40.9800   27.0890   43.5750 C   0  0  2  0  0  0  0  0  0  0  0  0
   40.5860   27.5330   42.2970 O   0  0  0  0  0  0  0  0  0  0  0  0
   35.4600   27.8300   43.2870 H   0  0  0  0  0  0  0  0  0  0  0  0
   38.6110   28.7660   40.5370 H   0  0  0  0  0  0  0  0  0  0  0  0
   37.0410   26.8000   44.7810 H   0  0  0  0  0  0  0  0  0  0  0  0
   41.5200   27.8960   44.1120 H   0  0  0  0  0  0  0  0  0  0  0  0
   41.9320   25.9320   43.4080 C   0  0  0  0  0  0  0  0  0  0  0  0
   42.9840   26.0140   43.7280 H   0  0  0  0  0  0  0  0  0  0  0  0
   41.4820   24.8960   42.9010 O   0  0  0  0  0  0  0  0  0  0  0  0
   37.5390   33.7450   39.9390 O   0  0  0  0  0  0  0  0  0  0  0  0
   38.8250   33.9160   40.5130 C   0  0  0  0  0  0  0  0  0  0  0  0
   39.1490   32.8730   41.3360 F   0  0  0  0  0  0  0  0  0  0  0  0
   39.7290   34.0400   39.4490 F   0  0  0  0  0  0  0  0  0  0  0  0
   38.8050   35.0600   41.2830 F   0  0  0  0  0  0  0  0  0  0  0  0
  1  6  1  0  0  0  0
  1 14  1  0  0  0  0
  2  1  2  0  0  0  0
  3  4  2  0  0  0  0
  3  2  1  0  0  0  0
  4  5  1  0  0  0  0
  5 31  1  0  0  0  0
  5  6  2  0  0  0  0
  7  3  1  0  0  0  0
  8  7  1  0  0  0  0
  9  7  1  0  0  0  0
 10 11  1  0  0  0  0
 10  2  1  0  0  0  0
 12 10  1  0  0  0  0
 13 10  1  0  0  0  0
 14 16  1  0  0  0  0
 15 24  1  0  0  0  0
 15 20  1  0  0  0  0
 16 15  2  0  0  0  0
 17 16  1  0  0  0  0
 17 18  2  0  0  0  0
 18 19  1  0  0  0  0
 19 20  2  0  0  0  0
 19 21  1  0  0  0  0
 20 26  1  0  0  0  0
 22 27  1  1  0  0  0
 22 21  1  0  0  0  0
 23 18  1  0  0  0  0
 23 22  1  0  0  0  0
 25 17  1  0  0  0  0
 28 22  1  0  0  0  0
 28 29  1  0  0  0  0
 30 28  2  0  0  0  0
 31 32  1  0  0  0  0
 32 35  1  0  0  0  0
 32 33  1  0  0  0  0
 34 32  1  0  0  0  0
M  END
>  <minimizedAffinity>
-6.15693998

$$$$

 OpenBabel03242515473D

 35 37  0  0  1  0  0  0  0  0999 V2000
   36.6620   30.4960   39.1610 C   0  0  0  0  0  0  0  0  0  0  0  0
   37.4890   31.4130   38.6280 C   0  0  0  0  0  0  0  0  0  0  0  0
   37.6600   31.3190   37.2400 C   0  0  0  0  0  0  0  0  0  0  0  0
   37.0330   30.3700   36.5140 N   0  0  0  0  0  0  0  0  0  0  0  0
   36.2150   29.4750   37.1000 C   0  0  0  0  0  0  0  0  0  0  0  0
   36.0620   29.5770   38.4100 N   0  0  0  0  0  0  0  0  0  0  0  0
   38.5110   32.2590   36.5510 N   0  0  0  0  0  0  0  0  0  0  0  0
   39.5130   32.1280   36.2430 H   0  0  0  0  0  0  0  0  0  0  0  0
   38.0790   33.1830   36.3290 H   0  0  0  0  0  0  0  0  0  0  0  0
   38.3180   32.5340   39.1640 C   0  0  0  0  0  0  0  0  0  0  0  0
   38.4770   32.2700   40.2490 H   0  0  0  0  0  0  0  0  0  0  0  0
   39.3230   32.5530   38.7320 H   0  0  0  0  0  0  0  0  0  0  0  0
   37.7800   33.5010   39.1660 H   0  0  0  0  0  0  0  0  0  0  0  0
   36.4080   30.6160   40.9620 S   0  0  0  0  0  0  0  0  0  0  0  0
   36.5000   28.1870   42.0350 C   0  0  0  0  0  0  0  0  0  0  0  0
   37.3010   29.3010   41.7880 C   0  0  0  0  0  0  0  0  0  0  0  0
   38.6340   29.3240   42.1500 C   0  0  0  0  0  0  0  0  0  0  0  0
   39.2110   28.2460   42.7650 C   0  0  0  0  0  0  0  0  0  0  0  0
   38.4360   27.1350   43.0180 C   0  0  0  0  0  0  0  0  0  0  0  0
   37.1080   27.0750   42.6740 C   0  0  0  0  0  0  0  0  0  0  0  0
   39.2650   26.1860   43.6490 O   0  0  0  0  0  0  0  0  0  0  0  0
   40.4400   26.8100   43.9930 C   0  0  2  0  0  0  0  0  0  0  0  0
   40.4990   27.9940   43.2290 O   0  0  0  0  0  0  0  0  0  0  0  0
   35.4710   28.0710   41.7990 H   0  0  0  0  0  0  0  0  0  0  0  0
   39.1690   30.2340   41.9150 H   0  0  0  0  0  0  0  0  0  0  0  0
   36.5120   26.1900   42.8820 H   0  0  0  0  0  0  0  0  0  0  0  0
   40.5340   27.0450   45.0730 H   0  0  0  0  0  0  0  0  0  0  0  0
   41.6080   25.9350   43.6110 C   0  0  0  0  0  0  0  0  0  0  0  0
   42.6300   26.1780   43.9450 H   0  0  0  0  0  0  0  0  0  0  0  0
   41.3660   24.9400   42.9140 O   0  0  0  0  0  0  0  0  0  0  0  0
   35.5350   28.4740   36.4480 O   0  0  0  0  0  0  0  0  0  0  0  0
   34.2680   28.7970   35.8980 C   0  0  0  0  0  0  0  0  0  0  0  0
   33.5020   29.5020   36.7840 F   0  0  0  0  0  0  0  0  0  0  0  0
   34.5120   29.5250   34.7250 F   0  0  0  0  0  0  0  0  0  0  0  0
   33.6040   27.6190   35.6220 F   0  0  0  0  0  0  0  0  0  0  0  0
  1 14  1  0  0  0  0
  2  1  1  0  0  0  0
  2 10  1  0  0  0  0
  3  2  2  0  0  0  0
  4  5  2  0  0  0  0
  4  3  1  0  0  0  0
  5  6  1  0  0  0  0
  6  1  2  0  0  0  0
  7  3  1  0  0  0  0
  8  7  1  0  0  0  0
  9  7  1  0  0  0  0
 10 13  1  0  0  0  0
 10 11  1  0  0  0  0
 12 10  1  0  0  0  0
 14 16  1  0  0  0  0
 15 20  1  0  0  0  0
 16 15  2  0  0  0  0
 16 17  1  0  0  0  0
 17 18  2  0  0  0  0
 18 19  1  0  0  0  0
 18 23  1  0  0  0  0
 19 21  1  0  0  0  0
 20 26  1  0  0  0  0
 20 19  2  0  0  0  0
 21 22  1  0  0  0  0
 22 27  1  1  0  0  0
 23 22  1  0  0  0  0
 24 15  1  0  0  0  0
 25 17  1  0  0  0  0
 28 29  1  0  0  0  0
 28 22  1  0  0  0  0
 30 28  2  0  0  0  0
 31  5  1  0  0  0  0
 32 31  1  0  0  0  0
 32 33  1  0  0  0  0
 34 32  1  0  0  0  0
 35 32  1  0  0  0  0
M  END
>  <minimizedAffinity>
-6.03496981

$$$$

 OpenBabel03242515473D

 35 37  0  0  1  0  0  0  0  0999 V2000
   37.9810   26.7680   43.0690 C   0  0  0  0  0  0  0  0  0  0  0  0
   39.2560   26.3900   43.2670 C   0  0  0  0  0  0  0  0  0  0  0  0
   39.5820   25.1230   42.7670 C   0  0  0  0  0  0  0  0  0  0  0  0
   38.6690   24.3560   42.1370 N   0  0  0  0  0  0  0  0  0  0  0  0
   37.4030   24.7830   41.9660 C   0  0  0  0  0  0  0  0  0  0  0  0
   37.1100   25.9810   42.4420 N   0  0  0  0  0  0  0  0  0  0  0  0
   40.9260   24.6150   42.9050 N   0  0  0  0  0  0  0  0  0  0  0  0
   41.2980   23.9420   43.6300 H   0  0  0  0  0  0  0  0  0  0  0  0
   41.6140   24.9550   42.1970 H   0  0  0  0  0  0  0  0  0  0  0  0
   40.4500   26.9950   43.9300 C   0  0  0  0  0  0  0  0  0  0  0  0
   40.0190   27.7440   44.6540 H   0  0  0  0  0  0  0  0  0  0  0  0
   40.9860   26.2770   44.5580 H   0  0  0  0  0  0  0  0  0  0  0  0
   41.0780   27.5790   43.2310 H   0  0  0  0  0  0  0  0  0  0  0  0
   37.5420   28.4240   43.6920 S   0  0  0  0  0  0  0  0  0  0  0  0
   36.8360   29.8460   41.5610 C   0  0  0  0  0  0  0  0  0  0  0  0
   37.9000   29.6550   42.4410 C   0  0  0  0  0  0  0  0  0  0  0  0
   39.0700   30.3780   42.3220 C   0  0  0  0  0  0  0  0  0  0  0  0
   39.2210   31.3080   41.3280 C   0  0  0  0  0  0  0  0  0  0  0  0
   38.1810   31.5110   40.4480 C   0  0  0  0  0  0  0  0  0  0  0  0
   37.0020   30.8120   40.5350 C   0  0  0  0  0  0  0  0  0  0  0  0
   38.5930   32.5070   39.5410 O   0  0  0  0  0  0  0  0  0  0  0  0
   39.9400   32.7130   39.7200 C   0  0  2  0  0  0  0  0  0  0  0  0
   40.2630   32.1630   40.9770 O   0  0  0  0  0  0  0  0  0  0  0  0
   35.8990   29.3430   41.5670 H   0  0  0  0  0  0  0  0  0  0  0  0
   39.8360   30.1570   43.0530 H   0  0  0  0  0  0  0  0  0  0  0  0
   36.1920   30.9850   39.8310 H   0  0  0  0  0  0  0  0  0  0  0  0
   40.5800   32.2670   38.9300 H   0  0  0  0  0  0  0  0  0  0  0  0
   40.2240   34.1940   39.7570 C   0  0  0  0  0  0  0  0  0  0  0  0
   41.2280   34.5830   39.5190 H   0  0  0  0  0  0  0  0  0  0  0  0
   39.2870   34.9430   40.0630 O   0  0  0  0  0  0  0  0  0  0  0  0
   36.4030   24.0760   41.3410 O   0  0  0  0  0  0  0  0  0  0  0  0
   36.2630   24.2440   39.9390 C   0  0  0  0  0  0  0  0  0  0  0  0
   36.1620   25.5650   39.6010 F   0  0  0  0  0  0  0  0  0  0  0  0
   37.3790   23.6380   39.3460 F   0  0  0  0  0  0  0  0  0  0  0  0
   35.0940   23.6250   39.5450 F   0  0  0  0  0  0  0  0  0  0  0  0
  1  2  1  0  0  0  0
  1 14  1  0  0  0  0
  2 10  1  0  0  0  0
  3  7  1  0  0  0  0
  3  2  2  0  0  0  0
  4  3  1  0  0  0  0
  5  4  2  0  0  0  0
  5  6  1  0  0  0  0
  6  1  2  0  0  0  0
  7  8  1  0  0  0  0
  9  7  1  0  0  0  0
 10 12  1  0  0  0  0
 10 11  1  0  0  0  0
 13 10  1  0  0  0  0
 15 24  1  0  0  0  0
 15 16  1  0  0  0  0
 16 14  1  0  0  0  0
 17 16  2  0  0  0  0
 17 25  1  0  0  0  0
 18 17  1  0  0  0  0
 19 20  1  0  0  0  0
 19 18  2  0  0  0  0
 20 15  2  0  0  0  0
 21 22  1  0  0  0  0
 21 19  1  0  0  0  0
 22 27  1  6  0  0  0
 22 28  1  0  0  0  0
 22 23  1  0  0  0  0
 23 18  1  0  0  0  0
 26 20  1  0  0  0  0
 28 30  2  0  0  0  0
 29 28  1  0  0  0  0
 31  5  1  0  0  0  0
 32 31  1  0  0  0  0
 33 32  1  0  0  0  0
 34 32  1  0  0  0  0
 35 32  1  0  0  0  0
M  END
>  <minimizedAffinity>
-5.87837791

$$$$

 OpenBabel03242515473D

 35 37  0  0  1  0  0  0  0  0999 V2000
   36.6800   30.5450   39.1780 C   0  0  0  0  0  0  0  0  0  0  0  0
   37.5580   31.4200   38.6570 C   0  0  0  0  0  0  0  0  0  0  0  0
   37.7290   31.3320   37.2690 C   0  0  0  0  0  0  0  0  0  0  0  0
   37.0540   30.4270   36.5310 N   0  0  0  0  0  0  0  0  0  0  0  0
   36.1870   29.5710   37.1040 C   0  0  0  0  0  0  0  0  0  0  0  0
   36.0340   29.6670   38.4140 N   0  0  0  0  0  0  0  0  0  0  0  0
   38.6330   32.2320   36.5930 N   0  0  0  0  0  0  0  0  0  0  0  0
   39.6280   32.0500   36.2870 H   0  0  0  0  0  0  0  0  0  0  0  0
   38.2520   33.1800   36.3790 H   0  0  0  0  0  0  0  0  0  0  0  0
   38.4430   32.4890   39.2090 C   0  0  0  0  0  0  0  0  0  0  0  0
   38.5830   32.2050   40.2910 H   0  0  0  0  0  0  0  0  0  0  0  0
   39.4500   32.4580   38.7800 H   0  0  0  0  0  0  0  0  0  0  0  0
   37.9590   33.4840   39.2190 H   0  0  0  0  0  0  0  0  0  0  0  0
   36.4250   30.6590   40.9790 S   0  0  0  0  0  0  0  0  0  0  0  0
   36.5080   28.2250   42.0410 C   0  0  0  0  0  0  0  0  0  0  0  0
   37.3130   29.3380   41.8010 C   0  0  0  0  0  0  0  0  0  0  0  0
   38.6450   29.3550   42.1650 C   0  0  0  0  0  0  0  0  0  0  0  0
   39.2170   28.2720   42.7770 C   0  0  0  0  0  0  0  0  0  0  0  0
   38.4390   27.1620   43.0230 C   0  0  0  0  0  0  0  0  0  0  0  0
   37.1110   27.1090   42.6760 C   0  0  0  0  0  0  0  0  0  0  0  0
   39.2640   26.2080   43.6510 O   0  0  0  0  0  0  0  0  0  0  0  0
   40.4400   26.8280   44.0000 C   0  0  2  0  0  0  0  0  0  0  0  0
   40.5050   28.0150   43.2420 O   0  0  0  0  0  0  0  0  0  0  0  0
   35.4790   28.1120   41.8020 H   0  0  0  0  0  0  0  0  0  0  0  0
   39.1830   30.2650   41.9350 H   0  0  0  0  0  0  0  0  0  0  0  0
   36.5130   26.2240   42.8790 H   0  0  0  0  0  0  0  0  0  0  0  0
   40.5330   27.0580   45.0810 H   0  0  0  0  0  0  0  0  0  0  0  0
   41.6060   25.9510   43.6170 C   0  0  0  0  0  0  0  0  0  0  0  0
   42.6260   26.1790   43.9690 H   0  0  0  0  0  0  0  0  0  0  0  0
   41.3660   24.9720   42.8960 O   0  0  0  0  0  0  0  0  0  0  0  0
   35.4560   28.6150   36.4390 O   0  0  0  0  0  0  0  0  0  0  0  0
   36.1160   27.4040   36.1070 C   0  0  0  0  0  0  0  0  0  0  0  0
   37.2950   27.2740   36.7850 F   0  0  0  0  0  0  0  0  0  0  0  0
   35.2250   26.3640   36.4050 F   0  0  0  0  0  0  0  0  0  0  0  0
   36.4140   27.4310   34.7600 F   0  0  0  0  0  0  0  0  0  0  0  0
  1 14  1  0  0  0  0
  2  1  1  0  0  0  0
  2 10  1  0  0  0  0
  3  2  2  0  0  0  0
  4  5  2  0  0  0  0
  4  3  1  0  0  0  0
  5  6  1  0  0  0  0
  6  1  2  0  0  0  0
  7  3  1  0  0  0  0
  8  7  1  0  0  0  0
  9  7  1  0  0  0  0
 10 13  1  0  0  0  0
 10 11  1  0  0  0  0
 12 10  1  0  0  0  0
 14 16  1  0  0  0  0
 15 20  1  0  0  0  0
 16 15  2  0  0  0  0
 16 17  1  0  0  0  0
 17 18  2  0  0  0  0
 18 19  1  0  0  0  0
 18 23  1  0  0  0  0
 19 21  1  0  0  0  0
 20 26  1  0  0  0  0
 20 19  2  0  0  0  0
 21 22  1  0  0  0  0
 22 27  1  1  0  0  0
 23 22  1  0  0  0  0
 24 15  1  0  0  0  0
 25 17  1  0  0  0  0
 28 29  1  0  0  0  0
 28 22  1  0  0  0  0
 30 28  2  0  0  0  0
 31  5  1  0  0  0  0
 32 34  1  0  0  0  0
 32 31  1  0  0  0  0
 32 33  1  0  0  0  0
 35 32  1  0  0  0  0
M  END
>  <minimizedAffinity>
-5.75198698

$$$$

 OpenBabel03242515473D

 35 37  0  0  1  0  0  0  0  0999 V2000
   38.0210   26.6550   42.9340 C   0  0  0  0  0  0  0  0  0  0  0  0
   37.8410   25.5290   42.2210 C   0  0  0  0  0  0  0  0  0  0  0  0
   38.9070   24.6220   42.2680 C   0  0  0  0  0  0  0  0  0  0  0  0
   40.0230   24.8800   42.9810 N   0  0  0  0  0  0  0  0  0  0  0  0
   40.1520   26.0260   43.6770 C   0  0  0  0  0  0  0  0  0  0  0  0
   39.1380   26.8720   43.6240 N   0  0  0  0  0  0  0  0  0  0  0  0
   38.8230   23.3690   41.5570 N   0  0  0  0  0  0  0  0  0  0  0  0
   39.2310   23.1260   40.6130 H   0  0  0  0  0  0  0  0  0  0  0  0
   38.2940   22.6090   42.0380 H   0  0  0  0  0  0  0  0  0  0  0  0
   36.7580   24.9910   41.3430 C   0  0  0  0  0  0  0  0  0  0  0  0
   36.1890   25.9060   41.0100 H   0  0  0  0  0  0  0  0  0  0  0  0
   37.1500   24.5550   40.4190 H   0  0  0  0  0  0  0  0  0  0  0  0
   36.0300   24.3680   41.8950 H   0  0  0  0  0  0  0  0  0  0  0  0
   36.6350   27.8380   42.9040 S   0  0  0  0  0  0  0  0  0  0  0  0
   36.0630   29.5590   40.9620 C   0  0  0  0  0  0  0  0  0  0  0  0
   37.0630   29.2460   41.8820 C   0  0  0  0  0  0  0  0  0  0  0  0
   38.2260   29.9860   41.9600 C   0  0  0  0  0  0  0  0  0  0  0  0
   38.4340   31.0550   41.1310 C   0  0  0  0  0  0  0  0  0  0  0  0
   37.4580   31.3810   40.2150 C   0  0  0  0  0  0  0  0  0  0  0  0
   36.2880   30.6690   40.1070 C   0  0  0  0  0  0  0  0  0  0  0  0
   37.9180   32.5040   39.5000 O   0  0  0  0  0  0  0  0  0  0  0  0
   39.2450   32.6890   39.8080 C   0  0  2  0  0  0  0  0  0  0  0  0
   39.4840   31.9580   40.9900 O   0  0  0  0  0  0  0  0  0  0  0  0
   35.1370   29.0560   40.8230 H   0  0  0  0  0  0  0  0  0  0  0  0
   38.9390   29.6610   42.7060 H   0  0  0  0  0  0  0  0  0  0  0  0
   35.5290   30.9410   39.3780 H   0  0  0  0  0  0  0  0  0  0  0  0
   39.9480   32.3700   39.0120 H   0  0  0  0  0  0  0  0  0  0  0  0
   39.5000   34.1490   40.0870 C   0  0  0  0  0  0  0  0  0  0  0  0
   40.2530   34.7120   39.5120 H   0  0  0  0  0  0  0  0  0  0  0  0
   38.8290   34.6800   40.9830 O   0  0  0  0  0  0  0  0  0  0  0  0
   41.2480   26.3800   44.4290 O   0  0  0  0  0  0  0  0  0  0  0  0
   42.4680   26.6030   43.7400 C   0  0  0  0  0  0  0  0  0  0  0  0
   43.2810   27.4600   44.4270 F   0  0  0  0  0  0  0  0  0  0  0  0
   43.0650   25.3470   43.5610 F   0  0  0  0  0  0  0  0  0  0  0  0
   42.1760   27.1920   42.5270 F   0  0  0  0  0  0  0  0  0  0  0  0
  1  6  1  0  0  0  0
  2  3  1  0  0  0  0
  2  1  2  0  0  0  0
  3  4  2  0  0  0  0
  4  5  1  0  0  0  0
  5 31  1  0  0  0  0
  6  5  2  0  0  0  0
  7  9  1  0  0  0  0
  7  3  1  0  0  0  0
  8  7  1  0  0  0  0
 10 13  1  0  0  0  0
 10  2  1  0  0  0  0
 11 10  1  0  0  0  0
 12 10  1  0  0  0  0
 14  1  1  0  0  0  0
 15 16  1  0  0  0  0
 16 17  2  0  0  0  0
 16 14  1  0  0  0  0
 17 25  1  0  0  0  0
 18 17  1  0  0  0  0
 19 18  2  0  0  0  0
 20 19  1  0  0  0  0
 20 15  2  0  0  0  0
 21 22  1  0  0  0  0
 21 19  1  0  0  0  0
 22 27  1  6  0  0  0
 22 28  1  0  0  0  0
 22 23  1  0  0  0  0
 23 18  1  0  0  0  0
 24 15  1  0  0  0  0
 26 20  1  0  0  0  0
 28 30  2  0  0  0  0
 29 28  1  0  0  0  0
 32 33  1  0  0  0  0
 32 31  1  0  0  0  0
 34 32  1  0  0  0  0
 35 32  1  0  0  0  0
M  END
>  <minimizedAffinity>
-5.73490191

$$$$

 OpenBabel03242515473D

 35 37  0  0  1  0  0  0  0  0999 V2000
   40.8070   33.5810   39.2680 C   0  0  0  0  0  0  0  0  0  0  0  0
   41.8620   34.1940   39.8350 C   0  0  0  0  0  0  0  0  0  0  0  0
   43.0890   33.9690   39.2000 C   0  0  0  0  0  0  0  0  0  0  0  0
   43.1840   33.1890   38.1030 N   0  0  0  0  0  0  0  0  0  0  0  0
   42.0950   32.5970   37.5770 C   0  0  0  0  0  0  0  0  0  0  0  0
   40.9430   32.8200   38.1860 N   0  0  0  0  0  0  0  0  0  0  0  0
   44.2910   34.5880   39.7070 N   0  0  0  0  0  0  0  0  0  0  0  0
   45.0320   34.1630   40.3280 H   0  0  0  0  0  0  0  0  0  0  0  0
   44.4450   35.5800   39.4200 H   0  0  0  0  0  0  0  0  0  0  0  0
   42.0630   35.0720   41.0280 C   0  0  0  0  0  0  0  0  0  0  0  0
   41.1830   34.8420   41.6950 H   0  0  0  0  0  0  0  0  0  0  0  0
   42.9400   34.7820   41.6150 H   0  0  0  0  0  0  0  0  0  0  0  0
   41.9850   36.1480   40.7860 H   0  0  0  0  0  0  0  0  0  0  0  0
   39.1960   33.8810   40.0670 S   0  0  0  0  0  0  0  0  0  0  0  0
   37.2800   32.0740   40.4150 C   0  0  0  0  0  0  0  0  0  0  0  0
   38.5900   32.3610   40.7950 C   0  0  0  0  0  0  0  0  0  0  0  0
   39.2970   31.5200   41.6320 C   0  0  0  0  0  0  0  0  0  0  0  0
   38.7280   30.3730   42.1150 C   0  0  0  0  0  0  0  0  0  0  0  0
   37.4340   30.0710   41.7510 C   0  0  0  0  0  0  0  0  0  0  0  0
   36.6990   30.8830   40.9210 C   0  0  0  0  0  0  0  0  0  0  0  0
   37.0990   28.8550   42.3770 O   0  0  0  0  0  0  0  0  0  0  0  0
   38.0800   28.5660   43.2960 C   0  0  2  0  0  0  0  0  0  0  0  0
   39.1920   29.3620   42.9530 O   0  0  0  0  0  0  0  0  0  0  0  0
   36.6530   32.6530   39.7800 H   0  0  0  0  0  0  0  0  0  0  0  0
   40.3050   31.8320   41.8680 H   0  0  0  0  0  0  0  0  0  0  0  0
   35.6790   30.6280   40.6450 H   0  0  0  0  0  0  0  0  0  0  0  0
   37.7870   28.7500   44.3500 H   0  0  0  0  0  0  0  0  0  0  0  0
   38.4740   27.1150   43.1760 C   0  0  0  0  0  0  0  0  0  0  0  0
   37.9970   26.4600   42.4290 H   0  0  0  0  0  0  0  0  0  0  0  0
   39.3490   26.7000   43.9480 O   0  0  0  0  0  0  0  0  0  0  0  0
   42.0900   31.7860   36.4660 O   0  0  0  0  0  0  0  0  0  0  0  0
   42.8770   30.6060   36.5160 C   0  0  0  0  0  0  0  0  0  0  0  0
   42.3210   29.6020   35.7760 F   0  0  0  0  0  0  0  0  0  0  0  0
   44.1540   30.9520   36.0520 F   0  0  0  0  0  0  0  0  0  0  0  0
   42.9250   30.1760   37.8270 F   0  0  0  0  0  0  0  0  0  0  0  0
  1  2  1  0  0  0  0
  1 14  1  0  0  0  0
  2 10  1  0  0  0  0
  3  7  1  0  0  0  0
  3  2  2  0  0  0  0
  4  3  1  0  0  0  0
  5  4  2  0  0  0  0
  5  6  1  0  0  0  0
  6  1  2  0  0  0  0
  7  8  1  0  0  0  0
  9  7  1  0  0  0  0
 10 12  1  0  0  0  0
 10 11  1  0  0  0  0
 13 10  1  0  0  0  0
 14 16  1  0  0  0  0
 15 16  2  0  0  0  0
 15 20  1  0  0  0  0
 16 17  1  0  0  0  0
 17 25  1  0  0  0  0
 17 18  2  0  0  0  0
 18 23  1  0  0  0  0
 19 18  1  0  0  0  0
 19 21  1  0  0  0  0
 20 19  2  0  0  0  0
 21 22  1  0  0  0  0
 22 27  1  1  0  0  0
 23 22  1  0  0  0  0
 24 15  1  0  0  0  0
 26 20  1  0  0  0  0
 28 22  1  0  0  0  0
 28 30  2  0  0  0  0
 29 28  1  0  0  0  0
 31 32  1  0  0  0  0
 31  5  1  0  0  0  0
 32 35  1  0  0  0  0
 33 32  1  0  0  0  0
 34 32  1  0  0  0  0
M  END
>  <minimizedAffinity>
-5.66425276

$$$$

 OpenBabel03242515473D

 35 37  0  0  1  0  0  0  0  0999 V2000
   37.4220   31.0590   40.0980 C   0  0  0  0  0  0  0  0  0  0  0  0
   37.2420   30.8970   38.7750 C   0  0  0  0  0  0  0  0  0  0  0  0
   38.1830   31.5470   37.9660 C   0  0  0  0  0  0  0  0  0  0  0  0
   39.1850   32.2790   38.4960 N   0  0  0  0  0  0  0  0  0  0  0  0
   39.3180   32.4100   39.8290 C   0  0  0  0  0  0  0  0  0  0  0  0
   38.4240   31.7890   40.5800 N   0  0  0  0  0  0  0  0  0  0  0  0
   38.1030   31.4320   36.5290 N   0  0  0  0  0  0  0  0  0  0  0  0
   37.6870   32.1180   35.8420 H   0  0  0  0  0  0  0  0  0  0  0  0
   38.5110   30.5630   36.1210 H   0  0  0  0  0  0  0  0  0  0  0  0
   36.2440   30.1870   37.9200 C   0  0  0  0  0  0  0  0  0  0  0  0
   35.3330   30.0890   38.5770 H   0  0  0  0  0  0  0  0  0  0  0  0
   35.9120   30.7970   37.0730 H   0  0  0  0  0  0  0  0  0  0  0  0
   36.5500   29.1540   37.6720 H   0  0  0  0  0  0  0  0  0  0  0  0
   36.2230   30.2000   41.1680 S   0  0  0  0  0  0  0  0  0  0  0  0
   36.9340   28.2050   42.7730 C   0  0  0  0  0  0  0  0  0  0  0  0
   36.7450   28.5060   41.4250 C   0  0  0  0  0  0  0  0  0  0  0  0
   36.9390   27.5560   40.4410 C   0  0  0  0  0  0  0  0  0  0  0  0
   37.3250   26.2830   40.7630 C   0  0  0  0  0  0  0  0  0  0  0  0
   37.5170   25.9650   42.0900 C   0  0  0  0  0  0  0  0  0  0  0  0
   37.3350   26.8830   43.0960 C   0  0  0  0  0  0  0  0  0  0  0  0
   37.9050   24.6120   42.1410 O   0  0  0  0  0  0  0  0  0  0  0  0
   38.1840   24.2020   40.8590 C   0  0  2  0  0  0  0  0  0  0  0  0
   37.5880   25.1480   40.0000 O   0  0  0  0  0  0  0  0  0  0  0  0
   36.8120   28.8600   43.6010 H   0  0  0  0  0  0  0  0  0  0  0  0
   36.7660   27.8890   39.4260 H   0  0  0  0  0  0  0  0  0  0  0  0
   37.4910   26.6140   44.1370 H   0  0  0  0  0  0  0  0  0  0  0  0
   39.2660   24.1080   40.6340 H   0  0  0  0  0  0  0  0  0  0  0  0
   37.5450   22.8580   40.6080 C   0  0  0  0  0  0  0  0  0  0  0  0
   37.4140   22.1330   41.4280 H   0  0  0  0  0  0  0  0  0  0  0  0
   37.1790   22.6120   39.4510 O   0  0  0  0  0  0  0  0  0  0  0  0
   40.3010   33.1330   40.4630 O   0  0  0  0  0  0  0  0  0  0  0  0
   40.3170   34.5360   40.2520 C   0  0  0  0  0  0  0  0  0  0  0  0
   40.7550   34.8490   38.9960 F   0  0  0  0  0  0  0  0  0  0  0  0
   39.0110   34.9920   40.4790 F   0  0  0  0  0  0  0  0  0  0  0  0
   41.2010   35.0960   41.1510 F   0  0  0  0  0  0  0  0  0  0  0  0
  1  6  1  0  0  0  0
  1 14  1  0  0  0  0
  2  1  2  0  0  0  0
  3  4  2  0  0  0  0
  3  2  1  0  0  0  0
  4  5  1  0  0  0  0
  5 31  1  0  0  0  0
  5  6  2  0  0  0  0
  7  3  1  0  0  0  0
  8  7  1  0  0  0  0
  9  7  1  0  0  0  0
 10 11  1  0  0  0  0
 10  2  1  0  0  0  0
 12 10  1  0  0  0  0
 13 10  1  0  0  0  0
 14 16  1  0  0  0  0
 15 20  1  0  0  0  0
 15 24  1  0  0  0  0
 16 15  2  0  0  0  0
 17 18  2  0  0  0  0
 17 16  1  0  0  0  0
 18 19  1  0  0  0  0
 19 21  1  0  0  0  0
 19 20  2  0  0  0  0
 20 26  1  0  0  0  0
 22 27  1  6  0  0  0
 22 21  1  0  0  0  0
 23 18  1  0  0  0  0
 23 22  1  0  0  0  0
 25 17  1  0  0  0  0
 28 22  1  0  0  0  0
 28 29  1  0  0  0  0
 30 28  2  0  0  0  0
 32 31  1  0  0  0  0
 32 34  1  0  0  0  0
 32 35  1  0  0  0  0
 33 32  1  0  0  0  0
M  END
>  <minimizedAffinity>
-5.63045835

$$$$

 OpenBabel03242515473D

 35 37  0  0  1  0  0  0  0  0999 V2000
   37.1100   28.7110   39.0330 C   0  0  0  0  0  0  0  0  0  0  0  0
   36.5070   27.5960   38.5820 C   0  0  0  0  0  0  0  0  0  0  0  0
   36.6490   26.4720   39.4060 C   0  0  0  0  0  0  0  0  0  0  0  0
   37.3450   26.5260   40.5610 N   0  0  0  0  0  0  0  0  0  0  0  0
   37.9310   27.6690   40.9650 C   0  0  0  0  0  0  0  0  0  0  0  0
   37.7870   28.7220   40.1780 N   0  0  0  0  0  0  0  0  0  0  0  0
   36.0320   25.2210   39.0360 N   0  0  0  0  0  0  0  0  0  0  0  0
   36.4770   24.3880   38.5640 H   0  0  0  0  0  0  0  0  0  0  0  0
   35.0180   25.1310   39.2670 H   0  0  0  0  0  0  0  0  0  0  0  0
   35.7120   27.2370   37.3700 C   0  0  0  0  0  0  0  0  0  0  0  0
   36.0150   28.0030   36.6000 H   0  0  0  0  0  0  0  0  0  0  0  0
   36.0160   26.2760   36.9420 H   0  0  0  0  0  0  0  0  0  0  0  0
   34.6240   27.3710   37.5160 H   0  0  0  0  0  0  0  0  0  0  0  0
   36.9170   30.1900   37.9870 S   0  0  0  0  0  0  0  0  0  0  0  0
   37.0770   32.4770   39.3300 C   0  0  0  0  0  0  0  0  0  0  0  0
   37.8730   31.5430   38.6690 C   0  0  0  0  0  0  0  0  0  0  0  0
   39.2440   31.6900   38.5960 C   0  0  0  0  0  0  0  0  0  0  0  0
   39.8650   32.7640   39.1730 C   0  0  0  0  0  0  0  0  0  0  0  0
   39.0960   33.6990   39.8310 C   0  0  0  0  0  0  0  0  0  0  0  0
   37.7310   33.5870   39.9250 C   0  0  0  0  0  0  0  0  0  0  0  0
   39.9730   34.6850   40.3250 O   0  0  0  0  0  0  0  0  0  0  0  0
   41.2080   34.4770   39.7590 C   0  0  2  0  0  0  0  0  0  0  0  0
   41.1980   33.1600   39.2560 O   0  0  0  0  0  0  0  0  0  0  0  0
   36.0200   32.4570   39.4430 H   0  0  0  0  0  0  0  0  0  0  0  0
   39.7710   30.9120   38.0610 H   0  0  0  0  0  0  0  0  0  0  0  0
   37.1400   34.3350   40.4480 H   0  0  0  0  0  0  0  0  0  0  0  0
   41.4680   35.1930   38.9520 H   0  0  0  0  0  0  0  0  0  0  0  0
   42.2750   34.5760   40.8210 C   0  0  0  0  0  0  0  0  0  0  0  0
   42.7930   35.5300   41.0140 H   0  0  0  0  0  0  0  0  0  0  0  0
   42.5360   33.5480   41.4590 O   0  0  0  0  0  0  0  0  0  0  0  0
   38.6600   27.8240   42.1210 O   0  0  0  0  0  0  0  0  0  0  0  0
   37.9450   28.1330   43.3070 C   0  0  0  0  0  0  0  0  0  0  0  0
   36.5950   28.0190   43.1220 F   0  0  0  0  0  0  0  0  0  0  0  0
   38.4120   27.2600   44.2990 F   0  0  0  0  0  0  0  0  0  0  0  0
   38.2070   29.4470   43.6370 F   0  0  0  0  0  0  0  0  0  0  0  0
  1  6  1  0  0  0  0
  2  1  2  0  0  0  0
  2  3  1  0  0  0  0
  3  4  2  0  0  0  0
  4  5  1  0  0  0  0
  5 31  1  0  0  0  0
  6  5  2  0  0  0  0
  7  9  1  0  0  0  0
  7  3  1  0  0  0  0
  8  7  1  0  0  0  0
 10 13  1  0  0  0  0
 10  2  1  0  0  0  0
 11 10  1  0  0  0  0
 12 10  1  0  0  0  0
 14 16  1  0  0  0  0
 14  1  1  0  0  0  0
 15 24  1  0  0  0  0
 15 20  1  0  0  0  0
 16 15  2  0  0  0  0
 17 16  1  0  0  0  0
 17 18  2  0  0  0  0
 18 23  1  0  0  0  0
 18 19  1  0  0  0  0
 19 20  2  0  0  0  0
 19 21  1  0  0  0  0
 20 26  1  0  0  0  0
 22 27  1  6  0  0  0
 22 21  1  0  0  0  0
 22 28  1  0  0  0  0
 23 22  1  0  0  0  0
 25 17  1  0  0  0  0
 28 29  1  0  0  0  0
 28 30  2  0  0  0  0
 31 32  1  0  0  0  0
 32 35  1  0  0  0  0
 32 34  1  0  0  0  0
 33 32  1  0  0  0  0
M  END
>  <minimizedAffinity>
-5.61600161

$$$$

 OpenBabel03242515473D

 35 37  0  0  1  0  0  0  0  0999 V2000
   38.4490   31.7950   40.0140 C   0  0  0  0  0  0  0  0  0  0  0  0
   38.5950   31.8640   38.6790 C   0  0  0  0  0  0  0  0  0  0  0  0
   39.8550   32.2940   38.2430 C   0  0  0  0  0  0  0  0  0  0  0  0
   40.8330   32.6120   39.1160 N   0  0  0  0  0  0  0  0  0  0  0  0
   40.6330   32.5260   40.4450 C   0  0  0  0  0  0  0  0  0  0  0  0
   39.4390   32.1180   40.8410 N   0  0  0  0  0  0  0  0  0  0  0  0
   40.1380   32.3910   36.8310 N   0  0  0  0  0  0  0  0  0  0  0  0
   40.1170   33.2520   36.2190 H   0  0  0  0  0  0  0  0  0  0  0  0
   40.3970   31.4970   36.3580 H   0  0  0  0  0  0  0  0  0  0  0  0
   37.7130   31.6060   37.5010 C   0  0  0  0  0  0  0  0  0  0  0  0
   36.6670   31.7080   37.9080 H   0  0  0  0  0  0  0  0  0  0  0  0
   37.7940   32.3900   36.7410 H   0  0  0  0  0  0  0  0  0  0  0  0
   37.7920   30.5680   37.1260 H   0  0  0  0  0  0  0  0  0  0  0  0
   36.8240   31.2150   40.6010 S   0  0  0  0  0  0  0  0  0  0  0  0
   36.2960   28.8400   39.5320 C   0  0  0  0  0  0  0  0  0  0  0  0
   36.8150   29.4250   40.6860 C   0  0  0  0  0  0  0  0  0  0  0  0
   37.2710   28.6580   41.7400 C   0  0  0  0  0  0  0  0  0  0  0  0
   37.2260   27.2910   41.6810 C   0  0  0  0  0  0  0  0  0  0  0  0
   36.7170   26.6920   40.5490 C   0  0  0  0  0  0  0  0  0  0  0  0
   36.2540   27.4220   39.4820 C   0  0  0  0  0  0  0  0  0  0  0  0
   36.7870   25.3000   40.7490 O   0  0  0  0  0  0  0  0  0  0  0  0
   37.0950   25.0750   42.0690 C   0  0  2  0  0  0  0  0  0  0  0  0
   37.6070   26.2890   42.5700 O   0  0  0  0  0  0  0  0  0  0  0  0
   35.9210   29.3380   38.6720 H   0  0  0  0  0  0  0  0  0  0  0  0
   37.6540   29.2070   42.5890 H   0  0  0  0  0  0  0  0  0  0  0  0
   35.8550   26.9330   38.5970 H   0  0  0  0  0  0  0  0  0  0  0  0
   36.2380   24.7360   42.6870 H   0  0  0  0  0  0  0  0  0  0  0  0
   38.1730   24.0240   42.1640 C   0  0  0  0  0  0  0  0  0  0  0  0
   38.0920   23.0780   41.6030 H   0  0  0  0  0  0  0  0  0  0  0  0
   39.1430   24.2710   42.8940 O   0  0  0  0  0  0  0  0  0  0  0  0
   41.5640   32.8290   41.4100 O   0  0  0  0  0  0  0  0  0  0  0  0
   42.1380   31.7470   42.1260 C   0  0  0  0  0  0  0  0  0  0  0  0
   41.3690   31.3920   43.1990 F   0  0  0  0  0  0  0  0  0  0  0  0
   42.2800   30.6910   41.2140 F   0  0  0  0  0  0  0  0  0  0  0  0
   43.3640   32.1530   42.6110 F   0  0  0  0  0  0  0  0  0  0  0  0
  1 14  1  0  0  0  0
  1  6  1  0  0  0  0
  2  1  2  0  0  0  0
  3  2  1  0  0  0  0
  3  4  2  0  0  0  0
  4  5  1  0  0  0  0
  5  6  2  0  0  0  0
  5 31  1  0  0  0  0
  7  3  1  0  0  0  0
  8  7  1  0  0  0  0
  9  7  1  0  0  0  0
 10 11  1  0  0  0  0
 10  2  1  0  0  0  0
 12 10  1  0  0  0  0
 13 10  1  0  0  0  0
 14 16  1  0  0  0  0
 15 16  1  0  0  0  0
 16 17  2  0  0  0  0
 17 25  1  0  0  0  0
 18 17  1  0  0  0  0
 18 23  1  0  0  0  0
 19 21  1  0  0  0  0
 19 18  2  0  0  0  0
 20 15  2  0  0  0  0
 20 19  1  0  0  0  0
 21 22  1  0  0  0  0
 22 28  1  0  0  0  0
 22 23  1  0  0  0  0
 22 27  1  1  0  0  0
 24 15  1  0  0  0  0
 26 20  1  0  0  0  0
 28 30  2  0  0  0  0
 29 28  1  0  0  0  0
 31 32  1  0  0  0  0
 32 35  1  0  0  0  0
 32 33  1  0  0  0  0
 34 32  1  0  0  0  0
M  END
>  <minimizedAffinity>
-5.52867889

$$$$
