
     RDKit          3D

 25 26  0  0  0  0  0  0  0  0999 V2000
   44.9258   35.1064   44.9417 C   0  0  0  0  0  0  0  0  0  0  0  0
   45.8238   34.7586   43.9418 C   0  0  0  0  0  0  0  0  0  0  0  0
   46.6725   33.6965   44.2124 C   0  0  0  0  0  0  0  0  0  0  0  0
   46.5970   33.0586   45.4024 N   0  0  0  0  0  0  0  0  0  0  0  0
   45.7115   33.4278   46.3450 C   0  0  0  0  0  0  0  0  0  0  0  0
   44.8749   34.4430   46.1310 N   0  0  0  0  0  0  0  0  0  0  0  0
   45.7955   35.5485   42.6821 C   0  0  0  0  0  0  0  0  0  0  0  0
   45.3347   36.8047   43.0321 F   0  0  0  0  0  0  0  0  0  0  0  0
   44.9157   34.9461   41.8202 F   0  0  0  0  0  0  0  0  0  0  0  0
   47.0809   35.5542   42.1663 F   0  0  0  0  0  0  0  0  0  0  0  0
   45.6137   32.7907   47.5730 O   0  0  0  0  0  0  0  0  0  0  0  0
   44.2112   35.9305   44.8301 H   0  0  0  0  0  0  0  0  0  0  0  0
   47.3666   33.4287   43.4377 H   0  0  0  0  0  0  0  0  0  0  0  0
   46.4060   31.7077   47.9772 C   0  0  2  0  0  0  0  0  0  0  0  0
   45.5985   30.6499   48.7033 C   0  0  1  0  0  0  0  0  0  0  0  0
   44.8922   31.1401   49.3841 H   0  0  0  0  0  0  0  0  0  0  0  0
   46.6985   30.0144   49.5299 C   0  0  1  0  0  0  0  0  0  0  0  0
   46.3017   29.3889   50.3456 H   0  0  0  0  0  0  0  0  0  0  0  0
   47.3403   31.1373   50.0452 O   0  0  0  0  0  0  0  0  0  0  0  0
   47.4234   32.0631   49.0212 C   0  0  1  0  0  0  0  0  0  0  0  0
   48.4601   32.0393   48.6232 H   0  0  0  0  0  0  0  0  0  0  0  0
   46.9512   31.2170   47.1495 H   0  0  0  0  0  0  0  0  0  0  0  0
   45.1267   29.9262   48.0098 H   0  0  0  0  0  0  0  0  0  0  0  0
   47.3518   29.4614   48.8331 H   0  0  0  0  0  0  0  0  0  0  0  0
   47.1766   33.0498   49.4321 H   0  0  0  0  0  0  0  0  0  0  0  0
  1  6  2  0
  2  3  2  0
  2  1  1  0
  3  4  1  0
  4  5  2  0
  5 11  1  0
  6  5  1  0
  7  8  1  0
  7  2  1  0
  9  7  1  0
 10  7  1  0
  1 12  1  0
  3 13  1  0
 14 15  1  0
 15 16  1  1
 15 17  1  0
 17 18  1  1
 17 19  1  0
 19 20  1  0
 20 21  1  6
 20 14  1  0
 14 22  1  6
 15 23  1  0
 17 24  1  0
 20 25  1  0
 11 14  1  0
M  ISO  5  12  14  13  14  16  15  18  15  21  15
M  END
>  <DihAtoms>  (1) 
4,10,13,14

>  <DihDeg>  (1) 
-123.23200116670833

$$$$
