
     RDKit          3D

 23 24  0  0  0  0  0  0  0  0999 V2000
   45.2023   35.9677   43.3743 C   0  0  0  0  0  0  0  0  0  0  0  0
   46.0917   34.9113   43.1406 C   0  0  0  0  0  0  0  0  0  0  0  0
   46.2485   33.9636   44.1622 C   0  0  0  0  0  0  0  0  0  0  0  0
   45.5383   34.1092   45.3230 N   0  0  0  0  0  0  0  0  0  0  0  0
   44.6921   35.1520   45.4927 C   0  0  0  0  0  0  0  0  0  0  0  0
   44.5284   36.0660   44.5314 N   0  0  0  0  0  0  0  0  0  0  0  0
   46.8133   34.7941   41.9183 C   0  0  0  0  0  0  0  0  0  0  0  0
   47.9145   35.3891   41.8305 O   0  0  0  0  0  0  0  0  0  0  0  0
   45.0306   36.7304   42.6395 H   0  0  0  0  0  0  0  0  0  0  0  0
   46.9357   33.1419   43.9893 H   0  0  0  0  0  0  0  0  0  0  0  0
   44.2308   35.0823   46.4759 H   0  0  0  0  0  0  0  0  0  0  0  0
   46.3009   33.9998   40.7705 C   0  0  1  0  0  0  0  0  0  0  0  0
   44.8563   34.2244   40.4669 C   0  0  1  0  0  0  0  0  0  0  0  0
   44.3934   33.2033   40.3299 H   0  0  0  0  0  0  0  0  0  0  0  0
   44.8979   34.8838   39.1131 C   0  0  2  0  0  0  0  0  0  0  0  0
   44.8127   35.9917   39.1498 H   0  0  0  0  0  0  0  0  0  0  0  0
   46.0676   34.5026   38.5059 O   0  0  0  0  0  0  0  0  0  0  0  0
   47.0193   34.3049   39.4950 C   0  0  2  0  0  0  0  0  0  0  0  0
   47.7105   33.5011   39.1531 H   0  0  0  0  0  0  0  0  0  0  0  0
   46.5262   32.9253   41.0061 H   0  0  0  0  0  0  0  0  0  0  0  0
   44.3063   34.8265   41.2050 H   0  0  0  0  0  0  0  0  0  0  0  0
   44.0636   34.4820   38.5022 H   0  0  0  0  0  0  0  0  0  0  0  0
   47.6055   35.2515   39.6017 H   0  0  0  0  0  0  0  0  0  0  0  0
  1  6  2  0
  2  1  1  0
  2  3  2  0
  3  4  1  0
  4  5  2  0
  6  5  1  0
  7  2  1  0
  8  7  2  0
  1  9  1  0
  3 10  1  0
  5 11  1  0
 12 13  1  0
 13 14  1  6
 13 15  1  0
 15 16  1  1
 15 17  1  0
 17 18  1  0
 18 19  1  6
 18 12  1  0
 12 20  1  1
 13 21  1  0
 15 22  1  0
 18 23  1  0
  7 12  1  0
M  ISO  6   9  14  10  14  11  14  14  15  16  15  19  15
M  END
>  <DihAtoms>  (1) 
1,6,11,12

>  <DihDeg>  (1) 
60.00440105683582

$$$$
