
 OpenBabel03252504313D

 32 33  0  0  1  0  0  0  0  0999 V2000
   36.6330   29.5890   38.4240 C   0  0  0  0  0  0  0  0  0  0  0  0
   37.1410   29.4830   37.4530 H   0  0  0  0  0  0  0  0  0  0  0  0
   37.0620   28.8770   39.1850 H   0  0  0  0  0  0  0  0  0  0  0  0
   34.5660   28.6920   37.2330 C   0  0  0  0  0  3  0  0  0  0  0  0
   35.1640   29.2080   38.3140 C   0  0  0  0  0  3  0  0  0  0  0  0
   33.2140   28.4100   37.3490 O   0  0  0  0  0  0  0  0  0  0  0  0
   32.2220   28.7180   36.4480 C   0  0  0  0  0  0  0  0  0  0  0  0
   32.6910   28.9830   35.4500 H   0  0  0  0  0  0  0  0  0  0  0  0
   31.5730   27.8590   36.2670 H   0  0  0  0  0  0  0  0  0  0  0  0
   31.2820   30.8520   35.8690 C   0  0  0  0  0  0  0  0  0  0  0  0
   31.3730   29.8630   36.8660 C   0  0  0  0  0  0  0  0  0  0  0  0
   30.6970   30.0640   38.0320 C   0  0  0  0  0  0  0  0  0  0  0  0
   29.9920   31.1870   38.1560 N   0  0  0  0  0  0  0  0  0  0  0  0
   29.9040   32.1320   37.2080 C   0  0  0  0  0  0  0  0  0  0  0  0
   30.5640   32.0060   35.9840 N   0  0  0  0  0  0  0  0  0  0  0  0
   31.7740   30.8000   34.9060 H   0  0  0  0  0  0  0  0  0  0  0  0
   30.8130   29.2710   38.7390 H   0  0  0  0  0  0  0  0  0  0  0  0
   29.3170   33.0240   37.3620 H   0  0  0  0  0  0  0  0  0  0  0  0
   36.6960   30.8850   38.8410 O   0  0  0  0  0  0  0  0  0  0  0  0
   37.8570   32.2260   40.8170 O   0  0  0  0  0  0  0  0  0  0  0  0
   37.0230   31.0170   40.4960 P   0  0  1  0  0  0  0  0  0  0  0  0
   35.5630   31.1550   41.3590 O   0  0  0  0  0  0  0  0  0  0  0  0
   35.7080   31.4610   42.2710 H   0  0  0  0  0  0  0  0  0  0  0  0
   37.8170   29.6470   41.0430 O   0  0  0  0  0  0  0  0  0  0  0  0
   37.2930   29.0260   42.1310 C   0  0  1  0  0  3  0  0  0  0  0  0
   36.8590   27.6100   41.9710 C   0  0  0  0  0  3  0  0  0  0  0  0
   36.6000   27.2950   40.9580 H   0  0  0  0  0  0  0  0  0  0  0  0
   37.9710   26.8220   42.6180 C   0  0  0  0  0  3  0  0  0  0  0  0
   37.6100   25.9640   43.2260 H   0  0  0  0  0  0  0  0  0  0  0  0
   38.6960   27.6730   43.4130 O   0  0  0  0  0  0  0  0  0  0  0  0
   38.2100   28.9500   43.3190 C   0  0  0  0  0  3  0  0  0  0  0  0
   38.9810   29.7410   43.2270 H   0  0  0  0  0  0  0  0  0  0  0  0
  1 19  1  0  0  0  0
  1  3  1  0  0  0  0
  2  1  1  0  0  0  0
  4  6  1  0  0  0  0
  4  5  2  0  0  0  0
  5  1  1  0  0  0  0
  7 11  1  0  0  0  0
  7  6  1  0  0  0  0
  8  7  1  0  0  0  0
  9  7  1  0  0  0  0
 10 15  2  0  0  0  0
 10 11  1  0  0  0  0
 11 12  2  0  0  0  0
 12 13  1  0  0  0  0
 12 17  1  0  0  0  0
 14 18  1  0  0  0  0
 14 13  2  0  0  0  0
 15 14  1  0  0  0  0
 16 10  1  0  0  0  0
 19 21  1  0  0  0  0
 21 20  2  1  0  0  0
 21 24  1  0  0  0  0
 21 22  1  0  0  0  0
 22 23  1  0  0  0  0
 25 24  1  6  0  0  0
 25 31  1  0  0  0  0
 26 25  1  0  0  0  0
 26 28  1  0  0  0  0
 27 26  1  0  0  0  0
 28 29  1  0  0  0  0
 28 30  1  0  0  0  0
 31 30  1  0  0  0  0
 32 31  1  0  0  0  0
M  END
>  <minimizedAffinity>
-4.77501917

$$$$

 OpenBabel03252504313D

 32 33  0  0  1  0  0  0  0  0999 V2000
   37.6790   28.9160   43.2050 C   0  0  0  0  0  0  0  0  0  0  0  0
   38.4720   29.6360   42.9510 H   0  0  0  0  0  0  0  0  0  0  0  0
   37.1250   29.2350   44.1330 H   0  0  0  0  0  0  0  0  0  0  0  0
   39.5130   27.1470   43.2720 C   0  0  0  0  0  3  0  0  0  0  0  0
   38.2680   27.5550   43.5480 C   0  0  0  0  0  3  0  0  0  0  0  0
   39.8490   25.8660   43.6800 O   0  0  0  0  0  0  0  0  0  0  0  0
   40.3040   24.8360   42.8890 C   0  0  0  0  0  0  0  0  0  0  0  0
   41.3510   25.0780   42.5260 H   0  0  0  0  0  0  0  0  0  0  0  0
   40.3800   23.9070   43.4570 H   0  0  0  0  0  0  0  0  0  0  0  0
   38.2210   24.0070   42.0290 C   0  0  0  0  0  0  0  0  0  0  0  0
   39.4590   24.5850   41.6950 C   0  0  0  0  0  0  0  0  0  0  0  0
   39.7140   24.8370   40.3800 C   0  0  0  0  0  0  0  0  0  0  0  0
   38.7740   24.5200   39.4930 N   0  0  0  0  0  0  0  0  0  0  0  0
   37.5920   23.9680   39.8090 C   0  0  0  0  0  0  0  0  0  0  0  0
   37.2500   23.6770   41.1300 N   0  0  0  0  0  0  0  0  0  0  0  0
   37.9090   23.7620   43.0370 H   0  0  0  0  0  0  0  0  0  0  0  0
   40.6730   25.2760   40.2040 H   0  0  0  0  0  0  0  0  0  0  0  0
   36.8650   23.7310   39.0470 H   0  0  0  0  0  0  0  0  0  0  0  0
   36.8440   28.7500   42.1410 O   0  0  0  0  0  0  0  0  0  0  0  0
   36.7860   29.6430   39.6410 O   0  0  0  0  0  0  0  0  0  0  0  0
   36.8780   30.0680   41.0800 P   0  0  1  0  0  0  0  0  0  0  0  0
   35.5580   31.0930   41.3990 O   0  0  0  0  0  0  0  0  0  0  0  0
   35.4080   31.7280   40.6760 H   0  0  0  0  0  0  0  0  0  0  0  0
   38.2820   30.9540   41.2980 O   0  0  0  0  0  0  0  0  0  0  0  0
   38.7140   31.6910   40.2420 C   0  0  1  0  0  3  0  0  0  0  0  0
   37.9550   32.9290   39.9110 C   0  0  0  0  0  3  0  0  0  0  0  0
   36.9120   32.9560   40.2340 H   0  0  0  0  0  0  0  0  0  0  0  0
   38.8210   34.0360   40.4590 C   0  0  0  0  0  3  0  0  0  0  0  0
   38.8800   34.9230   39.7930 H   0  0  0  0  0  0  0  0  0  0  0  0
   40.0810   33.5340   40.6660 O   0  0  0  0  0  0  0  0  0  0  0  0
   40.1240   32.2000   40.3610 C   0  0  0  0  0  3  0  0  0  0  0  0
   40.6720   31.5680   41.0860 H   0  0  0  0  0  0  0  0  0  0  0  0
  1  5  1  0  0  0  0
  1  3  1  0  0  0  0
  2  1  1  0  0  0  0
  4  5  2  0  0  0  0
  4  6  1  0  0  0  0
  7  9  1  0  0  0  0
  7  6  1  0  0  0  0
  8  7  1  0  0  0  0
 10 16  1  0  0  0  0
 11 10  1  0  0  0  0
 11  7  1  0  0  0  0
 12 11  2  0  0  0  0
 13 14  2  0  0  0  0
 13 12  1  0  0  0  0
 14 15  1  0  0  0  0
 15 10  2  0  0  0  0
 17 12  1  0  0  0  0
 18 14  1  0  0  0  0
 19  1  1  0  0  0  0
 21 20  2  6  0  0  0
 21 24  1  0  0  0  0
 21 22  1  0  0  0  0
 21 19  1  0  0  0  0
 23 22  1  0  0  0  0
 25 31  1  0  0  0  0
 25 24  1  1  0  0  0
 26 27  1  0  0  0  0
 26 25  1  0  0  0  0
 26 28  1  0  0  0  0
 28 30  1  0  0  0  0
 29 28  1  0  0  0  0
 31 30  1  0  0  0  0
 31 32  1  0  0  0  0
M  END
>  <minimizedAffinity>
-4.70545149

$$$$

 OpenBabel03252504313D

 32 33  0  0  1  0  0  0  0  0999 V2000
   35.7380   29.9500   40.5420 C   0  0  0  0  0  0  0  0  0  0  0  0
   34.6480   30.1020   40.5650 H   0  0  0  0  0  0  0  0  0  0  0  0
   36.0910   29.7020   39.5020 H   0  0  0  0  0  0  0  0  0  0  0  0
   37.0740   28.7420   42.3470 C   0  0  0  0  0  3  0  0  0  0  0  0
   36.1380   28.7500   41.3890 C   0  0  0  0  0  3  0  0  0  0  0  0
   37.2780   27.5390   43.0030 O   0  0  0  0  0  0  0  0  0  0  0  0
   38.4350   26.7970   43.0370 C   0  0  0  0  0  0  0  0  0  0  0  0
   39.2910   27.4200   42.6270 H   0  0  0  0  0  0  0  0  0  0  0  0
   38.7060   26.5360   44.0610 H   0  0  0  0  0  0  0  0  0  0  0  0
   37.0400   25.1170   42.0380 C   0  0  0  0  0  0  0  0  0  0  0  0
   38.3640   25.5470   42.2400 C   0  0  0  0  0  0  0  0  0  0  0  0
   39.3700   24.8030   41.6980 C   0  0  0  0  0  0  0  0  0  0  0  0
   39.0350   23.7130   41.0110 N   0  0  0  0  0  0  0  0  0  0  0  0
   37.7730   23.2990   40.8180 C   0  0  0  0  0  0  0  0  0  0  0  0
   36.6850   24.0020   41.3370 N   0  0  0  0  0  0  0  0  0  0  0  0
   36.1640   25.6260   42.4190 H   0  0  0  0  0  0  0  0  0  0  0  0
   40.3460   25.1910   41.8930 H   0  0  0  0  0  0  0  0  0  0  0  0
   37.5590   22.4060   40.2510 H   0  0  0  0  0  0  0  0  0  0  0  0
   36.3710   31.0450   41.0510 O   0  0  0  0  0  0  0  0  0  0  0  0
   36.8480   31.5150   38.4820 O   0  0  0  0  0  0  0  0  0  0  0  0
   37.2640   31.8790   39.8800 P   0  0  1  0  0  0  0  0  0  0  0  0
   37.0300   33.5530   40.0680 O   0  0  0  0  0  0  0  0  0  0  0  0
   37.3310   34.0520   39.2880 H   0  0  0  0  0  0  0  0  0  0  0  0
   38.8980   31.5640   40.0620 O   0  0  0  0  0  0  0  0  0  0  0  0
   39.5110   32.1040   41.1470 C   0  0  1  0  0  3  0  0  0  0  0  0
   39.8150   31.1960   42.2880 C   0  0  0  0  0  3  0  0  0  0  0  0
   39.1920   30.3040   42.3750 H   0  0  0  0  0  0  0  0  0  0  0  0
   41.2940   30.9310   42.1490 C   0  0  0  0  0  3  0  0  0  0  0  0
   41.8370   30.9280   43.1180 H   0  0  0  0  0  0  0  0  0  0  0  0
   41.8280   31.8920   41.3280 O   0  0  0  0  0  0  0  0  0  0  0  0
   40.8480   32.7320   40.8700 C   0  0  0  0  0  3  0  0  0  0  0  0
   40.9090   32.9840   39.7930 H   0  0  0  0  0  0  0  0  0  0  0  0
  1  2  1  0  0  0  0
  1 19  1  0  0  0  0
  1  5  1  0  0  0  0
  3  1  1  0  0  0  0
  4  6  1  0  0  0  0
  5  4  2  0  0  0  0
  6  7  1  0  0  0  0
  7  9  1  0  0  0  0
  8  7  1  0  0  0  0
 10 11  1  0  0  0  0
 10 16  1  0  0  0  0
 11  7  1  0  0  0  0
 12 17  1  0  0  0  0
 12 11  2  0  0  0  0
 13 12  1  0  0  0  0
 14 13  2  0  0  0  0
 14 15  1  0  0  0  0
 15 10  2  0  0  0  0
 18 14  1  0  0  0  0
 21 20  2  6  0  0  0
 21 24  1  0  0  0  0
 21 22  1  0  0  0  0
 21 19  1  0  0  0  0
 23 22  1  0  0  0  0
 25 24  1  6  0  0  0
 25 26  1  0  0  0  0
 26 27  1  0  0  0  0
 28 26  1  0  0  0  0
 28 29  1  0  0  0  0
 30 28  1  0  0  0  0
 31 25  1  0  0  0  0
 31 30  1  0  0  0  0
 32 31  1  0  0  0  0
M  END
>  <minimizedAffinity>
-4.55953121

$$$$

 OpenBabel03252504313D

 32 33  0  0  1  0  0  0  0  0999 V2000
   36.0540   28.4610   38.2580 C   0  0  0  0  0  0  0  0  0  0  0  0
   35.1100   28.1520   37.7840 H   0  0  0  0  0  0  0  0  0  0  0  0
   36.9410   28.0400   37.7070 H   0  0  0  0  0  0  0  0  0  0  0  0
   36.2150   28.6180   40.7980 C   0  0  0  0  0  3  0  0  0  0  0  0
   36.1650   27.8990   39.6690 C   0  0  0  0  0  3  0  0  0  0  0  0
   36.3100   27.9040   41.9810 O   0  0  0  0  0  0  0  0  0  0  0  0
   37.2680   28.0400   42.9580 C   0  0  0  0  0  0  0  0  0  0  0  0
   37.8920   28.9630   42.7440 H   0  0  0  0  0  0  0  0  0  0  0  0
   36.8120   28.1960   43.9380 H   0  0  0  0  0  0  0  0  0  0  0  0
   37.7020   25.7520   42.3710 C   0  0  0  0  0  0  0  0  0  0  0  0
   38.1910   26.8820   43.0530 C   0  0  0  0  0  0  0  0  0  0  0  0
   39.3980   26.7810   43.6790 C   0  0  0  0  0  0  0  0  0  0  0  0
   40.0390   25.6160   43.6060 N   0  0  0  0  0  0  0  0  0  0  0  0
   39.5750   24.5370   42.9580 C   0  0  0  0  0  0  0  0  0  0  0  0
   38.3500   24.5540   42.2900 N   0  0  0  0  0  0  0  0  0  0  0  0
   36.7600   25.7160   41.8400 H   0  0  0  0  0  0  0  0  0  0  0  0
   39.7030   27.6770   44.1740 H   0  0  0  0  0  0  0  0  0  0  0  0
   40.1390   23.6160   42.9310 H   0  0  0  0  0  0  0  0  0  0  0  0
   36.1030   29.8210   38.3480 O   0  0  0  0  0  0  0  0  0  0  0  0
   38.6870   29.6970   37.7520 O   0  0  0  0  0  0  0  0  0  0  0  0
   37.4240   30.4770   37.5180 P   0  0  1  0  0  0  0  0  0  0  0  0
   37.1120   30.4630   35.8460 O   0  0  0  0  0  0  0  0  0  0  0  0
   37.9210   30.6110   35.3240 H   0  0  0  0  0  0  0  0  0  0  0  0
   37.6710   32.0670   37.9830 O   0  0  0  0  0  0  0  0  0  0  0  0
   37.2120   32.4270   39.2100 C   0  0  1  0  0  3  0  0  0  0  0  0
   37.9050   31.8550   40.3980 C   0  0  0  0  0  3  0  0  0  0  0  0
   38.4280   30.9090   40.2430 H   0  0  0  0  0  0  0  0  0  0  0  0
   38.7700   32.9900   40.8860 C   0  0  0  0  0  3  0  0  0  0  0  0
   38.7910   33.0870   41.9930 H   0  0  0  0  0  0  0  0  0  0  0  0
   38.3040   34.1560   40.3340 O   0  0  0  0  0  0  0  0  0  0  0  0
   37.2540   33.9030   39.4920 C   0  0  0  0  0  3  0  0  0  0  0  0
   37.2790   34.4500   38.5290 H   0  0  0  0  0  0  0  0  0  0  0  0
  1 19  1  0  0  0  0
  1  5  1  0  0  0  0
  2  1  1  0  0  0  0
  3  1  1  0  0  0  0
  4  6  1  0  0  0  0
  5  4  2  0  0  0  0
  6  7  1  0  0  0  0
  7 11  1  0  0  0  0
  7  9  1  0  0  0  0
  8  7  1  0  0  0  0
 10 11  1  0  0  0  0
 11 12  2  0  0  0  0
 12 17  1  0  0  0  0
 13 12  1  0  0  0  0
 14 13  2  0  0  0  0
 15 10  2  0  0  0  0
 15 14  1  0  0  0  0
 16 10  1  0  0  0  0
 18 14  1  0  0  0  0
 21 20  2  1  0  0  0
 21 24  1  0  0  0  0
 21 19  1  0  0  0  0
 22 21  1  0  0  0  0
 23 22  1  0  0  0  0
 25 24  1  6  0  0  0
 25 31  1  0  0  0  0
 25 26  1  0  0  0  0
 26 28  1  0  0  0  0
 27 26  1  0  0  0  0
 28 29  1  0  0  0  0
 30 28  1  0  0  0  0
 31 30  1  0  0  0  0
 32 31  1  0  0  0  0
M  END
>  <minimizedAffinity>
-4.51788712

$$$$

 OpenBabel03252504313D

 32 33  0  0  1  0  0  0  0  0999 V2000
   36.8820   31.3900   40.7930 C   0  0  0  0  0  0  0  0  0  0  0  0
   36.5980   32.2370   41.4360 H   0  0  0  0  0  0  0  0  0  0  0  0
   36.1020   31.2010   40.0030 H   0  0  0  0  0  0  0  0  0  0  0  0
   37.9560   29.7190   42.3920 C   0  0  0  0  0  3  0  0  0  0  0  0
   36.9480   30.0970   41.5950 C   0  0  0  0  0  3  0  0  0  0  0  0
   37.8100   28.5010   43.0370 O   0  0  0  0  0  0  0  0  0  0  0  0
   38.7410   27.4920   43.1240 C   0  0  0  0  0  0  0  0  0  0  0  0
   39.6890   27.8090   42.5870 H   0  0  0  0  0  0  0  0  0  0  0  0
   39.0210   27.3030   44.1610 H   0  0  0  0  0  0  0  0  0  0  0  0
   39.3640   25.3780   42.1700 C   0  0  0  0  0  0  0  0  0  0  0  0
   38.2880   26.2120   42.5230 C   0  0  0  0  0  0  0  0  0  0  0  0
   37.0230   25.7610   42.2880 C   0  0  0  0  0  0  0  0  0  0  0  0
   36.8860   24.5570   41.7370 N   0  0  0  0  0  0  0  0  0  0  0  0
   37.9110   23.7590   41.3990 C   0  0  0  0  0  0  0  0  0  0  0  0
   39.2360   24.1430   41.6050 N   0  0  0  0  0  0  0  0  0  0  0  0
   40.4080   25.6300   42.3090 H   0  0  0  0  0  0  0  0  0  0  0  0
   36.2600   26.4480   42.5810 H   0  0  0  0  0  0  0  0  0  0  0  0
   37.7410   22.7900   40.9540 H   0  0  0  0  0  0  0  0  0  0  0  0
   38.1160   31.6080   40.2560 O   0  0  0  0  0  0  0  0  0  0  0  0
   37.3610   34.0470   39.5290 O   0  0  0  0  0  0  0  0  0  0  0  0
   38.4860   33.2540   40.1330 P   0  0  1  0  0  0  0  0  0  0  0  0
   38.7900   33.8890   41.6810 O   0  0  0  0  0  0  0  0  0  0  0  0
   38.7780   34.8630   41.6840 H   0  0  0  0  0  0  0  0  0  0  0  0
   39.8640   33.4730   39.2070 O   0  0  0  0  0  0  0  0  0  0  0  0
   40.5020   32.3520   38.7800 C   0  0  1  0  0  3  0  0  0  0  0  0
   40.7590   32.2210   37.3190 C   0  0  0  0  0  3  0  0  0  0  0  0
   40.0920   32.7790   36.6590 H   0  0  0  0  0  0  0  0  0  0  0  0
   42.2220   32.5600   37.1830 C   0  0  0  0  0  3  0  0  0  0  0  0
   42.7640   31.9070   36.4640 H   0  0  0  0  0  0  0  0  0  0  0  0
   42.8050   32.4600   38.4200 O   0  0  0  0  0  0  0  0  0  0  0  0
   41.8690   32.1400   39.3680 C   0  0  0  0  0  3  0  0  0  0  0  0
   41.9440   32.7100   40.3150 H   0  0  0  0  0  0  0  0  0  0  0  0
  1  2  1  0  0  0  0
  1  5  1  0  0  0  0
  3  1  1  0  0  0  0
  4  6  1  0  0  0  0
  5  4  2  0  0  0  0
  6  7  1  0  0  0  0
  7  9  1  0  0  0  0
  8  7  1  0  0  0  0
 10 16  1  0  0  0  0
 10 11  1  0  0  0  0
 11  7  1  0  0  0  0
 12 11  2  0  0  0  0
 12 17  1  0  0  0  0
 13 12  1  0  0  0  0
 14 15  1  0  0  0  0
 14 13  2  0  0  0  0
 15 10  2  0  0  0  0
 18 14  1  0  0  0  0
 19  1  1  0  0  0  0
 21 20  2  6  0  0  0
 21 19  1  0  0  0  0
 21 22  1  0  0  0  0
 22 23  1  0  0  0  0
 24 21  1  0  0  0  0
 25 24  1  6  0  0  0
 25 31  1  0  0  0  0
 26 25  1  0  0  0  0
 27 26  1  0  0  0  0
 28 26  1  0  0  0  0
 28 30  1  0  0  0  0
 29 28  1  0  0  0  0
 30 31  1  0  0  0  0
 31 32  1  0  0  0  0
M  END
>  <minimizedAffinity>
-4.42691326

$$$$

 OpenBabel03252504313D

 32 33  0  0  1  0  0  0  0  0999 V2000
   37.5000   28.9240   43.3790 C   0  0  0  0  0  0  0  0  0  0  0  0
   37.5890   29.5660   44.2680 H   0  0  0  0  0  0  0  0  0  0  0  0
   36.4600   28.5010   43.2870 H   0  0  0  0  0  0  0  0  0  0  0  0
   39.6060   27.5660   42.9100 C   0  0  0  0  0  3  0  0  0  0  0  0
   38.4080   27.7080   43.4920 C   0  0  0  0  0  3  0  0  0  0  0  0
   40.2740   26.3760   43.1500 O   0  0  0  0  0  0  0  0  0  0  0  0
   39.7250   25.1180   43.2290 C   0  0  0  0  0  0  0  0  0  0  0  0
   40.5230   24.3800   43.5540 H   0  0  0  0  0  0  0  0  0  0  0  0
   38.9390   25.0780   43.9860 H   0  0  0  0  0  0  0  0  0  0  0  0
   37.8290   24.1940   42.0790 C   0  0  0  0  0  0  0  0  0  0  0  0
   39.1590   24.6330   41.9450 C   0  0  0  0  0  0  0  0  0  0  0  0
   39.7330   24.5700   40.7100 C   0  0  0  0  0  0  0  0  0  0  0  0
   38.9990   24.0950   39.7070 N   0  0  0  0  0  0  0  0  0  0  0  0
   37.7300   23.6750   39.8320 C   0  0  0  0  0  0  0  0  0  0  0  0
   37.0670   23.7060   41.0590 N   0  0  0  0  0  0  0  0  0  0  0  0
   37.2720   24.1980   43.0070 H   0  0  0  0  0  0  0  0  0  0  0  0
   40.7430   24.9200   40.6870 H   0  0  0  0  0  0  0  0  0  0  0  0
   37.1810   23.2990   38.9830 H   0  0  0  0  0  0  0  0  0  0  0  0
   37.8720   29.6170   42.2660 O   0  0  0  0  0  0  0  0  0  0  0  0
   35.7420   28.4940   41.1480 O   0  0  0  0  0  0  0  0  0  0  0  0
   36.6370   29.7010   41.1120 P   0  0  1  0  0  0  0  0  0  0  0  0
   35.6700   31.0680   41.4080 O   0  0  0  0  0  0  0  0  0  0  0  0
   34.8270   31.0290   40.9220 H   0  0  0  0  0  0  0  0  0  0  0  0
   37.2870   29.8520   39.5750 O   0  0  0  0  0  0  0  0  0  0  0  0
   36.8450   28.9790   38.6330 C   0  0  1  0  0  3  0  0  0  0  0  0
   35.9150   29.5020   37.5940 C   0  0  0  0  0  3  0  0  0  0  0  0
   35.3330   30.3850   37.8660 H   0  0  0  0  0  0  0  0  0  0  0  0
   36.7950   29.6680   36.3800 C   0  0  0  0  0  3  0  0  0  0  0  0
   36.3060   29.3530   35.4320 H   0  0  0  0  0  0  0  0  0  0  0  0
   37.9370   28.9330   36.5720 O   0  0  0  0  0  0  0  0  0  0  0  0
   37.9260   28.3410   37.8070 C   0  0  0  0  0  3  0  0  0  0  0  0
   38.8820   28.3960   38.3640 H   0  0  0  0  0  0  0  0  0  0  0  0
  1  5  1  0  0  0  0
  1  2  1  0  0  0  0
  3  1  1  0  0  0  0
  4  6  1  0  0  0  0
  4  5  2  0  0  0  0
  6  7  1  0  0  0  0
  7  8  1  0  0  0  0
  7  9  1  0  0  0  0
 10 16  1  0  0  0  0
 11 10  1  0  0  0  0
 11  7  1  0  0  0  0
 12 11  2  0  0  0  0
 13 14  2  0  0  0  0
 13 12  1  0  0  0  0
 14 15  1  0  0  0  0
 15 10  2  0  0  0  0
 17 12  1  0  0  0  0
 18 14  1  0  0  0  0
 19  1  1  0  0  0  0
 21 20  2  1  0  0  0
 21 22  1  0  0  0  0
 21 19  1  0  0  0  0
 23 22  1  0  0  0  0
 24 21  1  0  0  0  0
 25 24  1  6  0  0  0
 26 27  1  0  0  0  0
 26 25  1  0  0  0  0
 28 30  1  0  0  0  0
 28 26  1  0  0  0  0
 29 28  1  0  0  0  0
 30 31  1  0  0  0  0
 31 32  1  0  0  0  0
 31 25  1  0  0  0  0
M  END
>  <minimizedAffinity>
-4.42672825

$$$$

 OpenBabel03252504313D

 32 33  0  0  1  0  0  0  0  0999 V2000
   36.7280   31.6780   39.8030 C   0  0  0  0  0  0  0  0  0  0  0  0
   37.6080   32.2860   40.0650 H   0  0  0  0  0  0  0  0  0  0  0  0
   35.7910   32.3040   39.7940 H   0  0  0  0  0  0  0  0  0  0  0  0
   37.4020   30.0360   41.6320 C   0  0  0  0  0  3  0  0  0  0  0  0
   36.4740   30.6070   40.8540 C   0  0  0  0  0  3  0  0  0  0  0  0
   36.9530   29.0820   42.5320 O   0  0  0  0  0  0  0  0  0  0  0  0
   37.6470   28.5490   43.5920 C   0  0  0  0  0  0  0  0  0  0  0  0
   38.5040   29.2420   43.8650 H   0  0  0  0  0  0  0  0  0  0  0  0
   37.0160   28.4740   44.4790 H   0  0  0  0  0  0  0  0  0  0  0  0
   37.3570   26.4040   42.5520 C   0  0  0  0  0  0  0  0  0  0  0  0
   38.2220   27.2090   43.3140 C   0  0  0  0  0  0  0  0  0  0  0  0
   39.4280   26.6870   43.6800 C   0  0  0  0  0  0  0  0  0  0  0  0
   39.7090   25.4450   43.2920 N   0  0  0  0  0  0  0  0  0  0  0  0
   38.8860   24.6750   42.5650 C   0  0  0  0  0  0  0  0  0  0  0  0
   37.6340   25.1310   42.1480 N   0  0  0  0  0  0  0  0  0  0  0  0
   36.3780   26.7120   42.2050 H   0  0  0  0  0  0  0  0  0  0  0  0
   40.0290   27.3560   44.2560 H   0  0  0  0  0  0  0  0  0  0  0  0
   39.1660   23.6730   42.2770 H   0  0  0  0  0  0  0  0  0  0  0  0
   36.9360   31.0490   38.6120 O   0  0  0  0  0  0  0  0  0  0  0  0
   39.2540   30.2270   37.6120 O   0  0  0  0  0  0  0  0  0  0  0  0
   38.4310   31.4450   37.9240 P   0  0  1  0  0  0  0  0  0  0  0  0
   38.1840   32.2860   36.4660 O   0  0  0  0  0  0  0  0  0  0  0  0
   38.9950   32.3280   35.9290 H   0  0  0  0  0  0  0  0  0  0  0  0
   39.2990   32.4410   38.9530 O   0  0  0  0  0  0  0  0  0  0  0  0
   40.5660   32.0550   39.2580 C   0  0  1  0  0  3  0  0  0  0  0  0
   41.6240   33.1020   39.2470 C   0  0  0  0  0  3  0  0  0  0  0  0
   41.4330   33.9770   38.6220 H   0  0  0  0  0  0  0  0  0  0  0  0
   41.8460   33.4000   40.7090 C   0  0  0  0  0  3  0  0  0  0  0  0
   42.9160   33.5370   40.9760 H   0  0  0  0  0  0  0  0  0  0  0  0
   41.3200   32.3680   41.4440 O   0  0  0  0  0  0  0  0  0  0  0  0
   40.7290   31.4450   40.6220 C   0  0  0  0  0  3  0  0  0  0  0  0
   39.7460   31.0690   40.9660 H   0  0  0  0  0  0  0  0  0  0  0  0
  1  2  1  0  0  0  0
  1  5  1  0  0  0  0
  3  1  1  0  0  0  0
  4  6  1  0  0  0  0
  5  4  2  0  0  0  0
  6  7  1  0  0  0  0
  7  8  1  0  0  0  0
  7  9  1  0  0  0  0
 10 11  1  0  0  0  0
 11  7  1  0  0  0  0
 11 12  2  0  0  0  0
 12 17  1  0  0  0  0
 13 12  1  0  0  0  0
 14 13  2  0  0  0  0
 15 10  2  0  0  0  0
 15 14  1  0  0  0  0
 16 10  1  0  0  0  0
 18 14  1  0  0  0  0
 19  1  1  0  0  0  0
 21 20  2  6  0  0  0
 21 19  1  0  0  0  0
 21 24  1  0  0  0  0
 22 21  1  0  0  0  0
 23 22  1  0  0  0  0
 25 24  1  1  0  0  0
 25 31  1  0  0  0  0
 26 25  1  0  0  0  0
 26 28  1  0  0  0  0
 27 26  1  0  0  0  0
 28 29  1  0  0  0  0
 28 30  1  0  0  0  0
 31 32  1  0  0  0  0
 31 30  1  0  0  0  0
M  END
>  <minimizedAffinity>
-4.42499352

$$$$

 OpenBabel03252504313D

 32 33  0  0  1  0  0  0  0  0999 V2000
   39.5180   31.6390   40.1010 C   0  0  0  0  0  0  0  0  0  0  0  0
   40.5560   31.9450   40.2990 H   0  0  0  0  0  0  0  0  0  0  0  0
   38.8230   32.5250   40.1230 H   0  0  0  0  0  0  0  0  0  0  0  0
   39.4470   30.6680   42.4570 C   0  0  0  0  0  3  0  0  0  0  0  0
   39.0050   30.7110   41.1930 C   0  0  0  0  0  3  0  0  0  0  0  0
   38.8360   29.7490   43.2950 O   0  0  0  0  0  0  0  0  0  0  0  0
   37.9700   28.7440   42.9330 C   0  0  0  0  0  0  0  0  0  0  0  0
   37.0650   28.7650   43.6160 H   0  0  0  0  0  0  0  0  0  0  0  0
   37.5960   28.8920   41.9180 H   0  0  0  0  0  0  0  0  0  0  0  0
   37.8390   26.4370   42.2750 C   0  0  0  0  0  0  0  0  0  0  0  0
   38.5670   27.3870   43.0150 C   0  0  0  0  0  0  0  0  0  0  0  0
   39.6810   26.9650   43.6790 C   0  0  0  0  0  0  0  0  0  0  0  0
   40.0100   25.6790   43.5850 N   0  0  0  0  0  0  0  0  0  0  0  0
   39.3170   24.7710   42.8800 C   0  0  0  0  0  0  0  0  0  0  0  0
   38.1660   25.1170   42.1710 N   0  0  0  0  0  0  0  0  0  0  0  0
   36.9410   26.6560   41.7100 H   0  0  0  0  0  0  0  0  0  0  0  0
   40.1800   27.7410   44.2180 H   0  0  0  0  0  0  0  0  0  0  0  0
   39.6310   23.7390   42.8380 H   0  0  0  0  0  0  0  0  0  0  0  0
   39.4510   30.9630   38.9190 O   0  0  0  0  0  0  0  0  0  0  0  0
   37.3110   32.5080   38.6300 O   0  0  0  0  0  0  0  0  0  0  0  0
   38.1930   31.5130   37.9290 P   0  0  1  0  0  0  0  0  0  0  0  0
   38.8390   32.2770   36.5540 O   0  0  0  0  0  0  0  0  0  0  0  0
   38.1690   32.8030   36.0820 H   0  0  0  0  0  0  0  0  0  0  0  0
   37.2560   30.2250   37.4110 O   0  0  0  0  0  0  0  0  0  0  0  0
   36.2960   29.7810   38.2640 C   0  0  1  0  0  3  0  0  0  0  0  0
   35.0580   29.2070   37.6660 C   0  0  0  0  0  3  0  0  0  0  0  0
   34.8100   29.5400   36.6560 H   0  0  0  0  0  0  0  0  0  0  0  0
   35.2450   27.7190   37.8190 C   0  0  0  0  0  3  0  0  0  0  0  0
   34.3180   27.1840   38.1200 H   0  0  0  0  0  0  0  0  0  0  0  0
   36.2230   27.5010   38.7560 O   0  0  0  0  0  0  0  0  0  0  0  0
   36.7370   28.6910   39.2000 C   0  0  0  0  0  3  0  0  0  0  0  0
   37.8400   28.7230   39.2920 H   0  0  0  0  0  0  0  0  0  0  0  0
  1  3  1  0  0  0  0
  1  2  1  0  0  0  0
  1  5  1  0  0  0  0
  4  6  1  0  0  0  0
  5  4  2  0  0  0  0
  7 11  1  0  0  0  0
  7  6  1  0  0  0  0
  7  8  1  0  0  0  0
  9  7  1  0  0  0  0
 10 11  1  0  0  0  0
 11 12  2  0  0  0  0
 12 17  1  0  0  0  0
 13 12  1  0  0  0  0
 14 13  2  0  0  0  0
 15 10  2  0  0  0  0
 15 14  1  0  0  0  0
 16 10  1  0  0  0  0
 18 14  1  0  0  0  0
 19  1  1  0  0  0  0
 21 20  2  1  0  0  0
 21 19  1  0  0  0  0
 22 21  1  0  0  0  0
 23 22  1  0  0  0  0
 24 21  1  0  0  0  0
 25 24  1  6  0  0  0
 25 31  1  0  0  0  0
 26 28  1  0  0  0  0
 26 25  1  0  0  0  0
 27 26  1  0  0  0  0
 28 29  1  0  0  0  0
 28 30  1  0  0  0  0
 30 31  1  0  0  0  0
 31 32  1  0  0  0  0
M  END
>  <minimizedAffinity>
-4.31493521

$$$$

 OpenBabel03252504313D

 32 33  0  0  1  0  0  0  0  0999 V2000
   36.1290   29.8050   38.7060 C   0  0  0  0  0  0  0  0  0  0  0  0
   35.3060   30.2180   39.3090 H   0  0  0  0  0  0  0  0  0  0  0  0
   36.0350   30.1140   37.6270 H   0  0  0  0  0  0  0  0  0  0  0  0
   36.7580   27.4880   37.8480 C   0  0  0  0  0  3  0  0  0  0  0  0
   36.0790   28.2830   38.6840 C   0  0  0  0  0  3  0  0  0  0  0  0
   36.5710   26.1230   38.0040 O   0  0  0  0  0  0  0  0  0  0  0  0
   36.1870   25.4640   39.1480 C   0  0  0  0  0  0  0  0  0  0  0  0
   35.5020   26.1350   39.7560 H   0  0  0  0  0  0  0  0  0  0  0  0
   35.6120   24.5670   38.9120 H   0  0  0  0  0  0  0  0  0  0  0  0
   36.8960   24.5340   41.2460 C   0  0  0  0  0  0  0  0  0  0  0  0
   37.3240   25.0730   40.0200 C   0  0  0  0  0  0  0  0  0  0  0  0
   38.6650   25.1580   39.7900 C   0  0  0  0  0  0  0  0  0  0  0  0
   39.4870   24.7250   40.7440 N   0  0  0  0  0  0  0  0  0  0  0  0
   39.0820   24.2110   41.9150 C   0  0  0  0  0  0  0  0  0  0  0  0
   37.7280   24.0870   42.2310 N   0  0  0  0  0  0  0  0  0  0  0  0
   35.8590   24.4170   41.5380 H   0  0  0  0  0  0  0  0  0  0  0  0
   38.9130   25.5770   38.8390 H   0  0  0  0  0  0  0  0  0  0  0  0
   39.7930   23.8750   42.6540 H   0  0  0  0  0  0  0  0  0  0  0  0
   37.3270   30.1720   39.2420 O   0  0  0  0  0  0  0  0  0  0  0  0
   37.6580   32.3300   40.7520 O   0  0  0  0  0  0  0  0  0  0  0  0
   37.1600   30.9120   40.7540 P   0  0  1  0  0  0  0  0  0  0  0  0
   35.5180   30.9440   41.1960 O   0  0  0  0  0  0  0  0  0  0  0  0
   35.3520   31.5560   41.9350 H   0  0  0  0  0  0  0  0  0  0  0  0
   37.9910   30.0440   41.9210 O   0  0  0  0  0  0  0  0  0  0  0  0
   38.0040   28.6920   41.7890 C   0  0  1  0  0  3  0  0  0  0  0  0
   39.1170   27.9480   42.4410 C   0  0  0  0  0  3  0  0  0  0  0  0
   40.0370   28.5100   42.6140 H   0  0  0  0  0  0  0  0  0  0  0  0
   38.4810   27.3690   43.6800 C   0  0  0  0  0  3  0  0  0  0  0  0
   38.8020   26.3270   43.8970 H   0  0  0  0  0  0  0  0  0  0  0  0
   37.1180   27.4040   43.5210 O   0  0  0  0  0  0  0  0  0  0  0  0
   36.7880   27.9930   42.3300 C   0  0  0  0  0  3  0  0  0  0  0  0
   35.9510   28.7170   42.3780 H   0  0  0  0  0  0  0  0  0  0  0  0
  1 19  1  0  0  0  0
  1  2  1  0  0  0  0
  3  1  1  0  0  0  0
  4  6  1  0  0  0  0
  4  5  2  0  0  0  0
  5  1  1  0  0  0  0
  6  7  1  0  0  0  0
  7  8  1  0  0  0  0
  7 11  1  0  0  0  0
  9  7  1  0  0  0  0
 10 16  1  0  0  0  0
 10 15  1  0  0  0  0
 11 10  2  0  0  0  0
 12 11  1  0  0  0  0
 12 13  2  0  0  0  0
 13 14  1  0  0  0  0
 14 15  2  0  0  0  0
 14 18  1  0  0  0  0
 17 12  1  0  0  0  0
 19 21  1  0  0  0  0
 21 20  2  6  0  0  0
 21 22  1  0  0  0  0
 21 24  1  0  0  0  0
 22 23  1  0  0  0  0
 25 24  1  1  0  0  0
 25 31  1  0  0  0  0
 25 26  1  0  0  0  0
 26 27  1  0  0  0  0
 26 28  1  0  0  0  0
 28 29  1  0  0  0  0
 30 28  1  0  0  0  0
 31 32  1  0  0  0  0
 31 30  1  0  0  0  0
M  END
>  <minimizedAffinity>
-4.2604928

$$$$
