
 OpenBabel03242520463D

 21 22  0  0  1  0  0  0  0  0999 V2000
   36.8800   30.2470   41.4010 C   0  0  0  0  0  0  0  0  0  0  0  0
   36.9310   28.9010   41.8370 C   0  0  0  0  0  0  0  0  0  0  0  0
   38.1740   28.2760   41.9100 C   0  0  0  0  0  0  0  0  0  0  0  0
   39.2690   28.9710   41.5650 N   0  0  0  0  0  0  0  0  0  0  0  0
   39.1960   30.2690   41.1480 C   0  0  0  0  0  0  0  0  0  0  0  0
   38.0040   30.8880   41.0720 N   0  0  0  0  0  0  0  0  0  0  0  0
   35.6360   30.9010   41.3190 N   0  0  0  0  0  0  0  0  0  0  0  0
   36.0020   28.4070   42.0980 H   0  0  0  0  0  0  0  0  0  0  0  0
   40.1520   30.7040   40.9040 H   0  0  0  0  0  0  0  0  0  0  0  0
   35.2550   31.4040   40.4850 H   0  0  0  0  0  0  0  0  0  0  0  0
   35.1260   30.8090   42.2450 H   0  0  0  0  0  0  0  0  0  0  0  0
   38.1470   26.9190   42.3580 C   0  0  0  0  0  0  0  0  0  0  0  0
   38.8010   26.4560   43.3180 O   0  0  0  0  0  0  0  0  0  0  0  0
   37.2160   26.0780   41.5220 C   0  0  2  0  0  3  0  0  0  0  0  0
   36.9220   24.7580   42.1610 C   0  0  0  0  0  3  0  0  0  0  0  0
   37.2440   24.7500   43.2210 H   0  0  0  0  0  0  0  0  0  0  0  0
   37.7030   23.7920   41.2920 C   0  0  0  0  0  3  0  0  0  0  0  0
   37.3020   22.7640   41.3780 H   0  0  0  0  0  0  0  0  0  0  0  0
   37.5600   24.3310   40.0290 O   0  0  0  0  0  0  0  0  0  0  0  0
   37.9260   25.6600   40.2320 C   0  0  0  0  0  3  0  0  0  0  0  0
   37.6700   26.3270   39.3850 H   0  0  0  0  0  0  0  0  0  0  0  0
  1  2  1  0  0  0  0
  2  3  2  0  0  0  0
  2  8  1  0  0  0  0
  3 12  1  0  0  0  0
  4  3  1  0  0  0  0
  5  4  2  0  0  0  0
  6  5  1  0  0  0  0
  6  1  2  0  0  0  0
  7  1  1  0  0  0  0
  7 11  1  0  0  0  0
  9  5  1  0  0  0  0
 10  7  1  0  0  0  0
 12 13  2  0  0  0  0
 14 15  1  0  0  0  0
 14 12  1  1  0  0  0
 15 16  1  0  0  0  0
 17 18  1  0  0  0  0
 17 15  1  0  0  0  0
 19 20  1  0  0  0  0
 19 17  1  0  0  0  0
 20 14  1  0  0  0  0
 21 20  1  0  0  0  0
M  END
>  <minimizedAffinity>
-4.38616991

$$$$

 OpenBabel03242520463D

 21 22  0  0  1  0  0  0  0  0999 V2000
   37.9010   33.1910   40.0180 C   0  0  0  0  0  0  0  0  0  0  0  0
   37.5330   31.8340   40.1860 C   0  0  0  0  0  0  0  0  0  0  0  0
   38.4930   30.9440   40.6630 C   0  0  0  0  0  0  0  0  0  0  0  0
   39.7220   31.4050   40.9410 N   0  0  0  0  0  0  0  0  0  0  0  0
   40.0530   32.7180   40.7720 C   0  0  0  0  0  0  0  0  0  0  0  0
   39.1390   33.5920   40.3120 N   0  0  0  0  0  0  0  0  0  0  0  0
   36.9490   34.1100   39.5380 N   0  0  0  0  0  0  0  0  0  0  0  0
   36.5210   31.5380   39.9380 H   0  0  0  0  0  0  0  0  0  0  0  0
   41.0740   32.9480   41.0350 H   0  0  0  0  0  0  0  0  0  0  0  0
   37.0690   34.7590   38.7260 H   0  0  0  0  0  0  0  0  0  0  0  0
   36.0710   34.0530   40.1300 H   0  0  0  0  0  0  0  0  0  0  0  0
   38.0500   29.5920   40.8070 C   0  0  0  0  0  0  0  0  0  0  0  0
   38.3000   28.6570   40.0160 O   0  0  0  0  0  0  0  0  0  0  0  0
   37.2250   29.4100   42.0550 C   0  0  2  0  0  3  0  0  0  0  0  0
   38.0660   29.0510   43.2390 C   0  0  0  0  0  3  0  0  0  0  0  0
   39.1410   29.2260   43.0300 H   0  0  0  0  0  0  0  0  0  0  0  0
   37.7290   27.5900   43.4520 C   0  0  0  0  0  3  0  0  0  0  0  0
   37.9540   27.2740   44.4890 H   0  0  0  0  0  0  0  0  0  0  0  0
   36.3840   27.5370   43.1450 O   0  0  0  0  0  0  0  0  0  0  0  0
   36.3400   28.1710   41.9040 C   0  0  0  0  0  3  0  0  0  0  0  0
   35.3150   28.4330   41.5740 H   0  0  0  0  0  0  0  0  0  0  0  0
  1  2  2  0  0  0  0
  1  6  1  0  0  0  0
  2  3  1  0  0  0  0
  3 12  1  0  0  0  0
  3  4  2  0  0  0  0
  5  4  1  0  0  0  0
  5  9  1  0  0  0  0
  6  5  2  0  0  0  0
  7  1  1  0  0  0  0
  7 11  1  0  0  0  0
  8  2  1  0  0  0  0
 10  7  1  0  0  0  0
 13 12  2  0  0  0  0
 14 12  1  6  0  0  0
 14 15  1  0  0  0  0
 15 17  1  0  0  0  0
 16 15  1  0  0  0  0
 17 18  1  0  0  0  0
 19 17  1  0  0  0  0
 20 14  1  0  0  0  0
 20 19  1  0  0  0  0
 21 20  1  0  0  0  0
M  END
>  <minimizedAffinity>
-4.35570669

$$$$

 OpenBabel03242520463D

 21 22  0  0  1  0  0  0  0  0999 V2000
   39.4510   32.2520   38.3630 C   0  0  0  0  0  0  0  0  0  0  0  0
   38.4870   31.4510   39.0250 C   0  0  0  0  0  0  0  0  0  0  0  0
   38.4270   31.5040   40.4150 C   0  0  0  0  0  0  0  0  0  0  0  0
   39.2790   32.3080   41.0700 N   0  0  0  0  0  0  0  0  0  0  0  0
   40.1990   33.0710   40.4110 C   0  0  0  0  0  0  0  0  0  0  0  0
   40.2720   33.0320   39.0680 N   0  0  0  0  0  0  0  0  0  0  0  0
   39.5320   32.2160   36.9580 N   0  0  0  0  0  0  0  0  0  0  0  0
   37.8350   30.8270   38.4250 H   0  0  0  0  0  0  0  0  0  0  0  0
   40.8180   33.6680   41.0620 H   0  0  0  0  0  0  0  0  0  0  0  0
   40.3930   32.0380   36.3930 H   0  0  0  0  0  0  0  0  0  0  0  0
   38.5740   32.4000   36.5430 H   0  0  0  0  0  0  0  0  0  0  0  0
   37.4310   30.6700   41.0130 C   0  0  0  0  0  0  0  0  0  0  0  0
   36.2300   30.9750   41.1770 O   0  0  0  0  0  0  0  0  0  0  0  0
   38.0030   29.3410   41.4350 C   0  0  2  0  0  3  0  0  0  0  0  0
   37.0460   28.2160   41.2010 C   0  0  0  0  0  3  0  0  0  0  0  0
   36.2100   28.5350   40.5480 H   0  0  0  0  0  0  0  0  0  0  0  0
   36.6050   27.8620   42.6070 C   0  0  0  0  0  3  0  0  0  0  0  0
   36.2090   26.8300   42.6540 H   0  0  0  0  0  0  0  0  0  0  0  0
   37.7580   28.0400   43.3440 O   0  0  0  0  0  0  0  0  0  0  0  0
   38.1630   29.3150   42.9570 C   0  0  0  0  0  3  0  0  0  0  0  0
   39.1960   29.5690   43.2680 H   0  0  0  0  0  0  0  0  0  0  0  0
  1  2  2  0  0  0  0
  1  6  1  0  0  0  0
  2  3  1  0  0  0  0
  3 12  1  0  0  0  0
  3  4  2  0  0  0  0
  5  9  1  0  0  0  0
  5  4  1  0  0  0  0
  6  5  2  0  0  0  0
  7  1  1  0  0  0  0
  8  2  1  0  0  0  0
 10  7  1  0  0  0  0
 11  7  1  0  0  0  0
 12 13  2  0  0  0  0
 14 12  1  1  0  0  0
 14 20  1  0  0  0  0
 15 14  1  0  0  0  0
 15 17  1  0  0  0  0
 16 15  1  0  0  0  0
 17 18  1  0  0  0  0
 17 19  1  0  0  0  0
 20 21  1  0  0  0  0
 20 19  1  0  0  0  0
M  END
>  <minimizedAffinity>
-4.27494144

$$$$

 OpenBabel03242520463D

 21 22  0  0  1  0  0  0  0  0999 V2000
   37.3370   32.5080   39.3520 C   0  0  0  0  0  0  0  0  0  0  0  0
   37.7510   31.6130   40.3690 C   0  0  0  0  0  0  0  0  0  0  0  0
   38.1490   30.3300   39.9980 C   0  0  0  0  0  0  0  0  0  0  0  0
   38.1240   29.9960   38.6990 N   0  0  0  0  0  0  0  0  0  0  0  0
   37.7220   30.8760   37.7360 C   0  0  0  0  0  0  0  0  0  0  0  0
   37.3340   32.1180   38.0760 N   0  0  0  0  0  0  0  0  0  0  0  0
   36.9300   33.8100   39.7020 N   0  0  0  0  0  0  0  0  0  0  0  0
   37.7420   31.9580   41.3960 H   0  0  0  0  0  0  0  0  0  0  0  0
   37.7530   30.4730   36.7360 H   0  0  0  0  0  0  0  0  0  0  0  0
   36.0320   34.2710   39.4290 H   0  0  0  0  0  0  0  0  0  0  0  0
   37.6810   34.2690   40.2930 H   0  0  0  0  0  0  0  0  0  0  0  0
   38.5530   29.4840   41.0770 C   0  0  0  0  0  0  0  0  0  0  0  0
   39.6540   28.9010   41.1710 O   0  0  0  0  0  0  0  0  0  0  0  0
   37.4730   29.3660   42.1230 C   0  0  2  0  0  3  0  0  0  0  0  0
   38.0220   28.9680   43.4560 C   0  0  0  0  0  3  0  0  0  0  0  0
   39.1250   29.0720   43.4780 H   0  0  0  0  0  0  0  0  0  0  0  0
   37.5550   27.5330   43.5880 C   0  0  0  0  0  3  0  0  0  0  0  0
   37.5360   27.2140   44.6480 H   0  0  0  0  0  0  0  0  0  0  0  0
   36.3040   27.5620   43.0040 O   0  0  0  0  0  0  0  0  0  0  0  0
   36.5620   28.1840   41.7840 C   0  0  0  0  0  3  0  0  0  0  0  0
   35.6490   28.5070   41.2460 H   0  0  0  0  0  0  0  0  0  0  0  0
  1  7  1  0  0  0  0
  1  2  1  0  0  0  0
  2  8  1  0  0  0  0
  3  2  2  0  0  0  0
  3 12  1  0  0  0  0
  4  3  1  0  0  0  0
  5  6  1  0  0  0  0
  5  4  2  0  0  0  0
  6  1  2  0  0  0  0
  7 11  1  0  0  0  0
  9  5  1  0  0  0  0
 10  7  1  0  0  0  0
 12 13  2  0  0  0  0
 14 12  1  6  0  0  0
 14 15  1  0  0  0  0
 15 16  1  0  0  0  0
 15 17  1  0  0  0  0
 17 18  1  0  0  0  0
 19 17  1  0  0  0  0
 20 14  1  0  0  0  0
 20 19  1  0  0  0  0
 21 20  1  0  0  0  0
M  END
>  <minimizedAffinity>
-4.25522089

$$$$

 OpenBabel03242520463D

 21 22  0  0  1  0  0  0  0  0999 V2000
   37.7740   31.2650   37.2110 C   0  0  0  0  0  0  0  0  0  0  0  0
   37.6820   31.2070   38.6230 C   0  0  0  0  0  0  0  0  0  0  0  0
   36.8440   30.2520   39.1930 C   0  0  0  0  0  0  0  0  0  0  0  0
   36.1580   29.4290   38.3850 N   0  0  0  0  0  0  0  0  0  0  0  0
   36.2630   29.5020   37.0260 C   0  0  0  0  0  0  0  0  0  0  0  0
   37.0680   30.4190   36.4590 N   0  0  0  0  0  0  0  0  0  0  0  0
   38.6150   32.2220   36.6120 N   0  0  0  0  0  0  0  0  0  0  0  0
   38.2670   31.9080   39.2080 H   0  0  0  0  0  0  0  0  0  0  0  0
   35.6570   28.7800   36.5020 H   0  0  0  0  0  0  0  0  0  0  0  0
   38.3420   32.9070   35.8700 H   0  0  0  0  0  0  0  0  0  0  0  0
   39.5880   32.1470   37.0260 H   0  0  0  0  0  0  0  0  0  0  0  0
   36.8020   30.2540   40.6220 C   0  0  0  0  0  0  0  0  0  0  0  0
   36.1240   31.0310   41.3290 O   0  0  0  0  0  0  0  0  0  0  0  0
   37.6900   29.1840   41.2030 C   0  0  2  0  0  3  0  0  0  0  0  0
   36.9250   28.2090   42.0400 C   0  0  0  0  0  3  0  0  0  0  0  0
   35.8340   28.3160   41.8750 H   0  0  0  0  0  0  0  0  0  0  0  0
   37.3560   28.5730   43.4460 C   0  0  0  0  0  3  0  0  0  0  0  0
   37.1950   27.7290   44.1440 H   0  0  0  0  0  0  0  0  0  0  0  0
   38.6860   28.9020   43.2840 O   0  0  0  0  0  0  0  0  0  0  0  0
   38.6390   29.8110   42.2280 C   0  0  0  0  0  3  0  0  0  0  0  0
   39.6310   30.0360   41.7890 H   0  0  0  0  0  0  0  0  0  0  0  0
  1  2  1  0  0  0  0
  2  3  2  0  0  0  0
  2  8  1  0  0  0  0
  3 12  1  0  0  0  0
  4  3  1  0  0  0  0
  5  4  2  0  0  0  0
  6  5  1  0  0  0  0
  6  1  2  0  0  0  0
  7 11  1  0  0  0  0
  7  1  1  0  0  0  0
  9  5  1  0  0  0  0
 10  7  1  0  0  0  0
 12 13  2  0  0  0  0
 14 12  1  1  0  0  0
 14 15  1  0  0  0  0
 14 20  1  0  0  0  0
 15 17  1  0  0  0  0
 16 15  1  0  0  0  0
 17 18  1  0  0  0  0
 19 17  1  0  0  0  0
 20 19  1  0  0  0  0
 21 20  1  0  0  0  0
M  END
>  <minimizedAffinity>
-4.22302246

$$$$

 OpenBabel03242520463D

 21 22  0  0  1  0  0  0  0  0999 V2000
   41.8960   32.9920   37.2830 C   0  0  0  0  0  0  0  0  0  0  0  0
   40.8180   33.1080   38.1950 C   0  0  0  0  0  0  0  0  0  0  0  0
   40.1960   31.9410   38.6340 C   0  0  0  0  0  0  0  0  0  0  0  0
   40.6410   30.7600   38.1780 N   0  0  0  0  0  0  0  0  0  0  0  0
   41.6820   30.6730   37.3000 C   0  0  0  0  0  0  0  0  0  0  0  0
   42.2940   31.7890   36.8650 N   0  0  0  0  0  0  0  0  0  0  0  0
   42.5410   34.1570   36.8250 N   0  0  0  0  0  0  0  0  0  0  0  0
   40.5170   34.0980   38.5160 H   0  0  0  0  0  0  0  0  0  0  0  0
   41.9320   29.6620   37.0190 H   0  0  0  0  0  0  0  0  0  0  0  0
   42.7090   34.4180   35.8260 H   0  0  0  0  0  0  0  0  0  0  0  0
   42.8410   34.7450   37.6540 H   0  0  0  0  0  0  0  0  0  0  0  0
   39.1180   32.1360   39.5520 C   0  0  0  0  0  0  0  0  0  0  0  0
   38.7750   33.2300   40.0500 O   0  0  0  0  0  0  0  0  0  0  0  0
   38.4150   30.8390   39.8640 C   0  0  2  0  0  3  0  0  0  0  0  0
   36.9520   30.9040   39.5590 C   0  0  0  0  0  3  0  0  0  0  0  0
   36.7140   31.7950   38.9440 H   0  0  0  0  0  0  0  0  0  0  0  0
   36.3310   30.9470   40.9400 C   0  0  0  0  0  3  0  0  0  0  0  0
   35.2750   30.6140   40.9140 H   0  0  0  0  0  0  0  0  0  0  0  0
   37.1500   30.1120   41.6720 O   0  0  0  0  0  0  0  0  0  0  0  0
   38.4180   30.6090   41.3760 C   0  0  0  0  0  3  0  0  0  0  0  0
   39.2440   29.9400   41.6910 H   0  0  0  0  0  0  0  0  0  0  0  0
  1  2  1  0  0  0  0
  2  8  1  0  0  0  0
  2  3  2  0  0  0  0
  3 12  1  0  0  0  0
  4  3  1  0  0  0  0
  5  4  2  0  0  0  0
  6  1  2  0  0  0  0
  6  5  1  0  0  0  0
  7  1  1  0  0  0  0
  7 11  1  0  0  0  0
  9  5  1  0  0  0  0
 10  7  1  0  0  0  0
 12 13  2  0  0  0  0
 14 12  1  1  0  0  0
 14 20  1  0  0  0  0
 15 14  1  0  0  0  0
 15 17  1  0  0  0  0
 16 15  1  0  0  0  0
 17 19  1  0  0  0  0
 18 17  1  0  0  0  0
 20 19  1  0  0  0  0
 20 21  1  0  0  0  0
M  END
>  <minimizedAffinity>
-4.11859274

$$$$

 OpenBabel03242520463D

 21 22  0  0  1  0  0  0  0  0999 V2000
   37.8040   31.7790   38.0110 C   0  0  0  0  0  0  0  0  0  0  0  0
   37.9310   30.5300   38.6670 C   0  0  0  0  0  0  0  0  0  0  0  0
   37.6280   30.4620   40.0240 C   0  0  0  0  0  0  0  0  0  0  0  0
   37.2290   31.5780   40.6550 N   0  0  0  0  0  0  0  0  0  0  0  0
   37.1130   32.7710   40.0020 C   0  0  0  0  0  0  0  0  0  0  0  0
   37.4020   32.8550   38.6910 N   0  0  0  0  0  0  0  0  0  0  0  0
   38.1040   31.8730   36.6390 N   0  0  0  0  0  0  0  0  0  0  0  0
   38.2600   29.6750   38.0880 H   0  0  0  0  0  0  0  0  0  0  0  0
   36.7820   33.5830   40.6320 H   0  0  0  0  0  0  0  0  0  0  0  0
   38.7600   32.5570   36.1950 H   0  0  0  0  0  0  0  0  0  0  0  0
   37.5590   31.1370   36.1060 H   0  0  0  0  0  0  0  0  0  0  0  0
   37.7800   29.1710   40.6180 C   0  0  0  0  0  0  0  0  0  0  0  0
   38.2250   28.1540   40.0430 O   0  0  0  0  0  0  0  0  0  0  0  0
   37.3320   29.1660   42.0570 C   0  0  2  0  0  3  0  0  0  0  0  0
   38.4840   29.0620   43.0050 C   0  0  0  0  0  3  0  0  0  0  0  0
   39.4450   29.2520   42.4850 H   0  0  0  0  0  0  0  0  0  0  0  0
   38.3560   27.6450   43.5240 C   0  0  0  0  0  3  0  0  0  0  0  0
   38.8750   27.5260   44.4950 H   0  0  0  0  0  0  0  0  0  0  0  0
   36.9890   27.4710   43.6090 O   0  0  0  0  0  0  0  0  0  0  0  0
   36.5610   27.8760   42.3470 C   0  0  0  0  0  3  0  0  0  0  0  0
   35.4650   28.0250   42.2740 H   0  0  0  0  0  0  0  0  0  0  0  0
  1  2  2  0  0  0  0
  1  6  1  0  0  0  0
  2  3  1  0  0  0  0
  3 12  1  0  0  0  0
  3  4  2  0  0  0  0
  5  9  1  0  0  0  0
  5  4  1  0  0  0  0
  6  5  2  0  0  0  0
  7  1  1  0  0  0  0
  8  2  1  0  0  0  0
 10  7  1  0  0  0  0
 11  7  1  0  0  0  0
 13 12  2  0  0  0  0
 14 12  1  6  0  0  0
 14 20  1  0  0  0  0
 14 15  1  0  0  0  0
 15 17  1  0  0  0  0
 16 15  1  0  0  0  0
 17 19  1  0  0  0  0
 17 18  1  0  0  0  0
 20 19  1  0  0  0  0
 21 20  1  0  0  0  0
M  END
>  <minimizedAffinity>
-4.05911827

$$$$

 OpenBabel03242520463D

 21 22  0  0  1  0  0  0  0  0999 V2000
   38.6630   24.3860   42.1770 C   0  0  0  0  0  0  0  0  0  0  0  0
   37.7800   25.4920   42.1230 C   0  0  0  0  0  0  0  0  0  0  0  0
   38.1130   26.6390   42.8410 C   0  0  0  0  0  0  0  0  0  0  0  0
   39.2510   26.6490   43.5520 N   0  0  0  0  0  0  0  0  0  0  0  0
   40.0870   25.5710   43.5870 C   0  0  0  0  0  0  0  0  0  0  0  0
   39.7820   24.4550   42.9000 N   0  0  0  0  0  0  0  0  0  0  0  0
   38.3490   23.2160   41.4590 N   0  0  0  0  0  0  0  0  0  0  0  0
   36.8790   25.4060   41.5270 H   0  0  0  0  0  0  0  0  0  0  0  0
   40.9650   25.7200   44.1970 H   0  0  0  0  0  0  0  0  0  0  0  0
   38.3110   22.2450   41.8460 H   0  0  0  0  0  0  0  0  0  0  0  0
   38.1530   23.4630   40.4470 H   0  0  0  0  0  0  0  0  0  0  0  0
   37.1750   27.7130   42.7400 C   0  0  0  0  0  0  0  0  0  0  0  0
   36.4870   28.1680   43.6790 O   0  0  0  0  0  0  0  0  0  0  0  0
   37.1040   28.2560   41.3360 C   0  0  2  0  0  3  0  0  0  0  0  0
   37.9250   29.4960   41.1690 C   0  0  0  0  0  3  0  0  0  0  0  0
   38.6100   29.6370   42.0290 H   0  0  0  0  0  0  0  0  0  0  0  0
   36.8680   30.5760   41.0630 C   0  0  0  0  0  3  0  0  0  0  0  0
   37.2680   31.4790   40.5620 H   0  0  0  0  0  0  0  0  0  0  0  0
   35.8630   29.9550   40.3500 O   0  0  0  0  0  0  0  0  0  0  0  0
   35.6890   28.7680   41.0580 C   0  0  0  0  0  3  0  0  0  0  0  0
   35.0750   28.0150   40.5240 H   0  0  0  0  0  0  0  0  0  0  0  0
  1  6  1  0  0  0  0
  2  1  2  0  0  0  0
  2  3  1  0  0  0  0
  3  4  2  0  0  0  0
  4  5  1  0  0  0  0
  5  9  1  0  0  0  0
  6  5  2  0  0  0  0
  7 10  1  0  0  0  0
  7  1  1  0  0  0  0
  8  2  1  0  0  0  0
 11  7  1  0  0  0  0
 12  3  1  0  0  0  0
 12 13  2  0  0  0  0
 14 12  1  1  0  0  0
 15 14  1  0  0  0  0
 15 16  1  0  0  0  0
 17 15  1  0  0  0  0
 18 17  1  0  0  0  0
 19 20  1  0  0  0  0
 19 17  1  0  0  0  0
 20 14  1  0  0  0  0
 21 20  1  0  0  0  0
M  END
>  <minimizedAffinity>
-4.03963327

$$$$

 OpenBabel03242520463D

 21 22  0  0  1  0  0  0  0  0999 V2000
   37.2300   32.2680   39.4660 C   0  0  0  0  0  0  0  0  0  0  0  0
   36.8060   31.1680   40.2520 C   0  0  0  0  0  0  0  0  0  0  0  0
   37.0870   29.8820   39.7970 C   0  0  0  0  0  0  0  0  0  0  0  0
   37.7460   29.7370   38.6370 N   0  0  0  0  0  0  0  0  0  0  0  0
   38.1460   30.8110   37.8960 C   0  0  0  0  0  0  0  0  0  0  0  0
   37.8830   32.0610   38.3210 N   0  0  0  0  0  0  0  0  0  0  0  0
   36.9580   33.5770   39.9060 N   0  0  0  0  0  0  0  0  0  0  0  0
   36.2780   31.3680   41.1780 H   0  0  0  0  0  0  0  0  0  0  0  0
   38.6650   30.5470   36.9880 H   0  0  0  0  0  0  0  0  0  0  0  0
   36.4860   34.3290   39.3530 H   0  0  0  0  0  0  0  0  0  0  0  0
   37.3070   33.6970   40.8990 H   0  0  0  0  0  0  0  0  0  0  0  0
   36.6290   28.8240   40.6410 C   0  0  0  0  0  0  0  0  0  0  0  0
   35.4900   28.7410   41.1510 O   0  0  0  0  0  0  0  0  0  0  0  0
   37.6990   27.7840   40.8570 C   0  0  2  0  0  3  0  0  0  0  0  0
   37.1640   26.3920   40.7400 C   0  0  0  0  0  3  0  0  0  0  0  0
   36.1540   26.3930   40.2840 H   0  0  0  0  0  0  0  0  0  0  0  0
   37.1690   25.9170   42.1790 C   0  0  0  0  0  3  0  0  0  0  0  0
   37.1730   24.8110   42.2340 H   0  0  0  0  0  0  0  0  0  0  0  0
   38.3140   26.4940   42.6890 O   0  0  0  0  0  0  0  0  0  0  0  0
   38.1650   27.8280   42.3140 C   0  0  0  0  0  3  0  0  0  0  0  0
   39.0860   28.4320   42.4350 H   0  0  0  0  0  0  0  0  0  0  0  0
  1  7  1  0  0  0  0
  1  2  1  0  0  0  0
  2  8  1  0  0  0  0
  3  2  2  0  0  0  0
  3 12  1  0  0  0  0
  4  3  1  0  0  0  0
  5  6  1  0  0  0  0
  5  4  2  0  0  0  0
  6  1  2  0  0  0  0
  7 11  1  0  0  0  0
  9  5  1  0  0  0  0
 10  7  1  0  0  0  0
 12 13  2  0  0  0  0
 14 12  1  1  0  0  0
 14 20  1  0  0  0  0
 15 14  1  0  0  0  0
 15 17  1  0  0  0  0
 16 15  1  0  0  0  0
 17 18  1  0  0  0  0
 17 19  1  0  0  0  0
 20 21  1  0  0  0  0
 20 19  1  0  0  0  0
M  END
>  <minimizedAffinity>
-4.0353756

$$$$
