
 OpenBabel03242522493D

 23 24  0  0  1  0  0  0  0  0999 V2000
   36.0440   28.5670   40.8980 O   0  0  0  0  0  0  0  0  0  0  0  0
   36.7720   29.8750   41.2180 P   0  0  2  0  0  0  0  0  0  0  0  0
   35.5720   31.0740   41.3830 O   0  0  0  0  0  0  0  0  0  0  0  0
   35.9360   31.8810   41.8120 H   0  0  0  0  0  0  0  0  0  0  0  0
   37.7670   30.3130   39.8950 O   0  0  0  0  0  0  0  0  0  0  0  0
   40.4060   32.8080   39.5570 C   0  0  0  0  0  0  0  0  0  0  0  0
   39.7490   31.5510   39.5340 C   0  0  0  0  0  0  0  0  0  0  0  0
   38.4180   31.5420   39.9140 C   0  0  0  0  0  0  0  0  0  0  0  0
   37.8070   32.7130   40.2850 N   0  0  0  0  0  0  0  0  0  0  0  0
   38.4770   33.8890   40.2890 C   0  0  0  0  0  0  0  0  0  0  0  0
   39.7690   33.9430   39.9290 N   0  0  0  0  0  0  0  0  0  0  0  0
   41.4570   32.8920   39.2700 H   0  0  0  0  0  0  0  0  0  0  0  0
   40.3320   30.7060   39.2270 H   0  0  0  0  0  0  0  0  0  0  0  0
   37.8030   34.6710   40.6120 H   0  0  0  0  0  0  0  0  0  0  0  0
   37.6970   29.7480   42.5960 O   0  0  0  0  0  0  0  0  0  0  0  0
   38.4350   28.5940   42.5340 C   0  0  2  0  0  3  0  0  0  0  0  0
   38.0870   27.6350   43.6790 C   0  0  0  0  0  3  0  0  0  0  0  0
   38.1600   28.1890   44.6120 H   0  0  0  0  0  0  0  0  0  0  0  0
   39.3010   26.7140   43.5220 C   0  0  0  0  0  3  0  0  0  0  0  0
   39.4110   26.0280   44.3660 H   0  0  0  0  0  0  0  0  0  0  0  0
   40.3730   27.5860   43.3760 O   0  0  0  0  0  0  0  0  0  0  0  0
   39.9010   28.7400   42.7670 C   0  0  0  0  0  3  0  0  0  0  0  0
   40.5030   28.8610   41.8230 H   0  0  0  0  0  0  0  0  0  0  0  0
  2  1  2  6  0  0  0
  2  3  1  0  0  0  0
  2 15  1  0  0  0  0
  3  4  1  0  0  0  0
  5  8  1  0  0  0  0
  5  2  1  0  0  0  0
  6 11  1  0  0  0  0
  7  6  2  0  0  0  0
  7  8  1  0  0  0  0
  8  9  2  0  0  0  0
  9 10  1  0  0  0  0
 10 14  1  0  0  0  0
 11 10  2  0  0  0  0
 12  6  1  0  0  0  0
 13  7  1  0  0  0  0
 16 15  1  1  0  0  0
 16 22  1  0  0  0  0
 16 17  1  0  0  0  0
 17 18  1  0  0  0  0
 19 17  1  0  0  0  0
 19 20  1  0  0  0  0
 21 19  1  0  0  0  0
 22 21  1  0  0  0  0
 23 22  1  0  0  0  0
M  END
>  <minimizedAffinity>
-4.59507561

$$$$

 OpenBabel03242522493D

 23 24  0  0  1  0  0  0  0  0999 V2000
   36.9360   29.4560   39.7860 O   0  0  0  0  0  0  0  0  0  0  0  0
   37.0320   30.7230   40.6380 P   0  0  2  0  0  0  0  0  0  0  0  0
   35.5350   30.8900   41.4340 O   0  0  0  0  0  0  0  0  0  0  0  0
   35.5970   31.5420   42.1700 H   0  0  0  0  0  0  0  0  0  0  0  0
   37.2350   32.0840   39.6180 O   0  0  0  0  0  0  0  0  0  0  0  0
   40.2310   34.1600   39.7380 C   0  0  0  0  0  0  0  0  0  0  0  0
   38.9200   33.6950   40.0140 C   0  0  0  0  0  0  0  0  0  0  0  0
   38.5200   32.5470   39.3520 C   0  0  0  0  0  0  0  0  0  0  0  0
   39.3800   31.9250   38.4830 N   0  0  0  0  0  0  0  0  0  0  0  0
   40.6220   32.4090   38.2520 C   0  0  0  0  0  0  0  0  0  0  0  0
   41.0520   33.5190   38.8720 N   0  0  0  0  0  0  0  0  0  0  0  0
   40.6160   35.0610   40.2230 H   0  0  0  0  0  0  0  0  0  0  0  0
   38.3420   34.2660   40.7120 H   0  0  0  0  0  0  0  0  0  0  0  0
   41.1180   31.7650   37.5390 H   0  0  0  0  0  0  0  0  0  0  0  0
   38.2920   30.6460   41.7230 O   0  0  0  0  0  0  0  0  0  0  0  0
   38.5370   29.3330   42.0320 C   0  0  2  0  0  3  0  0  0  0  0  0
   37.8140   28.9060   43.3150 C   0  0  0  0  0  3  0  0  0  0  0  0
   38.0610   29.6250   44.0930 H   0  0  0  0  0  0  0  0  0  0  0  0
   38.5890   27.6050   43.5390 C   0  0  0  0  0  3  0  0  0  0  0  0
   38.4030   27.1780   44.5280 H   0  0  0  0  0  0  0  0  0  0  0  0
   39.9170   27.9610   43.3340 O   0  0  0  0  0  0  0  0  0  0  0  0
   39.9400   29.0000   42.4130 C   0  0  0  0  0  3  0  0  0  0  0  0
   40.5730   28.6400   41.5550 H   0  0  0  0  0  0  0  0  0  0  0  0
  2  1  2  6  0  0  0
  2  3  1  0  0  0  0
  2 15  1  0  0  0  0
  3  4  1  0  0  0  0
  5  2  1  0  0  0  0
  6  7  1  0  0  0  0
  6 12  1  0  0  0  0
  7 13  1  0  0  0  0
  8  5  1  0  0  0  0
  8  7  2  0  0  0  0
  9  8  1  0  0  0  0
 10  9  2  0  0  0  0
 10 11  1  0  0  0  0
 11  6  2  0  0  0  0
 14 10  1  0  0  0  0
 16 15  1  1  0  0  0
 16 22  1  0  0  0  0
 16 17  1  0  0  0  0
 17 19  1  0  0  0  0
 17 18  1  0  0  0  0
 19 20  1  0  0  0  0
 21 19  1  0  0  0  0
 22 21  1  0  0  0  0
 23 22  1  0  0  0  0
M  END
>  <minimizedAffinity>
-4.4246192

$$$$

 OpenBabel03242522493D

 23 24  0  0  1  0  0  0  0  0999 V2000
   36.4180   30.8040   38.9760 O   0  0  0  0  0  0  0  0  0  0  0  0
   37.1340   31.2810   40.2430 P   0  0  2  0  0  0  0  0  0  0  0  0
   36.8900   32.9650   40.3370 O   0  0  0  0  0  0  0  0  0  0  0  0
   37.1170   33.3050   41.2320 H   0  0  0  0  0  0  0  0  0  0  0  0
   38.8170   31.0060   40.0860 O   0  0  0  0  0  0  0  0  0  0  0  0
   41.0720   33.0220   38.0480 C   0  0  0  0  0  0  0  0  0  0  0  0
   40.2340   31.9490   38.4440 C   0  0  0  0  0  0  0  0  0  0  0  0
   39.6410   32.0550   39.6910 C   0  0  0  0  0  0  0  0  0  0  0  0
   39.8810   33.1600   40.4680 N   0  0  0  0  0  0  0  0  0  0  0  0
   40.6900   34.1590   40.0450 C   0  0  0  0  0  0  0  0  0  0  0  0
   41.2850   34.0970   38.8440 N   0  0  0  0  0  0  0  0  0  0  0  0
   41.5750   33.0080   37.0770 H   0  0  0  0  0  0  0  0  0  0  0  0
   40.1240   31.1400   37.7500 H   0  0  0  0  0  0  0  0  0  0  0  0
   40.7320   34.9190   40.8130 H   0  0  0  0  0  0  0  0  0  0  0  0
   36.5660   30.5070   41.6030 O   0  0  0  0  0  0  0  0  0  0  0  0
   37.2790   29.3520   41.7910 C   0  0  2  0  0  3  0  0  0  0  0  0
   36.3750   28.1130   41.7550 C   0  0  0  0  0  3  0  0  0  0  0  0
   35.5560   28.2780   42.4510 H   0  0  0  0  0  0  0  0  0  0  0  0
   37.3850   27.1320   42.3580 C   0  0  0  0  0  3  0  0  0  0  0  0
   36.9220   26.1810   42.6340 H   0  0  0  0  0  0  0  0  0  0  0  0
   37.9230   27.8190   43.4400 O   0  0  0  0  0  0  0  0  0  0  0  0
   37.8940   29.1740   43.1380 C   0  0  0  0  0  3  0  0  0  0  0  0
   38.9600   29.5290   43.2050 H   0  0  0  0  0  0  0  0  0  0  0  0
  2  1  2  6  0  0  0
  2  3  1  0  0  0  0
  2 15  1  0  0  0  0
  3  4  1  0  0  0  0
  5  2  1  0  0  0  0
  6  7  2  0  0  0  0
  6 11  1  0  0  0  0
  7  8  1  0  0  0  0
  8  5  1  0  0  0  0
  8  9  2  0  0  0  0
 10  9  1  0  0  0  0
 10 14  1  0  0  0  0
 11 10  2  0  0  0  0
 12  6  1  0  0  0  0
 13  7  1  0  0  0  0
 16 15  1  1  0  0  0
 16 22  1  0  0  0  0
 17 16  1  0  0  0  0
 17 19  1  0  0  0  0
 17 18  1  0  0  0  0
 19 20  1  0  0  0  0
 19 21  1  0  0  0  0
 22 23  1  0  0  0  0
 22 21  1  0  0  0  0
M  END
>  <minimizedAffinity>
-4.39121628

$$$$

 OpenBabel03242522493D

 23 24  0  0  1  0  0  0  0  0999 V2000
   36.3210   26.8270   43.3200 O   0  0  0  0  0  0  0  0  0  0  0  0
   36.9570   27.9870   42.5500 P   0  0  2  0  0  0  0  0  0  0  0  0
   37.2150   29.2380   43.6790 O   0  0  0  0  0  0  0  0  0  0  0  0
   37.8250   29.9200   43.3160 H   0  0  0  0  0  0  0  0  0  0  0  0
   35.8550   28.5660   41.3750 O   0  0  0  0  0  0  0  0  0  0  0  0
   36.5820   30.5030   38.3710 C   0  0  0  0  0  0  0  0  0  0  0  0
   36.2000   29.4130   39.1940 C   0  0  0  0  0  0  0  0  0  0  0  0
   36.2280   29.6310   40.5610 C   0  0  0  0  0  0  0  0  0  0  0  0
   36.6110   30.8540   41.0490 N   0  0  0  0  0  0  0  0  0  0  0  0
   36.9670   31.8640   40.2220 C   0  0  0  0  0  0  0  0  0  0  0  0
   36.9560   31.6970   38.8910 N   0  0  0  0  0  0  0  0  0  0  0  0
   36.5860   30.4060   37.2830 H   0  0  0  0  0  0  0  0  0  0  0  0
   35.9210   28.5060   38.6960 H   0  0  0  0  0  0  0  0  0  0  0  0
   37.2290   32.7260   40.8210 H   0  0  0  0  0  0  0  0  0  0  0  0
   38.3770   27.5340   41.8100 O   0  0  0  0  0  0  0  0  0  0  0  0
   38.8530   26.3980   42.4110 C   0  0  2  0  0  3  0  0  0  0  0  0
   39.8550   26.7220   43.5270 C   0  0  0  0  0  3  0  0  0  0  0  0
   40.6110   27.3850   43.1140 H   0  0  0  0  0  0  0  0  0  0  0  0
   40.4250   25.3080   43.6770 C   0  0  0  0  0  3  0  0  0  0  0  0
   41.3270   25.2910   44.2940 H   0  0  0  0  0  0  0  0  0  0  0  0
   40.6420   24.8890   42.3700 O   0  0  0  0  0  0  0  0  0  0  0  0
   39.7010   25.5130   41.5630 C   0  0  0  0  0  3  0  0  0  0  0  0
   39.1320   24.6860   41.0530 H   0  0  0  0  0  0  0  0  0  0  0  0
  2  1  2  1  0  0  0
  2  3  1  0  0  0  0
  4  3  1  0  0  0  0
  5  2  1  0  0  0  0
  6 11  2  0  0  0  0
  6  7  1  0  0  0  0
  7  8  2  0  0  0  0
  8  9  1  0  0  0  0
  8  5  1  0  0  0  0
 10 14  1  0  0  0  0
 10  9  2  0  0  0  0
 11 10  1  0  0  0  0
 12  6  1  0  0  0  0
 13  7  1  0  0  0  0
 15  2  1  0  0  0  0
 16 15  1  6  0  0  0
 16 17  1  0  0  0  0
 17 19  1  0  0  0  0
 18 17  1  0  0  0  0
 19 20  1  0  0  0  0
 21 19  1  0  0  0  0
 22 21  1  0  0  0  0
 22 16  1  0  0  0  0
 23 22  1  0  0  0  0
M  END
>  <minimizedAffinity>
-4.32219696

$$$$

 OpenBabel03242522493D

 23 24  0  0  1  0  0  0  0  0999 V2000
   37.2320   28.4080   39.9040 O   0  0  0  0  0  0  0  0  0  0  0  0
   36.6800   28.8390   41.2650 P   0  0  2  0  0  0  0  0  0  0  0  0
   35.1710   29.5750   40.9680 O   0  0  0  0  0  0  0  0  0  0  0  0
   34.6540   29.6670   41.8000 H   0  0  0  0  0  0  0  0  0  0  0  0
   37.7100   30.0210   41.9520 O   0  0  0  0  0  0  0  0  0  0  0  0
   39.6560   32.7310   40.4760 C   0  0  0  0  0  0  0  0  0  0  0  0
   39.3440   31.5700   41.2300 C   0  0  0  0  0  0  0  0  0  0  0  0
   38.0230   31.1590   41.2140 C   0  0  0  0  0  0  0  0  0  0  0  0
   37.0960   31.8680   40.4920 N   0  0  0  0  0  0  0  0  0  0  0  0
   37.4430   32.9700   39.7880 C   0  0  0  0  0  0  0  0  0  0  0  0
   38.7130   33.4050   39.7750 N   0  0  0  0  0  0  0  0  0  0  0  0
   40.6780   33.1150   40.4420 H   0  0  0  0  0  0  0  0  0  0  0  0
   40.1540   31.1030   41.7540 H   0  0  0  0  0  0  0  0  0  0  0  0
   36.5600   33.3620   39.3010 H   0  0  0  0  0  0  0  0  0  0  0  0
   36.5330   27.5510   42.3090 O   0  0  0  0  0  0  0  0  0  0  0  0
   37.4910   26.6180   42.0070 C   0  0  2  0  0  3  0  0  0  0  0  0
   36.9750   25.1880   42.2080 C   0  0  0  0  0  3  0  0  0  0  0  0
   36.5550   25.1220   43.2080 H   0  0  0  0  0  0  0  0  0  0  0  0
   38.3400   24.4940   42.1660 C   0  0  0  0  0  3  0  0  0  0  0  0
   38.2820   23.4510   42.4880 H   0  0  0  0  0  0  0  0  0  0  0  0
   39.1460   25.2790   42.9810 O   0  0  0  0  0  0  0  0  0  0  0  0
   38.6790   26.5840   42.9080 C   0  0  0  0  0  3  0  0  0  0  0  0
   39.5460   27.2040   42.5440 H   0  0  0  0  0  0  0  0  0  0  0  0
  2  1  2  6  0  0  0
  2  5  1  0  0  0  0
  2 15  1  0  0  0  0
  3  2  1  0  0  0  0
  3  4  1  0  0  0  0
  6  7  1  0  0  0  0
  7 13  1  0  0  0  0
  8  7  2  0  0  0  0
  8  5  1  0  0  0  0
  9  8  1  0  0  0  0
 10  9  2  0  0  0  0
 11 10  1  0  0  0  0
 11  6  2  0  0  0  0
 12  6  1  0  0  0  0
 14 10  1  0  0  0  0
 16 17  1  0  0  0  0
 16 15  1  1  0  0  0
 16 22  1  0  0  0  0
 17 18  1  0  0  0  0
 19 17  1  0  0  0  0
 19 20  1  0  0  0  0
 19 21  1  0  0  0  0
 22 21  1  0  0  0  0
 23 22  1  0  0  0  0
M  END
>  <minimizedAffinity>
-4.20055103

$$$$

 OpenBabel03242522493D

 23 24  0  0  1  0  0  0  0  0999 V2000
   36.7160   29.5390   39.3010 O   0  0  0  0  0  0  0  0  0  0  0  0
   35.5420   29.4300   40.2770 P   0  0  2  0  0  0  0  0  0  0  0  0
   35.5060   30.8860   41.1610 O   0  0  0  0  0  0  0  0  0  0  0  0
   34.6510   30.9880   41.6380 H   0  0  0  0  0  0  0  0  0  0  0  0
   35.8350   28.1560   41.3830 O   0  0  0  0  0  0  0  0  0  0  0  0
   38.8320   26.7600   42.9230 C   0  0  0  0  0  0  0  0  0  0  0  0
   37.5760   26.8220   42.2660 C   0  0  0  0  0  0  0  0  0  0  0  0
   37.0660   28.0870   42.0270 C   0  0  0  0  0  0  0  0  0  0  0  0
   37.7730   29.1940   42.4220 N   0  0  0  0  0  0  0  0  0  0  0  0
   38.9690   29.0820   43.0460 C   0  0  0  0  0  0  0  0  0  0  0  0
   39.5010   27.8760   43.2990 N   0  0  0  0  0  0  0  0  0  0  0  0
   39.2970   25.7960   43.1460 H   0  0  0  0  0  0  0  0  0  0  0  0
   37.1190   25.8890   42.0070 H   0  0  0  0  0  0  0  0  0  0  0  0
   39.3410   30.0740   43.2630 H   0  0  0  0  0  0  0  0  0  0  0  0
   34.1020   29.1640   39.4860 O   0  0  0  0  0  0  0  0  0  0  0  0
   34.3600   28.8790   38.1700 C   0  0  2  0  0  3  0  0  0  0  0  0
   33.1180   29.0770   37.2910 C   0  0  0  0  0  3  0  0  0  0  0  0
   32.3000   28.5190   37.7400 H   0  0  0  0  0  0  0  0  0  0  0  0
   33.6450   28.3340   36.0600 C   0  0  0  0  0  3  0  0  0  0  0  0
   32.8590   28.1480   35.3230 H   0  0  0  0  0  0  0  0  0  0  0  0
   34.2010   27.1700   36.5780 O   0  0  0  0  0  0  0  0  0  0  0  0
   34.6640   27.4530   37.8550 C   0  0  0  0  0  3  0  0  0  0  0  0
   35.7640   27.2120   37.8470 H   0  0  0  0  0  0  0  0  0  0  0  0
  2  1  2  6  0  0  0
  2  3  1  0  0  0  0
  2  5  1  0  0  0  0
  3  4  1  0  0  0  0
  5  8  1  0  0  0  0
  6 12  1  0  0  0  0
  6 11  1  0  0  0  0
  7  6  2  0  0  0  0
  8  7  1  0  0  0  0
  8  9  2  0  0  0  0
  9 10  1  0  0  0  0
 10 14  1  0  0  0  0
 10 11  2  0  0  0  0
 13  7  1  0  0  0  0
 15  2  1  0  0  0  0
 16 15  1  1  0  0  0
 17 18  1  0  0  0  0
 17 16  1  0  0  0  0
 19 21  1  0  0  0  0
 19 17  1  0  0  0  0
 20 19  1  0  0  0  0
 21 22  1  0  0  0  0
 22 16  1  0  0  0  0
 23 22  1  0  0  0  0
M  END
>  <minimizedAffinity>
-4.17114544

$$$$

 OpenBabel03242522493D

 23 24  0  0  1  0  0  0  0  0999 V2000
   37.5990   29.3390   42.8230 O   0  0  0  0  0  0  0  0  0  0  0  0
   37.1900   29.6750   41.3870 P   0  0  2  0  0  0  0  0  0  0  0  0
   35.6550   30.4090   41.4760 O   0  0  0  0  0  0  0  0  0  0  0  0
   35.4290   30.8590   40.6300 H   0  0  0  0  0  0  0  0  0  0  0  0
   37.0240   28.2280   40.4870 O   0  0  0  0  0  0  0  0  0  0  0  0
   39.6350   25.7430   41.0430 C   0  0  0  0  0  0  0  0  0  0  0  0
   38.9920   26.9210   40.5850 C   0  0  0  0  0  0  0  0  0  0  0  0
   37.6610   27.0740   40.9330 C   0  0  0  0  0  0  0  0  0  0  0  0
   37.0380   26.1110   41.6850 N   0  0  0  0  0  0  0  0  0  0  0  0
   37.6950   25.0030   42.0990 C   0  0  0  0  0  0  0  0  0  0  0  0
   38.9860   24.8140   41.7830 N   0  0  0  0  0  0  0  0  0  0  0  0
   40.6850   25.5540   40.8060 H   0  0  0  0  0  0  0  0  0  0  0  0
   39.5840   27.6000   40.0040 H   0  0  0  0  0  0  0  0  0  0  0  0
   37.0140   24.3890   42.6720 H   0  0  0  0  0  0  0  0  0  0  0  0
   38.2980   30.6710   40.6440 O   0  0  0  0  0  0  0  0  0  0  0  0
   37.7960   31.9460   40.6040 C   0  0  2  0  0  3  0  0  0  0  0  0
   37.3580   32.3410   39.1890 C   0  0  0  0  0  3  0  0  0  0  0  0
   38.1880   32.1420   38.5150 H   0  0  0  0  0  0  0  0  0  0  0  0
   37.2420   33.8460   39.4450 C   0  0  0  0  0  3  0  0  0  0  0  0
   37.1280   34.4150   38.5190 H   0  0  0  0  0  0  0  0  0  0  0  0
   38.4000   34.1610   40.1470 O   0  0  0  0  0  0  0  0  0  0  0  0
   38.7700   33.0420   40.8790 C   0  0  0  0  0  3  0  0  0  0  0  0
   38.7970   33.3700   41.9560 H   0  0  0  0  0  0  0  0  0  0  0  0
  2  3  1  0  0  0  0
  2  1  2  1  0  0  0
  4  3  1  0  0  0  0
  5  8  1  0  0  0  0
  5  2  1  0  0  0  0
  6 11  1  0  0  0  0
  7  8  1  0  0  0  0
  7  6  2  0  0  0  0
  8  9  2  0  0  0  0
  9 10  1  0  0  0  0
 10 14  1  0  0  0  0
 11 10  2  0  0  0  0
 12  6  1  0  0  0  0
 13  7  1  0  0  0  0
 15  2  1  0  0  0  0
 16 15  1  6  0  0  0
 16 22  1  0  0  0  0
 17 19  1  0  0  0  0
 17 16  1  0  0  0  0
 18 17  1  0  0  0  0
 19 21  1  0  0  0  0
 20 19  1  0  0  0  0
 21 22  1  0  0  0  0
 22 23  1  0  0  0  0
M  END
>  <minimizedAffinity>
-4.11023092

$$$$

 OpenBabel03242522493D

 23 24  0  0  1  0  0  0  0  0999 V2000
   38.5160   30.8950   39.9700 O   0  0  0  0  0  0  0  0  0  0  0  0
   37.0240   31.1500   40.1970 P   0  0  2  0  0  0  0  0  0  0  0  0
   36.8280   32.8400   40.2970 O   0  0  0  0  0  0  0  0  0  0  0  0
   35.8800   33.0900   40.2090 H   0  0  0  0  0  0  0  0  0  0  0  0
   36.5520   30.4810   41.7010 O   0  0  0  0  0  0  0  0  0  0  0  0
   37.1250   26.9140   42.2000 C   0  0  0  0  0  0  0  0  0  0  0  0
   36.5190   28.1170   41.7570 C   0  0  0  0  0  0  0  0  0  0  0  0
   37.1410   29.2960   42.1310 C   0  0  0  0  0  0  0  0  0  0  0  0
   38.2840   29.2540   42.8890 N   0  0  0  0  0  0  0  0  0  0  0  0
   38.8240   28.0790   43.2870 C   0  0  0  0  0  0  0  0  0  0  0  0
   38.2530   26.9120   42.9480 N   0  0  0  0  0  0  0  0  0  0  0  0
   36.6890   25.9440   41.9440 H   0  0  0  0  0  0  0  0  0  0  0  0
   35.6270   28.0230   41.1710 H   0  0  0  0  0  0  0  0  0  0  0  0
   39.7130   28.2850   43.8680 H   0  0  0  0  0  0  0  0  0  0  0  0
   36.0930   30.5000   38.9790 O   0  0  0  0  0  0  0  0  0  0  0  0
   36.8550   29.6200   38.2550 C   0  0  2  0  0  3  0  0  0  0  0  0
   36.9770   30.0490   36.7870 C   0  0  0  0  0  3  0  0  0  0  0  0
   35.9740   30.2250   36.4060 H   0  0  0  0  0  0  0  0  0  0  0  0
   37.5140   28.7180   36.2520 C   0  0  0  0  0  3  0  0  0  0  0  0
   37.5080   28.6810   35.1590 H   0  0  0  0  0  0  0  0  0  0  0  0
   36.6980   27.7610   36.8410 O   0  0  0  0  0  0  0  0  0  0  0  0
   36.2820   28.2560   38.0700 C   0  0  0  0  0  3  0  0  0  0  0  0
   36.6260   27.5080   38.8380 H   0  0  0  0  0  0  0  0  0  0  0  0
  2  1  2  6  0  0  0
  2  3  1  0  0  0  0
  2  5  1  0  0  0  0
  4  3  1  0  0  0  0
  5  8  1  0  0  0  0
  6 11  1  0  0  0  0
  7  8  1  0  0  0  0
  7  6  2  0  0  0  0
  8  9  2  0  0  0  0
  9 10  1  0  0  0  0
 10 14  1  0  0  0  0
 11 10  2  0  0  0  0
 12  6  1  0  0  0  0
 13  7  1  0  0  0  0
 15  2  1  0  0  0  0
 16 15  1  1  0  0  0
 17 16  1  0  0  0  0
 18 17  1  0  0  0  0
 19 17  1  0  0  0  0
 19 21  1  0  0  0  0
 20 19  1  0  0  0  0
 21 22  1  0  0  0  0
 22 16  1  0  0  0  0
 22 23  1  0  0  0  0
M  END
>  <minimizedAffinity>
-4.0878582

$$$$

 OpenBabel03242522493D

 23 24  0  0  1  0  0  0  0  0999 V2000
   37.3750   29.2190   42.6460 O   0  0  0  0  0  0  0  0  0  0  0  0
   36.9370   29.7820   41.2920 P   0  0  2  0  0  0  0  0  0  0  0  0
   35.5520   30.7320   41.5840 O   0  0  0  0  0  0  0  0  0  0  0  0
   35.3500   31.3080   40.8120 H   0  0  0  0  0  0  0  0  0  0  0  0
   36.4770   28.4950   40.2600 O   0  0  0  0  0  0  0  0  0  0  0  0
   35.8030   29.3580   36.7810 C   0  0  0  0  0  0  0  0  0  0  0  0
   35.6170   29.2220   38.1800 C   0  0  0  0  0  0  0  0  0  0  0  0
   36.6520   28.6320   38.8860 C   0  0  0  0  0  0  0  0  0  0  0  0
   37.7800   28.2180   38.2250 N   0  0  0  0  0  0  0  0  0  0  0  0
   37.9100   28.3700   36.8870 C   0  0  0  0  0  0  0  0  0  0  0  0
   36.9310   28.9360   36.1620 N   0  0  0  0  0  0  0  0  0  0  0  0
   35.0290   29.8130   36.1580 H   0  0  0  0  0  0  0  0  0  0  0  0
   34.6930   29.5830   38.5830 H   0  0  0  0  0  0  0  0  0  0  0  0
   38.8710   27.9760   36.5840 H   0  0  0  0  0  0  0  0  0  0  0  0
   38.1440   30.6730   40.5710 O   0  0  0  0  0  0  0  0  0  0  0  0
   37.7800   31.9950   40.5620 C   0  0  2  0  0  3  0  0  0  0  0  0
   37.3000   32.4430   39.1760 C   0  0  0  0  0  3  0  0  0  0  0  0
   38.0610   32.1610   38.4520 H   0  0  0  0  0  0  0  0  0  0  0  0
   37.3610   33.9510   39.4390 C   0  0  0  0  0  3  0  0  0  0  0  0
   37.2510   34.5340   38.5220 H   0  0  0  0  0  0  0  0  0  0  0  0
   38.5870   34.1360   40.0680 O   0  0  0  0  0  0  0  0  0  0  0  0
   38.8790   32.9790   40.7760 C   0  0  0  0  0  3  0  0  0  0  0  0
   39.0070   33.2960   41.8490 H   0  0  0  0  0  0  0  0  0  0  0  0
  2  3  1  0  0  0  0
  2  1  2  1  0  0  0
  4  3  1  0  0  0  0
  5  2  1  0  0  0  0
  6  7  1  0  0  0  0
  7 13  1  0  0  0  0
  7  8  2  0  0  0  0
  8  5  1  0  0  0  0
  9  8  1  0  0  0  0
 10  9  2  0  0  0  0
 11  6  2  0  0  0  0
 11 10  1  0  0  0  0
 12  6  1  0  0  0  0
 14 10  1  0  0  0  0
 15  2  1  0  0  0  0
 16 15  1  6  0  0  0
 16 22  1  0  0  0  0
 17 19  1  0  0  0  0
 17 16  1  0  0  0  0
 18 17  1  0  0  0  0
 19 21  1  0  0  0  0
 20 19  1  0  0  0  0
 21 22  1  0  0  0  0
 22 23  1  0  0  0  0
M  END
>  <minimizedAffinity>
-4.07002783

$$$$
