
 OpenBabel03252505493D

 21 22  0  0  1  0  0  0  0  0999 V2000
   44.7650   35.4120   44.8940 C   0  0  0  0  0  0  0  0  0  0  0  0
   45.6600   34.9950   43.9180 C   0  0  0  0  0  0  0  0  0  0  0  0
   46.4180   33.8730   44.2120 C   0  0  0  0  0  0  0  0  0  0  0  0
   46.2640   33.2470   45.4010 N   0  0  0  0  0  0  0  0  0  0  0  0
   45.3850   33.6850   46.3190 C   0  0  0  0  0  0  0  0  0  0  0  0
   44.6330   34.7590   46.0820 N   0  0  0  0  0  0  0  0  0  0  0  0
   44.1180   36.2890   44.7620 H   0  0  0  0  0  0  0  0  0  0  0  0
   47.1110   33.5510   43.4570 H   0  0  0  0  0  0  0  0  0  0  0  0
   45.7240   35.7800   42.6570 C   0  0  0  0  0  0  0  0  0  0  0  0
   45.3330   37.0650   42.9890 F   0  0  0  0  0  0  0  0  0  0  0  0
   44.8380   35.2320   41.7660 F   0  0  0  0  0  0  0  0  0  0  0  0
   47.0250   35.7030   42.1850 F   0  0  0  0  0  0  0  0  0  0  0  0
   45.2070   33.0610   47.5450 O   0  0  0  0  0  0  0  0  0  0  0  0
   45.7450   31.8150   47.8940 C   0  0  2  0  0  3  0  0  0  0  0  0
   45.0560   30.6740   47.1720 C   0  0  0  0  0  3  0  0  0  0  0  0
   43.9750   30.8570   47.1570 H   0  0  0  0  0  0  0  0  0  0  0  0
   45.3380   29.5490   48.1480 C   0  0  0  0  0  3  0  0  0  0  0  0
   44.7020   28.6680   47.9670 H   0  0  0  0  0  0  0  0  0  0  0  0
   45.0100   30.1470   49.3610 O   0  0  0  0  0  0  0  0  0  0  0  0
   45.5080   31.4370   49.3260 C   0  0  0  0  0  3  0  0  0  0  0  0
   46.4420   31.4570   49.9260 H   0  0  0  0  0  0  0  0  0  0  0  0
  1  6  1  0  0  0  0
  2  3  1  0  0  0  0
  2  1  2  0  0  0  0
  3  4  2  0  0  0  0
  4  5  1  0  0  0  0
  5 13  1  0  0  0  0
  6  5  2  0  0  0  0
  7  1  1  0  0  0  0
  8  3  1  0  0  0  0
  9 10  1  0  0  0  0
  9  2  1  0  0  0  0
 11  9  1  0  0  0  0
 12  9  1  0  0  0  0
 14 13  1  6  0  0  0
 14 20  1  0  0  0  0
 15 14  1  0  0  0  0
 15 17  1  0  0  0  0
 16 15  1  0  0  0  0
 17 19  1  0  0  0  0
 18 17  1  0  0  0  0
 20 19  1  0  0  0  0
 20 21  1  0  0  0  0
M  END
>  <minimizedAffinity>
-4.85558128

>  <minimizedRMSD>
0.794448555

$$$$
