
     RDKit          3D

 48 50  0  0  0  0  0  0  0  0999 V2000
   47.1721   34.1552   43.0864 N   0  0  0  0  0  0  0  0  0  0  0  0
   46.6611   35.3547   42.5301 C   0  0  0  0  0  0  0  0  0  0  0  0
   45.1833   35.5907   42.7422 C   0  0  0  0  0  0  0  0  0  0  0  0
   44.6557   35.0536   44.0458 C   0  0  0  0  0  0  0  0  0  0  0  0
   45.7496   34.4649   44.8993 C   0  0  0  0  0  0  0  0  0  0  0  0
   46.4081   33.3926   43.9564 C   0  0  2  0  0  0  0  0  0  0  0  0
   48.1517   33.5014   42.2704 C   0  0  0  0  0  0  0  0  0  0  0  0
   47.4454   32.6529   41.2557 C   0  0  0  0  0  0  0  0  0  0  0  0
   49.3281   32.2781   38.0259 C   0  0  0  0  0  0  0  0  0  0  0  0
   48.8019   32.0187   39.3044 C   0  0  0  0  0  0  0  0  0  0  0  0
   47.9914   32.9465   39.9041 C   0  0  0  0  0  0  0  0  0  0  0  0
   47.7356   34.0741   39.2323 N   0  0  0  0  0  0  0  0  0  0  0  0
   48.2405   34.3214   38.0073 C   0  0  0  0  0  0  0  0  0  0  0  0
   49.0321   33.4389   37.3970 N   0  0  0  0  0  0  0  0  0  0  0  0
   47.1978   32.6841   44.8513 O   0  0  0  0  0  0  0  0  0  0  0  0
   46.0026   30.5437   43.8687 O   0  0  0  0  0  0  0  0  0  0  0  0
   46.6502   31.1167   45.1089 P   0  0  2  0  0  0  0  0  0  0  0  0
   45.3916   31.2380   46.2642 O   0  0  0  0  0  0  0  0  0  0  0  0
   47.8573   30.1619   45.7465 O   0  0  0  0  0  0  0  0  0  0  0  0
   46.8646   35.5176   41.4683 H   0  0  0  0  0  0  0  0  0  0  0  0
   47.1799   36.2023   43.0545 H   0  0  0  0  0  0  0  0  0  0  0  0
   44.9897   36.6949   42.7380 H   0  0  0  0  0  0  0  0  0  0  0  0
   44.6547   35.1975   41.8540 H   0  0  0  0  0  0  0  0  0  0  0  0
   43.9606   34.2173   43.8156 H   0  0  0  0  0  0  0  0  0  0  0  0
   44.1349   35.8143   44.6611 H   0  0  0  0  0  0  0  0  0  0  0  0
   46.5108   35.1839   45.2150 H   0  0  0  0  0  0  0  0  0  0  0  0
   45.2978   33.8837   45.7211 H   0  0  0  0  0  0  0  0  0  0  0  0
   45.5704   32.7934   43.5415 H   0  0  0  0  0  0  0  0  0  0  0  0
   48.7995   32.8320   42.8786 H   0  0  0  0  0  0  0  0  0  0  0  0
   48.8023   34.2511   41.8150 H   0  0  0  0  0  0  0  0  0  0  0  0
   46.3507   32.8697   41.2461 H   0  0  0  0  0  0  0  0  0  0  0  0
   47.5393   31.5842   41.4774 H   0  0  0  0  0  0  0  0  0  0  0  0
   49.9661   31.5234   37.5789 H   0  0  0  0  0  0  0  0  0  0  0  0
   49.0230   31.0973   39.8301 H   0  0  0  0  0  0  0  0  0  0  0  0
   47.9322   35.2691   37.6217 H   0  0  0  0  0  0  0  0  0  0  0  0
   44.5565   31.5483   45.8090 H   0  0  0  0  0  0  0  0  0  0  0  0
   47.4765   28.9305   46.1728 C   0  0  2  0  0  0  0  0  0  0  0  0
   47.6707   27.9678   45.0075 C   0  0  2  0  0  0  0  0  0  0  0  0
   48.6822   27.5167   45.0207 H   0  0  0  0  0  0  0  0  0  0  0  0
   46.5655   26.9680   45.2366 C   0  0  1  0  0  0  0  0  0  0  0  0
   45.9645   26.8260   44.3235 H   0  0  0  0  0  0  0  0  0  0  0  0
   45.8064   27.3958   46.3116 O   0  0  0  0  0  0  0  0  0  0  0  0
   46.0004   28.7738   46.4215 C   0  0  2  0  0  0  0  0  0  0  0  0
   45.4272   29.3371   45.6695 H   0  0  0  0  0  0  0  0  0  0  0  0
   48.0720   28.5289   47.0116 H   0  0  0  0  0  0  0  0  0  0  0  0
   47.4471   28.5228   44.0731 H   0  0  0  0  0  0  0  0  0  0  0  0
   47.0600   25.9843   45.4453 H   0  0  0  0  0  0  0  0  0  0  0  0
   45.7128   29.0367   47.4603 H   0  0  0  0  0  0  0  0  0  0  0  0
  1  6  1  0
  2  3  1  0
  2  1  1  0
  3  4  1  0
  4  5  1  0
  6 15  1  0
  6  5  1  0
  7  1  1  0
  8  7  1  0
  9 10  2  0
 10 11  1  0
 11  8  1  0
 12 11  2  0
 13 12  1  0
 14 13  2  0
 14  9  1  0
 17 15  1  6
 16 17  2  0
 17 19  1  0
 17 18  1  0
  2 20  1  0
  2 21  1  0
  3 22  1  0
  3 23  1  0
  4 24  1  0
  4 25  1  0
  5 26  1  0
  5 27  1  0
  6 28  1  6
  7 29  1  0
  7 30  1  0
  8 31  1  0
  8 32  1  0
  9 33  1  0
 10 34  1  0
 13 35  1  0
 18 36  1  0
 37 38  1  0
 38 39  1  6
 38 40  1  0
 40 41  1  6
 40 42  1  0
 42 43  1  0
 43 44  1  6
 43 37  1  0
 37 45  1  1
 38 46  1  0
 40 47  1  0
 43 48  1  0
 19 37  1  0
M  ISO  8  20  13  21  13  22  13  23  13  24  13  25  13  26  13  27  13
M  ISO  8  28  13  29   8  30   8  31   8  32   8  33  14  34  14  35  14
M  ISO  4  36   3  39  15  41  15  44  15
M  END
>  <DihAtoms>  (1) 
16,18,36,37

>  <DihDeg>  (1) 
-117.86792383143317

$$$$
