
 OpenBabel03242512273D

 21 22  0  0  1  0  0  0  0  0999 V2000
   44.9980   35.0410   44.2730 C   0  0  0  0  0  0  0  0  0  0  0  0
   45.9920   34.8710   43.3050 C   0  0  0  0  0  0  0  0  0  0  0  0
   47.0220   33.9580   43.5630 C   0  0  0  0  0  0  0  0  0  0  0  0
   46.9850   33.2980   44.7380 N   0  0  0  0  0  0  0  0  0  0  0  0
   46.0370   33.4650   45.6520 C   0  0  0  0  0  0  0  0  0  0  0  0
   45.0390   34.3490   45.4050 N   0  0  0  0  0  0  0  0  0  0  0  0
   43.9540   35.9640   44.0170 N   0  0  0  0  0  0  0  0  0  0  0  0
   45.9170   35.4540   42.4060 H   0  0  0  0  0  0  0  0  0  0  0  0
   47.7950   33.8240   42.8140 H   0  0  0  0  0  0  0  0  0  0  0  0
   43.8040   36.3550   43.0560 H   0  0  0  0  0  0  0  0  0  0  0  0
   43.3230   36.2580   44.8060 H   0  0  0  0  0  0  0  0  0  0  0  0
   46.0070   32.7500   46.9130 C   0  0  0  0  0  0  0  0  0  0  0  0
   45.0760   32.9140   47.7590 O   0  0  0  0  0  0  0  0  0  0  0  0
   47.0790   31.7980   47.2460 C   0  0  1  0  0  3  0  0  0  0  0  0
   47.8750   32.1340   48.4630 C   0  0  0  0  0  3  0  0  0  0  0  0
   48.8040   32.6860   48.1690 H   0  0  0  0  0  0  0  0  0  0  0  0
   48.2290   30.7620   49.0130 C   0  0  0  0  0  3  0  0  0  0  0  0
   47.8390   30.6520   50.0460 H   0  0  0  0  0  0  0  0  0  0  0  0
   47.7100   29.8190   48.1230 O   0  0  0  0  0  0  0  0  0  0  0  0
   46.5640   30.4160   47.5690 C   0  0  0  0  0  3  0  0  0  0  0  0
   46.3190   29.9100   46.6180 H   0  0  0  0  0  0  0  0  0  0  0  0
  1  6  1  0  0  0  0
  2  3  1  0  0  0  0
  2  1  2  0  0  0  0
  3  4  2  0  0  0  0
  4  5  1  0  0  0  0
  5 12  1  0  0  0  0
  6  5  2  0  0  0  0
  7  1  1  0  0  0  0
  7 11  1  0  0  0  0
  8  2  1  0  0  0  0
  9  3  1  0  0  0  0
 10  7  1  0  0  0  0
 12 13  2  0  0  0  0
 14 12  1  1  0  0  0
 14 20  1  0  0  0  0
 14 15  1  0  0  0  0
 15 17  1  0  0  0  0
 16 15  1  0  0  0  0
 17 18  1  0  0  0  0
 19 17  1  0  0  0  0
 20 19  1  0  0  0  0
 21 20  1  0  0  0  0
M  END
>  <minimizedAffinity>
-4.76541567

>  <minimizedRMSD>
1.08052218

$$$$
