
 OpenBabel03252508513D

 27 29  0  0  1  0  0  0  0  0999 V2000
   45.7880   34.2290   41.0300 C   0  0  0  0  0  0  0  0  0  0  0  0
   46.4240   34.8000   42.1260 C   0  0  0  0  0  0  0  0  0  0  0  0
   47.7870   35.0710   41.9810 C   0  0  0  0  0  0  0  0  0  0  0  0
   48.4060   34.7720   40.8090 N   0  0  0  0  0  0  0  0  0  0  0  0
   47.7460   34.2200   39.7740 C   0  0  0  0  0  0  0  0  0  0  0  0
   46.4290   33.9470   39.8860 N   0  0  0  0  0  0  0  0  0  0  0  0
   48.2800   35.5150   42.8360 H   0  0  0  0  0  0  0  0  0  0  0  0
   48.3090   34.0120   38.8750 H   0  0  0  0  0  0  0  0  0  0  0  0
   45.6770   35.0830   43.3370 C   0  0  0  0  0  0  0  0  0  0  0  0
   45.0670   36.3140   43.5660 C   0  0  0  0  0  0  0  0  0  0  0  0
   44.4850   36.1360   44.8130 C   0  0  0  0  0  0  0  0  0  0  0  0
   44.7290   34.8880   45.2980 N   0  0  0  0  0  0  0  0  0  0  0  0
   45.4500   34.2840   44.3790 N   0  0  0  0  0  0  0  0  0  0  0  0
   45.0150   37.2170   42.9780 H   0  0  0  0  0  0  0  0  0  0  0  0
   43.9030   36.9160   45.3300 H   0  0  0  0  0  0  0  0  0  0  0  0
   44.3720   34.5630   46.2260 H   0  0  0  0  0  0  0  0  0  0  0  0
   44.4390   33.9450   41.1330 O   0  0  0  0  0  0  0  0  0  0  0  0
   43.4030   34.6510   40.5900 C   0  0  0  0  0  0  0  0  0  0  0  0
   42.6490   35.4960   41.1750 O   0  0  0  0  0  0  0  0  0  0  0  0
   42.7730   34.7310   39.2250 C   0  0  2  0  0  3  0  0  0  0  0  0
   41.4740   35.4520   39.2520 C   0  0  0  0  0  3  0  0  0  0  0  0
   40.9060   35.4200   40.1790 H   0  0  0  0  0  0  0  0  0  0  0  0
   40.7410   34.7350   38.1080 C   0  0  0  0  0  3  0  0  0  0  0  0
   39.6650   34.8950   38.1350 H   0  0  0  0  0  0  0  0  0  0  0  0
   41.0520   33.3980   38.4400 O   0  0  0  0  0  0  0  0  0  0  0  0
   42.4110   33.3770   38.6720 C   0  0  0  0  0  3  0  0  0  0  0  0
   42.7000   32.5790   39.3840 H   0  0  0  0  0  0  0  0  0  0  0  0
  1 17  1  0  0  0  0
  1  2  1  0  0  0  0
  2  9  1  0  0  0  0
  3  2  2  0  0  0  0
  3  7  1  0  0  0  0
  4  3  1  0  0  0  0
  5  6  1  0  0  0  0
  5  4  2  0  0  0  0
  6  1  2  0  0  0  0
  8  5  1  0  0  0  0
  9 10  1  0  0  0  0
  9 13  2  0  0  0  0
 10 11  2  0  0  0  0
 11 12  1  0  0  0  0
 11 15  1  0  0  0  0
 12 16  1  0  0  0  0
 13 12  1  0  0  0  0
 14 10  1  0  0  0  0
 18 17  1  0  0  0  0
 18 19  2  0  0  0  0
 20 21  1  0  0  0  0
 20 18  1  1  0  0  0
 21 22  1  0  0  0  0
 23 24  1  0  0  0  0
 23 25  1  0  0  0  0
 23 21  1  0  0  0  0
 25 26  1  0  0  0  0
 26 20  1  0  0  0  0
 26 27  1  0  0  0  0
M  END
>  <minimizedAffinity>
-5.27179766

>  <minimizedRMSD>
1.06804085

$$$$
