
 OpenBabel03242517133D

 22 23  0  0  1  0  0  0  0  0999 V2000
   44.0480   34.9880   41.2200 C   0  0  0  0  0  0  0  0  0  0  0  0
   42.8260   34.9200   40.7410 C   0  0  0  0  0  0  0  0  0  0  0  0
   44.2790   35.9030   43.5360 C   0  0  0  0  0  0  0  0  0  0  0  0
   44.4250   34.8410   42.6170 C   0  0  0  0  0  0  0  0  0  0  0  0
   44.9460   33.6340   43.0780 C   0  0  0  0  0  0  0  0  0  0  0  0
   45.2910   33.5410   44.4080 N   0  0  0  0  0  0  0  0  0  0  0  0
   45.1360   34.5730   45.2490 C   0  0  0  0  0  0  0  0  0  0  0  0
   44.6350   35.7340   44.8030 N   0  0  0  0  0  0  0  0  0  0  0  0
   43.8740   36.8560   43.1990 H   0  0  0  0  0  0  0  0  0  0  0  0
   45.0830   32.7850   42.4260 H   0  0  0  0  0  0  0  0  0  0  0  0
   45.4300   34.4250   46.2880 H   0  0  0  0  0  0  0  0  0  0  0  0
   42.5090   35.0810   39.2940 C   0  0  0  0  0  0  0  0  0  0  0  0
   42.4710   34.0450   38.8680 H   0  0  0  0  0  0  0  0  0  0  0  0
   43.2790   35.6030   38.7280 H   0  0  0  0  0  0  0  0  0  0  0  0
   41.1260   35.6620   39.0930 C   0  0  1  0  0  0  0  0  0  0  0  0
   40.6300   35.4580   37.6770 C   0  0  0  0  0  0  0  0  0  0  0  0
   40.1930   36.3750   37.2510 H   0  0  0  0  0  0  0  0  0  0  0  0
   39.6090   34.3510   37.8440 C   0  0  0  0  0  0  0  0  0  0  0  0
   39.6310   33.6160   37.0400 H   0  0  0  0  0  0  0  0  0  0  0  0
   39.9320   33.7450   39.0800 O   0  0  0  0  0  0  0  0  0  0  0  0
   40.1350   34.8660   39.8970 C   0  0  0  0  0  0  0  0  0  0  0  0
   39.1830   35.4070   40.0370 H   0  0  0  0  0  0  0  0  0  0  0  0
  1  4  1  0  0  0  0
  2  1  2  0  0  0  0
  3  8  1  0  0  0  0
  4  5  1  0  0  0  0
  4  3  2  0  0  0  0
  5  6  2  0  0  0  0
  6  7  1  0  0  0  0
  7 11  1  0  0  0  0
  8  7  2  0  0  0  0
  9  3  1  0  0  0  0
 10  5  1  0  0  0  0
 12  2  1  0  0  0  0
 13 12  1  0  0  0  0
 14 12  1  0  0  0  0
 15 12  1  6  0  0  0
 15 21  1  0  0  0  0
 16 18  1  0  0  0  0
 16 15  1  0  0  0  0
 17 16  1  0  0  0  0
 18 20  1  0  0  0  0
 19 18  1  0  0  0  0
 20 21  1  0  0  0  0
 21 22  1  0  0  0  0
M  END
>  <minimizedAffinity>
-4.40178394

>  <minimizedRMSD>
2.45577025

$$$$
