
 OpenBabel03252508103D

 46 49  0  0  1  0  0  0  0  0999 V2000
   45.0390   35.4970   43.3600 C   0  0  0  0  0  0  0  0  0  0  0  0
   45.4840   34.1920   43.3980 C   0  0  0  0  0  0  0  0  0  0  0  0
   45.4890   33.4790   44.5630 C   0  0  0  0  0  0  0  0  0  0  0  0
   45.0180   34.1530   45.6870 N   0  0  0  0  0  0  0  0  0  0  0  0
   44.5910   35.4030   45.6550 C   0  0  0  0  0  0  0  0  0  0  0  0
   44.6080   36.0680   44.4760 N   0  0  0  0  0  0  0  0  0  0  0  0
   45.0150   36.1020   42.4690 H   0  0  0  0  0  0  0  0  0  0  0  0
   44.2350   35.8750   46.5720 H   0  0  0  0  0  0  0  0  0  0  0  0
   45.9110   32.1560   44.7860 C   0  0  0  0  0  0  0  0  0  0  0  0
   45.6320   31.1100   43.8830 C   0  0  0  0  0  0  0  0  0  0  0  0
   45.9780   29.8020   44.0940 C   0  0  0  0  0  0  0  0  0  0  0  0
   46.6410   29.4520   45.2560 C   0  0  0  0  0  0  0  0  0  0  0  0
   46.9300   30.4980   46.1800 C   0  0  0  0  0  0  0  0  0  0  0  0
   47.5840   30.1660   47.3380 C   0  0  0  0  0  0  0  0  0  0  0  0
   47.8910   31.1300   48.2690 C   0  0  0  0  0  0  0  0  0  0  0  0
   47.5300   32.4680   48.0230 C   0  0  0  0  0  0  0  0  0  0  0  0
   46.8580   32.7520   46.8120 C   0  0  0  0  0  0  0  0  0  0  0  0
   46.5650   31.7760   45.9160 C   0  0  0  0  0  0  0  0  0  0  0  0
   45.1110   31.3750   42.9670 H   0  0  0  0  0  0  0  0  0  0  0  0
   45.7130   29.0790   43.3280 H   0  0  0  0  0  0  0  0  0  0  0  0
   46.9150   28.4410   45.4360 H   0  0  0  0  0  0  0  0  0  0  0  0
   47.8470   29.1290   47.4950 H   0  0  0  0  0  0  0  0  0  0  0  0
   48.4050   30.7930   49.1590 H   0  0  0  0  0  0  0  0  0  0  0  0
   47.8200   33.1220   48.8090 H   0  0  0  0  0  0  0  0  0  0  0  0
   46.7070   33.8120   46.8220 H   0  0  0  0  0  0  0  0  0  0  0  0
   45.9150   33.6420   42.2220 O   0  0  0  0  0  0  0  0  0  0  0  0
   48.2190   32.5660   41.5810 O   0  0  0  0  0  0  0  0  0  0  0  0
   47.4340   33.8420   41.5490 P   0  0  1  0  0  0  0  0  0  0  0  0
   47.3600   34.3450   39.9410 O   0  0  0  0  0  0  0  0  0  0  0  0
   46.9610   33.2050   39.2130 C   0  0  0  0  0  0  0  0  0  0  0  0
   46.0390   32.7630   39.5910 H   0  0  0  0  0  0  0  0  0  0  0  0
   47.7750   32.4710   39.3920 H   0  0  0  0  0  0  0  0  0  0  0  0
   46.9450   33.4730   37.7260 C   0  0  1  0  0  0  0  0  0  0  0  0
   48.1730   34.3190   37.3650 C   0  0  0  0  0  0  0  0  0  0  0  0
   48.4760   35.0050   38.1520 H   0  0  0  0  0  0  0  0  0  0  0  0
   49.1680   33.1750   37.1330 C   0  0  0  0  0  0  0  0  0  0  0  0
   50.1180   33.5400   36.6950 H   0  0  0  0  0  0  0  0  0  0  0  0
   48.4170   32.4210   36.2320 O   0  0  0  0  0  0  0  0  0  0  0  0
   47.2180   32.2360   36.9190 C   0  0  0  0  0  0  0  0  0  0  0  0
   46.4260   32.1340   36.1380 H   0  0  0  0  0  0  0  0  0  0  0  0
   48.2560   35.0120   42.4490 O   0  0  0  0  0  0  0  0  0  0  0  0
   49.5310   35.4910   42.2400 C   0  0  0  0  0  0  0  0  0  0  0  0
   49.4140   36.4990   41.5550 O   0  0  0  0  0  0  0  0  0  0  0  0
   50.5060   34.6660   42.8790 N   0  0  0  0  0  0  0  0  0  0  0  0
   51.2940   33.9860   42.7820 H   0  0  0  0  0  0  0  0  0  0  0  0
   50.6940   34.5590   43.9240 H   0  0  0  0  0  0  0  0  0  0  0  0
  1  2  2  0  0  0  0
  1  6  1  0  0  0  0
  2  3  1  0  0  0  0
  3  9  1  0  0  0  0
  3  4  2  0  0  0  0
  5  4  1  0  0  0  0
  5  8  1  0  0  0  0
  6  5  2  0  0  0  0
  7  1  1  0  0  0  0
  9 18  1  0  0  0  0
 10 11  1  0  0  0  0
 10  9  2  0  0  0  0
 11 12  2  0  0  0  0
 12 21  1  0  0  0  0
 12 13  1  0  0  0  0
 13 14  1  0  0  0  0
 14 22  1  0  0  0  0
 14 15  2  0  0  0  0
 15 23  1  0  0  0  0
 16 15  1  0  0  0  0
 16 24  1  0  0  0  0
 17 25  1  0  0  0  0
 17 16  2  0  0  0  0
 18 13  2  0  0  0  0
 18 17  1  0  0  0  0
 19 10  1  0  0  0  0
 20 11  1  0  0  0  0
 26  2  1  0  0  0  0
 28 27  2  1  0  0  0
 28 26  1  0  0  0  0
 28 41  1  0  0  0  0
 29 28  1  0  0  0  0
 30 32  1  0  0  0  0
 30 31  1  0  0  0  0
 30 29  1  0  0  0  0
 33 30  1  1  0  0  0
 34 33  1  0  0  0  0
 34 35  1  0  0  0  0
 36 34  1  0  0  0  0
 37 36  1  0  0  0  0
 38 39  1  0  0  0  0
 38 36  1  0  0  0  0
 39 33  1  0  0  0  0
 40 39  1  0  0  0  0
 42 41  1  0  0  0  0
 42 44  1  0  0  0  0
 43 42  2  0  0  0  0
 44 46  1  0  0  0  0
 45 44  1  0  0  0  0
M  END
>  <minimizedAffinity>
-6.30505133

>  <minimizedRMSD>
1.02568698

$$$$
