
 OpenBabel03242523543D

 44 47  0  0  1  0  0  0  0  0999 V2000
   42.8120   34.5390   38.7360 C   0  0  1  0  0  0  0  0  0  0  0  0
   42.9430   35.1880   40.1080 C   0  0  1  0  0  0  0  0  0  0  0  0
   41.6530   35.3890   40.6280 O   0  0  0  0  0  0  0  0  0  0  0  0
   40.7240   35.7320   39.6440 C   0  0  0  0  0  0  0  0  0  0  0  0
   40.4300   34.5720   38.7130 C   0  0  2  0  0  0  0  0  0  0  0  0
   41.6540   33.5990   38.8270 C   0  0  1  0  0  0  0  0  0  0  0  0
   43.7620   34.0390   38.4540 H   0  0  0  0  0  0  0  0  0  0  0  0
   43.5240   36.1160   40.0930 H   0  0  0  0  0  0  0  0  0  0  0  0
   41.0020   36.6620   39.1200 H   0  0  0  0  0  0  0  0  0  0  0  0
   39.7910   35.9440   40.1820 H   0  0  0  0  0  0  0  0  0  0  0  0
   39.5180   34.0250   38.9970 H   0  0  0  0  0  0  0  0  0  0  0  0
   41.4490   33.2960   39.9060 H   0  0  0  0  0  0  0  0  0  0  0  0
   42.5850   35.5080   37.7470 O   0  0  0  0  0  0  0  0  0  0  0  0
   43.4710   35.9330   37.6000 H   0  0  0  0  0  0  0  0  0  0  0  0
   40.4410   35.0140   37.3970 O   0  0  0  0  0  0  0  0  0  0  0  0
   40.7600   34.3690   36.7460 H   0  0  0  0  0  0  0  0  0  0  0  0
   43.4890   34.1970   40.9350 O   0  0  0  0  0  0  0  0  0  0  0  0
   44.5960   34.3370   41.6760 C   0  0  0  0  0  0  0  0  0  0  0  0
   45.8610   34.4350   41.0780 C   0  0  0  0  0  0  0  0  0  0  0  0
   46.9660   34.5800   41.9030 C   0  0  0  0  0  0  0  0  0  0  0  0
   46.7920   34.6240   43.2740 N   0  0  0  0  0  0  0  0  0  0  0  0
   45.5550   34.5270   43.8120 C   0  0  0  0  0  0  0  0  0  0  0  0
   44.4620   34.3840   43.0220 N   0  0  0  0  0  0  0  0  0  0  0  0
   45.9950   34.3990   40.0060 H   0  0  0  0  0  0  0  0  0  0  0  0
   45.5000   34.5690   44.8880 H   0  0  0  0  0  0  0  0  0  0  0  0
   48.3510   34.6740   41.3340 C   0  0  0  0  0  0  0  0  0  0  0  0
   49.0690   36.0120   41.5070 C   0  0  0  0  0  0  0  0  0  0  0  0
   49.4930   34.6990   42.1910 C   0  0  0  0  0  0  0  0  0  0  0  0
   48.3810   34.2770   40.3010 H   0  0  0  0  0  0  0  0  0  0  0  0
   49.6580   36.3610   40.6620 H   0  0  0  0  0  0  0  0  0  0  0  0
   48.5530   36.7160   42.1740 H   0  0  0  0  0  0  0  0  0  0  0  0
   49.3610   34.6440   43.3030 H   0  0  0  0  0  0  0  0  0  0  0  0
   50.4900   34.3480   41.8700 H   0  0  0  0  0  0  0  0  0  0  0  0
   41.5350   32.6800   37.8520 O   0  0  0  0  0  0  0  0  0  0  0  0
   40.9120   31.4800   37.8800 C   0  0  0  0  0  0  0  0  0  0  0  0
   39.6600   31.3550   37.5070 O   0  0  0  0  0  0  0  0  0  0  0  0
   41.0870   30.0310   38.2050 C   0  0  2  0  0  3  0  0  0  0  0  0
   42.4680   29.6240   37.6760 C   0  0  0  0  0  3  0  0  0  0  0  0
   43.2820   29.8650   38.3620 H   0  0  0  0  0  0  0  0  0  0  0  0
   42.2750   28.1230   37.5350 C   0  0  0  0  0  3  0  0  0  0  0  0
   42.8890   27.6890   36.7180 H   0  0  0  0  0  0  0  0  0  0  0  0
   40.9410   27.9280   37.2180 O   0  0  0  0  0  0  0  0  0  0  0  0
   40.2230   29.0730   37.4960 C   0  0  0  0  0  3  0  0  0  0  0  0
   39.2860   28.8160   38.0330 H   0  0  0  0  0  0  0  0  0  0  0  0
  1  7  1  6  0  0  0
  1  6  1  0  0  0  0
  1  2  1  0  0  0  0
  2  8  1  6  0  0  0
  2  3  1  0  0  0  0
  2 17  1  0  0  0  0
  4 10  1  0  0  0  0
  4  3  1  0  0  0  0
  5  6  1  0  0  0  0
  5 11  1  1  0  0  0
  5  4  1  0  0  0  0
  6 12  1  1  0  0  0
  9  4  1  0  0  0  0
 13  1  1  0  0  0  0
 14 13  1  0  0  0  0
 15  5  1  0  0  0  0
 16 15  1  0  0  0  0
 17 18  1  0  0  0  0
 18 23  1  0  0  0  0
 19 18  2  0  0  0  0
 19 20  1  0  0  0  0
 20 21  2  0  0  0  0
 21 22  1  0  0  0  0
 22 25  1  0  0  0  0
 23 22  2  0  0  0  0
 24 19  1  0  0  0  0
 26 27  1  0  0  0  0
 26 20  1  0  0  0  0
 26 28  1  0  0  0  0
 27 31  1  0  0  0  0
 27 28  1  0  0  0  0
 28 32  1  0  0  0  0
 29 26  1  0  0  0  0
 30 27  1  0  0  0  0
 33 28  1  0  0  0  0
 34 35  1  0  0  0  0
 34  6  1  0  0  0  0
 36 35  2  0  0  0  0
 37 35  1  6  0  0  0
 38 37  1  0  0  0  0
 38 39  1  0  0  0  0
 40 38  1  0  0  0  0
 41 40  1  0  0  0  0
 42 43  1  0  0  0  0
 42 40  1  0  0  0  0
 43 44  1  0  0  0  0
 43 37  1  0  0  0  0
M  END
>  <minimizedAffinity>
-5.63089228

>  <minimizedRMSD>
0.104642622

$$$$
