
 OpenBabel03252507103D

 35 37  0  0  1  0  0  0  0  0999 V2000
   44.5150   35.6550   44.8340 C   0  0  0  0  0  0  0  0  0  0  0  0
   45.0450   35.7810   43.5370 C   0  0  0  0  0  0  0  0  0  0  0  0
   46.0610   34.9140   43.1800 C   0  0  0  0  0  0  0  0  0  0  0  0
   46.4960   33.9970   44.0720 N   0  0  0  0  0  0  0  0  0  0  0  0
   45.9810   33.8900   45.3020 C   0  0  0  0  0  0  0  0  0  0  0  0
   44.9790   34.7290   45.6860 N   0  0  0  0  0  0  0  0  0  0  0  0
   43.7170   36.3070   45.1730 H   0  0  0  0  0  0  0  0  0  0  0  0
   44.6410   36.5440   42.8780 H   0  0  0  0  0  0  0  0  0  0  0  0
   45.3930   32.5600   47.3450 C   0  0  1  0  0  0  0  0  0  0  0  0
   46.4210   32.9190   46.3200 C   0  0  1  0  0  0  0  0  0  0  0  0
   46.5850   31.5290   45.6560 C   0  0  0  0  0  0  0  0  0  0  0  0
   46.3790   30.6070   46.6320 O   0  0  0  0  0  0  0  0  0  0  0  0
   45.9770   31.2330   47.8080 C   0  0  0  0  0  0  0  0  0  0  0  0
   44.4160   32.3740   46.8540 H   0  0  0  0  0  0  0  0  0  0  0  0
   47.3590   33.1970   46.8150 H   0  0  0  0  0  0  0  0  0  0  0  0
   47.6490   31.4860   45.3410 H   0  0  0  0  0  0  0  0  0  0  0  0
   45.9510   31.4330   44.7680 H   0  0  0  0  0  0  0  0  0  0  0  0
   46.7530   31.3400   48.5610 H   0  0  0  0  0  0  0  0  0  0  0  0
   45.1100   30.6330   48.1920 H   0  0  0  0  0  0  0  0  0  0  0  0
   45.2060   33.4820   48.3290 O   0  0  0  0  0  0  0  0  0  0  0  0
   44.7730   33.0610   49.1070 H   0  0  0  0  0  0  0  0  0  0  0  0
   46.5770   35.0440   41.8990 O   0  0  0  0  0  0  0  0  0  0  0  0
   45.3170   32.9630   40.8220 O   0  0  0  0  0  0  0  0  0  0  0  0
   46.6620   33.6890   40.8620 P   0  0  1  0  0  0  0  0  0  0  0  0
   47.1170   34.2020   39.3490 O   0  0  0  0  0  0  0  0  0  0  0  0
   46.3240   34.3200   38.7690 H   0  0  0  0  0  0  0  0  0  0  0  0
   47.7920   32.6270   41.5480 O   0  0  0  0  0  0  0  0  0  0  0  0
   49.0440   32.9810   41.0470 C   0  0  1  0  0  3  0  0  0  0  0  0
   49.7290   33.8140   42.1060 C   0  0  0  0  0  3  0  0  0  0  0  0
   49.9420   34.8490   41.7300 H   0  0  0  0  0  0  0  0  0  0  0  0
   51.0050   33.0360   42.3230 C   0  0  0  0  0  3  0  0  0  0  0  0
   51.8080   33.7830   42.5330 H   0  0  0  0  0  0  0  0  0  0  0  0
   51.2190   32.3160   41.1520 O   0  0  0  0  0  0  0  0  0  0  0  0
   49.9550   31.7740   40.9390 C   0  0  0  0  0  3  0  0  0  0  0  0
   49.9080   31.3070   39.9320 H   0  0  0  0  0  0  0  0  0  0  0  0
  1  7  1  0  0  0  0
  1  6  1  0  0  0  0
  2  1  2  0  0  0  0
  3  2  1  0  0  0  0
  3  4  2  0  0  0  0
  4  5  1  0  0  0  0
  5  6  2  0  0  0  0
  5 10  1  0  0  0  0
  8  2  1  0  0  0  0
  9 14  1  6  0  0  0
  9 13  1  0  0  0  0
  9 20  1  0  0  0  0
 10 15  1  1  0  0  0
 10  9  1  0  0  0  0
 11 10  1  0  0  0  0
 11 12  1  0  0  0  0
 12 13  1  0  0  0  0
 13 19  1  0  0  0  0
 13 18  1  0  0  0  0
 16 11  1  0  0  0  0
 17 11  1  0  0  0  0
 20 21  1  0  0  0  0
 22  3  1  0  0  0  0
 24 23  2  6  0  0  0
 24 27  1  0  0  0  0
 24 22  1  0  0  0  0
 25 24  1  0  0  0  0
 26 25  1  0  0  0  0
 28 27  1  1  0  0  0
 28 29  1  0  0  0  0
 29 31  1  0  0  0  0
 30 29  1  0  0  0  0
 31 32  1  0  0  0  0
 33 31  1  0  0  0  0
 34 28  1  0  0  0  0
 34 33  1  0  0  0  0
 35 34  1  0  0  0  0
M  END
>  <minimizedAffinity>
-5.77232885

>  <minimizedRMSD>
1.82934296

$$$$
