
     RDKit          3D

 31 33  0  0  0  0  0  0  0  0999 V2000
   46.0805   34.1600   41.0125 C   0  0  0  0  0  0  0  0  0  0  0  0
   46.6139   34.8300   42.1077 C   0  0  0  0  0  0  0  0  0  0  0  0
   47.9352   35.2702   41.9846 C   0  0  0  0  0  0  0  0  0  0  0  0
   48.6138   35.0284   40.8330 N   0  0  0  0  0  0  0  0  0  0  0  0
   48.0525   34.3741   39.7984 C   0  0  0  0  0  0  0  0  0  0  0  0
   46.7803   33.9385   39.8896 N   0  0  0  0  0  0  0  0  0  0  0  0
   45.8092   35.0409   43.2967 C   0  0  0  0  0  0  0  0  0  0  0  0
   45.0498   36.1934   43.4877 C   0  0  0  0  0  0  0  0  0  0  0  0
   44.4639   35.9672   44.7253 C   0  0  0  0  0  0  0  0  0  0  0  0
   44.8440   34.7663   45.2397 N   0  0  0  0  0  0  0  0  0  0  0  0
   45.6553   34.2379   44.3485 N   0  0  0  0  0  0  0  0  0  0  0  0
   44.7767   33.7089   41.0955 O   0  0  0  0  0  0  0  0  0  0  0  0
   43.6931   34.1907   40.4189 C   0  0  0  0  0  0  0  0  0  0  0  0
   43.2418   35.3827   40.4249 O   0  0  0  0  0  0  0  0  0  0  0  0
   48.3471   35.7911   42.8386 H   0  0  0  0  0  0  0  0  0  0  0  0
   48.6592   34.2212   38.9159 H   0  0  0  0  0  0  0  0  0  0  0  0
   44.9037   37.0737   42.8807 H   0  0  0  0  0  0  0  0  0  0  0  0
   43.7804   36.6802   45.2144 H   0  0  0  0  0  0  0  0  0  0  0  0
   44.5072   34.4162   46.1661 H   0  0  0  0  0  0  0  0  0  0  0  0
   42.6761   33.5958   39.4813 C   0  0  2  0  0  0  0  0  0  0  0  0
   42.6844   34.2631   38.1540 C   0  0  1  0  0  0  0  0  0  0  0  0
   43.0005   35.3019   38.1213 H   0  0  0  0  0  0  0  0  0  0  0  0
   41.2087   34.1020   37.7590 C   0  0  1  0  0  0  0  0  0  0  0  0
   40.9152   34.7725   36.9544 H   0  0  0  0  0  0  0  0  0  0  0  0
   40.6038   34.4908   38.9751 O   0  0  0  0  0  0  0  0  0  0  0  0
   41.2614   33.7875   39.9618 C   0  0  2  0  0  0  0  0  0  0  0  0
   41.2514   34.3228   40.9319 H   0  0  0  0  0  0  0  0  0  0  0  0
   42.9346   32.5244   39.3627 H   0  0  0  0  0  0  0  0  0  0  0  0
   43.2416   33.6584   37.4065 H   0  0  0  0  0  0  0  0  0  0  0  0
   41.0019   33.0408   37.6177 H   0  0  0  0  0  0  0  0  0  0  0  0
   40.8155   32.7788   40.0844 H   0  0  0  0  0  0  0  0  0  0  0  0
  1 12  1  0
  1  2  1  0
  2  7  1  0
  3  2  2  0
  4  3  1  0
  5  6  1  0
  5  4  2  0
  6  1  2  0
  7  8  1  0
  7 11  2  0
  8  9  2  0
  9 10  1  0
 11 10  1  0
 13 14  2  0
 13 12  1  0
  3 15  1  0
  5 16  1  0
  8 17  1  0
  9 18  1  0
 10 19  1  0
 20 21  1  0
 21 22  1  1
 21 23  1  0
 23 24  1  6
 23 25  1  0
 25 26  1  0
 26 27  1  1
 26 20  1  0
 20 28  1  6
 21 29  1  0
 23 30  1  0
 26 31  1  0
 13 20  1  0
M  ISO  8  15  14  16  14  17  14  18  14  19   9  22  15  24  15  27  15
M  END
>  <DihAtoms>  (1) 
13,12,19,20

>  <DihDeg>  (1) 
-0.3256647708476707

$$$$
