
 OpenBabel03242520453D

 21 22  0  0  1  0  0  0  0  0999 V2000
   44.9230   35.0830   44.3680 C   0  0  0  0  0  0  0  0  0  0  0  0
   45.7350   35.2180   43.2160 C   0  0  0  0  0  0  0  0  0  0  0  0
   46.8800   34.4310   43.1180 C   0  0  0  0  0  0  0  0  0  0  0  0
   47.1670   33.5800   44.1150 N   0  0  0  0  0  0  0  0  0  0  0  0
   46.3690   33.4660   45.2160 C   0  0  0  0  0  0  0  0  0  0  0  0
   45.2590   34.2190   45.3280 N   0  0  0  0  0  0  0  0  0  0  0  0
   43.7610   35.8680   44.4900 N   0  0  0  0  0  0  0  0  0  0  0  0
   45.4370   35.9290   42.4540 H   0  0  0  0  0  0  0  0  0  0  0  0
   46.7200   32.7440   45.9370 H   0  0  0  0  0  0  0  0  0  0  0  0
   43.5060   36.4750   45.3030 H   0  0  0  0  0  0  0  0  0  0  0  0
   43.1640   35.7540   43.6220 H   0  0  0  0  0  0  0  0  0  0  0  0
   47.6500   34.6220   41.9290 C   0  0  0  0  0  0  0  0  0  0  0  0
   48.3580   35.6200   41.6730 O   0  0  0  0  0  0  0  0  0  0  0  0
   47.5130   33.4530   40.9870 C   0  0  2  0  0  3  0  0  0  0  0  0
   48.6810   33.3410   40.0580 C   0  0  0  0  0  3  0  0  0  0  0  0
   49.5220   33.9800   40.3960 H   0  0  0  0  0  0  0  0  0  0  0  0
   48.0910   33.7820   38.7340 C   0  0  0  0  0  3  0  0  0  0  0  0
   48.6880   33.4020   37.8830 H   0  0  0  0  0  0  0  0  0  0  0  0
   46.8120   33.2650   38.7800 O   0  0  0  0  0  0  0  0  0  0  0  0
   46.3570   33.7100   40.0190 C   0  0  0  0  0  3  0  0  0  0  0  0
   45.4230   33.2200   40.3550 H   0  0  0  0  0  0  0  0  0  0  0  0
  1  7  1  0  0  0  0
  1  6  1  0  0  0  0
  2  1  2  0  0  0  0
  3  2  1  0  0  0  0
  3  4  2  0  0  0  0
  4  5  1  0  0  0  0
  5  6  2  0  0  0  0
  5  9  1  0  0  0  0
  7 10  1  0  0  0  0
  8  2  1  0  0  0  0
 11  7  1  0  0  0  0
 12  3  1  0  0  0  0
 13 12  2  0  0  0  0
 14 12  1  1  0  0  0
 15 16  1  0  0  0  0
 15 14  1  0  0  0  0
 17 19  1  0  0  0  0
 17 15  1  0  0  0  0
 18 17  1  0  0  0  0
 19 20  1  0  0  0  0
 20 21  1  0  0  0  0
 20 14  1  0  0  0  0
M  END
>  <minimizedAffinity>
-4.37197351

>  <minimizedRMSD>
1.27596581

$$$$
