
 OpenBabel03242520453D

 21 22  0  0  1  0  0  0  0  0999 V2000
   44.9080   35.1700   44.0700 C   0  0  0  0  0  0  0  0  0  0  0  0
   45.7900   35.3800   42.9820 C   0  0  0  0  0  0  0  0  0  0  0  0
   46.9750   34.6490   42.9410 C   0  0  0  0  0  0  0  0  0  0  0  0
   47.2330   33.7790   43.9290 N   0  0  0  0  0  0  0  0  0  0  0  0
   46.3670   33.5920   44.9680 C   0  0  0  0  0  0  0  0  0  0  0  0
   45.2180   34.2900   45.0240 N   0  0  0  0  0  0  0  0  0  0  0  0
   43.7040   35.8970   44.1330 N   0  0  0  0  0  0  0  0  0  0  0  0
   45.5120   36.1020   42.2230 H   0  0  0  0  0  0  0  0  0  0  0  0
   46.7010   32.8630   45.6890 H   0  0  0  0  0  0  0  0  0  0  0  0
   43.3660   36.4640   44.9450 H   0  0  0  0  0  0  0  0  0  0  0  0
   43.1740   35.7850   43.2220 H   0  0  0  0  0  0  0  0  0  0  0  0
   47.8150   34.9140   41.8150 C   0  0  0  0  0  0  0  0  0  0  0  0
   48.8340   35.6390   41.8220 O   0  0  0  0  0  0  0  0  0  0  0  0
   47.3250   34.2040   40.5790 C   0  0  2  0  0  3  0  0  0  0  0  0
   47.5390   32.7250   40.6590 C   0  0  0  0  0  3  0  0  0  0  0  0
   47.7890   32.4150   41.6940 H   0  0  0  0  0  0  0  0  0  0  0  0
   48.6730   32.5040   39.6780 C   0  0  0  0  0  3  0  0  0  0  0  0
   48.7000   31.4540   39.3290 H   0  0  0  0  0  0  0  0  0  0  0  0
   48.3910   33.4080   38.6740 O   0  0  0  0  0  0  0  0  0  0  0  0
   48.2010   34.5920   39.3860 C   0  0  0  0  0  3  0  0  0  0  0  0
   47.7450   35.4050   38.7880 H   0  0  0  0  0  0  0  0  0  0  0  0
  1  7  1  0  0  0  0
  1  6  1  0  0  0  0
  2  1  2  0  0  0  0
  3  2  1  0  0  0  0
  3  4  2  0  0  0  0
  4  5  1  0  0  0  0
  5  6  2  0  0  0  0
  5  9  1  0  0  0  0
  7 10  1  0  0  0  0
  8  2  1  0  0  0  0
 11  7  1  0  0  0  0
 12 13  2  0  0  0  0
 12  3  1  0  0  0  0
 14 15  1  0  0  0  0
 14 12  1  1  0  0  0
 15 16  1  0  0  0  0
 17 15  1  0  0  0  0
 18 17  1  0  0  0  0
 19 20  1  0  0  0  0
 19 17  1  0  0  0  0
 20 14  1  0  0  0  0
 21 20  1  0  0  0  0
M  END
>  <minimizedAffinity>
-4.57834435

>  <minimizedRMSD>
1.48277676

$$$$
