
     RDKit          3D

 39 41  0  0  0  0  0  0  0  0999 V2000
   44.5689   35.5867   44.7503 C   0  0  0  0  0  0  0  0  0  0  0  0
   45.1503   35.7291   43.4771 C   0  0  0  0  0  0  0  0  0  0  0  0
   46.1938   34.8799   43.1580 C   0  0  0  0  0  0  0  0  0  0  0  0
   46.6061   33.9654   44.0628 N   0  0  0  0  0  0  0  0  0  0  0  0
   46.0417   33.8433   45.2697 C   0  0  0  0  0  0  0  0  0  0  0  0
   45.0123   34.6632   45.6157 N   0  0  0  0  0  0  0  0  0  0  0  0
   45.4173   32.5546   47.3291 C   0  0  1  0  0  0  0  0  0  0  0  0
   46.4553   32.8728   46.2997 C   0  0  1  0  0  0  0  0  0  0  0  0
   46.5811   31.4695   45.6540 C   0  0  0  0  0  0  0  0  0  0  0  0
   46.3493   30.5671   46.6414 O   0  0  0  0  0  0  0  0  0  0  0  0
   45.9652   31.2175   47.8090 C   0  0  0  0  0  0  0  0  0  0  0  0
   45.2561   33.4937   48.3015 O   0  0  0  0  0  0  0  0  0  0  0  0
   46.7599   35.0265   41.9012 O   0  0  0  0  0  0  0  0  0  0  0  0
   48.5954   33.2569   41.1399 O   0  0  0  0  0  0  0  0  0  0  0  0
   48.4161   34.6846   41.6558 P   0  0  1  0  0  0  0  0  0  0  0  0
   49.0395   35.7956   40.5889 O   0  0  0  0  0  0  0  0  0  0  0  0
   49.1567   34.7707   43.1787 O   0  0  0  0  0  0  0  0  0  0  0  0
   43.7468   36.2238   45.0590 H   0  0  0  0  0  0  0  0  0  0  0  0
   44.7615   36.4893   42.8063 H   0  0  0  0  0  0  0  0  0  0  0  0
   44.4356   32.3900   46.8399 H   0  0  0  0  0  0  0  0  0  0  0  0
   47.4004   33.1306   46.7922 H   0  0  0  0  0  0  0  0  0  0  0  0
   47.6432   31.3943   45.3404 H   0  0  0  0  0  0  0  0  0  0  0  0
   45.9441   31.3807   44.7675 H   0  0  0  0  0  0  0  0  0  0  0  0
   46.7435   31.3126   48.5609 H   0  0  0  0  0  0  0  0  0  0  0  0
   45.0811   30.6473   48.1997 H   0  0  0  0  0  0  0  0  0  0  0  0
   44.8109   33.0951   49.0845 H   0  0  0  0  0  0  0  0  0  0  0  0
   49.0530   35.4263   39.6713 H   0  0  0  0  0  0  0  0  0  0  0  0
   50.4825   35.1455   42.9695 C   0  0  1  0  0  0  0  0  0  0  0  0
   51.3170   33.8865   43.0323 C   0  0  1  0  0  0  0  0  0  0  0  0
   52.0571   33.9339   43.8750 H   0  0  0  0  0  0  0  0  0  0  0  0
   52.0109   33.9159   41.6907 C   0  0  1  0  0  0  0  0  0  0  0  0
   53.0332   33.4934   41.8457 H   0  0  0  0  0  0  0  0  0  0  0  0
   52.0237   35.2497   41.2956 O   0  0  0  0  0  0  0  0  0  0  0  0
   50.7039   35.6132   41.5441 C   0  0  2  0  0  0  0  0  0  0  0  0
   50.5890   36.7136   41.4457 H   0  0  0  0  0  0  0  0  0  0  0  0
   50.8198   35.9299   43.6647 H   0  0  0  0  0  0  0  0  0  0  0  0
   50.7113   32.9686   43.0716 H   0  0  0  0  0  0  0  0  0  0  0  0
   51.4678   33.3320   40.9195 H   0  0  0  0  0  0  0  0  0  0  0  0
   50.0445   35.0337   40.8696 H   0  0  0  0  0  0  0  0  0  0  0  0
  1  6  2  0
  2  1  1  0
  3  2  2  0
  3  4  1  0
  4  5  2  0
  5  6  1  0
  7 11  1  0
  7 12  1  0
  8  5  1  0
  8  7  1  0
  9  8  1  0
  9 10  1  0
 10 11  1  0
 13  3  1  0
 14 15  2  0
 15 13  1  1
 15 17  1  0
 16 15  1  0
  1 18  1  0
  2 19  1  0
  7 20  1  6
  8 21  1  1
  9 22  1  0
  9 23  1  0
 11 24  1  0
 11 25  1  0
 12 26  1  0
 16 27  1  0
 28 29  1  0
 29 30  1  1
 29 31  1  0
 31 32  1  1
 31 33  1  0
 33 34  1  0
 34 35  1  1
 34 28  1  0
 28 36  1  1
 29 37  1  0
 31 38  1  0
 34 39  1  0
 17 28  1  0
M  ISO  8  18  14  19  14  20  13  21  13  22  13  23  13  24  13  25  13
M  ISO  5  26   3  27   3  30  15  32  15  35  15
M  END
>  <DihAtoms>  (1) 
14,16,27,28

>  <DihDeg>  (1) 
125.58837706850439

$$$$
