
 OpenBabel03242515293D

 31 33  0  0  1  0  0  0  0  0999 V2000
   36.4290   30.7270   40.6750 C   0  0  0  0  0  0  0  0  0  0  0  0
   37.5850   31.5330   40.6610 C   0  0  0  0  0  0  0  0  0  0  0  0
   38.6100   31.1470   41.4830 C   0  0  0  0  0  0  0  0  0  0  0  0
   38.4840   30.0440   42.2570 N   0  0  0  0  0  0  0  0  0  0  0  0
   37.3430   29.3100   42.2250 C   0  0  0  0  0  0  0  0  0  0  0  0
   36.2830   29.6280   41.4360 N   0  0  0  0  0  0  0  0  0  0  0  0
   35.5930   30.9920   40.0410 H   0  0  0  0  0  0  0  0  0  0  0  0
   39.4980   31.7610   41.4760 H   0  0  0  0  0  0  0  0  0  0  0  0
   37.5690   32.6980   39.7710 C   0  0  0  0  0  0  0  0  0  0  0  0
   36.6640   32.7390   39.1760 H   0  0  0  0  0  0  0  0  0  0  0  0
   37.5180   33.6000   40.4500 H   0  0  0  0  0  0  0  0  0  0  0  0
   38.8080   32.7280   39.0260 N   0  0  0  0  0  0  0  0  0  0  0  0
   39.8770   33.3530   39.5310 C   0  0  0  0  0  0  0  0  0  0  0  0
   41.0360   33.3580   38.7890 C   0  0  0  0  0  0  0  0  0  0  0  0
   41.1130   32.7430   37.5610 C   0  0  0  0  0  0  0  0  0  0  0  0
   42.1770   32.7680   36.9190 O   0  0  0  0  0  0  0  0  0  0  0  0
   40.0020   32.1150   37.0770 N   0  0  0  0  0  0  0  0  0  0  0  0
   38.8680   32.1140   37.8080 C   0  0  0  0  0  0  0  0  0  0  0  0
   37.8720   31.5140   37.3050 O   0  0  0  0  0  0  0  0  0  0  0  0
   39.7820   33.8290   40.5040 H   0  0  0  0  0  0  0  0  0  0  0  0
   41.8950   33.8710   39.2150 H   0  0  0  0  0  0  0  0  0  0  0  0
   40.0400   31.6430   36.1470 H   0  0  0  0  0  0  0  0  0  0  0  0
   37.1870   28.1720   43.0100 O   0  0  0  0  0  0  0  0  0  0  0  0
   37.8880   26.9710   42.8440 C   0  0  2  0  0  3  0  0  0  0  0  0
   39.1650   26.9130   43.6350 C   0  0  0  0  0  3  0  0  0  0  0  0
   39.2140   25.9750   44.2490 H   0  0  0  0  0  0  0  0  0  0  0  0
   40.2320   26.8170   42.5680 C   0  0  0  0  0  3  0  0  0  0  0  0
   41.0820   26.1530   42.8720 H   0  0  0  0  0  0  0  0  0  0  0  0
   39.5630   26.1490   41.5450 O   0  0  0  0  0  0  0  0  0  0  0  0
   38.2990   26.7030   41.4370 C   0  0  0  0  0  3  0  0  0  0  0  0
   37.6660   25.8930   40.9750 H   0  0  0  0  0  0  0  0  0  0  0  0
  1  6  1  0  0  0  0
  2  1  2  0  0  0  0
  2  3  1  0  0  0  0
  3  4  2  0  0  0  0
  5  4  1  0  0  0  0
  5 23  1  0  0  0  0
  6  5  2  0  0  0  0
  7  1  1  0  0  0  0
  8  3  1  0  0  0  0
  9 11  1  0  0  0  0
  9  2  1  0  0  0  0
 10  9  1  0  0  0  0
 12 13  1  0  0  0  0
 12  9  1  0  0  0  0
 13 20  1  0  0  0  0
 14 21  1  0  0  0  0
 14 13  2  0  0  0  0
 15 14  1  0  0  0  0
 16 15  2  0  0  0  0
 17 15  1  0  0  0  0
 17 18  1  0  0  0  0
 18 12  1  0  0  0  0
 19 18  2  0  0  0  0
 22 17  1  0  0  0  0
 24 23  1  6  0  0  0
 24 25  1  0  0  0  0
 25 26  1  0  0  0  0
 27 28  1  0  0  0  0
 27 25  1  0  0  0  0
 29 27  1  0  0  0  0
 30 29  1  0  0  0  0
 30 24  1  0  0  0  0
 31 30  1  0  0  0  0
M  END
>  <minimizedAffinity>
-5.22223854

$$$$

 OpenBabel03242515293D

 31 33  0  0  1  0  0  0  0  0999 V2000
   38.0820   30.4100   41.3930 C   0  0  0  0  0  0  0  0  0  0  0  0
   37.0400   31.0130   40.6620 C   0  0  0  0  0  0  0  0  0  0  0  0
   35.9080   30.2630   40.4780 C   0  0  0  0  0  0  0  0  0  0  0  0
   35.8300   29.0110   40.9860 N   0  0  0  0  0  0  0  0  0  0  0  0
   36.8710   28.4880   41.6810 C   0  0  0  0  0  0  0  0  0  0  0  0
   38.0260   29.1680   41.9050 N   0  0  0  0  0  0  0  0  0  0  0  0
   38.9960   30.9640   41.5640 H   0  0  0  0  0  0  0  0  0  0  0  0
   35.1060   30.7210   39.9190 H   0  0  0  0  0  0  0  0  0  0  0  0
   37.2740   32.3760   40.1730 C   0  0  0  0  0  0  0  0  0  0  0  0
   36.3810   32.8040   39.7330 H   0  0  0  0  0  0  0  0  0  0  0  0
   37.4800   32.9990   41.0920 H   0  0  0  0  0  0  0  0  0  0  0  0
   38.4460   32.3680   39.3270 N   0  0  0  0  0  0  0  0  0  0  0  0
   39.6260   32.7670   39.8130 C   0  0  0  0  0  0  0  0  0  0  0  0
   40.7160   32.7450   38.9740 C   0  0  0  0  0  0  0  0  0  0  0  0
   40.6150   32.3270   37.6670 C   0  0  0  0  0  0  0  0  0  0  0  0
   41.6210   32.3200   36.9380 O   0  0  0  0  0  0  0  0  0  0  0  0
   39.3950   31.9270   37.2040 N   0  0  0  0  0  0  0  0  0  0  0  0
   38.3300   31.9510   38.0310 C   0  0  0  0  0  0  0  0  0  0  0  0
   37.2260   31.5670   37.5420 O   0  0  0  0  0  0  0  0  0  0  0  0
   39.6700   33.0920   40.8510 H   0  0  0  0  0  0  0  0  0  0  0  0
   41.6660   33.0730   39.3870 H   0  0  0  0  0  0  0  0  0  0  0  0
   39.2990   31.6060   36.2150 H   0  0  0  0  0  0  0  0  0  0  0  0
   36.8180   27.2030   42.2130 O   0  0  0  0  0  0  0  0  0  0  0  0
   37.4400   26.0740   41.6660 C   0  0  2  0  0  3  0  0  0  0  0  0
   37.2800   25.9720   40.1750 C   0  0  0  0  0  3  0  0  0  0  0  0
   38.2740   25.8230   39.6740 H   0  0  0  0  0  0  0  0  0  0  0  0
   36.4840   24.6990   39.9950 C   0  0  0  0  0  3  0  0  0  0  0  0
   36.7980   24.1230   39.0860 H   0  0  0  0  0  0  0  0  0  0  0  0
   36.8890   23.9440   41.0930 O   0  0  0  0  0  0  0  0  0  0  0  0
   36.9160   24.7820   42.1940 C   0  0  0  0  0  3  0  0  0  0  0  0
   37.6490   24.3060   42.9040 H   0  0  0  0  0  0  0  0  0  0  0  0
  1  7  1  0  0  0  0
  1  6  1  0  0  0  0
  2  1  2  0  0  0  0
  3  2  1  0  0  0  0
  3  4  2  0  0  0  0
  4  5  1  0  0  0  0
  5  6  2  0  0  0  0
  5 23  1  0  0  0  0
  8  3  1  0  0  0  0
  9  2  1  0  0  0  0
  9 11  1  0  0  0  0
 10  9  1  0  0  0  0
 12 13  1  0  0  0  0
 12  9  1  0  0  0  0
 13 20  1  0  0  0  0
 14 21  1  0  0  0  0
 14 13  2  0  0  0  0
 15 14  1  0  0  0  0
 16 15  2  0  0  0  0
 17 15  1  0  0  0  0
 17 18  1  0  0  0  0
 18 12  1  0  0  0  0
 19 18  2  0  0  0  0
 22 17  1  0  0  0  0
 24 30  1  0  0  0  0
 24 23  1  1  0  0  0
 25 24  1  0  0  0  0
 26 25  1  0  0  0  0
 27 25  1  0  0  0  0
 27 29  1  0  0  0  0
 28 27  1  0  0  0  0
 29 30  1  0  0  0  0
 30 31  1  0  0  0  0
M  END
>  <minimizedAffinity>
-5.15454245

$$$$

 OpenBabel03242515293D

 31 33  0  0  1  0  0  0  0  0999 V2000
   36.7270   31.3000   40.6430 C   0  0  0  0  0  0  0  0  0  0  0  0
   37.6040   31.1120   39.5560 C   0  0  0  0  0  0  0  0  0  0  0  0
   37.9500   29.8190   39.2660 C   0  0  0  0  0  0  0  0  0  0  0  0
   37.4560   28.7990   40.0060 N   0  0  0  0  0  0  0  0  0  0  0  0
   36.6150   29.0480   41.0410 C   0  0  0  0  0  0  0  0  0  0  0  0
   36.2260   30.3020   41.3910 N   0  0  0  0  0  0  0  0  0  0  0  0
   36.4250   32.3050   40.9100 H   0  0  0  0  0  0  0  0  0  0  0  0
   38.6210   29.6690   38.4340 H   0  0  0  0  0  0  0  0  0  0  0  0
   38.0570   32.3170   38.8520 C   0  0  0  0  0  0  0  0  0  0  0  0
   37.9710   32.2110   37.7770 H   0  0  0  0  0  0  0  0  0  0  0  0
   37.3200   33.1280   39.1300 H   0  0  0  0  0  0  0  0  0  0  0  0
   39.3690   32.6730   39.3430 N   0  0  0  0  0  0  0  0  0  0  0  0
   40.4570   32.0980   38.8220 C   0  0  0  0  0  0  0  0  0  0  0  0
   41.6870   32.4660   39.3180 C   0  0  0  0  0  0  0  0  0  0  0  0
   41.8140   33.3970   40.3230 C   0  0  0  0  0  0  0  0  0  0  0  0
   42.9410   33.7050   40.7460 O   0  0  0  0  0  0  0  0  0  0  0  0
   40.6810   33.9640   40.8310 N   0  0  0  0  0  0  0  0  0  0  0  0
   39.4780   33.5990   40.3410 C   0  0  0  0  0  0  0  0  0  0  0  0
   38.4650   34.1610   40.8540 O   0  0  0  0  0  0  0  0  0  0  0  0
   40.3220   31.3660   38.0290 H   0  0  0  0  0  0  0  0  0  0  0  0
   42.5600   31.9880   38.8820 H   0  0  0  0  0  0  0  0  0  0  0  0
   40.7560   34.6720   41.5940 H   0  0  0  0  0  0  0  0  0  0  0  0
   36.0930   28.0190   41.8190 O   0  0  0  0  0  0  0  0  0  0  0  0
   36.7780   27.3500   42.8410 C   0  0  2  0  0  3  0  0  0  0  0  0
   37.7800   28.2170   43.5520 C   0  0  0  0  0  3  0  0  0  0  0  0
   37.6280   28.1770   44.6630 H   0  0  0  0  0  0  0  0  0  0  0  0
   39.1000   27.5460   43.2470 C   0  0  0  0  0  3  0  0  0  0  0  0
   39.8110   27.5880   44.1120 H   0  0  0  0  0  0  0  0  0  0  0  0
   38.7260   26.2100   43.1160 O   0  0  0  0  0  0  0  0  0  0  0  0
   37.5590   26.1700   42.3730 C   0  0  0  0  0  3  0  0  0  0  0  0
   37.0580   25.2060   42.6700 H   0  0  0  0  0  0  0  0  0  0  0  0
  1  7  1  0  0  0  0
  1  6  1  0  0  0  0
  2  1  2  0  0  0  0
  3  2  1  0  0  0  0
  3  4  2  0  0  0  0
  4  5  1  0  0  0  0
  5  6  2  0  0  0  0
  5 23  1  0  0  0  0
  8  3  1  0  0  0  0
  9 11  1  0  0  0  0
  9 12  1  0  0  0  0
  9  2  1  0  0  0  0
 10  9  1  0  0  0  0
 12 18  1  0  0  0  0
 13 14  2  0  0  0  0
 13 12  1  0  0  0  0
 14 15  1  0  0  0  0
 15 16  2  0  0  0  0
 15 17  1  0  0  0  0
 17 22  1  0  0  0  0
 18 17  1  0  0  0  0
 18 19  2  0  0  0  0
 20 13  1  0  0  0  0
 21 14  1  0  0  0  0
 24 23  1  6  0  0  0
 24 25  1  0  0  0  0
 25 26  1  0  0  0  0
 27 25  1  0  0  0  0
 27 28  1  0  0  0  0
 29 27  1  0  0  0  0
 30 31  1  0  0  0  0
 30 24  1  0  0  0  0
 30 29  1  0  0  0  0
M  END
>  <minimizedAffinity>
-5.02150059

$$$$

 OpenBabel03242515293D

 31 33  0  0  1  0  0  0  0  0999 V2000
   39.3670   28.5500   41.6150 C   0  0  0  0  0  0  0  0  0  0  0  0
   38.4700   28.2290   42.6530 C   0  0  0  0  0  0  0  0  0  0  0  0
   37.3840   29.0520   42.7990 C   0  0  0  0  0  0  0  0  0  0  0  0
   37.2140   30.1090   41.9710 N   0  0  0  0  0  0  0  0  0  0  0  0
   38.1160   30.3630   40.9900 C   0  0  0  0  0  0  0  0  0  0  0  0
   39.2170   29.5940   40.7820 N   0  0  0  0  0  0  0  0  0  0  0  0
   40.2390   27.9280   41.4610 H   0  0  0  0  0  0  0  0  0  0  0  0
   36.6930   28.8110   43.5920 H   0  0  0  0  0  0  0  0  0  0  0  0
   38.7910   27.0540   43.4690 C   0  0  0  0  0  0  0  0  0  0  0  0
   39.8060   27.0920   43.8470 H   0  0  0  0  0  0  0  0  0  0  0  0
   38.1310   27.1260   44.3820 H   0  0  0  0  0  0  0  0  0  0  0  0
   38.4470   25.8650   42.7220 N   0  0  0  0  0  0  0  0  0  0  0  0
   37.2250   25.7350   42.1950 C   0  0  0  0  0  0  0  0  0  0  0  0
   36.9390   24.5870   41.4920 C   0  0  0  0  0  0  0  0  0  0  0  0
   37.8720   23.5890   41.3250 C   0  0  0  0  0  0  0  0  0  0  0  0
   37.5780   22.5650   40.6840 O   0  0  0  0  0  0  0  0  0  0  0  0
   39.1090   23.7550   41.8770 N   0  0  0  0  0  0  0  0  0  0  0  0
   39.3840   24.8830   42.5660 C   0  0  0  0  0  0  0  0  0  0  0  0
   40.5490   24.9770   43.0530 O   0  0  0  0  0  0  0  0  0  0  0  0
   36.5130   26.5430   42.3460 H   0  0  0  0  0  0  0  0  0  0  0  0
   35.9410   24.4990   41.0720 H   0  0  0  0  0  0  0  0  0  0  0  0
   39.8300   23.0090   41.7620 H   0  0  0  0  0  0  0  0  0  0  0  0
   37.9660   31.4440   40.1260 O   0  0  0  0  0  0  0  0  0  0  0  0
   37.1600   31.4600   38.9810 C   0  0  2  0  0  3  0  0  0  0  0  0
   36.4310   30.1660   38.7490 C   0  0  0  0  0  3  0  0  0  0  0  0
   35.3330   30.3450   38.6000 H   0  0  0  0  0  0  0  0  0  0  0  0
   36.9960   29.6770   37.4350 C   0  0  0  0  0  3  0  0  0  0  0  0
   36.2240   29.1720   36.7990 H   0  0  0  0  0  0  0  0  0  0  0  0
   37.3110   30.8700   36.7900 O   0  0  0  0  0  0  0  0  0  0  0  0
   37.9110   31.7050   37.7170 C   0  0  0  0  0  3  0  0  0  0  0  0
   37.7290   32.7470   37.3310 H   0  0  0  0  0  0  0  0  0  0  0  0
  1  2  1  0  0  0  0
  2  3  2  0  0  0  0
  2  9  1  0  0  0  0
  3  8  1  0  0  0  0
  4  3  1  0  0  0  0
  5  4  2  0  0  0  0
  6  5  1  0  0  0  0
  6  1  2  0  0  0  0
  7  1  1  0  0  0  0
  9 10  1  0  0  0  0
  9 11  1  0  0  0  0
 12  9  1  0  0  0  0
 13 20  1  0  0  0  0
 13 12  1  0  0  0  0
 14 13  2  0  0  0  0
 15 14  1  0  0  0  0
 15 17  1  0  0  0  0
 16 15  2  0  0  0  0
 17 18  1  0  0  0  0
 18 12  1  0  0  0  0
 18 19  2  0  0  0  0
 21 14  1  0  0  0  0
 22 17  1  0  0  0  0
 23  5  1  0  0  0  0
 24 23  1  1  0  0  0
 25 24  1  0  0  0  0
 26 25  1  0  0  0  0
 27 25  1  0  0  0  0
 28 27  1  0  0  0  0
 29 27  1  0  0  0  0
 29 30  1  0  0  0  0
 30 24  1  0  0  0  0
 31 30  1  0  0  0  0
M  END
>  <minimizedAffinity>
-5.01913261

$$$$

 OpenBabel03242515293D

 31 33  0  0  1  0  0  0  0  0999 V2000
   36.0450   29.6330   40.7170 C   0  0  0  0  0  0  0  0  0  0  0  0
   37.0470   30.5940   40.9550 C   0  0  0  0  0  0  0  0  0  0  0  0
   38.0400   30.2390   41.8300 C   0  0  0  0  0  0  0  0  0  0  0  0
   38.0260   29.0200   42.4170 N   0  0  0  0  0  0  0  0  0  0  0  0
   37.0310   28.1390   42.1450 C   0  0  0  0  0  0  0  0  0  0  0  0
   36.0120   28.4170   41.2890 N   0  0  0  0  0  0  0  0  0  0  0  0
   35.2400   29.8680   40.0320 H   0  0  0  0  0  0  0  0  0  0  0  0
   38.8100   30.9720   42.0160 H   0  0  0  0  0  0  0  0  0  0  0  0
   36.9230   31.8720   40.2460 C   0  0  0  0  0  0  0  0  0  0  0  0
   35.9810   31.9470   39.7150 H   0  0  0  0  0  0  0  0  0  0  0  0
   36.8750   32.6640   41.0500 H   0  0  0  0  0  0  0  0  0  0  0  0
   38.1100   32.0730   39.4450 N   0  0  0  0  0  0  0  0  0  0  0  0
   38.3720   31.2570   38.4190 C   0  0  0  0  0  0  0  0  0  0  0  0
   39.5120   31.4840   37.6830 C   0  0  0  0  0  0  0  0  0  0  0  0
   40.3730   32.5170   37.9800 C   0  0  0  0  0  0  0  0  0  0  0  0
   41.3940   32.6910   37.2940 O   0  0  0  0  0  0  0  0  0  0  0  0
   40.0740   33.3300   39.0350 N   0  0  0  0  0  0  0  0  0  0  0  0
   38.9540   33.1020   39.7530 C   0  0  0  0  0  0  0  0  0  0  0  0
   38.7320   33.8920   40.7190 O   0  0  0  0  0  0  0  0  0  0  0  0
   37.6710   30.4510   38.2120 H   0  0  0  0  0  0  0  0  0  0  0  0
   39.7090   30.8110   36.8540 H   0  0  0  0  0  0  0  0  0  0  0  0
   40.7140   34.1180   39.2760 H   0  0  0  0  0  0  0  0  0  0  0  0
   36.9920   26.8790   42.7360 O   0  0  0  0  0  0  0  0  0  0  0  0
   37.6970   25.7540   42.2910 C   0  0  2  0  0  3  0  0  0  0  0  0
   38.3980   25.9720   40.9790 C   0  0  0  0  0  3  0  0  0  0  0  0
   39.4790   25.6800   41.0490 H   0  0  0  0  0  0  0  0  0  0  0  0
   37.7190   24.9880   40.0530 C   0  0  0  0  0  3  0  0  0  0  0  0
   38.4310   24.5310   39.3180 H   0  0  0  0  0  0  0  0  0  0  0  0
   37.3550   23.9670   40.9280 O   0  0  0  0  0  0  0  0  0  0  0  0
   36.8400   24.5540   42.0700 C   0  0  0  0  0  3  0  0  0  0  0  0
   36.9930   23.7900   42.8840 H   0  0  0  0  0  0  0  0  0  0  0  0
  1  2  2  0  0  0  0
  1  6  1  0  0  0  0
  2  3  1  0  0  0  0
  3  8  1  0  0  0  0
  3  4  2  0  0  0  0
  5  4  1  0  0  0  0
  5 23  1  0  0  0  0
  6  5  2  0  0  0  0
  7  1  1  0  0  0  0
  9  2  1  0  0  0  0
  9 11  1  0  0  0  0
 10  9  1  0  0  0  0
 12 18  1  0  0  0  0
 12  9  1  0  0  0  0
 13 12  1  0  0  0  0
 14 15  1  0  0  0  0
 14 13  2  0  0  0  0
 15 17  1  0  0  0  0
 16 15  2  0  0  0  0
 17 22  1  0  0  0  0
 17 18  1  0  0  0  0
 18 19  2  0  0  0  0
 20 13  1  0  0  0  0
 21 14  1  0  0  0  0
 24 23  1  6  0  0  0
 25 26  1  0  0  0  0
 25 24  1  0  0  0  0
 27 29  1  0  0  0  0
 27 25  1  0  0  0  0
 28 27  1  0  0  0  0
 29 30  1  0  0  0  0
 30 24  1  0  0  0  0
 30 31  1  0  0  0  0
M  END
>  <minimizedAffinity>
-4.93174553

$$$$

 OpenBabel03242515293D

 31 33  0  0  1  0  0  0  0  0999 V2000
   39.0420   31.1040   38.6000 C   0  0  0  0  0  0  0  0  0  0  0  0
   39.0230   32.1960   39.4900 C   0  0  0  0  0  0  0  0  0  0  0  0
   40.0540   33.0920   39.3800 C   0  0  0  0  0  0  0  0  0  0  0  0
   41.0230   32.9060   38.4540 N   0  0  0  0  0  0  0  0  0  0  0  0
   40.9820   31.8320   37.6260 C   0  0  0  0  0  0  0  0  0  0  0  0
   39.9940   30.9000   37.6730 N   0  0  0  0  0  0  0  0  0  0  0  0
   38.2470   30.3700   38.6490 H   0  0  0  0  0  0  0  0  0  0  0  0
   40.0450   33.9310   40.0590 H   0  0  0  0  0  0  0  0  0  0  0  0
   37.9080   32.2590   40.4400 C   0  0  0  0  0  0  0  0  0  0  0  0
   37.8580   33.2200   40.9380 H   0  0  0  0  0  0  0  0  0  0  0  0
   36.9690   32.2010   39.8140 H   0  0  0  0  0  0  0  0  0  0  0  0
   37.9760   31.1070   41.3100 N   0  0  0  0  0  0  0  0  0  0  0  0
   39.1010   30.8400   41.9810 C   0  0  0  0  0  0  0  0  0  0  0  0
   39.1230   29.7320   42.7970 C   0  0  0  0  0  0  0  0  0  0  0  0
   38.0280   28.9100   42.9330 C   0  0  0  0  0  0  0  0  0  0  0  0
   38.0840   27.9190   43.6800 O   0  0  0  0  0  0  0  0  0  0  0  0
   36.8960   29.2130   42.2330 N   0  0  0  0  0  0  0  0  0  0  0  0
   36.8800   30.3000   41.4330 C   0  0  0  0  0  0  0  0  0  0  0  0
   35.8010   30.5280   40.8110 O   0  0  0  0  0  0  0  0  0  0  0  0
   39.9480   31.5100   41.8500 H   0  0  0  0  0  0  0  0  0  0  0  0
   40.0460   29.5310   43.3340 H   0  0  0  0  0  0  0  0  0  0  0  0
   36.0550   28.6020   42.3220 H   0  0  0  0  0  0  0  0  0  0  0  0
   41.9660   31.6160   36.6650 O   0  0  0  0  0  0  0  0  0  0  0  0
   42.9950   30.6720   36.7590 C   0  0  2  0  0  3  0  0  0  0  0  0
   44.2880   31.2490   37.2620 C   0  0  0  0  0  3  0  0  0  0  0  0
   44.6880   30.6500   38.1220 H   0  0  0  0  0  0  0  0  0  0  0  0
   45.2330   31.0610   36.0960 C   0  0  0  0  0  3  0  0  0  0  0  0
   46.2730   30.8070   36.4250 H   0  0  0  0  0  0  0  0  0  0  0  0
   44.7240   29.9140   35.4910 O   0  0  0  0  0  0  0  0  0  0  0  0
   43.3450   30.0300   35.4600 C   0  0  0  0  0  3  0  0  0  0  0  0
   42.9660   28.9710   35.4140 H   0  0  0  0  0  0  0  0  0  0  0  0
  1  7  1  0  0  0  0
  1  2  1  0  0  0  0
  2  9  1  0  0  0  0
  3  2  2  0  0  0  0
  3  8  1  0  0  0  0
  4  3  1  0  0  0  0
  5  6  1  0  0  0  0
  5  4  2  0  0  0  0
  6  1  2  0  0  0  0
  9 10  1  0  0  0  0
  9 12  1  0  0  0  0
 11  9  1  0  0  0  0
 12 18  1  0  0  0  0
 12 13  1  0  0  0  0
 13 14  2  0  0  0  0
 14 15  1  0  0  0  0
 14 21  1  0  0  0  0
 15 16  2  0  0  0  0
 17 22  1  0  0  0  0
 17 15  1  0  0  0  0
 18 17  1  0  0  0  0
 19 18  2  0  0  0  0
 20 13  1  0  0  0  0
 23  5  1  0  0  0  0
 24 23  1  6  0  0  0
 24 25  1  0  0  0  0
 25 26  1  0  0  0  0
 27 28  1  0  0  0  0
 27 25  1  0  0  0  0
 29 27  1  0  0  0  0
 30 29  1  0  0  0  0
 30 24  1  0  0  0  0
 31 30  1  0  0  0  0
M  END
>  <minimizedAffinity>
-4.85772943

$$$$

 OpenBabel03242515293D

 31 33  0  0  1  0  0  0  0  0999 V2000
   40.1270   28.0110   41.8870 C   0  0  0  0  0  0  0  0  0  0  0  0
   39.1420   28.0810   42.8920 C   0  0  0  0  0  0  0  0  0  0  0  0
   38.4980   29.2820   43.0360 C   0  0  0  0  0  0  0  0  0  0  0  0
   38.8180   30.3260   42.2370 N   0  0  0  0  0  0  0  0  0  0  0  0
   39.7770   30.1930   41.2860 C   0  0  0  0  0  0  0  0  0  0  0  0
   40.4600   29.0360   41.0820 N   0  0  0  0  0  0  0  0  0  0  0  0
   40.6620   27.0820   41.7350 H   0  0  0  0  0  0  0  0  0  0  0  0
   37.7430   29.3400   43.8050 H   0  0  0  0  0  0  0  0  0  0  0  0
   38.9110   26.8650   43.6800 C   0  0  0  0  0  0  0  0  0  0  0  0
   39.7710   26.6110   44.2880 H   0  0  0  0  0  0  0  0  0  0  0  0
   38.0950   27.1290   44.4160 H   0  0  0  0  0  0  0  0  0  0  0  0
   38.4400   25.8240   42.7950 N   0  0  0  0  0  0  0  0  0  0  0  0
   37.2940   25.9820   42.1250 C   0  0  0  0  0  0  0  0  0  0  0  0
   36.8820   24.9650   41.2940 C   0  0  0  0  0  0  0  0  0  0  0  0
   37.6150   23.8100   41.1430 C   0  0  0  0  0  0  0  0  0  0  0  0
   37.2120   22.9130   40.3840 O   0  0  0  0  0  0  0  0  0  0  0  0
   38.7800   23.6830   41.8430 N   0  0  0  0  0  0  0  0  0  0  0  0
   39.1790   24.6830   42.6570 C   0  0  0  0  0  0  0  0  0  0  0  0
   40.2690   24.5050   43.2780 O   0  0  0  0  0  0  0  0  0  0  0  0
   36.7400   26.9070   42.2670 H   0  0  0  0  0  0  0  0  0  0  0  0
   35.9490   25.1110   40.7570 H   0  0  0  0  0  0  0  0  0  0  0  0
   39.3500   22.8150   41.7430 H   0  0  0  0  0  0  0  0  0  0  0  0
   40.1260   31.2510   40.4520 O   0  0  0  0  0  0  0  0  0  0  0  0
   39.3820   31.6930   39.3510 C   0  0  2  0  0  3  0  0  0  0  0  0
   38.6950   33.0090   39.5860 C   0  0  0  0  0  3  0  0  0  0  0  0
   38.9240   33.7340   38.7610 H   0  0  0  0  0  0  0  0  0  0  0  0
   37.2270   32.6590   39.4920 C   0  0  0  0  0  3  0  0  0  0  0  0
   36.6250   33.4680   39.0050 H   0  0  0  0  0  0  0  0  0  0  0  0
   37.2390   31.5900   38.5990 O   0  0  0  0  0  0  0  0  0  0  0  0
   38.2910   30.7610   38.9470 C   0  0  0  0  0  3  0  0  0  0  0  0
   38.5540   30.2120   37.9990 H   0  0  0  0  0  0  0  0  0  0  0  0
  1  2  1  0  0  0  0
  2  3  2  0  0  0  0
  2  9  1  0  0  0  0
  3  8  1  0  0  0  0
  4  3  1  0  0  0  0
  5  4  2  0  0  0  0
  6  5  1  0  0  0  0
  6  1  2  0  0  0  0
  7  1  1  0  0  0  0
  9 10  1  0  0  0  0
  9 11  1  0  0  0  0
 12  9  1  0  0  0  0
 13 20  1  0  0  0  0
 13 12  1  0  0  0  0
 14 13  2  0  0  0  0
 15 14  1  0  0  0  0
 15 17  1  0  0  0  0
 16 15  2  0  0  0  0
 17 18  1  0  0  0  0
 18 12  1  0  0  0  0
 18 19  2  0  0  0  0
 21 14  1  0  0  0  0
 22 17  1  0  0  0  0
 23  5  1  0  0  0  0
 24 25  1  0  0  0  0
 24 23  1  1  0  0  0
 26 25  1  0  0  0  0
 27 25  1  0  0  0  0
 28 27  1  0  0  0  0
 29 30  1  0  0  0  0
 29 27  1  0  0  0  0
 30 24  1  0  0  0  0
 31 30  1  0  0  0  0
M  END
>  <minimizedAffinity>
-4.8310914

$$$$

 OpenBabel03242515293D

 31 33  0  0  1  0  0  0  0  0999 V2000
   38.1070   30.7420   38.9180 C   0  0  0  0  0  0  0  0  0  0  0  0
   37.8040   31.5790   40.0100 C   0  0  0  0  0  0  0  0  0  0  0  0
   38.5150   32.7460   40.1030 C   0  0  0  0  0  0  0  0  0  0  0  0
   39.4540   33.0460   39.1750 N   0  0  0  0  0  0  0  0  0  0  0  0
   39.6980   32.1970   38.1460 C   0  0  0  0  0  0  0  0  0  0  0  0
   39.0350   31.0210   37.9860 N   0  0  0  0  0  0  0  0  0  0  0  0
   37.5690   29.8090   38.8020 H   0  0  0  0  0  0  0  0  0  0  0  0
   38.2870   33.3910   40.9370 H   0  0  0  0  0  0  0  0  0  0  0  0
   36.7630   31.1140   40.9330 C   0  0  0  0  0  0  0  0  0  0  0  0
   36.3980   31.9160   41.5640 H   0  0  0  0  0  0  0  0  0  0  0  0
   35.8840   30.8270   40.2830 H   0  0  0  0  0  0  0  0  0  0  0  0
   37.2490   29.9430   41.6270 N   0  0  0  0  0  0  0  0  0  0  0  0
   38.3810   30.0070   42.3350 C   0  0  0  0  0  0  0  0  0  0  0  0
   38.8090   28.8700   42.9800 C   0  0  0  0  0  0  0  0  0  0  0  0
   38.1050   27.6890   42.9100 C   0  0  0  0  0  0  0  0  0  0  0  0
   38.5220   26.6810   43.5050 O   0  0  0  0  0  0  0  0  0  0  0  0
   36.9540   27.6610   42.1770 N   0  0  0  0  0  0  0  0  0  0  0  0
   36.5390   28.7790   41.5470 C   0  0  0  0  0  0  0  0  0  0  0  0
   35.4630   28.6880   40.8840 O   0  0  0  0  0  0  0  0  0  0  0  0
   38.9130   30.9560   42.3690 H   0  0  0  0  0  0  0  0  0  0  0  0
   39.7310   28.9400   43.5500 H   0  0  0  0  0  0  0  0  0  0  0  0
   36.4060   26.7750   42.1120 H   0  0  0  0  0  0  0  0  0  0  0  0
   40.6590   32.4810   37.1800 O   0  0  0  0  0  0  0  0  0  0  0  0
   42.0390   32.5410   37.4040 C   0  0  2  0  0  3  0  0  0  0  0  0
   42.4600   31.9080   38.7010 C   0  0  0  0  0  3  0  0  0  0  0  0
   43.2860   31.1660   38.5370 H   0  0  0  0  0  0  0  0  0  0  0  0
   43.0360   33.0660   39.4840 C   0  0  0  0  0  3  0  0  0  0  0  0
   43.9210   32.7660   40.1020 H   0  0  0  0  0  0  0  0  0  0  0  0
   43.5280   33.8870   38.4720 O   0  0  0  0  0  0  0  0  0  0  0  0
   42.5810   33.9280   37.4640 C   0  0  0  0  0  3  0  0  0  0  0  0
   43.1590   34.1810   36.5310 H   0  0  0  0  0  0  0  0  0  0  0  0
  1  2  1  0  0  0  0
  2  3  2  0  0  0  0
  2  9  1  0  0  0  0
  3  8  1  0  0  0  0
  4  3  1  0  0  0  0
  5  4  2  0  0  0  0
  6  5  1  0  0  0  0
  6  1  2  0  0  0  0
  7  1  1  0  0  0  0
  9 10  1  0  0  0  0
  9 12  1  0  0  0  0
 11  9  1  0  0  0  0
 12 13  1  0  0  0  0
 13 20  1  0  0  0  0
 13 14  2  0  0  0  0
 14 21  1  0  0  0  0
 15 14  1  0  0  0  0
 15 16  2  0  0  0  0
 17 15  1  0  0  0  0
 18 12  1  0  0  0  0
 18 17  1  0  0  0  0
 19 18  2  0  0  0  0
 22 17  1  0  0  0  0
 23  5  1  0  0  0  0
 24 23  1  1  0  0  0
 24 30  1  0  0  0  0
 24 25  1  0  0  0  0
 25 27  1  0  0  0  0
 26 25  1  0  0  0  0
 27 28  1  0  0  0  0
 29 27  1  0  0  0  0
 30 29  1  0  0  0  0
 31 30  1  0  0  0  0
M  END
>  <minimizedAffinity>
-4.76483059

$$$$

 OpenBabel03242515293D

 31 33  0  0  1  0  0  0  0  0999 V2000
   37.7840   29.3600   39.8420 C   0  0  0  0  0  0  0  0  0  0  0  0
   36.7330   29.5130   40.7680 C   0  0  0  0  0  0  0  0  0  0  0  0
   36.3620   30.7970   41.0670 C   0  0  0  0  0  0  0  0  0  0  0  0
   36.9970   31.8420   40.4850 N   0  0  0  0  0  0  0  0  0  0  0  0
   38.0030   31.6260   39.6000 C   0  0  0  0  0  0  0  0  0  0  0  0
   38.4270   30.3830   39.2530 N   0  0  0  0  0  0  0  0  0  0  0  0
   38.1110   28.3630   39.5740 H   0  0  0  0  0  0  0  0  0  0  0  0
   35.5570   30.9200   41.7750 H   0  0  0  0  0  0  0  0  0  0  0  0
   36.1470   28.2850   41.3150 C   0  0  0  0  0  0  0  0  0  0  0  0
   35.2750   28.4920   41.9250 H   0  0  0  0  0  0  0  0  0  0  0  0
   35.7560   27.7090   40.4250 H   0  0  0  0  0  0  0  0  0  0  0  0
   37.1920   27.5200   41.9580 N   0  0  0  0  0  0  0  0  0  0  0  0
   37.7800   27.9890   43.0640 C   0  0  0  0  0  0  0  0  0  0  0  0
   38.7710   27.2300   43.6440 C   0  0  0  0  0  0  0  0  0  0  0  0
   39.1600   26.0210   43.1160 C   0  0  0  0  0  0  0  0  0  0  0  0
   40.0590   25.3620   43.6660 O   0  0  0  0  0  0  0  0  0  0  0  0
   38.5380   25.5740   41.9860 N   0  0  0  0  0  0  0  0  0  0  0  0
   37.5670   26.3220   41.4210 C   0  0  0  0  0  0  0  0  0  0  0  0
   37.0280   25.8530   40.3750 O   0  0  0  0  0  0  0  0  0  0  0  0
   37.4480   28.9480   43.4550 H   0  0  0  0  0  0  0  0  0  0  0  0
   39.2370   27.6270   44.5420 H   0  0  0  0  0  0  0  0  0  0  0  0
   38.8190   24.6590   41.5700 H   0  0  0  0  0  0  0  0  0  0  0  0
   38.6720   32.6820   38.9880 O   0  0  0  0  0  0  0  0  0  0  0  0
   39.8960   33.2160   39.4080 C   0  0  2  0  0  3  0  0  0  0  0  0
   41.0500   32.8240   38.5280 C   0  0  0  0  0  3  0  0  0  0  0  0
   41.6320   33.7270   38.2030 H   0  0  0  0  0  0  0  0  0  0  0  0
   41.9360   32.0170   39.4510 C   0  0  0  0  0  3  0  0  0  0  0  0
   43.0250   32.1870   39.2540 H   0  0  0  0  0  0  0  0  0  0  0  0
   41.6690   32.5950   40.6900 O   0  0  0  0  0  0  0  0  0  0  0  0
   40.3020   32.7910   40.7780 C   0  0  0  0  0  3  0  0  0  0  0  0
   40.1760   33.6310   41.5190 H   0  0  0  0  0  0  0  0  0  0  0  0
  1  2  1  0  0  0  0
  2  3  2  0  0  0  0
  2  9  1  0  0  0  0
  3  8  1  0  0  0  0
  4  3  1  0  0  0  0
  5  4  2  0  0  0  0
  6  5  1  0  0  0  0
  6  1  2  0  0  0  0
  7  1  1  0  0  0  0
  9 10  1  0  0  0  0
  9 12  1  0  0  0  0
 11  9  1  0  0  0  0
 12 13  1  0  0  0  0
 13 20  1  0  0  0  0
 13 14  2  0  0  0  0
 14 21  1  0  0  0  0
 15 14  1  0  0  0  0
 15 16  2  0  0  0  0
 17 15  1  0  0  0  0
 18 12  1  0  0  0  0
 18 17  1  0  0  0  0
 19 18  2  0  0  0  0
 22 17  1  0  0  0  0
 23  5  1  0  0  0  0
 24 23  1  6  0  0  0
 24 30  1  0  0  0  0
 25 24  1  0  0  0  0
 25 27  1  0  0  0  0
 26 25  1  0  0  0  0
 27 29  1  0  0  0  0
 28 27  1  0  0  0  0
 29 30  1  0  0  0  0
 30 31  1  0  0  0  0
M  END
>  <minimizedAffinity>
-4.7124424

$$$$
