
 OpenBabel03242520453D

 21 22  0  0  1  0  0  0  0  0999 V2000
   44.8720   35.0710   44.4590 C   0  0  0  0  0  0  0  0  0  0  0  0
   45.7860   35.0400   43.3770 C   0  0  0  0  0  0  0  0  0  0  0  0
   46.8970   34.2050   43.4730 C   0  0  0  0  0  0  0  0  0  0  0  0
   47.0560   33.4660   44.5820 N   0  0  0  0  0  0  0  0  0  0  0  0
   46.1620   33.5110   45.6120 C   0  0  0  0  0  0  0  0  0  0  0  0
   45.0830   34.3120   45.5360 N   0  0  0  0  0  0  0  0  0  0  0  0
   43.7420   35.9070   44.3850 N   0  0  0  0  0  0  0  0  0  0  0  0
   45.5880   35.6680   42.5160 H   0  0  0  0  0  0  0  0  0  0  0  0
   46.4150   32.8660   46.4380 H   0  0  0  0  0  0  0  0  0  0  0  0
   43.4470   36.6130   45.0980 H   0  0  0  0  0  0  0  0  0  0  0  0
   43.2170   35.7140   43.4840 H   0  0  0  0  0  0  0  0  0  0  0  0
   47.7740   34.2270   42.3450 C   0  0  0  0  0  0  0  0  0  0  0  0
   48.1950   35.2550   41.7710 O   0  0  0  0  0  0  0  0  0  0  0  0
   48.1490   32.8340   41.9070 C   0  0  2  0  0  3  0  0  0  0  0  0
   49.4130   32.8190   41.1070 C   0  0  0  0  0  3  0  0  0  0  0  0
   49.9520   33.7830   41.1960 H   0  0  0  0  0  0  0  0  0  0  0  0
   48.9120   32.5400   39.7050 C   0  0  0  0  0  3  0  0  0  0  0  0
   49.7140   32.1200   39.0690 H   0  0  0  0  0  0  0  0  0  0  0  0
   47.8680   31.6630   39.9200 O   0  0  0  0  0  0  0  0  0  0  0  0
   47.1230   32.3240   40.8960 C   0  0  0  0  0  3  0  0  0  0  0  0
   46.3520   31.6880   41.3740 H   0  0  0  0  0  0  0  0  0  0  0  0
  1  6  1  0  0  0  0
  2  3  1  0  0  0  0
  2  1  2  0  0  0  0
  3  4  2  0  0  0  0
  4  5  1  0  0  0  0
  5  9  1  0  0  0  0
  6  5  2  0  0  0  0
  7  1  1  0  0  0  0
  7 10  1  0  0  0  0
  8  2  1  0  0  0  0
 11  7  1  0  0  0  0
 12  3  1  0  0  0  0
 13 12  2  0  0  0  0
 14 12  1  6  0  0  0
 15 16  1  0  0  0  0
 15 14  1  0  0  0  0
 17 19  1  0  0  0  0
 17 15  1  0  0  0  0
 18 17  1  0  0  0  0
 19 20  1  0  0  0  0
 20 21  1  0  0  0  0
 20 14  1  0  0  0  0
M  END
>  <minimizedAffinity>
-4.15395451

>  <minimizedRMSD>
2.01772022

$$$$
