
     RDKit          3D

 25 26  0  0  0  0  0  0  0  0999 V2000
   44.5182   36.0049   44.5300 C   0  0  0  0  0  0  0  0  0  0  0  0
   45.2164   35.8800   43.3198 C   0  0  0  0  0  0  0  0  0  0  0  0
   46.1079   34.8266   43.1813 C   0  0  0  0  0  0  0  0  0  0  0  0
   46.2818   33.9559   44.1999 N   0  0  0  0  0  0  0  0  0  0  0  0
   45.5892   34.0940   45.3771 C   0  0  0  0  0  0  0  0  0  0  0  0
   44.7394   35.1078   45.4949 N   0  0  0  0  0  0  0  0  0  0  0  0
   45.8449   33.0935   46.4363 C   0  0  0  0  0  0  0  0  0  0  0  0
   46.5251   31.6174   45.6056 S   0  0  0  0  0  0  0  0  0  0  0  0
   43.8322   36.8381   44.6019 H   0  0  0  0  0  0  0  0  0  0  0  0
   45.1317   36.5308   42.4666 H   0  0  0  0  0  0  0  0  0  0  0  0
   46.6704   34.6861   42.2691 H   0  0  0  0  0  0  0  0  0  0  0  0
   46.6750   33.4839   47.0715 H   0  0  0  0  0  0  0  0  0  0  0  0
   44.9344   32.8499   47.0196 H   0  0  0  0  0  0  0  0  0  0  0  0
   46.8735   30.3125   46.8467 C   0  0  2  0  0  0  0  0  0  0  0  0
   48.3452   30.1057   46.9862 C   0  0  1  0  0  0  0  0  0  0  0  0
   48.8813   30.8627   46.3605 H   0  0  0  0  0  0  0  0  0  0  0  0
   48.5822   28.6918   46.5325 C   0  0  2  0  0  0  0  0  0  0  0  0
   49.2883   28.1443   47.1934 H   0  0  0  0  0  0  0  0  0  0  0  0
   47.3604   28.0368   46.5774 O   0  0  0  0  0  0  0  0  0  0  0  0
   46.3856   28.9982   46.3272 C   0  0  1  0  0  0  0  0  0  0  0  0
   45.4209   28.6603   46.7236 H   0  0  0  0  0  0  0  0  0  0  0  0
   46.4449   30.6044   47.8118 H   0  0  0  0  0  0  0  0  0  0  0  0
   48.6847   30.2735   48.0291 H   0  0  0  0  0  0  0  0  0  0  0  0
   49.0089   28.7339   45.5070 H   0  0  0  0  0  0  0  0  0  0  0  0
   46.2526   29.0703   45.2188 H   0  0  0  0  0  0  0  0  0  0  0  0
  1  6  2  0
  2  1  1  0
  3  2  2  0
  3  4  1  0
  4  5  2  0
  5  6  1  0
  5  7  1  0
  8  7  1  0
  1  9  1  0
  2 10  1  0
  3 11  1  0
  7 12  1  0
  7 13  1  0
 14 15  1  0
 15 16  1  6
 15 17  1  0
 17 18  1  1
 17 19  1  0
 19 20  1  0
 20 21  1  1
 20 14  1  0
 14 22  1  1
 15 23  1  0
 17 24  1  0
 20 25  1  0
  8 14  1  0
M  ISO  8   9  14  10  14  11  14  12   8  13   8  16  15  18  15  21  15
M  END
>  <DihAtoms>  (1) 
6,7,13,14

>  <DihDeg>  (1) 
-66.19726945141684

$$$$
