
 OpenBabel03252509003D

 44 46  0  0  1  0  0  0  0  0999 V2000
   46.6800   34.4950   43.6200 N   0  0  0  0  0  0  0  0  0  0  0  0
   46.1890   35.5150   42.7660 C   0  0  0  0  0  0  0  0  0  0  0  0
   44.6900   35.7090   42.7820 C   0  0  0  0  0  0  0  0  0  0  0  0
   44.0500   35.4410   44.1180 C   0  0  0  0  0  0  0  0  0  0  0  0
   45.0700   35.1130   45.1790 C   0  0  0  0  0  0  0  0  0  0  0  0
   45.8570   33.9000   44.5630 C   0  0  2  0  0  0  0  0  0  0  0  0
   46.4960   35.4530   41.7180 H   0  0  0  0  0  0  0  0  0  0  0  0
   46.6230   36.4830   43.1350 H   0  0  0  0  0  0  0  0  0  0  0  0
   44.4620   36.7730   42.5150 H   0  0  0  0  0  0  0  0  0  0  0  0
   44.2700   35.1020   41.9590 H   0  0  0  0  0  0  0  0  0  0  0  0
   43.4110   34.5370   44.0170 H   0  0  0  0  0  0  0  0  0  0  0  0
   43.4440   36.2870   44.4980 H   0  0  0  0  0  0  0  0  0  0  0  0
   45.7700   35.9250   45.3960 H   0  0  0  0  0  0  0  0  0  0  0  0
   44.5550   34.7020   46.0640 H   0  0  0  0  0  0  0  0  0  0  0  0
   45.0870   33.1780   44.2160 H   0  0  0  0  0  0  0  0  0  0  0  0
   47.7600   33.7340   43.0650 C   0  0  0  0  0  0  0  0  0  0  0  0
   48.3410   33.2190   43.8620 H   0  0  0  0  0  0  0  0  0  0  0  0
   48.4490   34.4070   42.5490 H   0  0  0  0  0  0  0  0  0  0  0  0
   47.1920   32.6810   42.1620 C   0  0  0  0  0  0  0  0  0  0  0  0
   46.0820   32.7680   42.0940 H   0  0  0  0  0  0  0  0  0  0  0  0
   47.3940   31.6700   42.5320 H   0  0  0  0  0  0  0  0  0  0  0  0
   49.1130   32.0060   39.0040 C   0  0  0  0  0  0  0  0  0  0  0  0
   48.5690   31.8660   40.2930 C   0  0  0  0  0  0  0  0  0  0  0  0
   47.7570   32.8490   40.7960 C   0  0  0  0  0  0  0  0  0  0  0  0
   47.5170   33.9120   40.0220 N   0  0  0  0  0  0  0  0  0  0  0  0
   48.0380   34.0450   38.7860 C   0  0  0  0  0  0  0  0  0  0  0  0
   48.8320   33.1070   38.2690 N   0  0  0  0  0  0  0  0  0  0  0  0
   49.7520   31.2100   38.6350 H   0  0  0  0  0  0  0  0  0  0  0  0
   48.7780   30.9940   40.9030 H   0  0  0  0  0  0  0  0  0  0  0  0
   47.7410   34.9560   38.3130 H   0  0  0  0  0  0  0  0  0  0  0  0
   46.5740   33.4480   45.6630 O   0  0  0  0  0  0  0  0  0  0  0  0
   45.6360   31.0980   44.9070 O   0  0  0  0  0  0  0  0  0  0  0  0
   46.2030   31.8640   46.0800 P   0  0  2  0  0  0  0  0  0  0  0  0
   44.9280   31.9590   47.2200 O   0  0  0  0  0  0  0  0  0  0  0  0
   44.0670   32.1250   46.7370 H   0  0  0  0  0  0  0  0  0  0  0  0
   47.5030   31.1200   46.8090 O   0  0  0  0  0  0  0  0  0  0  0  0
   47.7360   29.8340   46.4400 C   0  0  2  0  0  3  0  0  0  0  0  0
   46.9100   28.9430   47.3620 C   0  0  0  0  0  3  0  0  0  0  0  0
   45.9060   28.7470   46.9400 H   0  0  0  0  0  0  0  0  0  0  0  0
   47.7720   27.7090   47.4610 C   0  0  0  0  0  3  0  0  0  0  0  0
   47.9390   27.4270   48.5130 H   0  0  0  0  0  0  0  0  0  0  0  0
   48.9530   27.9460   46.7800 O   0  0  0  0  0  0  0  0  0  0  0  0
   49.1230   29.3300   46.7330 C   0  0  0  0  0  3  0  0  0  0  0  0
   49.4810   29.7390   47.6900 H   0  0  0  0  0  0  0  0  0  0  0  0
  1  6  1  0  0  0  0
  2  3  1  0  0  0  0
  2  8  1  0  0  0  0
  2  1  1  0  0  0  0
  3  4  1  0  0  0  0
  4 12  1  0  0  0  0
  4  5  1  0  0  0  0
  5 13  1  0  0  0  0
  5 14  1  0  0  0  0
  6 15  1  6  0  0  0
  6  5  1  0  0  0  0
  6 31  1  0  0  0  0
  7  2  1  0  0  0  0
  9  3  1  0  0  0  0
 10  3  1  0  0  0  0
 11  4  1  0  0  0  0
 16  1  1  0  0  0  0
 16 17  1  0  0  0  0
 18 16  1  0  0  0  0
 19 21  1  0  0  0  0
 19 16  1  0  0  0  0
 20 19  1  0  0  0  0
 22 23  1  0  0  0  0
 23 24  2  0  0  0  0
 23 29  1  0  0  0  0
 24 19  1  0  0  0  0
 25 24  1  0  0  0  0
 26 25  2  0  0  0  0
 27 26  1  0  0  0  0
 27 22  2  0  0  0  0
 28 22  1  0  0  0  0
 30 26  1  0  0  0  0
 31 33  1  0  0  0  0
 33 32  2  6  0  0  0
 33 36  1  0  0  0  0
 33 34  1  0  0  0  0
 35 34  1  0  0  0  0
 37 43  1  0  0  0  0
 37 36  1  1  0  0  0
 37 38  1  0  0  0  0
 38 40  1  0  0  0  0
 39 38  1  0  0  0  0
 40 41  1  0  0  0  0
 42 40  1  0  0  0  0
 43 42  1  0  0  0  0
 43 44  1  0  0  0  0
M  END
>  <minimizedAffinity>
-4.19073534

>  <minimizedRMSD>
1.21864986

$$$$
