
     RDKit          3D

 25 26  0  0  0  0  0  0  0  0999 V2000
   44.9098   35.1357   44.0456 C   0  0  0  0  0  0  0  0  0  0  0  0
   45.7442   35.3874   42.9289 C   0  0  0  0  0  0  0  0  0  0  0  0
   46.9413   34.6821   42.8263 C   0  0  0  0  0  0  0  0  0  0  0  0
   47.2547   33.7968   43.7850 N   0  0  0  0  0  0  0  0  0  0  0  0
   46.4349   33.5707   44.8524 C   0  0  0  0  0  0  0  0  0  0  0  0
   45.2745   34.2427   44.9681 N   0  0  0  0  0  0  0  0  0  0  0  0
   43.6948   35.8357   44.1724 N   0  0  0  0  0  0  0  0  0  0  0  0
   47.7301   34.9878   41.6740 C   0  0  0  0  0  0  0  0  0  0  0  0
   48.6827   35.7961   41.6385 O   0  0  0  0  0  0  0  0  0  0  0  0
   45.4209   36.1183   42.1965 H   0  0  0  0  0  0  0  0  0  0  0  0
   46.8118   32.8339   45.5439 H   0  0  0  0  0  0  0  0  0  0  0  0
   43.3776   36.3793   45.0076 H   0  0  0  0  0  0  0  0  0  0  0  0
   43.1322   35.7319   43.2799 H   0  0  0  0  0  0  0  0  0  0  0  0
   47.2759   34.2065   40.4676 C   0  0  2  0  0  0  0  0  0  0  0  0
   45.8521   34.4974   40.1128 C   0  0  1  0  0  0  0  0  0  0  0  0
   45.4851   35.3973   40.6456 H   0  0  0  0  0  0  0  0  0  0  0  0
   45.1434   33.2249   40.5297 C   0  0  2  0  0  0  0  0  0  0  0  0
   44.1782   33.1126   40.0003 H   0  0  0  0  0  0  0  0  0  0  0  0
   46.0598   32.2432   40.2109 O   0  0  0  0  0  0  0  0  0  0  0  0
   47.2232   32.7174   40.8144 C   0  0  1  0  0  0  0  0  0  0  0  0
   48.1408   32.1864   40.4941 H   0  0  0  0  0  0  0  0  0  0  0  0
   47.9866   34.3438   39.6272 H   0  0  0  0  0  0  0  0  0  0  0  0
   45.7205   34.5964   39.0037 H   0  0  0  0  0  0  0  0  0  0  0  0
   44.9362   33.1726   41.6107 H   0  0  0  0  0  0  0  0  0  0  0  0
   47.0729   32.5773   41.9230 H   0  0  0  0  0  0  0  0  0  0  0  0
  1  7  1  0
  1  6  2  0
  2  1  1  0
  3  2  2  0
  3  4  1  0
  4  5  2  0
  5  6  1  0
  8  3  1  0
  9  8  2  0
  2 10  1  0
  5 11  1  0
  7 12  1  0
  7 13  1  0
 14 15  1  0
 15 16  1  1
 15 17  1  0
 17 18  1  6
 17 19  1  0
 19 20  1  0
 20 21  1  6
 20 14  1  0
 14 22  1  6
 15 23  1  0
 17 24  1  0
 20 25  1  0
  8 14  1  0
M  ISO  5  10  14  11  14  16  15  18  15  21  15
M  END
>  <DihAtoms>  (1) 
2,7,13,14

>  <DihDeg>  (1) 
-59.994839097030095

$$$$
