
 OpenBabel03242516163D

 42 46  0  0  1  0  0  0  0  0999 V2000
   47.9340   34.4490   41.5070 C   0  0  0  0  0  0  0  0  0  0  0  0
   48.8340   35.6550   41.2110 C   0  0  0  0  0  0  0  0  0  0  0  0
   49.3410   34.4900   41.8890 C   0  0  0  0  0  0  0  0  0  0  0  0
   48.5410   36.6030   41.7410 H   0  0  0  0  0  0  0  0  0  0  0  0
   49.1030   35.8730   40.1600 H   0  0  0  0  0  0  0  0  0  0  0  0
   50.0290   33.8180   41.3080 H   0  0  0  0  0  0  0  0  0  0  0  0
   49.7510   34.6680   42.8840 H   0  0  0  0  0  0  0  0  0  0  0  0
   47.5430   33.6830   40.2910 C   0  0  0  0  0  0  0  0  0  0  0  0
   48.0870   34.2380   38.9850 C   0  0  0  0  0  0  0  0  0  0  0  0
   47.6610   33.2110   37.9270 C   0  0  0  0  0  0  0  0  0  0  0  0
   46.2940   33.4350   37.7050 O   0  0  0  0  0  0  0  0  0  0  0  0
   45.6870   32.8910   38.8660 C   0  0  0  0  0  0  0  0  0  0  0  0
   46.0170   33.7380   40.0740 C   0  0  0  0  0  0  0  0  0  0  0  0
   47.8390   32.6200   40.3050 H   0  0  0  0  0  0  0  0  0  0  0  0
   49.1860   34.1690   39.0190 H   0  0  0  0  0  0  0  0  0  0  0  0
   47.6960   35.2300   38.7530 H   0  0  0  0  0  0  0  0  0  0  0  0
   47.8050   32.2060   38.3390 H   0  0  0  0  0  0  0  0  0  0  0  0
   48.1650   33.3770   36.9590 H   0  0  0  0  0  0  0  0  0  0  0  0
   44.5900   33.0200   38.7020 H   0  0  0  0  0  0  0  0  0  0  0  0
   45.9890   31.8480   39.0400 H   0  0  0  0  0  0  0  0  0  0  0  0
   45.6650   34.7660   39.9500 H   0  0  0  0  0  0  0  0  0  0  0  0
   45.5900   33.1970   40.9460 H   0  0  0  0  0  0  0  0  0  0  0  0
   46.2420   35.8880   42.6660 C   0  0  0  0  0  0  0  0  0  0  0  0
   46.8770   34.6650   42.5420 C   0  0  0  0  0  0  0  0  0  0  0  0
   46.4990   33.6610   43.4260 C   0  0  0  0  0  0  0  0  0  0  0  0
   45.5370   33.8930   44.3680 N   0  0  0  0  0  0  0  0  0  0  0  0
   44.9640   35.1000   44.4300 C   0  0  0  0  0  0  0  0  0  0  0  0
   45.2980   36.0780   43.6070 N   0  0  0  0  0  0  0  0  0  0  0  0
   43.9560   35.4160   45.3820 N   0  0  0  0  0  0  0  0  0  0  0  0
   46.5490   36.6540   41.9710 H   0  0  0  0  0  0  0  0  0  0  0  0
   42.9950   35.1170   45.1480 H   0  0  0  0  0  0  0  0  0  0  0  0
   44.4430   35.9120   46.1580 H   0  0  0  0  0  0  0  0  0  0  0  0
   47.1350   32.3620   43.4610 C   0  0  1  0  0  3  0  0  0  0  0  0
   48.1740   31.9850   44.0640 O   0  0  0  0  0  0  0  0  0  0  0  0
   47.2720   30.9390   43.1110 C   0  0  2  0  0  0  0  0  0  0  0  0
   46.3560   30.5310   41.9730 C   0  0  0  0  0  3  0  0  0  0  0  0
   46.7460   29.5200   41.6710 H   0  0  0  0  0  0  0  0  0  0  0  0
   45.0570   30.3010   42.6630 C   0  0  0  0  0  3  0  0  0  0  0  0
   44.6820   29.2500   42.4950 H   0  0  0  0  0  0  0  0  0  0  0  0
   45.2630   30.3880   44.0320 O   0  0  0  0  0  0  0  0  0  0  0  0
   46.6060   30.0670   44.2180 C   0  0  0  0  0  3  0  0  0  0  0  0
   46.9710   30.3700   45.2010 H   0  0  0  0  0  0  0  0  0  0  0  0
  1  3  1  0  0  0  0
  1 24  1  0  0  0  0
  2  1  1  0  0  0  0
  2  4  1  0  0  0  0
  2  3  1  0  0  0  0
  3  7  1  0  0  0  0
  5  2  1  0  0  0  0
  6  3  1  0  0  0  0
  8 14  1  0  0  0  0
  8  1  1  0  0  0  0
  9 15  1  0  0  0  0
  9  8  1  0  0  0  0
 10 17  1  0  0  0  0
 10  9  1  0  0  0  0
 11 10  1  0  0  0  0
 11 12  1  0  0  0  0
 12 20  1  0  0  0  0
 12 13  1  0  0  0  0
 13  8  1  0  0  0  0
 13 22  1  0  0  0  0
 16  9  1  0  0  0  0
 18 10  1  0  0  0  0
 19 12  1  0  0  0  0
 21 13  1  0  0  0  0
 23 28  1  0  0  0  0
 24 23  2  0  0  0  0
 24 25  1  0  0  0  0
 25 26  2  0  0  0  0
 26 27  1  0  0  0  0
 27 29  1  0  0  0  0
 28 27  2  0  0  0  0
 29 32  1  0  0  0  0
 30 23  1  0  0  0  0
 31 29  1  0  0  0  0
 33 25  1  1  0  0  0
 33 34  1  0  0  0  0
 35 36  1  6  0  0  0
 35 33  1  0  0  0  0
 35 34  1  0  0  0  0
 35 41  1  0  0  0  0
 36 38  1  0  0  0  0
 37 36  1  0  0  0  0
 38 40  1  0  0  0  0
 39 38  1  0  0  0  0
 40 41  1  0  0  0  0
 41 42  1  0  0  0  0
M  END
>  <minimizedAffinity>
-4.96607924

>  <minimizedRMSD>
1.45609677

$$$$
