
 OpenBabel03252507103D

 35 37  0  0  1  0  0  0  0  0999 V2000
   44.6650   35.4100   44.1640 C   0  0  0  0  0  0  0  0  0  0  0  0
   45.4740   35.6460   43.0380 C   0  0  0  0  0  0  0  0  0  0  0  0
   46.6710   34.9590   42.9610 C   0  0  0  0  0  0  0  0  0  0  0  0
   47.0100   34.1030   43.9510 N   0  0  0  0  0  0  0  0  0  0  0  0
   46.2280   33.8900   45.0160 C   0  0  0  0  0  0  0  0  0  0  0  0
   45.0430   34.5510   45.1220 N   0  0  0  0  0  0  0  0  0  0  0  0
   43.7140   35.9200   44.2810 H   0  0  0  0  0  0  0  0  0  0  0  0
   45.1300   36.3500   42.2850 H   0  0  0  0  0  0  0  0  0  0  0  0
   45.4050   32.6510   47.0350 C   0  0  1  0  0  0  0  0  0  0  0  0
   46.5490   32.9790   46.1290 C   0  0  1  0  0  0  0  0  0  0  0  0
   46.8130   31.5600   45.5640 C   0  0  0  0  0  0  0  0  0  0  0  0
   46.4980   30.6850   46.5520 O   0  0  0  0  0  0  0  0  0  0  0  0
   45.9440   31.3600   47.6350 C   0  0  0  0  0  0  0  0  0  0  0  0
   44.5000   32.4230   46.4360 H   0  0  0  0  0  0  0  0  0  0  0  0
   47.4140   33.2990   46.7220 H   0  0  0  0  0  0  0  0  0  0  0  0
   47.9080   31.5220   45.3860 H   0  0  0  0  0  0  0  0  0  0  0  0
   46.2960   31.4090   44.6090 H   0  0  0  0  0  0  0  0  0  0  0  0
   46.6170   31.5190   48.4720 H   0  0  0  0  0  0  0  0  0  0  0  0
   45.0420   30.7630   47.9380 H   0  0  0  0  0  0  0  0  0  0  0  0
   45.0850   33.6170   47.9390 O   0  0  0  0  0  0  0  0  0  0  0  0
   44.5620   33.2270   48.6770 H   0  0  0  0  0  0  0  0  0  0  0  0
   47.4620   35.1970   41.8480 O   0  0  0  0  0  0  0  0  0  0  0  0
   46.0520   33.7610   40.1070 O   0  0  0  0  0  0  0  0  0  0  0  0
   47.4790   34.0860   40.5500 P   0  0  1  0  0  0  0  0  0  0  0  0
   48.3660   34.7350   39.3030 O   0  0  0  0  0  0  0  0  0  0  0  0
   47.7700   35.1640   38.6390 H   0  0  0  0  0  0  0  0  0  0  0  0
   48.1640   32.6550   41.1480 O   0  0  0  0  0  0  0  0  0  0  0  0
   49.5440   32.7610   40.9860 C   0  0  1  0  0  3  0  0  0  0  0  0
   50.1500   32.8570   42.3670 C   0  0  0  0  0  3  0  0  0  0  0  0
   50.6860   33.8330   42.5060 H   0  0  0  0  0  0  0  0  0  0  0  0
   51.1160   31.6960   42.3540 C   0  0  0  0  0  3  0  0  0  0  0  0
   52.0070   32.0090   42.9500 H   0  0  0  0  0  0  0  0  0  0  0  0
   51.4110   31.4590   41.0140 O   0  0  0  0  0  0  0  0  0  0  0  0
   50.1370   31.4710   40.4560 C   0  0  0  0  0  3  0  0  0  0  0  0
   50.2100   31.4710   39.3470 H   0  0  0  0  0  0  0  0  0  0  0  0
  1  7  1  0  0  0  0
  1  6  1  0  0  0  0
  2  1  2  0  0  0  0
  3  2  1  0  0  0  0
  3  4  2  0  0  0  0
  4  5  1  0  0  0  0
  5  6  2  0  0  0  0
  5 10  1  0  0  0  0
  8  2  1  0  0  0  0
  9 14  1  6  0  0  0
  9 13  1  0  0  0  0
  9 20  1  0  0  0  0
 10 15  1  1  0  0  0
 10  9  1  0  0  0  0
 11 10  1  0  0  0  0
 11 12  1  0  0  0  0
 12 13  1  0  0  0  0
 13 19  1  0  0  0  0
 13 18  1  0  0  0  0
 16 11  1  0  0  0  0
 17 11  1  0  0  0  0
 20 21  1  0  0  0  0
 22  3  1  0  0  0  0
 24 23  2  6  0  0  0
 24 27  1  0  0  0  0
 24 22  1  0  0  0  0
 25 24  1  0  0  0  0
 26 25  1  0  0  0  0
 28 27  1  1  0  0  0
 28 29  1  0  0  0  0
 29 30  1  0  0  0  0
 31 29  1  0  0  0  0
 31 32  1  0  0  0  0
 33 31  1  0  0  0  0
 34 28  1  0  0  0  0
 34 33  1  0  0  0  0
 35 34  1  0  0  0  0
M  END
>  <minimizedAffinity>
-5.45224333

>  <minimizedRMSD>
1.82760012

$$$$
