
 OpenBabel03252505493D

 21 22  0  0  1  0  0  0  0  0999 V2000
   44.6990   35.4860   45.1910 C   0  0  0  0  0  0  0  0  0  0  0  0
   45.3930   35.0590   44.0680 C   0  0  0  0  0  0  0  0  0  0  0  0
   45.9950   33.8140   44.1470 C   0  0  0  0  0  0  0  0  0  0  0  0
   45.8900   33.0850   45.2810 N   0  0  0  0  0  0  0  0  0  0  0  0
   45.2080   33.5370   46.3490 C   0  0  0  0  0  0  0  0  0  0  0  0
   44.6110   34.7280   46.3190 N   0  0  0  0  0  0  0  0  0  0  0  0
   44.1860   36.4560   45.2330 H   0  0  0  0  0  0  0  0  0  0  0  0
   46.5330   33.4840   43.2780 H   0  0  0  0  0  0  0  0  0  0  0  0
   45.4250   35.9650   42.8890 C   0  0  0  0  0  0  0  0  0  0  0  0
   45.2050   37.2390   43.3830 F   0  0  0  0  0  0  0  0  0  0  0  0
   44.4100   35.6040   42.0430 F   0  0  0  0  0  0  0  0  0  0  0  0
   46.6620   35.8140   42.2830 F   0  0  0  0  0  0  0  0  0  0  0  0
   45.0850   32.8090   47.5230 O   0  0  0  0  0  0  0  0  0  0  0  0
   46.1140   32.6130   48.4540 C   0  0  2  0  0  3  0  0  0  0  0  0
   47.4500   32.3660   47.7820 C   0  0  0  0  0  3  0  0  0  0  0  0
   47.3050   31.6970   46.9260 H   0  0  0  0  0  0  0  0  0  0  0  0
   48.1480   31.5910   48.8830 C   0  0  0  0  0  3  0  0  0  0  0  0
   49.0470   31.0670   48.5220 H   0  0  0  0  0  0  0  0  0  0  0  0
   47.1630   30.6760   49.2430 O   0  0  0  0  0  0  0  0  0  0  0  0
   45.9610   31.3600   49.2650 C   0  0  0  0  0  3  0  0  0  0  0  0
   45.7100   31.5730   50.3260 H   0  0  0  0  0  0  0  0  0  0  0  0
  1  7  1  0  0  0  0
  1  6  1  0  0  0  0
  2  3  1  0  0  0  0
  2  1  2  0  0  0  0
  3  4  2  0  0  0  0
  4  5  1  0  0  0  0
  5 13  1  0  0  0  0
  6  5  2  0  0  0  0
  8  3  1  0  0  0  0
  9 10  1  0  0  0  0
  9  2  1  0  0  0  0
 11  9  1  0  0  0  0
 12  9  1  0  0  0  0
 14 13  1  6  0  0  0
 14 20  1  0  0  0  0
 15 14  1  0  0  0  0
 15 17  1  0  0  0  0
 16 15  1  0  0  0  0
 17 19  1  0  0  0  0
 18 17  1  0  0  0  0
 19 20  1  0  0  0  0
 20 21  1  0  0  0  0
M  END
>  <minimizedAffinity>
-4.86743927

>  <minimizedRMSD>
1.12023246

$$$$
