
 OpenBabel03242512273D

 21 22  0  0  1  0  0  0  0  0999 V2000
   44.9080   35.0480   44.4740 C   0  0  0  0  0  0  0  0  0  0  0  0
   45.8570   34.9130   43.4580 C   0  0  0  0  0  0  0  0  0  0  0  0
   46.9070   34.0040   43.6440 C   0  0  0  0  0  0  0  0  0  0  0  0
   46.9290   33.3130   44.8020 N   0  0  0  0  0  0  0  0  0  0  0  0
   46.0220   33.4470   45.7620 C   0  0  0  0  0  0  0  0  0  0  0  0
   45.0060   34.3270   45.5840 N   0  0  0  0  0  0  0  0  0  0  0  0
   43.8450   35.9660   44.2900 N   0  0  0  0  0  0  0  0  0  0  0  0
   45.7360   35.5180   42.5790 H   0  0  0  0  0  0  0  0  0  0  0  0
   47.6460   33.8970   42.8580 H   0  0  0  0  0  0  0  0  0  0  0  0
   43.6470   36.3810   43.3480 H   0  0  0  0  0  0  0  0  0  0  0  0
   43.2470   36.2330   45.1150 H   0  0  0  0  0  0  0  0  0  0  0  0
   46.0570   32.6990   47.0040 C   0  0  0  0  0  0  0  0  0  0  0  0
   45.1430   32.8010   47.8770 O   0  0  0  0  0  0  0  0  0  0  0  0
   47.1760   31.7860   47.2830 C   0  0  1  0  0  3  0  0  0  0  0  0
   47.9630   32.1000   48.5130 C   0  0  0  0  0  3  0  0  0  0  0  0
   48.8620   32.7110   48.2420 H   0  0  0  0  0  0  0  0  0  0  0  0
   48.3890   30.7230   48.9930 C   0  0  0  0  0  3  0  0  0  0  0  0
   48.0110   30.5420   50.0200 H   0  0  0  0  0  0  0  0  0  0  0  0
   47.9100   29.8000   48.0600 O   0  0  0  0  0  0  0  0  0  0  0  0
   46.7310   30.3660   47.5410 C   0  0  0  0  0  3  0  0  0  0  0  0
   46.5040   29.8970   46.5680 H   0  0  0  0  0  0  0  0  0  0  0  0
  1  6  1  0  0  0  0
  2  3  1  0  0  0  0
  2  1  2  0  0  0  0
  3  4  2  0  0  0  0
  4  5  1  0  0  0  0
  5 12  1  0  0  0  0
  6  5  2  0  0  0  0
  7  1  1  0  0  0  0
  7 11  1  0  0  0  0
  8  2  1  0  0  0  0
  9  3  1  0  0  0  0
 10  7  1  0  0  0  0
 12 13  2  0  0  0  0
 14 12  1  1  0  0  0
 14 20  1  0  0  0  0
 14 15  1  0  0  0  0
 15 17  1  0  0  0  0
 16 15  1  0  0  0  0
 17 18  1  0  0  0  0
 19 17  1  0  0  0  0
 20 19  1  0  0  0  0
 21 20  1  0  0  0  0
M  END
>  <minimizedAffinity>
-4.78095722

>  <minimizedRMSD>
0.882555127

$$$$
