
 OpenBabel03252505493D

 21 22  0  0  1  0  0  0  0  0999 V2000
   44.7660   35.4120   44.8950 C   0  0  0  0  0  0  0  0  0  0  0  0
   45.6600   34.9940   43.9190 C   0  0  0  0  0  0  0  0  0  0  0  0
   46.4170   33.8710   44.2120 C   0  0  0  0  0  0  0  0  0  0  0  0
   46.2630   33.2450   45.4010 N   0  0  0  0  0  0  0  0  0  0  0  0
   45.3850   33.6840   46.3200 C   0  0  0  0  0  0  0  0  0  0  0  0
   44.6340   34.7590   46.0830 N   0  0  0  0  0  0  0  0  0  0  0  0
   44.1190   36.2890   44.7630 H   0  0  0  0  0  0  0  0  0  0  0  0
   47.1090   33.5480   43.4570 H   0  0  0  0  0  0  0  0  0  0  0  0
   45.7240   35.7790   42.6570 C   0  0  0  0  0  0  0  0  0  0  0  0
   45.3320   37.0630   42.9890 F   0  0  0  0  0  0  0  0  0  0  0  0
   44.8390   35.2300   41.7660 F   0  0  0  0  0  0  0  0  0  0  0  0
   47.0250   35.7030   42.1860 F   0  0  0  0  0  0  0  0  0  0  0  0
   45.2070   33.0600   47.5460 O   0  0  0  0  0  0  0  0  0  0  0  0
   45.7450   31.8150   47.8950 C   0  0  2  0  0  3  0  0  0  0  0  0
   45.0580   30.6730   47.1720 C   0  0  0  0  0  3  0  0  0  0  0  0
   43.9780   30.8550   47.1550 H   0  0  0  0  0  0  0  0  0  0  0  0
   45.3410   29.5480   48.1470 C   0  0  0  0  0  3  0  0  0  0  0  0
   44.7060   28.6660   47.9650 H   0  0  0  0  0  0  0  0  0  0  0  0
   45.0090   30.1460   49.3600 O   0  0  0  0  0  0  0  0  0  0  0  0
   45.5060   31.4360   49.3270 C   0  0  0  0  0  3  0  0  0  0  0  0
   46.4390   31.4580   49.9290 H   0  0  0  0  0  0  0  0  0  0  0  0
  1  6  1  0  0  0  0
  2  3  1  0  0  0  0
  2  1  2  0  0  0  0
  3  4  2  0  0  0  0
  4  5  1  0  0  0  0
  5 13  1  0  0  0  0
  6  5  2  0  0  0  0
  7  1  1  0  0  0  0
  8  3  1  0  0  0  0
  9 10  1  0  0  0  0
  9  2  1  0  0  0  0
 11  9  1  0  0  0  0
 12  9  1  0  0  0  0
 14 13  1  6  0  0  0
 14 20  1  0  0  0  0
 15 14  1  0  0  0  0
 15 17  1  0  0  0  0
 16 15  1  0  0  0  0
 17 19  1  0  0  0  0
 18 17  1  0  0  0  0
 20 19  1  0  0  0  0
 20 21  1  0  0  0  0
M  END
>  <minimizedAffinity>
-4.85710812

>  <minimizedRMSD>
0.671780646

$$$$
