REMARK  Name = 
REMARK  3 active torsions:
REMARK  status: ('A' for Active; 'I' for Inactive)
REMARK    1  A    between atoms: C_5  and  C_7
REMARK    2  A    between atoms: C_7  and  S_8
REMARK    3  A    between atoms: S_8  and  C_14
REMARK                            x       y       z     vdW  Elec       q    Type
REMARK                         _______ _______ _______ _____ _____    ______ ____
ROOT
ATOM      1  C   UNL     1      45.845  33.093  46.436  0.00  0.00    +0.000 C 
ATOM      2  H   UNL     1      46.675  33.484  47.072  0.00  0.00    +0.000 HD
ATOM      3  H   UNL     1      44.934  32.850  47.020  0.00  0.00    +0.000 HD
ENDROOT
BRANCH   1   8
ATOM      4  C   UNL     1      44.518  36.005  44.530  0.00  0.00    +0.000 A 
ATOM      5  C   UNL     1      45.216  35.880  43.320  0.00  0.00    +0.000 A 
ATOM      6  C   UNL     1      46.108  34.827  43.181  0.00  0.00    +0.000 A 
ATOM      7  N   UNL     1      46.282  33.956  44.200  0.00  0.00    +0.000 NA
ATOM      8  C   UNL     1      45.589  34.094  45.377  0.00  0.00    +0.000 A 
ATOM      9  N   UNL     1      44.739  35.108  45.495  0.00  0.00    +0.000 NA
ATOM     10  H   UNL     1      43.832  36.838  44.602  0.00  0.00    +0.000 HD
ATOM     11  H   UNL     1      45.132  36.531  42.467  0.00  0.00    +0.000 HD
ATOM     12  H   UNL     1      46.670  34.686  42.269  0.00  0.00    +0.000 HD
ENDBRANCH   1   8
BRANCH   1  13
ATOM     13  S   UNL     1      46.525  31.617  45.606  0.00  0.00    +0.000 S 
BRANCH  13  14
ATOM     14  C   UNL     1      46.873  30.312  46.847  0.00  0.00    +0.000 C 
ATOM     15  C   UNL     1      47.013  30.911  48.207  0.00  0.00    +0.000 C 
ATOM     16  H   UNL     1      46.783  32.005  48.150  0.00  0.00    +0.000 HD
ATOM     17  C   UNL     1      48.434  30.628  48.610  0.00  0.00    +0.000 C 
ATOM     18  H   UNL     1      48.519  30.290  49.666  0.00  0.00    +0.000 HD
ATOM     19  O   UNL     1      48.895  29.605  47.795  0.00  0.00    +0.000 OA
ATOM     20  C   UNL     1      48.226  29.732  46.582  0.00  0.00    +0.000 C 
ATOM     21  H   UNL     1      48.234  28.772  46.052  0.00  0.00    +0.000 HD
ENDBRANCH  13  14
ENDBRANCH   1  13
TORSDOF 3
