
 OpenBabel03252505283D

 23 24  0  0  1  0  0  0  0  0999 V2000
   36.4440   30.6000   38.9680 O   0  0  0  0  0  0  0  0  0  0  0  0
   36.8530   31.0630   40.3690 P   0  0  1  0  0  0  0  0  0  0  0  0
   35.5500   31.0330   41.4310 O   0  0  0  0  0  0  0  0  0  0  0  0
   35.0970   30.1580   41.3460 H   0  0  0  0  0  0  0  0  0  0  0  0
   38.0900   30.0260   40.8710 O   0  0  0  0  0  0  0  0  0  0  0  0
   36.8690   27.3730   42.9100 C   0  0  0  0  0  0  0  0  0  0  0  0
   37.4870   26.2230   42.4140 C   0  0  0  0  0  0  0  0  0  0  0  0
   38.3640   26.3970   41.3230 C   0  0  0  0  0  0  0  0  0  0  0  0
   38.5490   27.6510   40.8290 N   0  0  0  0  0  0  0  0  0  0  0  0
   37.9170   28.7340   41.3570 C   0  0  0  0  0  0  0  0  0  0  0  0
   37.0800   28.5870   42.3950 N   0  0  0  0  0  0  0  0  0  0  0  0
   36.1980   27.2130   43.7520 H   0  0  0  0  0  0  0  0  0  0  0  0
   37.3670   25.2230   42.7730 H   0  0  0  0  0  0  0  0  0  0  0  0
   38.9160   25.6180   40.8240 H   0  0  0  0  0  0  0  0  0  0  0  0
   37.3910   32.6560   40.2250 O   0  0  0  0  0  0  0  0  0  0  0  0
   38.7510   32.7660   40.3100 C   0  0  2  0  0  3  0  0  0  0  0  0
   39.2230   34.1610   40.6670 C   0  0  0  0  0  3  0  0  0  0  0  0
   38.7390   34.8830   39.9770 H   0  0  0  0  0  0  0  0  0  0  0  0
   40.6830   34.0260   40.2720 C   0  0  0  0  0  3  0  0  0  0  0  0
   41.1980   33.6370   41.1950 H   0  0  0  0  0  0  0  0  0  0  0  0
   40.7530   33.0500   39.3030 O   0  0  0  0  0  0  0  0  0  0  0  0
   39.5040   32.5550   39.0340 C   0  0  0  0  0  3  0  0  0  0  0  0
   39.5840   31.4590   38.8470 H   0  0  0  0  0  0  0  0  0  0  0  0
  2  1  2  6  0  0  0
  2  5  1  0  0  0  0
  2  3  1  0  0  0  0
  4  3  1  0  0  0  0
  5 10  1  0  0  0  0
  6 12  1  0  0  0  0
  7 13  1  0  0  0  0
  7  6  1  0  0  0  0
  8  7  2  0  0  0  0
  9  8  1  0  0  0  0
  9 10  2  0  0  0  0
 10 11  1  0  0  0  0
 11  6  2  0  0  0  0
 14  8  1  0  0  0  0
 15  2  1  0  0  0  0
 16 15  1  6  0  0  0
 16 17  1  0  0  0  0
 18 17  1  0  0  0  0
 19 17  1  0  0  0  0
 19 20  1  0  0  0  0
 21 19  1  0  0  0  0
 22 21  1  0  0  0  0
 22 16  1  0  0  0  0
 23 22  1  0  0  0  0
M  END
>  <minimizedAffinity>
-4.54048967

$$$$

 OpenBabel03252505283D

 23 24  0  0  1  0  0  0  0  0999 V2000
   36.7970   31.5660   38.9900 O   0  0  0  0  0  0  0  0  0  0  0  0
   37.0790   31.2110   40.4530 P   0  0  1  0  0  0  0  0  0  0  0  0
   35.6610   31.1310   41.3500 O   0  0  0  0  0  0  0  0  0  0  0  0
   35.0080   30.5760   40.8560 H   0  0  0  0  0  0  0  0  0  0  0  0
   37.8890   29.7270   40.4340 O   0  0  0  0  0  0  0  0  0  0  0  0
   39.4450   27.3080   42.5360 C   0  0  0  0  0  0  0  0  0  0  0  0
   38.6210   27.2260   43.6610 C   0  0  0  0  0  0  0  0  0  0  0  0
   37.4800   28.0540   43.6720 C   0  0  0  0  0  0  0  0  0  0  0  0
   37.2560   28.8690   42.6060 N   0  0  0  0  0  0  0  0  0  0  0  0
   38.0970   28.9040   41.5360 C   0  0  0  0  0  0  0  0  0  0  0  0
   39.1860   28.1220   41.5090 N   0  0  0  0  0  0  0  0  0  0  0  0
   40.3180   26.6580   42.5510 H   0  0  0  0  0  0  0  0  0  0  0  0
   38.7630   26.6000   44.5170 H   0  0  0  0  0  0  0  0  0  0  0  0
   36.7470   28.1120   44.4600 H   0  0  0  0  0  0  0  0  0  0  0  0
   38.0450   32.4430   41.0830 O   0  0  0  0  0  0  0  0  0  0  0  0
   39.1720   32.6640   40.3430 C   0  0  2  0  0  3  0  0  0  0  0  0
   40.4510   32.2780   41.0600 C   0  0  0  0  0  3  0  0  0  0  0  0
   40.4500   32.7560   42.0610 H   0  0  0  0  0  0  0  0  0  0  0  0
   41.4470   33.0120   40.1800 C   0  0  0  0  0  3  0  0  0  0  0  0
   41.7080   32.2800   39.3650 H   0  0  0  0  0  0  0  0  0  0  0  0
   40.7790   34.0700   39.6050 O   0  0  0  0  0  0  0  0  0  0  0  0
   39.4750   34.0950   40.0230 C   0  0  0  0  0  3  0  0  0  0  0  0
   38.8290   34.4110   39.1720 H   0  0  0  0  0  0  0  0  0  0  0  0
  2  1  2  6  0  0  0
  2 15  1  0  0  0  0
  2  3  1  0  0  0  0
  4  3  1  0  0  0  0
  5  2  1  0  0  0  0
  5 10  1  0  0  0  0
  6 12  1  0  0  0  0
  6  7  1  0  0  0  0
  7  8  2  0  0  0  0
  7 13  1  0  0  0  0
  8 14  1  0  0  0  0
  9  8  1  0  0  0  0
 10  9  2  0  0  0  0
 11 10  1  0  0  0  0
 11  6  2  0  0  0  0
 16 17  1  0  0  0  0
 16 15  1  1  0  0  0
 17 18  1  0  0  0  0
 19 17  1  0  0  0  0
 20 19  1  0  0  0  0
 21 22  1  0  0  0  0
 21 19  1  0  0  0  0
 22 16  1  0  0  0  0
 23 22  1  0  0  0  0
M  END
>  <minimizedAffinity>
-4.45537615

$$$$

 OpenBabel03252505283D

 23 24  0  0  1  0  0  0  0  0999 V2000
   34.0270   29.2650   39.5650 O   0  0  0  0  0  0  0  0  0  0  0  0
   35.4570   29.5190   40.0490 P   0  0  1  0  0  0  0  0  0  0  0  0
   35.5000   30.6970   41.2470 O   0  0  0  0  0  0  0  0  0  0  0  0
   34.8130   30.4810   41.9240 H   0  0  0  0  0  0  0  0  0  0  0  0
   36.0390   28.0350   40.6140 O   0  0  0  0  0  0  0  0  0  0  0  0
   38.3290   26.3760   42.7800 C   0  0  0  0  0  0  0  0  0  0  0  0
   38.9430   27.3990   43.5060 C   0  0  0  0  0  0  0  0  0  0  0  0
   38.5310   28.7170   43.2170 C   0  0  0  0  0  0  0  0  0  0  0  0
   37.5780   28.9070   42.2650 N   0  0  0  0  0  0  0  0  0  0  0  0
   37.0150   27.8670   41.5910 C   0  0  0  0  0  0  0  0  0  0  0  0
   37.3950   26.6080   41.8540 N   0  0  0  0  0  0  0  0  0  0  0  0
   38.6630   25.3690   43.0230 H   0  0  0  0  0  0  0  0  0  0  0  0
   39.6940   27.2900   44.2600 H   0  0  0  0  0  0  0  0  0  0  0  0
   38.9040   29.6130   43.6830 H   0  0  0  0  0  0  0  0  0  0  0  0
   36.3380   30.0710   38.7190 O   0  0  0  0  0  0  0  0  0  0  0  0
   37.5090   30.6780   39.0740 C   0  0  2  0  0  3  0  0  0  0  0  0
   37.5500   32.1550   38.7360 C   0  0  0  0  0  3  0  0  0  0  0  0
   37.2650   32.2800   37.6710 H   0  0  0  0  0  0  0  0  0  0  0  0
   39.0450   32.3860   38.8610 C   0  0  0  0  0  3  0  0  0  0  0  0
   39.2080   32.6500   39.9430 H   0  0  0  0  0  0  0  0  0  0  0  0
   39.6640   31.1790   38.6200 O   0  0  0  0  0  0  0  0  0  0  0  0
   38.7330   30.2110   38.3500 C   0  0  0  0  0  3  0  0  0  0  0  0
   39.0690   29.2510   38.8070 H   0  0  0  0  0  0  0  0  0  0  0  0
  2  1  2  6  0  0  0
  2  5  1  0  0  0  0
  2  3  1  0  0  0  0
  3  4  1  0  0  0  0
  5 10  1  0  0  0  0
  6 12  1  0  0  0  0
  6  7  1  0  0  0  0
  7 13  1  0  0  0  0
  8  7  2  0  0  0  0
  8 14  1  0  0  0  0
  9  8  1  0  0  0  0
 10 11  1  0  0  0  0
 10  9  2  0  0  0  0
 11  6  2  0  0  0  0
 15  2  1  0  0  0  0
 16 15  1  6  0  0  0
 17 19  1  0  0  0  0
 17 16  1  0  0  0  0
 18 17  1  0  0  0  0
 19 20  1  0  0  0  0
 21 19  1  0  0  0  0
 22 21  1  0  0  0  0
 22 23  1  0  0  0  0
 22 16  1  0  0  0  0
M  END
>  <minimizedAffinity>
-4.36908388

$$$$

 OpenBabel03252505283D

 23 24  0  0  1  0  0  0  0  0999 V2000
   39.5520   29.0610   42.8960 O   0  0  0  0  0  0  0  0  0  0  0  0
   38.1900   28.3750   42.7580 P   0  0  1  0  0  0  0  0  0  0  0  0
   37.0170   29.1490   43.6800 O   0  0  0  0  0  0  0  0  0  0  0  0
   37.0670   30.1200   43.4990 H   0  0  0  0  0  0  0  0  0  0  0  0
   37.8070   28.4010   41.1120 O   0  0  0  0  0  0  0  0  0  0  0  0
   36.8890   31.7510   40.3230 C   0  0  0  0  0  0  0  0  0  0  0  0
   37.1170   31.8730   38.9500 C   0  0  0  0  0  0  0  0  0  0  0  0
   37.6110   30.7310   38.2860 C   0  0  0  0  0  0  0  0  0  0  0  0
   37.8320   29.6010   39.0110 N   0  0  0  0  0  0  0  0  0  0  0  0
   37.5900   29.5440   40.3490 C   0  0  0  0  0  0  0  0  0  0  0  0
   37.1190   30.6210   40.9960 N   0  0  0  0  0  0  0  0  0  0  0  0
   36.5070   32.6460   40.8110 H   0  0  0  0  0  0  0  0  0  0  0  0
   36.9560   32.7420   38.3470 H   0  0  0  0  0  0  0  0  0  0  0  0
   37.8400   30.6590   37.2360 H   0  0  0  0  0  0  0  0  0  0  0  0
   38.3710   26.7990   43.3340 O   0  0  0  0  0  0  0  0  0  0  0  0
   38.3430   25.8640   42.3370 C   0  0  2  0  0  3  0  0  0  0  0  0
   37.0220   25.1270   42.2370 C   0  0  0  0  0  3  0  0  0  0  0  0
   36.7580   24.7420   43.2440 H   0  0  0  0  0  0  0  0  0  0  0  0
   37.4690   23.9560   41.3800 C   0  0  0  0  0  3  0  0  0  0  0  0
   37.3310   24.3050   40.3180 H   0  0  0  0  0  0  0  0  0  0  0  0
   38.8170   23.7830   41.5990 O   0  0  0  0  0  0  0  0  0  0  0  0
   39.2760   24.7060   42.5010 C   0  0  0  0  0  3  0  0  0  0  0  0
   40.2990   25.0290   42.1970 H   0  0  0  0  0  0  0  0  0  0  0  0
  2  1  2  1  0  0  0
  2 15  1  0  0  0  0
  2  3  1  0  0  0  0
  4  3  1  0  0  0  0
  5  2  1  0  0  0  0
  6 12  1  0  0  0  0
  6 11  1  0  0  0  0
  7  6  2  0  0  0  0
  8  7  1  0  0  0  0
  8  9  2  0  0  0  0
  9 10  1  0  0  0  0
 10 11  2  0  0  0  0
 10  5  1  0  0  0  0
 13  7  1  0  0  0  0
 14  8  1  0  0  0  0
 16 22  1  0  0  0  0
 16 15  1  1  0  0  0
 17 16  1  0  0  0  0
 17 18  1  0  0  0  0
 19 21  1  0  0  0  0
 19 17  1  0  0  0  0
 20 19  1  0  0  0  0
 21 22  1  0  0  0  0
 23 22  1  0  0  0  0
M  END
>  <minimizedAffinity>
-4.27372026

$$$$

 OpenBabel03252505283D

 23 24  0  0  1  0  0  0  0  0999 V2000
   40.9280   25.8220   41.2430 O   0  0  0  0  0  0  0  0  0  0  0  0
   40.8410   25.2780   42.6720 P   0  0  1  0  0  0  0  0  0  0  0  0
   42.2910   24.5770   43.1520 O   0  0  0  0  0  0  0  0  0  0  0  0
   43.0270   25.2020   42.9380 H   0  0  0  0  0  0  0  0  0  0  0  0
   40.4270   26.5890   43.6560 O   0  0  0  0  0  0  0  0  0  0  0  0
   37.4850   28.5240   43.1210 C   0  0  0  0  0  0  0  0  0  0  0  0
   37.9400   29.7260   42.5720 C   0  0  0  0  0  0  0  0  0  0  0  0
   39.3320   29.8500   42.3870 C   0  0  0  0  0  0  0  0  0  0  0  0
   40.1330   28.8120   42.7490 N   0  0  0  0  0  0  0  0  0  0  0  0
   39.6300   27.6640   43.2790 C   0  0  0  0  0  0  0  0  0  0  0  0
   38.3080   27.5290   43.4610 N   0  0  0  0  0  0  0  0  0  0  0  0
   36.4070   28.4520   43.2520 H   0  0  0  0  0  0  0  0  0  0  0  0
   37.3430   30.5630   42.2750 H   0  0  0  0  0  0  0  0  0  0  0  0
   39.8420   30.7070   41.9780 H   0  0  0  0  0  0  0  0  0  0  0  0
   39.6430   24.0890   42.6760 O   0  0  0  0  0  0  0  0  0  0  0  0
   38.7200   24.2640   41.6840 C   0  0  2  0  0  3  0  0  0  0  0  0
   37.3010   24.4070   42.1960 C   0  0  0  0  0  3  0  0  0  0  0  0
   37.0900   23.5630   42.8860 H   0  0  0  0  0  0  0  0  0  0  0  0
   36.5530   24.1620   40.8980 C   0  0  0  0  0  3  0  0  0  0  0  0
   36.4620   25.1770   40.4200 H   0  0  0  0  0  0  0  0  0  0  0  0
   37.3680   23.3890   40.1000 O   0  0  0  0  0  0  0  0  0  0  0  0
   38.5430   23.1100   40.7460 C   0  0  0  0  0  3  0  0  0  0  0  0
   39.3750   23.1270   40.0040 H   0  0  0  0  0  0  0  0  0  0  0  0
  2  1  2  6  0  0  0
  2 15  1  0  0  0  0
  2  3  1  0  0  0  0
  2  5  1  0  0  0  0
  4  3  1  0  0  0  0
  6 12  1  0  0  0  0
  6 11  1  0  0  0  0
  7  6  2  0  0  0  0
  8  7  1  0  0  0  0
  8  9  2  0  0  0  0
  9 10  1  0  0  0  0
 10 11  2  0  0  0  0
 10  5  1  0  0  0  0
 13  7  1  0  0  0  0
 14  8  1  0  0  0  0
 16 17  1  0  0  0  0
 16 15  1  1  0  0  0
 17 18  1  0  0  0  0
 19 17  1  0  0  0  0
 20 19  1  0  0  0  0
 21 22  1  0  0  0  0
 21 19  1  0  0  0  0
 22 16  1  0  0  0  0
 23 22  1  0  0  0  0
M  END
>  <minimizedAffinity>
-4.13159084

$$$$

 OpenBabel03252505283D

 23 24  0  0  1  0  0  0  0  0999 V2000
   37.4560   28.5870   43.6800 O   0  0  0  0  0  0  0  0  0  0  0  0
   37.4130   28.6900   42.1520 P   0  0  1  0  0  0  0  0  0  0  0  0
   35.8670   29.0540   41.6030 O   0  0  0  0  0  0  0  0  0  0  0  0
   35.5200   29.8160   42.1280 H   0  0  0  0  0  0  0  0  0  0  0  0
   38.5250   29.8900   41.7250 O   0  0  0  0  0  0  0  0  0  0  0  0
   36.9800   32.0160   39.3210 C   0  0  0  0  0  0  0  0  0  0  0  0
   37.5630   33.2690   39.5210 C   0  0  0  0  0  0  0  0  0  0  0  0
   38.5340   33.3610   40.5400 C   0  0  0  0  0  0  0  0  0  0  0  0
   38.8360   32.2420   41.2540 N   0  0  0  0  0  0  0  0  0  0  0  0
   38.2330   31.0470   41.0100 C   0  0  0  0  0  0  0  0  0  0  0  0
   37.3080   30.9420   40.0440 N   0  0  0  0  0  0  0  0  0  0  0  0
   36.2350   31.9720   38.5280 H   0  0  0  0  0  0  0  0  0  0  0  0
   37.3520   34.1690   38.9820 H   0  0  0  0  0  0  0  0  0  0  0  0
   39.0740   34.2490   40.8220 H   0  0  0  0  0  0  0  0  0  0  0  0
   37.8580   27.1800   41.5440 O   0  0  0  0  0  0  0  0  0  0  0  0
   38.4760   26.3940   42.4760 C   0  0  2  0  0  3  0  0  0  0  0  0
   39.9860   26.5240   42.4700 C   0  0  0  0  0  3  0  0  0  0  0  0
   40.3470   26.3840   41.4300 H   0  0  0  0  0  0  0  0  0  0  0  0
   40.3350   25.2800   43.2680 C   0  0  0  0  0  3  0  0  0  0  0  0
   40.3300   25.6150   44.3430 H   0  0  0  0  0  0  0  0  0  0  0  0
   39.3020   24.3850   43.0970 O   0  0  0  0  0  0  0  0  0  0  0  0
   38.3410   24.9160   42.2770 C   0  0  0  0  0  3  0  0  0  0  0  0
   37.3380   24.6000   42.6460 H   0  0  0  0  0  0  0  0  0  0  0  0
  2  1  2  1  0  0  0
  3  4  1  0  0  0  0
  3  2  1  0  0  0  0
  5  2  1  0  0  0  0
  6  7  2  0  0  0  0
  6 11  1  0  0  0  0
  7  8  1  0  0  0  0
  8 14  1  0  0  0  0
  8  9  2  0  0  0  0
 10  9  1  0  0  0  0
 10  5  1  0  0  0  0
 11 10  2  0  0  0  0
 12  6  1  0  0  0  0
 13  7  1  0  0  0  0
 15  2  1  0  0  0  0
 16 15  1  6  0  0  0
 17 16  1  0  0  0  0
 17 19  1  0  0  0  0
 18 17  1  0  0  0  0
 19 20  1  0  0  0  0
 21 19  1  0  0  0  0
 22 16  1  0  0  0  0
 22 23  1  0  0  0  0
 22 21  1  0  0  0  0
M  END
>  <minimizedAffinity>
-4.08320284

$$$$

 OpenBabel03252505283D

 23 24  0  0  1  0  0  0  0  0999 V2000
   36.5860   30.6290   38.2200 O   0  0  0  0  0  0  0  0  0  0  0  0
   37.3640   31.5740   39.1400 P   0  0  1  0  0  0  0  0  0  0  0  0
   37.1420   33.1810   38.7010 O   0  0  0  0  0  0  0  0  0  0  0  0
   36.1730   33.3420   38.5830 H   0  0  0  0  0  0  0  0  0  0  0  0
   36.8090   31.2750   40.7090 O   0  0  0  0  0  0  0  0  0  0  0  0
   36.5290   27.9760   42.0220 C   0  0  0  0  0  0  0  0  0  0  0  0
   37.5860   27.8580   42.9280 C   0  0  0  0  0  0  0  0  0  0  0  0
   38.4220   28.9840   43.0760 C   0  0  0  0  0  0  0  0  0  0  0  0
   38.1520   30.0960   42.3390 N   0  0  0  0  0  0  0  0  0  0  0  0
   37.1050   30.1500   41.4720 C   0  0  0  0  0  0  0  0  0  0  0  0
   36.3000   29.0880   41.3200 N   0  0  0  0  0  0  0  0  0  0  0  0
   35.8980   27.0930   41.9280 H   0  0  0  0  0  0  0  0  0  0  0  0
   37.8300   27.0030   43.5230 H   0  0  0  0  0  0  0  0  0  0  0  0
   39.2760   29.0570   43.7270 H   0  0  0  0  0  0  0  0  0  0  0  0
   38.9990   31.1920   38.9720 O   0  0  0  0  0  0  0  0  0  0  0  0
   39.7550   32.2590   38.5750 C   0  0  2  0  0  3  0  0  0  0  0  0
   40.7450   31.9230   37.4780 C   0  0  0  0  0  3  0  0  0  0  0  0
   41.3270   31.0310   37.7920 H   0  0  0  0  0  0  0  0  0  0  0  0
   41.6440   33.1420   37.5880 C   0  0  0  0  0  3  0  0  0  0  0  0
   41.1780   33.9070   36.9050 H   0  0  0  0  0  0  0  0  0  0  0  0
   41.5410   33.6080   38.8800 O   0  0  0  0  0  0  0  0  0  0  0  0
   40.6860   32.8200   39.6040 C   0  0  0  0  0  3  0  0  0  0  0  0
   40.0990   33.4670   40.2970 H   0  0  0  0  0  0  0  0  0  0  0  0
  2  1  2  6  0  0  0
  2  5  1  0  0  0  0
  3  2  1  0  0  0  0
  4  3  1  0  0  0  0
  5 10  1  0  0  0  0
  6  7  1  0  0  0  0
  7  8  2  0  0  0  0
  7 13  1  0  0  0  0
  8 14  1  0  0  0  0
  9  8  1  0  0  0  0
 10  9  2  0  0  0  0
 11 10  1  0  0  0  0
 11  6  2  0  0  0  0
 12  6  1  0  0  0  0
 15  2  1  0  0  0  0
 16 15  1  1  0  0  0
 16 22  1  0  0  0  0
 17 19  1  0  0  0  0
 17 18  1  0  0  0  0
 17 16  1  0  0  0  0
 19 21  1  0  0  0  0
 20 19  1  0  0  0  0
 21 22  1  0  0  0  0
 22 23  1  0  0  0  0
M  END
>  <minimizedAffinity>
-4.01098394

$$$$

 OpenBabel03252505283D

 23 24  0  0  1  0  0  0  0  0999 V2000
   34.8390   29.2870   40.2300 O   0  0  0  0  0  0  0  0  0  0  0  0
   36.3030   29.6780   40.4550 P   0  0  1  0  0  0  0  0  0  0  0  0
   37.3420   28.7150   39.5500 O   0  0  0  0  0  0  0  0  0  0  0  0
   37.0080   28.6830   38.6190 H   0  0  0  0  0  0  0  0  0  0  0  0
   36.4310   31.3080   40.0260 O   0  0  0  0  0  0  0  0  0  0  0  0
   38.5680   34.1580   40.0600 C   0  0  0  0  0  0  0  0  0  0  0  0
   39.8630   33.6380   39.9930 C   0  0  0  0  0  0  0  0  0  0  0  0
   39.9790   32.2340   39.9330 C   0  0  0  0  0  0  0  0  0  0  0  0
   38.8430   31.4850   39.9460 N   0  0  0  0  0  0  0  0  0  0  0  0
   37.6070   32.0510   40.0120 C   0  0  0  0  0  0  0  0  0  0  0  0
   37.4790   33.3850   40.0690 N   0  0  0  0  0  0  0  0  0  0  0  0
   38.5050   35.2430   40.1040 H   0  0  0  0  0  0  0  0  0  0  0  0
   40.7780   34.1920   39.9800 H   0  0  0  0  0  0  0  0  0  0  0  0
   40.8990   31.6760   39.8780 H   0  0  0  0  0  0  0  0  0  0  0  0
   36.6330   29.4330   42.0920 O   0  0  0  0  0  0  0  0  0  0  0  0
   37.6900   28.5940   42.3000 C   0  0  2  0  0  3  0  0  0  0  0  0
   37.4380   27.5600   43.3790 C   0  0  0  0  0  3  0  0  0  0  0  0
   37.0720   28.0830   44.2880 H   0  0  0  0  0  0  0  0  0  0  0  0
   38.8700   27.1190   43.6250 C   0  0  0  0  0  3  0  0  0  0  0  0
   39.0450   26.2820   42.8930 H   0  0  0  0  0  0  0  0  0  0  0  0
   39.6850   28.1710   43.2710 O   0  0  0  0  0  0  0  0  0  0  0  0
   38.9350   29.2310   42.8350 C   0  0  0  0  0  3  0  0  0  0  0  0
   39.4690   29.7270   41.9920 H   0  0  0  0  0  0  0  0  0  0  0  0
  2  1  2  6  0  0  0
  2 15  1  0  0  0  0
  3  2  1  0  0  0  0
  4  3  1  0  0  0  0
  5  2  1  0  0  0  0
  6 11  1  0  0  0  0
  6 12  1  0  0  0  0
  7  6  2  0  0  0  0
  8  9  2  0  0  0  0
  8  7  1  0  0  0  0
  9 10  1  0  0  0  0
 10  5  1  0  0  0  0
 10 11  2  0  0  0  0
 13  7  1  0  0  0  0
 14  8  1  0  0  0  0
 16 15  1  1  0  0  0
 16 22  1  0  0  0  0
 16 17  1  0  0  0  0
 17 19  1  0  0  0  0
 17 18  1  0  0  0  0
 20 19  1  0  0  0  0
 21 19  1  0  0  0  0
 22 21  1  0  0  0  0
 23 22  1  0  0  0  0
M  END
>  <minimizedAffinity>
-3.98873115

$$$$

 OpenBabel03252505283D

 23 24  0  0  1  0  0  0  0  0999 V2000
   35.7150   30.5030   40.1950 O   0  0  0  0  0  0  0  0  0  0  0  0
   36.9920   31.3090   39.9380 P   0  0  1  0  0  0  0  0  0  0  0  0
   36.8070   32.9150   40.3950 O   0  0  0  0  0  0  0  0  0  0  0  0
   36.4190   32.9400   41.3040 H   0  0  0  0  0  0  0  0  0  0  0  0
   38.2200   30.5480   40.8160 O   0  0  0  0  0  0  0  0  0  0  0  0
   37.7000   28.3710   43.5870 C   0  0  0  0  0  0  0  0  0  0  0  0
   37.8080   27.0830   43.0580 C   0  0  0  0  0  0  0  0  0  0  0  0
   38.0750   26.9860   41.6760 C   0  0  0  0  0  0  0  0  0  0  0  0
   38.2060   28.1330   40.9560 N   0  0  0  0  0  0  0  0  0  0  0  0
   38.0900   29.3610   41.5300 C   0  0  0  0  0  0  0  0  0  0  0  0
   37.8370   29.4720   42.8430 N   0  0  0  0  0  0  0  0  0  0  0  0
   37.4950   28.4190   44.6550 H   0  0  0  0  0  0  0  0  0  0  0  0
   37.7120   26.1600   43.5900 H   0  0  0  0  0  0  0  0  0  0  0  0
   38.1870   26.0730   41.1160 H   0  0  0  0  0  0  0  0  0  0  0  0
   37.2850   31.2530   38.2760 O   0  0  0  0  0  0  0  0  0  0  0  0
   37.3230   29.9780   37.7870 C   0  0  2  0  0  3  0  0  0  0  0  0
   38.7270   29.4740   37.5230 C   0  0  0  0  0  3  0  0  0  0  0  0
   39.2600   30.2260   36.9040 H   0  0  0  0  0  0  0  0  0  0  0  0
   38.3910   28.2830   36.6430 C   0  0  0  0  0  3  0  0  0  0  0  0
   38.2400   27.4270   37.3590 H   0  0  0  0  0  0  0  0  0  0  0  0
   37.1810   28.5510   36.0410 O   0  0  0  0  0  0  0  0  0  0  0  0
   36.7150   29.7780   36.4340 C   0  0  0  0  0  3  0  0  0  0  0  0
   35.6080   29.7240   36.5470 H   0  0  0  0  0  0  0  0  0  0  0  0
  2  1  2  1  0  0  0
  2  3  1  0  0  0  0
  2  5  1  0  0  0  0
  3  4  1  0  0  0  0
  5 10  1  0  0  0  0
  6 12  1  0  0  0  0
  7  6  1  0  0  0  0
  7 13  1  0  0  0  0
  8  7  2  0  0  0  0
  9 10  2  0  0  0  0
  9  8  1  0  0  0  0
 10 11  1  0  0  0  0
 11  6  2  0  0  0  0
 14  8  1  0  0  0  0
 15  2  1  0  0  0  0
 16 15  1  6  0  0  0
 17 16  1  0  0  0  0
 18 17  1  0  0  0  0
 19 20  1  0  0  0  0
 19 17  1  0  0  0  0
 21 22  1  0  0  0  0
 21 19  1  0  0  0  0
 22 23  1  0  0  0  0
 22 16  1  0  0  0  0
M  END
>  <minimizedAffinity>
-3.98374057

$$$$
