
 OpenBabel03252505493D

 21 22  0  0  1  0  0  0  0  0999 V2000
   44.5140   35.6450   44.8400 C   0  0  0  0  0  0  0  0  0  0  0  0
   44.9230   35.0470   43.6560 C   0  0  0  0  0  0  0  0  0  0  0  0
   45.4810   33.7820   43.7610 C   0  0  0  0  0  0  0  0  0  0  0  0
   45.6030   33.1970   44.9740 N   0  0  0  0  0  0  0  0  0  0  0  0
   45.1950   33.8120   46.0980 C   0  0  0  0  0  0  0  0  0  0  0  0
   44.6520   35.0280   46.0470 N   0  0  0  0  0  0  0  0  0  0  0  0
   44.0610   36.6440   44.8680 H   0  0  0  0  0  0  0  0  0  0  0  0
   45.7970   33.3200   42.8440 H   0  0  0  0  0  0  0  0  0  0  0  0
   44.7270   35.8070   42.3930 C   0  0  0  0  0  0  0  0  0  0  0  0
   45.0460   37.1200   42.6880 F   0  0  0  0  0  0  0  0  0  0  0  0
   43.4070   35.7100   42.0360 F   0  0  0  0  0  0  0  0  0  0  0  0
   45.5510   35.2390   41.4350 F   0  0  0  0  0  0  0  0  0  0  0  0
   45.3080   33.2350   47.3540 O   0  0  0  0  0  0  0  0  0  0  0  0
   46.0330   32.0690   47.6340 C   0  0  2  0  0  3  0  0  0  0  0  0
   45.6620   31.4760   48.9800 C   0  0  0  0  0  3  0  0  0  0  0  0
   45.5540   32.2850   49.7120 H   0  0  0  0  0  0  0  0  0  0  0  0
   46.9380   30.7200   49.2860 C   0  0  0  0  0  3  0  0  0  0  0  0
   47.0070   30.4230   50.3440 H   0  0  0  0  0  0  0  0  0  0  0  0
   47.9050   31.6750   48.9830 O   0  0  0  0  0  0  0  0  0  0  0  0
   47.5030   32.3040   47.8180 C   0  0  0  0  0  3  0  0  0  0  0  0
   48.1040   31.8870   46.9820 H   0  0  0  0  0  0  0  0  0  0  0  0
  1  7  1  0  0  0  0
  1  6  1  0  0  0  0
  2  3  1  0  0  0  0
  2  1  2  0  0  0  0
  3  4  2  0  0  0  0
  4  5  1  0  0  0  0
  5 13  1  0  0  0  0
  6  5  2  0  0  0  0
  8  3  1  0  0  0  0
  9 10  1  0  0  0  0
  9  2  1  0  0  0  0
 11  9  1  0  0  0  0
 12  9  1  0  0  0  0
 14 13  1  1  0  0  0
 14 20  1  0  0  0  0
 14 15  1  0  0  0  0
 15 17  1  0  0  0  0
 15 16  1  0  0  0  0
 17 18  1  0  0  0  0
 19 17  1  0  0  0  0
 20 19  1  0  0  0  0
 21 20  1  0  0  0  0
M  END
>  <minimizedAffinity>
-4.60590744

>  <minimizedRMSD>
0.961508453

$$$$
