
 OpenBabel03242512273D

 21 22  0  0  1  0  0  0  0  0999 V2000
   45.0740   35.2230   44.1180 C   0  0  0  0  0  0  0  0  0  0  0  0
   46.0500   34.9630   43.1530 C   0  0  0  0  0  0  0  0  0  0  0  0
   47.0070   33.9770   43.4230 C   0  0  0  0  0  0  0  0  0  0  0  0
   46.9190   33.3370   44.6080 N   0  0  0  0  0  0  0  0  0  0  0  0
   45.9870   33.5900   45.5190 C   0  0  0  0  0  0  0  0  0  0  0  0
   45.0610   34.5450   45.2600 N   0  0  0  0  0  0  0  0  0  0  0  0
   44.1040   36.2210   43.8490 N   0  0  0  0  0  0  0  0  0  0  0  0
   46.0200   35.5370   42.2460 H   0  0  0  0  0  0  0  0  0  0  0  0
   47.7660   33.7720   42.6770 H   0  0  0  0  0  0  0  0  0  0  0  0
   43.9840   36.6090   42.8830 H   0  0  0  0  0  0  0  0  0  0  0  0
   43.4980   36.5740   44.6340 H   0  0  0  0  0  0  0  0  0  0  0  0
   45.9030   32.8960   46.7890 C   0  0  0  0  0  0  0  0  0  0  0  0
   44.9680   33.1190   47.6180 O   0  0  0  0  0  0  0  0  0  0  0  0
   46.9210   31.8990   47.1540 C   0  0  1  0  0  3  0  0  0  0  0  0
   47.7470   32.2380   48.3500 C   0  0  0  0  0  3  0  0  0  0  0  0
   48.7030   32.7230   48.0280 H   0  0  0  0  0  0  0  0  0  0  0  0
   48.0280   30.8720   48.9540 C   0  0  0  0  0  3  0  0  0  0  0  0
   47.6410   30.8260   49.9930 H   0  0  0  0  0  0  0  0  0  0  0  0
   47.4470   29.9250   48.1080 O   0  0  0  0  0  0  0  0  0  0  0  0
   46.3320   30.5640   47.5380 C   0  0  0  0  0  3  0  0  0  0  0  0
   46.0490   30.0350   46.6100 H   0  0  0  0  0  0  0  0  0  0  0  0
  1  6  1  0  0  0  0
  2  3  1  0  0  0  0
  2  1  2  0  0  0  0
  3  4  2  0  0  0  0
  4  5  1  0  0  0  0
  5 12  1  0  0  0  0
  6  5  2  0  0  0  0
  7  1  1  0  0  0  0
  7 11  1  0  0  0  0
  8  2  1  0  0  0  0
  9  3  1  0  0  0  0
 10  7  1  0  0  0  0
 12 13  2  0  0  0  0
 14 12  1  1  0  0  0
 14 20  1  0  0  0  0
 14 15  1  0  0  0  0
 15 17  1  0  0  0  0
 16 15  1  0  0  0  0
 17 18  1  0  0  0  0
 19 17  1  0  0  0  0
 20 19  1  0  0  0  0
 21 20  1  0  0  0  0
M  END
>  <minimizedAffinity>
-4.70424986

>  <minimizedRMSD>
1.27100837

$$$$
