REMARK  Name = 
REMARK  8 active torsions:
REMARK  status: ('A' for Active; 'I' for Inactive)
REMARK    1  A    between atoms: N_1  and  C_7
REMARK    2  A    between atoms: C_6  and  O_15
REMARK    3  A    between atoms: C_7  and  C_8
REMARK    4  A    between atoms: C_8  and  C_11
REMARK    5  A    between atoms: O_15  and  P_17
REMARK    6  A    between atoms: P_17  and  O_18
REMARK    7  A    between atoms: P_17  and  O_19
REMARK    8  A    between atoms: O_19  and  C_37
REMARK                            x       y       z     vdW  Elec       q    Type
REMARK                         _______ _______ _______ _____ _____    ______ ____
ROOT
ATOM      1  N   UNL     1      47.172  34.155  43.086  0.00  0.00    +0.000 NA
ATOM      2  C   UNL     1      46.661  35.355  42.530  0.00  0.00    +0.000 C 
ATOM      3  C   UNL     1      45.183  35.591  42.742  0.00  0.00    +0.000 C 
ATOM      4  C   UNL     1      44.656  35.054  44.046  0.00  0.00    +0.000 C 
ATOM      5  C   UNL     1      45.750  34.465  44.899  0.00  0.00    +0.000 C 
ATOM      6  C   UNL     1      46.408  33.393  43.956  0.00  0.00    +0.000 C 
ATOM      7  H   UNL     1      46.865  35.518  41.468  0.00  0.00    +0.000 HD
ATOM      8  H   UNL     1      47.180  36.202  43.054  0.00  0.00    +0.000 HD
ATOM      9  H   UNL     1      44.990  36.695  42.738  0.00  0.00    +0.000 HD
ATOM     10  H   UNL     1      44.655  35.197  41.854  0.00  0.00    +0.000 HD
ATOM     11  H   UNL     1      43.961  34.217  43.816  0.00  0.00    +0.000 HD
ATOM     12  H   UNL     1      44.135  35.814  44.661  0.00  0.00    +0.000 HD
ATOM     13  H   UNL     1      46.511  35.184  45.215  0.00  0.00    +0.000 HD
ATOM     14  H   UNL     1      45.298  33.884  45.721  0.00  0.00    +0.000 HD
ATOM     15  H   UNL     1      45.570  32.793  43.541  0.00  0.00    +0.000 HD
ENDROOT
BRANCH   1  16
ATOM     16  C   UNL     1      48.152  33.501  42.270  0.00  0.00    +0.000 C 
ATOM     17  H   UNL     1      48.800  32.832  42.879  0.00  0.00    +0.000 HD
ATOM     18  H   UNL     1      48.802  34.251  41.815  0.00  0.00    +0.000 HD
BRANCH  16  19
ATOM     19  C   UNL     1      47.445  32.653  41.256  0.00  0.00    +0.000 C 
ATOM     20  H   UNL     1      46.351  32.870  41.246  0.00  0.00    +0.000 HD
ATOM     21  H   UNL     1      47.539  31.584  41.477  0.00  0.00    +0.000 HD
BRANCH  19  24
ATOM     22  C   UNL     1      49.328  32.278  38.026  0.00  0.00    +0.000 A 
ATOM     23  C   UNL     1      48.802  32.019  39.304  0.00  0.00    +0.000 A 
ATOM     24  C   UNL     1      47.991  32.947  39.904  0.00  0.00    +0.000 A 
ATOM     25  N   UNL     1      47.736  34.074  39.232  0.00  0.00    +0.000 NA
ATOM     26  C   UNL     1      48.240  34.321  38.007  0.00  0.00    +0.000 A 
ATOM     27  N   UNL     1      49.032  33.439  37.397  0.00  0.00    +0.000 NA
ATOM     28  H   UNL     1      49.966  31.523  37.579  0.00  0.00    +0.000 HD
ATOM     29  H   UNL     1      49.023  31.097  39.830  0.00  0.00    +0.000 HD
ATOM     30  H   UNL     1      47.932  35.269  37.622  0.00  0.00    +0.000 HD
ENDBRANCH  19  24
ENDBRANCH  16  19
ENDBRANCH   1  16
BRANCH   6  31
ATOM     31  O   UNL     1      47.198  32.684  44.851  0.00  0.00    +0.000 OA
BRANCH  31  33
ATOM     32  O   UNL     1      46.003  30.544  43.869  0.00  0.00    +0.000 OA
ATOM     33  P   UNL     1      46.650  31.117  45.109  0.00  0.00    +0.000 P 
BRANCH  33  34
ATOM     34  O   UNL     1      45.392  31.238  46.264  0.00  0.00    +0.000 OA
ATOM     35  H   UNL     1      44.556  31.548  45.809  0.00  0.00    +0.000 HD
ENDBRANCH  33  34
BRANCH  33  36
ATOM     36  O   UNL     1      47.857  30.162  45.746  0.00  0.00    +0.000 OA
BRANCH  36  37
ATOM     37  C   UNL     1      47.477  28.930  46.173  0.00  0.00    +0.000 C 
ATOM     38  C   UNL     1      46.687  29.122  47.462  0.00  0.00    +0.000 C 
ATOM     39  H   UNL     1      45.605  29.243  47.260  0.00  0.00    +0.000 HD
ATOM     40  C   UNL     1      47.017  27.863  48.224  0.00  0.00    +0.000 C 
ATOM     41  H   UNL     1      47.366  28.096  49.243  0.00  0.00    +0.000 HD
ATOM     42  O   UNL     1      47.948  27.143  47.495  0.00  0.00    +0.000 OA
ATOM     43  C   UNL     1      48.598  28.053  46.659  0.00  0.00    +0.000 C 
ATOM     44  H   UNL     1      49.344  28.655  47.199  0.00  0.00    +0.000 HD
ENDBRANCH  36  37
ENDBRANCH  33  36
ENDBRANCH  31  33
ENDBRANCH   6  31
TORSDOF 8
