
 OpenBabel03252507103D

 35 37  0  0  1  0  0  0  0  0999 V2000
   37.1960   32.2220   40.2150 C   0  0  0  0  0  0  0  0  0  0  0  0
   36.5720   31.1450   40.8700 C   0  0  0  0  0  0  0  0  0  0  0  0
   37.0640   29.8780   40.6150 C   0  0  0  0  0  0  0  0  0  0  0  0
   38.1040   29.7270   39.7650 N   0  0  0  0  0  0  0  0  0  0  0  0
   38.6860   30.7630   39.1510 C   0  0  0  0  0  0  0  0  0  0  0  0
   38.2260   32.0240   39.3790 N   0  0  0  0  0  0  0  0  0  0  0  0
   36.8550   33.2400   40.3740 H   0  0  0  0  0  0  0  0  0  0  0  0
   35.7420   31.3490   41.5390 H   0  0  0  0  0  0  0  0  0  0  0  0
   40.2320   31.9470   37.5700 C   0  0  1  0  0  0  0  0  0  0  0  0
   39.8130   30.6600   38.2070 C   0  0  1  0  0  0  0  0  0  0  0  0
   41.1110   30.3580   38.9990 C   0  0  0  0  0  0  0  0  0  0  0  0
   42.1370   30.8610   38.2660 O   0  0  0  0  0  0  0  0  0  0  0  0
   41.6480   31.5590   37.1670 C   0  0  0  0  0  0  0  0  0  0  0  0
   40.2790   32.7500   38.3330 H   0  0  0  0  0  0  0  0  0  0  0  0
   39.6720   29.8920   37.4380 H   0  0  0  0  0  0  0  0  0  0  0  0
   41.1870   29.2510   39.0120 H   0  0  0  0  0  0  0  0  0  0  0  0
   41.0410   30.7190   40.0310 H   0  0  0  0  0  0  0  0  0  0  0  0
   41.6980   31.0250   36.2220 H   0  0  0  0  0  0  0  0  0  0  0  0
   42.2300   32.5180   37.1300 H   0  0  0  0  0  0  0  0  0  0  0  0
   39.4390   32.3740   36.5500 O   0  0  0  0  0  0  0  0  0  0  0  0
   39.9280   33.0230   35.9930 H   0  0  0  0  0  0  0  0  0  0  0  0
   36.4450   28.8210   41.2660 O   0  0  0  0  0  0  0  0  0  0  0  0
   38.1450   29.0740   43.2960 O   0  0  0  0  0  0  0  0  0  0  0  0
   37.1810   28.0950   42.6250 P   0  0  1  0  0  0  0  0  0  0  0  0
   35.9930   27.6000   43.6760 O   0  0  0  0  0  0  0  0  0  0  0  0
   35.8550   28.2750   44.3870 H   0  0  0  0  0  0  0  0  0  0  0  0
   38.1020   26.7970   42.0390 O   0  0  0  0  0  0  0  0  0  0  0  0
   37.2060   25.8260   41.5970 C   0  0  1  0  0  3  0  0  0  0  0  0
   37.4120   25.6750   40.1070 C   0  0  0  0  0  3  0  0  0  0  0  0
   36.4810   25.9450   39.5410 H   0  0  0  0  0  0  0  0  0  0  0  0
   37.7150   24.1990   39.9920 C   0  0  0  0  0  3  0  0  0  0  0  0
   37.2680   23.8510   39.0290 H   0  0  0  0  0  0  0  0  0  0  0  0
   37.1410   23.6020   41.1100 O   0  0  0  0  0  0  0  0  0  0  0  0
   37.5800   24.4530   42.1200 C   0  0  0  0  0  3  0  0  0  0  0  0
   37.0570   24.2140   43.0700 H   0  0  0  0  0  0  0  0  0  0  0  0
  1  7  1  0  0  0  0
  1  2  1  0  0  0  0
  2  8  1  0  0  0  0
  3  2  2  0  0  0  0
  3 22  1  0  0  0  0
  4  3  1  0  0  0  0
  5  6  1  0  0  0  0
  5  4  2  0  0  0  0
  6  1  2  0  0  0  0
  9 10  1  0  0  0  0
  9 14  1  1  0  0  0
 10 15  1  6  0  0  0
 10 11  1  0  0  0  0
 10  5  1  0  0  0  0
 11 16  1  0  0  0  0
 11 17  1  0  0  0  0
 12 11  1  0  0  0  0
 13  9  1  0  0  0  0
 13 12  1  0  0  0  0
 18 13  1  0  0  0  0
 19 13  1  0  0  0  0
 20  9  1  0  0  0  0
 21 20  1  0  0  0  0
 22 24  1  0  0  0  0
 24 23  2  1  0  0  0
 24 25  1  0  0  0  0
 25 26  1  0  0  0  0
 27 24  1  0  0  0  0
 28 27  1  1  0  0  0
 28 34  1  0  0  0  0
 29 28  1  0  0  0  0
 30 29  1  0  0  0  0
 31 29  1  0  0  0  0
 31 33  1  0  0  0  0
 32 31  1  0  0  0  0
 33 34  1  0  0  0  0
 34 35  1  0  0  0  0
M  END
>  <minimizedAffinity>
-5.40043449

$$$$

 OpenBabel03252507103D

 35 37  0  0  1  0  0  0  0  0999 V2000
   40.3850   34.1610   40.3820 C   0  0  0  0  0  0  0  0  0  0  0  0
   39.0680   33.7280   40.6220 C   0  0  0  0  0  0  0  0  0  0  0  0
   38.5690   32.7330   39.8010 C   0  0  0  0  0  0  0  0  0  0  0  0
   39.3490   32.2260   38.8220 N   0  0  0  0  0  0  0  0  0  0  0  0
   40.6000   32.6490   38.6080 C   0  0  0  0  0  0  0  0  0  0  0  0
   41.1230   33.6270   39.3980 N   0  0  0  0  0  0  0  0  0  0  0  0
   40.8330   34.9390   40.9920 H   0  0  0  0  0  0  0  0  0  0  0  0
   38.5050   34.1860   41.4290 H   0  0  0  0  0  0  0  0  0  0  0  0
   42.7570   32.9170   37.3570 C   0  0  1  0  0  0  0  0  0  0  0  0
   41.4930   32.1410   37.5510 C   0  0  1  0  0  0  0  0  0  0  0  0
   42.1120   30.7970   38.0120 C   0  0  0  0  0  0  0  0  0  0  0  0
   43.3070   30.6830   37.3760 O   0  0  0  0  0  0  0  0  0  0  0  0
   43.5870   31.8440   36.6640 C   0  0  0  0  0  0  0  0  0  0  0  0
   43.2140   33.1490   38.3400 H   0  0  0  0  0  0  0  0  0  0  0  0
   40.9940   31.9970   36.5860 H   0  0  0  0  0  0  0  0  0  0  0  0
   41.4230   30.0170   37.6260 H   0  0  0  0  0  0  0  0  0  0  0  0
   42.1460   30.7280   39.1050 H   0  0  0  0  0  0  0  0  0  0  0  0
   43.4100   31.7830   35.5940 H   0  0  0  0  0  0  0  0  0  0  0  0
   44.6580   32.0910   36.8920 H   0  0  0  0  0  0  0  0  0  0  0  0
   42.6240   34.0800   36.6630 O   0  0  0  0  0  0  0  0  0  0  0  0
   43.4990   34.3640   36.3110 H   0  0  0  0  0  0  0  0  0  0  0  0
   37.2710   32.3120   40.0450 O   0  0  0  0  0  0  0  0  0  0  0  0
   38.0720   30.4050   41.7170 O   0  0  0  0  0  0  0  0  0  0  0  0
   36.9770   30.7680   40.7140 P   0  0  1  0  0  0  0  0  0  0  0  0
   35.4780   30.7720   41.4310 O   0  0  0  0  0  0  0  0  0  0  0  0
   35.5590   30.9360   42.4040 H   0  0  0  0  0  0  0  0  0  0  0  0
   37.0730   29.6600   39.4340 O   0  0  0  0  0  0  0  0  0  0  0  0
   36.1770   30.0860   38.4550 C   0  0  1  0  0  3  0  0  0  0  0  0
   36.9170   30.0710   37.1360 C   0  0  0  0  0  3  0  0  0  0  0  0
   36.9730   31.1010   36.6940 H   0  0  0  0  0  0  0  0  0  0  0  0
   36.0370   29.1650   36.3070 C   0  0  0  0  0  3  0  0  0  0  0  0
   36.0660   29.5550   35.2610 H   0  0  0  0  0  0  0  0  0  0  0  0
   34.7720   29.2300   36.8820 O   0  0  0  0  0  0  0  0  0  0  0  0
   35.0820   29.0630   38.2270 C   0  0  0  0  0  3  0  0  0  0  0  0
   34.1860   29.2690   38.8510 H   0  0  0  0  0  0  0  0  0  0  0  0
  1  2  1  0  0  0  0
  1  7  1  0  0  0  0
  2  8  1  0  0  0  0
  3 22  1  0  0  0  0
  3  2  2  0  0  0  0
  4  3  1  0  0  0  0
  5  4  2  0  0  0  0
  5  6  1  0  0  0  0
  6  1  2  0  0  0  0
  9 10  1  0  0  0  0
  9 14  1  1  0  0  0
 10 15  1  6  0  0  0
 10 11  1  0  0  0  0
 10  5  1  0  0  0  0
 11 17  1  0  0  0  0
 12 11  1  0  0  0  0
 13 19  1  0  0  0  0
 13  9  1  0  0  0  0
 13 12  1  0  0  0  0
 16 11  1  0  0  0  0
 18 13  1  0  0  0  0
 20  9  1  0  0  0  0
 21 20  1  0  0  0  0
 22 24  1  0  0  0  0
 24 25  1  0  0  0  0
 24 23  2  1  0  0  0
 25 26  1  0  0  0  0
 27 24  1  0  0  0  0
 28 27  1  1  0  0  0
 29 28  1  0  0  0  0
 30 29  1  0  0  0  0
 31 33  1  0  0  0  0
 31 29  1  0  0  0  0
 32 31  1  0  0  0  0
 33 34  1  0  0  0  0
 34 28  1  0  0  0  0
 34 35  1  0  0  0  0
M  END
>  <minimizedAffinity>
-5.36681223

$$$$

 OpenBabel03252507103D

 35 37  0  0  1  0  0  0  0  0999 V2000
   38.1610   27.7930   43.5530 C   0  0  0  0  0  0  0  0  0  0  0  0
   37.5960   29.0170   43.1520 C   0  0  0  0  0  0  0  0  0  0  0  0
   37.0000   29.0620   41.9040 C   0  0  0  0  0  0  0  0  0  0  0  0
   36.9830   27.9500   41.1370 N   0  0  0  0  0  0  0  0  0  0  0  0
   37.5250   26.7930   41.5340 C   0  0  0  0  0  0  0  0  0  0  0  0
   38.1190   26.7150   42.7560 N   0  0  0  0  0  0  0  0  0  0  0  0
   38.6430   27.6960   44.5200 H   0  0  0  0  0  0  0  0  0  0  0  0
   37.6500   29.8660   43.8270 H   0  0  0  0  0  0  0  0  0  0  0  0
   37.0480   24.3330   41.4440 C   0  0  1  0  0  0  0  0  0  0  0  0
   37.5460   25.5540   40.7370 C   0  0  1  0  0  0  0  0  0  0  0  0
   36.4620   25.6420   39.6330 C   0  0  0  0  0  0  0  0  0  0  0  0
   36.0900   24.3670   39.3520 O   0  0  0  0  0  0  0  0  0  0  0  0
   36.7080   23.4810   40.2280 C   0  0  0  0  0  0  0  0  0  0  0  0
   36.1150   24.5670   41.9940 H   0  0  0  0  0  0  0  0  0  0  0  0
   38.5170   25.3460   40.2740 H   0  0  0  0  0  0  0  0  0  0  0  0
   36.9860   26.0660   38.7510 H   0  0  0  0  0  0  0  0  0  0  0  0
   35.6530   26.3220   39.9220 H   0  0  0  0  0  0  0  0  0  0  0  0
   37.5620   22.9490   39.8200 H   0  0  0  0  0  0  0  0  0  0  0  0
   35.9040   22.7740   40.5650 H   0  0  0  0  0  0  0  0  0  0  0  0
   37.9270   23.7680   42.3160 O   0  0  0  0  0  0  0  0  0  0  0  0
   37.6700   22.8340   42.4950 H   0  0  0  0  0  0  0  0  0  0  0  0
   36.4450   30.2720   41.5170 O   0  0  0  0  0  0  0  0  0  0  0  0
   36.6060   30.6840   38.8940 O   0  0  0  0  0  0  0  0  0  0  0  0
   37.1400   31.1710   40.2410 P   0  0  1  0  0  0  0  0  0  0  0  0
   36.8070   32.7810   40.4780 O   0  0  0  0  0  0  0  0  0  0  0  0
   36.0170   33.0540   39.9460 H   0  0  0  0  0  0  0  0  0  0  0  0
   38.8050   30.8470   40.2740 O   0  0  0  0  0  0  0  0  0  0  0  0
   39.4110   31.8930   40.9670 C   0  0  1  0  0  3  0  0  0  0  0  0
   40.3830   31.2760   41.9460 C   0  0  0  0  0  3  0  0  0  0  0  0
   40.1020   31.5240   43.0050 H   0  0  0  0  0  0  0  0  0  0  0  0
   41.6770   31.9460   41.5510 C   0  0  0  0  0  3  0  0  0  0  0  0
   42.2630   32.0980   42.4900 H   0  0  0  0  0  0  0  0  0  0  0  0
   41.3180   33.1380   40.9310 O   0  0  0  0  0  0  0  0  0  0  0  0
   40.3250   32.6960   40.0620 C   0  0  0  0  0  3  0  0  0  0  0  0
   39.8020   33.5660   39.6100 H   0  0  0  0  0  0  0  0  0  0  0  0
  1  7  1  0  0  0  0
  2  1  1  0  0  0  0
  2  8  1  0  0  0  0
  3  2  2  0  0  0  0
  4  5  2  0  0  0  0
  4  3  1  0  0  0  0
  5  6  1  0  0  0  0
  6  1  2  0  0  0  0
  9 14  1  1  0  0  0
  9 20  1  0  0  0  0
 10 15  1  6  0  0  0
 10  9  1  0  0  0  0
 10  5  1  0  0  0  0
 11 17  1  0  0  0  0
 11 10  1  0  0  0  0
 12 11  1  0  0  0  0
 12 13  1  0  0  0  0
 13 19  1  0  0  0  0
 13  9  1  0  0  0  0
 16 11  1  0  0  0  0
 18 13  1  0  0  0  0
 20 21  1  0  0  0  0
 22  3  1  0  0  0  0
 24 23  2  6  0  0  0
 24 27  1  0  0  0  0
 24 25  1  0  0  0  0
 24 22  1  0  0  0  0
 26 25  1  0  0  0  0
 28 27  1  6  0  0  0
 28 29  1  0  0  0  0
 29 30  1  0  0  0  0
 31 29  1  0  0  0  0
 31 32  1  0  0  0  0
 33 31  1  0  0  0  0
 34 33  1  0  0  0  0
 34 28  1  0  0  0  0
 35 34  1  0  0  0  0
M  END
>  <minimizedAffinity>
-5.34364319

$$$$

 OpenBabel03252507103D

 35 37  0  0  1  0  0  0  0  0999 V2000
   37.6600   28.2920   43.5520 C   0  0  0  0  0  0  0  0  0  0  0  0
   38.8860   27.6020   43.5270 C   0  0  0  0  0  0  0  0  0  0  0  0
   39.6750   27.7490   42.4010 C   0  0  0  0  0  0  0  0  0  0  0  0
   39.2470   28.5360   41.3890 N   0  0  0  0  0  0  0  0  0  0  0  0
   38.0780   29.1860   41.4280 C   0  0  0  0  0  0  0  0  0  0  0  0
   37.2770   29.0620   42.5220 N   0  0  0  0  0  0  0  0  0  0  0  0
   36.9970   28.2150   44.4070 H   0  0  0  0  0  0  0  0  0  0  0  0
   39.1580   26.9890   44.3820 H   0  0  0  0  0  0  0  0  0  0  0  0
   36.8770   31.2990   40.8110 C   0  0  1  0  0  0  0  0  0  0  0  0
   37.5550   30.0470   40.3530 C   0  0  1  0  0  0  0  0  0  0  0  0
   38.7440   30.6900   39.5940 C   0  0  0  0  0  0  0  0  0  0  0  0
   38.2890   31.8630   39.0850 O   0  0  0  0  0  0  0  0  0  0  0  0
   36.9950   32.1120   39.5290 C   0  0  0  0  0  0  0  0  0  0  0  0
   37.4770   31.7860   41.6060 H   0  0  0  0  0  0  0  0  0  0  0  0
   36.9140   29.5170   39.6380 H   0  0  0  0  0  0  0  0  0  0  0  0
   38.9590   29.9940   38.7570 H   0  0  0  0  0  0  0  0  0  0  0  0
   39.6320   30.7590   40.2320 H   0  0  0  0  0  0  0  0  0  0  0  0
   36.2110   31.9000   38.8080 H   0  0  0  0  0  0  0  0  0  0  0  0
   36.9830   33.1890   39.8470 H   0  0  0  0  0  0  0  0  0  0  0  0
   35.6080   31.1350   41.2750 O   0  0  0  0  0  0  0  0  0  0  0  0
   35.1300   31.9960   41.2580 H   0  0  0  0  0  0  0  0  0  0  0  0
   40.8810   27.0670   42.3860 O   0  0  0  0  0  0  0  0  0  0  0  0
   42.2370   25.2330   41.0170 O   0  0  0  0  0  0  0  0  0  0  0  0
   40.9540   25.4570   41.8180 P   0  0  1  0  0  0  0  0  0  0  0  0
   40.8660   24.4260   43.1190 O   0  0  0  0  0  0  0  0  0  0  0  0
   41.7720   24.1370   43.3950 H   0  0  0  0  0  0  0  0  0  0  0  0
   39.6490   25.2610   40.7530 O   0  0  0  0  0  0  0  0  0  0  0  0
   38.8580   24.2310   41.2590 C   0  0  1  0  0  3  0  0  0  0  0  0
   37.4850   24.8070   41.5160 C   0  0  0  0  0  3  0  0  0  0  0  0
   37.2200   24.7480   42.6050 H   0  0  0  0  0  0  0  0  0  0  0  0
   36.6140   23.8920   40.6890 C   0  0  0  0  0  3  0  0  0  0  0  0
   35.6520   23.7730   41.2440 H   0  0  0  0  0  0  0  0  0  0  0  0
   37.3230   22.7020   40.5580 O   0  0  0  0  0  0  0  0  0  0  0  0
   38.5800   23.1810   40.2020 C   0  0  0  0  0  3  0  0  0  0  0  0
   39.3220   22.3540   40.2320 H   0  0  0  0  0  0  0  0  0  0  0  0
  1  7  1  0  0  0  0
  2  1  1  0  0  0  0
  2  8  1  0  0  0  0
  3  2  2  0  0  0  0
  4  5  2  0  0  0  0
  4  3  1  0  0  0  0
  5  6  1  0  0  0  0
  6  1  2  0  0  0  0
  9 20  1  0  0  0  0
  9 14  1  1  0  0  0
 10 15  1  6  0  0  0
 10  9  1  0  0  0  0
 10  5  1  0  0  0  0
 11 17  1  0  0  0  0
 11 10  1  0  0  0  0
 12 13  1  0  0  0  0
 12 11  1  0  0  0  0
 13 19  1  0  0  0  0
 13  9  1  0  0  0  0
 16 11  1  0  0  0  0
 18 13  1  0  0  0  0
 21 20  1  0  0  0  0
 22  3  1  0  0  0  0
 24 23  2  6  0  0  0
 24 22  1  0  0  0  0
 24 25  1  0  0  0  0
 25 26  1  0  0  0  0
 27 24  1  0  0  0  0
 28 27  1  6  0  0  0
 28 29  1  0  0  0  0
 29 30  1  0  0  0  0
 31 32  1  0  0  0  0
 31 29  1  0  0  0  0
 33 31  1  0  0  0  0
 34 35  1  0  0  0  0
 34 33  1  0  0  0  0
 34 28  1  0  0  0  0
M  END
>  <minimizedAffinity>
-5.26614618

$$$$

 OpenBabel03252507103D

 35 37  0  0  1  0  0  0  0  0999 V2000
   36.7050   30.1280   37.9560 C   0  0  0  0  0  0  0  0  0  0  0  0
   36.1950   29.5000   39.1070 C   0  0  0  0  0  0  0  0  0  0  0  0
   36.5910   30.0040   40.3320 C   0  0  0  0  0  0  0  0  0  0  0  0
   37.4340   31.0600   40.3750 N   0  0  0  0  0  0  0  0  0  0  0  0
   37.9090   31.6450   39.2700 C   0  0  0  0  0  0  0  0  0  0  0  0
   37.5400   31.1740   38.0480 N   0  0  0  0  0  0  0  0  0  0  0  0
   36.4320   29.7770   36.9660 H   0  0  0  0  0  0  0  0  0  0  0  0
   35.5210   28.6570   38.9880 H   0  0  0  0  0  0  0  0  0  0  0  0
   39.4560   33.1270   40.5750 C   0  0  1  0  0  0  0  0  0  0  0  0
   38.8380   32.7900   39.2550 C   0  0  1  0  0  0  0  0  0  0  0  0
   40.1250   32.3890   38.4900 C   0  0  0  0  0  0  0  0  0  0  0  0
   41.1290   33.1510   38.9950 O   0  0  0  0  0  0  0  0  0  0  0  0
   40.6700   33.8990   40.0750 C   0  0  0  0  0  0  0  0  0  0  0  0
   39.7980   32.2020   41.0810 H   0  0  0  0  0  0  0  0  0  0  0  0
   38.4140   33.6930   38.8010 H   0  0  0  0  0  0  0  0  0  0  0  0
   39.9380   32.6910   37.4380 H   0  0  0  0  0  0  0  0  0  0  0  0
   40.2860   31.3060   38.5220 H   0  0  0  0  0  0  0  0  0  0  0  0
   40.4610   34.9420   39.8570 H   0  0  0  0  0  0  0  0  0  0  0  0
   41.4510   33.7920   40.8730 H   0  0  0  0  0  0  0  0  0  0  0  0
   38.6530   33.8110   41.4340 O   0  0  0  0  0  0  0  0  0  0  0  0
   39.1990   34.2590   42.1210 H   0  0  0  0  0  0  0  0  0  0  0  0
   36.0830   29.3810   41.4610 O   0  0  0  0  0  0  0  0  0  0  0  0
   38.3290   29.0710   42.8520 O   0  0  0  0  0  0  0  0  0  0  0  0
   37.0690   28.3390   42.3880 P   0  0  1  0  0  0  0  0  0  0  0  0
   36.1870   27.7760   43.6790 O   0  0  0  0  0  0  0  0  0  0  0  0
   36.3740   28.3140   44.4890 H   0  0  0  0  0  0  0  0  0  0  0  0
   37.5610   27.0900   41.3520 O   0  0  0  0  0  0  0  0  0  0  0  0
   37.8390   25.9820   42.1490 C   0  0  1  0  0  3  0  0  0  0  0  0
   36.9470   24.8570   41.6770 C   0  0  0  0  0  3  0  0  0  0  0  0
   36.2490   24.5260   42.4920 H   0  0  0  0  0  0  0  0  0  0  0  0
   37.9580   23.7840   41.3530 C   0  0  0  0  0  3  0  0  0  0  0  0
   37.4890   22.8060   41.6170 H   0  0  0  0  0  0  0  0  0  0  0  0
   39.0840   24.0750   42.1160 O   0  0  0  0  0  0  0  0  0  0  0  0
   39.2270   25.4370   41.8700 C   0  0  0  0  0  3  0  0  0  0  0  0
   39.9870   25.8690   42.5550 H   0  0  0  0  0  0  0  0  0  0  0  0
  1  6  2  0  0  0  0
  1  2  1  0  0  0  0
  2  3  2  0  0  0  0
  3  4  1  0  0  0  0
  3 22  1  0  0  0  0
  5  4  2  0  0  0  0
  6  5  1  0  0  0  0
  7  1  1  0  0  0  0
  8  2  1  0  0  0  0
  9 14  1  1  0  0  0
  9 20  1  0  0  0  0
 10 15  1  6  0  0  0
 10  5  1  0  0  0  0
 10  9  1  0  0  0  0
 11 17  1  0  0  0  0
 11 12  1  0  0  0  0
 11 10  1  0  0  0  0
 12 13  1  0  0  0  0
 13  9  1  0  0  0  0
 13 19  1  0  0  0  0
 16 11  1  0  0  0  0
 18 13  1  0  0  0  0
 20 21  1  0  0  0  0
 22 24  1  0  0  0  0
 24 23  2  1  0  0  0
 24 25  1  0  0  0  0
 25 26  1  0  0  0  0
 27 24  1  0  0  0  0
 28 27  1  6  0  0  0
 29 28  1  0  0  0  0
 29 30  1  0  0  0  0
 31 32  1  0  0  0  0
 31 29  1  0  0  0  0
 31 33  1  0  0  0  0
 34 33  1  0  0  0  0
 34 28  1  0  0  0  0
 34 35  1  0  0  0  0
M  END
>  <minimizedAffinity>
-5.2218585

$$$$

 OpenBabel03252507103D

 35 37  0  0  1  0  0  0  0  0999 V2000
   35.4800   28.9180   40.6130 C   0  0  0  0  0  0  0  0  0  0  0  0
   35.8120   30.2560   40.3350 C   0  0  0  0  0  0  0  0  0  0  0  0
   36.9290   30.7760   40.9630 C   0  0  0  0  0  0  0  0  0  0  0  0
   37.6440   29.9930   41.8020 N   0  0  0  0  0  0  0  0  0  0  0  0
   37.3140   28.7220   42.0550 C   0  0  0  0  0  0  0  0  0  0  0  0
   36.2200   28.1790   41.4530 N   0  0  0  0  0  0  0  0  0  0  0  0
   34.6150   28.4540   40.1510 H   0  0  0  0  0  0  0  0  0  0  0  0
   35.1870   30.8190   39.6480 H   0  0  0  0  0  0  0  0  0  0  0  0
   38.2940   26.4460   42.4420 C   0  0  1  0  0  0  0  0  0  0  0  0
   38.0470   27.8250   42.9660 C   0  0  1  0  0  0  0  0  0  0  0  0
   39.5180   28.3010   43.0710 C   0  0  0  0  0  0  0  0  0  0  0  0
   40.2610   27.2030   43.3650 O   0  0  0  0  0  0  0  0  0  0  0  0
   39.4660   26.0620   43.3350 C   0  0  0  0  0  0  0  0  0  0  0  0
   38.6410   26.4960   41.3910 H   0  0  0  0  0  0  0  0  0  0  0  0
   37.6120   27.7690   43.9710 H   0  0  0  0  0  0  0  0  0  0  0  0
   39.5350   28.9900   43.9420 H   0  0  0  0  0  0  0  0  0  0  0  0
   39.8220   28.8570   42.1770 H   0  0  0  0  0  0  0  0  0  0  0  0
   39.1640   25.6850   44.3080 H   0  0  0  0  0  0  0  0  0  0  0  0
   40.0520   25.2970   42.7600 H   0  0  0  0  0  0  0  0  0  0  0  0
   37.2260   25.6040   42.4990 O   0  0  0  0  0  0  0  0  0  0  0  0
   37.5320   24.6690   42.4420 H   0  0  0  0  0  0  0  0  0  0  0  0
   37.2500   32.0950   40.6830 O   0  0  0  0  0  0  0  0  0  0  0  0
   38.9770   34.0770   40.2760 O   0  0  0  0  0  0  0  0  0  0  0  0
   38.8850   32.5870   40.6050 P   0  0  1  0  0  0  0  0  0  0  0  0
   39.6170   32.2410   42.0560 O   0  0  0  0  0  0  0  0  0  0  0  0
   39.6330   33.0430   42.6370 H   0  0  0  0  0  0  0  0  0  0  0  0
   39.5830   31.7380   39.3140 O   0  0  0  0  0  0  0  0  0  0  0  0
   40.5460   32.5720   38.7490 C   0  0  1  0  0  3  0  0  0  0  0  0
   41.8800   32.1800   39.3430 C   0  0  0  0  0  3  0  0  0  0  0  0
   42.3320   33.0330   39.9170 H   0  0  0  0  0  0  0  0  0  0  0  0
   42.6830   31.8670   38.1030 C   0  0  0  0  0  3  0  0  0  0  0  0
   43.7330   32.1890   38.3070 H   0  0  0  0  0  0  0  0  0  0  0  0
   42.0830   32.5770   37.0680 O   0  0  0  0  0  0  0  0  0  0  0  0
   40.7420   32.2670   37.2770 C   0  0  0  0  0  3  0  0  0  0  0  0
   40.1010   32.9060   36.6310 H   0  0  0  0  0  0  0  0  0  0  0  0
  1  6  1  0  0  0  0
  2  1  2  0  0  0  0
  2  3  1  0  0  0  0
  3  4  2  0  0  0  0
  4  5  1  0  0  0  0
  5 10  1  0  0  0  0
  6  5  2  0  0  0  0
  7  1  1  0  0  0  0
  8  2  1  0  0  0  0
  9 14  1  6  0  0  0
  9 20  1  0  0  0  0
  9 10  1  0  0  0  0
  9 13  1  0  0  0  0
 10 11  1  0  0  0  0
 10 15  1  1  0  0  0
 11 12  1  0  0  0  0
 11 16  1  0  0  0  0
 13 12  1  0  0  0  0
 13 18  1  0  0  0  0
 17 11  1  0  0  0  0
 19 13  1  0  0  0  0
 21 20  1  0  0  0  0
 22  3  1  0  0  0  0
 24 23  2  6  0  0  0
 24 22  1  0  0  0  0
 24 25  1  0  0  0  0
 25 26  1  0  0  0  0
 27 24  1  0  0  0  0
 28 27  1  1  0  0  0
 28 29  1  0  0  0  0
 29 30  1  0  0  0  0
 31 32  1  0  0  0  0
 31 29  1  0  0  0  0
 33 34  1  0  0  0  0
 33 31  1  0  0  0  0
 34 28  1  0  0  0  0
 35 34  1  0  0  0  0
M  END
>  <minimizedAffinity>
-5.20087719

$$$$

 OpenBabel03252507103D

 35 37  0  0  1  0  0  0  0  0999 V2000
   38.8970   27.6920   43.4370 C   0  0  0  0  0  0  0  0  0  0  0  0
   38.3270   28.9370   43.1170 C   0  0  0  0  0  0  0  0  0  0  0  0
   37.2520   28.9370   42.2460 C   0  0  0  0  0  0  0  0  0  0  0  0
   36.8010   27.7650   41.7480 N   0  0  0  0  0  0  0  0  0  0  0  0
   37.3560   26.5890   42.0620 C   0  0  0  0  0  0  0  0  0  0  0  0
   38.4150   26.5530   42.9160 N   0  0  0  0  0  0  0  0  0  0  0  0
   39.7430   27.6260   44.1130 H   0  0  0  0  0  0  0  0  0  0  0  0
   38.7470   29.8350   43.5610 H   0  0  0  0  0  0  0  0  0  0  0  0
   37.1070   25.0840   40.0720 C   0  0  1  0  0  0  0  0  0  0  0  0
   36.9150   25.2820   41.5420 C   0  0  1  0  0  0  0  0  0  0  0  0
   37.8770   24.1810   42.0550 C   0  0  0  0  0  0  0  0  0  0  0  0
   37.8470   23.1820   41.1360 O   0  0  0  0  0  0  0  0  0  0  0  0
   37.0830   23.5620   40.0370 C   0  0  0  0  0  0  0  0  0  0  0  0
   38.1130   25.4370   39.7700 H   0  0  0  0  0  0  0  0  0  0  0  0
   35.8870   25.0230   41.8220 H   0  0  0  0  0  0  0  0  0  0  0  0
   37.4190   23.8170   42.9970 H   0  0  0  0  0  0  0  0  0  0  0  0
   38.8680   24.5920   42.2800 H   0  0  0  0  0  0  0  0  0  0  0  0
   36.0800   23.1440   40.0060 H   0  0  0  0  0  0  0  0  0  0  0  0
   37.6800   23.2670   39.1330 H   0  0  0  0  0  0  0  0  0  0  0  0
   36.1840   25.6930   39.2780 O   0  0  0  0  0  0  0  0  0  0  0  0
   36.1810   25.2760   38.3860 H   0  0  0  0  0  0  0  0  0  0  0  0
   36.6950   30.1690   41.9380 O   0  0  0  0  0  0  0  0  0  0  0  0
   35.8850   30.2030   39.4040 O   0  0  0  0  0  0  0  0  0  0  0  0
   36.8840   30.8330   40.3760 P   0  0  1  0  0  0  0  0  0  0  0  0
   36.6810   32.4800   40.4670 O   0  0  0  0  0  0  0  0  0  0  0  0
   35.7550   32.7300   40.2210 H   0  0  0  0  0  0  0  0  0  0  0  0
   38.4390   30.4060   39.8540 O   0  0  0  0  0  0  0  0  0  0  0  0
   38.9930   31.5330   39.2500 C   0  0  1  0  0  3  0  0  0  0  0  0
   40.4770   31.5090   39.5370 C   0  0  0  0  0  3  0  0  0  0  0  0
   40.7860   32.4070   40.1360 H   0  0  0  0  0  0  0  0  0  0  0  0
   41.0560   31.5540   38.1430 C   0  0  0  0  0  3  0  0  0  0  0  0
   41.9940   32.1570   38.2010 H   0  0  0  0  0  0  0  0  0  0  0  0
   40.0790   32.1360   37.3410 O   0  0  0  0  0  0  0  0  0  0  0  0
   38.9510   31.4250   37.7380 C   0  0  0  0  0  3  0  0  0  0  0  0
   38.0380   31.8940   37.3130 H   0  0  0  0  0  0  0  0  0  0  0  0
  1  7  1  0  0  0  0
  2  1  1  0  0  0  0
  2  8  1  0  0  0  0
  3  2  2  0  0  0  0
  4  5  2  0  0  0  0
  4  3  1  0  0  0  0
  5  6  1  0  0  0  0
  6  1  2  0  0  0  0
  9 14  1  6  0  0  0
  9 10  1  0  0  0  0
 10 15  1  1  0  0  0
 10 11  1  0  0  0  0
 10  5  1  0  0  0  0
 11 17  1  0  0  0  0
 11 16  1  0  0  0  0
 12 11  1  0  0  0  0
 13  9  1  0  0  0  0
 13 12  1  0  0  0  0
 18 13  1  0  0  0  0
 19 13  1  0  0  0  0
 20  9  1  0  0  0  0
 21 20  1  0  0  0  0
 22  3  1  0  0  0  0
 24 23  2  6  0  0  0
 24 25  1  0  0  0  0
 24 22  1  0  0  0  0
 26 25  1  0  0  0  0
 27 24  1  0  0  0  0
 28 29  1  0  0  0  0
 28 27  1  1  0  0  0
 29 30  1  0  0  0  0
 31 32  1  0  0  0  0
 31 29  1  0  0  0  0
 33 34  1  0  0  0  0
 33 31  1  0  0  0  0
 34 28  1  0  0  0  0
 35 34  1  0  0  0  0
M  END
>  <minimizedAffinity>
-5.18414783

$$$$

 OpenBabel03252507103D

 35 37  0  0  1  0  0  0  0  0999 V2000
   37.7510   24.0280   41.8600 C   0  0  0  0  0  0  0  0  0  0  0  0
   36.9550   24.8960   41.0910 C   0  0  0  0  0  0  0  0  0  0  0  0
   37.2800   26.2400   41.1130 C   0  0  0  0  0  0  0  0  0  0  0  0
   38.3280   26.6580   41.8560 N   0  0  0  0  0  0  0  0  0  0  0  0
   39.0750   25.8190   42.5820 C   0  0  0  0  0  0  0  0  0  0  0  0
   38.7830   24.4890   42.5830 N   0  0  0  0  0  0  0  0  0  0  0  0
   37.5460   22.9630   41.8850 H   0  0  0  0  0  0  0  0  0  0  0  0
   36.1300   24.4810   40.5200 H   0  0  0  0  0  0  0  0  0  0  0  0
   41.5670   25.8720   42.8630 C   0  0  1  0  0  0  0  0  0  0  0  0
   40.2210   26.2180   43.4180 C   0  0  1  0  0  0  0  0  0  0  0  0
   40.3500   27.7620   43.3980 C   0  0  0  0  0  0  0  0  0  0  0  0
   41.6600   28.0440   43.6160 O   0  0  0  0  0  0  0  0  0  0  0  0
   42.4070   26.8710   43.6470 C   0  0  0  0  0  0  0  0  0  0  0  0
   41.6100   26.1290   41.7850 H   0  0  0  0  0  0  0  0  0  0  0  0
   40.1480   25.8740   44.4560 H   0  0  0  0  0  0  0  0  0  0  0  0
   39.7580   28.1100   44.2700 H   0  0  0  0  0  0  0  0  0  0  0  0
   39.9170   28.1870   42.4860 H   0  0  0  0  0  0  0  0  0  0  0  0
   42.6800   26.5230   44.6390 H   0  0  0  0  0  0  0  0  0  0  0  0
   43.3140   27.0700   43.0160 H   0  0  0  0  0  0  0  0  0  0  0  0
   41.9370   24.5700   43.0050 O   0  0  0  0  0  0  0  0  0  0  0  0
   42.9140   24.4860   42.9140 H   0  0  0  0  0  0  0  0  0  0  0  0
   36.4910   27.0880   40.3510 O   0  0  0  0  0  0  0  0  0  0  0  0
   34.8270   29.1630   40.3960 O   0  0  0  0  0  0  0  0  0  0  0  0
   36.2040   28.6920   40.8640 P   0  0  1  0  0  0  0  0  0  0  0  0
   36.3340   28.7560   42.5190 O   0  0  0  0  0  0  0  0  0  0  0  0
   35.4400   28.6940   42.9410 H   0  0  0  0  0  0  0  0  0  0  0  0
   37.3620   29.6600   40.0910 O   0  0  0  0  0  0  0  0  0  0  0  0
   37.7240   30.6630   40.9890 C   0  0  1  0  0  3  0  0  0  0  0  0
   39.2270   30.6070   41.1390 C   0  0  0  0  0  3  0  0  0  0  0  0
   39.5180   30.3730   42.1980 H   0  0  0  0  0  0  0  0  0  0  0  0
   39.6210   32.0140   40.7600 C   0  0  0  0  0  3  0  0  0  0  0  0
   40.4950   32.2880   41.3980 H   0  0  0  0  0  0  0  0  0  0  0  0
   38.5000   32.8030   40.9980 O   0  0  0  0  0  0  0  0  0  0  0  0
   37.5050   32.0400   40.3950 C   0  0  0  0  0  3  0  0  0  0  0  0
   36.5050   32.4500   40.6520 H   0  0  0  0  0  0  0  0  0  0  0  0
  1  7  1  0  0  0  0
  1  6  1  0  0  0  0
  2  3  1  0  0  0  0
  2  1  2  0  0  0  0
  3  4  2  0  0  0  0
  4  5  1  0  0  0  0
  5  6  2  0  0  0  0
  5 10  1  0  0  0  0
  8  2  1  0  0  0  0
  9 14  1  6  0  0  0
  9 20  1  0  0  0  0
  9 10  1  0  0  0  0
  9 13  1  0  0  0  0
 10 15  1  1  0  0  0
 11 10  1  0  0  0  0
 11 12  1  0  0  0  0
 11 16  1  0  0  0  0
 12 13  1  0  0  0  0
 13 18  1  0  0  0  0
 17 11  1  0  0  0  0
 19 13  1  0  0  0  0
 21 20  1  0  0  0  0
 22 24  1  0  0  0  0
 22  3  1  0  0  0  0
 24 23  2  6  0  0  0
 24 25  1  0  0  0  0
 25 26  1  0  0  0  0
 27 24  1  0  0  0  0
 28 27  1  6  0  0  0
 28 29  1  0  0  0  0
 29 30  1  0  0  0  0
 31 33  1  0  0  0  0
 31 29  1  0  0  0  0
 31 32  1  0  0  0  0
 34 35  1  0  0  0  0
 34 28  1  0  0  0  0
 34 33  1  0  0  0  0
M  END
>  <minimizedAffinity>
-5.11313295

$$$$

 OpenBabel03252507103D

 35 37  0  0  1  0  0  0  0  0999 V2000
   41.3010   29.6900   42.5720 C   0  0  0  0  0  0  0  0  0  0  0  0
   40.6740   30.8590   42.1040 C   0  0  0  0  0  0  0  0  0  0  0  0
   39.3040   30.8160   41.9240 C   0  0  0  0  0  0  0  0  0  0  0  0
   38.6330   29.6760   42.2000 N   0  0  0  0  0  0  0  0  0  0  0  0
   39.2450   28.5720   42.6440 C   0  0  0  0  0  0  0  0  0  0  0  0
   40.5930   28.5800   42.8330 N   0  0  0  0  0  0  0  0  0  0  0  0
   42.3730   29.6610   42.7320 H   0  0  0  0  0  0  0  0  0  0  0  0
   41.2840   31.7360   41.9060 H   0  0  0  0  0  0  0  0  0  0  0  0
   37.1760   27.1720   42.4200 C   0  0  1  0  0  0  0  0  0  0  0  0
   38.5690   27.2980   42.9510 C   0  0  1  0  0  0  0  0  0  0  0  0
   39.2340   26.1610   42.1340 C   0  0  0  0  0  0  0  0  0  0  0  0
   38.2830   25.2110   41.9480 O   0  0  0  0  0  0  0  0  0  0  0  0
   37.0570   25.6540   42.4340 C   0  0  0  0  0  0  0  0  0  0  0  0
   37.1360   27.5290   41.3720 H   0  0  0  0  0  0  0  0  0  0  0  0
   38.5870   27.0370   44.0150 H   0  0  0  0  0  0  0  0  0  0  0  0
   40.0230   25.7550   42.8000 H   0  0  0  0  0  0  0  0  0  0  0  0
   39.7060   26.5480   41.2240 H   0  0  0  0  0  0  0  0  0  0  0  0
   36.7710   25.2500   43.4010 H   0  0  0  0  0  0  0  0  0  0  0  0
   36.3040   25.3990   41.6420 H   0  0  0  0  0  0  0  0  0  0  0  0
   36.2210   27.8310   43.1320 O   0  0  0  0  0  0  0  0  0  0  0  0
   35.3320   27.4610   42.9260 H   0  0  0  0  0  0  0  0  0  0  0  0
   38.6940   31.9730   41.4650 O   0  0  0  0  0  0  0  0  0  0  0  0
   36.2140   31.1230   41.0190 O   0  0  0  0  0  0  0  0  0  0  0  0
   37.3770   31.8820   40.3800 P   0  0  1  0  0  0  0  0  0  0  0  0
   36.9310   33.4230   39.9500 O   0  0  0  0  0  0  0  0  0  0  0  0
   36.1700   33.7320   40.5030 H   0  0  0  0  0  0  0  0  0  0  0  0
   37.9080   30.9720   39.0510 O   0  0  0  0  0  0  0  0  0  0  0  0
   37.0100   29.9190   38.8900 C   0  0  1  0  0  3  0  0  0  0  0  0
   36.5250   29.9610   37.4590 C   0  0  0  0  0  3  0  0  0  0  0  0
   35.4170   30.1330   37.4140 H   0  0  0  0  0  0  0  0  0  0  0  0
   36.8850   28.5750   36.9780 C   0  0  0  0  0  3  0  0  0  0  0  0
   36.0840   28.2620   36.2650 H   0  0  0  0  0  0  0  0  0  0  0  0
   36.9480   27.7780   38.1170 O   0  0  0  0  0  0  0  0  0  0  0  0
   37.7140   28.5780   38.9580 C   0  0  0  0  0  3  0  0  0  0  0  0
   37.7100   28.1590   39.9870 H   0  0  0  0  0  0  0  0  0  0  0  0
  1  7  1  0  0  0  0
  1  6  1  0  0  0  0
  2  1  2  0  0  0  0
  3  2  1  0  0  0  0
  3  4  2  0  0  0  0
  4  5  1  0  0  0  0
  5  6  2  0  0  0  0
  5 10  1  0  0  0  0
  8  2  1  0  0  0  0
  9 14  1  6  0  0  0
  9 13  1  0  0  0  0
  9 10  1  0  0  0  0
  9 20  1  0  0  0  0
 10 15  1  1  0  0  0
 11 16  1  0  0  0  0
 11 10  1  0  0  0  0
 12 11  1  0  0  0  0
 12 13  1  0  0  0  0
 13 18  1  0  0  0  0
 17 11  1  0  0  0  0
 19 13  1  0  0  0  0
 21 20  1  0  0  0  0
 22  3  1  0  0  0  0
 24 23  2  1  0  0  0
 24 22  1  0  0  0  0
 25 24  1  0  0  0  0
 25 26  1  0  0  0  0
 27 24  1  0  0  0  0
 28 34  1  0  0  0  0
 28 27  1  6  0  0  0
 29 28  1  0  0  0  0
 30 29  1  0  0  0  0
 31 29  1  0  0  0  0
 31 33  1  0  0  0  0
 32 31  1  0  0  0  0
 33 34  1  0  0  0  0
 34 35  1  0  0  0  0
M  END
>  <minimizedAffinity>
-5.06103277

$$$$
