
 OpenBabel03242520453D

 21 22  0  0  1  0  0  0  0  0999 V2000
   44.8750   35.1320   44.0320 C   0  0  0  0  0  0  0  0  0  0  0  0
   45.7230   35.3480   42.9190 C   0  0  0  0  0  0  0  0  0  0  0  0
   46.9320   34.6590   42.8660 C   0  0  0  0  0  0  0  0  0  0  0  0
   47.2440   33.8200   43.8670 N   0  0  0  0  0  0  0  0  0  0  0  0
   46.4090   33.6270   44.9290 C   0  0  0  0  0  0  0  0  0  0  0  0
   45.2370   34.2850   44.9970 N   0  0  0  0  0  0  0  0  0  0  0  0
   43.6470   35.8170   44.1090 N   0  0  0  0  0  0  0  0  0  0  0  0
   45.4020   36.0420   42.1520 H   0  0  0  0  0  0  0  0  0  0  0  0
   46.7860   32.9260   45.6580 H   0  0  0  0  0  0  0  0  0  0  0  0
   43.3080   36.3900   44.9150 H   0  0  0  0  0  0  0  0  0  0  0  0
   43.1010   35.6670   43.2130 H   0  0  0  0  0  0  0  0  0  0  0  0
   47.7360   34.9280   41.7150 C   0  0  0  0  0  0  0  0  0  0  0  0
   48.6610   35.7660   41.6540 O   0  0  0  0  0  0  0  0  0  0  0  0
   47.3360   34.0640   40.5460 C   0  0  2  0  0  3  0  0  0  0  0  0
   47.7410   32.6380   40.7350 C   0  0  0  0  0  3  0  0  0  0  0  0
   48.0340   32.4440   41.7860 H   0  0  0  0  0  0  0  0  0  0  0  0
   48.8880   32.4880   39.7570 C   0  0  0  0  0  3  0  0  0  0  0  0
   49.0500   31.4280   39.4880 H   0  0  0  0  0  0  0  0  0  0  0  0
   48.4870   33.2670   38.6900 O   0  0  0  0  0  0  0  0  0  0  0  0
   48.1480   34.4680   39.3130 C   0  0  0  0  0  3  0  0  0  0  0  0
   47.5880   35.1660   38.6600 H   0  0  0  0  0  0  0  0  0  0  0  0
  1  7  1  0  0  0  0
  1  6  1  0  0  0  0
  2  1  2  0  0  0  0
  3  2  1  0  0  0  0
  3  4  2  0  0  0  0
  4  5  1  0  0  0  0
  5  6  2  0  0  0  0
  5  9  1  0  0  0  0
  7 10  1  0  0  0  0
  8  2  1  0  0  0  0
 11  7  1  0  0  0  0
 12  3  1  0  0  0  0
 13 12  2  0  0  0  0
 14 15  1  0  0  0  0
 14 12  1  1  0  0  0
 15 16  1  0  0  0  0
 17 15  1  0  0  0  0
 18 17  1  0  0  0  0
 19 20  1  0  0  0  0
 19 17  1  0  0  0  0
 20 14  1  0  0  0  0
 21 20  1  0  0  0  0
M  END
>  <minimizedAffinity>
-4.63092518

>  <minimizedRMSD>
0.393520415

$$$$
