
 OpenBabel03242523303D

 21 22  0  0  1  0  0  0  0  0999 V2000
   45.6730   33.0610   46.8600 C   0  0  0  0  0  0  0  0  0  0  0  0
   46.4220   33.5270   47.5450 H   0  0  0  0  0  0  0  0  0  0  0  0
   44.7120   32.8340   47.3650 H   0  0  0  0  0  0  0  0  0  0  0  0
   44.5590   35.8400   44.6440 C   0  0  0  0  0  0  0  0  0  0  0  0
   45.2940   35.5720   43.4800 C   0  0  0  0  0  0  0  0  0  0  0  0
   46.1380   34.4720   43.4740 C   0  0  0  0  0  0  0  0  0  0  0  0
   46.2320   33.6920   44.5740 N   0  0  0  0  0  0  0  0  0  0  0  0
   45.5050   33.9700   45.7040 C   0  0  0  0  0  0  0  0  0  0  0  0
   44.7010   35.0280   45.6950 N   0  0  0  0  0  0  0  0  0  0  0  0
   43.9120   36.7060   44.6120 H   0  0  0  0  0  0  0  0  0  0  0  0
   45.2720   36.1440   42.5680 H   0  0  0  0  0  0  0  0  0  0  0  0
   46.7250   34.2210   42.6020 H   0  0  0  0  0  0  0  0  0  0  0  0
   46.4730   31.5500   46.2230 S   0  0  0  0  0  0  0  0  0  0  0  0
   46.7950   30.3880   47.6060 C   0  0  2  0  0  3  0  0  0  0  0  0
   47.0030   31.1390   48.8790 C   0  0  0  0  0  3  0  0  0  0  0  0
   46.8220   32.2280   48.6940 H   0  0  0  0  0  0  0  0  0  0  0  0
   48.4190   30.8360   49.2800 C   0  0  0  0  0  3  0  0  0  0  0  0
   48.5180   30.6230   50.3670 H   0  0  0  0  0  0  0  0  0  0  0  0
   48.8070   29.7000   48.5860 O   0  0  0  0  0  0  0  0  0  0  0  0
   48.1100   29.7120   47.3830 C   0  0  0  0  0  3  0  0  0  0  0  0
   48.0570   28.6970   46.9730 H   0  0  0  0  0  0  0  0  0  0  0  0
  1  3  1  0  0  0  0
  1  2  1  0  0  0  0
  4  9  1  0  0  0  0
  5  4  2  0  0  0  0
  6  5  1  0  0  0  0
  6  7  2  0  0  0  0
  7  8  1  0  0  0  0
  8  1  1  0  0  0  0
  9  8  2  0  0  0  0
 10  4  1  0  0  0  0
 11  5  1  0  0  0  0
 12  6  1  0  0  0  0
 13  1  1  0  0  0  0
 14 13  1  6  0  0  0
 14 15  1  0  0  0  0
 15 17  1  0  0  0  0
 16 15  1  0  0  0  0
 17 18  1  0  0  0  0
 19 17  1  0  0  0  0
 20 14  1  0  0  0  0
 20 19  1  0  0  0  0
 21 20  1  0  0  0  0
M  END
>  <minimizedAffinity>
-3.88776946

>  <minimizedRMSD>
0.526676118

$$$$
