REMARK  Name = 
REMARK  5 active torsions:
REMARK  status: ('A' for Active; 'I' for Inactive)
REMARK    1  A    between atoms: C_1  and  O_13
REMARK    2  A    between atoms: C_2  and  C_9
REMARK    3  A    between atoms: C_5  and  O_14
REMARK    4  A    between atoms: C_6  and  O_15
REMARK    5  A    between atoms: O_15  and  C_27
REMARK                            x       y       z     vdW  Elec       q    Type
REMARK                         _______ _______ _______ _____ _____    ______ ____
ROOT
ATOM      1  C   UNL     1      48.152  33.519  42.570  0.00  0.00    +0.000 C 
ATOM      2  C   UNL     1      46.682  33.726  42.292  0.00  0.00    +0.000 C 
ATOM      3  O   UNL     1      46.473  34.623  41.264  0.00  0.00    +0.000 OA
ATOM      4  C   UNL     1      46.876  33.983  40.103  0.00  0.00    +0.000 C 
ATOM      5  C   UNL     1      48.381  33.931  40.098  0.00  0.00    +0.000 C 
ATOM      6  C   UNL     1      48.989  33.378  41.348  0.00  0.00    +0.000 C 
ATOM      7  H   UNL     1      48.206  32.538  43.129  0.00  0.00    +0.000 HD
ATOM      8  H   UNL     1      46.261  32.733  42.010  0.00  0.00    +0.000 HD
ATOM      9  H   UNL     1      46.418  32.989  39.947  0.00  0.00    +0.000 HD
ATOM     10  H   UNL     1      46.596  34.654  39.249  0.00  0.00    +0.000 HD
ATOM     11  H   UNL     1      48.721  33.327  39.227  0.00  0.00    +0.000 HD
ATOM     12  H   UNL     1      49.923  33.986  41.530  0.00  0.00    +0.000 HD
ENDROOT
BRANCH   2  15
ATOM     13  C   UNL     1      44.596  35.811  44.670  0.00  0.00    +0.000 A 
ATOM     14  C   UNL     1      45.226  35.409  43.482  0.00  0.00    +0.000 A 
ATOM     15  C   UNL     1      45.982  34.203  43.503  0.00  0.00    +0.000 A 
ATOM     16  N   UNL     1      46.060  33.502  44.660  0.00  0.00    +0.000 NA
ATOM     17  C   UNL     1      45.431  33.933  45.791  0.00  0.00    +0.000 A 
ATOM     18  N   UNL     1      44.701  35.083  45.797  0.00  0.00    +0.000 NA
ATOM     19  H   UNL     1      44.012  36.720  44.695  0.00  0.00    +0.000 HD
ATOM     20  H   UNL     1      45.148  35.988  42.567  0.00  0.00    +0.000 HD
ATOM     21  H   UNL     1      45.566  33.291  46.652  0.00  0.00    +0.000 HD
ENDBRANCH   2  15
BRANCH   1  22
ATOM     22  O   UNL     1      48.654  34.468  43.468  0.00  0.00    +0.000 OA
ATOM     23  H   UNL     1      48.930  34.107  44.327  0.00  0.00    +0.000 HD
ENDBRANCH   1  22
BRANCH   5  24
ATOM     24  O   UNL     1      48.813  35.241  39.843  0.00  0.00    +0.000 OA
ATOM     25  H   UNL     1      48.663  35.474  38.908  0.00  0.00    +0.000 HD
ENDBRANCH   5  24
BRANCH   6  26
ATOM     26  O   UNL     1      49.466  32.065  41.187  0.00  0.00    +0.000 OA
BRANCH  26  27
ATOM     27  C   UNL     1      50.830  31.953  41.296  0.00  0.00    +0.000 C 
ATOM     28  C   UNL     1      51.169  30.525  41.649  0.00  0.00    +0.000 C 
ATOM     29  H   UNL     1      52.273  30.415  41.522  0.00  0.00    +0.000 HD
ATOM     30  C   UNL     1      50.895  30.518  43.130  0.00  0.00    +0.000 C 
ATOM     31  H   UNL     1      49.861  30.137  43.290  0.00  0.00    +0.000 HD
ATOM     32  O   UNL     1      50.997  31.808  43.609  0.00  0.00    +0.000 OA
ATOM     33  C   UNL     1      51.327  32.648  42.558  0.00  0.00    +0.000 C 
ATOM     34  H   UNL     1      50.850  33.624  42.719  0.00  0.00    +0.000 HD
ENDBRANCH  26  27
ENDBRANCH   6  26
TORSDOF 5
