
 OpenBabel03242516323D

 30 32  0  0  1  0  0  0  0  0999 V2000
   36.6730   30.0630   41.6040 C   0  0  2  0  0  0  0  0  0  0  0  0
   37.6350   30.2010   40.4140 C   0  0  1  0  0  0  0  0  0  0  0  0
   36.7460   29.9210   39.3940 O   0  0  0  0  0  0  0  0  0  0  0  0
   36.1610   28.7120   39.7850 C   0  0  0  0  0  0  0  0  0  0  0  0
   36.2440   28.6200   41.2870 C   0  0  1  0  0  0  0  0  0  0  0  0
   37.1810   30.1630   42.5540 H   0  0  0  0  0  0  0  0  0  0  0  0
   38.4060   29.4380   40.5990 H   0  0  0  0  0  0  0  0  0  0  0  0
   35.1210   28.6060   39.4130 H   0  0  0  0  0  0  0  0  0  0  0  0
   36.7680   27.9080   39.3420 H   0  0  0  0  0  0  0  0  0  0  0  0
   35.2890   28.3790   41.7850 H   0  0  0  0  0  0  0  0  0  0  0  0
   39.9240   33.2310   40.4340 C   0  0  0  0  0  0  0  0  0  0  0  0
   39.5650   31.8950   40.5830 C   0  0  0  0  0  0  0  0  0  0  0  0
   38.2490   31.5230   40.3430 C   0  0  0  0  0  0  0  0  0  0  0  0
   37.3720   32.5110   39.9680 N   0  0  0  0  0  0  0  0  0  0  0  0
   37.7440   33.7970   39.8310 C   0  0  0  0  0  0  0  0  0  0  0  0
   39.0160   34.1600   40.0630 N   0  0  0  0  0  0  0  0  0  0  0  0
   40.9780   33.3720   40.6540 H   0  0  0  0  0  0  0  0  0  0  0  0
   40.1870   31.0830   40.8670 H   0  0  0  0  0  0  0  0  0  0  0  0
   37.0370   34.5590   39.5340 H   0  0  0  0  0  0  0  0  0  0  0  0
   35.5630   30.8350   41.4230 O   0  0  0  0  0  0  0  0  0  0  0  0
   35.4010   30.9950   40.4480 H   0  0  0  0  0  0  0  0  0  0  0  0
   37.3050   27.8030   41.6900 O   0  0  0  0  0  0  0  0  0  0  0  0
   37.2410   26.5590   41.1230 C   0  0  2  0  0  3  0  0  0  0  0  0
   36.9640   25.5730   42.2660 C   0  0  0  0  0  3  0  0  0  0  0  0
   35.9230   25.1760   42.1200 H   0  0  0  0  0  0  0  0  0  0  0  0
   38.0190   24.5040   42.1170 C   0  0  0  0  0  3  0  0  0  0  0  0
   37.5370   23.4990   42.0330 H   0  0  0  0  0  0  0  0  0  0  0  0
   38.7010   24.7440   40.9500 O   0  0  0  0  0  0  0  0  0  0  0  0
   38.5920   26.1040   40.6490 C   0  0  0  0  0  3  0  0  0  0  0  0
   38.6880   26.1570   39.5340 H   0  0  0  0  0  0  0  0  0  0  0  0
  1  6  1  1  0  0  0
  2  7  1  1  0  0  0
  2  1  1  0  0  0  0
  3  4  1  0  0  0  0
  3  2  1  0  0  0  0
  4  5  1  0  0  0  0
  5  1  1  0  0  0  0
  5 22  1  0  0  0  0
  5 10  1  1  0  0  0
  8  4  1  0  0  0  0
  9  4  1  0  0  0  0
 11 12  1  0  0  0  0
 11 17  1  0  0  0  0
 12 18  1  0  0  0  0
 13  2  1  0  0  0  0
 13 12  2  0  0  0  0
 14 13  1  0  0  0  0
 15 14  2  0  0  0  0
 15 16  1  0  0  0  0
 16 11  2  0  0  0  0
 19 15  1  0  0  0  0
 20  1  1  0  0  0  0
 21 20  1  0  0  0  0
 23 22  1  1  0  0  0
 23 24  1  0  0  0  0
 25 24  1  0  0  0  0
 26 24  1  0  0  0  0
 27 26  1  0  0  0  0
 28 26  1  0  0  0  0
 29 28  1  0  0  0  0
 29 23  1  0  0  0  0
 30 29  1  0  0  0  0
M  END
>  <minimizedAffinity>
-4.95805025

$$$$

 OpenBabel03242516323D

 30 32  0  0  1  0  0  0  0  0999 V2000
   37.6410   31.8590   40.7340 C   0  0  2  0  0  0  0  0  0  0  0  0
   38.3270   31.1600   39.5500 C   0  0  1  0  0  0  0  0  0  0  0  0
   37.2260   31.0090   38.7300 O   0  0  0  0  0  0  0  0  0  0  0  0
   36.2790   30.3920   39.5550 C   0  0  0  0  0  0  0  0  0  0  0  0
   36.6010   30.7520   40.9820 C   0  0  1  0  0  0  0  0  0  0  0  0
   38.3150   32.0120   41.5660 H   0  0  0  0  0  0  0  0  0  0  0  0
   38.7330   30.2330   39.9810 H   0  0  0  0  0  0  0  0  0  0  0  0
   35.2380   30.6590   39.2770 H   0  0  0  0  0  0  0  0  0  0  0  0
   36.4020   29.3060   39.4230 H   0  0  0  0  0  0  0  0  0  0  0  0
   35.7470   31.1430   41.5610 H   0  0  0  0  0  0  0  0  0  0  0  0
   41.0990   32.6860   37.4490 C   0  0  0  0  0  0  0  0  0  0  0  0
   40.1090   31.7710   37.7970 C   0  0  0  0  0  0  0  0  0  0  0  0
   39.4080   31.9590   38.9800 C   0  0  0  0  0  0  0  0  0  0  0  0
   39.7390   33.0510   39.7440 N   0  0  0  0  0  0  0  0  0  0  0  0
   40.7000   33.9210   39.3860 C   0  0  0  0  0  0  0  0  0  0  0  0
   41.3810   33.7420   38.2420 N   0  0  0  0  0  0  0  0  0  0  0  0
   41.5600   32.4120   36.5050 H   0  0  0  0  0  0  0  0  0  0  0  0
   39.8030   30.9100   37.2570 H   0  0  0  0  0  0  0  0  0  0  0  0
   40.9440   34.7750   40.0020 H   0  0  0  0  0  0  0  0  0  0  0  0
   36.9380   32.9490   40.3120 O   0  0  0  0  0  0  0  0  0  0  0  0
   36.6740   32.8480   39.3520 H   0  0  0  0  0  0  0  0  0  0  0  0
   37.2840   29.7170   41.6280 O   0  0  0  0  0  0  0  0  0  0  0  0
   36.7470   28.4910   41.3450 C   0  0  2  0  0  3  0  0  0  0  0  0
   36.4870   27.8070   42.6940 C   0  0  0  0  0  3  0  0  0  0  0  0
   35.3740   27.7400   42.8260 H   0  0  0  0  0  0  0  0  0  0  0  0
   37.1400   26.4510   42.5710 C   0  0  0  0  0  3  0  0  0  0  0  0
   36.3940   25.6460   42.7810 H   0  0  0  0  0  0  0  0  0  0  0  0
   37.5650   26.3040   41.2740 O   0  0  0  0  0  0  0  0  0  0  0  0
   37.7670   27.5760   40.7310 C   0  0  0  0  0  3  0  0  0  0  0  0
   37.6080   27.4440   39.6300 H   0  0  0  0  0  0  0  0  0  0  0  0
  1  5  1  0  0  0  0
  1  6  1  1  0  0  0
  2  7  1  1  0  0  0
  2  1  1  0  0  0  0
  3  2  1  0  0  0  0
  3  4  1  0  0  0  0
  4  5  1  0  0  0  0
  5 10  1  1  0  0  0
  5 22  1  0  0  0  0
  8  4  1  0  0  0  0
  9  4  1  0  0  0  0
 11 12  2  0  0  0  0
 11 16  1  0  0  0  0
 12 13  1  0  0  0  0
 13  2  1  0  0  0  0
 13 14  2  0  0  0  0
 15 14  1  0  0  0  0
 15 19  1  0  0  0  0
 16 15  2  0  0  0  0
 17 11  1  0  0  0  0
 18 12  1  0  0  0  0
 20  1  1  0  0  0  0
 21 20  1  0  0  0  0
 23 22  1  1  0  0  0
 23 24  1  0  0  0  0
 24 25  1  0  0  0  0
 26 24  1  0  0  0  0
 26 27  1  0  0  0  0
 28 26  1  0  0  0  0
 29 28  1  0  0  0  0
 29 23  1  0  0  0  0
 30 29  1  0  0  0  0
M  END
>  <minimizedAffinity>
-4.83527756

$$$$

 OpenBabel03242516323D

 30 32  0  0  1  0  0  0  0  0999 V2000
   36.8140   28.2140   41.9410 C   0  0  2  0  0  0  0  0  0  0  0  0
   38.2130   27.5810   41.8830 C   0  0  1  0  0  0  0  0  0  0  0  0
   38.6740   27.9830   43.1220 O   0  0  0  0  0  0  0  0  0  0  0  0
   38.4440   29.3620   43.1320 C   0  0  0  0  0  0  0  0  0  0  0  0
   37.3060   29.6510   42.1870 C   0  0  1  0  0  0  0  0  0  0  0  0
   36.2730   28.0960   41.0110 H   0  0  0  0  0  0  0  0  0  0  0  0
   38.6910   28.0610   41.0170 H   0  0  0  0  0  0  0  0  0  0  0  0
   38.2540   29.7520   44.1530 H   0  0  0  0  0  0  0  0  0  0  0  0
   39.3590   29.8390   42.7470 H   0  0  0  0  0  0  0  0  0  0  0  0
   36.5000   30.2700   42.6160 H   0  0  0  0  0  0  0  0  0  0  0  0
   38.8460   23.8410   41.7120 C   0  0  0  0  0  0  0  0  0  0  0  0
   39.1300   25.1790   41.9710 C   0  0  0  0  0  0  0  0  0  0  0  0
   38.1640   26.1350   41.6890 C   0  0  0  0  0  0  0  0  0  0  0  0
   36.9740   25.6960   41.1650 N   0  0  0  0  0  0  0  0  0  0  0  0
   36.7240   24.3970   40.9230 C   0  0  0  0  0  0  0  0  0  0  0  0
   37.6550   23.4680   41.1940 N   0  0  0  0  0  0  0  0  0  0  0  0
   39.6890   23.2110   41.9800 H   0  0  0  0  0  0  0  0  0  0  0  0
   40.0230   25.5860   42.3740 H   0  0  0  0  0  0  0  0  0  0  0  0
   35.7780   24.0720   40.5100 H   0  0  0  0  0  0  0  0  0  0  0  0
   36.1590   27.8390   43.0780 O   0  0  0  0  0  0  0  0  0  0  0  0
   36.8110   27.5960   43.7960 H   0  0  0  0  0  0  0  0  0  0  0  0
   37.7710   30.1170   40.9540 O   0  0  0  0  0  0  0  0  0  0  0  0
   37.0370   31.1760   40.4930 C   0  0  2  0  0  3  0  0  0  0  0  0
   36.8660   30.9640   38.9840 C   0  0  0  0  0  3  0  0  0  0  0  0
   35.7810   30.7380   38.7980 H   0  0  0  0  0  0  0  0  0  0  0  0
   37.3020   32.2670   38.3590 C   0  0  0  0  0  3  0  0  0  0  0  0
   36.4860   32.6750   37.7130 H   0  0  0  0  0  0  0  0  0  0  0  0
   37.5270   33.1660   39.3720 O   0  0  0  0  0  0  0  0  0  0  0  0
   37.8300   32.4510   40.5340 C   0  0  0  0  0  3  0  0  0  0  0  0
   37.5100   33.1210   41.3720 H   0  0  0  0  0  0  0  0  0  0  0  0
  1  6  1  6  0  0  0
  1  5  1  0  0  0  0
  1 20  1  0  0  0  0
  2  7  1  6  0  0  0
  2  1  1  0  0  0  0
  2  3  1  0  0  0  0
  3  4  1  0  0  0  0
  4  8  1  0  0  0  0
  5 10  1  1  0  0  0
  5  4  1  0  0  0  0
  9  4  1  0  0  0  0
 11 12  1  0  0  0  0
 11 17  1  0  0  0  0
 12 18  1  0  0  0  0
 13  2  1  0  0  0  0
 13 12  2  0  0  0  0
 14 13  1  0  0  0  0
 15 14  2  0  0  0  0
 15 16  1  0  0  0  0
 16 11  2  0  0  0  0
 19 15  1  0  0  0  0
 20 21  1  0  0  0  0
 22  5  1  0  0  0  0
 23 29  1  0  0  0  0
 23 22  1  6  0  0  0
 24 23  1  0  0  0  0
 25 24  1  0  0  0  0
 26 24  1  0  0  0  0
 26 28  1  0  0  0  0
 27 26  1  0  0  0  0
 28 29  1  0  0  0  0
 29 30  1  0  0  0  0
M  END
>  <minimizedAffinity>
-4.79883289

$$$$

 OpenBabel03242516323D

 30 32  0  0  1  0  0  0  0  0999 V2000
   37.4390   29.2850   41.6140 C   0  0  2  0  0  0  0  0  0  0  0  0
   37.0730   30.1040   40.3660 C   0  0  1  0  0  0  0  0  0  0  0  0
   35.7020   30.1320   40.5300 O   0  0  0  0  0  0  0  0  0  0  0  0
   35.3610   28.7860   40.7060 C   0  0  0  0  0  0  0  0  0  0  0  0
   36.5640   28.0700   41.2610 C   0  0  1  0  0  0  0  0  0  0  0  0
   38.4960   29.0570   41.6580 H   0  0  0  0  0  0  0  0  0  0  0  0
   37.4420   29.4960   39.5260 H   0  0  0  0  0  0  0  0  0  0  0  0
   34.4620   28.6580   41.3430 H   0  0  0  0  0  0  0  0  0  0  0  0
   35.1330   28.3840   39.7060 H   0  0  0  0  0  0  0  0  0  0  0  0
   36.3620   27.4620   42.1590 H   0  0  0  0  0  0  0  0  0  0  0  0
   38.0390   33.7520   39.9460 C   0  0  0  0  0  0  0  0  0  0  0  0
   37.2490   32.6130   39.8240 C   0  0  0  0  0  0  0  0  0  0  0  0
   37.7130   31.4160   40.3510 C   0  0  0  0  0  0  0  0  0  0  0  0
   38.9390   31.4300   40.9680 N   0  0  0  0  0  0  0  0  0  0  0  0
   39.6850   32.5450   41.0730 C   0  0  0  0  0  0  0  0  0  0  0  0
   39.2400   33.7060   40.5640 N   0  0  0  0  0  0  0  0  0  0  0  0
   37.5520   34.6090   39.4900 H   0  0  0  0  0  0  0  0  0  0  0  0
   36.2970   32.5300   39.3620 H   0  0  0  0  0  0  0  0  0  0  0  0
   40.6480   32.5340   41.5650 H   0  0  0  0  0  0  0  0  0  0  0  0
   36.8880   29.8350   42.7330 O   0  0  0  0  0  0  0  0  0  0  0  0
   36.0740   30.3680   42.5000 H   0  0  0  0  0  0  0  0  0  0  0  0
   37.2510   27.3750   40.2610 O   0  0  0  0  0  0  0  0  0  0  0  0
   37.7200   26.1670   40.7020 C   0  0  2  0  0  3  0  0  0  0  0  0
   37.0520   25.0960   39.8310 C   0  0  0  0  0  3  0  0  0  0  0  0
   37.8530   24.6400   39.1890 H   0  0  0  0  0  0  0  0  0  0  0  0
   36.4630   24.1110   40.8120 C   0  0  0  0  0  3  0  0  0  0  0  0
   36.8480   23.0830   40.6010 H   0  0  0  0  0  0  0  0  0  0  0  0
   36.8820   24.4690   42.0700 O   0  0  0  0  0  0  0  0  0  0  0  0
   37.1770   25.8350   42.0630 C   0  0  0  0  0  3  0  0  0  0  0  0
   37.9460   25.9640   42.8670 H   0  0  0  0  0  0  0  0  0  0  0  0
  1  6  1  1  0  0  0
  1 20  1  0  0  0  0
  2  7  1  6  0  0  0
  2  3  1  0  0  0  0
  2  1  1  0  0  0  0
  3  4  1  0  0  0  0
  4  5  1  0  0  0  0
  4  8  1  0  0  0  0
  5  1  1  0  0  0  0
  5 10  1  1  0  0  0
  9  4  1  0  0  0  0
 11 16  1  0  0  0  0
 12 11  2  0  0  0  0
 12 13  1  0  0  0  0
 13  2  1  0  0  0  0
 13 14  2  0  0  0  0
 14 15  1  0  0  0  0
 15 19  1  0  0  0  0
 16 15  2  0  0  0  0
 17 11  1  0  0  0  0
 18 12  1  0  0  0  0
 21 20  1  0  0  0  0
 22  5  1  0  0  0  0
 23 22  1  6  0  0  0
 23 29  1  0  0  0  0
 24 23  1  0  0  0  0
 24 26  1  0  0  0  0
 25 24  1  0  0  0  0
 26 28  1  0  0  0  0
 27 26  1  0  0  0  0
 29 28  1  0  0  0  0
 29 30  1  0  0  0  0
M  END
>  <minimizedAffinity>
-4.79375696

$$$$

 OpenBabel03242516323D

 30 32  0  0  1  0  0  0  0  0999 V2000
   38.1540   29.0390   42.4380 C   0  0  2  0  0  0  0  0  0  0  0  0
   37.6500   29.2430   41.0000 C   0  0  1  0  0  0  0  0  0  0  0  0
   36.3760   28.7310   41.1520 O   0  0  0  0  0  0  0  0  0  0  0  0
   36.5880   27.4760   41.7310 C   0  0  0  0  0  0  0  0  0  0  0  0
   37.8980   27.5220   42.4760 C   0  0  1  0  0  0  0  0  0  0  0  0
   39.1980   29.3030   42.5470 H   0  0  0  0  0  0  0  0  0  0  0  0
   38.3360   28.6420   40.3850 H   0  0  0  0  0  0  0  0  0  0  0  0
   35.7450   27.1610   42.3800 H   0  0  0  0  0  0  0  0  0  0  0  0
   36.6720   26.7550   40.9030 H   0  0  0  0  0  0  0  0  0  0  0  0
   37.8460   27.1620   43.5170 H   0  0  0  0  0  0  0  0  0  0  0  0
   37.1530   32.6620   39.4230 C   0  0  0  0  0  0  0  0  0  0  0  0
   36.9300   31.3050   39.6400 C   0  0  0  0  0  0  0  0  0  0  0  0
   37.7010   30.6410   40.5840 C   0  0  0  0  0  0  0  0  0  0  0  0
   38.6490   31.3740   41.2540 N   0  0  0  0  0  0  0  0  0  0  0  0
   38.8460   32.6860   41.0270 C   0  0  0  0  0  0  0  0  0  0  0  0
   38.1020   33.3320   40.1140 N   0  0  0  0  0  0  0  0  0  0  0  0
   36.4810   33.0440   38.6620 H   0  0  0  0  0  0  0  0  0  0  0  0
   36.2190   30.6800   39.1610 H   0  0  0  0  0  0  0  0  0  0  0  0
   39.5980   33.2450   41.5670 H   0  0  0  0  0  0  0  0  0  0  0  0
   37.2910   29.5900   43.3380 O   0  0  0  0  0  0  0  0  0  0  0  0
   36.3670   29.6400   42.9550 H   0  0  0  0  0  0  0  0  0  0  0  0
   38.9280   26.9370   41.7330 O   0  0  0  0  0  0  0  0  0  0  0  0
   39.4620   25.8470   42.3650 C   0  0  2  0  0  3  0  0  0  0  0  0
   40.0760   26.3600   43.6740 C   0  0  0  0  0  3  0  0  0  0  0  0
   39.4540   25.9530   44.5170 H   0  0  0  0  0  0  0  0  0  0  0  0
   41.4840   25.8170   43.6800 C   0  0  0  0  0  3  0  0  0  0  0  0
   41.6650   25.2270   44.6110 H   0  0  0  0  0  0  0  0  0  0  0  0
   41.6120   24.9660   42.6090 O   0  0  0  0  0  0  0  0  0  0  0  0
   40.6740   25.3340   41.6410 C   0  0  0  0  0  3  0  0  0  0  0  0
   40.4620   24.3900   41.0770 H   0  0  0  0  0  0  0  0  0  0  0  0
  1  5  1  0  0  0  0
  1  6  1  1  0  0  0
  1 20  1  0  0  0  0
  2  7  1  6  0  0  0
  2  3  1  0  0  0  0
  2  1  1  0  0  0  0
  3  4  1  0  0  0  0
  4  8  1  0  0  0  0
  4  5  1  0  0  0  0
  5 10  1  1  0  0  0
  9  4  1  0  0  0  0
 11 12  2  0  0  0  0
 11 16  1  0  0  0  0
 12 13  1  0  0  0  0
 13  2  1  0  0  0  0
 13 14  2  0  0  0  0
 15 14  1  0  0  0  0
 15 19  1  0  0  0  0
 16 15  2  0  0  0  0
 17 11  1  0  0  0  0
 18 12  1  0  0  0  0
 21 20  1  0  0  0  0
 22  5  1  0  0  0  0
 23 22  1  6  0  0  0
 23 24  1  0  0  0  0
 24 26  1  0  0  0  0
 24 25  1  0  0  0  0
 26 27  1  0  0  0  0
 28 26  1  0  0  0  0
 29 23  1  0  0  0  0
 29 28  1  0  0  0  0
 30 29  1  0  0  0  0
M  END
>  <minimizedAffinity>
-4.67308712

$$$$

 OpenBabel03242516323D

 30 32  0  0  1  0  0  0  0  0999 V2000
   37.7050   29.2300   41.6680 C   0  0  2  0  0  0  0  0  0  0  0  0
   39.0050   28.4270   41.8270 C   0  0  1  0  0  0  0  0  0  0  0  0
   39.5410   29.1090   42.9030 O   0  0  0  0  0  0  0  0  0  0  0  0
   39.4980   30.4490   42.5010 C   0  0  0  0  0  0  0  0  0  0  0  0
   38.3900   30.5960   41.4900 C   0  0  1  0  0  0  0  0  0  0  0  0
   37.1350   28.9170   40.8020 H   0  0  0  0  0  0  0  0  0  0  0  0
   39.5270   28.5620   40.8680 H   0  0  0  0  0  0  0  0  0  0  0  0
   39.3820   31.1440   43.3580 H   0  0  0  0  0  0  0  0  0  0  0  0
   40.4610   30.6640   42.0120 H   0  0  0  0  0  0  0  0  0  0  0  0
   37.6830   31.4170   41.7010 H   0  0  0  0  0  0  0  0  0  0  0  0
   39.1240   24.7540   42.7860 C   0  0  0  0  0  0  0  0  0  0  0  0
   39.5880   26.0590   42.6490 C   0  0  0  0  0  0  0  0  0  0  0  0
   38.7600   27.0080   42.0660 C   0  0  0  0  0  0  0  0  0  0  0  0
   37.5160   26.5940   41.6560 N   0  0  0  0  0  0  0  0  0  0  0  0
   37.0900   25.3260   41.7990 C   0  0  0  0  0  0  0  0  0  0  0  0
   37.8890   24.4050   42.3620 N   0  0  0  0  0  0  0  0  0  0  0  0
   39.8760   24.1260   43.2550 H   0  0  0  0  0  0  0  0  0  0  0  0
   40.5320   26.4460   42.9420 H   0  0  0  0  0  0  0  0  0  0  0  0
   36.1060   25.0220   41.4700 H   0  0  0  0  0  0  0  0  0  0  0  0
   37.0280   29.2970   42.8500 O   0  0  0  0  0  0  0  0  0  0  0  0
   37.6560   29.1910   43.6220 H   0  0  0  0  0  0  0  0  0  0  0  0
   38.8900   30.6120   40.1840 O   0  0  0  0  0  0  0  0  0  0  0  0
   38.5160   31.7390   39.5040 C   0  0  2  0  0  3  0  0  0  0  0  0
   39.7150   32.6950   39.5530 C   0  0  0  0  0  3  0  0  0  0  0  0
   40.1240   32.7720   38.5100 H   0  0  0  0  0  0  0  0  0  0  0  0
   39.1470   34.0020   40.0510 C   0  0  0  0  0  3  0  0  0  0  0  0
   39.3800   34.8220   39.3280 H   0  0  0  0  0  0  0  0  0  0  0  0
   37.7810   33.8710   40.1150 O   0  0  0  0  0  0  0  0  0  0  0  0
   37.4760   32.5150   40.2610 C   0  0  0  0  0  3  0  0  0  0  0  0
   36.4560   32.4030   39.8140 H   0  0  0  0  0  0  0  0  0  0  0  0
  1  6  1  6  0  0  0
  1  2  1  0  0  0  0
  1 20  1  0  0  0  0
  2  7  1  6  0  0  0
  2 13  1  0  0  0  0
  2  3  1  0  0  0  0
  4  3  1  0  0  0  0
  4  8  1  0  0  0  0
  5  1  1  0  0  0  0
  5 10  1  1  0  0  0
  5  4  1  0  0  0  0
  9  4  1  0  0  0  0
 11 17  1  0  0  0  0
 12 11  1  0  0  0  0
 12 18  1  0  0  0  0
 13 12  2  0  0  0  0
 14 15  2  0  0  0  0
 14 13  1  0  0  0  0
 15 16  1  0  0  0  0
 16 11  2  0  0  0  0
 19 15  1  0  0  0  0
 20 21  1  0  0  0  0
 22  5  1  0  0  0  0
 23 24  1  0  0  0  0
 23 22  1  1  0  0  0
 23 29  1  0  0  0  0
 24 26  1  0  0  0  0
 25 24  1  0  0  0  0
 26 28  1  0  0  0  0
 27 26  1  0  0  0  0
 28 29  1  0  0  0  0
 30 29  1  0  0  0  0
M  END
>  <minimizedAffinity>
-4.53151083

$$$$

 OpenBabel03242516323D

 30 32  0  0  1  0  0  0  0  0999 V2000
   38.4360   28.9060   42.4750 C   0  0  2  0  0  0  0  0  0  0  0  0
   37.6080   29.3240   41.2490 C   0  0  1  0  0  0  0  0  0  0  0  0
   36.3470   29.0630   41.7510 O   0  0  0  0  0  0  0  0  0  0  0  0
   36.4400   27.7470   42.2150 C   0  0  0  0  0  0  0  0  0  0  0  0
   37.8830   27.4720   42.5510 C   0  0  1  0  0  0  0  0  0  0  0  0
   39.5000   28.9490   42.2840 H   0  0  0  0  0  0  0  0  0  0  0  0
   37.9520   28.6530   40.4490 H   0  0  0  0  0  0  0  0  0  0  0  0
   35.7630   27.5520   43.0720 H   0  0  0  0  0  0  0  0  0  0  0  0
   36.1350   27.0950   41.3820 H   0  0  0  0  0  0  0  0  0  0  0  0
   38.0470   27.0440   43.5540 H   0  0  0  0  0  0  0  0  0  0  0  0
   37.4470   32.8810   39.9280 C   0  0  0  0  0  0  0  0  0  0  0  0
   37.0150   31.5780   40.1590 C   0  0  0  0  0  0  0  0  0  0  0  0
   37.8380   30.7150   40.8680 C   0  0  0  0  0  0  0  0  0  0  0  0
   39.0440   31.2060   41.3040 N   0  0  0  0  0  0  0  0  0  0  0  0
   39.4390   32.4700   41.0680 C   0  0  0  0  0  0  0  0  0  0  0  0
   38.6460   33.3090   40.3810 N   0  0  0  0  0  0  0  0  0  0  0  0
   36.7050   33.4370   39.3640 H   0  0  0  0  0  0  0  0  0  0  0  0
   36.1000   31.1340   39.8530 H   0  0  0  0  0  0  0  0  0  0  0  0
   40.3930   32.8370   41.4210 H   0  0  0  0  0  0  0  0  0  0  0  0
   37.9930   29.5410   43.5980 O   0  0  0  0  0  0  0  0  0  0  0  0
   37.0330   29.8030   43.5000 H   0  0  0  0  0  0  0  0  0  0  0  0
   38.5180   26.7590   41.5290 O   0  0  0  0  0  0  0  0  0  0  0  0
   37.7690   25.6950   41.1030 C   0  0  2  0  0  3  0  0  0  0  0  0
   38.2380   24.4800   41.9130 C   0  0  0  0  0  3  0  0  0  0  0  0
   37.3970   24.1910   42.6000 H   0  0  0  0  0  0  0  0  0  0  0  0
   38.5340   23.4180   40.8810 C   0  0  0  0  0  3  0  0  0  0  0  0
   37.9460   22.4940   41.1020 H   0  0  0  0  0  0  0  0  0  0  0  0
   38.1270   23.8940   39.6580 O   0  0  0  0  0  0  0  0  0  0  0  0
   38.1400   25.2910   39.7040 C   0  0  0  0  0  3  0  0  0  0  0  0
   37.3700   25.6080   38.9550 H   0  0  0  0  0  0  0  0  0  0  0  0
  1  6  1  6  0  0  0
  1  5  1  0  0  0  0
  1 20  1  0  0  0  0
  2  7  1  6  0  0  0
  2  3  1  0  0  0  0
  2  1  1  0  0  0  0
  3  4  1  0  0  0  0
  4  5  1  0  0  0  0
  4  8  1  0  0  0  0
  5 10  1  1  0  0  0
  9  4  1  0  0  0  0
 11 12  2  0  0  0  0
 11 16  1  0  0  0  0
 12 13  1  0  0  0  0
 13  2  1  0  0  0  0
 13 14  2  0  0  0  0
 15 14  1  0  0  0  0
 15 19  1  0  0  0  0
 16 15  2  0  0  0  0
 17 11  1  0  0  0  0
 18 12  1  0  0  0  0
 21 20  1  0  0  0  0
 22  5  1  0  0  0  0
 23 22  1  1  0  0  0
 23 24  1  0  0  0  0
 24 25  1  0  0  0  0
 26 27  1  0  0  0  0
 26 24  1  0  0  0  0
 28 29  1  0  0  0  0
 28 26  1  0  0  0  0
 29 23  1  0  0  0  0
 30 29  1  0  0  0  0
M  END
>  <minimizedAffinity>
-4.48428154

$$$$

 OpenBabel03242516323D

 30 32  0  0  1  0  0  0  0  0999 V2000
   37.4310   28.7610   42.2010 C   0  0  2  0  0  0  0  0  0  0  0  0
   38.9060   28.3970   41.9740 C   0  0  1  0  0  0  0  0  0  0  0  0
   39.4870   29.4320   42.6820 O   0  0  0  0  0  0  0  0  0  0  0  0
   38.8780   30.5770   42.1570 C   0  0  0  0  0  0  0  0  0  0  0  0
   37.5310   30.1790   41.6120 C   0  0  1  0  0  0  0  0  0  0  0  0
   36.7600   28.1130   41.6520 H   0  0  0  0  0  0  0  0  0  0  0  0
   39.0300   28.4370   40.8820 H   0  0  0  0  0  0  0  0  0  0  0  0
   38.8070   31.3970   42.9010 H   0  0  0  0  0  0  0  0  0  0  0  0
   39.5140   30.9210   41.3260 H   0  0  0  0  0  0  0  0  0  0  0  0
   36.6920   30.8060   41.9600 H   0  0  0  0  0  0  0  0  0  0  0  0
   40.3900   25.3140   43.6210 C   0  0  0  0  0  0  0  0  0  0  0  0
   40.2930   26.6560   43.2640 C   0  0  0  0  0  0  0  0  0  0  0  0
   39.2340   27.0620   42.4650 C   0  0  0  0  0  0  0  0  0  0  0  0
   38.3350   26.1020   42.0710 N   0  0  0  0  0  0  0  0  0  0  0  0
   38.4510   24.8100   42.4290 C   0  0  0  0  0  0  0  0  0  0  0  0
   39.4750   24.4130   43.2020 N   0  0  0  0  0  0  0  0  0  0  0  0
   41.2640   25.1450   44.2430 H   0  0  0  0  0  0  0  0  0  0  0  0
   40.9480   27.4480   43.5310 H   0  0  0  0  0  0  0  0  0  0  0  0
   37.7310   24.0700   42.1090 H   0  0  0  0  0  0  0  0  0  0  0  0
   37.1690   28.9220   43.5290 O   0  0  0  0  0  0  0  0  0  0  0  0
   38.0020   29.1720   44.0240 H   0  0  0  0  0  0  0  0  0  0  0  0
   37.5690   30.0200   40.2230 O   0  0  0  0  0  0  0  0  0  0  0  0
   38.1690   31.0810   39.6000 C   0  0  2  0  0  3  0  0  0  0  0  0
   37.1120   31.6960   38.6730 C   0  0  0  0  0  3  0  0  0  0  0  0
   36.8430   32.7020   39.0940 H   0  0  0  0  0  0  0  0  0  0  0  0
   37.7880   31.7930   37.3270 C   0  0  0  0  0  3  0  0  0  0  0  0
   37.7550   32.8460   36.9560 H   0  0  0  0  0  0  0  0  0  0  0  0
   39.1070   31.4450   37.4920 O   0  0  0  0  0  0  0  0  0  0  0  0
   39.2070   30.6220   38.6160 C   0  0  0  0  0  3  0  0  0  0  0  0
   40.2480   30.7820   38.9950 H   0  0  0  0  0  0  0  0  0  0  0  0
  1  6  1  6  0  0  0
  1 20  1  0  0  0  0
  2  7  1  6  0  0  0
  2  1  1  0  0  0  0
  2 13  1  0  0  0  0
  2  3  1  0  0  0  0
  4  3  1  0  0  0  0
  4  8  1  0  0  0  0
  5 10  1  1  0  0  0
  5  4  1  0  0  0  0
  5  1  1  0  0  0  0
  9  4  1  0  0  0  0
 11 17  1  0  0  0  0
 12 18  1  0  0  0  0
 12 11  1  0  0  0  0
 13 12  2  0  0  0  0
 14 15  2  0  0  0  0
 14 13  1  0  0  0  0
 15 16  1  0  0  0  0
 16 11  2  0  0  0  0
 19 15  1  0  0  0  0
 20 21  1  0  0  0  0
 22  5  1  0  0  0  0
 23 22  1  6  0  0  0
 24 25  1  0  0  0  0
 24 23  1  0  0  0  0
 26 28  1  0  0  0  0
 26 24  1  0  0  0  0
 27 26  1  0  0  0  0
 28 29  1  0  0  0  0
 29 30  1  0  0  0  0
 29 23  1  0  0  0  0
M  END
>  <minimizedAffinity>
-4.48389244

$$$$

 OpenBabel03242516323D

 30 32  0  0  1  0  0  0  0  0999 V2000
   37.1610   29.0180   41.8420 C   0  0  2  0  0  0  0  0  0  0  0  0
   38.2180   27.9510   41.5160 C   0  0  1  0  0  0  0  0  0  0  0  0
   38.9850   28.0620   42.6600 O   0  0  0  0  0  0  0  0  0  0  0  0
   39.2610   29.4310   42.7430 C   0  0  0  0  0  0  0  0  0  0  0  0
   38.1610   30.1720   42.0270 C   0  0  1  0  0  0  0  0  0  0  0  0
   36.4700   29.1730   41.0230 H   0  0  0  0  0  0  0  0  0  0  0  0
   38.6880   28.3100   40.5890 H   0  0  0  0  0  0  0  0  0  0  0  0
   39.3890   29.7740   43.7900 H   0  0  0  0  0  0  0  0  0  0  0  0
   40.2110   29.5960   42.2100 H   0  0  0  0  0  0  0  0  0  0  0  0
   37.7060   30.9920   42.6090 H   0  0  0  0  0  0  0  0  0  0  0  0
   36.9250   24.3870   41.7420 C   0  0  0  0  0  0  0  0  0  0  0  0
   37.5540   25.5530   42.1700 C   0  0  0  0  0  0  0  0  0  0  0  0
   37.6320   26.6310   41.3010 C   0  0  0  0  0  0  0  0  0  0  0  0
   37.0750   26.4800   40.0550 N   0  0  0  0  0  0  0  0  0  0  0  0
   36.4730   25.3430   39.6630 C   0  0  0  0  0  0  0  0  0  0  0  0
   36.3960   24.2960   40.5020 N   0  0  0  0  0  0  0  0  0  0  0  0
   36.9410   23.6330   42.5220 H   0  0  0  0  0  0  0  0  0  0  0  0
   38.0030   25.7380   43.1140 H   0  0  0  0  0  0  0  0  0  0  0  0
   36.0400   25.2450   38.6770 H   0  0  0  0  0  0  0  0  0  0  0  0
   36.6090   28.7950   43.0690 O   0  0  0  0  0  0  0  0  0  0  0  0
   37.2410   28.2820   43.6510 H   0  0  0  0  0  0  0  0  0  0  0  0
   38.5550   30.5530   40.7410 O   0  0  0  0  0  0  0  0  0  0  0  0
   39.5650   31.4780   40.7650 C   0  0  2  0  0  3  0  0  0  0  0  0
   38.8970   32.8470   40.9510 C   0  0  0  0  0  3  0  0  0  0  0  0
   39.1720   33.2160   41.9750 H   0  0  0  0  0  0  0  0  0  0  0  0
   39.4700   33.7080   39.8510 C   0  0  0  0  0  3  0  0  0  0  0  0
   39.9350   34.6260   40.2850 H   0  0  0  0  0  0  0  0  0  0  0  0
   40.4590   32.9890   39.2250 O   0  0  0  0  0  0  0  0  0  0  0  0
   40.2000   31.6290   39.4120 C   0  0  0  0  0  3  0  0  0  0  0  0
   41.2040   31.1380   39.3600 H   0  0  0  0  0  0  0  0  0  0  0  0
  1  6  1  6  0  0  0
  1  5  1  0  0  0  0
  1 20  1  0  0  0  0
  2  7  1  6  0  0  0
  2  1  1  0  0  0  0
  2  3  1  0  0  0  0
  3  4  1  0  0  0  0
  4  8  1  0  0  0  0
  5 10  1  1  0  0  0
  5  4  1  0  0  0  0
  9  4  1  0  0  0  0
 11 12  1  0  0  0  0
 11 17  1  0  0  0  0
 12 18  1  0  0  0  0
 13  2  1  0  0  0  0
 13 12  2  0  0  0  0
 14 13  1  0  0  0  0
 15 14  2  0  0  0  0
 15 16  1  0  0  0  0
 16 11  2  0  0  0  0
 19 15  1  0  0  0  0
 20 21  1  0  0  0  0
 22  5  1  0  0  0  0
 23 22  1  6  0  0  0
 23 24  1  0  0  0  0
 24 25  1  0  0  0  0
 26 27  1  0  0  0  0
 26 24  1  0  0  0  0
 28 29  1  0  0  0  0
 28 26  1  0  0  0  0
 29 23  1  0  0  0  0
 30 29  1  0  0  0  0
M  END
>  <minimizedAffinity>
-4.35966253

$$$$
