
 OpenBabel03252507083D

 23 24  0  0  1  0  0  0  0  0999 V2000
   44.6470   35.9260   44.6070 C   0  0  0  0  0  0  0  0  0  0  0  0
   45.2860   35.9790   43.3430 C   0  0  0  0  0  0  0  0  0  0  0  0
   46.1110   34.9230   42.9770 C   0  0  0  0  0  0  0  0  0  0  0  0
   46.2610   33.8890   43.8580 N   0  0  0  0  0  0  0  0  0  0  0  0
   45.6460   33.8620   45.0470 C   0  0  0  0  0  0  0  0  0  0  0  0
   44.8360   34.8830   45.4260 N   0  0  0  0  0  0  0  0  0  0  0  0
   44.0270   36.8040   44.7860 H   0  0  0  0  0  0  0  0  0  0  0  0
   45.1560   36.8070   42.6570 H   0  0  0  0  0  0  0  0  0  0  0  0
   45.8080   32.7510   45.9960 C   0  0  1  0  0  3  0  0  0  0  0  0
   46.1280   31.4320   45.2800 C   0  0  0  0  0  3  0  0  0  0  0  0
   45.1810   31.0360   44.8560 H   0  0  0  0  0  0  0  0  0  0  0  0
   46.5870   30.6600   46.5010 C   0  0  0  0  0  3  0  0  0  0  0  0
   47.1700   29.7600   46.2630 H   0  0  0  0  0  0  0  0  0  0  0  0
   47.2140   31.5620   47.3410 O   0  0  0  0  0  0  0  0  0  0  0  0
   46.9980   32.8390   46.8900 C   0  0  0  0  0  3  0  0  0  0  0  0
   47.9130   33.1290   46.2990 H   0  0  0  0  0  0  0  0  0  0  0  0
   46.7260   34.9870   41.7460 O   0  0  0  0  0  0  0  0  0  0  0  0
   48.6390   33.3390   40.9600 O   0  0  0  0  0  0  0  0  0  0  0  0
   48.4160   34.7000   41.6280 P   0  0  0  0  0  0  0  0  0  0  0  0
   49.1350   35.9400   40.7880 O   0  0  0  0  0  0  0  0  0  0  0  0
   49.9620   36.2350   41.2710 H   0  0  0  0  0  0  0  0  0  0  0  0
   49.0160   34.5810   43.2190 O   0  0  0  0  0  0  0  0  0  0  0  0
   48.8970   33.6530   43.5020 H   0  0  0  0  0  0  0  0  0  0  0  0
  1  7  1  0  0  0  0
  1  6  1  0  0  0  0
  2  1  2  0  0  0  0
  3  2  1  0  0  0  0
  3  4  2  0  0  0  0
  4  5  1  0  0  0  0
  5  6  2  0  0  0  0
  8  2  1  0  0  0  0
  9  5  1  6  0  0  0
  9 15  1  0  0  0  0
 10  9  1  0  0  0  0
 10 12  1  0  0  0  0
 11 10  1  0  0  0  0
 12 14  1  0  0  0  0
 13 12  1  0  0  0  0
 15 14  1  0  0  0  0
 16 15  1  0  0  0  0
 17  3  1  0  0  0  0
 18 19  2  0  0  0  0
 19 17  1  0  0  0  0
 19 22  1  0  0  0  0
 20 21  1  0  0  0  0
 20 19  1  0  0  0  0
 22 23  1  0  0  0  0
M  END
>  <minimizedAffinity>
-5.09102917

>  <minimizedRMSD>
0.179588601

$$$$
