
 OpenBabel03252505593D

 35 37  0  0  1  0  0  0  0  0999 V2000
   39.5390   31.8190   41.6130 C   0  0  0  0  0  0  0  0  0  0  0  0
   38.4860   31.9190   40.6780 C   0  0  0  0  0  0  0  0  0  0  0  0
   37.5220   30.9200   40.7060 C   0  0  0  0  0  0  0  0  0  0  0  0
   37.6480   29.9260   41.6130 N   0  0  0  0  0  0  0  0  0  0  0  0
   38.6580   29.8650   42.4820 C   0  0  0  0  0  0  0  0  0  0  0  0
   39.5990   30.8020   42.4870 N   0  0  0  0  0  0  0  0  0  0  0  0
   40.2950   32.5940   41.5990 H   0  0  0  0  0  0  0  0  0  0  0  0
   36.3590   30.8290   39.8460 C   0  0  2  0  0  3  0  0  0  0  0  0
   35.4510   29.7350   40.4380 C   0  0  0  0  0  3  0  0  0  0  0  0
   34.4850   30.1390   40.7960 H   0  0  0  0  0  0  0  0  0  0  0  0
   35.1980   28.7520   39.3400 C   0  0  0  0  0  3  0  0  0  0  0  0
   35.0620   27.7170   39.6910 H   0  0  0  0  0  0  0  0  0  0  0  0
   36.4190   28.7980   38.6660 O   0  0  0  0  0  0  0  0  0  0  0  0
   36.6820   30.1590   38.5170 C   0  0  0  0  0  3  0  0  0  0  0  0
   35.9830   30.5640   37.7600 H   0  0  0  0  0  0  0  0  0  0  0  0
   38.4530   33.0550   39.7320 C   0  0  0  0  0  0  0  0  0  0  0  0
   39.4090   33.9410   40.2320 F   0  0  0  0  0  0  0  0  0  0  0  0
   37.2120   33.6720   39.8900 F   0  0  0  0  0  0  0  0  0  0  0  0
   38.7470   32.6680   38.4970 F   0  0  0  0  0  0  0  0  0  0  0  0
   38.7830   28.8390   43.4150 O   0  0  0  0  0  0  0  0  0  0  0  0
   37.7980   27.8280   43.5030 C   0  0  0  0  0  0  0  0  0  0  0  0
   37.4960   27.7620   44.5770 H   0  0  0  0  0  0  0  0  0  0  0  0
   36.8820   28.0540   42.9310 H   0  0  0  0  0  0  0  0  0  0  0  0
   38.4410   26.5530   43.1410 C   0  0  0  0  0  0  0  0  0  0  0  0
   39.6610   26.0230   43.5410 C   0  0  0  0  0  0  0  0  0  0  0  0
   40.0200   24.8080   43.0470 C   0  0  0  0  0  0  0  0  0  0  0  0
   39.2490   24.1220   42.2060 N   0  0  0  0  0  0  0  0  0  0  0  0
   38.0730   24.6390   41.8250 C   0  0  0  0  0  0  0  0  0  0  0  0
   37.6560   25.8580   42.2860 N   0  0  0  0  0  0  0  0  0  0  0  0
   40.1820   26.6640   44.2110 H   0  0  0  0  0  0  0  0  0  0  0  0
   40.9860   24.4520   43.4010 H   0  0  0  0  0  0  0  0  0  0  0  0
   37.2880   23.8030   40.8900 C   0  0  0  0  0  0  0  0  0  0  0  0
   35.9380   23.8590   41.1720 F   0  0  0  0  0  0  0  0  0  0  0  0
   37.6990   22.4710   40.9750 F   0  0  0  0  0  0  0  0  0  0  0  0
   37.4540   24.1910   39.5760 F   0  0  0  0  0  0  0  0  0  0  0  0
  1  6  1  0  0  0  0
  2  3  1  0  0  0  0
  2  1  2  0  0  0  0
  3  4  2  0  0  0  0
  4  5  1  0  0  0  0
  5  6  2  0  0  0  0
  5 20  1  0  0  0  0
  7  1  1  0  0  0  0
  8  9  1  0  0  0  0
  8  3  1  1  0  0  0
  9 10  1  0  0  0  0
 11 12  1  0  0  0  0
 11  9  1  0  0  0  0
 13 11  1  0  0  0  0
 14 13  1  0  0  0  0
 14  8  1  0  0  0  0
 15 14  1  0  0  0  0
 16 18  1  0  0  0  0
 16 17  1  0  0  0  0
 16  2  1  0  0  0  0
 19 16  1  0  0  0  0
 20 21  1  0  0  0  0
 21 22  1  0  0  0  0
 23 21  1  0  0  0  0
 24 21  1  0  0  0  0
 24 25  1  0  0  0  0
 25 30  1  0  0  0  0
 26 31  1  0  0  0  0
 26 25  2  0  0  0  0
 27 26  1  0  0  0  0
 28 27  2  0  0  0  0
 28 29  1  0  0  0  0
 29 24  2  0  0  0  0
 32 34  1  0  0  0  0
 32 33  1  0  0  0  0
 32 28  1  0  0  0  0
 35 32  1  0  0  0  0
M  END
>  <minimizedAffinity>
-5.98286629

$$$$

 OpenBabel03252505593D

 35 37  0  0  1  0  0  0  0  0999 V2000
   36.6000   31.3670   40.5630 C   0  0  0  0  0  0  0  0  0  0  0  0
   37.8920   31.9330   40.5970 C   0  0  0  0  0  0  0  0  0  0  0  0
   38.8570   31.2540   41.3300 C   0  0  0  0  0  0  0  0  0  0  0  0
   38.5060   30.1110   41.9580 N   0  0  0  0  0  0  0  0  0  0  0  0
   37.2730   29.6060   41.9020 C   0  0  0  0  0  0  0  0  0  0  0  0
   36.3230   30.2260   41.2110 N   0  0  0  0  0  0  0  0  0  0  0  0
   35.8420   31.8880   39.9930 H   0  0  0  0  0  0  0  0  0  0  0  0
   40.2430   31.6500   41.4940 C   0  0  2  0  0  3  0  0  0  0  0  0
   41.0540   30.8820   40.4340 C   0  0  0  0  0  3  0  0  0  0  0  0
   41.5120   31.5570   39.6860 H   0  0  0  0  0  0  0  0  0  0  0  0
   42.1340   30.1550   41.1700 C   0  0  0  0  0  3  0  0  0  0  0  0
   42.4260   29.2010   40.7040 H   0  0  0  0  0  0  0  0  0  0  0  0
   41.4710   29.8440   42.3590 O   0  0  0  0  0  0  0  0  0  0  0  0
   40.8670   31.0400   42.7430 C   0  0  0  0  0  3  0  0  0  0  0  0
   41.6600   31.7300   43.0910 H   0  0  0  0  0  0  0  0  0  0  0  0
   38.1600   33.1920   39.8690 C   0  0  0  0  0  0  0  0  0  0  0  0
   38.5890   34.0740   40.8610 F   0  0  0  0  0  0  0  0  0  0  0  0
   36.9260   33.6640   39.4180 F   0  0  0  0  0  0  0  0  0  0  0  0
   39.0860   33.0250   38.9320 F   0  0  0  0  0  0  0  0  0  0  0  0
   36.9160   28.4270   42.5510 O   0  0  0  0  0  0  0  0  0  0  0  0
   37.6430   27.9820   43.6800 C   0  0  0  0  0  0  0  0  0  0  0  0
   38.3970   28.7730   43.9120 H   0  0  0  0  0  0  0  0  0  0  0  0
   37.0230   27.8620   44.5840 H   0  0  0  0  0  0  0  0  0  0  0  0
   38.3770   26.7690   43.2820 C   0  0  0  0  0  0  0  0  0  0  0  0
   39.6420   26.3290   43.6510 C   0  0  0  0  0  0  0  0  0  0  0  0
   40.0860   25.1550   43.1270 C   0  0  0  0  0  0  0  0  0  0  0  0
   39.3560   24.4260   42.2860 N   0  0  0  0  0  0  0  0  0  0  0  0
   38.1370   24.8560   41.9350 C   0  0  0  0  0  0  0  0  0  0  0  0
   37.6330   26.0300   42.4270 N   0  0  0  0  0  0  0  0  0  0  0  0
   40.1230   26.9970   44.3250 H   0  0  0  0  0  0  0  0  0  0  0  0
   41.0830   24.8700   43.4590 H   0  0  0  0  0  0  0  0  0  0  0  0
   37.4020   23.9790   40.9960 C   0  0  0  0  0  0  0  0  0  0  0  0
   36.0420   24.0170   41.2260 F   0  0  0  0  0  0  0  0  0  0  0  0
   37.8340   22.6580   41.1360 F   0  0  0  0  0  0  0  0  0  0  0  0
   37.6110   24.3320   39.6780 F   0  0  0  0  0  0  0  0  0  0  0  0
  1  2  2  0  0  0  0
  1  6  1  0  0  0  0
  2  3  1  0  0  0  0
  3  4  2  0  0  0  0
  5  4  1  0  0  0  0
  5 20  1  0  0  0  0
  6  5  2  0  0  0  0
  7  1  1  0  0  0  0
  8  3  1  6  0  0  0
  8 14  1  0  0  0  0
  9 11  1  0  0  0  0
  9  8  1  0  0  0  0
 10  9  1  0  0  0  0
 11 13  1  0  0  0  0
 12 11  1  0  0  0  0
 13 14  1  0  0  0  0
 14 15  1  0  0  0  0
 16  2  1  0  0  0  0
 16 17  1  0  0  0  0
 18 16  1  0  0  0  0
 19 16  1  0  0  0  0
 20 21  1  0  0  0  0
 21 22  1  0  0  0  0
 21 23  1  0  0  0  0
 24 25  1  0  0  0  0
 24 21  1  0  0  0  0
 25 30  1  0  0  0  0
 26 31  1  0  0  0  0
 26 25  2  0  0  0  0
 27 26  1  0  0  0  0
 28 27  2  0  0  0  0
 28 29  1  0  0  0  0
 29 24  2  0  0  0  0
 32 34  1  0  0  0  0
 32 33  1  0  0  0  0
 32 28  1  0  0  0  0
 35 32  1  0  0  0  0
M  END
>  <minimizedAffinity>
-5.94179583

$$$$

 OpenBabel03252505593D

 35 37  0  0  1  0  0  0  0  0999 V2000
   39.0230   26.5670   43.1560 C   0  0  0  0  0  0  0  0  0  0  0  0
   38.1030   26.1770   42.1600 C   0  0  0  0  0  0  0  0  0  0  0  0
   37.6030   27.1790   41.3380 C   0  0  0  0  0  0  0  0  0  0  0  0
   38.0200   28.4480   41.5400 N   0  0  0  0  0  0  0  0  0  0  0  0
   38.8930   28.7780   42.4930 C   0  0  0  0  0  0  0  0  0  0  0  0
   39.3930   27.8480   43.2980 N   0  0  0  0  0  0  0  0  0  0  0  0
   39.4180   25.7930   43.8010 H   0  0  0  0  0  0  0  0  0  0  0  0
   36.6570   27.0040   40.2530 C   0  0  2  0  0  3  0  0  0  0  0  0
   37.4790   26.9360   38.9520 C   0  0  0  0  0  3  0  0  0  0  0  0
   37.4040   25.9480   38.4590 H   0  0  0  0  0  0  0  0  0  0  0  0
   36.9230   27.9850   38.0430 C   0  0  0  0  0  3  0  0  0  0  0  0
   37.6690   28.4300   37.3670 H   0  0  0  0  0  0  0  0  0  0  0  0
   36.5720   28.9690   38.9690 O   0  0  0  0  0  0  0  0  0  0  0  0
   35.8780   28.2800   39.9620 C   0  0  0  0  0  3  0  0  0  0  0  0
   34.8930   27.9840   39.5520 H   0  0  0  0  0  0  0  0  0  0  0  0
   37.7190   24.7550   42.0340 C   0  0  0  0  0  0  0  0  0  0  0  0
   38.5500   24.0970   42.9420 F   0  0  0  0  0  0  0  0  0  0  0  0
   38.1120   24.3450   40.7590 F   0  0  0  0  0  0  0  0  0  0  0  0
   36.4370   24.5690   42.3250 F   0  0  0  0  0  0  0  0  0  0  0  0
   39.3200   30.0880   42.6960 O   0  0  0  0  0  0  0  0  0  0  0  0
   40.5920   30.5050   42.2400 C   0  0  0  0  0  0  0  0  0  0  0  0
   41.1600   30.8520   43.1370 H   0  0  0  0  0  0  0  0  0  0  0  0
   41.1850   29.6930   41.7850 H   0  0  0  0  0  0  0  0  0  0  0  0
   40.3860   31.6710   41.3630 C   0  0  0  0  0  0  0  0  0  0  0  0
   41.2640   32.6860   41.0070 C   0  0  0  0  0  0  0  0  0  0  0  0
   40.8100   33.6570   40.1700 C   0  0  0  0  0  0  0  0  0  0  0  0
   39.5690   33.6610   39.6880 N   0  0  0  0  0  0  0  0  0  0  0  0
   38.7280   32.6780   40.0350 C   0  0  0  0  0  0  0  0  0  0  0  0
   39.1240   31.6730   40.8750 N   0  0  0  0  0  0  0  0  0  0  0  0
   42.2220   32.5700   41.4560 H   0  0  0  0  0  0  0  0  0  0  0  0
   41.5490   34.4200   39.9330 H   0  0  0  0  0  0  0  0  0  0  0  0
   37.3720   32.7700   39.4490 C   0  0  0  0  0  0  0  0  0  0  0  0
   36.9100   34.0700   39.4430 F   0  0  0  0  0  0  0  0  0  0  0  0
   36.4770   31.9900   40.1840 F   0  0  0  0  0  0  0  0  0  0  0  0
   37.3310   32.3080   38.1490 F   0  0  0  0  0  0  0  0  0  0  0  0
  1  6  1  0  0  0  0
  1  7  1  0  0  0  0
  2  1  2  0  0  0  0
  3  4  2  0  0  0  0
  3  2  1  0  0  0  0
  4  5  1  0  0  0  0
  5 20  1  0  0  0  0
  5  6  2  0  0  0  0
  8  3  1  1  0  0  0
  9  8  1  0  0  0  0
 10  9  1  0  0  0  0
 11  9  1  0  0  0  0
 11 13  1  0  0  0  0
 12 11  1  0  0  0  0
 13 14  1  0  0  0  0
 14  8  1  0  0  0  0
 15 14  1  0  0  0  0
 16  2  1  0  0  0  0
 16 19  1  0  0  0  0
 16 17  1  0  0  0  0
 18 16  1  0  0  0  0
 21 20  1  0  0  0  0
 21 22  1  0  0  0  0
 23 21  1  0  0  0  0
 24 21  1  0  0  0  0
 25 24  1  0  0  0  0
 25 30  1  0  0  0  0
 26 25  2  0  0  0  0
 27 28  2  0  0  0  0
 27 26  1  0  0  0  0
 28 29  1  0  0  0  0
 29 24  2  0  0  0  0
 31 26  1  0  0  0  0
 32 28  1  0  0  0  0
 32 34  1  0  0  0  0
 33 32  1  0  0  0  0
 35 32  1  0  0  0  0
M  END
>  <minimizedAffinity>
-5.78332376

$$$$

 OpenBabel03252505593D

 35 37  0  0  1  0  0  0  0  0999 V2000
   36.4400   29.9510   40.0560 C   0  0  0  0  0  0  0  0  0  0  0  0
   37.4920   30.5210   39.3080 C   0  0  0  0  0  0  0  0  0  0  0  0
   38.7130   30.6700   39.9500 C   0  0  0  0  0  0  0  0  0  0  0  0
   38.8210   30.2670   41.2350 N   0  0  0  0  0  0  0  0  0  0  0  0
   37.8040   29.7310   41.9110 C   0  0  0  0  0  0  0  0  0  0  0  0
   36.6200   29.5720   41.3310 N   0  0  0  0  0  0  0  0  0  0  0  0
   35.4840   29.8300   39.5640 H   0  0  0  0  0  0  0  0  0  0  0  0
   39.9230   31.2220   39.3720 C   0  0  2  0  0  3  0  0  0  0  0  0
   41.0750   30.8770   40.3340 C   0  0  0  0  0  3  0  0  0  0  0  0
   41.8130   30.1910   39.8750 H   0  0  0  0  0  0  0  0  0  0  0  0
   41.7460   32.1690   40.6740 C   0  0  0  0  0  3  0  0  0  0  0  0
   42.1790   32.1930   41.6870 H   0  0  0  0  0  0  0  0  0  0  0  0
   40.6520   33.0350   40.6760 O   0  0  0  0  0  0  0  0  0  0  0  0
   39.9730   32.7400   39.4950 C   0  0  0  0  0  3  0  0  0  0  0  0
   40.5740   33.1240   38.6470 H   0  0  0  0  0  0  0  0  0  0  0  0
   37.2550   30.9250   37.9050 C   0  0  0  0  0  0  0  0  0  0  0  0
   35.9990   30.3970   37.6060 F   0  0  0  0  0  0  0  0  0  0  0  0
   38.1800   30.2290   37.1260 F   0  0  0  0  0  0  0  0  0  0  0  0
   37.2730   32.2460   37.7700 F   0  0  0  0  0  0  0  0  0  0  0  0
   37.9200   29.3160   43.2360 O   0  0  0  0  0  0  0  0  0  0  0  0
   37.2770   28.1370   43.6760 C   0  0  0  0  0  0  0  0  0  0  0  0
   37.2490   28.1800   44.7920 H   0  0  0  0  0  0  0  0  0  0  0  0
   36.2300   28.0530   43.3370 H   0  0  0  0  0  0  0  0  0  0  0  0
   38.1310   26.9990   43.2940 C   0  0  0  0  0  0  0  0  0  0  0  0
   39.4320   26.6930   43.6710 C   0  0  0  0  0  0  0  0  0  0  0  0
   39.9950   25.5650   43.1630 C   0  0  0  0  0  0  0  0  0  0  0  0
   39.3450   24.7570   42.3280 N   0  0  0  0  0  0  0  0  0  0  0  0
   38.0900   25.0580   41.9680 C   0  0  0  0  0  0  0  0  0  0  0  0
   37.4690   26.1790   42.4450 N   0  0  0  0  0  0  0  0  0  0  0  0
   39.8410   27.4140   44.3400 H   0  0  0  0  0  0  0  0  0  0  0  0
   41.0150   25.3860   43.5000 H   0  0  0  0  0  0  0  0  0  0  0  0
   37.4520   24.0990   41.0380 C   0  0  0  0  0  0  0  0  0  0  0  0
   37.5270   24.5370   39.7310 F   0  0  0  0  0  0  0  0  0  0  0  0
   36.1060   23.9330   41.3680 F   0  0  0  0  0  0  0  0  0  0  0  0
   38.0360   22.8500   41.0920 F   0  0  0  0  0  0  0  0  0  0  0  0
  1  6  1  0  0  0  0
  2  3  1  0  0  0  0
  2  1  2  0  0  0  0
  3  4  2  0  0  0  0
  4  5  1  0  0  0  0
  5 20  1  0  0  0  0
  6  5  2  0  0  0  0
  7  1  1  0  0  0  0
  8 14  1  0  0  0  0
  8  3  1  1  0  0  0
  8  9  1  0  0  0  0
  9 11  1  0  0  0  0
 10  9  1  0  0  0  0
 11 13  1  0  0  0  0
 11 12  1  0  0  0  0
 14 13  1  0  0  0  0
 15 14  1  0  0  0  0
 16  2  1  0  0  0  0
 17 16  1  0  0  0  0
 18 16  1  0  0  0  0
 19 16  1  0  0  0  0
 20 21  1  0  0  0  0
 21 22  1  0  0  0  0
 23 21  1  0  0  0  0
 24 25  1  0  0  0  0
 24 21  1  0  0  0  0
 25 30  1  0  0  0  0
 26 31  1  0  0  0  0
 26 25  2  0  0  0  0
 27 26  1  0  0  0  0
 28 27  2  0  0  0  0
 28 29  1  0  0  0  0
 29 24  2  0  0  0  0
 32 35  1  0  0  0  0
 32 34  1  0  0  0  0
 32 28  1  0  0  0  0
 33 32  1  0  0  0  0
M  END
>  <minimizedAffinity>
-5.67285299

$$$$

 OpenBabel03252505593D

 35 37  0  0  1  0  0  0  0  0999 V2000
   37.4750   25.3560   38.8550 C   0  0  0  0  0  0  0  0  0  0  0  0
   37.3190   25.2610   40.2540 C   0  0  0  0  0  0  0  0  0  0  0  0
   37.3370   26.4500   40.9720 C   0  0  0  0  0  0  0  0  0  0  0  0
   37.5010   27.6090   40.2970 N   0  0  0  0  0  0  0  0  0  0  0  0
   37.6440   27.6590   38.9720 C   0  0  0  0  0  0  0  0  0  0  0  0
   37.6320   26.5440   38.2520 N   0  0  0  0  0  0  0  0  0  0  0  0
   37.4610   24.4340   38.2880 H   0  0  0  0  0  0  0  0  0  0  0  0
   37.1890   26.5860   42.4080 C   0  0  2  0  0  3  0  0  0  0  0  0
   36.6450   28.0030   42.6680 C   0  0  0  0  0  3  0  0  0  0  0  0
   35.6290   27.9880   43.1070 H   0  0  0  0  0  0  0  0  0  0  0  0
   37.5900   28.6500   43.6290 C   0  0  0  0  0  3  0  0  0  0  0  0
   37.6780   29.7410   43.5010 H   0  0  0  0  0  0  0  0  0  0  0  0
   38.8000   28.0910   43.2180 O   0  0  0  0  0  0  0  0  0  0  0  0
   38.5330   26.7270   43.1100 C   0  0  0  0  0  3  0  0  0  0  0  0
   38.4220   26.3150   44.1320 H   0  0  0  0  0  0  0  0  0  0  0  0
   37.1460   23.9340   40.8830 C   0  0  0  0  0  0  0  0  0  0  0  0
   37.1490   23.0450   39.8080 F   0  0  0  0  0  0  0  0  0  0  0  0
   35.8580   23.9100   41.4210 F   0  0  0  0  0  0  0  0  0  0  0  0
   38.1280   23.6690   41.7370 F   0  0  0  0  0  0  0  0  0  0  0  0
   37.8130   28.8570   38.2810 O   0  0  0  0  0  0  0  0  0  0  0  0
   39.0160   29.1190   37.5860 C   0  0  0  0  0  0  0  0  0  0  0  0
   39.7670   28.3750   37.9450 H   0  0  0  0  0  0  0  0  0  0  0  0
   38.9320   28.9810   36.4940 H   0  0  0  0  0  0  0  0  0  0  0  0
   39.4800   30.4560   37.9950 C   0  0  0  0  0  0  0  0  0  0  0  0
   40.6740   31.1090   37.7210 C   0  0  0  0  0  0  0  0  0  0  0  0
   40.8500   32.3570   38.2310 C   0  0  0  0  0  0  0  0  0  0  0  0
   39.9240   32.9620   38.9720 N   0  0  0  0  0  0  0  0  0  0  0  0
   38.7740   32.3270   39.2320 C   0  0  0  0  0  0  0  0  0  0  0  0
   38.5380   31.0690   38.7480 N   0  0  0  0  0  0  0  0  0  0  0  0
   41.3290   30.5220   37.1210 H   0  0  0  0  0  0  0  0  0  0  0  0
   41.8070   32.8100   37.9780 H   0  0  0  0  0  0  0  0  0  0  0  0
   37.8090   33.0800   40.0640 C   0  0  0  0  0  0  0  0  0  0  0  0
   38.4520   33.9030   40.9650 F   0  0  0  0  0  0  0  0  0  0  0  0
   36.9970   32.1970   40.7780 F   0  0  0  0  0  0  0  0  0  0  0  0
   36.9700   33.8710   39.3040 F   0  0  0  0  0  0  0  0  0  0  0  0
  1  2  1  0  0  0  0
  2 16  1  0  0  0  0
  2  3  2  0  0  0  0
  4  3  1  0  0  0  0
  5  4  2  0  0  0  0
  6  1  2  0  0  0  0
  6  5  1  0  0  0  0
  7  1  1  0  0  0  0
  8  3  1  6  0  0  0
  8  9  1  0  0  0  0
  8 14  1  0  0  0  0
  9 10  1  0  0  0  0
  9 11  1  0  0  0  0
 12 11  1  0  0  0  0
 13 11  1  0  0  0  0
 14 13  1  0  0  0  0
 14 15  1  0  0  0  0
 16 18  1  0  0  0  0
 16 19  1  0  0  0  0
 17 16  1  0  0  0  0
 20  5  1  0  0  0  0
 21 22  1  0  0  0  0
 21 24  1  0  0  0  0
 21 20  1  0  0  0  0
 23 21  1  0  0  0  0
 24 29  1  0  0  0  0
 25 24  2  0  0  0  0
 25 26  1  0  0  0  0
 26 27  2  0  0  0  0
 27 28  1  0  0  0  0
 28 32  1  0  0  0  0
 29 28  2  0  0  0  0
 30 25  1  0  0  0  0
 31 26  1  0  0  0  0
 32 34  1  0  0  0  0
 32 33  1  0  0  0  0
 35 32  1  0  0  0  0
M  END
>  <minimizedAffinity>
-5.64493132

$$$$

 OpenBabel03252505593D

 35 37  0  0  1  0  0  0  0  0999 V2000
   37.4430   24.9610   39.1310 C   0  0  0  0  0  0  0  0  0  0  0  0
   37.8960   25.0500   40.4640 C   0  0  0  0  0  0  0  0  0  0  0  0
   37.4300   26.1200   41.2170 C   0  0  0  0  0  0  0  0  0  0  0  0
   36.5830   26.9980   40.6370 N   0  0  0  0  0  0  0  0  0  0  0  0
   36.1750   26.8800   39.3720 C   0  0  0  0  0  0  0  0  0  0  0  0
   36.5990   25.8710   38.6210 N   0  0  0  0  0  0  0  0  0  0  0  0
   37.8000   24.1300   38.5360 H   0  0  0  0  0  0  0  0  0  0  0  0
   37.7600   26.4000   42.6010 C   0  0  2  0  0  3  0  0  0  0  0  0
   36.6780   27.3600   43.1310 C   0  0  0  0  0  3  0  0  0  0  0  0
   36.0670   26.9020   43.9330 H   0  0  0  0  0  0  0  0  0  0  0  0
   37.3980   28.5500   43.6780 C   0  0  0  0  0  3  0  0  0  0  0  0
   36.8360   29.4930   43.5860 H   0  0  0  0  0  0  0  0  0  0  0  0
   38.4760   28.6290   42.7950 O   0  0  0  0  0  0  0  0  0  0  0  0
   38.9630   27.3250   42.7250 C   0  0  0  0  0  3  0  0  0  0  0  0
   39.4650   27.0930   43.6850 H   0  0  0  0  0  0  0  0  0  0  0  0
   38.8250   24.0270   40.9920 C   0  0  0  0  0  0  0  0  0  0  0  0
   40.0580   24.6790   41.0380 F   0  0  0  0  0  0  0  0  0  0  0  0
   38.9300   23.0380   40.0120 F   0  0  0  0  0  0  0  0  0  0  0  0
   38.4520   23.6050   42.1940 F   0  0  0  0  0  0  0  0  0  0  0  0
   35.3020   27.7880   38.7790 O   0  0  0  0  0  0  0  0  0  0  0  0
   35.1600   29.0930   39.3040 C   0  0  0  0  0  0  0  0  0  0  0  0
   34.1270   29.4340   39.0520 H   0  0  0  0  0  0  0  0  0  0  0  0
   35.2480   29.1370   40.4030 H   0  0  0  0  0  0  0  0  0  0  0  0
   36.1060   29.9640   38.5840 C   0  0  0  0  0  0  0  0  0  0  0  0
   36.5940   29.8720   37.2870 C   0  0  0  0  0  0  0  0  0  0  0  0
   37.4710   30.8230   36.8680 C   0  0  0  0  0  0  0  0  0  0  0  0
   37.8680   31.8240   37.6510 N   0  0  0  0  0  0  0  0  0  0  0  0
   37.3930   31.9060   38.9010 C   0  0  0  0  0  0  0  0  0  0  0  0
   36.5080   30.9800   39.3820 N   0  0  0  0  0  0  0  0  0  0  0  0
   36.2020   29.0320   36.7650 H   0  0  0  0  0  0  0  0  0  0  0  0
   37.8120   30.6910   35.8420 H   0  0  0  0  0  0  0  0  0  0  0  0
   37.8920   33.0520   39.6930 C   0  0  0  0  0  0  0  0  0  0  0  0
   37.0540   34.1430   39.5890 F   0  0  0  0  0  0  0  0  0  0  0  0
   39.1610   33.4290   39.2460 F   0  0  0  0  0  0  0  0  0  0  0  0
   38.0140   32.7480   41.0340 F   0  0  0  0  0  0  0  0  0  0  0  0
  1  2  1  0  0  0  0
  2 16  1  0  0  0  0
  2  3  2  0  0  0  0
  4  3  1  0  0  0  0
  5  4  2  0  0  0  0
  6  1  2  0  0  0  0
  6  5  1  0  0  0  0
  7  1  1  0  0  0  0
  8  3  1  6  0  0  0
  8 14  1  0  0  0  0
  8  9  1  0  0  0  0
  9 11  1  0  0  0  0
  9 10  1  0  0  0  0
 12 11  1  0  0  0  0
 13 11  1  0  0  0  0
 14 13  1  0  0  0  0
 14 15  1  0  0  0  0
 16 17  1  0  0  0  0
 16 19  1  0  0  0  0
 18 16  1  0  0  0  0
 20 21  1  0  0  0  0
 20  5  1  0  0  0  0
 21 23  1  0  0  0  0
 22 21  1  0  0  0  0
 24 21  1  0  0  0  0
 24 29  1  0  0  0  0
 25 24  2  0  0  0  0
 26 25  1  0  0  0  0
 26 27  2  0  0  0  0
 27 28  1  0  0  0  0
 28 29  2  0  0  0  0
 28 32  1  0  0  0  0
 30 25  1  0  0  0  0
 31 26  1  0  0  0  0
 32 35  1  0  0  0  0
 33 32  1  0  0  0  0
 34 32  1  0  0  0  0
M  END
>  <minimizedAffinity>
-5.63737583

$$$$

 OpenBabel03252505593D

 35 37  0  0  1  0  0  0  0  0999 V2000
   36.3610   25.6890   39.3330 C   0  0  0  0  0  0  0  0  0  0  0  0
   36.8710   25.7300   40.6480 C   0  0  0  0  0  0  0  0  0  0  0  0
   37.0860   26.9860   41.2010 C   0  0  0  0  0  0  0  0  0  0  0  0
   36.7990   28.0770   40.4580 N   0  0  0  0  0  0  0  0  0  0  0  0
   36.3170   27.9990   39.2170 C   0  0  0  0  0  0  0  0  0  0  0  0
   36.0980   26.8160   38.6540 N   0  0  0  0  0  0  0  0  0  0  0  0
   36.1890   24.7150   38.8940 H   0  0  0  0  0  0  0  0  0  0  0  0
   37.5940   27.2600   42.5310 C   0  0  2  0  0  3  0  0  0  0  0  0
   37.2880   28.7390   42.8300 C   0  0  0  0  0  3  0  0  0  0  0  0
   36.5710   28.8580   43.6660 H   0  0  0  0  0  0  0  0  0  0  0  0
   38.5890   29.3760   43.2000 C   0  0  0  0  0  3  0  0  0  0  0  0
   38.6610   30.4380   42.9170 H   0  0  0  0  0  0  0  0  0  0  0  0
   39.4650   28.6720   42.3740 O   0  0  0  0  0  0  0  0  0  0  0  0
   39.1160   27.3340   42.5570 C   0  0  0  0  0  3  0  0  0  0  0  0
   39.4490   27.0260   43.5670 H   0  0  0  0  0  0  0  0  0  0  0  0
   37.1470   24.4670   41.3650 C   0  0  0  0  0  0  0  0  0  0  0  0
   36.5430   23.4880   40.5750 F   0  0  0  0  0  0  0  0  0  0  0  0
   36.4280   24.5190   42.5610 F   0  0  0  0  0  0  0  0  0  0  0  0
   38.4520   24.2550   41.4910 F   0  0  0  0  0  0  0  0  0  0  0  0
   36.0230   29.1270   38.4550 O   0  0  0  0  0  0  0  0  0  0  0  0
   37.0270   29.7480   37.6780 C   0  0  0  0  0  0  0  0  0  0  0  0
   37.8790   29.0280   37.6140 H   0  0  0  0  0  0  0  0  0  0  0  0
   36.7140   29.9600   36.6410 H   0  0  0  0  0  0  0  0  0  0  0  0
   37.4950   30.9290   38.4240 C   0  0  0  0  0  0  0  0  0  0  0  0
   36.8410   31.7030   39.3730 C   0  0  0  0  0  0  0  0  0  0  0  0
   37.5140   32.7540   39.9130 C   0  0  0  0  0  0  0  0  0  0  0  0
   38.7630   33.0570   39.5640 N   0  0  0  0  0  0  0  0  0  0  0  0
   39.3880   32.3060   38.6490 C   0  0  0  0  0  0  0  0  0  0  0  0
   38.7650   31.2350   38.0680 N   0  0  0  0  0  0  0  0  0  0  0  0
   35.8520   31.3590   39.5640 H   0  0  0  0  0  0  0  0  0  0  0  0
   36.9420   33.3170   40.6490 H   0  0  0  0  0  0  0  0  0  0  0  0
   40.7720   32.7220   38.3280 C   0  0  0  0  0  0  0  0  0  0  0  0
   41.0660   32.5170   36.9960 F   0  0  0  0  0  0  0  0  0  0  0  0
   41.6830   31.9920   39.0960 F   0  0  0  0  0  0  0  0  0  0  0  0
   40.9940   34.0560   38.6030 F   0  0  0  0  0  0  0  0  0  0  0  0
  1  2  1  0  0  0  0
  2  3  2  0  0  0  0
  2 16  1  0  0  0  0
  4  3  1  0  0  0  0
  5  4  2  0  0  0  0
  6  5  1  0  0  0  0
  6  1  2  0  0  0  0
  7  1  1  0  0  0  0
  8  3  1  6  0  0  0
  8 14  1  0  0  0  0
  8  9  1  0  0  0  0
  9 11  1  0  0  0  0
  9 10  1  0  0  0  0
 12 11  1  0  0  0  0
 13 14  1  0  0  0  0
 13 11  1  0  0  0  0
 14 15  1  0  0  0  0
 16 19  1  0  0  0  0
 16 18  1  0  0  0  0
 17 16  1  0  0  0  0
 20  5  1  0  0  0  0
 21 24  1  0  0  0  0
 21 20  1  0  0  0  0
 22 21  1  0  0  0  0
 23 21  1  0  0  0  0
 24 25  1  0  0  0  0
 25 30  1  0  0  0  0
 25 26  2  0  0  0  0
 26 31  1  0  0  0  0
 27 26  1  0  0  0  0
 28 27  2  0  0  0  0
 29 24  2  0  0  0  0
 29 28  1  0  0  0  0
 32 35  1  0  0  0  0
 32 28  1  0  0  0  0
 32 34  1  0  0  0  0
 33 32  1  0  0  0  0
M  END
>  <minimizedAffinity>
-5.52261066

$$$$

 OpenBabel03252505593D

 35 37  0  0  1  0  0  0  0  0999 V2000
   32.6050   28.6640   35.1380 C   0  0  0  0  0  0  0  0  0  0  0  0
   31.3680   29.3430   35.1270 C   0  0  0  0  0  0  0  0  0  0  0  0
   30.9310   29.8750   36.3340 C   0  0  0  0  0  0  0  0  0  0  0  0
   31.7050   29.7130   37.4290 N   0  0  0  0  0  0  0  0  0  0  0  0
   32.8710   29.0650   37.4000 C   0  0  0  0  0  0  0  0  0  0  0  0
   33.3220   28.5430   36.2660 N   0  0  0  0  0  0  0  0  0  0  0  0
   32.9540   28.2470   34.2020 H   0  0  0  0  0  0  0  0  0  0  0  0
   29.7010   30.6120   36.5490 C   0  0  2  0  0  3  0  0  0  0  0  0
   30.0200   31.7250   37.5640 C   0  0  0  0  0  3  0  0  0  0  0  0
   29.9150   32.7360   37.1260 H   0  0  0  0  0  0  0  0  0  0  0  0
   29.0420   31.5690   38.6850 C   0  0  0  0  0  3  0  0  0  0  0  0
   29.4380   31.8750   39.6670 H   0  0  0  0  0  0  0  0  0  0  0  0
   28.9040   30.1810   38.7160 O   0  0  0  0  0  0  0  0  0  0  0  0
   28.7010   29.8220   37.3840 C   0  0  0  0  0  3  0  0  0  0  0  0
   27.6860   30.1520   37.0890 H   0  0  0  0  0  0  0  0  0  0  0  0
   30.6070   29.4580   33.8650 C   0  0  0  0  0  0  0  0  0  0  0  0
   30.7500   30.7970   33.5020 F   0  0  0  0  0  0  0  0  0  0  0  0
   29.2620   29.2710   34.1890 F   0  0  0  0  0  0  0  0  0  0  0  0
   31.0890   28.6460   32.9310 F   0  0  0  0  0  0  0  0  0  0  0  0
   33.6650   28.9010   38.5320 O   0  0  0  0  0  0  0  0  0  0  0  0
   35.0450   28.6190   38.4040 C   0  0  0  0  0  0  0  0  0  0  0  0
   35.1530   27.5080   38.4330 H   0  0  0  0  0  0  0  0  0  0  0  0
   35.4760   28.9530   37.4450 H   0  0  0  0  0  0  0  0  0  0  0  0
   35.7190   29.1650   39.5950 C   0  0  0  0  0  0  0  0  0  0  0  0
   36.1200   30.4640   39.8780 C   0  0  0  0  0  0  0  0  0  0  0  0
   36.7320   30.6970   41.0690 C   0  0  0  0  0  0  0  0  0  0  0  0
   36.9540   29.7320   41.9590 N   0  0  0  0  0  0  0  0  0  0  0  0
   36.5640   28.4810   41.6800 C   0  0  0  0  0  0  0  0  0  0  0  0
   35.9440   28.1820   40.4980 N   0  0  0  0  0  0  0  0  0  0  0  0
   35.8860   31.1410   39.0900 H   0  0  0  0  0  0  0  0  0  0  0  0
   37.0190   31.7360   41.2260 H   0  0  0  0  0  0  0  0  0  0  0  0
   36.8550   27.4790   42.7300 C   0  0  0  0  0  0  0  0  0  0  0  0
   38.0330   27.7640   43.3890 F   0  0  0  0  0  0  0  0  0  0  0  0
   36.9650   26.2070   42.1640 F   0  0  0  0  0  0  0  0  0  0  0  0
   35.8540   27.4100   43.6790 F   0  0  0  0  0  0  0  0  0  0  0  0
  1  6  1  0  0  0  0
  2  1  2  0  0  0  0
  2  3  1  0  0  0  0
  3  4  2  0  0  0  0
  5  4  1  0  0  0  0
  5 20  1  0  0  0  0
  6  5  2  0  0  0  0
  7  1  1  0  0  0  0
  8  3  1  1  0  0  0
  8 14  1  0  0  0  0
  8  9  1  0  0  0  0
  9 11  1  0  0  0  0
 10  9  1  0  0  0  0
 11 13  1  0  0  0  0
 11 12  1  0  0  0  0
 14 13  1  0  0  0  0
 15 14  1  0  0  0  0
 16 18  1  0  0  0  0
 16  2  1  0  0  0  0
 17 16  1  0  0  0  0
 19 16  1  0  0  0  0
 21 22  1  0  0  0  0
 21 20  1  0  0  0  0
 21 24  1  0  0  0  0
 23 21  1  0  0  0  0
 24 25  2  0  0  0  0
 24 29  1  0  0  0  0
 25 26  1  0  0  0  0
 26 31  1  0  0  0  0
 26 27  2  0  0  0  0
 28 27  1  0  0  0  0
 28 32  1  0  0  0  0
 29 28  2  0  0  0  0
 30 25  1  0  0  0  0
 32 33  1  0  0  0  0
 32 35  1  0  0  0  0
 34 32  1  0  0  0  0
M  END
>  <minimizedAffinity>
-5.47559261

$$$$

 OpenBabel03252505593D

 35 37  0  0  1  0  0  0  0  0999 V2000
   36.2970   26.2430   38.4560 C   0  0  0  0  0  0  0  0  0  0  0  0
   36.6460   25.7960   39.7480 C   0  0  0  0  0  0  0  0  0  0  0  0
   36.7900   26.7640   40.7320 C   0  0  0  0  0  0  0  0  0  0  0  0
   36.5900   28.0580   40.3990 N   0  0  0  0  0  0  0  0  0  0  0  0
   36.2600   28.4440   39.1660 C   0  0  0  0  0  0  0  0  0  0  0  0
   36.1140   27.5470   38.1970 N   0  0  0  0  0  0  0  0  0  0  0  0
   36.1820   25.4950   37.6820 H   0  0  0  0  0  0  0  0  0  0  0  0
   37.1350   26.5290   42.1210 C   0  0  2  0  0  3  0  0  0  0  0  0
   36.6250   27.7440   42.9190 C   0  0  0  0  0  3  0  0  0  0  0  0
   35.8250   27.4710   43.6330 H   0  0  0  0  0  0  0  0  0  0  0  0
   37.8000   28.2790   43.6740 C   0  0  0  0  0  3  0  0  0  0  0  0
   37.7700   29.3690   43.8310 H   0  0  0  0  0  0  0  0  0  0  0  0
   38.8290   28.0240   42.7660 O   0  0  0  0  0  0  0  0  0  0  0  0
   38.6270   26.7010   42.3750 C   0  0  0  0  0  3  0  0  0  0  0  0
   38.8990   26.0460   43.2260 H   0  0  0  0  0  0  0  0  0  0  0  0
   36.8390   24.3500   39.9950 C   0  0  0  0  0  0  0  0  0  0  0  0
   36.4430   23.7460   38.8010 F   0  0  0  0  0  0  0  0  0  0  0  0
   35.9030   23.9800   40.9620 F   0  0  0  0  0  0  0  0  0  0  0  0
   38.1030   24.0710   40.2860 F   0  0  0  0  0  0  0  0  0  0  0  0
   36.0560   29.7790   38.8270 O   0  0  0  0  0  0  0  0  0  0  0  0
   37.0590   30.5070   38.1480 C   0  0  0  0  0  0  0  0  0  0  0  0
   37.8930   29.7940   37.9400 H   0  0  0  0  0  0  0  0  0  0  0  0
   36.7310   30.9030   37.1710 H   0  0  0  0  0  0  0  0  0  0  0  0
   37.5680   31.5310   39.0770 C   0  0  0  0  0  0  0  0  0  0  0  0
   37.2160   32.8670   39.2130 C   0  0  0  0  0  0  0  0  0  0  0  0
   37.8530   33.6000   40.1650 C   0  0  0  0  0  0  0  0  0  0  0  0
   38.7880   33.0820   40.9590 N   0  0  0  0  0  0  0  0  0  0  0  0
   39.1220   31.7920   40.8220 C   0  0  0  0  0  0  0  0  0  0  0  0
   38.5180   31.0020   39.8820 N   0  0  0  0  0  0  0  0  0  0  0  0
   36.4600   33.1600   38.5240 H   0  0  0  0  0  0  0  0  0  0  0  0
   37.5290   34.6380   40.2180 H   0  0  0  0  0  0  0  0  0  0  0  0
   40.1710   31.3080   41.7480 C   0  0  0  0  0  0  0  0  0  0  0  0
   39.6920   31.1910   43.0370 F   0  0  0  0  0  0  0  0  0  0  0  0
   41.2490   32.1960   41.7590 F   0  0  0  0  0  0  0  0  0  0  0  0
   40.6700   30.0760   41.3770 F   0  0  0  0  0  0  0  0  0  0  0  0
  1  2  1  0  0  0  0
  2 16  1  0  0  0  0
  2  3  2  0  0  0  0
  4  3  1  0  0  0  0
  5  4  2  0  0  0  0
  6  1  2  0  0  0  0
  6  5  1  0  0  0  0
  7  1  1  0  0  0  0
  8  3  1  6  0  0  0
  8 14  1  0  0  0  0
  8  9  1  0  0  0  0
  9 10  1  0  0  0  0
  9 11  1  0  0  0  0
 11 12  1  0  0  0  0
 13 11  1  0  0  0  0
 14 13  1  0  0  0  0
 14 15  1  0  0  0  0
 16 19  1  0  0  0  0
 16 18  1  0  0  0  0
 17 16  1  0  0  0  0
 20  5  1  0  0  0  0
 21 20  1  0  0  0  0
 21 24  1  0  0  0  0
 22 21  1  0  0  0  0
 23 21  1  0  0  0  0
 24 25  2  0  0  0  0
 24 29  1  0  0  0  0
 25 26  1  0  0  0  0
 26 31  1  0  0  0  0
 26 27  2  0  0  0  0
 28 27  1  0  0  0  0
 28 32  1  0  0  0  0
 29 28  2  0  0  0  0
 30 25  1  0  0  0  0
 32 34  1  0  0  0  0
 32 33  1  0  0  0  0
 35 32  1  0  0  0  0
M  END
>  <minimizedAffinity>
-5.45512104

$$$$
