
 OpenBabel03252507083D

 23 24  0  0  1  0  0  0  0  0999 V2000
   44.6140   36.0830   44.5100 C   0  0  0  0  0  0  0  0  0  0  0  0
   45.2660   36.0210   43.2540 C   0  0  0  0  0  0  0  0  0  0  0  0
   46.0590   34.9150   42.9770 C   0  0  0  0  0  0  0  0  0  0  0  0
   46.1670   33.9460   43.9330 N   0  0  0  0  0  0  0  0  0  0  0  0
   45.5410   34.0270   45.1140 C   0  0  0  0  0  0  0  0  0  0  0  0
   44.7610   35.0980   45.4070 N   0  0  0  0  0  0  0  0  0  0  0  0
   44.0210   36.9910   44.6170 H   0  0  0  0  0  0  0  0  0  0  0  0
   45.1690   36.7990   42.5070 H   0  0  0  0  0  0  0  0  0  0  0  0
   45.6570   32.9840   46.1440 C   0  0  1  0  0  3  0  0  0  0  0  0
   47.1160   32.7460   46.5550 C   0  0  0  0  0  3  0  0  0  0  0  0
   47.5950   32.1290   45.7650 H   0  0  0  0  0  0  0  0  0  0  0  0
   46.8310   31.9590   47.8180 C   0  0  0  0  0  3  0  0  0  0  0  0
   47.6870   31.8980   48.5040 H   0  0  0  0  0  0  0  0  0  0  0  0
   45.6730   32.4740   48.3670 O   0  0  0  0  0  0  0  0  0  0  0  0
   45.0820   33.3330   47.4760 C   0  0  0  0  0  3  0  0  0  0  0  0
   45.3950   34.3740   47.7780 H   0  0  0  0  0  0  0  0  0  0  0  0
   46.6880   34.8670   41.7510 O   0  0  0  0  0  0  0  0  0  0  0  0
   48.6650   33.2600   41.0450 O   0  0  0  0  0  0  0  0  0  0  0  0
   48.3870   34.6270   41.6800 P   0  0  0  0  0  0  0  0  0  0  0  0
   49.0910   35.8710   40.8330 O   0  0  0  0  0  0  0  0  0  0  0  0
   49.8970   36.1990   41.3290 H   0  0  0  0  0  0  0  0  0  0  0  0
   48.9500   34.5570   43.2870 O   0  0  0  0  0  0  0  0  0  0  0  0
   48.8510   33.6320   43.5860 H   0  0  0  0  0  0  0  0  0  0  0  0
  1  7  1  0  0  0  0
  1  6  1  0  0  0  0
  2  1  2  0  0  0  0
  3  2  1  0  0  0  0
  3  4  2  0  0  0  0
  4  5  1  0  0  0  0
  5  6  2  0  0  0  0
  8  2  1  0  0  0  0
  9  5  1  6  0  0  0
  9 10  1  0  0  0  0
  9 15  1  0  0  0  0
 10 12  1  0  0  0  0
 11 10  1  0  0  0  0
 12 14  1  0  0  0  0
 12 13  1  0  0  0  0
 15 16  1  0  0  0  0
 15 14  1  0  0  0  0
 17  3  1  0  0  0  0
 18 19  2  0  0  0  0
 19 17  1  0  0  0  0
 19 22  1  0  0  0  0
 20 21  1  0  0  0  0
 20 19  1  0  0  0  0
 22 23  1  0  0  0  0
M  END
>  <minimizedAffinity>
-5.18878746

>  <minimizedRMSD>
0.16407162

$$$$
