
 OpenBabel03252501453D

 22 23  0  0  1  0  0  0  0  0999 V2000
   45.1120   33.7530   40.3770 C   0  0  0  0  0  0  0  0  0  0  0  0
   43.7870   33.7650   39.9500 C   0  0  0  0  0  0  0  0  0  0  0  0
   43.5260   33.4830   38.6210 C   0  0  0  0  0  0  0  0  0  0  0  0
   44.5720   33.2040   37.7740 N   0  0  0  0  0  0  0  0  0  0  0  0
   45.8490   33.2020   38.2280 C   0  0  0  0  0  0  0  0  0  0  0  0
   46.1060   33.4740   39.5190 N   0  0  0  0  0  0  0  0  0  0  0  0
   45.3110   33.9730   41.4170 H   0  0  0  0  0  0  0  0  0  0  0  0
   42.5190   33.4840   38.2550 H   0  0  0  0  0  0  0  0  0  0  0  0
   46.9980   32.9090   37.3630 C   0  0  2  0  0  3  0  0  0  0  0  0
   47.7970   31.8000   38.0380 C   0  0  0  0  0  3  0  0  0  0  0  0
   47.4440   31.5730   39.0500 H   0  0  0  0  0  0  0  0  0  0  0  0
   49.1830   32.4040   38.0800 C   0  0  0  0  0  3  0  0  0  0  0  0
   49.8800   31.5860   37.7680 H   0  0  0  0  0  0  0  0  0  0  0  0
   49.2000   33.4510   37.1480 O   0  0  0  0  0  0  0  0  0  0  0  0
   47.9510   34.0590   37.2050 C   0  0  0  0  0  3  0  0  0  0  0  0
   47.8230   34.6210   36.2540 H   0  0  0  0  0  0  0  0  0  0  0  0
   42.6910   34.0610   40.8490 C   0  0  0  0  0  3  0  0  0  0  0  0
   41.4930   34.4920   40.5140 C   0  0  0  0  0  3  0  0  0  0  0  0
   40.4210   34.7700   41.5220 C   0  0  0  0  0  0  0  0  0  0  0  0
   39.7570   35.5360   41.0360 H   0  0  0  0  0  0  0  0  0  0  0  0
   39.8690   33.8660   41.8080 H   0  0  0  0  0  0  0  0  0  0  0  0
   40.8600   35.2950   42.4140 H   0  0  0  0  0  0  0  0  0  0  0  0
  1  7  1  0  0  0  0
  2  1  1  0  0  0  0
  2 17  1  0  0  0  0
  3  2  2  0  0  0  0
  4  5  2  0  0  0  0
  4  3  1  0  0  0  0
  5  6  1  0  0  0  0
  6  1  2  0  0  0  0
  8  3  1  0  0  0  0
  9 10  1  0  0  0  0
  9  5  1  1  0  0  0
 10 12  1  0  0  0  0
 10 11  1  0  0  0  0
 13 12  1  0  0  0  0
 14 15  1  0  0  0  0
 14 12  1  0  0  0  0
 15  9  1  0  0  0  0
 16 15  1  0  0  0  0
 18 17  2  0  0  0  0
 18 19  1  0  0  0  0
 19 21  1  0  0  0  0
 19 22  1  0  0  0  0
 20 19  1  0  0  0  0
M  END
>  <minimizedAffinity>
-3.02243114

>  <minimizedRMSD>
7.64992332

$$$$
