
 OpenBabel03252503393D

 40 43  0  0  1  0  0  0  0  0999 V2000
   36.2800   28.6220   40.8740 C   0  0  1  0  0  0  0  0  0  0  0  0
   35.3140   29.6820   40.1770 C   0  0  0  0  0  0  0  0  0  0  0  0
   34.3160   28.9780   39.3190 C   0  0  0  0  0  0  0  0  0  0  0  0
   34.9620   28.3740   38.0970 C   0  0  0  0  0  0  0  0  0  0  0  0
   36.3640   27.9370   38.4640 C   0  0  0  0  0  0  0  0  0  0  0  0
   36.4360   27.5330   39.9340 C   0  0  1  0  0  0  0  0  0  0  0  0
   35.6990   28.4560   41.8030 H   0  0  0  0  0  0  0  0  0  0  0  0
   34.8010   30.2660   40.9480 H   0  0  0  0  0  0  0  0  0  0  0  0
   35.9700   30.2970   39.5490 H   0  0  0  0  0  0  0  0  0  0  0  0
   33.7630   28.1990   39.9100 H   0  0  0  0  0  0  0  0  0  0  0  0
   33.5720   29.7050   39.0080 H   0  0  0  0  0  0  0  0  0  0  0  0
   34.3960   27.4470   37.8540 H   0  0  0  0  0  0  0  0  0  0  0  0
   34.9440   29.0410   37.2270 H   0  0  0  0  0  0  0  0  0  0  0  0
   36.6360   27.0950   37.8140 H   0  0  0  0  0  0  0  0  0  0  0  0
   37.0820   28.7570   38.2490 H   0  0  0  0  0  0  0  0  0  0  0  0
   35.4180   27.0170   40.0300 H   0  0  0  0  0  0  0  0  0  0  0  0
   37.4910   29.4060   41.2530 C   0  0  0  0  0  0  0  0  0  0  0  0
   38.1530   29.4910   42.4710 C   0  0  0  0  0  0  0  0  0  0  0  0
   39.2540   30.3070   42.5280 C   0  0  0  0  0  0  0  0  0  0  0  0
   39.6470   30.9890   41.3910 N   0  0  0  0  0  0  0  0  0  0  0  0
   38.9770   30.8770   40.2310 C   0  0  0  0  0  0  0  0  0  0  0  0
   37.8660   30.0620   40.1530 N   0  0  0  0  0  0  0  0  0  0  0  0
   39.7770   30.3850   43.4700 H   0  0  0  0  0  0  0  0  0  0  0  0
   39.4140   31.4770   39.4310 H   0  0  0  0  0  0  0  0  0  0  0  0
   37.7630   28.6950   43.6710 C   0  0  0  0  0  0  0  0  0  0  0  0
   36.9240   27.5770   43.6260 C   0  0  0  0  0  0  0  0  0  0  0  0
   38.3310   27.1830   43.6730 C   0  0  0  0  0  0  0  0  0  0  0  0
   38.3140   29.1280   44.5760 H   0  0  0  0  0  0  0  0  0  0  0  0
   36.2870   27.3390   44.5320 H   0  0  0  0  0  0  0  0  0  0  0  0
   36.3160   27.3530   42.7010 H   0  0  0  0  0  0  0  0  0  0  0  0
   38.8190   26.9240   42.7100 H   0  0  0  0  0  0  0  0  0  0  0  0
   38.7470   26.8340   44.6170 H   0  0  0  0  0  0  0  0  0  0  0  0
   37.3020   26.3970   40.2150 C   0  0  1  0  0  3  0  0  0  0  0  0
   36.8540   25.1450   40.8140 C   0  0  0  0  0  3  0  0  0  0  0  0
   36.6200   25.1330   41.8900 H   0  0  0  0  0  0  0  0  0  0  0  0
   38.2180   24.4160   40.7660 C   0  0  0  0  0  3  0  0  0  0  0  0
   38.1010   23.3270   40.7420 H   0  0  0  0  0  0  0  0  0  0  0  0
   38.8410   24.8670   39.6170 O   0  0  0  0  0  0  0  0  0  0  0  0
   38.0660   25.8460   39.0260 C   0  0  0  0  0  3  0  0  0  0  0  0
   37.3370   25.3360   38.3600 H   0  0  0  0  0  0  0  0  0  0  0  0
  1 17  1  0  0  0  0
  1  7  1  1  0  0  0
  2  1  1  0  0  0  0
  2  8  1  0  0  0  0
  3 10  1  0  0  0  0
  3  2  1  0  0  0  0
  4  5  1  0  0  0  0
  4  3  1  0  0  0  0
  5  6  1  0  0  0  0
  6 16  1  1  0  0  0
  6 33  1  0  0  0  0
  6  1  1  0  0  0  0
  9  2  1  0  0  0  0
 11  3  1  0  0  0  0
 12  4  1  0  0  0  0
 13  4  1  0  0  0  0
 14  5  1  0  0  0  0
 15  5  1  0  0  0  0
 17 18  1  0  0  0  0
 18 19  2  0  0  0  0
 18 25  1  0  0  0  0
 19 23  1  0  0  0  0
 20 19  1  0  0  0  0
 21 20  2  0  0  0  0
 22 21  1  0  0  0  0
 22 17  2  0  0  0  0
 24 21  1  0  0  0  0
 25 27  1  0  0  0  0
 25 28  1  0  0  0  0
 26 25  1  0  0  0  0
 26 27  1  0  0  0  0
 26 29  1  0  0  0  0
 27 32  1  0  0  0  0
 30 26  1  0  0  0  0
 31 27  1  0  0  0  0
 33 39  1  6  0  0  0
 33 34  1  0  0  0  0
 34 35  1  0  0  0  0
 36 34  1  0  0  0  0
 37 36  1  0  0  0  0
 38 36  1  0  0  0  0
 39 38  1  0  0  0  0
 40 39  1  0  0  0  0
M  END
>  <minimizedAffinity>
-5.33453083

$$$$

 OpenBabel03252503393D

 40 43  0  0  1  0  0  0  0  0999 V2000
   37.3330   29.3910   41.8000 C   0  0  1  0  0  0  0  0  0  0  0  0
   36.3720   28.1540   42.1020 C   0  0  0  0  0  0  0  0  0  0  0  0
   36.8440   27.4250   43.3160 C   0  0  0  0  0  0  0  0  0  0  0  0
   38.1360   26.6910   43.0560 C   0  0  0  0  0  0  0  0  0  0  0  0
   38.9500   27.4930   42.0630 C   0  0  0  0  0  0  0  0  0  0  0  0
   38.6600   28.9850   42.2080 C   0  0  1  0  0  0  0  0  0  0  0  0
   36.7980   30.1620   42.3890 H   0  0  0  0  0  0  0  0  0  0  0  0
   35.3510   28.5180   42.2560 H   0  0  0  0  0  0  0  0  0  0  0  0
   36.4600   27.5020   41.2240 H   0  0  0  0  0  0  0  0  0  0  0  0
   36.9470   28.1270   44.1860 H   0  0  0  0  0  0  0  0  0  0  0  0
   36.0760   26.7100   43.5940 H   0  0  0  0  0  0  0  0  0  0  0  0
   38.7100   26.6940   44.0090 H   0  0  0  0  0  0  0  0  0  0  0  0
   37.9850   25.6540   42.7350 H   0  0  0  0  0  0  0  0  0  0  0  0
   40.0120   27.2820   42.2480 H   0  0  0  0  0  0  0  0  0  0  0  0
   38.7270   27.1510   41.0310 H   0  0  0  0  0  0  0  0  0  0  0  0
   38.5630   29.0410   43.3480 H   0  0  0  0  0  0  0  0  0  0  0  0
   37.1030   29.7060   40.3600 C   0  0  0  0  0  0  0  0  0  0  0  0
   37.0830   30.9310   39.7080 C   0  0  0  0  0  0  0  0  0  0  0  0
   36.8390   30.9160   38.3580 C   0  0  0  0  0  0  0  0  0  0  0  0
   36.6310   29.7050   37.7240 N   0  0  0  0  0  0  0  0  0  0  0  0
   36.6600   28.5400   38.3950 C   0  0  0  0  0  0  0  0  0  0  0  0
   36.9030   28.5340   39.7530 N   0  0  0  0  0  0  0  0  0  0  0  0
   36.8180   31.8630   37.8380 H   0  0  0  0  0  0  0  0  0  0  0  0
   36.4790   27.6780   37.7510 H   0  0  0  0  0  0  0  0  0  0  0  0
   37.3790   32.2250   40.3880 C   0  0  0  0  0  0  0  0  0  0  0  0
   38.4540   33.0550   40.0520 C   0  0  0  0  0  0  0  0  0  0  0  0
   37.2110   33.5220   39.4410 C   0  0  0  0  0  0  0  0  0  0  0  0
   36.5530   32.4170   41.1570 H   0  0  0  0  0  0  0  0  0  0  0  0
   38.9130   33.7030   40.8590 H   0  0  0  0  0  0  0  0  0  0  0  0
   39.2870   32.6740   39.3910 H   0  0  0  0  0  0  0  0  0  0  0  0
   37.0260   33.2400   38.3840 H   0  0  0  0  0  0  0  0  0  0  0  0
   36.6950   34.3710   39.8870 H   0  0  0  0  0  0  0  0  0  0  0  0
   39.8160   29.8520   42.0290 C   0  0  1  0  0  3  0  0  0  0  0  0
   40.0480   31.0840   42.7750 C   0  0  0  0  0  3  0  0  0  0  0  0
   39.4420   31.9690   42.5280 H   0  0  0  0  0  0  0  0  0  0  0  0
   41.4150   31.4330   42.1410 C   0  0  0  0  0  3  0  0  0  0  0  0
   42.0290   32.0530   42.8030 H   0  0  0  0  0  0  0  0  0  0  0  0
   42.0320   30.2190   41.8980 O   0  0  0  0  0  0  0  0  0  0  0  0
   41.1680   29.1900   42.2130 C   0  0  0  0  0  3  0  0  0  0  0  0
   41.2940   28.9700   43.2950 H   0  0  0  0  0  0  0  0  0  0  0  0
  1  2  1  0  0  0  0
  1  6  1  0  0  0  0
  1  7  1  1  0  0  0
  2  8  1  0  0  0  0
  2  3  1  0  0  0  0
  3 11  1  0  0  0  0
  3 10  1  0  0  0  0
  4  3  1  0  0  0  0
  4 12  1  0  0  0  0
  5  6  1  0  0  0  0
  5 14  1  0  0  0  0
  5  4  1  0  0  0  0
  6 16  1  1  0  0  0
  9  2  1  0  0  0  0
 13  4  1  0  0  0  0
 15  5  1  0  0  0  0
 17  1  1  0  0  0  0
 18 17  2  0  0  0  0
 18 25  1  0  0  0  0
 19 18  1  0  0  0  0
 20 19  2  0  0  0  0
 20 21  1  0  0  0  0
 21 22  2  0  0  0  0
 22 17  1  0  0  0  0
 23 19  1  0  0  0  0
 24 21  1  0  0  0  0
 25 28  1  0  0  0  0
 26 25  1  0  0  0  0
 26 29  1  0  0  0  0
 27 32  1  0  0  0  0
 27 26  1  0  0  0  0
 27 25  1  0  0  0  0
 30 26  1  0  0  0  0
 31 27  1  0  0  0  0
 33  6  1  0  0  0  0
 33 39  1  1  0  0  0
 33 34  1  0  0  0  0
 35 34  1  0  0  0  0
 36 34  1  0  0  0  0
 36 37  1  0  0  0  0
 38 36  1  0  0  0  0
 38 39  1  0  0  0  0
 39 40  1  0  0  0  0
M  END
>  <minimizedAffinity>
-5.10705185

$$$$

 OpenBabel03252503393D

 40 43  0  0  1  0  0  0  0  0999 V2000
   36.4140   28.1700   41.2220 C   0  0  1  0  0  0  0  0  0  0  0  0
   36.5760   27.0840   42.3790 C   0  0  0  0  0  0  0  0  0  0  0  0
   36.9470   27.7520   43.6610 C   0  0  0  0  0  0  0  0  0  0  0  0
   38.3530   28.2970   43.6180 C   0  0  0  0  0  0  0  0  0  0  0  0
   38.6490   28.7440   42.2020 C   0  0  0  0  0  0  0  0  0  0  0  0
   37.3740   29.2140   41.5070 C   0  0  1  0  0  0  0  0  0  0  0  0
   35.3330   28.3800   41.3470 H   0  0  0  0  0  0  0  0  0  0  0  0
   35.6350   26.5370   42.4980 H   0  0  0  0  0  0  0  0  0  0  0  0
   37.4000   26.4380   42.0500 H   0  0  0  0  0  0  0  0  0  0  0  0
   36.2080   28.5590   43.9150 H   0  0  0  0  0  0  0  0  0  0  0  0
   36.8730   27.0140   44.4540 H   0  0  0  0  0  0  0  0  0  0  0  0
   38.3660   29.2140   44.2480 H   0  0  0  0  0  0  0  0  0  0  0  0
   39.1000   27.5920   44.0010 H   0  0  0  0  0  0  0  0  0  0  0  0
   39.3880   29.5550   42.2520 H   0  0  0  0  0  0  0  0  0  0  0  0
   39.1180   27.9130   41.6360 H   0  0  0  0  0  0  0  0  0  0  0  0
   36.8680   29.7390   42.3900 H   0  0  0  0  0  0  0  0  0  0  0  0
   36.5640   27.4000   39.9540 C   0  0  0  0  0  0  0  0  0  0  0  0
   36.1120   27.6910   38.6750 C   0  0  0  0  0  0  0  0  0  0  0  0
   36.3980   26.7830   37.6880 C   0  0  0  0  0  0  0  0  0  0  0  0
   37.1120   25.6430   38.0090 N   0  0  0  0  0  0  0  0  0  0  0  0
   37.5320   25.3990   39.2630 C   0  0  0  0  0  0  0  0  0  0  0  0
   37.2530   26.3010   40.2690 N   0  0  0  0  0  0  0  0  0  0  0  0
   36.0500   26.9960   36.6880 H   0  0  0  0  0  0  0  0  0  0  0  0
   38.0810   24.4600   39.3490 H   0  0  0  0  0  0  0  0  0  0  0  0
   35.4050   28.9580   38.3260 C   0  0  0  0  0  0  0  0  0  0  0  0
   34.4490   29.0640   37.3110 C   0  0  0  0  0  0  0  0  0  0  0  0
   33.8180   28.9320   38.6230 C   0  0  0  0  0  0  0  0  0  0  0  0
   35.7430   29.7660   39.0640 H   0  0  0  0  0  0  0  0  0  0  0  0
   34.3320   30.0550   36.7760 H   0  0  0  0  0  0  0  0  0  0  0  0
   34.3270   28.2380   36.5510 H   0  0  0  0  0  0  0  0  0  0  0  0
   33.4700   27.9200   38.9210 H   0  0  0  0  0  0  0  0  0  0  0  0
   33.4090   29.8210   39.1000 H   0  0  0  0  0  0  0  0  0  0  0  0
   37.5450   30.3590   40.6230 C   0  0  1  0  0  3  0  0  0  0  0  0
   36.6520   31.5100   40.5790 C   0  0  0  0  0  3  0  0  0  0  0  0
   35.6650   31.3910   40.1060 H   0  0  0  0  0  0  0  0  0  0  0  0
   37.4330   32.3140   39.5130 C   0  0  0  0  0  3  0  0  0  0  0  0
   37.2500   33.3910   39.5940 H   0  0  0  0  0  0  0  0  0  0  0  0
   38.7680   32.0270   39.7360 O   0  0  0  0  0  0  0  0  0  0  0  0
   38.8760   31.0780   40.7330 C   0  0  0  0  0  3  0  0  0  0  0  0
   38.8910   31.6180   41.7050 H   0  0  0  0  0  0  0  0  0  0  0  0
  1  7  1  1  0  0  0
  1  6  1  0  0  0  0
  1  2  1  0  0  0  0
  2  8  1  0  0  0  0
  2  3  1  0  0  0  0
  3 10  1  0  0  0  0
  3 11  1  0  0  0  0
  4  3  1  0  0  0  0
  4 13  1  0  0  0  0
  4 12  1  0  0  0  0
  5 14  1  0  0  0  0
  5  4  1  0  0  0  0
  6  5  1  0  0  0  0
  6 16  1  1  0  0  0
  9  2  1  0  0  0  0
 15  5  1  0  0  0  0
 17 22  1  0  0  0  0
 17  1  1  0  0  0  0
 18 17  2  0  0  0  0
 19 20  2  0  0  0  0
 19 18  1  0  0  0  0
 20 21  1  0  0  0  0
 21 24  1  0  0  0  0
 21 22  2  0  0  0  0
 23 19  1  0  0  0  0
 25 27  1  0  0  0  0
 25 18  1  0  0  0  0
 25 28  1  0  0  0  0
 26 25  1  0  0  0  0
 26 27  1  0  0  0  0
 27 31  1  0  0  0  0
 27 32  1  0  0  0  0
 29 26  1  0  0  0  0
 30 26  1  0  0  0  0
 33 34  1  1  0  0  0
 33 39  1  0  0  0  0
 33  6  1  0  0  0  0
 35 34  1  0  0  0  0
 36 37  1  0  0  0  0
 36 38  1  0  0  0  0
 36 34  1  0  0  0  0
 38 39  1  0  0  0  0
 39 40  1  0  0  0  0
M  END
>  <minimizedAffinity>
-5.03119612

$$$$

 OpenBabel03252503393D

 40 43  0  0  1  0  0  0  0  0999 V2000
   36.1140   28.8240   41.0040 C   0  0  1  0  0  0  0  0  0  0  0  0
   35.0460   29.7960   40.3280 C   0  0  0  0  0  0  0  0  0  0  0  0
   34.0790   29.0050   39.5110 C   0  0  0  0  0  0  0  0  0  0  0  0
   34.7300   28.4360   38.2750 C   0  0  0  0  0  0  0  0  0  0  0  0
   36.1740   28.1140   38.6010 C   0  0  0  0  0  0  0  0  0  0  0  0
   36.3240   27.7370   40.0720 C   0  0  1  0  0  0  0  0  0  0  0  0
   35.5780   28.6270   41.9540 H   0  0  0  0  0  0  0  0  0  0  0  0
   34.5140   30.3490   41.1080 H   0  0  0  0  0  0  0  0  0  0  0  0
   35.6310   30.4510   39.6710 H   0  0  0  0  0  0  0  0  0  0  0  0
   33.6080   28.1930   40.1290 H   0  0  0  0  0  0  0  0  0  0  0  0
   33.2710   29.6680   39.2170 H   0  0  0  0  0  0  0  0  0  0  0  0
   34.2310   27.4640   38.0620 H   0  0  0  0  0  0  0  0  0  0  0  0
   34.6320   29.0860   37.3980 H   0  0  0  0  0  0  0  0  0  0  0  0
   36.4890   27.2860   37.9520 H   0  0  0  0  0  0  0  0  0  0  0  0
   36.8180   28.9840   38.3520 H   0  0  0  0  0  0  0  0  0  0  0  0
   35.3530   27.1450   40.2080 H   0  0  0  0  0  0  0  0  0  0  0  0
   37.2720   29.7050   41.3340 C   0  0  0  0  0  0  0  0  0  0  0  0
   37.7000   30.8790   40.7290 C   0  0  0  0  0  0  0  0  0  0  0  0
   38.8160   31.4800   41.2520 C   0  0  0  0  0  0  0  0  0  0  0  0
   39.4480   30.9010   42.3370 N   0  0  0  0  0  0  0  0  0  0  0  0
   38.9990   29.7620   42.8930 C   0  0  0  0  0  0  0  0  0  0  0  0
   37.8790   29.1410   42.3800 N   0  0  0  0  0  0  0  0  0  0  0  0
   39.1620   32.3940   40.7900 H   0  0  0  0  0  0  0  0  0  0  0  0
   39.6070   29.4370   43.7390 H   0  0  0  0  0  0  0  0  0  0  0  0
   36.9690   31.5330   39.6060 C   0  0  0  0  0  0  0  0  0  0  0  0
   37.4540   32.6390   38.8980 C   0  0  0  0  0  0  0  0  0  0  0  0
   37.7010   31.3940   38.1720 C   0  0  0  0  0  0  0  0  0  0  0  0
   36.0110   30.9360   39.4110 H   0  0  0  0  0  0  0  0  0  0  0  0
   36.7100   33.3640   38.4490 H   0  0  0  0  0  0  0  0  0  0  0  0
   38.3290   33.2330   39.2940 H   0  0  0  0  0  0  0  0  0  0  0  0
   38.7100   30.9420   38.2670 H   0  0  0  0  0  0  0  0  0  0  0  0
   37.0560   31.1400   37.3330 H   0  0  0  0  0  0  0  0  0  0  0  0
   37.2850   26.6760   40.3370 C   0  0  1  0  0  3  0  0  0  0  0  0
   37.1930   25.7370   41.4490 C   0  0  0  0  0  3  0  0  0  0  0  0
   37.4300   26.0980   42.4610 H   0  0  0  0  0  0  0  0  0  0  0  0
   38.4470   24.9030   41.0950 C   0  0  0  0  0  3  0  0  0  0  0  0
   38.3860   23.8820   41.4870 H   0  0  0  0  0  0  0  0  0  0  0  0
   38.5090   24.8940   39.7130 O   0  0  0  0  0  0  0  0  0  0  0  0
   37.5100   25.6970   39.2000 C   0  0  0  0  0  3  0  0  0  0  0  0
   36.5960   25.0710   39.1050 H   0  0  0  0  0  0  0  0  0  0  0  0
  1 17  1  0  0  0  0
  1  7  1  1  0  0  0
  2  1  1  0  0  0  0
  2  8  1  0  0  0  0
  3 10  1  0  0  0  0
  3  2  1  0  0  0  0
  4  5  1  0  0  0  0
  4  3  1  0  0  0  0
  5  6  1  0  0  0  0
  6 16  1  1  0  0  0
  6 33  1  0  0  0  0
  6  1  1  0  0  0  0
  9  2  1  0  0  0  0
 11  3  1  0  0  0  0
 12  4  1  0  0  0  0
 13  4  1  0  0  0  0
 14  5  1  0  0  0  0
 15  5  1  0  0  0  0
 17 22  1  0  0  0  0
 18 19  1  0  0  0  0
 18 17  2  0  0  0  0
 19 20  2  0  0  0  0
 20 21  1  0  0  0  0
 21 24  1  0  0  0  0
 22 21  2  0  0  0  0
 23 19  1  0  0  0  0
 25 18  1  0  0  0  0
 26 30  1  0  0  0  0
 26 25  1  0  0  0  0
 27 31  1  0  0  0  0
 27 26  1  0  0  0  0
 27 25  1  0  0  0  0
 28 25  1  0  0  0  0
 29 26  1  0  0  0  0
 32 27  1  0  0  0  0
 33 39  1  6  0  0  0
 33 34  1  0  0  0  0
 34 35  1  0  0  0  0
 36 34  1  0  0  0  0
 36 37  1  0  0  0  0
 38 36  1  0  0  0  0
 39 38  1  0  0  0  0
 40 39  1  0  0  0  0
M  END
>  <minimizedAffinity>
-5.03102112

$$$$

 OpenBabel03252503393D

 40 43  0  0  1  0  0  0  0  0999 V2000
   36.8260   30.0080   39.2250 C   0  0  1  0  0  0  0  0  0  0  0  0
   36.1270   29.7580   37.8130 C   0  0  0  0  0  0  0  0  0  0  0  0
   34.9830   28.8120   37.9680 C   0  0  0  0  0  0  0  0  0  0  0  0
   35.4560   27.4130   38.2740 C   0  0  0  0  0  0  0  0  0  0  0  0
   36.7210   27.5060   39.1020 C   0  0  0  0  0  0  0  0  0  0  0  0
   36.7110   28.7680   39.9610 C   0  0  1  0  0  0  0  0  0  0  0  0
   36.2310   30.8860   39.5480 H   0  0  0  0  0  0  0  0  0  0  0  0
   35.7740   30.7130   37.4100 H   0  0  0  0  0  0  0  0  0  0  0  0
   36.9030   29.2980   37.1880 H   0  0  0  0  0  0  0  0  0  0  0  0
   34.2690   29.1780   38.7540 H   0  0  0  0  0  0  0  0  0  0  0  0
   34.4270   28.8060   37.0350 H   0  0  0  0  0  0  0  0  0  0  0  0
   34.6860   26.9440   38.9260 H   0  0  0  0  0  0  0  0  0  0  0  0
   35.5860   26.7960   37.3770 H   0  0  0  0  0  0  0  0  0  0  0  0
   36.7800   26.6070   39.7290 H   0  0  0  0  0  0  0  0  0  0  0  0
   37.6080   27.4950   38.4340 H   0  0  0  0  0  0  0  0  0  0  0  0
   35.6020   28.7850   40.2450 H   0  0  0  0  0  0  0  0  0  0  0  0
   38.1910   30.5060   38.8900 C   0  0  0  0  0  0  0  0  0  0  0  0
   38.8310   31.6760   39.2730 C   0  0  0  0  0  0  0  0  0  0  0  0
   40.1040   31.8760   38.8020 C   0  0  0  0  0  0  0  0  0  0  0  0
   40.6770   30.9190   37.9850 N   0  0  0  0  0  0  0  0  0  0  0  0
   40.0210   29.7970   37.6390 C   0  0  0  0  0  0  0  0  0  0  0  0
   38.7390   29.5790   38.1010 N   0  0  0  0  0  0  0  0  0  0  0  0
   40.6140   32.7840   39.0900 H   0  0  0  0  0  0  0  0  0  0  0  0
   40.6100   29.1450   36.9920 H   0  0  0  0  0  0  0  0  0  0  0  0
   38.2310   32.6680   40.2120 C   0  0  0  0  0  0  0  0  0  0  0  0
   38.4860   34.0430   40.1640 C   0  0  0  0  0  0  0  0  0  0  0  0
   37.2200   33.7140   39.5100 C   0  0  0  0  0  0  0  0  0  0  0  0
   37.5080   32.1080   40.9020 H   0  0  0  0  0  0  0  0  0  0  0  0
   38.4350   34.6380   41.1240 H   0  0  0  0  0  0  0  0  0  0  0  0
   39.3410   34.4450   39.5450 H   0  0  0  0  0  0  0  0  0  0  0  0
   37.2280   33.6170   38.4050 H   0  0  0  0  0  0  0  0  0  0  0  0
   36.2900   33.9050   40.0430 H   0  0  0  0  0  0  0  0  0  0  0  0
   37.2890   28.6080   41.2880 C   0  0  1  0  0  3  0  0  0  0  0  0
   37.3510   29.6610   42.2940 C   0  0  0  0  0  3  0  0  0  0  0  0
   38.0800   30.4740   42.1590 H   0  0  0  0  0  0  0  0  0  0  0  0
   38.0040   28.8150   43.4120 C   0  0  0  0  0  3  0  0  0  0  0  0
   37.7750   29.2040   44.4100 H   0  0  0  0  0  0  0  0  0  0  0  0
   37.4970   27.5380   43.2570 O   0  0  0  0  0  0  0  0  0  0  0  0
   36.7010   27.4910   42.1300 C   0  0  0  0  0  3  0  0  0  0  0  0
   35.6760   27.7990   42.4330 H   0  0  0  0  0  0  0  0  0  0  0  0
  1  7  1  1  0  0  0
  1  6  1  0  0  0  0
  2  3  1  0  0  0  0
  2  1  1  0  0  0  0
  3  4  1  0  0  0  0
  3 10  1  0  0  0  0
  4 12  1  0  0  0  0
  4  5  1  0  0  0  0
  5 14  1  0  0  0  0
  5  6  1  0  0  0  0
  6 16  1  1  0  0  0
  6 33  1  0  0  0  0
  8  2  1  0  0  0  0
  9  2  1  0  0  0  0
 11  3  1  0  0  0  0
 13  4  1  0  0  0  0
 15  5  1  0  0  0  0
 17  1  1  0  0  0  0
 17 18  1  0  0  0  0
 18 25  1  0  0  0  0
 19 23  1  0  0  0  0
 19 18  2  0  0  0  0
 20 19  1  0  0  0  0
 21 20  2  0  0  0  0
 21 22  1  0  0  0  0
 22 17  2  0  0  0  0
 24 21  1  0  0  0  0
 25 28  1  0  0  0  0
 26 25  1  0  0  0  0
 26 29  1  0  0  0  0
 27 32  1  0  0  0  0
 27 26  1  0  0  0  0
 27 25  1  0  0  0  0
 30 26  1  0  0  0  0
 31 27  1  0  0  0  0
 33 39  1  1  0  0  0
 33 34  1  0  0  0  0
 34 36  1  0  0  0  0
 35 34  1  0  0  0  0
 36 37  1  0  0  0  0
 38 36  1  0  0  0  0
 39 40  1  0  0  0  0
 39 38  1  0  0  0  0
M  END
>  <minimizedAffinity>
-4.92153931

$$$$

 OpenBabel03252503393D

 40 43  0  0  1  0  0  0  0  0999 V2000
   37.3210   28.7970   38.7400 C   0  0  1  0  0  0  0  0  0  0  0  0
   36.1600   27.7070   38.6490 C   0  0  0  0  0  0  0  0  0  0  0  0
   34.8560   28.3720   38.3570 C   0  0  0  0  0  0  0  0  0  0  0  0
   34.3650   29.1760   39.5350 C   0  0  0  0  0  0  0  0  0  0  0  0
   35.5670   29.7380   40.2640 C   0  0  0  0  0  0  0  0  0  0  0  0
   36.7180   29.9900   39.2930 C   0  0  1  0  0  0  0  0  0  0  0  0
   37.6330   28.7910   37.6770 H   0  0  0  0  0  0  0  0  0  0  0  0
   36.3990   26.9870   37.8600 H   0  0  0  0  0  0  0  0  0  0  0  0
   36.1220   27.2460   39.6440 H   0  0  0  0  0  0  0  0  0  0  0  0
   34.9340   29.0110   37.4370 H   0  0  0  0  0  0  0  0  0  0  0  0
   34.1310   27.5970   38.1260 H   0  0  0  0  0  0  0  0  0  0  0  0
   33.8090   30.0480   39.1260 H   0  0  0  0  0  0  0  0  0  0  0  0
   33.7000   28.6080   40.1970 H   0  0  0  0  0  0  0  0  0  0  0  0
   35.2590   30.6710   40.7540 H   0  0  0  0  0  0  0  0  0  0  0  0
   35.8810   29.0390   41.0680 H   0  0  0  0  0  0  0  0  0  0  0  0
   36.1170   30.3660   38.3940 H   0  0  0  0  0  0  0  0  0  0  0  0
   38.4060   28.1300   39.5160 C   0  0  0  0  0  0  0  0  0  0  0  0
   38.3350   27.3620   40.6700 C   0  0  0  0  0  0  0  0  0  0  0  0
   39.5150   26.8730   41.1700 C   0  0  0  0  0  0  0  0  0  0  0  0
   40.6960   27.1610   40.5110 N   0  0  0  0  0  0  0  0  0  0  0  0
   40.7200   27.9090   39.3940 C   0  0  0  0  0  0  0  0  0  0  0  0
   39.5440   28.4110   38.8760 N   0  0  0  0  0  0  0  0  0  0  0  0
   39.4740   26.2760   42.0700 H   0  0  0  0  0  0  0  0  0  0  0  0
   41.7270   28.0420   38.9970 H   0  0  0  0  0  0  0  0  0  0  0  0
   37.0480   26.9980   41.3320 C   0  0  0  0  0  0  0  0  0  0  0  0
   36.9620   26.2500   42.5110 C   0  0  0  0  0  0  0  0  0  0  0  0
   36.8340   27.6820   42.7790 C   0  0  0  0  0  0  0  0  0  0  0  0
   36.1970   27.4850   40.7410 H   0  0  0  0  0  0  0  0  0  0  0  0
   36.0460   25.6070   42.6800 H   0  0  0  0  0  0  0  0  0  0  0  0
   37.8620   25.6910   42.9020 H   0  0  0  0  0  0  0  0  0  0  0  0
   37.7440   28.2190   43.1210 H   0  0  0  0  0  0  0  0  0  0  0  0
   35.8440   28.0940   42.9670 H   0  0  0  0  0  0  0  0  0  0  0  0
   37.5000   31.1860   39.5690 C   0  0  1  0  0  3  0  0  0  0  0  0
   37.1010   32.5380   39.1960 C   0  0  0  0  0  3  0  0  0  0  0  0
   37.1680   32.8320   38.1380 H   0  0  0  0  0  0  0  0  0  0  0  0
   38.3130   33.2700   39.8180 C   0  0  0  0  0  3  0  0  0  0  0  0
   38.0780   34.3080   40.0790 H   0  0  0  0  0  0  0  0  0  0  0  0
   38.6440   32.5460   40.9490 O   0  0  0  0  0  0  0  0  0  0  0  0
   37.8490   31.4200   41.0270 C   0  0  0  0  0  3  0  0  0  0  0  0
   36.9150   31.7090   41.5560 H   0  0  0  0  0  0  0  0  0  0  0  0
  1  7  1  6  0  0  0
  1  6  1  0  0  0  0
  1 17  1  0  0  0  0
  2  1  1  0  0  0  0
  2  9  1  0  0  0  0
  3  2  1  0  0  0  0
  3  4  1  0  0  0  0
  4 13  1  0  0  0  0
  4  5  1  0  0  0  0
  5 14  1  0  0  0  0
  5 15  1  0  0  0  0
  6 16  1  6  0  0  0
  6 33  1  0  0  0  0
  6  5  1  0  0  0  0
  8  2  1  0  0  0  0
 10  3  1  0  0  0  0
 11  3  1  0  0  0  0
 12  4  1  0  0  0  0
 17 18  1  0  0  0  0
 18 19  2  0  0  0  0
 18 25  1  0  0  0  0
 19 23  1  0  0  0  0
 20 19  1  0  0  0  0
 21 20  2  0  0  0  0
 22 21  1  0  0  0  0
 22 17  2  0  0  0  0
 24 21  1  0  0  0  0
 25 26  1  0  0  0  0
 25 27  1  0  0  0  0
 26 29  1  0  0  0  0
 26 27  1  0  0  0  0
 26 30  1  0  0  0  0
 27 32  1  0  0  0  0
 27 31  1  0  0  0  0
 28 25  1  0  0  0  0
 33 34  1  1  0  0  0
 33 39  1  0  0  0  0
 34 36  1  0  0  0  0
 35 34  1  0  0  0  0
 36 37  1  0  0  0  0
 36 38  1  0  0  0  0
 38 39  1  0  0  0  0
 39 40  1  0  0  0  0
M  END
>  <minimizedAffinity>
-4.92133379

$$$$

 OpenBabel03252503393D

 40 43  0  0  1  0  0  0  0  0999 V2000
   37.3130   30.0260   40.3580 C   0  0  1  0  0  0  0  0  0  0  0  0
   38.0790   31.3800   40.7070 C   0  0  0  0  0  0  0  0  0  0  0  0
   37.3000   32.5520   40.2090 C   0  0  0  0  0  0  0  0  0  0  0  0
   37.3130   32.6280   38.7030 C   0  0  0  0  0  0  0  0  0  0  0  0
   37.3490   31.2180   38.1530 C   0  0  0  0  0  0  0  0  0  0  0  0
   36.6390   30.2520   39.0980 C   0  0  1  0  0  0  0  0  0  0  0  0
   36.7120   29.9350   41.2850 H   0  0  0  0  0  0  0  0  0  0  0  0
   38.2130   31.4520   41.7920 H   0  0  0  0  0  0  0  0  0  0  0  0
   39.0320   31.3170   40.1680 H   0  0  0  0  0  0  0  0  0  0  0  0
   36.2490   32.5260   40.6030 H   0  0  0  0  0  0  0  0  0  0  0  0
   37.7530   33.4510   40.6170 H   0  0  0  0  0  0  0  0  0  0  0  0
   36.3380   33.0630   38.3900 H   0  0  0  0  0  0  0  0  0  0  0  0
   38.1240   33.2530   38.3100 H   0  0  0  0  0  0  0  0  0  0  0  0
   36.8640   31.2270   37.1680 H   0  0  0  0  0  0  0  0  0  0  0  0
   38.4020   30.9030   37.9930 H   0  0  0  0  0  0  0  0  0  0  0  0
   35.7760   30.9270   39.4320 H   0  0  0  0  0  0  0  0  0  0  0  0
   38.3640   28.9700   40.4160 C   0  0  0  0  0  0  0  0  0  0  0  0
   38.2950   27.6680   40.8910 C   0  0  0  0  0  0  0  0  0  0  0  0
   39.4390   26.9140   40.8210 C   0  0  0  0  0  0  0  0  0  0  0  0
   40.5840   27.4770   40.2890 N   0  0  0  0  0  0  0  0  0  0  0  0
   40.6080   28.7440   39.8390 C   0  0  0  0  0  0  0  0  0  0  0  0
   39.4670   29.5180   39.9020 N   0  0  0  0  0  0  0  0  0  0  0  0
   39.4000   25.8990   41.1900 H   0  0  0  0  0  0  0  0  0  0  0  0
   41.5840   29.0360   39.4500 H   0  0  0  0  0  0  0  0  0  0  0  0
   37.0350   27.0480   41.3970 C   0  0  0  0  0  0  0  0  0  0  0  0
   36.9960   26.0510   42.3780 C   0  0  0  0  0  0  0  0  0  0  0  0
   36.7190   27.3680   42.9490 C   0  0  0  0  0  0  0  0  0  0  0  0
   36.1540   27.5740   40.8900 H   0  0  0  0  0  0  0  0  0  0  0  0
   36.1460   25.3040   42.3590 H   0  0  0  0  0  0  0  0  0  0  0  0
   37.9380   25.5040   42.6770 H   0  0  0  0  0  0  0  0  0  0  0  0
   37.5620   27.8970   43.4410 H   0  0  0  0  0  0  0  0  0  0  0  0
   35.6890   27.6340   43.1770 H   0  0  0  0  0  0  0  0  0  0  0  0
   35.8740   29.2030   38.4400 C   0  0  1  0  0  3  0  0  0  0  0  0
   34.4810   28.8860   38.7350 C   0  0  0  0  0  3  0  0  0  0  0  0
   34.2520   28.3580   39.6730 H   0  0  0  0  0  0  0  0  0  0  0  0
   34.3150   27.7690   37.6790 C   0  0  0  0  0  3  0  0  0  0  0  0
   33.2710   27.6480   37.3690 H   0  0  0  0  0  0  0  0  0  0  0  0
   35.1010   28.1510   36.6070 O   0  0  0  0  0  0  0  0  0  0  0  0
   35.7920   29.3020   36.9280 C   0  0  0  0  0  3  0  0  0  0  0  0
   35.1370   30.1640   36.6790 H   0  0  0  0  0  0  0  0  0  0  0  0
  1 17  1  0  0  0  0
  1  2  1  0  0  0  0
  1  7  1  1  0  0  0
  2  8  1  0  0  0  0
  3 10  1  0  0  0  0
  3 11  1  0  0  0  0
  3  2  1  0  0  0  0
  4  3  1  0  0  0  0
  5  4  1  0  0  0  0
  5  6  1  0  0  0  0
  6 16  1  1  0  0  0
  6  1  1  0  0  0  0
  9  2  1  0  0  0  0
 12  4  1  0  0  0  0
 13  4  1  0  0  0  0
 14  5  1  0  0  0  0
 15  5  1  0  0  0  0
 17 18  1  0  0  0  0
 18 25  1  0  0  0  0
 19 18  2  0  0  0  0
 19 23  1  0  0  0  0
 20 19  1  0  0  0  0
 21 22  1  0  0  0  0
 21 20  2  0  0  0  0
 22 17  2  0  0  0  0
 24 21  1  0  0  0  0
 25 26  1  0  0  0  0
 25 27  1  0  0  0  0
 26 30  1  0  0  0  0
 26 27  1  0  0  0  0
 27 32  1  0  0  0  0
 27 31  1  0  0  0  0
 28 25  1  0  0  0  0
 29 26  1  0  0  0  0
 33 39  1  6  0  0  0
 33 34  1  0  0  0  0
 33  6  1  0  0  0  0
 34 35  1  0  0  0  0
 36 34  1  0  0  0  0
 37 36  1  0  0  0  0
 38 39  1  0  0  0  0
 38 36  1  0  0  0  0
 40 39  1  0  0  0  0
M  END
>  <minimizedAffinity>
-4.88699865

$$$$

 OpenBabel03252503393D

 40 43  0  0  1  0  0  0  0  0999 V2000
   38.2020   29.0280   42.5810 C   0  0  1  0  0  0  0  0  0  0  0  0
   36.7930   28.4190   43.0150 C   0  0  0  0  0  0  0  0  0  0  0  0
   36.9750   27.0360   43.5450 C   0  0  0  0  0  0  0  0  0  0  0  0
   37.3490   26.0660   42.4520 C   0  0  0  0  0  0  0  0  0  0  0  0
   38.1890   26.8010   41.4290 C   0  0  0  0  0  0  0  0  0  0  0  0
   38.9910   27.9190   42.0910 C   0  0  1  0  0  0  0  0  0  0  0  0
   38.4770   29.5050   43.5420 H   0  0  0  0  0  0  0  0  0  0  0  0
   36.3420   29.0590   43.7810 H   0  0  0  0  0  0  0  0  0  0  0  0
   36.2000   28.3840   42.0930 H   0  0  0  0  0  0  0  0  0  0  0  0
   37.7340   27.0240   44.3730 H   0  0  0  0  0  0  0  0  0  0  0  0
   36.0360   26.7250   43.9930 H   0  0  0  0  0  0  0  0  0  0  0  0
   38.0120   25.2990   42.9110 H   0  0  0  0  0  0  0  0  0  0  0  0
   36.4830   25.5670   42.0040 H   0  0  0  0  0  0  0  0  0  0  0  0
   38.8570   26.0710   40.9530 H   0  0  0  0  0  0  0  0  0  0  0  0
   37.5350   27.2110   40.6300 H   0  0  0  0  0  0  0  0  0  0  0  0
   39.2590   27.3930   43.0720 H   0  0  0  0  0  0  0  0  0  0  0  0
   37.8630   30.1270   41.6310 C   0  0  0  0  0  0  0  0  0  0  0  0
   36.7920   30.2510   40.7560 C   0  0  0  0  0  0  0  0  0  0  0  0
   36.7400   31.3870   39.9900 C   0  0  0  0  0  0  0  0  0  0  0  0
   37.7350   32.3380   40.1250 N   0  0  0  0  0  0  0  0  0  0  0  0
   38.7550   32.1780   40.9860 C   0  0  0  0  0  0  0  0  0  0  0  0
   38.8260   31.0410   41.7650 N   0  0  0  0  0  0  0  0  0  0  0  0
   35.9130   31.4960   39.3020 H   0  0  0  0  0  0  0  0  0  0  0  0
   39.4530   33.0160   40.9740 H   0  0  0  0  0  0  0  0  0  0  0  0
   35.6870   29.2530   40.6710 C   0  0  0  0  0  0  0  0  0  0  0  0
   34.7070   29.2580   39.6710 C   0  0  0  0  0  0  0  0  0  0  0  0
   35.7640   28.2920   39.3750 C   0  0  0  0  0  0  0  0  0  0  0  0
   35.8350   28.4880   41.5090 H   0  0  0  0  0  0  0  0  0  0  0  0
   33.6810   28.8470   39.9150 H   0  0  0  0  0  0  0  0  0  0  0  0
   34.5760   30.1580   39.0020 H   0  0  0  0  0  0  0  0  0  0  0  0
   36.5620   28.6100   38.6720 H   0  0  0  0  0  0  0  0  0  0  0  0
   35.5740   27.2350   39.5560 H   0  0  0  0  0  0  0  0  0  0  0  0
   40.3310   28.1100   41.5550 C   0  0  1  0  0  3  0  0  0  0  0  0
   41.4750   28.5690   42.3350 C   0  0  0  0  0  3  0  0  0  0  0  0
   41.5220   29.6300   42.6220 H   0  0  0  0  0  0  0  0  0  0  0  0
   42.5210   28.4880   41.1990 C   0  0  0  0  0  3  0  0  0  0  0  0
   43.5380   28.3520   41.5840 H   0  0  0  0  0  0  0  0  0  0  0  0
   42.1440   27.4080   40.4220 O   0  0  0  0  0  0  0  0  0  0  0  0
   40.9520   26.8950   40.8910 C   0  0  0  0  0  3  0  0  0  0  0  0
   41.1970   26.1610   41.6890 H   0  0  0  0  0  0  0  0  0  0  0  0
  1  2  1  0  0  0  0
  1  7  1  1  0  0  0
  2  3  1  0  0  0  0
  2  8  1  0  0  0  0
  3 11  1  0  0  0  0
  3 10  1  0  0  0  0
  4 12  1  0  0  0  0
  4  3  1  0  0  0  0
  5  6  1  0  0  0  0
  5  4  1  0  0  0  0
  6  1  1  0  0  0  0
  6 16  1  1  0  0  0
  9  2  1  0  0  0  0
 13  4  1  0  0  0  0
 14  5  1  0  0  0  0
 15  5  1  0  0  0  0
 17 22  1  0  0  0  0
 17  1  1  0  0  0  0
 18 17  2  0  0  0  0
 19 20  2  0  0  0  0
 19 18  1  0  0  0  0
 20 21  1  0  0  0  0
 21 22  2  0  0  0  0
 23 19  1  0  0  0  0
 24 21  1  0  0  0  0
 25 18  1  0  0  0  0
 25 28  1  0  0  0  0
 26 29  1  0  0  0  0
 26 25  1  0  0  0  0
 27 32  1  0  0  0  0
 27 26  1  0  0  0  0
 27 25  1  0  0  0  0
 30 26  1  0  0  0  0
 31 27  1  0  0  0  0
 33 39  1  1  0  0  0
 33  6  1  0  0  0  0
 33 34  1  0  0  0  0
 34 35  1  0  0  0  0
 36 37  1  0  0  0  0
 36 34  1  0  0  0  0
 38 39  1  0  0  0  0
 38 36  1  0  0  0  0
 39 40  1  0  0  0  0
M  END
>  <minimizedAffinity>
-4.80903578

$$$$

 OpenBabel03252503393D

 40 43  0  0  1  0  0  0  0  0999 V2000
   37.5420   28.2140   40.6030 C   0  0  1  0  0  0  0  0  0  0  0  0
   37.3700   29.5200   41.5020 C   0  0  0  0  0  0  0  0  0  0  0  0
   38.0620   29.3340   42.8110 C   0  0  0  0  0  0  0  0  0  0  0  0
   37.3490   28.3270   43.6790 C   0  0  0  0  0  0  0  0  0  0  0  0
   36.7330   27.2750   42.7820 C   0  0  0  0  0  0  0  0  0  0  0  0
   37.5640   27.0910   41.5150 C   0  0  1  0  0  0  0  0  0  0  0  0
   38.4730   28.5010   40.0750 H   0  0  0  0  0  0  0  0  0  0  0  0
   37.7900   30.3820   40.9740 H   0  0  0  0  0  0  0  0  0  0  0  0
   36.2890   29.6120   41.6680 H   0  0  0  0  0  0  0  0  0  0  0  0
   39.1360   29.0450   42.6550 H   0  0  0  0  0  0  0  0  0  0  0  0
   38.0790   30.2950   43.3180 H   0  0  0  0  0  0  0  0  0  0  0  0
   38.1280   27.8100   44.2830 H   0  0  0  0  0  0  0  0  0  0  0  0
   36.6180   28.7830   44.3570 H   0  0  0  0  0  0  0  0  0  0  0  0
   36.6760   26.3370   43.3510 H   0  0  0  0  0  0  0  0  0  0  0  0
   35.6910   27.5620   42.5270 H   0  0  0  0  0  0  0  0  0  0  0  0
   38.6110   27.2000   41.9680 H   0  0  0  0  0  0  0  0  0  0  0  0
   36.4350   28.2910   39.6060 C   0  0  0  0  0  0  0  0  0  0  0  0
   36.3980   27.8810   38.2810 C   0  0  0  0  0  0  0  0  0  0  0  0
   35.2280   28.0860   37.5960 C   0  0  0  0  0  0  0  0  0  0  0  0
   34.1600   28.6770   38.2460 N   0  0  0  0  0  0  0  0  0  0  0  0
   34.2380   29.0590   39.5330 C   0  0  0  0  0  0  0  0  0  0  0  0
   35.4080   28.8630   40.2390 N   0  0  0  0  0  0  0  0  0  0  0  0
   35.1860   27.7740   36.5620 H   0  0  0  0  0  0  0  0  0  0  0  0
   33.3130   29.5070   39.8980 H   0  0  0  0  0  0  0  0  0  0  0  0
   37.5310   27.1800   37.6100 C   0  0  0  0  0  0  0  0  0  0  0  0
   37.8020   27.2670   36.2410 C   0  0  0  0  0  0  0  0  0  0  0  0
   38.6570   28.1690   37.0100 C   0  0  0  0  0  0  0  0  0  0  0  0
   38.1370   26.6360   38.4160 H   0  0  0  0  0  0  0  0  0  0  0  0
   38.3000   26.3890   35.7290 H   0  0  0  0  0  0  0  0  0  0  0  0
   37.0360   27.6990   35.5320 H   0  0  0  0  0  0  0  0  0  0  0  0
   38.3480   29.2330   37.0730 H   0  0  0  0  0  0  0  0  0  0  0  0
   39.6900   27.8800   37.1960 H   0  0  0  0  0  0  0  0  0  0  0  0
   37.6580   25.7180   41.0390 C   0  0  1  0  0  3  0  0  0  0  0  0
   38.8550   25.1270   40.4530 C   0  0  0  0  0  3  0  0  0  0  0  0
   39.1370   25.4200   39.4300 H   0  0  0  0  0  0  0  0  0  0  0  0
   38.2790   23.7070   40.2420 C   0  0  0  0  0  3  0  0  0  0  0  0
   39.0630   22.9430   40.2260 H   0  0  0  0  0  0  0  0  0  0  0  0
   37.4120   23.4970   41.2980 O   0  0  0  0  0  0  0  0  0  0  0  0
   37.3220   24.6460   42.0580 C   0  0  0  0  0  3  0  0  0  0  0  0
   38.1450   24.6170   42.8040 H   0  0  0  0  0  0  0  0  0  0  0  0
  1  7  1  6  0  0  0
  1  2  1  0  0  0  0
  1  6  1  0  0  0  0
  2  9  1  0  0  0  0
  2  3  1  0  0  0  0
  3 11  1  0  0  0  0
  3  4  1  0  0  0  0
  4 12  1  0  0  0  0
  4 13  1  0  0  0  0
  5 14  1  0  0  0  0
  5  4  1  0  0  0  0
  6 16  1  1  0  0  0
  6  5  1  0  0  0  0
  8  2  1  0  0  0  0
 10  3  1  0  0  0  0
 15  5  1  0  0  0  0
 17 22  1  0  0  0  0
 17  1  1  0  0  0  0
 18 17  2  0  0  0  0
 19 20  2  0  0  0  0
 19 18  1  0  0  0  0
 20 21  1  0  0  0  0
 21 24  1  0  0  0  0
 21 22  2  0  0  0  0
 23 19  1  0  0  0  0
 25 18  1  0  0  0  0
 25 28  1  0  0  0  0
 26 27  1  0  0  0  0
 26 25  1  0  0  0  0
 27 31  1  0  0  0  0
 27 32  1  0  0  0  0
 27 25  1  0  0  0  0
 29 26  1  0  0  0  0
 30 26  1  0  0  0  0
 33 34  1  1  0  0  0
 33  6  1  0  0  0  0
 33 39  1  0  0  0  0
 35 34  1  0  0  0  0
 36 34  1  0  0  0  0
 36 38  1  0  0  0  0
 37 36  1  0  0  0  0
 38 39  1  0  0  0  0
 39 40  1  0  0  0  0
M  END
>  <minimizedAffinity>
-4.7495842

$$$$
