
 OpenBabel03252505583D

 35 37  0  0  1  0  0  0  0  0999 V2000
   44.6920   35.3610   45.2170 C   0  0  0  0  0  0  0  0  0  0  0  0
   45.4330   34.8420   44.1340 C   0  0  0  0  0  0  0  0  0  0  0  0
   46.1300   33.6620   44.3560 C   0  0  0  0  0  0  0  0  0  0  0  0
   46.0590   33.0900   45.5780 N   0  0  0  0  0  0  0  0  0  0  0  0
   45.3470   33.6100   46.5780 C   0  0  0  0  0  0  0  0  0  0  0  0
   44.6660   34.7370   46.4040 N   0  0  0  0  0  0  0  0  0  0  0  0
   44.1440   36.2800   45.0530 H   0  0  0  0  0  0  0  0  0  0  0  0
   46.9450   32.9540   43.3880 C   0  0  2  0  0  3  0  0  0  0  0  0
   45.9930   32.0530   42.5790 C   0  0  0  0  0  3  0  0  0  0  0  0
   45.9390   32.3490   41.5130 H   0  0  0  0  0  0  0  0  0  0  0  0
   46.5360   30.6650   42.6780 C   0  0  0  0  0  3  0  0  0  0  0  0
   45.7620   29.8810   42.6520 H   0  0  0  0  0  0  0  0  0  0  0  0
   47.0550   30.6830   43.9730 O   0  0  0  0  0  0  0  0  0  0  0  0
   47.7890   31.8660   44.0370 C   0  0  0  0  0  3  0  0  0  0  0  0
   48.7010   31.7390   43.4220 H   0  0  0  0  0  0  0  0  0  0  0  0
   45.4350   35.5580   42.8400 C   0  0  0  0  0  0  0  0  0  0  0  0
   44.9000   36.8100   43.1430 F   0  0  0  0  0  0  0  0  0  0  0  0
   44.5060   34.9110   42.0220 F   0  0  0  0  0  0  0  0  0  0  0  0
   46.6620   35.6590   42.3420 F   0  0  0  0  0  0  0  0  0  0  0  0
   45.2770   33.0160   47.8360 O   0  0  0  0  0  0  0  0  0  0  0  0
   44.7390   31.7170   47.9850 C   0  0  0  0  0  0  0  0  0  0  0  0
   44.3550   31.6440   49.0310 H   0  0  0  0  0  0  0  0  0  0  0  0
   43.8830   31.5150   47.3190 H   0  0  0  0  0  0  0  0  0  0  0  0
   45.8510   30.7600   47.8500 C   0  0  0  0  0  0  0  0  0  0  0  0
   45.9280   29.5750   47.1310 C   0  0  0  0  0  0  0  0  0  0  0  0
   47.0910   28.8730   47.1810 C   0  0  0  0  0  0  0  0  0  0  0  0
   48.1420   29.2820   47.8870 N   0  0  0  0  0  0  0  0  0  0  0  0
   48.0620   30.4260   48.5790 C   0  0  0  0  0  0  0  0  0  0  0  0
   46.9190   31.1780   48.5690 N   0  0  0  0  0  0  0  0  0  0  0  0
   45.0250   29.3590   46.6090 H   0  0  0  0  0  0  0  0  0  0  0  0
   47.0810   27.9560   46.5940 H   0  0  0  0  0  0  0  0  0  0  0  0
   49.2810   30.7970   49.3320 C   0  0  0  0  0  0  0  0  0  0  0  0
   49.4140   32.1660   49.4370 F   0  0  0  0  0  0  0  0  0  0  0  0
   50.4150   30.2930   48.6900 F   0  0  0  0  0  0  0  0  0  0  0  0
   49.2830   30.2790   50.6120 F   0  0  0  0  0  0  0  0  0  0  0  0
  1  6  1  0  0  0  0
  2  3  1  0  0  0  0
  2  1  2  0  0  0  0
  3  4  2  0  0  0  0
  4  5  1  0  0  0  0
  5 20  1  0  0  0  0
  6  5  2  0  0  0  0
  7  1  1  0  0  0  0
  8 14  1  0  0  0  0
  8  3  1  1  0  0  0
  9 11  1  0  0  0  0
  9  8  1  0  0  0  0
 10  9  1  0  0  0  0
 11 13  1  0  0  0  0
 12 11  1  0  0  0  0
 13 14  1  0  0  0  0
 15 14  1  0  0  0  0
 16 17  1  0  0  0  0
 16  2  1  0  0  0  0
 18 16  1  0  0  0  0
 19 16  1  0  0  0  0
 20 21  1  0  0  0  0
 21 22  1  0  0  0  0
 23 21  1  0  0  0  0
 24 21  1  0  0  0  0
 24 29  1  0  0  0  0
 25 26  1  0  0  0  0
 25 24  2  0  0  0  0
 26 27  2  0  0  0  0
 27 28  1  0  0  0  0
 28 32  1  0  0  0  0
 29 28  2  0  0  0  0
 30 25  1  0  0  0  0
 31 26  1  0  0  0  0
 32 33  1  0  0  0  0
 32 35  1  0  0  0  0
 34 32  1  0  0  0  0
M  END
>  <minimizedAffinity>
-5.55646563

>  <minimizedRMSD>
0.928928614

$$$$
