
 OpenBabel03242516353D

 43 46  0  0  1  0  0  0  0  0999 V2000
   47.7590   33.9170   39.7330 O   0  0  0  0  0  0  0  0  0  0  0  0
   48.0260   34.6680   41.9620 C   0  0  2  0  0  0  0  0  0  0  0  0
   46.7140   33.8850   42.2420 C   0  0  1  0  0  0  0  0  0  0  0  0
   47.2500   32.6710   42.5550 O   0  0  0  0  0  0  0  0  0  0  0  0
   48.1280   32.4040   41.4850 C   0  0  0  0  0  0  0  0  0  0  0  0
   48.5120   33.7630   40.8540 C   0  0  1  0  0  0  0  0  0  0  0  0
   47.8190   35.6860   41.6330 H   0  0  0  0  0  0  0  0  0  0  0  0
   46.1800   33.9710   41.2790 H   0  0  0  0  0  0  0  0  0  0  0  0
   47.6340   31.7540   40.7300 H   0  0  0  0  0  0  0  0  0  0  0  0
   49.0400   31.9820   41.9220 H   0  0  0  0  0  0  0  0  0  0  0  0
   49.5980   33.8740   40.7070 H   0  0  0  0  0  0  0  0  0  0  0  0
   44.5190   36.0610   44.4570 C   0  0  0  0  0  0  0  0  0  0  0  0
   45.1810   35.6820   43.2860 C   0  0  0  0  0  0  0  0  0  0  0  0
   45.9420   34.5280   43.3130 C   0  0  0  0  0  0  0  0  0  0  0  0
   45.9950   33.8310   44.5000 N   0  0  0  0  0  0  0  0  0  0  0  0
   45.3460   34.2240   45.6080 C   0  0  0  0  0  0  0  0  0  0  0  0
   44.6040   35.3480   45.5820 N   0  0  0  0  0  0  0  0  0  0  0  0
   43.9460   36.9740   44.3570 H   0  0  0  0  0  0  0  0  0  0  0  0
   45.1910   36.1600   42.3380 H   0  0  0  0  0  0  0  0  0  0  0  0
   45.4080   33.6530   46.5240 H   0  0  0  0  0  0  0  0  0  0  0  0
   48.9030   34.5320   42.9960 O   0  0  0  0  0  0  0  0  0  0  0  0
   49.0990   35.4000   43.4540 H   0  0  0  0  0  0  0  0  0  0  0  0
   49.1470   32.9420   38.1000 C   0  0  1  0  0  0  0  0  0  0  0  0
   48.4400   34.3090   38.5840 C   0  0  1  0  0  0  0  0  0  0  0  0
   47.5680   34.4320   37.5670 O   0  0  0  0  0  0  0  0  0  0  0  0
   46.8610   33.2120   37.6910 C   0  0  0  0  0  0  0  0  0  0  0  0
   47.9650   32.2280   37.5080 C   0  0  1  0  0  0  0  0  0  0  0  0
   49.6390   32.4830   38.9340 H   0  0  0  0  0  0  0  0  0  0  0  0
   49.3230   34.9190   38.7360 H   0  0  0  0  0  0  0  0  0  0  0  0
   46.0380   33.1420   36.9750 H   0  0  0  0  0  0  0  0  0  0  0  0
   46.4060   33.0760   38.6870 H   0  0  0  0  0  0  0  0  0  0  0  0
   47.8420   31.2820   38.0980 H   0  0  0  0  0  0  0  0  0  0  0  0
   49.9600   33.3350   37.0310 O   0  0  0  0  0  0  0  0  0  0  0  0
   50.9090   33.2240   37.2960 H   0  0  0  0  0  0  0  0  0  0  0  0
   48.1460   31.8900   36.2140 O   0  0  0  0  0  0  0  0  0  0  0  0
   47.0840   31.5690   35.4460 C   0  0  1  0  0  3  0  0  0  0  0  0
   47.2820   31.7220   33.9510 C   0  0  0  0  0  3  0  0  0  0  0  0
   46.7210   32.5920   33.5480 H   0  0  0  0  0  0  0  0  0  0  0  0
   46.5710   30.4760   33.4190 C   0  0  0  0  0  3  0  0  0  0  0  0
   45.8320   30.7170   32.6290 H   0  0  0  0  0  0  0  0  0  0  0  0
   46.0010   29.8470   34.5240 O   0  0  0  0  0  0  0  0  0  0  0  0
   46.9380   30.0420   35.5120 C   0  0  0  0  0  3  0  0  0  0  0  0
   46.6520   29.6980   36.5030 H   0  0  0  0  0  0  0  0  0  0  0  0
  1  6  1  0  0  0  0
  2  7  1  6  0  0  0
  2  3  1  0  0  0  0
  2 21  1  0  0  0  0
  3  8  1  6  0  0  0
  3  4  1  0  0  0  0
  3 14  1  0  0  0  0
  5 10  1  0  0  0  0
  5  4  1  0  0  0  0
  6 11  1  6  0  0  0
  6  5  1  0  0  0  0
  6  2  1  0  0  0  0
  9  5  1  0  0  0  0
 12 17  1  0  0  0  0
 13 14  1  0  0  0  0
 13 12  2  0  0  0  0
 14 15  2  0  0  0  0
 15 16  1  0  0  0  0
 16 20  1  0  0  0  0
 17 16  2  0  0  0  0
 18 12  1  0  0  0  0
 19 13  1  0  0  0  0
 21 22  1  0  0  0  0
 23 24  1  0  0  0  0
 23 28  1  1  0  0  0
 24 29  1  1  0  0  0
 24  1  1  0  0  0  0
 25 26  1  0  0  0  0
 25 24  1  0  0  0  0
 26 31  1  0  0  0  0
 27 26  1  0  0  0  0
 27 32  1  1  0  0  0
 27 23  1  0  0  0  0
 30 26  1  0  0  0  0
 33 34  1  0  0  0  0
 33 23  1  0  0  0  0
 35 27  1  0  0  0  0
 36 42  1  0  0  0  0
 36 35  1  1  0  0  0
 37 36  1  0  0  0  0
 38 37  1  0  0  0  0
 39 37  1  0  0  0  0
 39 41  1  0  0  0  0
 40 39  1  0  0  0  0
 41 42  1  0  0  0  0
 42 43  1  0  0  0  0
M  END
>  <minimizedAffinity>
-5.37748957

>  <minimizedRMSD>
1.05085731

$$$$
