
 OpenBabel03252501163D

 34 37  0  0  1  0  0  0  0  0999 V2000
   46.4050   33.0480   44.2550 C   0  0  1  0  0  0  0  0  0  0  0  0
   45.1520   33.4980   43.6170 C   0  0  0  0  0  0  0  0  0  0  0  0
   46.4400   34.4000   43.6980 C   0  0  2  0  0  0  0  0  0  0  0  0
   47.0190   32.2430   43.7700 H   0  0  0  0  0  0  0  0  0  0  0  0
   44.3090   33.9030   44.1700 H   0  0  0  0  0  0  0  0  0  0  0  0
   44.8950   33.1080   42.6100 H   0  0  0  0  0  0  0  0  0  0  0  0
   46.3440   35.2680   44.3440 H   0  0  0  0  0  0  0  0  0  0  0  0
   47.1490   32.0020   47.7810 C   0  0  0  0  0  0  0  0  0  0  0  0
   47.3170   32.1340   46.4110 C   0  0  0  0  0  0  0  0  0  0  0  0
   46.3390   32.8460   45.7350 C   0  0  0  0  0  0  0  0  0  0  0  0
   45.2890   33.3700   46.4060 N   0  0  0  0  0  0  0  0  0  0  0  0
   45.1670   33.2120   47.7570 C   0  0  0  0  0  0  0  0  0  0  0  0
   46.1110   32.5200   48.4360 N   0  0  0  0  0  0  0  0  0  0  0  0
   48.1550   31.7170   45.8750 H   0  0  0  0  0  0  0  0  0  0  0  0
   44.3110   33.6450   48.2600 H   0  0  0  0  0  0  0  0  0  0  0  0
   48.1990   31.2480   48.5420 C   0  0  0  0  0  0  0  0  0  0  0  0
   47.5880   30.6640   49.6260 F   0  0  0  0  0  0  0  0  0  0  0  0
   49.1100   32.1720   49.0100 F   0  0  0  0  0  0  0  0  0  0  0  0
   48.7830   30.2830   47.7670 F   0  0  0  0  0  0  0  0  0  0  0  0
   47.1240   34.5400   42.3740 C   0  0  0  0  0  0  0  0  0  0  0  0
   48.2550   35.2950   42.0790 C   0  0  0  0  0  0  0  0  0  0  0  0
   48.4250   35.0490   40.7320 C   0  0  0  0  0  0  0  0  0  0  0  0
   47.4410   34.1950   40.2680 C   0  0  0  0  0  0  0  0  0  0  0  0
   46.6940   33.9310   41.3140 O   0  0  0  0  0  0  0  0  0  0  0  0
   48.8210   35.9000   42.7610 H   0  0  0  0  0  0  0  0  0  0  0  0
   49.2190   35.4660   40.1150 H   0  0  0  0  0  0  0  0  0  0  0  0
   47.1910   33.6450   38.9420 C   0  0  1  0  0  3  0  0  0  0  0  0
   48.5570   33.4730   38.2620 C   0  0  0  0  0  3  0  0  0  0  0  0
   49.1610   34.3520   38.4960 H   0  0  0  0  0  0  0  0  0  0  0  0
   49.0320   32.1980   38.9350 C   0  0  0  0  0  3  0  0  0  0  0  0
   49.4720   31.4900   38.2110 H   0  0  0  0  0  0  0  0  0  0  0  0
   47.9640   31.6330   39.5870 O   0  0  0  0  0  0  0  0  0  0  0  0
   46.7940   32.1890   39.0730 C   0  0  0  0  0  3  0  0  0  0  0  0
   45.9630   32.0110   39.7590 H   0  0  0  0  0  0  0  0  0  0  0  0
  1  4  1  6  0  0  0
  1 10  1  0  0  0  0
  2  3  1  0  0  0  0
  2  5  1  0  0  0  0
  2  1  1  0  0  0  0
  3  1  1  0  0  0  0
  3  7  1  1  0  0  0
  6  2  1  0  0  0  0
  8 13  1  0  0  0  0
  8 16  1  0  0  0  0
  9  8  2  0  0  0  0
 10 11  2  0  0  0  0
 10  9  1  0  0  0  0
 11 12  1  0  0  0  0
 12 15  1  0  0  0  0
 12 13  2  0  0  0  0
 14  9  1  0  0  0  0
 16 18  1  0  0  0  0
 16 17  1  0  0  0  0
 19 16  1  0  0  0  0
 20  3  1  0  0  0  0
 21 20  2  0  0  0  0
 21 25  1  0  0  0  0
 22 21  1  0  0  0  0
 23 22  2  0  0  0  0
 23 24  1  0  0  0  0
 24 20  1  0  0  0  0
 26 22  1  0  0  0  0
 27 33  1  0  0  0  0
 27 23  1  1  0  0  0
 28 29  1  0  0  0  0
 28 30  1  0  0  0  0
 28 27  1  0  0  0  0
 30 32  1  0  0  0  0
 31 30  1  0  0  0  0
 33 32  1  0  0  0  0
 33 34  1  0  0  0  0
M  END
>  <minimizedAffinity>
-5.28891516

>  <minimizedRMSD>
3.21230412

$$$$
