
 OpenBabel03252500143D

 37 40  0  0  1  0  0  0  0  0999 V2000
   45.5200   32.3450   40.5230 Cl  0  0  0  0  0  0  0  0  0  0  0  0
   46.8080   33.4590   40.1770 C   0  0  0  0  0  0  0  0  0  0  0  0
   47.3850   34.2050   41.1700 C   0  0  0  0  0  0  0  0  0  0  0  0
   48.4170   35.1050   40.9220 C   0  0  0  0  0  0  0  0  0  0  0  0
   48.8270   35.2030   39.6150 C   0  0  0  0  0  0  0  0  0  0  0  0
   48.2530   34.4550   38.6020 C   0  0  0  0  0  0  0  0  0  0  0  0
   47.2550   33.5930   38.8760 C   0  0  0  0  0  0  0  0  0  0  0  0
   48.8690   35.6880   41.6960 H   0  0  0  0  0  0  0  0  0  0  0  0
   49.6260   35.8950   39.4120 H   0  0  0  0  0  0  0  0  0  0  0  0
   48.5920   34.5470   37.5820 H   0  0  0  0  0  0  0  0  0  0  0  0
   46.8950   32.9020   44.5850 C   0  0  0  0  0  0  0  0  0  0  0  0
   45.9540   33.8090   45.1320 C   0  0  0  0  0  0  0  0  0  0  0  0
   45.5080   34.8500   44.3160 C   0  0  0  0  0  0  0  0  0  0  0  0
   46.0020   34.9310   43.0440 N   0  0  0  0  0  0  0  0  0  0  0  0
   46.8970   34.0520   42.5520 C   0  0  0  0  0  0  0  0  0  0  0  0
   47.3300   33.0550   43.3230 N   0  0  0  0  0  0  0  0  0  0  0  0
   47.2200   32.1050   45.2470 H   0  0  0  0  0  0  0  0  0  0  0  0
   45.5470   33.7740   46.1240 H   0  0  0  0  0  0  0  0  0  0  0  0
   44.5170   35.8700   44.7770 C   0  0  0  0  0  0  0  0  0  0  0  0
   44.9760   37.1290   44.5550 F   0  0  0  0  0  0  0  0  0  0  0  0
   43.3420   35.6820   44.0770 F   0  0  0  0  0  0  0  0  0  0  0  0
   44.3050   35.6360   46.1120 F   0  0  0  0  0  0  0  0  0  0  0  0
   46.6330   32.7920   37.8250 C   0  0  0  0  0  0  0  0  0  0  0  0
   45.5860   33.2510   37.0120 C   0  0  0  0  0  0  0  0  0  0  0  0
   45.2460   32.2350   36.1330 C   0  0  0  0  0  0  0  0  0  0  0  0
   46.1190   31.2100   36.4690 C   0  0  0  0  0  0  0  0  0  0  0  0
   46.9170   31.5550   37.4580 O   0  0  0  0  0  0  0  0  0  0  0  0
   45.1270   34.2300   37.0680 H   0  0  0  0  0  0  0  0  0  0  0  0
   44.5030   32.2190   35.3760 H   0  0  0  0  0  0  0  0  0  0  0  0
   46.1830   29.8870   35.8350 C   0  0  1  0  0  3  0  0  0  0  0  0
   47.4490   29.6930   34.9890 C   0  0  0  0  0  3  0  0  0  0  0  0
   48.3480   29.9270   35.5740 H   0  0  0  0  0  0  0  0  0  0  0  0
   47.3690   28.1670   34.8590 C   0  0  0  0  0  3  0  0  0  0  0  0
   48.3120   27.7270   34.5030 H   0  0  0  0  0  0  0  0  0  0  0  0
   46.9440   27.7080   36.0910 O   0  0  0  0  0  0  0  0  0  0  0  0
   46.3490   28.7410   36.7860 C   0  0  0  0  0  3  0  0  0  0  0  0
   47.0660   29.0520   37.5750 H   0  0  0  0  0  0  0  0  0  0  0  0
  2  1  1  0  0  0  0
  2  3  1  0  0  0  0
  3 15  1  0  0  0  0
  4  3  2  0  0  0  0
  4  8  1  0  0  0  0
  5  4  1  0  0  0  0
  6  7  1  0  0  0  0
  6  5  2  0  0  0  0
  7  2  2  0  0  0  0
  9  5  1  0  0  0  0
 10  6  1  0  0  0  0
 11 12  1  0  0  0  0
 11 17  1  0  0  0  0
 12 18  1  0  0  0  0
 13 19  1  0  0  0  0
 13 12  2  0  0  0  0
 14 13  1  0  0  0  0
 15 14  2  0  0  0  0
 15 16  1  0  0  0  0
 16 11  2  0  0  0  0
 19 22  1  0  0  0  0
 20 19  1  0  0  0  0
 21 19  1  0  0  0  0
 23  7  1  0  0  0  0
 24 28  1  0  0  0  0
 24 23  2  0  0  0  0
 25 26  2  0  0  0  0
 25 24  1  0  0  0  0
 26 27  1  0  0  0  0
 27 23  1  0  0  0  0
 29 25  1  0  0  0  0
 30 26  1  1  0  0  0
 30 36  1  0  0  0  0
 31 32  1  0  0  0  0
 31 30  1  0  0  0  0
 33 31  1  0  0  0  0
 33 35  1  0  0  0  0
 34 33  1  0  0  0  0
 35 36  1  0  0  0  0
 36 37  1  0  0  0  0
M  END
>  <minimizedAffinity>
-5.55756569

>  <minimizedRMSD>
0.222758502

$$$$
