
     RDKit          3D

 39 41  0  0  0  0  0  0  0  0999 V2000
   45.3958   31.3464   47.7381 C   0  0  0  0  0  0  0  0  0  0  0  0
   46.5888   30.4906   47.8608 C   0  0  0  0  0  0  0  0  0  0  0  0
   46.8279   29.2147   47.3682 C   0  0  0  0  0  0  0  0  0  0  0  0
   48.0344   28.6454   47.6317 C   0  0  0  0  0  0  0  0  0  0  0  0
   48.9785   29.2647   48.3366 N   0  0  0  0  0  0  0  0  0  0  0  0
   48.7411   30.4956   48.8089 C   0  0  0  0  0  0  0  0  0  0  0  0
   47.5469   31.1228   48.5779 N   0  0  0  0  0  0  0  0  0  0  0  0
   49.8502   31.1025   49.5802 C   0  0  0  0  0  0  0  0  0  0  0  0
   49.8442   32.4779   49.4785 F   0  0  0  0  0  0  0  0  0  0  0  0
   51.0773   30.6318   49.1070 F   0  0  0  0  0  0  0  0  0  0  0  0
   49.7893   30.7844   50.9217 F   0  0  0  0  0  0  0  0  0  0  0  0
   45.8419   32.6837   47.6377 O   0  0  0  0  0  0  0  0  0  0  0  0
   44.9139   34.9907   45.0850 C   0  0  0  0  0  0  0  0  0  0  0  0
   45.7812   34.6729   44.0184 C   0  0  0  0  0  0  0  0  0  0  0  0
   46.6843   33.6393   44.2268 C   0  0  0  0  0  0  0  0  0  0  0  0
   46.6791   33.0088   45.4216 N   0  0  0  0  0  0  0  0  0  0  0  0
   45.8429   33.3375   46.4083 C   0  0  0  0  0  0  0  0  0  0  0  0
   44.9655   34.3198   46.2461 N   0  0  0  0  0  0  0  0  0  0  0  0
   45.6945   35.4337   42.7534 C   0  0  0  0  0  0  0  0  0  0  0  0
   45.2563   36.6990   43.1468 F   0  0  0  0  0  0  0  0  0  0  0  0
   44.6581   34.8633   42.0117 F   0  0  0  0  0  0  0  0  0  0  0  0
   46.8699   35.4945   42.1403 F   0  0  0  0  0  0  0  0  0  0  0  0
   44.8218   31.2664   48.6929 H   0  0  0  0  0  0  0  0  0  0  0  0
   44.7061   31.0497   46.9292 H   0  0  0  0  0  0  0  0  0  0  0  0
   45.9987   28.8286   46.8230 H   0  0  0  0  0  0  0  0  0  0  0  0
   48.1540   27.6456   47.2160 H   0  0  0  0  0  0  0  0  0  0  0  0
   44.2061   35.7954   44.9312 H   0  0  0  0  0  0  0  0  0  0  0  0
   47.6557   33.1448   43.2706 C   0  0  2  0  0  0  0  0  0  0  0  0
   49.0442   33.5614   43.7910 C   0  0  2  0  0  0  0  0  0  0  0  0
   49.6693   32.6890   44.0629 H   0  0  0  0  0  0  0  0  0  0  0  0
   49.7042   34.3154   42.6828 C   0  0  1  0  0  0  0  0  0  0  0  0
   50.3936   35.1030   43.0282 H   0  0  0  0  0  0  0  0  0  0  0  0
   48.6029   34.9573   42.1149 O   0  0  0  0  0  0  0  0  0  0  0  0
   47.6474   33.9515   41.9793 C   0  0  1  0  0  0  0  0  0  0  0  0
   47.9711   33.2773   41.1621 H   0  0  0  0  0  0  0  0  0  0  0  0
   47.7326   32.0804   43.0859 H   0  0  0  0  0  0  0  0  0  0  0  0
   48.9718   34.1781   44.7105 H   0  0  0  0  0  0  0  0  0  0  0  0
   50.1224   33.6531   41.9264 H   0  0  0  0  0  0  0  0  0  0  0  0
   46.6839   34.4669   41.7930 H   0  0  0  0  0  0  0  0  0  0  0  0
  1  2  1  0
  2  7  2  0
  3  4  2  0
  3  2  1  0
  4  5  1  0
  5  6  2  0
  6  8  1  0
  7  6  1  0
  8 11  1  0
  9  8  1  0
 10  8  1  0
 12  1  1  0
 13 18  2  0
 14 15  2  0
 14 13  1  0
 15 16  1  0
 16 17  2  0
 17 12  1  0
 18 17  1  0
 19 20  1  0
 19 14  1  0
 21 19  1  0
 22 19  1  0
  1 23  1  0
  1 24  1  0
  3 25  1  0
  4 26  1  0
 13 27  1  0
 28 29  1  0
 29 30  1  1
 29 31  1  0
 31 32  1  1
 31 33  1  0
 33 34  1  0
 34 35  1  6
 34 28  1  0
 28 36  1  6
 29 37  1  0
 31 38  1  0
 34 39  1  0
 15 28  1  0
M  ISO  8  23   8  24   8  25  14  26  14  27  14  30  15  32  15  35  15
M  END
>  <DihAtoms>  (1) 
13,14,27,28

>  <DihDeg>  (1) 
-84.92711570168981

$$$$
