
 OpenBabel03252504343D

 39 41  0  0  1  0  0  0  0  0999 V2000
   36.6470   31.8290   40.0150 O   0  0  0  0  0  0  0  0  0  0  0  0
   37.5760   32.7950   40.2130 C   0  0  0  0  0  0  0  0  0  0  0  0
   38.0660   32.5850   41.2320 H   0  0  0  0  0  0  0  0  0  0  0  0
   37.2780   33.8410   40.2360 H   0  0  0  0  0  0  0  0  0  0  0  0
   39.8460   33.4970   39.6690 C   0  0  0  0  0  0  0  0  0  0  0  0
   38.7710   32.6990   39.3030 C   0  0  0  0  0  0  0  0  0  0  0  0
   38.8820   31.9050   38.2030 C   0  0  0  0  0  0  0  0  0  0  0  0
   40.0320   31.9560   37.5560 N   0  0  0  0  0  0  0  0  0  0  0  0
   41.0780   32.7090   37.8840 C   0  0  0  0  0  0  0  0  0  0  0  0
   41.0080   33.5370   39.0010 N   0  0  0  0  0  0  0  0  0  0  0  0
   39.8010   34.1450   40.5380 H   0  0  0  0  0  0  0  0  0  0  0  0
   38.0410   31.3090   37.9500 H   0  0  0  0  0  0  0  0  0  0  0  0
   42.3760   32.7670   37.1540 C   0  0  1  0  0  3  0  0  0  0  0  0
   43.1350   34.0280   37.5800 C   0  0  0  0  0  3  0  0  0  0  0  0
   42.8150   34.3140   38.6070 H   0  0  0  0  0  0  0  0  0  0  0  0
   44.5490   33.4770   37.5990 C   0  0  0  0  0  3  0  0  0  0  0  0
   44.9930   33.5590   36.5800 H   0  0  0  0  0  0  0  0  0  0  0  0
   44.4300   32.1550   38.0160 O   0  0  0  0  0  0  0  0  0  0  0  0
   43.2850   31.6250   37.4630 C   0  0  0  0  0  3  0  0  0  0  0  0
   43.5670   31.0720   36.5240 H   0  0  0  0  0  0  0  0  0  0  0  0
   36.2170   30.8320   40.8820 C   0  0  0  0  0  3  0  0  0  0  0  0
   36.5020   29.5890   40.4980 C   0  0  0  0  0  3  0  0  0  0  0  0
   36.1400   28.3350   41.2580 C   0  0  0  0  0  0  0  0  0  0  0  0
   35.6740   28.7370   42.2050 H   0  0  0  0  0  0  0  0  0  0  0  0
   35.3920   27.7340   40.7180 H   0  0  0  0  0  0  0  0  0  0  0  0
   37.2950   27.6620   41.5650 O   0  0  0  0  0  0  0  0  0  0  0  0
   38.3430   29.3010   43.3870 O   0  0  0  0  0  0  0  0  0  0  0  0
   37.7270   27.9380   43.1730 P   0  0  1  0  0  0  0  0  0  0  0  0
   36.3420   27.8530   44.1650 O   0  0  0  0  0  0  0  0  0  0  0  0
   35.6910   27.2840   43.7160 H   0  0  0  0  0  0  0  0  0  0  0  0
   38.7830   26.7360   43.7020 O   0  0  0  0  0  0  0  0  0  0  0  0
   39.2570   25.9520   42.6690 C   0  0  0  0  0  0  0  0  0  0  0  0
   38.7390   24.5560   42.5170 C   0  0  0  0  0  0  0  0  0  0  0  0
   40.1260   24.7920   43.0900 C   0  0  0  0  0  0  0  0  0  0  0  0
   39.5510   26.5010   41.7630 H   0  0  0  0  0  0  0  0  0  0  0  0
   37.9100   24.2530   43.1660 H   0  0  0  0  0  0  0  0  0  0  0  0
   38.7080   24.1810   41.4800 H   0  0  0  0  0  0  0  0  0  0  0  0
   41.0080   24.5200   42.4910 H   0  0  0  0  0  0  0  0  0  0  0  0
   40.1770   24.5330   44.1770 H   0  0  0  0  0  0  0  0  0  0  0  0
  1  2  1  0  0  0  0
  1 21  1  0  0  0  0
  2  4  1  0  0  0  0
  2  3  1  0  0  0  0
  5 11  1  0  0  0  0
  6  5  1  0  0  0  0
  6  2  1  0  0  0  0
  7  6  2  0  0  0  0
  8  9  2  0  0  0  0
  8  7  1  0  0  0  0
  9 10  1  0  0  0  0
 10  5  2  0  0  0  0
 12  7  1  0  0  0  0
 13 19  1  0  0  0  0
 13 14  1  0  0  0  0
 13  9  1  1  0  0  0
 14 16  1  0  0  0  0
 14 15  1  0  0  0  0
 16 18  1  0  0  0  0
 17 16  1  0  0  0  0
 19 18  1  0  0  0  0
 20 19  1  0  0  0  0
 22 21  2  0  0  0  0
 22 23  1  0  0  0  0
 23 26  1  0  0  0  0
 23 24  1  0  0  0  0
 25 23  1  0  0  0  0
 26 28  1  0  0  0  0
 28 27  2  1  0  0  0
 28 31  1  0  0  0  0
 28 29  1  0  0  0  0
 30 29  1  0  0  0  0
 32 34  1  0  0  0  0
 32 31  1  0  0  0  0
 33 32  1  0  0  0  0
 33 34  1  0  0  0  0
 33 36  1  0  0  0  0
 34 39  1  0  0  0  0
 35 32  1  0  0  0  0
 37 33  1  0  0  0  0
 38 34  1  0  0  0  0
M  END
>  <minimizedAffinity>
-4.97885752

$$$$

 OpenBabel03252504343D

 39 41  0  0  1  0  0  0  0  0999 V2000
   35.7300   29.8060   41.1050 O   0  0  0  0  0  0  0  0  0  0  0  0
   36.1310   28.5560   40.7700 C   0  0  0  0  0  0  0  0  0  0  0  0
   36.7590   28.6510   39.8120 H   0  0  0  0  0  0  0  0  0  0  0  0
   35.3920   27.7830   40.5670 H   0  0  0  0  0  0  0  0  0  0  0  0
   38.2380   27.3730   41.0910 C   0  0  0  0  0  0  0  0  0  0  0  0
   37.1430   27.9580   41.7110 C   0  0  0  0  0  0  0  0  0  0  0  0
   37.0800   27.9680   43.0700 C   0  0  0  0  0  0  0  0  0  0  0  0
   38.0910   27.4060   43.7080 N   0  0  0  0  0  0  0  0  0  0  0  0
   39.1510   26.8390   43.1410 C   0  0  0  0  0  0  0  0  0  0  0  0
   39.2560   26.8060   41.7530 N   0  0  0  0  0  0  0  0  0  0  0  0
   38.3290   27.3430   40.0100 H   0  0  0  0  0  0  0  0  0  0  0  0
   36.2290   28.4220   43.5120 H   0  0  0  0  0  0  0  0  0  0  0  0
   40.2930   26.2040   43.8610 C   0  0  1  0  0  3  0  0  0  0  0  0
   40.9030   25.1170   42.9710 C   0  0  0  0  0  3  0  0  0  0  0  0
   40.7110   25.3700   41.9040 H   0  0  0  0  0  0  0  0  0  0  0  0
   42.3710   25.3130   43.3060 C   0  0  0  0  0  3  0  0  0  0  0  0
   42.6300   24.7140   44.2090 H   0  0  0  0  0  0  0  0  0  0  0  0
   42.5270   26.6800   43.5190 O   0  0  0  0  0  0  0  0  0  0  0  0
   41.4050   27.1500   44.1650 C   0  0  0  0  0  3  0  0  0  0  0  0
   41.6170   27.1780   45.2710 H   0  0  0  0  0  0  0  0  0  0  0  0
   36.3110   31.0290   40.7910 C   0  0  0  0  0  3  0  0  0  0  0  0
   36.7450   31.1430   39.5380 C   0  0  0  0  0  3  0  0  0  0  0  0
   37.4150   32.3640   38.9530 C   0  0  0  0  0  0  0  0  0  0  0  0
   37.0330   32.3780   37.8890 H   0  0  0  0  0  0  0  0  0  0  0  0
   37.0950   33.2860   39.4600 H   0  0  0  0  0  0  0  0  0  0  0  0
   38.7710   32.1580   38.9500 O   0  0  0  0  0  0  0  0  0  0  0  0
   40.3900   34.2300   39.3910 O   0  0  0  0  0  0  0  0  0  0  0  0
   39.5230   33.1870   40.0570 P   0  0  1  0  0  0  0  0  0  0  0  0
   38.3430   34.0200   40.9640 O   0  0  0  0  0  0  0  0  0  0  0  0
   37.5360   33.4750   40.9710 H   0  0  0  0  0  0  0  0  0  0  0  0
   40.4380   32.2890   41.1510 O   0  0  0  0  0  0  0  0  0  0  0  0
   39.9520   31.0090   41.3270 C   0  0  0  0  0  0  0  0  0  0  0  0
   39.7180   30.5020   42.7160 C   0  0  0  0  0  0  0  0  0  0  0  0
   40.9280   30.0290   41.9290 C   0  0  0  0  0  0  0  0  0  0  0  0
   39.2990   30.6430   40.5210 H   0  0  0  0  0  0  0  0  0  0  0  0
   39.8300   31.2170   43.5380 H   0  0  0  0  0  0  0  0  0  0  0  0
   38.8960   29.7730   42.8140 H   0  0  0  0  0  0  0  0  0  0  0  0
   40.9590   28.9900   41.5650 H   0  0  0  0  0  0  0  0  0  0  0  0
   41.8830   30.4230   42.3560 H   0  0  0  0  0  0  0  0  0  0  0  0
  2  1  1  0  0  0  0
  2  6  1  0  0  0  0
  3  2  1  0  0  0  0
  4  2  1  0  0  0  0
  5  6  2  0  0  0  0
  5 10  1  0  0  0  0
  6  7  1  0  0  0  0
  7 12  1  0  0  0  0
  7  8  2  0  0  0  0
  9  8  1  0  0  0  0
 10  9  2  0  0  0  0
 11  5  1  0  0  0  0
 13  9  1  6  0  0  0
 13 19  1  0  0  0  0
 14 16  1  0  0  0  0
 14 13  1  0  0  0  0
 15 14  1  0  0  0  0
 16 18  1  0  0  0  0
 16 17  1  0  0  0  0
 18 19  1  0  0  0  0
 19 20  1  0  0  0  0
 21  1  1  0  0  0  0
 22 21  2  0  0  0  0
 23 25  1  0  0  0  0
 23 22  1  0  0  0  0
 24 23  1  0  0  0  0
 26 23  1  0  0  0  0
 26 28  1  0  0  0  0
 28 27  2  6  0  0  0
 28 29  1  0  0  0  0
 28 31  1  0  0  0  0
 29 30  1  0  0  0  0
 31 32  1  0  0  0  0
 32 34  1  0  0  0  0
 32 33  1  0  0  0  0
 33 37  1  0  0  0  0
 33 36  1  0  0  0  0
 34 39  1  0  0  0  0
 34 33  1  0  0  0  0
 35 32  1  0  0  0  0
 38 34  1  0  0  0  0
M  END
>  <minimizedAffinity>
-4.95736122

$$$$

 OpenBabel03252504343D

 39 41  0  0  1  0  0  0  0  0999 V2000
   35.6380   29.4870   41.2360 O   0  0  0  0  0  0  0  0  0  0  0  0
   36.1030   28.2550   40.9160 C   0  0  0  0  0  0  0  0  0  0  0  0
   36.6850   28.3630   39.9300 H   0  0  0  0  0  0  0  0  0  0  0  0
   35.4070   27.4330   40.7620 H   0  0  0  0  0  0  0  0  0  0  0  0
   38.3030   27.2390   41.1770 C   0  0  0  0  0  0  0  0  0  0  0  0
   37.1870   27.7470   41.8280 C   0  0  0  0  0  0  0  0  0  0  0  0
   37.1670   27.7680   43.1880 C   0  0  0  0  0  0  0  0  0  0  0  0
   38.2380   27.2910   43.7980 N   0  0  0  0  0  0  0  0  0  0  0  0
   39.3190   26.8000   43.2020 C   0  0  0  0  0  0  0  0  0  0  0  0
   39.3810   26.7580   41.8110 N   0  0  0  0  0  0  0  0  0  0  0  0
   38.3600   27.2030   40.0940 H   0  0  0  0  0  0  0  0  0  0  0  0
   36.2990   28.1630   43.6540 H   0  0  0  0  0  0  0  0  0  0  0  0
   40.5280   26.2620   43.8890 C   0  0  1  0  0  3  0  0  0  0  0  0
   41.1260   25.1340   43.0420 C   0  0  0  0  0  3  0  0  0  0  0  0
   40.8570   25.3000   41.9750 H   0  0  0  0  0  0  0  0  0  0  0  0
   42.6020   25.4070   43.2660 C   0  0  0  0  0  3  0  0  0  0  0  0
   42.9410   24.8860   44.1910 H   0  0  0  0  0  0  0  0  0  0  0  0
   42.7150   26.7910   43.3700 O   0  0  0  0  0  0  0  0  0  0  0  0
   41.6180   27.2670   44.0530 C   0  0  0  0  0  3  0  0  0  0  0  0
   41.8970   27.3840   45.1370 H   0  0  0  0  0  0  0  0  0  0  0  0
   36.2660   30.7210   41.1210 C   0  0  0  0  0  3  0  0  0  0  0  0
   36.8120   30.9690   39.9330 C   0  0  0  0  0  3  0  0  0  0  0  0
   37.5530   32.2300   39.5570 C   0  0  0  0  0  0  0  0  0  0  0  0
   37.1560   32.9880   40.2940 H   0  0  0  0  0  0  0  0  0  0  0  0
   38.6390   32.1230   39.7040 H   0  0  0  0  0  0  0  0  0  0  0  0
   37.1850   32.5900   38.2850 O   0  0  0  0  0  0  0  0  0  0  0  0
   37.2040   30.3810   36.7940 O   0  0  0  0  0  0  0  0  0  0  0  0
   37.9800   31.6280   37.1490 P   0  0  1  0  0  0  0  0  0  0  0  0
   38.2060   32.5070   35.7050 O   0  0  0  0  0  0  0  0  0  0  0  0
   38.2200   33.4530   35.9350 H   0  0  0  0  0  0  0  0  0  0  0  0
   39.5130   31.2130   37.7150 O   0  0  0  0  0  0  0  0  0  0  0  0
   40.4640   32.1710   37.4260 C   0  0  0  0  0  0  0  0  0  0  0  0
   41.8680   31.7400   37.1370 C   0  0  0  0  0  0  0  0  0  0  0  0
   41.5260   32.3590   38.4810 C   0  0  0  0  0  0  0  0  0  0  0  0
   40.0810   33.0730   36.9270 H   0  0  0  0  0  0  0  0  0  0  0  0
   42.0570   30.6640   37.0490 H   0  0  0  0  0  0  0  0  0  0  0  0
   42.4200   32.3900   36.4380 H   0  0  0  0  0  0  0  0  0  0  0  0
   41.8940   33.3700   38.7160 H   0  0  0  0  0  0  0  0  0  0  0  0
   41.5890   31.6140   39.3120 H   0  0  0  0  0  0  0  0  0  0  0  0
  2  1  1  0  0  0  0
  2  6  1  0  0  0  0
  3  2  1  0  0  0  0
  4  2  1  0  0  0  0
  5 10  2  0  0  0  0
  5  6  1  0  0  0  0
  6  7  2  0  0  0  0
  7 12  1  0  0  0  0
  7  8  1  0  0  0  0
  9  8  2  0  0  0  0
 10  9  1  0  0  0  0
 11  5  1  0  0  0  0
 13  9  1  6  0  0  0
 13 19  1  0  0  0  0
 14 16  1  0  0  0  0
 14 13  1  0  0  0  0
 15 14  1  0  0  0  0
 16 18  1  0  0  0  0
 16 17  1  0  0  0  0
 18 19  1  0  0  0  0
 19 20  1  0  0  0  0
 21  1  1  0  0  0  0
 22 21  2  0  0  0  0
 23 25  1  0  0  0  0
 23 22  1  0  0  0  0
 23 24  1  0  0  0  0
 26 23  1  0  0  0  0
 28 27  2  6  0  0  0
 28 31  1  0  0  0  0
 28 26  1  0  0  0  0
 29 30  1  0  0  0  0
 29 28  1  0  0  0  0
 32 31  1  0  0  0  0
 32 34  1  0  0  0  0
 33 32  1  0  0  0  0
 33 34  1  0  0  0  0
 34 38  1  0  0  0  0
 34 39  1  0  0  0  0
 35 32  1  0  0  0  0
 36 33  1  0  0  0  0
 37 33  1  0  0  0  0
M  END
>  <minimizedAffinity>
-4.94306374

$$$$

 OpenBabel03252504343D

 39 41  0  0  1  0  0  0  0  0999 V2000
   35.9830   30.3040   39.9320 O   0  0  0  0  0  0  0  0  0  0  0  0
   36.2760   30.6520   41.2080 C   0  0  0  0  0  0  0  0  0  0  0  0
   35.3150   30.5100   41.8240 H   0  0  0  0  0  0  0  0  0  0  0  0
   36.6270   31.6580   41.4310 H   0  0  0  0  0  0  0  0  0  0  0  0
   36.7020   28.4150   42.0770 C   0  0  0  0  0  0  0  0  0  0  0  0
   37.2040   29.6980   41.9120 C   0  0  0  0  0  0  0  0  0  0  0  0
   38.4570   29.9810   42.3600 C   0  0  0  0  0  0  0  0  0  0  0  0
   39.1130   28.9870   42.9320 N   0  0  0  0  0  0  0  0  0  0  0  0
   38.6580   27.7500   43.1030 C   0  0  0  0  0  0  0  0  0  0  0  0
   37.3810   27.4170   42.6590 N   0  0  0  0  0  0  0  0  0  0  0  0
   35.7080   28.1460   41.7340 H   0  0  0  0  0  0  0  0  0  0  0  0
   38.8090   30.9710   42.2200 H   0  0  0  0  0  0  0  0  0  0  0  0
   39.3990   26.6270   43.7480 C   0  0  1  0  0  3  0  0  0  0  0  0
   39.3560   25.4040   42.8260 C   0  0  0  0  0  3  0  0  0  0  0  0
   39.2420   25.7470   41.7730 H   0  0  0  0  0  0  0  0  0  0  0  0
   40.7560   24.8650   43.0590 C   0  0  0  0  0  3  0  0  0  0  0  0
   40.7530   24.1920   43.9460 H   0  0  0  0  0  0  0  0  0  0  0  0
   41.5610   25.9850   43.2520 O   0  0  0  0  0  0  0  0  0  0  0  0
   40.8450   26.9170   43.9690 C   0  0  0  0  0  3  0  0  0  0  0  0
   41.1130   26.8110   45.0570 H   0  0  0  0  0  0  0  0  0  0  0  0
   36.6790   30.5820   38.7620 C   0  0  0  0  0  3  0  0  0  0  0  0
   37.6460   29.7170   38.4620 C   0  0  0  0  0  3  0  0  0  0  0  0
   38.5470   29.7990   37.2530 C   0  0  0  0  0  0  0  0  0  0  0  0
   38.3120   28.8440   36.6950 H   0  0  0  0  0  0  0  0  0  0  0  0
   38.2930   30.6580   36.6130 H   0  0  0  0  0  0  0  0  0  0  0  0
   39.8510   29.7730   37.6780 O   0  0  0  0  0  0  0  0  0  0  0  0
   41.9180   31.4420   37.4600 O   0  0  0  0  0  0  0  0  0  0  0  0
   40.4540   31.3420   37.8190 P   0  0  1  0  0  0  0  0  0  0  0  0
   39.6070   32.3830   36.7660 O   0  0  0  0  0  0  0  0  0  0  0  0
   38.7270   31.9960   36.6130 H   0  0  0  0  0  0  0  0  0  0  0  0
   40.2030   31.9190   39.3830 O   0  0  0  0  0  0  0  0  0  0  0  0
   39.3500   33.0030   39.4200 C   0  0  0  0  0  0  0  0  0  0  0  0
   39.8200   34.2790   40.0480 C   0  0  0  0  0  0  0  0  0  0  0  0
   38.8490   33.3790   40.7930 C   0  0  0  0  0  0  0  0  0  0  0  0
   38.6350   33.0630   38.5870 H   0  0  0  0  0  0  0  0  0  0  0  0
   40.8720   34.3360   40.3460 H   0  0  0  0  0  0  0  0  0  0  0  0
   39.3860   35.1970   39.6160 H   0  0  0  0  0  0  0  0  0  0  0  0
   37.8070   33.7080   40.9270 H   0  0  0  0  0  0  0  0  0  0  0  0
   39.3260   32.8990   41.6830 H   0  0  0  0  0  0  0  0  0  0  0  0
  1  2  1  0  0  0  0
  2  4  1  0  0  0  0
  2  3  1  0  0  0  0
  2  6  1  0  0  0  0
  5 10  1  0  0  0  0
  6  5  2  0  0  0  0
  6  7  1  0  0  0  0
  7  8  2  0  0  0  0
  8  9  1  0  0  0  0
 10  9  2  0  0  0  0
 11  5  1  0  0  0  0
 12  7  1  0  0  0  0
 13  9  1  6  0  0  0
 13 19  1  0  0  0  0
 14 16  1  0  0  0  0
 14 13  1  0  0  0  0
 15 14  1  0  0  0  0
 16 18  1  0  0  0  0
 16 17  1  0  0  0  0
 18 19  1  0  0  0  0
 19 20  1  0  0  0  0
 21  1  1  0  0  0  0
 22 21  2  0  0  0  0
 23 26  1  0  0  0  0
 23 22  1  0  0  0  0
 24 23  1  0  0  0  0
 25 23  1  0  0  0  0
 26 28  1  0  0  0  0
 28 27  2  6  0  0  0
 28 31  1  0  0  0  0
 29 28  1  0  0  0  0
 30 29  1  0  0  0  0
 31 32  1  0  0  0  0
 32 33  1  0  0  0  0
 32 34  1  0  0  0  0
 33 36  1  0  0  0  0
 33 34  1  0  0  0  0
 34 38  1  0  0  0  0
 34 39  1  0  0  0  0
 35 32  1  0  0  0  0
 37 33  1  0  0  0  0
M  END
>  <minimizedAffinity>
-4.93827581

$$$$

 OpenBabel03252504343D

 39 41  0  0  1  0  0  0  0  0999 V2000
   36.4020   30.6390   39.7970 O   0  0  0  0  0  0  0  0  0  0  0  0
   36.0890   30.2940   41.0690 C   0  0  0  0  0  0  0  0  0  0  0  0
   34.9440   30.1950   41.1180 H   0  0  0  0  0  0  0  0  0  0  0  0
   36.3670   30.9470   41.8950 H   0  0  0  0  0  0  0  0  0  0  0  0
   36.4100   27.9630   40.4350 C   0  0  0  0  0  0  0  0  0  0  0  0
   36.5070   28.9000   41.4530 C   0  0  0  0  0  0  0  0  0  0  0  0
   36.9760   28.5090   42.6700 C   0  0  0  0  0  0  0  0  0  0  0  0
   37.3110   27.2360   42.7870 N   0  0  0  0  0  0  0  0  0  0  0  0
   37.2300   26.3180   41.8300 C   0  0  0  0  0  0  0  0  0  0  0  0
   36.7550   26.6750   40.5700 N   0  0  0  0  0  0  0  0  0  0  0  0
   36.0420   28.2320   39.4500 H   0  0  0  0  0  0  0  0  0  0  0  0
   37.0360   29.2500   43.4260 H   0  0  0  0  0  0  0  0  0  0  0  0
   37.6070   24.8820   41.9620 C   0  0  1  0  0  3  0  0  0  0  0  0
   36.6690   24.0350   41.0950 C   0  0  0  0  0  3  0  0  0  0  0  0
   36.2930   24.6580   40.2530 H   0  0  0  0  0  0  0  0  0  0  0  0
   37.6600   23.0020   40.5890 C   0  0  0  0  0  3  0  0  0  0  0  0
   37.7310   22.1650   41.3210 H   0  0  0  0  0  0  0  0  0  0  0  0
   38.8670   23.6790   40.4450 O   0  0  0  0  0  0  0  0  0  0  0  0
   38.9860   24.5810   41.4790 C   0  0  0  0  0  3  0  0  0  0  0  0
   39.6030   24.1090   42.2930 H   0  0  0  0  0  0  0  0  0  0  0  0
   37.2310   31.6560   39.3410 C   0  0  0  0  0  3  0  0  0  0  0  0
   37.3500   32.6980   40.1610 C   0  0  0  0  0  3  0  0  0  0  0  0
   38.1840   33.9290   39.8950 C   0  0  0  0  0  0  0  0  0  0  0  0
   38.6930   33.6850   38.9160 H   0  0  0  0  0  0  0  0  0  0  0  0
   37.5570   34.8240   39.7590 H   0  0  0  0  0  0  0  0  0  0  0  0
   39.1260   34.0410   40.8860 O   0  0  0  0  0  0  0  0  0  0  0  0
   40.9640   33.9330   38.9590 O   0  0  0  0  0  0  0  0  0  0  0  0
   40.6150   33.4570   40.3500 P   0  0  1  0  0  0  0  0  0  0  0  0
   41.8550   33.9950   41.3900 O   0  0  0  0  0  0  0  0  0  0  0  0
   41.4560   34.1630   42.2630 H   0  0  0  0  0  0  0  0  0  0  0  0
   40.6280   31.7710   40.4040 O   0  0  0  0  0  0  0  0  0  0  0  0
   40.9590   31.2820   41.6500 C   0  0  0  0  0  0  0  0  0  0  0  0
   40.5920   29.8730   42.0010 C   0  0  0  0  0  0  0  0  0  0  0  0
   39.7910   31.0300   42.5720 C   0  0  0  0  0  0  0  0  0  0  0  0
   41.8690   31.7100   42.0940 H   0  0  0  0  0  0  0  0  0  0  0  0
   40.1800   29.2460   41.2040 H   0  0  0  0  0  0  0  0  0  0  0  0
   41.2800   29.3740   42.7050 H   0  0  0  0  0  0  0  0  0  0  0  0
   39.8760   31.2650   43.6440 H   0  0  0  0  0  0  0  0  0  0  0  0
   38.7580   31.0720   42.1460 H   0  0  0  0  0  0  0  0  0  0  0  0
  1  2  1  0  0  0  0
  2  3  1  0  0  0  0
  2  6  1  0  0  0  0
  2  4  1  0  0  0  0
  5 10  2  0  0  0  0
  5  6  1  0  0  0  0
  6  7  2  0  0  0  0
  7  8  1  0  0  0  0
  7 12  1  0  0  0  0
  9  8  2  0  0  0  0
 10  9  1  0  0  0  0
 11  5  1  0  0  0  0
 13  9  1  6  0  0  0
 14 13  1  0  0  0  0
 15 14  1  0  0  0  0
 16 14  1  0  0  0  0
 16 17  1  0  0  0  0
 18 16  1  0  0  0  0
 18 19  1  0  0  0  0
 19 13  1  0  0  0  0
 19 20  1  0  0  0  0
 21  1  1  0  0  0  0
 21 22  2  0  0  0  0
 23 22  1  0  0  0  0
 23 26  1  0  0  0  0
 24 23  1  0  0  0  0
 25 23  1  0  0  0  0
 28 27  2  6  0  0  0
 28 31  1  0  0  0  0
 28 26  1  0  0  0  0
 28 29  1  0  0  0  0
 29 30  1  0  0  0  0
 31 32  1  0  0  0  0
 32 33  1  0  0  0  0
 32 35  1  0  0  0  0
 32 34  1  0  0  0  0
 33 34  1  0  0  0  0
 33 37  1  0  0  0  0
 34 38  1  0  0  0  0
 36 33  1  0  0  0  0
 39 34  1  0  0  0  0
M  END
>  <minimizedAffinity>
-4.83466053

$$$$

 OpenBabel03252504343D

 39 41  0  0  1  0  0  0  0  0999 V2000
   36.7890   30.0780   36.8100 O   0  0  0  0  0  0  0  0  0  0  0  0
   35.7500   29.3560   37.2940 C   0  0  0  0  0  0  0  0  0  0  0  0
   35.6790   28.4010   36.6570 H   0  0  0  0  0  0  0  0  0  0  0  0
   34.7480   29.7820   37.3050 H   0  0  0  0  0  0  0  0  0  0  0  0
   36.9200   27.7370   38.6910 C   0  0  0  0  0  0  0  0  0  0  0  0
   35.9890   28.7660   38.6580 C   0  0  0  0  0  0  0  0  0  0  0  0
   35.4010   29.1630   39.8190 C   0  0  0  0  0  0  0  0  0  0  0  0
   35.7720   28.5230   40.9140 N   0  0  0  0  0  0  0  0  0  0  0  0
   36.6610   27.5370   40.9750 C   0  0  0  0  0  0  0  0  0  0  0  0
   37.2860   27.0980   39.8110 N   0  0  0  0  0  0  0  0  0  0  0  0
   37.4120   27.3890   37.7890 H   0  0  0  0  0  0  0  0  0  0  0  0
   34.6930   29.9510   39.7590 H   0  0  0  0  0  0  0  0  0  0  0  0
   37.0810   26.8140   42.2100 C   0  0  1  0  0  3  0  0  0  0  0  0
   38.6040   26.6490   42.2010 C   0  0  0  0  0  3  0  0  0  0  0  0
   39.0540   27.4690   41.5980 H   0  0  0  0  0  0  0  0  0  0  0  0
   38.8890   26.8580   43.6770 C   0  0  0  0  0  3  0  0  0  0  0  0
   38.7910   25.8880   44.2160 H   0  0  0  0  0  0  0  0  0  0  0  0
   37.9550   27.7960   44.1090 O   0  0  0  0  0  0  0  0  0  0  0  0
   36.7610   27.5490   43.4680 C   0  0  0  0  0  3  0  0  0  0  0  0
   36.1170   26.9220   44.1460 H   0  0  0  0  0  0  0  0  0  0  0  0
   37.3980   31.2080   37.3410 C   0  0  0  0  0  3  0  0  0  0  0  0
   38.6820   31.0610   37.6590 C   0  0  0  0  0  3  0  0  0  0  0  0
   39.5640   32.1330   38.2550 C   0  0  0  0  0  0  0  0  0  0  0  0
   40.3130   31.5410   38.8580 H   0  0  0  0  0  0  0  0  0  0  0  0
   40.0980   32.6990   37.4760 H   0  0  0  0  0  0  0  0  0  0  0  0
   38.8040   32.9050   39.0970 O   0  0  0  0  0  0  0  0  0  0  0  0
   40.8060   34.4880   39.8630 O   0  0  0  0  0  0  0  0  0  0  0  0
   39.7540   33.5190   40.3490 P   0  0  1  0  0  0  0  0  0  0  0  0
   38.7720   34.3600   41.4600 O   0  0  0  0  0  0  0  0  0  0  0  0
   37.8720   33.9920   41.3970 H   0  0  0  0  0  0  0  0  0  0  0  0
   40.4800   32.2550   41.1960 O   0  0  0  0  0  0  0  0  0  0  0  0
   39.5670   31.4860   41.8890 C   0  0  0  0  0  0  0  0  0  0  0  0
   40.0420   30.2630   42.6100 C   0  0  0  0  0  0  0  0  0  0  0  0
   39.2910   30.1260   41.2960 C   0  0  0  0  0  0  0  0  0  0  0  0
   38.7130   32.0390   42.3060 H   0  0  0  0  0  0  0  0  0  0  0  0
   41.1240   30.0930   42.6560 H   0  0  0  0  0  0  0  0  0  0  0  0
   39.4700   30.0050   43.5170 H   0  0  0  0  0  0  0  0  0  0  0  0
   38.2680   29.7210   41.3030 H   0  0  0  0  0  0  0  0  0  0  0  0
   39.9540   29.7600   40.4740 H   0  0  0  0  0  0  0  0  0  0  0  0
  1  2  1  0  0  0  0
  1 21  1  0  0  0  0
  2  4  1  0  0  0  0
  2  6  1  0  0  0  0
  3  2  1  0  0  0  0
  5 10  1  0  0  0  0
  6  5  2  0  0  0  0
  6  7  1  0  0  0  0
  7  8  2  0  0  0  0
  8  9  1  0  0  0  0
 10  9  2  0  0  0  0
 11  5  1  0  0  0  0
 12  7  1  0  0  0  0
 13  9  1  6  0  0  0
 13 19  1  0  0  0  0
 14 13  1  0  0  0  0
 14 16  1  0  0  0  0
 15 14  1  0  0  0  0
 16 18  1  0  0  0  0
 16 17  1  0  0  0  0
 19 18  1  0  0  0  0
 19 20  1  0  0  0  0
 21 22  2  0  0  0  0
 22 23  1  0  0  0  0
 23 24  1  0  0  0  0
 23 26  1  0  0  0  0
 25 23  1  0  0  0  0
 26 28  1  0  0  0  0
 28 27  2  6  0  0  0
 28 31  1  0  0  0  0
 28 29  1  0  0  0  0
 30 29  1  0  0  0  0
 31 32  1  0  0  0  0
 32 35  1  0  0  0  0
 32 33  1  0  0  0  0
 33 36  1  0  0  0  0
 33 37  1  0  0  0  0
 34 38  1  0  0  0  0
 34 32  1  0  0  0  0
 34 33  1  0  0  0  0
 39 34  1  0  0  0  0
M  END
>  <minimizedAffinity>
-4.71743774

$$$$

 OpenBabel03252504343D

 39 41  0  0  1  0  0  0  0  0999 V2000
   36.8730   30.5530   38.3590 O   0  0  0  0  0  0  0  0  0  0  0  0
   36.0650   29.9590   39.2700 C   0  0  0  0  0  0  0  0  0  0  0  0
   35.3550   29.2670   38.6870 H   0  0  0  0  0  0  0  0  0  0  0  0
   35.4290   30.5650   39.9120 H   0  0  0  0  0  0  0  0  0  0  0  0
   36.1040   28.6860   41.3480 C   0  0  0  0  0  0  0  0  0  0  0  0
   36.7610   28.9620   40.1570 C   0  0  0  0  0  0  0  0  0  0  0  0
   37.9290   28.3200   39.8820 C   0  0  0  0  0  0  0  0  0  0  0  0
   38.3550   27.4620   40.7920 N   0  0  0  0  0  0  0  0  0  0  0  0
   37.7470   27.1770   41.9390 C   0  0  0  0  0  0  0  0  0  0  0  0
   36.5500   27.8120   42.2610 N   0  0  0  0  0  0  0  0  0  0  0  0
   35.1710   29.1750   41.6080 H   0  0  0  0  0  0  0  0  0  0  0  0
   38.4060   28.5550   38.9640 H   0  0  0  0  0  0  0  0  0  0  0  0
   38.2280   26.2090   42.9660 C   0  0  1  0  0  3  0  0  0  0  0  0
   38.5390   24.8720   42.2870 C   0  0  0  0  0  3  0  0  0  0  0  0
   38.8030   25.0580   41.2220 H   0  0  0  0  0  0  0  0  0  0  0  0
   39.7730   24.4710   43.0770 C   0  0  0  0  0  3  0  0  0  0  0  0
   39.4640   23.9270   43.9980 H   0  0  0  0  0  0  0  0  0  0  0  0
   40.4350   25.6610   43.3660 O   0  0  0  0  0  0  0  0  0  0  0  0
   39.4940   26.6290   43.6340 C   0  0  0  0  0  3  0  0  0  0  0  0
   39.3570   26.6920   44.7500 H   0  0  0  0  0  0  0  0  0  0  0  0
   37.5420   31.7690   38.4380 C   0  0  0  0  0  3  0  0  0  0  0  0
   37.3190   32.4640   39.5510 C   0  0  0  0  0  3  0  0  0  0  0  0
   37.9210   33.8110   39.8750 C   0  0  0  0  0  0  0  0  0  0  0  0
   38.5210   34.0520   38.9480 H   0  0  0  0  0  0  0  0  0  0  0  0
   37.1450   34.5810   40.0090 H   0  0  0  0  0  0  0  0  0  0  0  0
   38.7670   33.6660   40.9450 O   0  0  0  0  0  0  0  0  0  0  0  0
   40.5610   33.6590   38.9730 O   0  0  0  0  0  0  0  0  0  0  0  0
   40.3210   33.2760   40.4150 P   0  0  1  0  0  0  0  0  0  0  0  0
   41.4770   34.1090   41.3540 O   0  0  0  0  0  0  0  0  0  0  0  0
   41.0730   34.2980   42.2190 H   0  0  0  0  0  0  0  0  0  0  0  0
   40.6090   31.6290   40.6310 O   0  0  0  0  0  0  0  0  0  0  0  0
   40.6590   31.2690   41.9620 C   0  0  0  0  0  0  0  0  0  0  0  0
   40.7550   29.8180   42.3210 C   0  0  0  0  0  0  0  0  0  0  0  0
   39.4350   30.5540   42.4790 C   0  0  0  0  0  0  0  0  0  0  0  0
   41.1340   32.0040   42.6280 H   0  0  0  0  0  0  0  0  0  0  0  0
   40.9030   29.1050   41.5030 H   0  0  0  0  0  0  0  0  0  0  0  0
   41.2980   29.6050   43.2570 H   0  0  0  0  0  0  0  0  0  0  0  0
   39.0580   30.7700   43.4910 H   0  0  0  0  0  0  0  0  0  0  0  0
   38.6720   30.2030   41.7410 H   0  0  0  0  0  0  0  0  0  0  0  0
  1 21  1  0  0  0  0
  1  2  1  0  0  0  0
  2  4  1  0  0  0  0
  2  6  1  0  0  0  0
  3  2  1  0  0  0  0
  5 11  1  0  0  0  0
  5 10  1  0  0  0  0
  6  5  2  0  0  0  0
  7  6  1  0  0  0  0
  7  8  2  0  0  0  0
  8  9  1  0  0  0  0
  9 10  2  0  0  0  0
 12  7  1  0  0  0  0
 13  9  1  6  0  0  0
 13 19  1  0  0  0  0
 14 13  1  0  0  0  0
 14 16  1  0  0  0  0
 15 14  1  0  0  0  0
 16 18  1  0  0  0  0
 16 17  1  0  0  0  0
 18 19  1  0  0  0  0
 19 20  1  0  0  0  0
 21 22  2  0  0  0  0
 22 23  1  0  0  0  0
 23 25  1  0  0  0  0
 23 26  1  0  0  0  0
 24 23  1  0  0  0  0
 28 27  2  6  0  0  0
 28 31  1  0  0  0  0
 28 26  1  0  0  0  0
 28 29  1  0  0  0  0
 29 30  1  0  0  0  0
 31 32  1  0  0  0  0
 32 33  1  0  0  0  0
 32 34  1  0  0  0  0
 32 35  1  0  0  0  0
 33 34  1  0  0  0  0
 33 37  1  0  0  0  0
 34 38  1  0  0  0  0
 36 33  1  0  0  0  0
 39 34  1  0  0  0  0
M  END
>  <minimizedAffinity>
-4.70746756

$$$$

 OpenBabel03252504343D

 39 41  0  0  1  0  0  0  0  0999 V2000
   38.7270   27.7060   43.1690 O   0  0  0  0  0  0  0  0  0  0  0  0
   37.8060   28.6830   43.3490 C   0  0  0  0  0  0  0  0  0  0  0  0
   38.0740   29.2190   44.3310 H   0  0  0  0  0  0  0  0  0  0  0  0
   36.7510   28.4290   43.4270 H   0  0  0  0  0  0  0  0  0  0  0  0
   39.1440   30.4600   42.3520 C   0  0  0  0  0  0  0  0  0  0  0  0
   37.9120   29.8210   42.3710 C   0  0  0  0  0  0  0  0  0  0  0  0
   36.9370   30.2420   41.5190 C   0  0  0  0  0  0  0  0  0  0  0  0
   37.2480   31.2490   40.7230 N   0  0  0  0  0  0  0  0  0  0  0  0
   38.4180   31.8780   40.6830 C   0  0  0  0  0  0  0  0  0  0  0  0
   39.4440   31.4800   41.5370 N   0  0  0  0  0  0  0  0  0  0  0  0
   39.9490   30.1570   43.0140 H   0  0  0  0  0  0  0  0  0  0  0  0
   36.0070   29.7330   41.5600 H   0  0  0  0  0  0  0  0  0  0  0  0
   38.7700   33.0140   39.7840 C   0  0  1  0  0  3  0  0  0  0  0  0
   38.9510   34.2810   40.6260 C   0  0  0  0  0  3  0  0  0  0  0  0
   39.2560   33.9920   41.6570 H   0  0  0  0  0  0  0  0  0  0  0  0
   40.1170   34.9110   39.8860 C   0  0  0  0  0  3  0  0  0  0  0  0
   39.7310   35.5300   39.0440 H   0  0  0  0  0  0  0  0  0  0  0  0
   40.8970   33.8470   39.4420 O   0  0  0  0  0  0  0  0  0  0  0  0
   40.0590   32.8230   39.0580 C   0  0  0  0  0  3  0  0  0  0  0  0
   39.9050   32.8870   37.9450 H   0  0  0  0  0  0  0  0  0  0  0  0
   38.5360   26.3470   42.9480 C   0  0  0  0  0  3  0  0  0  0  0  0
   37.3830   26.0270   42.3650 C   0  0  0  0  0  3  0  0  0  0  0  0
   36.9360   24.6250   42.0240 C   0  0  0  0  0  0  0  0  0  0  0  0
   36.3330   24.3220   42.9300 H   0  0  0  0  0  0  0  0  0  0  0  0
   36.2830   24.6110   41.1380 H   0  0  0  0  0  0  0  0  0  0  0  0
   38.0460   23.8250   41.9240 O   0  0  0  0  0  0  0  0  0  0  0  0
   39.2930   23.5290   39.5860 O   0  0  0  0  0  0  0  0  0  0  0  0
   38.1040   23.0870   40.4070 P   0  0  1  0  0  0  0  0  0  0  0  0
   38.2220   21.3960   40.5920 O   0  0  0  0  0  0  0  0  0  0  0  0
   37.8330   21.1650   41.4540 H   0  0  0  0  0  0  0  0  0  0  0  0
   36.6760   23.3890   39.5640 O   0  0  0  0  0  0  0  0  0  0  0  0
   35.9880   22.2340   39.2520 C   0  0  0  0  0  0  0  0  0  0  0  0
   35.5130   22.0250   37.8480 C   0  0  0  0  0  0  0  0  0  0  0  0
   34.5260   22.4250   38.9300 C   0  0  0  0  0  0  0  0  0  0  0  0
   36.2630   21.3520   39.8480 H   0  0  0  0  0  0  0  0  0  0  0  0
   35.8390   22.7480   37.0930 H   0  0  0  0  0  0  0  0  0  0  0  0
   35.4670   20.9710   37.5240 H   0  0  0  0  0  0  0  0  0  0  0  0
   33.7850   21.6900   39.2810 H   0  0  0  0  0  0  0  0  0  0  0  0
   34.1450   23.4660   38.7820 H   0  0  0  0  0  0  0  0  0  0  0  0
  1  2  1  0  0  0  0
  2  4  1  0  0  0  0
  2  3  1  0  0  0  0
  5  6  1  0  0  0  0
  5 11  1  0  0  0  0
  6  2  1  0  0  0  0
  7 12  1  0  0  0  0
  7  6  2  0  0  0  0
  8  7  1  0  0  0  0
  9  8  2  0  0  0  0
  9 10  1  0  0  0  0
 10  5  2  0  0  0  0
 13 14  1  0  0  0  0
 13  9  1  1  0  0  0
 14 15  1  0  0  0  0
 16 14  1  0  0  0  0
 17 16  1  0  0  0  0
 18 16  1  0  0  0  0
 19 18  1  0  0  0  0
 19 13  1  0  0  0  0
 20 19  1  0  0  0  0
 21  1  1  0  0  0  0
 22 21  2  0  0  0  0
 23 22  1  0  0  0  0
 23 24  1  0  0  0  0
 25 23  1  0  0  0  0
 26 23  1  0  0  0  0
 28 27  2  6  0  0  0
 28 29  1  0  0  0  0
 28 26  1  0  0  0  0
 29 30  1  0  0  0  0
 31 28  1  0  0  0  0
 32 31  1  0  0  0  0
 32 35  1  0  0  0  0
 33 34  1  0  0  0  0
 33 32  1  0  0  0  0
 34 32  1  0  0  0  0
 34 38  1  0  0  0  0
 36 33  1  0  0  0  0
 37 33  1  0  0  0  0
 39 34  1  0  0  0  0
M  END
>  <minimizedAffinity>
-4.64061832

$$$$

 OpenBabel03252504343D

 39 41  0  0  1  0  0  0  0  0999 V2000
   36.8700   30.2750   36.8590 O   0  0  0  0  0  0  0  0  0  0  0  0
   35.8020   29.8740   37.5890 C   0  0  0  0  0  0  0  0  0  0  0  0
   35.1890   29.1650   36.9230 H   0  0  0  0  0  0  0  0  0  0  0  0
   35.0960   30.6090   37.9710 H   0  0  0  0  0  0  0  0  0  0  0  0
   36.2650   29.5860   39.9640 C   0  0  0  0  0  0  0  0  0  0  0  0
   36.1430   28.9570   38.7330 C   0  0  0  0  0  0  0  0  0  0  0  0
   36.3120   27.6090   38.6590 C   0  0  0  0  0  0  0  0  0  0  0  0
   36.5860   26.9890   39.7930 N   0  0  0  0  0  0  0  0  0  0  0  0
   36.7080   27.5650   40.9850 C   0  0  0  0  0  0  0  0  0  0  0  0
   36.5430   28.9420   41.1060 N   0  0  0  0  0  0  0  0  0  0  0  0
   36.1390   30.6590   40.0680 H   0  0  0  0  0  0  0  0  0  0  0  0
   36.2140   27.1610   37.7030 H   0  0  0  0  0  0  0  0  0  0  0  0
   37.0160   26.8660   42.2660 C   0  0  1  0  0  3  0  0  0  0  0  0
   38.5360   26.7620   42.4270 C   0  0  0  0  0  3  0  0  0  0  0  0
   39.0180   27.5970   41.8700 H   0  0  0  0  0  0  0  0  0  0  0  0
   38.6470   26.9900   43.9230 C   0  0  0  0  0  3  0  0  0  0  0  0
   38.5290   26.0190   44.4570 H   0  0  0  0  0  0  0  0  0  0  0  0
   37.6340   27.8920   44.2410 O   0  0  0  0  0  0  0  0  0  0  0  0
   36.5300   27.5930   43.4740 C   0  0  0  0  0  3  0  0  0  0  0  0
   35.8400   26.9440   44.0820 H   0  0  0  0  0  0  0  0  0  0  0  0
   37.9270   31.1000   37.2270 C   0  0  0  0  0  3  0  0  0  0  0  0
   39.0450   30.4650   37.5710 C   0  0  0  0  0  3  0  0  0  0  0  0
   40.3270   31.1300   38.0130 C   0  0  0  0  0  0  0  0  0  0  0  0
   40.0110   31.7080   38.9310 H   0  0  0  0  0  0  0  0  0  0  0  0
   41.0900   30.3910   38.3020 H   0  0  0  0  0  0  0  0  0  0  0  0
   40.7250   32.0050   37.0350 O   0  0  0  0  0  0  0  0  0  0  0  0
   43.3870   31.9140   36.9360 O   0  0  0  0  0  0  0  0  0  0  0  0
   42.2040   32.7080   37.4410 P   0  0  1  0  0  0  0  0  0  0  0  0
   42.3130   34.2640   36.7510 O   0  0  0  0  0  0  0  0  0  0  0  0
   41.4060   34.5950   36.6260 H   0  0  0  0  0  0  0  0  0  0  0  0
   42.3110   32.9040   39.1120 O   0  0  0  0  0  0  0  0  0  0  0  0
   42.5950   34.2040   39.4770 C   0  0  0  0  0  0  0  0  0  0  0  0
   42.8890   34.5100   40.9130 C   0  0  0  0  0  0  0  0  0  0  0  0
   41.5400   34.8790   40.3190 C   0  0  0  0  0  0  0  0  0  0  0  0
   43.0880   34.8100   38.7030 H   0  0  0  0  0  0  0  0  0  0  0  0
   42.9840   33.6620   41.6000 H   0  0  0  0  0  0  0  0  0  0  0  0
   43.5850   35.3500   41.0770 H   0  0  0  0  0  0  0  0  0  0  0  0
   41.2990   35.9400   40.1520 H   0  0  0  0  0  0  0  0  0  0  0  0
   40.7140   34.2530   40.7400 H   0  0  0  0  0  0  0  0  0  0  0  0
  1 21  1  0  0  0  0
  1  2  1  0  0  0  0
  2  4  1  0  0  0  0
  2  6  1  0  0  0  0
  3  2  1  0  0  0  0
  5 11  1  0  0  0  0
  5 10  1  0  0  0  0
  6  5  2  0  0  0  0
  7  6  1  0  0  0  0
  7  8  2  0  0  0  0
  8  9  1  0  0  0  0
  9 10  2  0  0  0  0
 12  7  1  0  0  0  0
 13  9  1  6  0  0  0
 13 14  1  0  0  0  0
 13 19  1  0  0  0  0
 14 16  1  0  0  0  0
 15 14  1  0  0  0  0
 16 18  1  0  0  0  0
 16 17  1  0  0  0  0
 19 20  1  0  0  0  0
 19 18  1  0  0  0  0
 21 22  2  0  0  0  0
 22 23  1  0  0  0  0
 23 25  1  0  0  0  0
 23 24  1  0  0  0  0
 26 28  1  0  0  0  0
 26 23  1  0  0  0  0
 28 27  2  6  0  0  0
 28 31  1  0  0  0  0
 29 28  1  0  0  0  0
 30 29  1  0  0  0  0
 31 32  1  0  0  0  0
 32 34  1  0  0  0  0
 32 33  1  0  0  0  0
 33 37  1  0  0  0  0
 33 36  1  0  0  0  0
 34 39  1  0  0  0  0
 34 33  1  0  0  0  0
 35 32  1  0  0  0  0
 38 34  1  0  0  0  0
M  END
>  <minimizedAffinity>
-4.62532616

$$$$
