
     RDKit          3D

 47 50  0  0  0  0  0  0  0  0999 V2000
   48.0554   34.6294   42.0514 C   0  0  2  0  0  0  0  0  0  0  0  0
   46.7584   33.8268   42.3473 C   0  0  1  0  0  0  0  0  0  0  0  0
   47.3181   32.6310   42.6887 O   0  0  0  0  0  0  0  0  0  0  0  0
   48.2027   32.3570   41.6261 C   0  0  0  0  0  0  0  0  0  0  0  0
   48.5606   33.7090   40.9651 C   0  0  1  0  0  0  0  0  0  0  0  0
   44.5235   36.0134   44.5114 C   0  0  0  0  0  0  0  0  0  0  0  0
   45.1957   35.6217   43.3509 C   0  0  0  0  0  0  0  0  0  0  0  0
   45.9721   34.4788   43.4032 C   0  0  0  0  0  0  0  0  0  0  0  0
   46.0277   33.8041   44.6016 N   0  0  0  0  0  0  0  0  0  0  0  0
   45.3673   34.2085   45.6995 C   0  0  0  0  0  0  0  0  0  0  0  0
   44.6112   35.3219   45.6487 N   0  0  0  0  0  0  0  0  0  0  0  0
   48.9333   34.5350   43.0892 O   0  0  0  0  0  0  0  0  0  0  0  0
   47.8059   33.8215   39.8395 O   0  0  0  0  0  0  0  0  0  0  0  0
   49.1406   32.7815   38.2021 C   0  0  1  0  0  0  0  0  0  0  0  0
   48.4852   34.1768   38.6782 C   0  0  1  0  0  0  0  0  0  0  0  0
   47.6049   34.3162   37.6697 O   0  0  0  0  0  0  0  0  0  0  0  0
   46.8602   33.1220   37.8175 C   0  0  0  0  0  0  0  0  0  0  0  0
   47.9292   32.1000   37.6341 C   0  0  1  0  0  0  0  0  0  0  0  0
   49.9525   33.1353   37.1186 O   0  0  0  0  0  0  0  0  0  0  0  0
   48.0833   31.7400   36.3418 O   0  0  0  0  0  0  0  0  0  0  0  0
   47.8282   35.6354   41.6977 H   0  0  0  0  0  0  0  0  0  0  0  0
   46.2241   33.8805   41.3824 H   0  0  0  0  0  0  0  0  0  0  0  0
   47.7227   31.6797   40.8855 H   0  0  0  0  0  0  0  0  0  0  0  0
   49.1222   31.9636   42.0741 H   0  0  0  0  0  0  0  0  0  0  0  0
   49.6435   33.8383   40.8163 H   0  0  0  0  0  0  0  0  0  0  0  0
   43.9379   36.9172   44.3906 H   0  0  0  0  0  0  0  0  0  0  0  0
   45.2050   36.0828   42.3938 H   0  0  0  0  0  0  0  0  0  0  0  0
   45.4319   33.6547   46.6260 H   0  0  0  0  0  0  0  0  0  0  0  0
   49.1105   35.4171   43.5274 H   0  0  0  0  0  0  0  0  0  0  0  0
   49.6281   32.3179   39.0357 H   0  0  0  0  0  0  0  0  0  0  0  0
   49.3897   34.7601   38.8113 H   0  0  0  0  0  0  0  0  0  0  0  0
   46.0260   33.0698   37.1127 H   0  0  0  0  0  0  0  0  0  0  0  0
   46.4138   33.0132   38.8205 H   0  0  0  0  0  0  0  0  0  0  0  0
   47.7831   31.1655   38.2366 H   0  0  0  0  0  0  0  0  0  0  0  0
   50.9015   32.9962   37.3730 H   0  0  0  0  0  0  0  0  0  0  0  0
   48.0430   30.4356   35.9964 C   0  0  1  0  0  0  0  0  0  0  0  0
   47.1225   30.0894   34.8431 C   0  0  1  0  0  0  0  0  0  0  0  0
   46.2181   29.5451   35.1869 H   0  0  0  0  0  0  0  0  0  0  0  0
   47.9661   29.0675   34.0772 C   0  0  1  0  0  0  0  0  0  0  0  0
   47.4095   28.1304   33.8726 H   0  0  0  0  0  0  0  0  0  0  0  0
   49.1187   28.8626   34.8319 O   0  0  0  0  0  0  0  0  0  0  0  0
   49.3896   30.1152   35.3332 C   0  0  2  0  0  0  0  0  0  0  0  0
   50.2178   30.1696   36.0346 H   0  0  0  0  0  0  0  0  0  0  0  0
   47.8870   29.6981   36.7674 H   0  0  0  0  0  0  0  0  0  0  0  0
   46.9161   30.9419   34.1927 H   0  0  0  0  0  0  0  0  0  0  0  0
   48.2476   29.4735   33.0771 H   0  0  0  0  0  0  0  0  0  0  0  0
   49.4726   30.8435   34.4796 H   0  0  0  0  0  0  0  0  0  0  0  0
  1  2  1  0
  1 12  1  0
  2  3  1  0
  2  8  1  0
  4  3  1  0
  5  4  1  0
  5  1  1  0
  6 11  2  0
  7  8  2  0
  7  6  1  0
  8  9  1  0
  9 10  2  0
 11 10  1  0
 13  5  1  0
 14 19  1  0
 14 15  1  0
 15 13  1  0
 16 17  1  0
 16 15  1  0
 18 20  1  0
 18 17  1  0
 18 14  1  0
  1 21  1  6
  2 22  1  6
  4 23  1  0
  4 24  1  0
  5 25  1  6
  6 26  1  0
  7 27  1  0
 10 28  1  0
 12 29  1  0
 14 30  1  1
 15 31  1  1
 17 32  1  0
 17 33  1  0
 18 34  1  1
 19 35  1  0
 36 37  1  0
 37 38  1  1
 37 39  1  0
 39 40  1  6
 39 41  1  0
 41 42  1  0
 42 43  1  1
 42 36  1  0
 36 44  1  1
 37 45  1  0
 39 46  1  0
 42 47  1  0
 20 36  1  0
M  ISO  8  21  13  22  13  23  13  24  13  25  13  26  14  27  14  28  14
M  ISO  8  29   3  30  13  31  13  32  13  33  13  34  13  35   3  38  15
M  ISO  2  40  15  43  15
M  END
>  <DihAtoms>  (1) 
17,19,35,36

>  <DihDeg>  (1) 
130.14449884040454

$$$$
