REMARK  Name = 
REMARK  9 active torsions:
REMARK  status: ('A' for Active; 'I' for Inactive)
REMARK    1  A    between atoms: C_1  and  N_2
REMARK    2  A    between atoms: C_1  and  S_8
REMARK    3  A    between atoms: N_2  and  S_3
REMARK    4  A    between atoms: S_3  and  O_4
REMARK    5  A    between atoms: S_3  and  O_5
REMARK    6  A    between atoms: S_3  and  O_6
REMARK    7  A    between atoms: O_6  and  C_7
REMARK    8  A    between atoms: S_8  and  C_10
REMARK    9  A    between atoms: C_13  and  C_25
REMARK                            x       y       z     vdW  Elec       q    Type
REMARK                         _______ _______ _______ _____ _____    ______ ____
ROOT
ATOM      1  S   UNL     1      42.811  33.794  41.224  0.00  0.00    +0.000 S 
ENDROOT
BRANCH   1   3
ATOM      2  C   UNL     1      40.125  33.105  41.334  0.00  0.00    +0.000 A 
ATOM      3  C   UNL     1      41.086  33.860  40.695  0.00  0.00    +0.000 A 
ATOM      4  C   UNL     1      40.765  34.694  39.629  0.00  0.00    +0.000 A 
ATOM      5  N   UNL     1      39.452  34.732  39.241  0.00  0.00    +0.000 NA
ATOM      6  C   UNL     1      38.540  33.979  39.891  0.00  0.00    +0.000 A 
ATOM      7  N   UNL     1      38.841  33.190  40.899  0.00  0.00    +0.000 NA
ATOM      8  H   UNL     1      40.394  32.464  42.160  0.00  0.00    +0.000 HD
ATOM      9  H   UNL     1      41.482  35.310  39.089  0.00  0.00    +0.000 HD
BRANCH   6  10
ATOM     10  C   UNL     1      37.087  33.959  39.535  0.00  0.00    +0.000 C 
ATOM     11  C   UNL     1      36.879  33.667  38.062  0.00  0.00    +0.000 C 
ATOM     12  H   UNL     1      37.761  34.124  37.529  0.00  0.00    +0.000 HD
ATOM     13  C   UNL     1      36.902  32.177  38.033  0.00  0.00    +0.000 C 
ATOM     14  H   UNL     1      37.923  31.814  37.750  0.00  0.00    +0.000 HD
ATOM     15  O   UNL     1      36.604  31.681  39.281  0.00  0.00    +0.000 OA
ATOM     16  C   UNL     1      36.413  32.728  40.144  0.00  0.00    +0.000 C 
ATOM     17  H   UNL     1      35.327  32.970  40.167  0.00  0.00    +0.000 HD
ENDBRANCH   6  10
ENDBRANCH   1   3
BRANCH   1  18
ATOM     18  C   UNL     1      43.362  35.437  41.706  0.00  0.00    +0.000 C 
ATOM     19  H   UNL     1      44.370  35.691  41.345  0.00  0.00    +0.000 HD
ATOM     20  H   UNL     1      42.658  36.188  41.289  0.00  0.00    +0.000 HD
BRANCH  18  21
ATOM     21  N   UNL     1      43.224  35.537  43.151  0.00  0.00    +0.000 NA
ATOM     22  H   UNL     1      42.855  34.650  43.588  0.00  0.00    +0.000 HD
BRANCH  21  23
ATOM     23  S   UNL     1      44.725  35.829  43.943  0.00  0.00    +0.000 S 
BRANCH  23  24
ATOM     24  O   UNL     1      45.869  35.256  43.182  0.00  0.00    +0.000 OA
ATOM     25  H   UNL     1      46.605  35.751  42.753  0.00  0.00    +0.000 HD
ENDBRANCH  23  24
BRANCH  23  26
ATOM     26  O   UNL     1      44.849  37.343  44.028  0.00  0.00    +0.000 OA
ATOM     27  H   UNL     1      44.513  37.920  44.761  0.00  0.00    +0.000 HD
ENDBRANCH  23  26
BRANCH  23  28
ATOM     28  O   UNL     1      44.661  35.254  45.504  0.00  0.00    +0.000 OA
BRANCH  28  29
ATOM     29  C   UNL     1      45.403  34.086  45.656  0.00  0.00    +0.000 C 
ATOM     30  H   UNL     1      44.748  33.234  45.409  0.00  0.00    +0.000 HD
ATOM     31  H   UNL     1      45.698  33.970  46.735  0.00  0.00    +0.000 HD
ATOM     32  H   UNL     1      46.299  34.127  44.980  0.00  0.00    +0.000 HD
ENDBRANCH  28  29
ENDBRANCH  23  28
ENDBRANCH  21  23
ENDBRANCH  18  21
ENDBRANCH   1  18
TORSDOF 9
