
     RDKit          3D

 28 29  0  0  0  0  0  0  0  0999 V2000
   44.2966   35.7821   44.1800 C   0  0  0  0  0  0  0  0  0  0  0  0
   44.4686   34.9324   43.0906 C   0  0  0  0  0  0  0  0  0  0  0  0
   45.0832   33.7114   43.3049 C   0  0  0  0  0  0  0  0  0  0  0  0
   45.4997   33.3799   44.5724 N   0  0  0  0  0  0  0  0  0  0  0  0
   45.3138   34.2348   45.6068 C   0  0  0  0  0  0  0  0  0  0  0  0
   44.7170   35.4224   45.4030 N   0  0  0  0  0  0  0  0  0  0  0  0
   44.0269   35.2891   41.7578 C   0  0  0  0  0  0  0  0  0  0  0  0
   43.0166   34.7645   41.0967 C   0  0  0  0  0  0  0  0  0  0  0  0
   42.6355   35.2015   39.7167 C   0  0  0  0  0  0  0  0  0  0  0  0
   43.8159   36.7349   44.0076 H   0  0  0  0  0  0  0  0  0  0  0  0
   45.2329   33.0311   42.4910 H   0  0  0  0  0  0  0  0  0  0  0  0
   44.6217   36.0797   41.2892 H   0  0  0  0  0  0  0  0  0  0  0  0
   42.5109   33.9980   41.6633 H   0  0  0  0  0  0  0  0  0  0  0  0
   42.1218   34.3128   39.2608 H   0  0  0  0  0  0  0  0  0  0  0  0
   41.9960   36.0930   39.7217 H   0  0  0  0  0  0  0  0  0  0  0  0
   43.5603   35.3512   39.0928 H   0  0  0  0  0  0  0  0  0  0  0  0
   45.7407   33.9266   46.9770 C   0  0  2  0  0  0  0  0  0  0  0  0
   45.3183   32.4906   47.2673 C   0  0  1  0  0  0  0  0  0  0  0  0
   44.6816   32.0653   46.4826 H   0  0  0  0  0  0  0  0  0  0  0  0
   44.5405   32.6550   48.5543 C   0  0  2  0  0  0  0  0  0  0  0  0
   44.8735   31.8183   49.2185 H   0  0  0  0  0  0  0  0  0  0  0  0
   44.9081   33.8940   49.0968 O   0  0  0  0  0  0  0  0  0  0  0  0
   45.0741   34.7674   48.0281 C   0  0  1  0  0  0  0  0  0  0  0  0
   45.7018   35.6093   48.3951 H   0  0  0  0  0  0  0  0  0  0  0  0
   46.8419   34.0296   47.0540 H   0  0  0  0  0  0  0  0  0  0  0  0
   46.1943   31.8245   47.3735 H   0  0  0  0  0  0  0  0  0  0  0  0
   43.4452   32.6110   48.3573 H   0  0  0  0  0  0  0  0  0  0  0  0
   44.1147   35.2196   47.7000 H   0  0  0  0  0  0  0  0  0  0  0  0
  1  6  2  0
  2  3  2  0
  2  1  1  0
  3  4  1  0
  4  5  2  0
  6  5  1  0
  7  2  1  0
  8  7  2  0
  9  8  1  0
  1 10  1  0
  3 11  1  0
  7 12  1  0
  8 13  1  0
  9 14  1  0
  9 15  1  0
  9 16  1  0
 17 18  1  0
 18 19  1  6
 18 20  1  0
 20 21  1  1
 20 22  1  0
 22 23  1  0
 23 24  1  1
 23 17  1  0
 17 25  1  6
 18 26  1  0
 20 27  1  0
 23 28  1  0
  5 17  1  0
M  ISO  8  10  14  11  14  14   8  15   8  16   8  19  15  21  15  24  15
M  END
>  <DihAtoms>  (1) 
3,4,16,17

>  <DihDeg>  (1) 
-119.82539203628494

$$$$
