
 OpenBabel03252502173D

 23 24  0  0  1  0  0  0  0  0999 V2000
   46.0950   35.7570   42.6000 C   0  0  0  0  0  0  0  0  0  0  0  0
   46.3280   34.4160   42.9760 C   0  0  0  0  0  0  0  0  0  0  0  0
   45.6750   33.9250   44.1300 C   0  0  0  0  0  0  0  0  0  0  0  0
   44.8600   34.7550   44.8180 N   0  0  0  0  0  0  0  0  0  0  0  0
   44.6700   36.0370   44.4130 C   0  0  0  0  0  0  0  0  0  0  0  0
   45.2710   36.5470   43.3230 N   0  0  0  0  0  0  0  0  0  0  0  0
   46.5860   36.1410   41.7270 H   0  0  0  0  0  0  0  0  0  0  0  0
   44.0130   36.6310   45.0100 H   0  0  0  0  0  0  0  0  0  0  0  0
   45.9410   32.5080   44.4980 C   0  0  2  0  0  3  0  0  0  0  0  0
   47.3950   32.2900   44.8700 C   0  0  0  0  0  3  0  0  0  0  0  0
   47.6180   32.5210   45.9200 H   0  0  0  0  0  0  0  0  0  0  0  0
   47.5390   30.8200   44.5360 C   0  0  0  0  0  3  0  0  0  0  0  0
   47.0740   30.2620   45.3630 H   0  0  0  0  0  0  0  0  0  0  0  0
   46.8860   30.7270   43.3250 O   0  0  0  0  0  0  0  0  0  0  0  0
   45.8090   31.5720   43.3360 C   0  0  0  0  0  3  0  0  0  0  0  0
   44.8900   30.9500   43.5020 H   0  0  0  0  0  0  0  0  0  0  0  0
   47.1820   33.6830   42.1840 O   0  0  0  0  0  0  0  0  0  0  0  0
   49.6360   33.0600   41.4160 O   0  0  0  0  0  0  0  0  0  0  0  0
   48.8010   34.1880   41.9070 P   0  0  0  0  0  0  0  0  0  0  0  0
   48.8400   35.4110   40.7360 O   0  0  0  0  0  0  0  0  0  0  0  0
   48.5620   34.9760   39.8760 H   0  0  0  0  0  0  0  0  0  0  0  0
   49.4760   34.7870   43.3320 O   0  0  0  0  0  0  0  0  0  0  0  0
   48.8180   35.2110   43.9240 H   0  0  0  0  0  0  0  0  0  0  0  0
  1  2  2  0  0  0  0
  1  6  1  0  0  0  0
  2  3  1  0  0  0  0
  3  4  2  0  0  0  0
  5  4  1  0  0  0  0
  5  8  1  0  0  0  0
  6  5  2  0  0  0  0
  7  1  1  0  0  0  0
  9  3  1  6  0  0  0
  9 10  1  0  0  0  0
 10 11  1  0  0  0  0
 12 10  1  0  0  0  0
 12 13  1  0  0  0  0
 14 15  1  0  0  0  0
 14 12  1  0  0  0  0
 15 16  1  0  0  0  0
 15  9  1  0  0  0  0
 17  2  1  0  0  0  0
 18 19  2  0  0  0  0
 19 17  1  0  0  0  0
 19 22  1  0  0  0  0
 20 19  1  0  0  0  0
 21 20  1  0  0  0  0
 22 23  1  0  0  0  0
M  END
>  <minimizedAffinity>
-4.14549971

>  <minimizedRMSD>
0.926056564

$$$$
