REMARK  Name = 
REMARK  5 active torsions:
REMARK  status: ('A' for Active; 'I' for Inactive)
REMARK    1  A    between atoms: C_3  and  O_7
REMARK    2  A    between atoms: C_5  and  C_16
REMARK    3  A    between atoms: O_7  and  P_9
REMARK    4  A    between atoms: P_9  and  O_10
REMARK    5  A    between atoms: P_9  and  O_11
REMARK                            x       y       z     vdW  Elec       q    Type
REMARK                         _______ _______ _______ _____ _____    ______ ____
ROOT
ATOM      1  C   UNL     1      44.581  35.989  44.520  0.00  0.00    +0.000 A 
ATOM      2  C   UNL     1      45.223  35.991  43.257  0.00  0.00    +0.000 A 
ATOM      3  C   UNL     1      46.098  34.954  42.961  0.00  0.00    +0.000 A 
ATOM      4  N   UNL     1      46.293  33.987  43.906  0.00  0.00    +0.000 NA
ATOM      5  C   UNL     1      45.674  34.007  45.094  0.00  0.00    +0.000 A 
ATOM      6  N   UNL     1      44.815  35.010  45.405  0.00  0.00    +0.000 NA
ATOM      7  H   UNL     1      43.919  36.846  44.642  0.00  0.00    +0.000 HD
ATOM      8  H   UNL     1      45.057  36.766  42.519  0.00  0.00    +0.000 HD
ENDROOT
BRANCH   5   9
ATOM      9  C   UNL     1      45.883  32.967  46.112  0.00  0.00    +0.000 C 
ATOM     10  C   UNL     1      44.887  31.809  45.957  0.00  0.00    +0.000 C 
ATOM     11  H   UNL     1      43.914  32.138  46.380  0.00  0.00    +0.000 HD
ATOM     12  C   UNL     1      45.607  30.820  46.852  0.00  0.00    +0.000 C 
ATOM     13  H   UNL     1      45.290  29.779  46.707  0.00  0.00    +0.000 HD
ATOM     14  O   UNL     1      46.962  31.047  46.704  0.00  0.00    +0.000 OA
ATOM     15  C   UNL     1      47.160  32.207  45.999  0.00  0.00    +0.000 C 
ATOM     16  H   UNL     1      47.345  31.904  44.928  0.00  0.00    +0.000 HD
ENDBRANCH   5   9
BRANCH   3  17
ATOM     17  O   UNL     1      46.716  34.968  41.729  0.00  0.00    +0.000 OA
BRANCH  17  19
ATOM     18  O   UNL     1      48.645  33.327  40.970  0.00  0.00    +0.000 OA
ATOM     19  P   UNL     1      48.408  34.691  41.628  0.00  0.00    +0.000 P 
BRANCH  19  20
ATOM     20  O   UNL     1      49.127  35.930  40.786  0.00  0.00    +0.000 OA
ATOM     21  H   UNL     1      49.948  36.233  41.274  0.00  0.00    +0.000 HD
ENDBRANCH  19  20
BRANCH  19  22
ATOM     22  O   UNL     1      48.995  34.586  43.224  0.00  0.00    +0.000 OA
ATOM     23  H   UNL     1      48.880  33.659  43.512  0.00  0.00    +0.000 HD
ENDBRANCH  19  22
ENDBRANCH  17  19
ENDBRANCH   3  17
TORSDOF 5
