
 OpenBabel03252505303D

 26 27  0  0  1  0  0  0  0  0999 V2000
   47.4660   32.6200   47.6720 O   0  0  0  0  0  0  0  0  0  0  0  0
   46.2970   32.5250   46.6830 P   0  0  1  0  0  0  0  0  0  0  0  0
   45.5720   34.0190   46.4540 O   0  0  0  0  0  0  0  0  0  0  0  0
   46.2050   34.7820   46.5520 H   0  0  0  0  0  0  0  0  0  0  0  0
   46.9180   31.9250   45.2310 O   0  0  0  0  0  0  0  0  0  0  0  0
   47.0660   34.5550   42.8660 C   0  0  0  0  0  0  0  0  0  0  0  0
   46.8680   33.9320   41.6180 C   0  0  0  0  0  0  0  0  0  0  0  0
   46.6770   32.5230   41.6410 C   0  0  0  0  0  0  0  0  0  0  0  0
   46.6990   31.8910   42.8570 N   0  0  0  0  0  0  0  0  0  0  0  0
   46.8930   32.5470   44.0060 C   0  0  0  0  0  0  0  0  0  0  0  0
   47.0760   33.8690   44.0160 N   0  0  0  0  0  0  0  0  0  0  0  0
   47.2170   35.6400   42.8900 H   0  0  0  0  0  0  0  0  0  0  0  0
   46.8570   34.4590   40.6920 H   0  0  0  0  0  0  0  0  0  0  0  0
   46.5180   31.9630   40.7340 H   0  0  0  0  0  0  0  0  0  0  0  0
   45.1720   31.4950   47.3840 O   0  0  0  0  0  0  0  0  0  0  0  0
   45.8210   30.4830   48.0280 C   0  0  0  0  0  0  0  0  0  0  0  0
   46.8390   30.6940   48.3530 H   0  0  0  0  0  0  0  0  0  0  0  0
   45.2400   30.2650   48.9630 H   0  0  0  0  0  0  0  0  0  0  0  0
   45.8440   29.1840   47.2630 C   0  0  2  0  0  3  0  0  0  0  0  0
   45.0120   28.0950   47.9120 C   0  0  0  0  0  3  0  0  0  0  0  0
   43.9800   28.1800   47.5490 H   0  0  0  0  0  0  0  0  0  0  0  0
   45.7340   26.8700   47.3360 C   0  0  0  0  0  3  0  0  0  0  0  0
   45.5020   25.9460   47.8970 H   0  0  0  0  0  0  0  0  0  0  0  0
   47.0550   27.2090   47.4590 O   0  0  0  0  0  0  0  0  0  0  0  0
   47.2140   28.5670   47.3260 C   0  0  0  0  0  3  0  0  0  0  0  0
   47.8180   28.9900   48.1800 H   0  0  0  0  0  0  0  0  0  0  0  0
  2 15  1  0  0  0  0
  2  1  2  1  0  0  0
  3  4  1  0  0  0  0
  3  2  1  0  0  0  0
  5  2  1  0  0  0  0
  6 12  1  0  0  0  0
  6 11  1  0  0  0  0
  7  8  1  0  0  0  0
  7  6  2  0  0  0  0
  8  9  2  0  0  0  0
  9 10  1  0  0  0  0
 10 11  2  0  0  0  0
 10  5  1  0  0  0  0
 13  7  1  0  0  0  0
 14  8  1  0  0  0  0
 15 16  1  0  0  0  0
 16 17  1  0  0  0  0
 16 18  1  0  0  0  0
 19 25  1  0  0  0  0
 19 20  1  0  0  0  0
 19 16  1  1  0  0  0
 21 20  1  0  0  0  0
 22 24  1  0  0  0  0
 22 23  1  0  0  0  0
 22 20  1  0  0  0  0
 25 24  1  0  0  0  0
 25 26  1  0  0  0  0
M  END
>  <minimizedAffinity>
-3.47063184

>  <minimizedRMSD>
2.28171206

$$$$
