
 OpenBabel03252504373D

 22 23  0  0  1  0  0  0  0  0999 V2000
   44.9560   37.1700   43.2220 C   0  0  0  0  0  0  0  0  0  0  0  0
   45.4590   38.1660   43.9190 C   0  0  0  0  0  0  0  0  0  0  0  0
   45.2930   35.8110   43.6260 C   0  0  0  0  0  0  0  0  0  0  0  0
   46.0000   35.0060   42.7150 C   0  0  0  0  0  0  0  0  0  0  0  0
   46.3410   33.6900   43.0760 C   0  0  0  0  0  0  0  0  0  0  0  0
   45.9590   33.2620   44.3060 N   0  0  0  0  0  0  0  0  0  0  0  0
   45.2810   34.0630   45.1560 C   0  0  0  0  0  0  0  0  0  0  0  0
   44.9530   35.3110   44.8250 N   0  0  0  0  0  0  0  0  0  0  0  0
   46.2890   35.3820   41.7360 H   0  0  0  0  0  0  0  0  0  0  0  0
   46.8810   33.1030   42.3520 H   0  0  0  0  0  0  0  0  0  0  0  0
   45.0260   33.6170   46.1160 H   0  0  0  0  0  0  0  0  0  0  0  0
   45.2000   39.5910   43.6240 C   0  0  0  0  0  0  0  0  0  0  0  0
   45.8700   39.9020   42.7880 H   0  0  0  0  0  0  0  0  0  0  0  0
   44.1470   39.7550   43.3370 H   0  0  0  0  0  0  0  0  0  0  0  0
   45.5290   40.4880   44.7950 C   0  0  2  0  0  0  0  0  0  0  0  0
   45.2260   39.8050   46.1140 C   0  0  0  0  0  0  0  0  0  0  0  0
   46.1170   39.3580   46.5850 H   0  0  0  0  0  0  0  0  0  0  0  0
   44.6070   40.9050   46.9420 C   0  0  0  0  0  0  0  0  0  0  0  0
   43.9360   40.4550   47.7090 H   0  0  0  0  0  0  0  0  0  0  0  0
   43.8580   41.5900   45.9960 O   0  0  0  0  0  0  0  0  0  0  0  0
   44.6110   41.6840   44.8450 C   0  0  0  0  0  0  0  0  0  0  0  0
   43.9140   41.6100   43.9830 H   0  0  0  0  0  0  0  0  0  0  0  0
  1  3  1  0  0  0  0
  1  2  2  0  0  0  0
  3  8  1  0  0  0  0
  4  5  1  0  0  0  0
  4  3  2  0  0  0  0
  5  6  2  0  0  0  0
  6  7  1  0  0  0  0
  7 11  1  0  0  0  0
  8  7  2  0  0  0  0
  9  4  1  0  0  0  0
 10  5  1  0  0  0  0
 12  2  1  0  0  0  0
 13 12  1  0  0  0  0
 14 12  1  0  0  0  0
 15 12  1  6  0  0  0
 15 21  1  0  0  0  0
 15 16  1  0  0  0  0
 16 17  1  0  0  0  0
 16 18  1  0  0  0  0
 18 19  1  0  0  0  0
 20 18  1  0  0  0  0
 21 20  1  0  0  0  0
 22 21  1  0  0  0  0
M  END
>  <minimizedAffinity>
-2.78387976

>  <minimizedRMSD>
2.92350602

$$$$
