
 OpenBabel03252504293D

 26 27  0  0  1  0  0  0  0  0999 V2000
   36.1730   29.9970   41.3400 O   0  0  0  0  0  0  0  0  0  0  0  0
   36.3850   30.8570   40.2930 C   0  0  0  0  0  0  0  0  0  0  0  0
   35.4810   31.5600   40.2780 H   0  0  0  0  0  0  0  0  0  0  0  0
   36.4440   30.4310   39.2790 H   0  0  0  0  0  0  0  0  0  0  0  0
   37.2990   33.0390   39.8650 C   0  0  0  0  0  0  0  0  0  0  0  0
   37.5200   31.7870   40.4630 C   0  0  0  0  0  0  0  0  0  0  0  0
   38.7190   31.5900   41.0920 C   0  0  0  0  0  0  0  0  0  0  0  0
   39.5910   32.6060   41.0890 N   0  0  0  0  0  0  0  0  0  0  0  0
   39.3800   33.7900   40.5220 C   0  0  0  0  0  0  0  0  0  0  0  0
   38.1870   34.0600   39.8680 N   0  0  0  0  0  0  0  0  0  0  0  0
   36.3780   33.3030   39.3370 H   0  0  0  0  0  0  0  0  0  0  0  0
   38.8260   30.6200   41.5270 H   0  0  0  0  0  0  0  0  0  0  0  0
   40.1490   34.5580   40.5700 H   0  0  0  0  0  0  0  0  0  0  0  0
   36.2750   28.6160   41.3520 C   0  0  0  0  0  3  0  0  0  0  0  0
   36.7870   28.0200   42.4350 C   0  0  0  0  0  3  0  0  0  0  0  0
   36.9690   26.5440   42.6810 C   0  0  0  0  0  0  0  0  0  0  0  0
   35.9350   26.1160   42.6430 H   0  0  0  0  0  0  0  0  0  0  0  0
   37.3700   26.3400   43.6860 H   0  0  0  0  0  0  0  0  0  0  0  0
   37.7700   25.8600   41.6320 C   0  0  2  0  0  3  0  0  0  0  0  0
   37.9140   24.4080   42.0720 C   0  0  0  0  0  3  0  0  0  0  0  0
   37.8860   23.7300   41.1900 H   0  0  0  0  0  0  0  0  0  0  0  0
   39.2720   24.4200   42.7390 C   0  0  0  0  0  3  0  0  0  0  0  0
   39.7920   23.4460   42.6390 H   0  0  0  0  0  0  0  0  0  0  0  0
   40.0220   25.3370   42.0290 O   0  0  0  0  0  0  0  0  0  0  0  0
   39.2000   26.3450   41.5820 C   0  0  0  0  0  3  0  0  0  0  0  0
   39.3740   27.2900   42.1400 H   0  0  0  0  0  0  0  0  0  0  0  0
  1 14  1  0  0  0  0
  2  6  1  0  0  0  0
  2  1  1  0  0  0  0
  3  2  1  0  0  0  0
  4  2  1  0  0  0  0
  5 10  2  0  0  0  0
  5  6  1  0  0  0  0
  6  7  2  0  0  0  0
  7 12  1  0  0  0  0
  8  7  1  0  0  0  0
  9 13  1  0  0  0  0
  9  8  2  0  0  0  0
 10  9  1  0  0  0  0
 11  5  1  0  0  0  0
 14 15  2  0  0  0  0
 15 16  1  0  0  0  0
 16 18  1  0  0  0  0
 17 16  1  0  0  0  0
 19 20  1  0  0  0  0
 19 16  1  1  0  0  0
 20 22  1  0  0  0  0
 21 20  1  0  0  0  0
 23 22  1  0  0  0  0
 24 22  1  0  0  0  0
 25 19  1  0  0  0  0
 25 24  1  0  0  0  0
 25 26  1  0  0  0  0
M  END
>  <minimizedAffinity>
-4.1268301

$$$$

 OpenBabel03252504293D

 26 27  0  0  1  0  0  0  0  0999 V2000
   35.9730   30.3380   39.7890 O   0  0  0  0  0  0  0  0  0  0  0  0
   36.8420   30.8290   38.8490 C   0  0  0  0  0  0  0  0  0  0  0  0
   36.1870   31.2480   38.0080 H   0  0  0  0  0  0  0  0  0  0  0  0
   37.5300   30.1200   38.3620 H   0  0  0  0  0  0  0  0  0  0  0  0
   39.0080   31.7580   39.3250 C   0  0  0  0  0  0  0  0  0  0  0  0
   37.6260   32.0070   39.2720 C   0  0  0  0  0  0  0  0  0  0  0  0
   37.1970   33.2600   39.6170 C   0  0  0  0  0  0  0  0  0  0  0  0
   38.1270   34.1520   39.9820 N   0  0  0  0  0  0  0  0  0  0  0  0
   39.4330   33.9120   40.0330 C   0  0  0  0  0  0  0  0  0  0  0  0
   39.9390   32.6660   39.6950 N   0  0  0  0  0  0  0  0  0  0  0  0
   39.4580   30.7940   39.0710 H   0  0  0  0  0  0  0  0  0  0  0  0
   36.1370   33.3870   39.5550 H   0  0  0  0  0  0  0  0  0  0  0  0
   40.1160   34.7000   40.3420 H   0  0  0  0  0  0  0  0  0  0  0  0
   36.2540   29.8930   41.0710 C   0  0  0  0  0  3  0  0  0  0  0  0
   36.2300   28.5780   41.3130 C   0  0  0  0  0  3  0  0  0  0  0  0
   36.5250   27.8700   42.6110 C   0  0  0  0  0  0  0  0  0  0  0  0
   35.5950   27.2930   42.8430 H   0  0  0  0  0  0  0  0  0  0  0  0
   36.6860   28.5770   43.4390 H   0  0  0  0  0  0  0  0  0  0  0  0
   37.6400   26.8910   42.5140 C   0  0  2  0  0  3  0  0  0  0  0  0
   38.6360   27.2560   43.6090 C   0  0  0  0  0  3  0  0  0  0  0  0
   39.0930   26.3380   44.0420 H   0  0  0  0  0  0  0  0  0  0  0  0
   39.6430   28.0890   42.8460 C   0  0  0  0  0  3  0  0  0  0  0  0
   40.6630   27.9960   43.2690 H   0  0  0  0  0  0  0  0  0  0  0  0
   39.6930   27.5370   41.5810 O   0  0  0  0  0  0  0  0  0  0  0  0
   38.4490   27.0520   41.2490 C   0  0  0  0  0  3  0  0  0  0  0  0
   37.9580   27.6830   40.4790 H   0  0  0  0  0  0  0  0  0  0  0  0
  1 14  1  0  0  0  0
  2  6  1  0  0  0  0
  2  1  1  0  0  0  0
  3  2  1  0  0  0  0
  4  2  1  0  0  0  0
  5 10  1  0  0  0  0
  6  5  2  0  0  0  0
  6  7  1  0  0  0  0
  7  8  2  0  0  0  0
  8  9  1  0  0  0  0
  9 13  1  0  0  0  0
 10  9  2  0  0  0  0
 11  5  1  0  0  0  0
 12  7  1  0  0  0  0
 14 15  2  0  0  0  0
 15 16  1  0  0  0  0
 16 17  1  0  0  0  0
 16 18  1  0  0  0  0
 19 16  1  6  0  0  0
 19 20  1  0  0  0  0
 20 21  1  0  0  0  0
 22 23  1  0  0  0  0
 22 20  1  0  0  0  0
 24 22  1  0  0  0  0
 25 24  1  0  0  0  0
 25 19  1  0  0  0  0
 26 25  1  0  0  0  0
M  END
>  <minimizedAffinity>
-4.11257887

$$$$

 OpenBabel03252504293D

 26 27  0  0  1  0  0  0  0  0999 V2000
   36.7290   30.2220   41.6830 O   0  0  0  0  0  0  0  0  0  0  0  0
   37.0620   30.6090   40.4100 C   0  0  0  0  0  0  0  0  0  0  0  0
   36.0700   30.7970   39.8710 H   0  0  0  0  0  0  0  0  0  0  0  0
   37.6090   29.8900   39.7800 H   0  0  0  0  0  0  0  0  0  0  0  0
   39.0590   31.8900   40.7980 C   0  0  0  0  0  0  0  0  0  0  0  0
   37.7430   31.9160   40.3080 C   0  0  0  0  0  0  0  0  0  0  0  0
   37.2720   33.1070   39.8270 C   0  0  0  0  0  0  0  0  0  0  0  0
   38.1010   34.1580   39.8630 N   0  0  0  0  0  0  0  0  0  0  0  0
   39.3450   34.1310   40.3280 C   0  0  0  0  0  0  0  0  0  0  0  0
   39.8890   32.9570   40.8290 N   0  0  0  0  0  0  0  0  0  0  0  0
   39.5350   30.9930   41.2050 H   0  0  0  0  0  0  0  0  0  0  0  0
   36.2660   33.0620   39.4680 H   0  0  0  0  0  0  0  0  0  0  0  0
   39.9470   35.0360   40.3170 H   0  0  0  0  0  0  0  0  0  0  0  0
   37.1400   29.0950   42.3750 C   0  0  0  0  0  3  0  0  0  0  0  0
   36.6920   27.8990   41.9780 C   0  0  0  0  0  3  0  0  0  0  0  0
   37.0230   26.5480   42.5580 C   0  0  0  0  0  0  0  0  0  0  0  0
   36.0390   26.0210   42.6420 H   0  0  0  0  0  0  0  0  0  0  0  0
   37.4400   26.6250   43.5740 H   0  0  0  0  0  0  0  0  0  0  0  0
   37.8930   25.7210   41.6810 C   0  0  2  0  0  3  0  0  0  0  0  0
   37.1210   25.4990   40.3850 C   0  0  0  0  0  3  0  0  0  0  0  0
   37.8140   25.5000   39.5150 H   0  0  0  0  0  0  0  0  0  0  0  0
   36.5040   24.1380   40.6230 C   0  0  0  0  0  3  0  0  0  0  0  0
   36.3780   23.5700   39.6790 H   0  0  0  0  0  0  0  0  0  0  0  0
   37.4280   23.4420   41.3770 O   0  0  0  0  0  0  0  0  0  0  0  0
   38.0870   24.3180   42.2070 C   0  0  0  0  0  3  0  0  0  0  0  0
   37.7760   24.1890   43.2660 H   0  0  0  0  0  0  0  0  0  0  0  0
  1 14  1  0  0  0  0
  2  1  1  0  0  0  0
  3  2  1  0  0  0  0
  4  2  1  0  0  0  0
  5 10  1  0  0  0  0
  5 11  1  0  0  0  0
  6  2  1  0  0  0  0
  6  5  2  0  0  0  0
  7  8  2  0  0  0  0
  7  6  1  0  0  0  0
  8  9  1  0  0  0  0
  9 10  2  0  0  0  0
 12  7  1  0  0  0  0
 13  9  1  0  0  0  0
 15 14  2  0  0  0  0
 15 16  1  0  0  0  0
 16 17  1  0  0  0  0
 16 18  1  0  0  0  0
 19 25  1  0  0  0  0
 19 16  1  1  0  0  0
 20 22  1  0  0  0  0
 20 19  1  0  0  0  0
 21 20  1  0  0  0  0
 22 24  1  0  0  0  0
 23 22  1  0  0  0  0
 24 25  1  0  0  0  0
 25 26  1  0  0  0  0
M  END
>  <minimizedAffinity>
-4.09260464

$$$$

 OpenBabel03252504293D

 26 27  0  0  1  0  0  0  0  0999 V2000
   37.7680   29.3160   42.7730 O   0  0  0  0  0  0  0  0  0  0  0  0
   37.4670   28.2250   43.5480 C   0  0  0  0  0  0  0  0  0  0  0  0
   36.4220   27.8900   43.2220 H   0  0  0  0  0  0  0  0  0  0  0  0
   37.4050   28.3690   44.6380 H   0  0  0  0  0  0  0  0  0  0  0  0
   37.6150   26.0420   42.5510 C   0  0  0  0  0  0  0  0  0  0  0  0
   38.2910   27.0250   43.2920 C   0  0  0  0  0  0  0  0  0  0  0  0
   39.5750   26.7530   43.6800 C   0  0  0  0  0  0  0  0  0  0  0  0
   40.0880   25.5680   43.3240 N   0  0  0  0  0  0  0  0  0  0  0  0
   39.4450   24.6390   42.6240 C   0  0  0  0  0  0  0  0  0  0  0  0
   38.1420   24.8480   42.1970 N   0  0  0  0  0  0  0  0  0  0  0  0
   36.5880   26.1550   42.1920 H   0  0  0  0  0  0  0  0  0  0  0  0
   40.0350   27.5400   44.2380 H   0  0  0  0  0  0  0  0  0  0  0  0
   39.9440   23.7040   42.3810 H   0  0  0  0  0  0  0  0  0  0  0  0
   37.4800   29.5270   41.4350 C   0  0  0  0  0  3  0  0  0  0  0  0
   36.8290   30.6420   41.0870 C   0  0  0  0  0  3  0  0  0  0  0  0
   36.4350   31.0910   39.7030 C   0  0  0  0  0  0  0  0  0  0  0  0
   35.3380   31.3050   39.7700 H   0  0  0  0  0  0  0  0  0  0  0  0
   36.5670   30.2920   38.9560 H   0  0  0  0  0  0  0  0  0  0  0  0
   37.1050   32.3460   39.2710 C   0  0  2  0  0  3  0  0  0  0  0  0
   38.0180   31.9750   38.1080 C   0  0  0  0  0  3  0  0  0  0  0  0
   38.0380   32.7930   37.3530 H   0  0  0  0  0  0  0  0  0  0  0  0
   39.3510   31.8060   38.8030 C   0  0  0  0  0  3  0  0  0  0  0  0
   40.2000   32.0720   38.1420 H   0  0  0  0  0  0  0  0  0  0  0  0
   39.3500   32.7310   39.8280 O   0  0  0  0  0  0  0  0  0  0  0  0
   38.0680   32.8780   40.3050 C   0  0  0  0  0  3  0  0  0  0  0  0
   37.9510   32.4160   41.3080 H   0  0  0  0  0  0  0  0  0  0  0  0
  1  2  1  0  0  0  0
  2  4  1  0  0  0  0
  3  2  1  0  0  0  0
  5  6  1  0  0  0  0
  6  2  1  0  0  0  0
  6  7  2  0  0  0  0
  7 12  1  0  0  0  0
  8  7  1  0  0  0  0
  9  8  2  0  0  0  0
 10  5  2  0  0  0  0
 10  9  1  0  0  0  0
 11  5  1  0  0  0  0
 13  9  1  0  0  0  0
 14  1  1  0  0  0  0
 15 14  2  0  0  0  0
 16 17  1  0  0  0  0
 16 15  1  0  0  0  0
 18 16  1  0  0  0  0
 19 16  1  1  0  0  0
 19 25  1  0  0  0  0
 20 22  1  0  0  0  0
 20 19  1  0  0  0  0
 21 20  1  0  0  0  0
 22 24  1  0  0  0  0
 23 22  1  0  0  0  0
 24 25  1  0  0  0  0
 25 26  1  0  0  0  0
M  END
>  <minimizedAffinity>
-4.08982706

$$$$

 OpenBabel03252504293D

 26 27  0  0  1  0  0  0  0  0999 V2000
   37.1610   28.4070   43.4240 O   0  0  0  0  0  0  0  0  0  0  0  0
   38.3310   28.9260   42.9340 C   0  0  0  0  0  0  0  0  0  0  0  0
   38.7550   28.1300   42.2280 H   0  0  0  0  0  0  0  0  0  0  0  0
   39.1380   29.1450   43.6510 H   0  0  0  0  0  0  0  0  0  0  0  0
   36.8770   30.2330   41.5340 C   0  0  0  0  0  0  0  0  0  0  0  0
   38.1770   30.1000   42.0490 C   0  0  0  0  0  0  0  0  0  0  0  0
   39.1050   31.0320   41.6710 C   0  0  0  0  0  0  0  0  0  0  0  0
   38.7030   31.9990   40.8370 N   0  0  0  0  0  0  0  0  0  0  0  0
   37.4720   32.1210   40.3500 C   0  0  0  0  0  0  0  0  0  0  0  0
   36.4810   31.2140   40.6920 N   0  0  0  0  0  0  0  0  0  0  0  0
   36.0600   29.5450   41.7700 H   0  0  0  0  0  0  0  0  0  0  0  0
   40.0730   30.8770   42.0960 H   0  0  0  0  0  0  0  0  0  0  0  0
   37.2360   32.9420   39.6760 H   0  0  0  0  0  0  0  0  0  0  0  0
   36.6400   27.1360   43.2410 C   0  0  0  0  0  3  0  0  0  0  0  0
   37.2750   26.2960   42.4170 C   0  0  0  0  0  3  0  0  0  0  0  0
   36.9110   24.8700   42.0870 C   0  0  0  0  0  0  0  0  0  0  0  0
   36.2790   24.9390   41.1660 H   0  0  0  0  0  0  0  0  0  0  0  0
   36.2930   24.4100   42.8740 H   0  0  0  0  0  0  0  0  0  0  0  0
   38.0830   24.0180   41.7570 C   0  0  2  0  0  3  0  0  0  0  0  0
   39.0870   24.9160   41.0440 C   0  0  0  0  0  3  0  0  0  0  0  0
   40.1270   24.6350   41.3230 H   0  0  0  0  0  0  0  0  0  0  0  0
   38.7880   24.6210   39.5900 C   0  0  0  0  0  3  0  0  0  0  0  0
   39.6900   24.7160   38.9530 H   0  0  0  0  0  0  0  0  0  0  0  0
   38.4220   23.2900   39.5530 O   0  0  0  0  0  0  0  0  0  0  0  0
   37.7660   22.9680   40.7180 C   0  0  0  0  0  3  0  0  0  0  0  0
   36.6790   22.8200   40.5460 H   0  0  0  0  0  0  0  0  0  0  0  0
  2  1  1  0  0  0  0
  2  4  1  0  0  0  0
  3  2  1  0  0  0  0
  5 11  1  0  0  0  0
  5  6  1  0  0  0  0
  6  2  1  0  0  0  0
  7  6  2  0  0  0  0
  7 12  1  0  0  0  0
  8  7  1  0  0  0  0
  9 10  1  0  0  0  0
  9  8  2  0  0  0  0
 10  5  2  0  0  0  0
 13  9  1  0  0  0  0
 14  1  1  0  0  0  0
 15 14  2  0  0  0  0
 16 15  1  0  0  0  0
 16 18  1  0  0  0  0
 17 16  1  0  0  0  0
 19 16  1  6  0  0  0
 20 21  1  0  0  0  0
 20 19  1  0  0  0  0
 22 20  1  0  0  0  0
 23 22  1  0  0  0  0
 24 22  1  0  0  0  0
 24 25  1  0  0  0  0
 25 19  1  0  0  0  0
 26 25  1  0  0  0  0
M  END
>  <minimizedAffinity>
-4.08423615

$$$$

 OpenBabel03252504293D

 26 27  0  0  1  0  0  0  0  0999 V2000
   36.2250   29.5710   39.5140 O   0  0  0  0  0  0  0  0  0  0  0  0
   35.7310   29.1730   40.7300 C   0  0  0  0  0  0  0  0  0  0  0  0
   34.8600   28.4680   40.4970 H   0  0  0  0  0  0  0  0  0  0  0  0
   35.3150   29.9460   41.3950 H   0  0  0  0  0  0  0  0  0  0  0  0
   37.2640   29.0190   42.5750 C   0  0  0  0  0  0  0  0  0  0  0  0
   36.6370   28.3230   41.5290 C   0  0  0  0  0  0  0  0  0  0  0  0
   36.9430   26.9970   41.3800 C   0  0  0  0  0  0  0  0  0  0  0  0
   37.8190   26.4660   42.2420 N   0  0  0  0  0  0  0  0  0  0  0  0
   38.4110   27.1270   43.2310 C   0  0  0  0  0  0  0  0  0  0  0  0
   38.1470   28.4720   43.4420 N   0  0  0  0  0  0  0  0  0  0  0  0
   37.0930   30.0790   42.7840 H   0  0  0  0  0  0  0  0  0  0  0  0
   36.4340   26.5240   40.5680 H   0  0  0  0  0  0  0  0  0  0  0  0
   39.1110   26.6110   43.8840 H   0  0  0  0  0  0  0  0  0  0  0  0
   36.6080   30.8400   39.1140 C   0  0  0  0  0  3  0  0  0  0  0  0
   36.9960   31.7170   40.0470 C   0  0  0  0  0  3  0  0  0  0  0  0
   37.4750   33.1320   39.8460 C   0  0  0  0  0  0  0  0  0  0  0  0
   36.6100   33.7750   40.1470 H   0  0  0  0  0  0  0  0  0  0  0  0
   37.6910   33.3490   38.7880 H   0  0  0  0  0  0  0  0  0  0  0  0
   38.6230   33.5000   40.7150 C   0  0  2  0  0  3  0  0  0  0  0  0
   39.6610   34.1570   39.8120 C   0  0  0  0  0  3  0  0  0  0  0  0
   40.1790   34.9820   40.3500 H   0  0  0  0  0  0  0  0  0  0  0  0
   40.5880   32.9990   39.5140 C   0  0  0  0  0  3  0  0  0  0  0  0
   41.6340   33.3350   39.3580 H   0  0  0  0  0  0  0  0  0  0  0  0
   40.5940   32.2290   40.6600 O   0  0  0  0  0  0  0  0  0  0  0  0
   39.3560   32.2950   41.2560 C   0  0  0  0  0  3  0  0  0  0  0  0
   38.7970   31.3420   41.1420 H   0  0  0  0  0  0  0  0  0  0  0  0
  1  2  1  0  0  0  0
  2  4  1  0  0  0  0
  2  6  1  0  0  0  0
  3  2  1  0  0  0  0
  5 11  1  0  0  0  0
  5 10  1  0  0  0  0
  6  5  2  0  0  0  0
  7  6  1  0  0  0  0
  7  8  2  0  0  0  0
  8  9  1  0  0  0  0
  9 10  2  0  0  0  0
  9 13  1  0  0  0  0
 12  7  1  0  0  0  0
 14  1  1  0  0  0  0
 14 15  2  0  0  0  0
 16 15  1  0  0  0  0
 16 17  1  0  0  0  0
 18 16  1  0  0  0  0
 19 16  1  6  0  0  0
 19 25  1  0  0  0  0
 20 21  1  0  0  0  0
 20 19  1  0  0  0  0
 22 20  1  0  0  0  0
 22 24  1  0  0  0  0
 23 22  1  0  0  0  0
 24 25  1  0  0  0  0
 26 25  1  0  0  0  0
M  END
>  <minimizedAffinity>
-4.02908039

$$$$

 OpenBabel03252504293D

 26 27  0  0  1  0  0  0  0  0999 V2000
   37.1810   30.1930   41.8410 O   0  0  0  0  0  0  0  0  0  0  0  0
   36.1730   30.5570   40.9850 C   0  0  0  0  0  0  0  0  0  0  0  0
   35.9620   31.6610   41.2050 H   0  0  0  0  0  0  0  0  0  0  0  0
   35.2030   30.0450   41.0830 H   0  0  0  0  0  0  0  0  0  0  0  0
   37.1840   31.7560   39.1630 C   0  0  0  0  0  0  0  0  0  0  0  0
   36.5380   30.5720   39.5530 C   0  0  0  0  0  0  0  0  0  0  0  0
   36.3250   29.6220   38.5920 C   0  0  0  0  0  0  0  0  0  0  0  0
   36.7480   29.8950   37.3510 N   0  0  0  0  0  0  0  0  0  0  0  0
   37.3570   31.0180   36.9840 C   0  0  0  0  0  0  0  0  0  0  0  0
   37.6070   32.0230   37.9060 N   0  0  0  0  0  0  0  0  0  0  0  0
   37.4040   32.5800   39.8490 H   0  0  0  0  0  0  0  0  0  0  0  0
   35.8310   28.7450   38.9510 H   0  0  0  0  0  0  0  0  0  0  0  0
   37.6660   31.1530   35.9500 H   0  0  0  0  0  0  0  0  0  0  0  0
   37.3050   29.0260   42.5770 C   0  0  0  0  0  3  0  0  0  0  0  0
   36.8940   27.8770   42.0320 C   0  0  0  0  0  3  0  0  0  0  0  0
   36.9540   26.4940   42.6300 C   0  0  0  0  0  0  0  0  0  0  0  0
   35.9670   26.3580   43.1410 H   0  0  0  0  0  0  0  0  0  0  0  0
   37.7350   26.4110   43.4020 H   0  0  0  0  0  0  0  0  0  0  0  0
   37.0810   25.4130   41.6180 C   0  0  2  0  0  3  0  0  0  0  0  0
   37.9900   24.3510   42.2260 C   0  0  0  0  0  3  0  0  0  0  0  0
   37.6570   23.3330   41.9220 H   0  0  0  0  0  0  0  0  0  0  0  0
   39.3320   24.7150   41.6300 C   0  0  0  0  0  3  0  0  0  0  0  0
   39.9780   23.8260   41.4880 H   0  0  0  0  0  0  0  0  0  0  0  0
   39.0530   25.2000   40.3670 O   0  0  0  0  0  0  0  0  0  0  0  0
   37.8420   25.8510   40.3890 C   0  0  0  0  0  3  0  0  0  0  0  0
   37.9680   26.9510   40.3080 H   0  0  0  0  0  0  0  0  0  0  0  0
  1 14  1  0  0  0  0
  2  4  1  0  0  0  0
  2  3  1  0  0  0  0
  2  1  1  0  0  0  0
  5  6  1  0  0  0  0
  5 11  1  0  0  0  0
  6  2  1  0  0  0  0
  7 12  1  0  0  0  0
  7  6  2  0  0  0  0
  8  7  1  0  0  0  0
  9  8  2  0  0  0  0
  9 10  1  0  0  0  0
 10  5  2  0  0  0  0
 13  9  1  0  0  0  0
 15 14  2  0  0  0  0
 15 16  1  0  0  0  0
 16 17  1  0  0  0  0
 16 18  1  0  0  0  0
 19 20  1  0  0  0  0
 19 16  1  1  0  0  0
 21 20  1  0  0  0  0
 22 20  1  0  0  0  0
 23 22  1  0  0  0  0
 24 25  1  0  0  0  0
 24 22  1  0  0  0  0
 25 19  1  0  0  0  0
 26 25  1  0  0  0  0
M  END
>  <minimizedAffinity>
-4.01442957

$$$$

 OpenBabel03252504293D

 26 27  0  0  1  0  0  0  0  0999 V2000
   37.0040   32.0490   39.9050 O   0  0  0  0  0  0  0  0  0  0  0  0
   37.8440   33.0470   40.3280 C   0  0  0  0  0  0  0  0  0  0  0  0
   37.8280   33.0040   41.4720 H   0  0  0  0  0  0  0  0  0  0  0  0
   37.5840   34.0850   40.0680 H   0  0  0  0  0  0  0  0  0  0  0  0
   39.9430   34.0360   39.6980 C   0  0  0  0  0  0  0  0  0  0  0  0
   39.2720   32.8420   40.0130 C   0  0  0  0  0  0  0  0  0  0  0  0
   39.9980   31.6820   39.9770 C   0  0  0  0  0  0  0  0  0  0  0  0
   41.2910   31.7740   39.6420 N   0  0  0  0  0  0  0  0  0  0  0  0
   41.9220   32.9040   39.3430 C   0  0  0  0  0  0  0  0  0  0  0  0
   41.2500   34.1170   39.3610 N   0  0  0  0  0  0  0  0  0  0  0  0
   39.4600   35.0170   39.6960 H   0  0  0  0  0  0  0  0  0  0  0  0
   39.4320   30.8100   40.2270 H   0  0  0  0  0  0  0  0  0  0  0  0
   42.9770   32.8820   39.0820 H   0  0  0  0  0  0  0  0  0  0  0  0
   36.3270   31.1130   40.6680 C   0  0  0  0  0  3  0  0  0  0  0  0
   36.4690   29.8170   40.3690 C   0  0  0  0  0  3  0  0  0  0  0  0
   35.8560   28.6320   41.0700 C   0  0  0  0  0  0  0  0  0  0  0  0
   35.2330   28.1250   40.2900 H   0  0  0  0  0  0  0  0  0  0  0  0
   35.1790   28.9370   41.8820 H   0  0  0  0  0  0  0  0  0  0  0  0
   36.8570   27.6410   41.5480 C   0  0  2  0  0  3  0  0  0  0  0  0
   36.5730   27.4140   43.0280 C   0  0  0  0  0  3  0  0  0  0  0  0
   36.7550   26.3510   43.3010 H   0  0  0  0  0  0  0  0  0  0  0  0
   37.5680   28.3490   43.6800 C   0  0  0  0  0  3  0  0  0  0  0  0
   37.9110   27.9700   44.6640 H   0  0  0  0  0  0  0  0  0  0  0  0
   38.6740   28.3430   42.8530 O   0  0  0  0  0  0  0  0  0  0  0  0
   38.2650   28.1880   41.5490 C   0  0  0  0  0  3  0  0  0  0  0  0
   38.3810   29.1290   40.9710 H   0  0  0  0  0  0  0  0  0  0  0  0
  1  2  1  0  0  0  0
  1 14  1  0  0  0  0
  2  3  1  0  0  0  0
  4  2  1  0  0  0  0
  5  6  1  0  0  0  0
  6  2  1  0  0  0  0
  7  6  2  0  0  0  0
  7 12  1  0  0  0  0
  8  7  1  0  0  0  0
  9 10  1  0  0  0  0
  9  8  2  0  0  0  0
 10  5  2  0  0  0  0
 11  5  1  0  0  0  0
 13  9  1  0  0  0  0
 15 14  2  0  0  0  0
 15 16  1  0  0  0  0
 16 18  1  0  0  0  0
 17 16  1  0  0  0  0
 19 16  1  1  0  0  0
 19 25  1  0  0  0  0
 19 20  1  0  0  0  0
 20 21  1  0  0  0  0
 20 22  1  0  0  0  0
 22 23  1  0  0  0  0
 24 22  1  0  0  0  0
 25 24  1  0  0  0  0
 26 25  1  0  0  0  0
M  END
>  <minimizedAffinity>
-3.95260048

$$$$

 OpenBabel03252504293D

 26 27  0  0  1  0  0  0  0  0999 V2000
   37.0940   27.7190   38.7100 O   0  0  0  0  0  0  0  0  0  0  0  0
   36.3810   27.2370   39.7770 C   0  0  0  0  0  0  0  0  0  0  0  0
   36.2000   26.1280   39.5570 H   0  0  0  0  0  0  0  0  0  0  0  0
   35.3840   27.6660   39.9670 H   0  0  0  0  0  0  0  0  0  0  0  0
   36.6110   28.1070   42.0060 C   0  0  0  0  0  0  0  0  0  0  0  0
   37.1140   27.2000   41.0590 C   0  0  0  0  0  0  0  0  0  0  0  0
   38.1880   26.4360   41.4260 C   0  0  0  0  0  0  0  0  0  0  0  0
   38.6780   26.6120   42.6590 N   0  0  0  0  0  0  0  0  0  0  0  0
   38.2000   27.4720   43.5530 C   0  0  0  0  0  0  0  0  0  0  0  0
   37.1130   28.2780   43.2500 N   0  0  0  0  0  0  0  0  0  0  0  0
   35.7580   28.7660   41.8190 H   0  0  0  0  0  0  0  0  0  0  0  0
   38.5230   25.7650   40.6630 H   0  0  0  0  0  0  0  0  0  0  0  0
   38.6640   27.5460   44.5340 H   0  0  0  0  0  0  0  0  0  0  0  0
   37.6030   28.9930   38.5200 C   0  0  0  0  0  3  0  0  0  0  0  0
   36.8030   30.0420   38.7370 C   0  0  0  0  0  3  0  0  0  0  0  0
   37.1440   31.5060   38.6210 C   0  0  0  0  0  0  0  0  0  0  0  0
   36.3590   31.9320   37.9460 H   0  0  0  0  0  0  0  0  0  0  0  0
   38.1170   31.6660   38.1320 H   0  0  0  0  0  0  0  0  0  0  0  0
   37.0630   32.2400   39.9110 C   0  0  2  0  0  3  0  0  0  0  0  0
   37.4420   33.6860   39.6140 C   0  0  0  0  0  3  0  0  0  0  0  0
   36.8390   34.3830   40.2390 H   0  0  0  0  0  0  0  0  0  0  0  0
   38.9070   33.7050   39.9910 C   0  0  0  0  0  3  0  0  0  0  0  0
   39.2270   34.6980   40.3660 H   0  0  0  0  0  0  0  0  0  0  0  0
   39.0250   32.8300   41.0520 O   0  0  0  0  0  0  0  0  0  0  0  0
   38.1210   31.8050   40.8970 C   0  0  0  0  0  3  0  0  0  0  0  0
   38.6260   30.8540   40.6230 H   0  0  0  0  0  0  0  0  0  0  0  0
  1  2  1  0  0  0  0
  2  4  1  0  0  0  0
  2  6  1  0  0  0  0
  3  2  1  0  0  0  0
  5 10  1  0  0  0  0
  6  7  1  0  0  0  0
  6  5  2  0  0  0  0
  7  8  2  0  0  0  0
  8  9  1  0  0  0  0
  9 13  1  0  0  0  0
 10  9  2  0  0  0  0
 11  5  1  0  0  0  0
 12  7  1  0  0  0  0
 14  1  1  0  0  0  0
 14 15  2  0  0  0  0
 16 15  1  0  0  0  0
 17 16  1  0  0  0  0
 18 16  1  0  0  0  0
 19 16  1  6  0  0  0
 19 25  1  0  0  0  0
 20 19  1  0  0  0  0
 20 22  1  0  0  0  0
 20 21  1  0  0  0  0
 22 23  1  0  0  0  0
 22 24  1  0  0  0  0
 25 24  1  0  0  0  0
 26 25  1  0  0  0  0
M  END
>  <minimizedAffinity>
-3.93125319

$$$$
