
     RDKit          3D

 27 28  0  0  0  0  0  0  0  0999 V2000
   46.3521   35.2120   42.5842 C   0  0  0  0  0  0  0  0  0  0  0  0
   46.8772   34.0959   43.2725 C   0  0  0  0  0  0  0  0  0  0  0  0
   46.3260   33.7715   44.5337 C   0  0  0  0  0  0  0  0  0  0  0  0
   45.3260   34.5399   45.0233 N   0  0  0  0  0  0  0  0  0  0  0  0
   44.8585   35.6033   44.3185 C   0  0  0  0  0  0  0  0  0  0  0  0
   45.3520   35.9478   43.1169 N   0  0  0  0  0  0  0  0  0  0  0  0
   47.8941   33.4025   42.6583 O   0  0  0  0  0  0  0  0  0  0  0  0
   50.3989   33.2046   41.8290 O   0  0  0  0  0  0  0  0  0  0  0  0
   49.3333   34.1907   42.1471 P   0  0  0  0  0  0  0  0  0  0  0  0
   49.0359   35.1034   40.7500 O   0  0  0  0  0  0  0  0  0  0  0  0
   49.8899   35.2265   43.3565 O   0  0  0  0  0  0  0  0  0  0  0  0
   46.7629   35.4666   41.6269 H   0  0  0  0  0  0  0  0  0  0  0  0
   44.0675   36.1607   44.7726 H   0  0  0  0  0  0  0  0  0  0  0  0
   48.8432   34.4382   40.0246 H   0  0  0  0  0  0  0  0  0  0  0  0
   49.1685   35.6087   43.9018 H   0  0  0  0  0  0  0  0  0  0  0  0
   46.9002   32.5913   45.2324 C   0  0  2  0  0  0  0  0  0  0  0  0
   48.2218   32.1674   44.6209 C   0  0  2  0  0  0  0  0  0  0  0  0
   49.0847   32.7191   45.0172 H   0  0  0  0  0  0  0  0  0  0  0  0
   48.2299   30.6989   44.9915 C   0  0  2  0  0  0  0  0  0  0  0  0
   48.5152   30.6428   46.0547 H   0  0  0  0  0  0  0  0  0  0  0  0
   46.9348   30.3170   44.7123 O   0  0  0  0  0  0  0  0  0  0  0  0
   46.0903   31.3473   45.0304 C   0  0  1  0  0  0  0  0  0  0  0  0
   45.6003   31.0965   46.0088 H   0  0  0  0  0  0  0  0  0  0  0  0
   47.0752   32.8202   46.3009 H   0  0  0  0  0  0  0  0  0  0  0  0
   48.1191   32.2010   43.5195 H   0  0  0  0  0  0  0  0  0  0  0  0
   48.9474   30.1218   44.3625 H   0  0  0  0  0  0  0  0  0  0  0  0
   45.3517   31.4280   44.2098 H   0  0  0  0  0  0  0  0  0  0  0  0
  1  6  2  0
  1  2  1  0
  2  3  2  0
  3  4  1  0
  5  4  2  0
  6  5  1  0
  7  2  1  0
  8  9  2  0
  9  7  1  0
  9 11  1  0
 10  9  1  0
  1 12  1  0
  5 13  1  0
 10 14  1  0
 11 15  1  0
 16 17  1  0
 17 18  1  1
 17 19  1  0
 19 20  1  1
 19 21  1  0
 21 22  1  0
 22 23  1  1
 22 16  1  0
 16 24  1  1
 17 25  1  0
 19 26  1  0
 22 27  1  0
  3 16  1  0
M  ISO  7  12  14  13  14  14   3  15   3  18  15  20  15  23  15
M  END
>  <DihAtoms>  (1) 
1,2,15,16

>  <DihDeg>  (1) 
-89.9811377483582

$$$$
