
 OpenBabel03242516313D

 30 32  0  0  1  0  0  0  0  0999 V2000
   45.0530   33.9780   42.4040 C   0  0  2  0  0  0  0  0  0  0  0  0
   46.1900   34.9130   41.9660 C   0  0  1  0  0  0  0  0  0  0  0  0
   46.1460   35.8030   43.0230 O   0  0  0  0  0  0  0  0  0  0  0  0
   44.8020   36.1860   43.0790 C   0  0  0  0  0  0  0  0  0  0  0  0
   43.9760   35.0740   42.4850 C   0  0  1  0  0  0  0  0  0  0  0  0
   44.8400   33.2180   41.6630 H   0  0  0  0  0  0  0  0  0  0  0  0
   45.8580   35.3080   40.9950 H   0  0  0  0  0  0  0  0  0  0  0  0
   44.4800   36.4480   44.1080 H   0  0  0  0  0  0  0  0  0  0  0  0
   44.7010   37.0830   42.4480 H   0  0  0  0  0  0  0  0  0  0  0  0
   43.1310   34.7450   43.1140 H   0  0  0  0  0  0  0  0  0  0  0  0
   49.0690   32.6210   41.0270 C   0  0  0  0  0  0  0  0  0  0  0  0
   47.7660   33.1100   41.0250 C   0  0  0  0  0  0  0  0  0  0  0  0
   47.4610   34.2120   41.8110 C   0  0  0  0  0  0  0  0  0  0  0  0
   48.4780   34.7590   42.5530 N   0  0  0  0  0  0  0  0  0  0  0  0
   49.7310   34.2680   42.5400 C   0  0  0  0  0  0  0  0  0  0  0  0
   50.0300   33.2020   41.7800 N   0  0  0  0  0  0  0  0  0  0  0  0
   49.1580   31.7620   40.3700 H   0  0  0  0  0  0  0  0  0  0  0  0
   46.9350   32.7390   40.4780 H   0  0  0  0  0  0  0  0  0  0  0  0
   50.5180   34.7150   43.1310 H   0  0  0  0  0  0  0  0  0  0  0  0
   45.2460   33.5440   43.6820 O   0  0  0  0  0  0  0  0  0  0  0  0
   45.8100   34.1940   44.1930 H   0  0  0  0  0  0  0  0  0  0  0  0
   43.6120   35.3570   41.1650 O   0  0  0  0  0  0  0  0  0  0  0  0
   42.4190   34.7780   40.8250 C   0  0  2  0  0  0  0  0  0  0  0  0
   42.1780   35.1130   39.3480 C   0  0  0  0  0  0  0  0  0  0  0  0
   42.2690   34.1550   38.7680 H   0  0  0  0  0  0  0  0  0  0  0  0
   40.7820   35.6860   39.3040 C   0  0  0  0  0  0  0  0  0  0  0  0
   40.1530   35.1110   38.5810 H   0  0  0  0  0  0  0  0  0  0  0  0
   40.2280   35.5420   40.5530 O   0  0  0  0  0  0  0  0  0  0  0  0
   41.2640   35.4740   41.4880 C   0  0  0  0  0  0  0  0  0  0  0  0
   40.8430   34.8780   42.3370 H   0  0  0  0  0  0  0  0  0  0  0  0
  1  6  1  6  0  0  0
  1  5  1  0  0  0  0
  1 20  1  0  0  0  0
  2  7  1  6  0  0  0
  2  1  1  0  0  0  0
  2  3  1  0  0  0  0
  3  4  1  0  0  0  0
  4  8  1  0  0  0  0
  5  4  1  0  0  0  0
  5 10  1  1  0  0  0
  9  4  1  0  0  0  0
 11 16  1  0  0  0  0
 12 11  2  0  0  0  0
 12 13  1  0  0  0  0
 13  2  1  0  0  0  0
 13 14  2  0  0  0  0
 15 14  1  0  0  0  0
 15 19  1  0  0  0  0
 16 15  2  0  0  0  0
 17 11  1  0  0  0  0
 18 12  1  0  0  0  0
 20 21  1  0  0  0  0
 22  5  1  0  0  0  0
 23 22  1  1  0  0  0
 23 29  1  0  0  0  0
 24 23  1  0  0  0  0
 25 24  1  0  0  0  0
 26 24  1  0  0  0  0
 26 28  1  0  0  0  0
 27 26  1  0  0  0  0
 28 29  1  0  0  0  0
 29 30  1  0  0  0  0
M  END
>  <minimizedAffinity>
-4.55234718

>  <minimizedRMSD>
5.99333096

$$$$
