
 OpenBabel03242520263D

 37 39  0  0  1  0  0  0  0  0999 V2000
   45.1520   35.7830   43.4440 C   0  0  0  0  0  0  0  0  0  0  0  0
   45.9430   34.6000   43.4930 C   0  0  0  0  0  0  0  0  0  0  0  0
   45.9690   33.8790   44.6690 C   0  0  0  0  0  0  0  0  0  0  0  0
   45.2340   34.3340   45.7300 N   0  0  0  0  0  0  0  0  0  0  0  0
   44.4920   35.4550   45.6660 C   0  0  0  0  0  0  0  0  0  0  0  0
   44.4530   36.1690   44.5360 N   0  0  0  0  0  0  0  0  0  0  0  0
   45.1140   36.3650   42.5370 H   0  0  0  0  0  0  0  0  0  0  0  0
   43.9860   35.6500   46.6020 H   0  0  0  0  0  0  0  0  0  0  0  0
   46.6410   34.2740   42.3050 N   0  0  0  0  0  0  0  0  0  0  0  0
   47.8850   34.9340   41.9150 C   0  0  0  0  0  0  0  0  0  0  0  0
   48.4300   34.2610   40.6830 C   0  0  0  0  0  0  0  0  0  0  0  0
   47.4740   34.1730   39.6240 N   0  0  0  0  0  0  0  0  0  0  0  0
   46.2090   33.6260   39.9980 C   0  0  0  0  0  0  0  0  0  0  0  0
   46.0910   33.2420   41.4460 C   0  0  0  0  0  0  0  0  0  0  0  0
   47.6030   35.9850   41.7040 H   0  0  0  0  0  0  0  0  0  0  0  0
   48.6000   34.8590   42.7370 H   0  0  0  0  0  0  0  0  0  0  0  0
   49.3180   34.7630   40.3000 H   0  0  0  0  0  0  0  0  0  0  0  0
   48.6980   33.2170   40.9690 H   0  0  0  0  0  0  0  0  0  0  0  0
   47.3710   35.1260   39.2090 H   0  0  0  0  0  0  0  0  0  0  0  0
   45.3950   34.3290   39.7240 H   0  0  0  0  0  0  0  0  0  0  0  0
   46.0460   32.7040   39.3740 H   0  0  0  0  0  0  0  0  0  0  0  0
   45.0490   33.0180   41.6740 H   0  0  0  0  0  0  0  0  0  0  0  0
   46.6650   32.2810   41.5900 H   0  0  0  0  0  0  0  0  0  0  0  0
   46.7480   32.7290   44.6920 O   0  0  0  0  0  0  0  0  0  0  0  0
   47.9290   30.7590   46.0030 O   0  0  0  0  0  0  0  0  0  0  0  0
   46.9050   31.8720   46.1760 P   0  0  1  0  0  0  0  0  0  0  0  0
   47.3920   32.9660   47.3460 O   0  0  0  0  0  0  0  0  0  0  0  0
   48.3950   32.9860   47.3670 H   0  0  0  0  0  0  0  0  0  0  0  0
   45.3950   31.1860   46.5320 O   0  0  0  0  0  0  0  0  0  0  0  0
   45.5280   29.8280   46.7080 C   0  0  1  0  0  3  0  0  0  0  0  0
   45.1420   29.3970   48.1290 C   0  0  0  0  0  3  0  0  0  0  0  0
   45.9280   29.6250   48.8690 H   0  0  0  0  0  0  0  0  0  0  0  0
   45.0520   27.8910   47.8540 C   0  0  0  0  0  3  0  0  0  0  0  0
   46.1240   27.5490   47.7650 H   0  0  0  0  0  0  0  0  0  0  0  0
   44.5010   27.7720   46.5900 O   0  0  0  0  0  0  0  0  0  0  0  0
   44.5560   28.9830   45.9440 C   0  0  0  0  0  3  0  0  0  0  0  0
   44.7650   28.9150   44.8710 H   0  0  0  0  0  0  0  0  0  0  0  0
  1  2  2  0  0  0  0
  1  6  1  0  0  0  0
  2  3  1  0  0  0  0
  3 24  1  0  0  0  0
  3  4  2  0  0  0  0
  5  4  1  0  0  0  0
  5  8  1  0  0  0  0
  6  5  2  0  0  0  0
  7  1  1  0  0  0  0
  9  2  1  0  0  0  0
 10  9  1  0  0  0  0
 10 16  1  0  0  0  0
 11 18  1  0  0  0  0
 11 10  1  0  0  0  0
 12 13  1  0  0  0  0
 12 11  1  0  0  0  0
 13 14  1  0  0  0  0
 14 23  1  0  0  0  0
 14 22  1  0  0  0  0
 14  9  1  0  0  0  0
 15 10  1  0  0  0  0
 17 11  1  0  0  0  0
 19 12  1  0  0  0  0
 20 13  1  0  0  0  0
 21 13  1  0  0  0  0
 24 26  1  0  0  0  0
 26 25  2  6  0  0  0
 26 29  1  0  0  0  0
 26 27  1  0  0  0  0
 27 28  1  0  0  0  0
 30 29  1  1  0  0  0
 30 31  1  0  0  0  0
 31 32  1  0  0  0  0
 33 31  1  0  0  0  0
 34 33  1  0  0  0  0
 35 33  1  0  0  0  0
 36 35  1  0  0  0  0
 36 30  1  0  0  0  0
 37 36  1  0  0  0  0
M  END
>  <minimizedAffinity>
-5.14604664

>  <minimizedRMSD>
2.81472683

$$$$
