
 OpenBabel03242522383D

 44 47  0  0  1  0  0  0  0  0999 V2000
   36.5420   31.2590   39.9850 C   0  0  0  0  0  0  0  0  0  0  0  0
   37.0770   32.2100   39.1740 C   0  0  0  0  0  0  0  0  0  0  0  0
   37.4760   31.8210   37.9240 C   0  0  0  0  0  0  0  0  0  0  0  0
   37.3710   30.5220   37.4250 C   0  0  0  0  0  0  0  0  0  0  0  0
   36.8170   29.5820   38.2880 C   0  0  0  0  0  0  0  0  0  0  0  0
   36.4150   29.9600   39.5410 C   0  0  0  0  0  0  0  0  0  0  0  0
   37.9070   32.5500   37.2470 H   0  0  0  0  0  0  0  0  0  0  0  0
   37.7020   30.2670   36.4260 H   0  0  0  0  0  0  0  0  0  0  0  0
   36.7130   28.5510   37.9470 H   0  0  0  0  0  0  0  0  0  0  0  0
   37.2420   33.6160   39.5780 C   0  0  0  0  0  0  0  0  0  0  0  0
   36.5620   33.8010   40.4270 H   0  0  0  0  0  0  0  0  0  0  0  0
   36.9400   34.3370   38.7830 H   0  0  0  0  0  0  0  0  0  0  0  0
   40.8220   33.3780   40.5030 C   0  0  0  0  0  0  0  0  0  0  0  0
   41.1970   34.7140   40.5330 C   0  0  0  0  0  0  0  0  0  0  0  0
   40.2300   35.6590   40.2400 C   0  0  0  0  0  0  0  0  0  0  0  0
   38.9770   35.2570   39.9410 N   0  0  0  0  0  0  0  0  0  0  0  0
   38.6430   33.9480   39.9190 C   0  0  0  0  0  0  0  0  0  0  0  0
   39.5650   33.0410   40.1990 N   0  0  0  0  0  0  0  0  0  0  0  0
   41.5780   32.6380   40.7330 H   0  0  0  0  0  0  0  0  0  0  0  0
   42.1940   35.0820   40.7700 H   0  0  0  0  0  0  0  0  0  0  0  0
   40.5030   36.7160   40.2580 H   0  0  0  0  0  0  0  0  0  0  0  0
   36.1190   31.5970   41.2660 O   0  0  0  0  0  0  0  0  0  0  0  0
   35.1550   31.3660   41.5000 H   0  0  0  0  0  0  0  0  0  0  0  0
   35.8670   28.9860   40.3720 O   0  0  0  0  0  0  0  0  0  0  0  0
   36.7050   27.9500   40.7880 C   0  0  0  0  0  0  0  0  0  0  0  0
   36.5590   26.7400   40.1570 C   0  0  0  0  0  0  0  0  0  0  0  0
   37.3610   25.6880   40.5310 C   0  0  0  0  0  0  0  0  0  0  0  0
   38.3130   25.8540   41.5430 C   0  0  0  0  0  0  0  0  0  0  0  0
   38.4330   27.0890   42.1580 C   0  0  0  0  0  0  0  0  0  0  0  0
   37.6220   28.1490   41.7780 C   0  0  0  0  0  0  0  0  0  0  0  0
   35.8260   26.6100   39.3750 H   0  0  0  0  0  0  0  0  0  0  0  0
   37.2140   24.7520   40.0080 H   0  0  0  0  0  0  0  0  0  0  0  0
   38.9080   24.9940   41.7910 H   0  0  0  0  0  0  0  0  0  0  0  0
   39.4080   27.3510   43.2360 C   0  0  1  0  0  3  0  0  0  0  0  0
   39.9770   26.0570   43.8380 C   0  0  0  0  0  3  0  0  0  0  0  0
   40.1830   25.3240   43.0330 H   0  0  0  0  0  0  0  0  0  0  0  0
   41.3250   26.5130   44.3450 C   0  0  0  0  0  3  0  0  0  0  0  0
   42.1340   25.8170   44.0790 H   0  0  0  0  0  0  0  0  0  0  0  0
   41.5490   27.8060   43.8930 O   0  0  0  0  0  0  0  0  0  0  0  0
   40.6730   28.0240   42.8220 C   0  0  0  0  0  3  0  0  0  0  0  0
   41.0690   27.5970   41.8850 H   0  0  0  0  0  0  0  0  0  0  0  0
   37.7690   29.3970   42.4270 N   0  0  0  0  0  0  0  0  0  0  0  0
   38.6100   29.8370   41.9570 H   0  0  0  0  0  0  0  0  0  0  0  0
   37.0250   29.5130   43.1580 H   0  0  0  0  0  0  0  0  0  0  0  0
  1 22  1  0  0  0  0
  2 10  1  0  0  0  0
  2  1  2  0  0  0  0
  3  2  1  0  0  0  0
  4  3  2  0  0  0  0
  4  5  1  0  0  0  0
  5  6  2  0  0  0  0
  6  1  1  0  0  0  0
  6 24  1  0  0  0  0
  7  3  1  0  0  0  0
  8  4  1  0  0  0  0
  9  5  1  0  0  0  0
 10 17  1  0  0  0  0
 10 11  1  0  0  0  0
 12 10  1  0  0  0  0
 13 14  1  0  0  0  0
 13 19  1  0  0  0  0
 14 20  1  0  0  0  0
 15 21  1  0  0  0  0
 15 14  2  0  0  0  0
 16 15  1  0  0  0  0
 17 16  2  0  0  0  0
 17 18  1  0  0  0  0
 18 13  2  0  0  0  0
 22 23  1  0  0  0  0
 24 25  1  0  0  0  0
 25 30  1  0  0  0  0
 26 27  1  0  0  0  0
 26 25  2  0  0  0  0
 27 28  2  0  0  0  0
 28 33  1  0  0  0  0
 28 29  1  0  0  0  0
 30 29  2  0  0  0  0
 30 42  1  0  0  0  0
 31 26  1  0  0  0  0
 32 27  1  0  0  0  0
 34 29  1  6  0  0  0
 34 35  1  0  0  0  0
 35 37  1  0  0  0  0
 36 35  1  0  0  0  0
 38 37  1  0  0  0  0
 39 37  1  0  0  0  0
 40 34  1  0  0  0  0
 40 39  1  0  0  0  0
 41 40  1  0  0  0  0
 42 44  1  0  0  0  0
 43 42  1  0  0  0  0
M  END
>  <minimizedAffinity>
-7.00001907

$$$$

 OpenBabel03242522383D

 44 47  0  0  1  0  0  0  0  0999 V2000
   36.5670   27.7960   41.4550 C   0  0  0  0  0  0  0  0  0  0  0  0
   37.2070   26.6710   41.8720 C   0  0  0  0  0  0  0  0  0  0  0  0
   37.3400   25.6500   40.9710 C   0  0  0  0  0  0  0  0  0  0  0  0
   36.8690   25.6840   39.6580 C   0  0  0  0  0  0  0  0  0  0  0  0
   36.2220   26.8530   39.2730 C   0  0  0  0  0  0  0  0  0  0  0  0
   36.0820   27.8810   40.1670 C   0  0  0  0  0  0  0  0  0  0  0  0
   37.8440   24.7360   41.2650 H   0  0  0  0  0  0  0  0  0  0  0  0
   37.0020   24.8460   38.9840 H   0  0  0  0  0  0  0  0  0  0  0  0
   35.8340   26.9310   38.2570 H   0  0  0  0  0  0  0  0  0  0  0  0
   37.7510   26.5090   43.2300 C   0  0  0  0  0  0  0  0  0  0  0  0
   37.6280   25.4500   43.5150 H   0  0  0  0  0  0  0  0  0  0  0  0
   37.1920   27.0960   43.9970 H   0  0  0  0  0  0  0  0  0  0  0  0
   40.8880   28.4630   42.9950 C   0  0  0  0  0  0  0  0  0  0  0  0
   41.8020   27.6080   43.5960 C   0  0  0  0  0  0  0  0  0  0  0  0
   41.3330   26.3940   44.0640 C   0  0  0  0  0  0  0  0  0  0  0  0
   40.0260   26.0880   43.9230 N   0  0  0  0  0  0  0  0  0  0  0  0
   39.1610   26.9420   43.3340 C   0  0  0  0  0  0  0  0  0  0  0  0
   39.6060   28.1040   42.8850 N   0  0  0  0  0  0  0  0  0  0  0  0
   41.2550   29.4130   42.6280 H   0  0  0  0  0  0  0  0  0  0  0  0
   42.8620   27.8140   43.7300 H   0  0  0  0  0  0  0  0  0  0  0  0
   42.0340   25.7060   44.5410 H   0  0  0  0  0  0  0  0  0  0  0  0
   36.4020   28.8660   42.3280 O   0  0  0  0  0  0  0  0  0  0  0  0
   36.7520   29.7680   42.0090 H   0  0  0  0  0  0  0  0  0  0  0  0
   35.4280   29.0330   39.7400 O   0  0  0  0  0  0  0  0  0  0  0  0
   36.2020   30.0240   39.1320 C   0  0  0  0  0  0  0  0  0  0  0  0
   36.6180   29.7870   37.8460 C   0  0  0  0  0  0  0  0  0  0  0  0
   37.3810   30.7320   37.2040 C   0  0  0  0  0  0  0  0  0  0  0  0
   37.7270   31.9200   37.8570 C   0  0  0  0  0  0  0  0  0  0  0  0
   37.2890   32.1260   39.1550 C   0  0  0  0  0  0  0  0  0  0  0  0
   36.5180   31.1700   39.8010 C   0  0  0  0  0  0  0  0  0  0  0  0
   36.3510   28.8710   37.3390 H   0  0  0  0  0  0  0  0  0  0  0  0
   37.6880   30.5060   36.1910 H   0  0  0  0  0  0  0  0  0  0  0  0
   38.3280   32.6190   37.3020 H   0  0  0  0  0  0  0  0  0  0  0  0
   37.6100   33.3480   39.9200 C   0  0  1  0  0  3  0  0  0  0  0  0
   39.1100   33.4670   40.2310 C   0  0  0  0  0  3  0  0  0  0  0  0
   39.7050   33.1610   39.3490 H   0  0  0  0  0  0  0  0  0  0  0  0
   39.2870   34.9620   40.3570 C   0  0  0  0  0  3  0  0  0  0  0  0
   40.1710   35.3300   39.8170 H   0  0  0  0  0  0  0  0  0  0  0  0
   38.1090   35.5790   39.9580 O   0  0  0  0  0  0  0  0  0  0  0  0
   37.3900   34.6400   39.2080 C   0  0  0  0  0  3  0  0  0  0  0  0
   37.7520   34.5950   38.1670 H   0  0  0  0  0  0  0  0  0  0  0  0
   36.0880   31.4110   41.1260 N   0  0  0  0  0  0  0  0  0  0  0  0
   35.2510   32.0510   41.0150 H   0  0  0  0  0  0  0  0  0  0  0  0
   36.7060   30.9010   41.8040 H   0  0  0  0  0  0  0  0  0  0  0  0
  1  2  1  0  0  0  0
  1 22  1  0  0  0  0
  2 10  1  0  0  0  0
  3  7  1  0  0  0  0
  3  2  2  0  0  0  0
  4  3  1  0  0  0  0
  5  4  2  0  0  0  0
  5  6  1  0  0  0  0
  6  1  2  0  0  0  0
  8  4  1  0  0  0  0
  9  5  1  0  0  0  0
 10 17  1  0  0  0  0
 10 11  1  0  0  0  0
 10 12  1  0  0  0  0
 13 14  1  0  0  0  0
 14 20  1  0  0  0  0
 14 15  2  0  0  0  0
 15 21  1  0  0  0  0
 16 15  1  0  0  0  0
 17 16  2  0  0  0  0
 18 13  2  0  0  0  0
 18 17  1  0  0  0  0
 19 13  1  0  0  0  0
 23 22  1  0  0  0  0
 24  6  1  0  0  0  0
 25 24  1  0  0  0  0
 25 30  1  0  0  0  0
 26 25  2  0  0  0  0
 27 26  1  0  0  0  0
 27 28  2  0  0  0  0
 28 29  1  0  0  0  0
 29 30  2  0  0  0  0
 30 42  1  0  0  0  0
 31 26  1  0  0  0  0
 32 27  1  0  0  0  0
 33 28  1  0  0  0  0
 34 29  1  6  0  0  0
 34 35  1  0  0  0  0
 35 37  1  0  0  0  0
 36 35  1  0  0  0  0
 38 37  1  0  0  0  0
 39 37  1  0  0  0  0
 40 34  1  0  0  0  0
 40 39  1  0  0  0  0
 41 40  1  0  0  0  0
 42 44  1  0  0  0  0
 43 42  1  0  0  0  0
M  END
>  <minimizedAffinity>
-6.71256113

$$$$

 OpenBabel03242522383D

 44 47  0  0  1  0  0  0  0  0999 V2000
   36.4660   31.1390   39.8130 C   0  0  0  0  0  0  0  0  0  0  0  0
   37.1610   32.1240   39.1840 C   0  0  0  0  0  0  0  0  0  0  0  0
   37.7000   31.8340   37.9600 C   0  0  0  0  0  0  0  0  0  0  0  0
   37.5850   30.6020   37.3140 C   0  0  0  0  0  0  0  0  0  0  0  0
   36.8650   29.6240   37.9920 C   0  0  0  0  0  0  0  0  0  0  0  0
   36.3220   29.9040   39.2180 C   0  0  0  0  0  0  0  0  0  0  0  0
   38.2620   32.5920   37.4270 H   0  0  0  0  0  0  0  0  0  0  0  0
   38.0310   30.4240   36.3430 H   0  0  0  0  0  0  0  0  0  0  0  0
   36.7460   28.6430   37.5310 H   0  0  0  0  0  0  0  0  0  0  0  0
   37.3560   33.4660   39.7570 C   0  0  0  0  0  0  0  0  0  0  0  0
   36.7300   33.5360   40.6630 H   0  0  0  0  0  0  0  0  0  0  0  0
   37.0060   34.2830   39.0820 H   0  0  0  0  0  0  0  0  0  0  0  0
   40.9330   33.1390   40.6620 C   0  0  0  0  0  0  0  0  0  0  0  0
   41.3730   34.4520   40.5610 C   0  0  0  0  0  0  0  0  0  0  0  0
   40.4490   35.4120   40.1900 C   0  0  0  0  0  0  0  0  0  0  0  0
   39.1740   35.0460   39.9430 N   0  0  0  0  0  0  0  0  0  0  0  0
   38.7750   33.7600   40.0490 C   0  0  0  0  0  0  0  0  0  0  0  0
   39.6570   32.8380   40.4040 N   0  0  0  0  0  0  0  0  0  0  0  0
   41.6560   32.3880   40.9530 H   0  0  0  0  0  0  0  0  0  0  0  0
   42.3900   34.7910   40.7500 H   0  0  0  0  0  0  0  0  0  0  0  0
   40.7730   36.4510   40.1040 H   0  0  0  0  0  0  0  0  0  0  0  0
   35.8970   31.3780   41.0590 O   0  0  0  0  0  0  0  0  0  0  0  0
   34.8970   31.1970   41.1410 H   0  0  0  0  0  0  0  0  0  0  0  0
   35.6100   28.8950   39.8620 O   0  0  0  0  0  0  0  0  0  0  0  0
   36.3460   27.9000   40.5080 C   0  0  0  0  0  0  0  0  0  0  0  0
   36.8700   28.2130   41.7380 C   0  0  0  0  0  0  0  0  0  0  0  0
   37.6020   27.2670   42.4150 C   0  0  0  0  0  0  0  0  0  0  0  0
   37.8070   26.0020   41.8530 C   0  0  0  0  0  0  0  0  0  0  0  0
   37.2630   25.7210   40.6110 C   0  0  0  0  0  0  0  0  0  0  0  0
   36.5240   26.6780   39.9300 C   0  0  0  0  0  0  0  0  0  0  0  0
   36.7120   29.1890   42.1730 H   0  0  0  0  0  0  0  0  0  0  0  0
   37.9970   27.5550   43.3800 H   0  0  0  0  0  0  0  0  0  0  0  0
   38.3900   25.3070   42.4310 H   0  0  0  0  0  0  0  0  0  0  0  0
   37.4330   24.4140   39.9440 C   0  0  1  0  0  3  0  0  0  0  0  0
   38.7820   24.2980   39.2180 C   0  0  0  0  0  3  0  0  0  0  0  0
   39.5850   24.7430   39.8380 H   0  0  0  0  0  0  0  0  0  0  0  0
   39.0190   22.8060   39.2320 C   0  0  0  0  0  3  0  0  0  0  0  0
   40.0460   22.5450   39.5270 H   0  0  0  0  0  0  0  0  0  0  0  0
   38.0550   22.2170   40.0370 O   0  0  0  0  0  0  0  0  0  0  0  0
   37.5200   23.2280   40.8450 C   0  0  0  0  0  3  0  0  0  0  0  0
   38.1650   23.4300   41.7170 H   0  0  0  0  0  0  0  0  0  0  0  0
   35.9830   26.3590   38.6630 N   0  0  0  0  0  0  0  0  0  0  0  0
   35.1090   25.8030   38.8860 H   0  0  0  0  0  0  0  0  0  0  0  0
   36.5880   26.7550   37.9030 H   0  0  0  0  0  0  0  0  0  0  0  0
  1 22  1  0  0  0  0
  2 10  1  0  0  0  0
  2  1  2  0  0  0  0
  3  2  1  0  0  0  0
  4  3  2  0  0  0  0
  4  5  1  0  0  0  0
  5  6  2  0  0  0  0
  6  1  1  0  0  0  0
  6 24  1  0  0  0  0
  7  3  1  0  0  0  0
  8  4  1  0  0  0  0
  9  5  1  0  0  0  0
 10 17  1  0  0  0  0
 10 11  1  0  0  0  0
 12 10  1  0  0  0  0
 13 19  1  0  0  0  0
 14 13  1  0  0  0  0
 14 20  1  0  0  0  0
 15 14  2  0  0  0  0
 16 17  2  0  0  0  0
 16 15  1  0  0  0  0
 17 18  1  0  0  0  0
 18 13  2  0  0  0  0
 21 15  1  0  0  0  0
 22 23  1  0  0  0  0
 24 25  1  0  0  0  0
 25 26  1  0  0  0  0
 26 31  1  0  0  0  0
 26 27  2  0  0  0  0
 27 32  1  0  0  0  0
 28 27  1  0  0  0  0
 28 33  1  0  0  0  0
 29 28  2  0  0  0  0
 30 25  2  0  0  0  0
 30 29  1  0  0  0  0
 34 29  1  1  0  0  0
 34 40  1  0  0  0  0
 35 37  1  0  0  0  0
 35 36  1  0  0  0  0
 35 34  1  0  0  0  0
 37 38  1  0  0  0  0
 37 39  1  0  0  0  0
 39 40  1  0  0  0  0
 40 41  1  0  0  0  0
 42 43  1  0  0  0  0
 42 30  1  0  0  0  0
 44 42  1  0  0  0  0
M  END
>  <minimizedAffinity>
-6.6131053

$$$$

 OpenBabel03242522383D

 44 47  0  0  1  0  0  0  0  0999 V2000
   39.5670   32.0640   41.2840 C   0  0  0  0  0  0  0  0  0  0  0  0
   39.0920   33.0530   40.4800 C   0  0  0  0  0  0  0  0  0  0  0  0
   37.8390   32.8930   39.9550 C   0  0  0  0  0  0  0  0  0  0  0  0
   37.0160   31.7890   40.1880 C   0  0  0  0  0  0  0  0  0  0  0  0
   37.5410   30.8030   41.0170 C   0  0  0  0  0  0  0  0  0  0  0  0
   38.7950   30.9530   41.5460 C   0  0  0  0  0  0  0  0  0  0  0  0
   37.4250   33.6580   39.3090 H   0  0  0  0  0  0  0  0  0  0  0  0
   36.0300   31.7120   39.7480 H   0  0  0  0  0  0  0  0  0  0  0  0
   36.9390   29.9190   41.2300 H   0  0  0  0  0  0  0  0  0  0  0  0
   39.8590   34.2670   40.1550 C   0  0  0  0  0  0  0  0  0  0  0  0
   40.1080   34.7690   41.1060 H   0  0  0  0  0  0  0  0  0  0  0  0
   39.2700   35.0090   39.5660 H   0  0  0  0  0  0  0  0  0  0  0  0
   42.1530   33.2340   37.4370 C   0  0  0  0  0  0  0  0  0  0  0  0
   43.3950   33.4980   37.9980 C   0  0  0  0  0  0  0  0  0  0  0  0
   43.4240   34.0180   39.2790 C   0  0  0  0  0  0  0  0  0  0  0  0
   42.2630   34.2460   39.9290 N   0  0  0  0  0  0  0  0  0  0  0  0
   41.0700   33.9800   39.3570 C   0  0  0  0  0  0  0  0  0  0  0  0
   41.0380   33.4820   38.1300 N   0  0  0  0  0  0  0  0  0  0  0  0
   42.1310   32.8270   36.4340 H   0  0  0  0  0  0  0  0  0  0  0  0
   44.3540   33.3290   37.5110 H   0  0  0  0  0  0  0  0  0  0  0  0
   44.3900   34.2330   39.7400 H   0  0  0  0  0  0  0  0  0  0  0  0
   40.8350   32.1740   41.8440 O   0  0  0  0  0  0  0  0  0  0  0  0
   40.8900   32.0900   42.8580 H   0  0  0  0  0  0  0  0  0  0  0  0
   39.2810   29.9420   42.3700 O   0  0  0  0  0  0  0  0  0  0  0  0
   38.4780   28.8120   42.5440 C   0  0  0  0  0  0  0  0  0  0  0  0
   37.5880   28.8370   43.5890 C   0  0  0  0  0  0  0  0  0  0  0  0
   36.7750   27.7490   43.8010 C   0  0  0  0  0  0  0  0  0  0  0  0
   36.8580   26.6330   42.9610 C   0  0  0  0  0  0  0  0  0  0  0  0
   37.7670   26.6440   41.9170 C   0  0  0  0  0  0  0  0  0  0  0  0
   38.5860   27.7430   41.7040 C   0  0  0  0  0  0  0  0  0  0  0  0
   37.5220   29.6980   44.2380 H   0  0  0  0  0  0  0  0  0  0  0  0
   36.0880   27.8100   44.6350 H   0  0  0  0  0  0  0  0  0  0  0  0
   36.1970   25.8140   43.1810 H   0  0  0  0  0  0  0  0  0  0  0  0
   37.9230   25.5090   40.9840 C   0  0  1  0  0  3  0  0  0  0  0  0
   38.0200   24.1600   41.7150 C   0  0  0  0  0  3  0  0  0  0  0  0
   37.2940   24.1300   42.5510 H   0  0  0  0  0  0  0  0  0  0  0  0
   37.4960   23.2010   40.6720 C   0  0  0  0  0  3  0  0  0  0  0  0
   36.7740   22.4810   41.0840 H   0  0  0  0  0  0  0  0  0  0  0  0
   36.9860   23.9380   39.6130 O   0  0  0  0  0  0  0  0  0  0  0  0
   36.7610   25.2360   40.0890 C   0  0  0  0  0  3  0  0  0  0  0  0
   35.8050   25.3050   40.6350 H   0  0  0  0  0  0  0  0  0  0  0  0
   39.5050   27.7210   40.6290 N   0  0  0  0  0  0  0  0  0  0  0  0
   38.9180   27.9600   39.7810 H   0  0  0  0  0  0  0  0  0  0  0  0
   40.4650   27.4830   40.9800 H   0  0  0  0  0  0  0  0  0  0  0  0
  1  6  1  0  0  0  0
  1 22  1  0  0  0  0
  2  1  2  0  0  0  0
  3  4  2  0  0  0  0
  3  2  1  0  0  0  0
  4  5  1  0  0  0  0
  5  9  1  0  0  0  0
  5  6  2  0  0  0  0
  6 24  1  0  0  0  0
  7  3  1  0  0  0  0
  8  4  1  0  0  0  0
 10  2  1  0  0  0  0
 10 11  1  0  0  0  0
 12 10  1  0  0  0  0
 13 14  2  0  0  0  0
 13 18  1  0  0  0  0
 14 15  1  0  0  0  0
 15 21  1  0  0  0  0
 15 16  2  0  0  0  0
 17 16  1  0  0  0  0
 17 10  1  0  0  0  0
 18 17  2  0  0  0  0
 19 13  1  0  0  0  0
 20 14  1  0  0  0  0
 22 23  1  0  0  0  0
 24 25  1  0  0  0  0
 25 26  1  0  0  0  0
 26 27  2  0  0  0  0
 26 31  1  0  0  0  0
 27 32  1  0  0  0  0
 28 33  1  0  0  0  0
 28 27  1  0  0  0  0
 29 28  2  0  0  0  0
 30 29  1  0  0  0  0
 30 25  2  0  0  0  0
 34 35  1  0  0  0  0
 34 29  1  1  0  0  0
 35 36  1  0  0  0  0
 37 38  1  0  0  0  0
 37 35  1  0  0  0  0
 39 40  1  0  0  0  0
 39 37  1  0  0  0  0
 40 41  1  0  0  0  0
 40 34  1  0  0  0  0
 42 44  1  0  0  0  0
 42 30  1  0  0  0  0
 43 42  1  0  0  0  0
M  END
>  <minimizedAffinity>
-6.56299019

$$$$

 OpenBabel03242522383D

 44 47  0  0  1  0  0  0  0  0999 V2000
   37.4500   29.1690   42.1700 C   0  0  0  0  0  0  0  0  0  0  0  0
   38.4780   28.6090   42.8630 C   0  0  0  0  0  0  0  0  0  0  0  0
   39.6990   29.2210   42.7840 C   0  0  0  0  0  0  0  0  0  0  0  0
   39.9620   30.3760   42.0450 C   0  0  0  0  0  0  0  0  0  0  0  0
   38.8820   30.9150   41.3530 C   0  0  0  0  0  0  0  0  0  0  0  0
   37.6560   30.3100   41.4250 C   0  0  0  0  0  0  0  0  0  0  0  0
   40.5430   28.8050   43.3210 H   0  0  0  0  0  0  0  0  0  0  0  0
   40.9490   30.8210   42.0170 H   0  0  0  0  0  0  0  0  0  0  0  0
   39.0340   31.8170   40.7600 H   0  0  0  0  0  0  0  0  0  0  0  0
   38.3330   27.3930   43.6790 C   0  0  0  0  0  0  0  0  0  0  0  0
   37.4090   27.4970   44.2740 H   0  0  0  0  0  0  0  0  0  0  0  0
   39.1570   27.2640   44.4200 H   0  0  0  0  0  0  0  0  0  0  0  0
   39.3680   24.4060   41.7480 C   0  0  0  0  0  0  0  0  0  0  0  0
   38.1440   23.8820   41.3560 C   0  0  0  0  0  0  0  0  0  0  0  0
   37.0020   24.5530   41.7550 C   0  0  0  0  0  0  0  0  0  0  0  0
   37.1150   25.6740   42.4990 N   0  0  0  0  0  0  0  0  0  0  0  0
   38.3210   26.1590   42.8650 C   0  0  0  0  0  0  0  0  0  0  0  0
   39.4160   25.5200   42.4850 N   0  0  0  0  0  0  0  0  0  0  0  0
   40.2620   23.8820   41.4350 H   0  0  0  0  0  0  0  0  0  0  0  0
   38.0070   22.9840   40.7580 H   0  0  0  0  0  0  0  0  0  0  0  0
   36.0280   24.1590   41.4590 H   0  0  0  0  0  0  0  0  0  0  0  0
   36.1860   28.5890   42.2140 O   0  0  0  0  0  0  0  0  0  0  0  0
   35.4210   29.1960   42.5050 H   0  0  0  0  0  0  0  0  0  0  0  0
   36.6030   30.8830   40.7170 O   0  0  0  0  0  0  0  0  0  0  0  0
   36.3690   30.4150   39.4220 C   0  0  0  0  0  0  0  0  0  0  0  0
   37.2860   30.7590   38.4600 C   0  0  0  0  0  0  0  0  0  0  0  0
   37.1000   30.3220   37.1710 C   0  0  0  0  0  0  0  0  0  0  0  0
   35.9890   29.5360   36.8470 C   0  0  0  0  0  0  0  0  0  0  0  0
   35.0840   29.2070   37.8430 C   0  0  0  0  0  0  0  0  0  0  0  0
   35.2750   29.6500   39.1450 C   0  0  0  0  0  0  0  0  0  0  0  0
   38.1450   31.3650   38.7090 H   0  0  0  0  0  0  0  0  0  0  0  0
   37.8460   30.6160   36.4440 H   0  0  0  0  0  0  0  0  0  0  0  0
   35.8990   29.2270   35.8210 H   0  0  0  0  0  0  0  0  0  0  0  0
   33.8840   28.3850   37.5900 C   0  0  1  0  0  3  0  0  0  0  0  0
   32.8910   29.0760   36.6420 C   0  0  0  0  0  3  0  0  0  0  0  0
   33.4380   29.5750   35.8180 H   0  0  0  0  0  0  0  0  0  0  0  0
   32.1800   27.8980   36.0190 C   0  0  0  0  0  3  0  0  0  0  0  0
   32.0780   27.9940   34.9280 H   0  0  0  0  0  0  0  0  0  0  0  0
   32.8350   26.7370   36.4040 O   0  0  0  0  0  0  0  0  0  0  0  0
   34.1090   27.1120   36.8460 C   0  0  0  0  0  3  0  0  0  0  0  0
   34.8020   27.2560   36.0000 H   0  0  0  0  0  0  0  0  0  0  0  0
   34.3320   29.2970   40.1370 N   0  0  0  0  0  0  0  0  0  0  0  0
   34.5950   28.3070   40.4060 H   0  0  0  0  0  0  0  0  0  0  0  0
   33.6720   30.0950   40.3080 H   0  0  0  0  0  0  0  0  0  0  0  0
  1 22  1  0  0  0  0
  1  2  1  0  0  0  0
  2 10  1  0  0  0  0
  3  2  2  0  0  0  0
  3  7  1  0  0  0  0
  4  3  1  0  0  0  0
  5  6  1  0  0  0  0
  5  4  2  0  0  0  0
  6  1  2  0  0  0  0
  8  4  1  0  0  0  0
  9  5  1  0  0  0  0
 10 11  1  0  0  0  0
 10 12  1  0  0  0  0
 13 18  1  0  0  0  0
 14 13  2  0  0  0  0
 14 15  1  0  0  0  0
 15 16  2  0  0  0  0
 16 17  1  0  0  0  0
 17 10  1  0  0  0  0
 18 17  2  0  0  0  0
 19 13  1  0  0  0  0
 20 14  1  0  0  0  0
 21 15  1  0  0  0  0
 22 23  1  0  0  0  0
 24  6  1  0  0  0  0
 25 24  1  0  0  0  0
 26 31  1  0  0  0  0
 26 25  2  0  0  0  0
 27 26  1  0  0  0  0
 28 27  2  0  0  0  0
 28 29  1  0  0  0  0
 29 30  2  0  0  0  0
 30 25  1  0  0  0  0
 30 42  1  0  0  0  0
 32 27  1  0  0  0  0
 33 28  1  0  0  0  0
 34 29  1  6  0  0  0
 35 34  1  0  0  0  0
 36 35  1  0  0  0  0
 37 39  1  0  0  0  0
 37 35  1  0  0  0  0
 38 37  1  0  0  0  0
 39 40  1  0  0  0  0
 40 34  1  0  0  0  0
 41 40  1  0  0  0  0
 42 44  1  0  0  0  0
 42 43  1  0  0  0  0
M  END
>  <minimizedAffinity>
-6.45342922

$$$$

 OpenBabel03242522383D

 44 47  0  0  1  0  0  0  0  0999 V2000
   39.2480   33.4530   40.1800 C   0  0  0  0  0  0  0  0  0  0  0  0
   40.3410   33.7590   39.4320 C   0  0  0  0  0  0  0  0  0  0  0  0
   40.5360   33.0490   38.2790 C   0  0  0  0  0  0  0  0  0  0  0  0
   39.6920   32.0370   37.8180 C   0  0  0  0  0  0  0  0  0  0  0  0
   38.5860   31.7570   38.6130 C   0  0  0  0  0  0  0  0  0  0  0  0
   38.3820   32.4620   39.7700 C   0  0  0  0  0  0  0  0  0  0  0  0
   41.3960   33.2630   37.6550 H   0  0  0  0  0  0  0  0  0  0  0  0
   39.8930   31.5050   36.8960 H   0  0  0  0  0  0  0  0  0  0  0  0
   37.8960   30.9740   38.2980 H   0  0  0  0  0  0  0  0  0  0  0  0
   41.3080   34.8040   39.8070 C   0  0  0  0  0  0  0  0  0  0  0  0
   40.8220   35.4580   40.5510 H   0  0  0  0  0  0  0  0  0  0  0  0
   41.5840   35.4680   38.9540 H   0  0  0  0  0  0  0  0  0  0  0  0
   44.7970   33.5870   40.0680 C   0  0  0  0  0  0  0  0  0  0  0  0
   44.8640   33.2000   41.4000 C   0  0  0  0  0  0  0  0  0  0  0  0
   43.7280   33.3610   42.1730 C   0  0  0  0  0  0  0  0  0  0  0  0
   42.6130   33.8790   41.6160 N   0  0  0  0  0  0  0  0  0  0  0  0
   42.5790   34.2470   40.3170 C   0  0  0  0  0  0  0  0  0  0  0  0
   43.6640   34.0950   39.5740 N   0  0  0  0  0  0  0  0  0  0  0  0
   45.6850   33.4610   39.4630 H   0  0  0  0  0  0  0  0  0  0  0  0
   45.7400   32.7780   41.8890 H   0  0  0  0  0  0  0  0  0  0  0  0
   43.7580   33.0630   43.2230 H   0  0  0  0  0  0  0  0  0  0  0  0
   39.0000   34.1420   41.3630 O   0  0  0  0  0  0  0  0  0  0  0  0
   38.0860   34.5850   41.4440 H   0  0  0  0  0  0  0  0  0  0  0  0
   37.2620   32.1490   40.5360 O   0  0  0  0  0  0  0  0  0  0  0  0
   37.1230   30.8250   40.9600 C   0  0  0  0  0  0  0  0  0  0  0  0
   35.9920   30.1590   40.5600 C   0  0  0  0  0  0  0  0  0  0  0  0
   35.8090   28.8550   40.9520 C   0  0  0  0  0  0  0  0  0  0  0  0
   36.7670   28.2180   41.7490 C   0  0  0  0  0  0  0  0  0  0  0  0
   37.8970   28.9210   42.1340 C   0  0  0  0  0  0  0  0  0  0  0  0
   38.0790   30.2380   41.7360 C   0  0  0  0  0  0  0  0  0  0  0  0
   35.2520   30.6490   39.9440 H   0  0  0  0  0  0  0  0  0  0  0  0
   34.9040   28.3660   40.6150 H   0  0  0  0  0  0  0  0  0  0  0  0
   36.5650   27.1980   42.0240 H   0  0  0  0  0  0  0  0  0  0  0  0
   38.9550   28.3290   42.9760 C   0  0  1  0  0  3  0  0  0  0  0  0
   38.4520   27.1250   43.7880 C   0  0  0  0  0  3  0  0  0  0  0  0
   37.7890   26.4970   43.1620 H   0  0  0  0  0  0  0  0  0  0  0  0
   39.7200   26.3270   43.9840 C   0  0  0  0  0  3  0  0  0  0  0  0
   39.5800   25.2550   43.7860 H   0  0  0  0  0  0  0  0  0  0  0  0
   40.7210   26.8970   43.2100 O   0  0  0  0  0  0  0  0  0  0  0  0
   40.0910   27.6940   42.2470 C   0  0  0  0  0  3  0  0  0  0  0  0
   39.7360   27.0900   41.3940 H   0  0  0  0  0  0  0  0  0  0  0  0
   39.2420   30.9280   42.1480 N   0  0  0  0  0  0  0  0  0  0  0  0
   39.9930   30.5930   41.4790 H   0  0  0  0  0  0  0  0  0  0  0  0
   39.0240   31.5470   42.9670 H   0  0  0  0  0  0  0  0  0  0  0  0
  1 22  1  0  0  0  0
  2 10  1  0  0  0  0
  2  1  2  0  0  0  0
  3  2  1  0  0  0  0
  4  3  2  0  0  0  0
  4  5  1  0  0  0  0
  5  6  2  0  0  0  0
  6  1  1  0  0  0  0
  6 24  1  0  0  0  0
  7  3  1  0  0  0  0
  8  4  1  0  0  0  0
  9  5  1  0  0  0  0
 10 17  1  0  0  0  0
 10 11  1  0  0  0  0
 12 10  1  0  0  0  0
 13 14  1  0  0  0  0
 14 20  1  0  0  0  0
 14 15  2  0  0  0  0
 15 21  1  0  0  0  0
 16 15  1  0  0  0  0
 17 16  2  0  0  0  0
 18 13  2  0  0  0  0
 18 17  1  0  0  0  0
 19 13  1  0  0  0  0
 22 23  1  0  0  0  0
 24 25  1  0  0  0  0
 25 30  1  0  0  0  0
 26 27  1  0  0  0  0
 26 25  2  0  0  0  0
 27 28  2  0  0  0  0
 28 33  1  0  0  0  0
 28 29  1  0  0  0  0
 30 29  2  0  0  0  0
 30 42  1  0  0  0  0
 31 26  1  0  0  0  0
 32 27  1  0  0  0  0
 34 29  1  6  0  0  0
 34 35  1  0  0  0  0
 35 37  1  0  0  0  0
 36 35  1  0  0  0  0
 38 37  1  0  0  0  0
 39 37  1  0  0  0  0
 40 34  1  0  0  0  0
 40 39  1  0  0  0  0
 41 40  1  0  0  0  0
 42 44  1  0  0  0  0
 43 42  1  0  0  0  0
M  END
>  <minimizedAffinity>
-6.326231

$$$$

 OpenBabel03242522383D

 44 47  0  0  1  0  0  0  0  0999 V2000
   36.6220   31.2860   40.1910 C   0  0  0  0  0  0  0  0  0  0  0  0
   36.2960   30.2750   39.3410 C   0  0  0  0  0  0  0  0  0  0  0  0
   36.8220   30.3170   38.0790 C   0  0  0  0  0  0  0  0  0  0  0  0
   37.6660   31.3230   37.6040 C   0  0  0  0  0  0  0  0  0  0  0  0
   37.9730   32.3360   38.5050 C   0  0  0  0  0  0  0  0  0  0  0  0
   37.4520   32.3030   39.7710 C   0  0  0  0  0  0  0  0  0  0  0  0
   36.5860   29.5300   37.3720 H   0  0  0  0  0  0  0  0  0  0  0  0
   38.0550   31.3080   36.5930 H   0  0  0  0  0  0  0  0  0  0  0  0
   38.6280   33.1460   38.1840 H   0  0  0  0  0  0  0  0  0  0  0  0
   35.4170   29.1560   39.7180 C   0  0  0  0  0  0  0  0  0  0  0  0
   34.9760   28.7510   38.7910 H   0  0  0  0  0  0  0  0  0  0  0  0
   34.5550   29.4730   40.3510 H   0  0  0  0  0  0  0  0  0  0  0  0
   37.3250   26.1240   40.6620 C   0  0  0  0  0  0  0  0  0  0  0  0
   37.4010   26.2540   42.0420 C   0  0  0  0  0  0  0  0  0  0  0  0
   36.8060   27.3630   42.6160 C   0  0  0  0  0  0  0  0  0  0  0  0
   36.1820   28.2640   41.8290 N   0  0  0  0  0  0  0  0  0  0  0  0
   36.1250   28.1100   40.4880 C   0  0  0  0  0  0  0  0  0  0  0  0
   36.6930   27.0510   39.9350 N   0  0  0  0  0  0  0  0  0  0  0  0
   37.7910   25.2570   40.2120 H   0  0  0  0  0  0  0  0  0  0  0  0
   37.8930   25.5530   42.7130 H   0  0  0  0  0  0  0  0  0  0  0  0
   36.8540   27.4860   43.7000 H   0  0  0  0  0  0  0  0  0  0  0  0
   36.1160   31.2940   41.4860 O   0  0  0  0  0  0  0  0  0  0  0  0
   36.8010   31.3570   42.2380 H   0  0  0  0  0  0  0  0  0  0  0  0
   37.7850   33.3380   40.6410 O   0  0  0  0  0  0  0  0  0  0  0  0
   39.0780   33.8590   40.5560 C   0  0  0  0  0  0  0  0  0  0  0  0
   39.2110   35.1050   39.9940 C   0  0  0  0  0  0  0  0  0  0  0  0
   40.4630   35.6610   39.8880 C   0  0  0  0  0  0  0  0  0  0  0  0
   41.5850   34.9630   40.3480 C   0  0  0  0  0  0  0  0  0  0  0  0
   41.4140   33.7080   40.9090 C   0  0  0  0  0  0  0  0  0  0  0  0
   40.1480   33.1490   41.0160 C   0  0  0  0  0  0  0  0  0  0  0  0
   38.3460   35.6450   39.6390 H   0  0  0  0  0  0  0  0  0  0  0  0
   40.5240   36.6440   39.4390 H   0  0  0  0  0  0  0  0  0  0  0  0
   42.5370   35.4510   40.2340 H   0  0  0  0  0  0  0  0  0  0  0  0
   42.5410   32.9010   41.4170 C   0  0  1  0  0  3  0  0  0  0  0  0
   43.4800   32.4350   40.2930 C   0  0  0  0  0  3  0  0  0  0  0  0
   43.6340   33.2540   39.5640 H   0  0  0  0  0  0  0  0  0  0  0  0
   44.7910   32.2750   41.0260 C   0  0  0  0  0  3  0  0  0  0  0  0
   45.6370   32.7170   40.4800 H   0  0  0  0  0  0  0  0  0  0  0  0
   44.6430   32.7870   42.3070 O   0  0  0  0  0  0  0  0  0  0  0  0
   43.5170   33.6190   42.2880 C   0  0  0  0  0  3  0  0  0  0  0  0
   43.7590   34.6170   41.8870 H   0  0  0  0  0  0  0  0  0  0  0  0
   40.0070   31.8660   41.5930 N   0  0  0  0  0  0  0  0  0  0  0  0
   40.0460   32.0450   42.6360 H   0  0  0  0  0  0  0  0  0  0  0  0
   39.9090   31.1410   40.8410 H   0  0  0  0  0  0  0  0  0  0  0  0
  1 22  1  0  0  0  0
  2 10  1  0  0  0  0
  2  1  2  0  0  0  0
  3  2  1  0  0  0  0
  4  3  2  0  0  0  0
  4  5  1  0  0  0  0
  5  6  2  0  0  0  0
  6  1  1  0  0  0  0
  6 24  1  0  0  0  0
  7  3  1  0  0  0  0
  8  4  1  0  0  0  0
  9  5  1  0  0  0  0
 10 12  1  0  0  0  0
 10 17  1  0  0  0  0
 11 10  1  0  0  0  0
 13 14  1  0  0  0  0
 14 15  2  0  0  0  0
 14 20  1  0  0  0  0
 15 21  1  0  0  0  0
 16 15  1  0  0  0  0
 17 16  2  0  0  0  0
 18 17  1  0  0  0  0
 18 13  2  0  0  0  0
 19 13  1  0  0  0  0
 22 23  1  0  0  0  0
 25 24  1  0  0  0  0
 25 30  1  0  0  0  0
 26 25  2  0  0  0  0
 27 26  1  0  0  0  0
 27 28  2  0  0  0  0
 28 29  1  0  0  0  0
 29 30  2  0  0  0  0
 30 42  1  0  0  0  0
 31 26  1  0  0  0  0
 32 27  1  0  0  0  0
 33 28  1  0  0  0  0
 34 29  1  6  0  0  0
 34 40  1  0  0  0  0
 35 37  1  0  0  0  0
 35 34  1  0  0  0  0
 36 35  1  0  0  0  0
 37 39  1  0  0  0  0
 38 37  1  0  0  0  0
 40 39  1  0  0  0  0
 41 40  1  0  0  0  0
 42 43  1  0  0  0  0
 44 42  1  0  0  0  0
M  END
>  <minimizedAffinity>
-6.30343437

$$$$

 OpenBabel03242522383D

 44 47  0  0  1  0  0  0  0  0999 V2000
   37.8350   28.7650   42.6830 C   0  0  0  0  0  0  0  0  0  0  0  0
   38.0760   27.4430   42.8920 C   0  0  0  0  0  0  0  0  0  0  0  0
   37.5130   26.5530   42.0180 C   0  0  0  0  0  0  0  0  0  0  0  0
   36.7140   26.9070   40.9300 C   0  0  0  0  0  0  0  0  0  0  0  0
   36.4950   28.2690   40.7530 C   0  0  0  0  0  0  0  0  0  0  0  0
   37.0530   29.1680   41.6220 C   0  0  0  0  0  0  0  0  0  0  0  0
   37.6810   25.4910   42.1520 H   0  0  0  0  0  0  0  0  0  0  0  0
   36.2920   26.1610   40.2670 H   0  0  0  0  0  0  0  0  0  0  0  0
   35.8760   28.5980   39.9170 H   0  0  0  0  0  0  0  0  0  0  0  0
   38.9010   26.9390   44.0020 C   0  0  0  0  0  0  0  0  0  0  0  0
   38.4320   26.0120   44.3730 H   0  0  0  0  0  0  0  0  0  0  0  0
   38.9310   27.6340   44.8740 H   0  0  0  0  0  0  0  0  0  0  0  0
   42.1250   25.3560   43.0950 C   0  0  0  0  0  0  0  0  0  0  0  0
   42.9340   26.4630   42.8770 C   0  0  0  0  0  0  0  0  0  0  0  0
   42.3680   27.7140   43.0430 C   0  0  0  0  0  0  0  0  0  0  0  0
   41.0720   27.8140   43.4050 N   0  0  0  0  0  0  0  0  0  0  0  0
   40.3100   26.7180   43.6090 C   0  0  0  0  0  0  0  0  0  0  0  0
   40.8480   25.5190   43.4510 N   0  0  0  0  0  0  0  0  0  0  0  0
   42.5680   24.3770   42.9660 H   0  0  0  0  0  0  0  0  0  0  0  0
   43.9820   26.4280   42.5860 H   0  0  0  0  0  0  0  0  0  0  0  0
   42.9860   28.5990   42.8770 H   0  0  0  0  0  0  0  0  0  0  0  0
   38.3820   29.7140   43.5400 O   0  0  0  0  0  0  0  0  0  0  0  0
   38.9410   30.4460   43.1050 H   0  0  0  0  0  0  0  0  0  0  0  0
   36.8070   30.5210   41.4080 O   0  0  0  0  0  0  0  0  0  0  0  0
   37.4200   31.1190   40.3040 C   0  0  0  0  0  0  0  0  0  0  0  0
   36.8080   30.9530   39.0860 C   0  0  0  0  0  0  0  0  0  0  0  0
   37.3720   31.5220   37.9700 C   0  0  0  0  0  0  0  0  0  0  0  0
   38.5550   32.2620   38.0790 C   0  0  0  0  0  0  0  0  0  0  0  0
   39.1440   32.4090   39.3230 C   0  0  0  0  0  0  0  0  0  0  0  0
   38.5720   31.8340   40.4490 C   0  0  0  0  0  0  0  0  0  0  0  0
   35.8940   30.3830   39.0010 H   0  0  0  0  0  0  0  0  0  0  0  0
   36.8580   31.3660   37.0310 H   0  0  0  0  0  0  0  0  0  0  0  0
   38.9470   32.6800   37.1690 H   0  0  0  0  0  0  0  0  0  0  0  0
   40.3930   33.1700   39.5280 C   0  0  1  0  0  3  0  0  0  0  0  0
   41.2890   33.1720   38.2790 C   0  0  0  0  0  3  0  0  0  0  0  0
   40.6700   33.3040   37.3700 H   0  0  0  0  0  0  0  0  0  0  0  0
   42.0630   34.4580   38.4500 C   0  0  0  0  0  3  0  0  0  0  0  0
   42.1110   35.0480   37.5230 H   0  0  0  0  0  0  0  0  0  0  0  0
   41.5170   35.1610   39.5150 O   0  0  0  0  0  0  0  0  0  0  0  0
   40.2360   34.6390   39.7370 C   0  0  0  0  0  3  0  0  0  0  0  0
   39.5000   35.0700   39.0380 H   0  0  0  0  0  0  0  0  0  0  0  0
   39.2000   32.0030   41.7040 N   0  0  0  0  0  0  0  0  0  0  0  0
   38.9030   32.9710   42.0150 H   0  0  0  0  0  0  0  0  0  0  0  0
   39.7560   31.1460   41.9480 H   0  0  0  0  0  0  0  0  0  0  0  0
  1  2  1  0  0  0  0
  1 22  1  0  0  0  0
  2 10  1  0  0  0  0
  3  7  1  0  0  0  0
  3  2  2  0  0  0  0
  4  3  1  0  0  0  0
  5  4  2  0  0  0  0
  5  6  1  0  0  0  0
  6  1  2  0  0  0  0
  8  4  1  0  0  0  0
  9  5  1  0  0  0  0
 10 11  1  0  0  0  0
 10 12  1  0  0  0  0
 13 18  1  0  0  0  0
 14 15  1  0  0  0  0
 14 13  2  0  0  0  0
 15 16  2  0  0  0  0
 16 17  1  0  0  0  0
 17 10  1  0  0  0  0
 18 17  2  0  0  0  0
 19 13  1  0  0  0  0
 20 14  1  0  0  0  0
 21 15  1  0  0  0  0
 23 22  1  0  0  0  0
 24  6  1  0  0  0  0
 25 30  1  0  0  0  0
 25 24  1  0  0  0  0
 26 25  2  0  0  0  0
 27 28  2  0  0  0  0
 27 26  1  0  0  0  0
 28 29  1  0  0  0  0
 29 30  2  0  0  0  0
 30 42  1  0  0  0  0
 31 26  1  0  0  0  0
 32 27  1  0  0  0  0
 33 28  1  0  0  0  0
 34 29  1  6  0  0  0
 34 40  1  0  0  0  0
 35 37  1  0  0  0  0
 35 34  1  0  0  0  0
 36 35  1  0  0  0  0
 37 39  1  0  0  0  0
 38 37  1  0  0  0  0
 39 40  1  0  0  0  0
 41 40  1  0  0  0  0
 42 44  1  0  0  0  0
 42 43  1  0  0  0  0
M  END
>  <minimizedAffinity>
-6.21903563

$$$$

 OpenBabel03242522383D

 44 47  0  0  1  0  0  0  0  0999 V2000
   36.3790   31.0370   40.0390 C   0  0  0  0  0  0  0  0  0  0  0  0
   36.0660   30.0810   39.1230 C   0  0  0  0  0  0  0  0  0  0  0  0
   36.6260   30.1920   37.8790 C   0  0  0  0  0  0  0  0  0  0  0  0
   37.4920   31.2130   37.4870 C   0  0  0  0  0  0  0  0  0  0  0  0
   37.7850   32.1680   38.4540 C   0  0  0  0  0  0  0  0  0  0  0  0
   37.2300   32.0670   39.7020 C   0  0  0  0  0  0  0  0  0  0  0  0
   36.4010   29.4500   37.1210 H   0  0  0  0  0  0  0  0  0  0  0  0
   37.9080   31.2540   36.4870 H   0  0  0  0  0  0  0  0  0  0  0  0
   38.4560   32.9890   38.1980 H   0  0  0  0  0  0  0  0  0  0  0  0
   35.1660   28.9520   39.4100 C   0  0  0  0  0  0  0  0  0  0  0  0
   34.5660   29.2200   40.2960 H   0  0  0  0  0  0  0  0  0  0  0  0
   35.7120   28.0180   39.6850 H   0  0  0  0  0  0  0  0  0  0  0  0
   32.5180   28.9700   36.8200 C   0  0  0  0  0  0  0  0  0  0  0  0
   32.8160   27.8210   36.1000 C   0  0  0  0  0  0  0  0  0  0  0  0
   33.9040   27.0720   36.5100 C   0  0  0  0  0  0  0  0  0  0  0  0
   34.6250   27.4750   37.5770 N   0  0  0  0  0  0  0  0  0  0  0  0
   34.3100   28.5990   38.2570 C   0  0  0  0  0  0  0  0  0  0  0  0
   33.2700   29.3190   37.8680 N   0  0  0  0  0  0  0  0  0  0  0  0
   31.6660   29.5570   36.5000 H   0  0  0  0  0  0  0  0  0  0  0  0
   32.2620   27.4590   35.2360 H   0  0  0  0  0  0  0  0  0  0  0  0
   34.1570   26.1640   35.9580 H   0  0  0  0  0  0  0  0  0  0  0  0
   35.8390   30.9740   41.3190 O   0  0  0  0  0  0  0  0  0  0  0  0
   36.5050   30.9850   42.0910 H   0  0  0  0  0  0  0  0  0  0  0  0
   37.5500   33.0450   40.6400 O   0  0  0  0  0  0  0  0  0  0  0  0
   38.7860   33.6810   40.5100 C   0  0  0  0  0  0  0  0  0  0  0  0
   38.7730   34.9910   40.0980 C   0  0  0  0  0  0  0  0  0  0  0  0
   39.9640   35.6610   39.9560 C   0  0  0  0  0  0  0  0  0  0  0  0
   41.1740   35.0110   40.2270 C   0  0  0  0  0  0  0  0  0  0  0  0
   41.1500   33.6900   40.6410 C   0  0  0  0  0  0  0  0  0  0  0  0
   39.9450   33.0160   40.7850 C   0  0  0  0  0  0  0  0  0  0  0  0
   37.8400   35.4940   39.8890 H   0  0  0  0  0  0  0  0  0  0  0  0
   39.9080   36.6910   39.6290 H   0  0  0  0  0  0  0  0  0  0  0  0
   42.0710   35.5890   40.0950 H   0  0  0  0  0  0  0  0  0  0  0  0
   42.3770   32.9280   40.9460 C   0  0  1  0  0  3  0  0  0  0  0  0
   43.2150   32.6400   39.6900 C   0  0  0  0  0  3  0  0  0  0  0  0
   43.2330   33.5320   39.0340 H   0  0  0  0  0  0  0  0  0  0  0  0
   44.6070   32.5140   40.2630 C   0  0  0  0  0  3  0  0  0  0  0  0
   45.3560   33.0680   39.6780 H   0  0  0  0  0  0  0  0  0  0  0  0
   44.5680   32.8930   41.5970 O   0  0  0  0  0  0  0  0  0  0  0  0
   43.3940   33.6340   41.7780 C   0  0  0  0  0  3  0  0  0  0  0  0
   43.5240   34.6810   41.4550 H   0  0  0  0  0  0  0  0  0  0  0  0
   39.9560   31.6670   41.2080 N   0  0  0  0  0  0  0  0  0  0  0  0
   40.0800   31.7250   42.2580 H   0  0  0  0  0  0  0  0  0  0  0  0
   39.8410   31.0290   40.3820 H   0  0  0  0  0  0  0  0  0  0  0  0
  1 22  1  0  0  0  0
  2 10  1  0  0  0  0
  2  1  2  0  0  0  0
  3  2  1  0  0  0  0
  4  3  2  0  0  0  0
  4  5  1  0  0  0  0
  5  6  2  0  0  0  0
  6  1  1  0  0  0  0
  6 24  1  0  0  0  0
  7  3  1  0  0  0  0
  8  4  1  0  0  0  0
  9  5  1  0  0  0  0
 10 12  1  0  0  0  0
 10 11  1  0  0  0  0
 13 18  1  0  0  0  0
 14 15  1  0  0  0  0
 14 13  2  0  0  0  0
 15 16  2  0  0  0  0
 16 17  1  0  0  0  0
 17 10  1  0  0  0  0
 18 17  2  0  0  0  0
 19 13  1  0  0  0  0
 20 14  1  0  0  0  0
 21 15  1  0  0  0  0
 22 23  1  0  0  0  0
 25 24  1  0  0  0  0
 25 30  1  0  0  0  0
 26 25  2  0  0  0  0
 27 26  1  0  0  0  0
 27 28  2  0  0  0  0
 28 29  1  0  0  0  0
 29 30  2  0  0  0  0
 30 42  1  0  0  0  0
 31 26  1  0  0  0  0
 32 27  1  0  0  0  0
 33 28  1  0  0  0  0
 34 29  1  6  0  0  0
 34 40  1  0  0  0  0
 35 37  1  0  0  0  0
 35 34  1  0  0  0  0
 36 35  1  0  0  0  0
 37 39  1  0  0  0  0
 38 37  1  0  0  0  0
 39 40  1  0  0  0  0
 41 40  1  0  0  0  0
 42 43  1  0  0  0  0
 44 42  1  0  0  0  0
M  END
>  <minimizedAffinity>
-6.17419577

$$$$
