
     RDKit          3D

 41 43  0  0  0  0  0  0  0  0999 V2000
   45.1977   35.8201   43.3794 C   0  0  0  0  0  0  0  0  0  0  0  0
   45.9090   34.5869   43.4041 C   0  0  0  0  0  0  0  0  0  0  0  0
   45.8983   33.8487   44.5702 C   0  0  0  0  0  0  0  0  0  0  0  0
   45.2052   34.3369   45.6452 N   0  0  0  0  0  0  0  0  0  0  0  0
   44.5382   35.5050   45.6040 C   0  0  0  0  0  0  0  0  0  0  0  0
   44.5357   36.2360   44.4840 N   0  0  0  0  0  0  0  0  0  0  0  0
   46.5715   34.2316   42.2050 N   0  0  0  0  0  0  0  0  0  0  0  0
   47.8235   34.8550   41.7821 C   0  0  0  0  0  0  0  0  0  0  0  0
   48.3246   34.1565   40.5453 C   0  0  0  0  0  0  0  0  0  0  0  0
   47.3445   34.0854   39.5078 N   0  0  0  0  0  0  0  0  0  0  0  0
   46.0736   33.5750   39.9143 C   0  0  0  0  0  0  0  0  0  0  0  0
   45.9774   33.2067   41.3677 C   0  0  0  0  0  0  0  0  0  0  0  0
   46.5989   32.6498   44.5704 O   0  0  0  0  0  0  0  0  0  0  0  0
   45.5498   31.2077   46.5228 O   0  0  0  0  0  0  0  0  0  0  0  0
   46.8546   31.8462   46.0697 P   0  0  1  0  0  0  0  0  0  0  0  0
   48.0429   30.6905   45.8305 O   0  0  0  0  0  0  0  0  0  0  0  0
   47.3237   33.0179   47.2043 O   0  0  0  0  0  0  0  0  0  0  0  0
   45.1899   36.4163   42.4810 H   0  0  0  0  0  0  0  0  0  0  0  0
   44.0547   35.7201   46.5475 H   0  0  0  0  0  0  0  0  0  0  0  0
   47.5654   35.9122   41.5667 H   0  0  0  0  0  0  0  0  0  0  0  0
   48.5548   34.7686   42.5899 H   0  0  0  0  0  0  0  0  0  0  0  0
   49.2173   34.6320   40.1387 H   0  0  0  0  0  0  0  0  0  0  0  0
   48.5722   33.1094   40.8347 H   0  0  0  0  0  0  0  0  0  0  0  0
   47.2565   35.0368   39.0856 H   0  0  0  0  0  0  0  0  0  0  0  0
   45.2730   34.2969   39.6512 H   0  0  0  0  0  0  0  0  0  0  0  0
   45.8725   32.6522   39.3023 H   0  0  0  0  0  0  0  0  0  0  0  0
   44.9354   33.0134   41.6205 H   0  0  0  0  0  0  0  0  0  0  0  0
   46.5293   32.2329   41.5078 H   0  0  0  0  0  0  0  0  0  0  0  0
   47.6022   29.8311   45.5601 H   0  0  0  0  0  0  0  0  0  0  0  0
   46.6715   32.8007   48.3961 C   0  0  1  0  0  0  0  0  0  0  0  0
   47.2693   31.6137   49.1638 C   0  0  1  0  0  0  0  0  0  0  0  0
   46.9534   30.6408   48.7515 H   0  0  0  0  0  0  0  0  0  0  0  0
   46.5914   31.8974   50.5100 C   0  0  1  0  0  0  0  0  0  0  0  0
   45.5155   31.5915   50.3624 H   0  0  0  0  0  0  0  0  0  0  0  0
   46.5880   33.2749   50.6467 O   0  0  0  0  0  0  0  0  0  0  0  0
   46.8646   33.8622   49.4351 C   0  0  2  0  0  0  0  0  0  0  0  0
   46.3101   34.7866   49.2429 H   0  0  0  0  0  0  0  0  0  0  0  0
   45.5990   32.5892   48.2797 H   0  0  0  0  0  0  0  0  0  0  0  0
   48.3620   31.7340   49.2816 H   0  0  0  0  0  0  0  0  0  0  0  0
   47.0144   31.3361   51.3384 H   0  0  0  0  0  0  0  0  0  0  0  0
   47.9525   34.1576   49.4835 H   0  0  0  0  0  0  0  0  0  0  0  0
  1  2  2  0
  1  6  1  0
  2  3  1  0
  3  4  2  0
  5  4  1  0
  6  5  2  0
  7  2  1  0
  8  7  1  0
  9  8  1  0
 10 11  1  0
 10  9  1  0
 11 12  1  0
 12  7  1  0
 13  3  1  0
 15 13  1  6
 15 14  2  0
 15 17  1  0
 16 15  1  0
  1 18  1  0
  5 19  1  0
  8 20  1  0
  8 21  1  0
  9 22  1  0
  9 23  1  0
 10 24  1  0
 11 25  1  0
 11 26  1  0
 12 27  1  0
 12 28  1  0
 16 29  1  0
 30 31  1  0
 31 32  1  6
 31 33  1  0
 33 34  1  6
 33 35  1  0
 35 36  1  0
 36 37  1  6
 36 30  1  0
 30 38  1  6
 31 39  1  0
 33 40  1  0
 36 41  1  0
 17 30  1  0
M  ISO  8  18  14  19  14  20  13  21  13  22  13  23  13  24   5  25  13
M  ISO  7  26  13  27  13  28  13  29   3  32  15  34  15  37  15
M  END
>  <DihAtoms>  (1) 
14,16,29,30

>  <DihDeg>  (1) 
120.57929866033228

$$$$
