
 OpenBabel03252504233D

 31 34  0  0  1  0  0  0  0  0999 V2000
   47.0410   33.5050   39.5350 C   0  0  0  0  0  0  0  0  0  0  0  0
   48.4000   33.2340   39.6840 C   0  0  0  0  0  0  0  0  0  0  0  0
   48.9780   33.3900   40.9710 C   0  0  0  0  0  0  0  0  0  0  0  0
   48.1580   33.7970   41.9840 N   0  0  0  0  0  0  0  0  0  0  0  0
   46.8410   34.0470   41.7850 C   0  0  0  0  0  0  0  0  0  0  0  0
   46.2880   33.9050   40.5820 N   0  0  0  0  0  0  0  0  0  0  0  0
   46.0620   34.4690   42.9150 N   0  0  0  0  0  0  0  0  0  0  0  0
   45.1730   35.4920   42.9260 C   0  0  0  0  0  0  0  0  0  0  0  0
   44.6460   35.5740   44.1800 N   0  0  0  0  0  0  0  0  0  0  0  0
   45.2260   34.6030   44.9000 C   0  0  0  0  0  0  0  0  0  0  0  0
   45.1120   34.1880   46.2060 C   0  0  0  0  0  0  0  0  0  0  0  0
   45.8140   33.1690   46.7000 N   0  0  0  0  0  0  0  0  0  0  0  0
   46.6850   32.4760   45.9510 C   0  0  0  0  0  0  0  0  0  0  0  0
   46.7950   32.8840   44.6750 N   0  0  0  0  0  0  0  0  0  0  0  0
   46.1210   33.8930   44.1250 C   0  0  0  0  0  0  0  0  0  0  0  0
   49.0720   32.9140   38.9070 H   0  0  0  0  0  0  0  0  0  0  0  0
   50.0280   33.1870   41.1190 H   0  0  0  0  0  0  0  0  0  0  0  0
   44.9530   36.1070   42.0680 H   0  0  0  0  0  0  0  0  0  0  0  0
   47.2390   31.6550   46.3800 H   0  0  0  0  0  0  0  0  0  0  0  0
   44.2310   34.8250   47.1190 N   0  0  0  0  0  0  0  0  0  0  0  0
   43.4870   34.4190   47.6970 H   0  0  0  0  0  0  0  0  0  0  0  0
   44.4350   35.8510   47.1460 H   0  0  0  0  0  0  0  0  0  0  0  0
   46.3850   33.2860   37.8730 S   0  0  0  0  0  0  0  0  0  0  0  0
   47.5240   32.3690   36.8300 C   0  0  2  0  0  0  0  0  0  0  0  0
   48.5060   33.2480   36.0810 C   0  0  0  0  0  0  0  0  0  0  0  0
   47.9870   34.1520   35.7580 H   0  0  0  0  0  0  0  0  0  0  0  0
   48.8190   32.3700   34.8910 C   0  0  0  0  0  0  0  0  0  0  0  0
   49.7620   31.8380   35.1390 H   0  0  0  0  0  0  0  0  0  0  0  0
   47.8330   31.4070   34.7870 O   0  0  0  0  0  0  0  0  0  0  0  0
   46.8100   31.7270   35.6400 C   0  0  0  0  0  0  0  0  0  0  0  0
   46.2100   32.5260   35.1590 H   0  0  0  0  0  0  0  0  0  0  0  0
  1  2  2  0  0  0  0
  1  6  1  0  0  0  0
  2  3  1  0  0  0  0
  3 17  1  0  0  0  0
  3  4  2  0  0  0  0
  5  4  1  0  0  0  0
  5  7  1  0  0  0  0
  6  5  2  0  0  0  0
  7  8  1  0  0  0  0
  7 15  1  0  0  0  0
  8  9  2  0  0  0  0
  9 10  1  0  0  0  0
 10 11  1  0  0  0  0
 11 12  2  0  0  0  0
 11 20  1  0  0  0  0
 13 19  1  0  0  0  0
 13 12  1  0  0  0  0
 14 13  2  0  0  0  0
 15 14  1  0  0  0  0
 15 10  2  0  0  0  0
 16  2  1  0  0  0  0
 18  8  1  0  0  0  0
 20 22  1  0  0  0  0
 20 21  1  0  0  0  0
 23  1  1  0  0  0  0
 24 23  1  6  0  0  0
 25 24  1  0  0  0  0
 26 25  1  0  0  0  0
 27 28  1  0  0  0  0
 27 25  1  0  0  0  0
 29 27  1  0  0  0  0
 29 30  1  0  0  0  0
 30 24  1  0  0  0  0
 31 30  1  0  0  0  0
M  END
>  <minimizedAffinity>
-5.71891308

>  <minimizedRMSD>
1.96378446

$$$$
