
 OpenBabel03242521293D

 34 36  0  0  1  0  0  0  0  0999 V2000
   37.4690   29.5830   41.9720 C   0  0  1  0  0  0  0  0  0  0  0  0
   37.9540   28.4400   41.1110 C   0  0  2  0  0  0  0  0  0  0  0  0
   36.9330   27.8890   40.3630 O   0  0  0  0  0  0  0  0  0  0  0  0
   36.6080   28.8290   39.3990 C   0  0  0  0  0  0  0  0  0  0  0  0
   35.8580   29.9480   40.0730 C   0  0  2  0  0  0  0  0  0  0  0  0
   36.5370   30.5140   41.2800 C   0  0  2  0  0  0  0  0  0  0  0  0
   38.4010   30.1690   42.2280 H   0  0  0  0  0  0  0  0  0  0  0  0
   38.7320   28.8540   40.4290 H   0  0  0  0  0  0  0  0  0  0  0  0
   37.4680   29.1930   38.8070 H   0  0  0  0  0  0  0  0  0  0  0  0
   35.8670   28.3440   38.7100 H   0  0  0  0  0  0  0  0  0  0  0  0
   35.6810   30.7630   39.3360 H   0  0  0  0  0  0  0  0  0  0  0  0
   35.7130   30.7450   42.0160 H   0  0  0  0  0  0  0  0  0  0  0  0
   38.8390   25.0680   42.5940 C   0  0  0  0  0  0  0  0  0  0  0  0
   38.2220   26.0170   41.7640 C   0  0  0  0  0  0  0  0  0  0  0  0
   38.5730   27.3860   41.9410 C   0  0  0  0  0  0  0  0  0  0  0  0
   39.4790   27.7090   42.8960 N   0  0  0  0  0  0  0  0  0  0  0  0
   40.0510   26.7500   43.6800 C   0  0  0  0  0  0  0  0  0  0  0  0
   39.7330   25.4340   43.5300 N   0  0  0  0  0  0  0  0  0  0  0  0
   38.6000   24.0190   42.4900 H   0  0  0  0  0  0  0  0  0  0  0  0
   37.4990   25.7330   41.0060 H   0  0  0  0  0  0  0  0  0  0  0  0
   40.7590   27.1290   44.4060 H   0  0  0  0  0  0  0  0  0  0  0  0
   36.9780   29.1380   43.2050 O   0  0  0  0  0  0  0  0  0  0  0  0
   37.5060   29.4130   43.9740 H   0  0  0  0  0  0  0  0  0  0  0  0
   34.5900   29.4330   40.3820 O   0  0  0  0  0  0  0  0  0  0  0  0
   34.0500   29.3490   39.5740 H   0  0  0  0  0  0  0  0  0  0  0  0
   37.1320   31.7640   41.0330 O   0  0  0  0  0  0  0  0  0  0  0  0
   37.3870   32.0050   39.7060 C   0  0  2  0  0  3  0  0  0  0  0  0
   38.8770   31.9340   39.4820 C   0  0  0  0  0  3  0  0  0  0  0  0
   39.0370   31.9200   38.3760 H   0  0  0  0  0  0  0  0  0  0  0  0
   39.3110   33.2900   39.9720 C   0  0  0  0  0  3  0  0  0  0  0  0
   39.6360   33.1890   41.0320 H   0  0  0  0  0  0  0  0  0  0  0  0
   38.2430   34.1590   39.8880 O   0  0  0  0  0  0  0  0  0  0  0  0
   37.1540   33.4750   39.3730 C   0  0  0  0  0  3  0  0  0  0  0  0
   36.2360   33.8710   39.8270 H   0  0  0  0  0  0  0  0  0  0  0  0
  1  7  1  1  0  0  0
  1 22  1  0  0  0  0
  2  8  1  6  0  0  0
  2 15  1  0  0  0  0
  2  1  1  0  0  0  0
  3  2  1  0  0  0  0
  4  5  1  0  0  0  0
  4  3  1  0  0  0  0
  5 11  1  6  0  0  0
  5 24  1  0  0  0  0
  5  6  1  0  0  0  0
  6  1  1  0  0  0  0
  6 12  1  1  0  0  0
  9  4  1  0  0  0  0
 10  4  1  0  0  0  0
 13 18  1  0  0  0  0
 14 15  1  0  0  0  0
 14 13  2  0  0  0  0
 15 16  2  0  0  0  0
 16 17  1  0  0  0  0
 17 21  1  0  0  0  0
 18 17  2  0  0  0  0
 19 13  1  0  0  0  0
 20 14  1  0  0  0  0
 22 23  1  0  0  0  0
 25 24  1  0  0  0  0
 26  6  1  0  0  0  0
 27 26  1  1  0  0  0
 28 27  1  0  0  0  0
 28 30  1  0  0  0  0
 29 28  1  0  0  0  0
 30 31  1  0  0  0  0
 32 30  1  0  0  0  0
 33 27  1  0  0  0  0
 33 34  1  0  0  0  0
 33 32  1  0  0  0  0
M  END
>  <minimizedAffinity>
-5.5238719

$$$$

 OpenBabel03242521293D

 34 36  0  0  1  0  0  0  0  0999 V2000
   39.1780   31.7970   38.3860 C   0  0  1  0  0  0  0  0  0  0  0  0
   40.1400   32.5020   39.3130 C   0  0  2  0  0  0  0  0  0  0  0  0
   39.6450   33.7160   39.7440 O   0  0  0  0  0  0  0  0  0  0  0  0
   38.6050   33.4240   40.6120 C   0  0  0  0  0  0  0  0  0  0  0  0
   37.4360   32.9450   39.7920 C   0  0  2  0  0  0  0  0  0  0  0  0
   37.7590   31.8470   38.8280 C   0  0  2  0  0  0  0  0  0  0  0  0
   39.4980   30.7130   38.4050 H   0  0  0  0  0  0  0  0  0  0  0  0
   40.2970   31.8310   40.1900 H   0  0  0  0  0  0  0  0  0  0  0  0
   38.8700   32.7200   41.4220 H   0  0  0  0  0  0  0  0  0  0  0  0
   38.2770   34.3970   41.0630 H   0  0  0  0  0  0  0  0  0  0  0  0
   36.6270   32.6040   40.4770 H   0  0  0  0  0  0  0  0  0  0  0  0
   37.1450   32.0600   37.9050 H   0  0  0  0  0  0  0  0  0  0  0  0
   43.2140   34.1610   37.8460 C   0  0  0  0  0  0  0  0  0  0  0  0
   41.9770   34.0270   38.4950 C   0  0  0  0  0  0  0  0  0  0  0  0
   41.4440   32.7160   38.6510 C   0  0  0  0  0  0  0  0  0  0  0  0
   42.1490   31.6640   38.1690 N   0  0  0  0  0  0  0  0  0  0  0  0
   43.3480   31.8430   37.5440 C   0  0  0  0  0  0  0  0  0  0  0  0
   43.8800   33.0870   37.3820 N   0  0  0  0  0  0  0  0  0  0  0  0
   43.6530   35.1390   37.7080 H   0  0  0  0  0  0  0  0  0  0  0  0
   41.4310   34.8860   38.8720 H   0  0  0  0  0  0  0  0  0  0  0  0
   43.8170   30.9300   37.2010 H   0  0  0  0  0  0  0  0  0  0  0  0
   39.3490   32.1940   37.0540 O   0  0  0  0  0  0  0  0  0  0  0  0
   39.6800   31.4980   36.4630 H   0  0  0  0  0  0  0  0  0  0  0  0
   36.9290   34.0790   39.1410 O   0  0  0  0  0  0  0  0  0  0  0  0
   36.4520   34.6500   39.7720 H   0  0  0  0  0  0  0  0  0  0  0  0
   37.2990   30.5910   39.2600 O   0  0  0  0  0  0  0  0  0  0  0  0
   36.5510   30.6380   40.4100 C   0  0  2  0  0  3  0  0  0  0  0  0
   37.3070   29.9270   41.5040 C   0  0  0  0  0  3  0  0  0  0  0  0
   36.7840   30.1630   42.4640 H   0  0  0  0  0  0  0  0  0  0  0  0
   37.0020   28.4880   41.1820 C   0  0  0  0  0  3  0  0  0  0  0  0
   37.8400   28.0840   40.5710 H   0  0  0  0  0  0  0  0  0  0  0  0
   35.8260   28.4310   40.4610 O   0  0  0  0  0  0  0  0  0  0  0  0
   35.3400   29.7180   40.3020 C   0  0  0  0  0  3  0  0  0  0  0  0
   34.8390   29.7910   39.3280 H   0  0  0  0  0  0  0  0  0  0  0  0
  1  7  1  1  0  0  0
  1  6  1  0  0  0  0
  1  2  1  0  0  0  0
  2  3  1  0  0  0  0
  2  8  1  1  0  0  0
  3  4  1  0  0  0  0
  4 10  1  0  0  0  0
  4  9  1  0  0  0  0
  5 11  1  1  0  0  0
  5  4  1  0  0  0  0
  6 12  1  6  0  0  0
  6 26  1  0  0  0  0
  6  5  1  0  0  0  0
 13 14  1  0  0  0  0
 14 15  2  0  0  0  0
 14 20  1  0  0  0  0
 15  2  1  0  0  0  0
 16 15  1  0  0  0  0
 17 16  2  0  0  0  0
 18 17  1  0  0  0  0
 18 13  2  0  0  0  0
 19 13  1  0  0  0  0
 21 17  1  0  0  0  0
 22  1  1  0  0  0  0
 23 22  1  0  0  0  0
 24 25  1  0  0  0  0
 24  5  1  0  0  0  0
 27 26  1  6  0  0  0
 27 28  1  0  0  0  0
 28 29  1  0  0  0  0
 30 28  1  0  0  0  0
 31 30  1  0  0  0  0
 32 30  1  0  0  0  0
 33 27  1  0  0  0  0
 33 32  1  0  0  0  0
 34 33  1  0  0  0  0
M  END
>  <minimizedAffinity>
-5.18731594

$$$$

 OpenBabel03242521293D

 34 36  0  0  1  0  0  0  0  0999 V2000
   35.6910   29.2970   40.0870 C   0  0  1  0  0  0  0  0  0  0  0  0
   36.3900   29.3060   38.7490 C   0  0  2  0  0  0  0  0  0  0  0  0
   36.7790   30.5770   38.3780 O   0  0  0  0  0  0  0  0  0  0  0  0
   37.8190   30.9270   39.2250 C   0  0  0  0  0  0  0  0  0  0  0  0
   37.2360   31.2200   40.5820 C   0  0  2  0  0  0  0  0  0  0  0  0
   36.3390   30.1500   41.1190 C   0  0  2  0  0  0  0  0  0  0  0  0
   35.7610   28.2270   40.4440 H   0  0  0  0  0  0  0  0  0  0  0  0
   37.2910   28.6560   38.8480 H   0  0  0  0  0  0  0  0  0  0  0  0
   38.6400   30.1890   39.2680 H   0  0  0  0  0  0  0  0  0  0  0  0
   38.2230   31.9050   38.8540 H   0  0  0  0  0  0  0  0  0  0  0  0
   38.0650   31.3990   41.3030 H   0  0  0  0  0  0  0  0  0  0  0  0
   35.5050   30.6900   41.6560 H   0  0  0  0  0  0  0  0  0  0  0  0
   34.5820   28.7600   35.4650 C   0  0  0  0  0  0  0  0  0  0  0  0
   35.4380   29.3430   36.4120 C   0  0  0  0  0  0  0  0  0  0  0  0
   35.5190   28.7380   37.6990 C   0  0  0  0  0  0  0  0  0  0  0  0
   34.7720   27.6360   37.9500 N   0  0  0  0  0  0  0  0  0  0  0  0
   33.9530   27.1050   36.9970 C   0  0  0  0  0  0  0  0  0  0  0  0
   33.8580   27.6640   35.7590 N   0  0  0  0  0  0  0  0  0  0  0  0
   34.4920   29.1880   34.4770 H   0  0  0  0  0  0  0  0  0  0  0  0
   36.0260   30.2260   36.1870 H   0  0  0  0  0  0  0  0  0  0  0  0
   33.4070   26.2260   37.3140 H   0  0  0  0  0  0  0  0  0  0  0  0
   34.3180   29.5410   39.9620 O   0  0  0  0  0  0  0  0  0  0  0  0
   33.7500   28.7890   40.1980 H   0  0  0  0  0  0  0  0  0  0  0  0
   36.5680   32.4480   40.4600 O   0  0  0  0  0  0  0  0  0  0  0  0
   37.2090   33.1810   40.4040 H   0  0  0  0  0  0  0  0  0  0  0  0
   36.9500   29.3830   42.1270 O   0  0  0  0  0  0  0  0  0  0  0  0
   37.1620   28.0730   41.7750 C   0  0  2  0  0  3  0  0  0  0  0  0
   36.9950   27.2130   43.0030 C   0  0  0  0  0  3  0  0  0  0  0  0
   36.9620   26.1520   42.6510 H   0  0  0  0  0  0  0  0  0  0  0  0
   38.3260   27.4080   43.6800 C   0  0  0  0  0  3  0  0  0  0  0  0
   38.2150   28.2170   44.4370 H   0  0  0  0  0  0  0  0  0  0  0  0
   39.2590   27.7770   42.7320 O   0  0  0  0  0  0  0  0  0  0  0  0
   38.6400   27.8250   41.4940 C   0  0  0  0  0  3  0  0  0  0  0  0
   39.0970   28.6260   40.8980 H   0  0  0  0  0  0  0  0  0  0  0  0
  1  7  1  1  0  0  0
  1  6  1  0  0  0  0
  2  8  1  1  0  0  0
  2  1  1  0  0  0  0
  3  2  1  0  0  0  0
  3  4  1  0  0  0  0
  4  9  1  0  0  0  0
  4  5  1  0  0  0  0
  5  6  1  0  0  0  0
  5 11  1  1  0  0  0
  6 12  1  1  0  0  0
  6 26  1  0  0  0  0
 10  4  1  0  0  0  0
 13 18  2  0  0  0  0
 13 14  1  0  0  0  0
 14 15  2  0  0  0  0
 15 16  1  0  0  0  0
 15  2  1  0  0  0  0
 17 21  1  0  0  0  0
 17 16  2  0  0  0  0
 18 17  1  0  0  0  0
 19 13  1  0  0  0  0
 20 14  1  0  0  0  0
 22  1  1  0  0  0  0
 22 23  1  0  0  0  0
 24  5  1  0  0  0  0
 25 24  1  0  0  0  0
 27 26  1  1  0  0  0
 27 28  1  0  0  0  0
 28 30  1  0  0  0  0
 29 28  1  0  0  0  0
 30 31  1  0  0  0  0
 32 30  1  0  0  0  0
 33 27  1  0  0  0  0
 33 32  1  0  0  0  0
 34 33  1  0  0  0  0
M  END
>  <minimizedAffinity>
-5.13601446

$$$$

 OpenBabel03242521293D

 34 36  0  0  1  0  0  0  0  0999 V2000
   37.2710   28.7540   39.7640 C   0  0  1  0  0  0  0  0  0  0  0  0
   37.5880   29.8180   38.7410 C   0  0  2  0  0  0  0  0  0  0  0  0
   36.8650   30.9740   38.9580 O   0  0  0  0  0  0  0  0  0  0  0  0
   37.3850   31.5460   40.1080 C   0  0  0  0  0  0  0  0  0  0  0  0
   36.9240   30.7280   41.2850 C   0  0  2  0  0  0  0  0  0  0  0  0
   37.1780   29.2590   41.1600 C   0  0  2  0  0  0  0  0  0  0  0  0
   38.1480   28.0410   39.7220 H   0  0  0  0  0  0  0  0  0  0  0  0
   38.6770   30.0390   38.8280 H   0  0  0  0  0  0  0  0  0  0  0  0
   38.4820   31.6850   40.0930 H   0  0  0  0  0  0  0  0  0  0  0  0
   36.8900   32.5460   40.2250 H   0  0  0  0  0  0  0  0  0  0  0  0
   37.4180   31.1080   42.2070 H   0  0  0  0  0  0  0  0  0  0  0  0
   36.2820   28.7520   41.6230 H   0  0  0  0  0  0  0  0  0  0  0  0
   36.3940   29.6050   35.1520 C   0  0  0  0  0  0  0  0  0  0  0  0
   36.6270   30.1370   36.4290 C   0  0  0  0  0  0  0  0  0  0  0  0
   37.3190   29.3270   37.3730 C   0  0  0  0  0  0  0  0  0  0  0  0
   37.7190   28.0870   37.0000 N   0  0  0  0  0  0  0  0  0  0  0  0
   37.4690   27.6120   35.7460 C   0  0  0  0  0  0  0  0  0  0  0  0
   36.8100   28.3670   34.8240 N   0  0  0  0  0  0  0  0  0  0  0  0
   35.8730   30.1880   34.4060 H   0  0  0  0  0  0  0  0  0  0  0  0
   36.2970   31.1340   36.7040 H   0  0  0  0  0  0  0  0  0  0  0  0
   37.8360   26.6100   35.5650 H   0  0  0  0  0  0  0  0  0  0  0  0
   36.1660   27.9800   39.3900 O   0  0  0  0  0  0  0  0  0  0  0  0
   36.3710   27.0510   39.1900 H   0  0  0  0  0  0  0  0  0  0  0  0
   35.5590   31.0100   41.4420 O   0  0  0  0  0  0  0  0  0  0  0  0
   35.4360   31.9030   41.8160 H   0  0  0  0  0  0  0  0  0  0  0  0
   38.2580   28.8240   41.9490 O   0  0  0  0  0  0  0  0  0  0  0  0
   37.8830   28.2990   43.1610 C   0  0  2  0  0  3  0  0  0  0  0  0
   38.9330   27.3090   43.6010 C   0  0  0  0  0  3  0  0  0  0  0  0
   38.7160   27.0620   44.6690 H   0  0  0  0  0  0  0  0  0  0  0  0
   38.5550   26.1010   42.7860 C   0  0  0  0  0  3  0  0  0  0  0  0
   39.1770   26.0950   41.8630 H   0  0  0  0  0  0  0  0  0  0  0  0
   37.2190   26.1880   42.4500 O   0  0  0  0  0  0  0  0  0  0  0  0
   36.7000   27.3520   42.9940 C   0  0  0  0  0  3  0  0  0  0  0  0
   35.9330   27.7500   42.3170 H   0  0  0  0  0  0  0  0  0  0  0  0
  1  7  1  6  0  0  0
  1  6  1  0  0  0  0
  2  8  1  1  0  0  0
  2  3  1  0  0  0  0
  2  1  1  0  0  0  0
  3  4  1  0  0  0  0
  4 10  1  0  0  0  0
  4  5  1  0  0  0  0
  5 24  1  0  0  0  0
  5 11  1  1  0  0  0
  6  5  1  0  0  0  0
  6 12  1  1  0  0  0
  6 26  1  0  0  0  0
  9  4  1  0  0  0  0
 13 14  1  0  0  0  0
 14 20  1  0  0  0  0
 14 15  2  0  0  0  0
 15  2  1  0  0  0  0
 16 15  1  0  0  0  0
 17 16  2  0  0  0  0
 18 13  2  0  0  0  0
 18 17  1  0  0  0  0
 19 13  1  0  0  0  0
 21 17  1  0  0  0  0
 22  1  1  0  0  0  0
 23 22  1  0  0  0  0
 24 25  1  0  0  0  0
 27 26  1  6  0  0  0
 27 28  1  0  0  0  0
 28 29  1  0  0  0  0
 30 28  1  0  0  0  0
 31 30  1  0  0  0  0
 32 30  1  0  0  0  0
 32 33  1  0  0  0  0
 33 27  1  0  0  0  0
 34 33  1  0  0  0  0
M  END
>  <minimizedAffinity>
-5.11870956

$$$$

 OpenBabel03242521293D

 34 36  0  0  1  0  0  0  0  0999 V2000
   38.7000   31.6810   37.8990 C   0  0  1  0  0  0  0  0  0  0  0  0
   39.7910   31.9970   38.8940 C   0  0  2  0  0  0  0  0  0  0  0  0
   39.5490   33.1770   39.5670 O   0  0  0  0  0  0  0  0  0  0  0  0
   38.4810   32.9280   40.4140 C   0  0  0  0  0  0  0  0  0  0  0  0
   37.2320   32.8470   39.5780 C   0  0  2  0  0  0  0  0  0  0  0  0
   37.3230   31.9150   38.4110 C   0  0  2  0  0  0  0  0  0  0  0  0
   38.8000   30.5730   37.7010 H   0  0  0  0  0  0  0  0  0  0  0  0
   39.8230   31.1530   39.6220 H   0  0  0  0  0  0  0  0  0  0  0  0
   38.6120   32.0440   41.0660 H   0  0  0  0  0  0  0  0  0  0  0  0
   38.3550   33.8400   41.0550 H   0  0  0  0  0  0  0  0  0  0  0  0
   36.3800   32.5420   40.2250 H   0  0  0  0  0  0  0  0  0  0  0  0
   36.7520   32.4140   37.5740 H   0  0  0  0  0  0  0  0  0  0  0  0
   43.1500   33.2610   37.6810 C   0  0  0  0  0  0  0  0  0  0  0  0
   41.9200   33.2410   38.3560 C   0  0  0  0  0  0  0  0  0  0  0  0
   41.1040   32.0820   38.2210 C   0  0  0  0  0  0  0  0  0  0  0  0
   41.5480   31.0580   37.4520 N   0  0  0  0  0  0  0  0  0  0  0  0
   42.7510   31.1240   36.8130 C   0  0  0  0  0  0  0  0  0  0  0  0
   43.5510   32.2210   36.9270 N   0  0  0  0  0  0  0  0  0  0  0  0
   43.7990   34.1220   37.7590 H   0  0  0  0  0  0  0  0  0  0  0  0
   41.5870   34.0740   38.9670 H   0  0  0  0  0  0  0  0  0  0  0  0
   42.9970   30.2470   36.2280 H   0  0  0  0  0  0  0  0  0  0  0  0
   38.9300   32.2860   36.6590 O   0  0  0  0  0  0  0  0  0  0  0  0
   39.1120   31.6670   35.9320 H   0  0  0  0  0  0  0  0  0  0  0  0
   36.9500   34.1610   39.1750 O   0  0  0  0  0  0  0  0  0  0  0  0
   36.6020   34.6810   39.9230 H   0  0  0  0  0  0  0  0  0  0  0  0
   36.6290   30.7100   38.6220 O   0  0  0  0  0  0  0  0  0  0  0  0
   37.0100   29.6950   37.7790 C   0  0  2  0  0  3  0  0  0  0  0  0
   35.8290   29.3140   36.9210 C   0  0  0  0  0  3  0  0  0  0  0  0
   36.2190   28.6480   36.1130 H   0  0  0  0  0  0  0  0  0  0  0  0
   35.0490   28.4420   37.8700 C   0  0  0  0  0  3  0  0  0  0  0  0
   34.2740   29.0710   38.3630 H   0  0  0  0  0  0  0  0  0  0  0  0
   35.9110   27.9310   38.8180 O   0  0  0  0  0  0  0  0  0  0  0  0
   37.1890   28.3940   38.5520 C   0  0  0  0  0  3  0  0  0  0  0  0
   37.7210   28.5350   39.5020 H   0  0  0  0  0  0  0  0  0  0  0  0
  1  7  1  6  0  0  0
  1  6  1  0  0  0  0
  1  2  1  0  0  0  0
  2  3  1  0  0  0  0
  2  8  1  1  0  0  0
  3  4  1  0  0  0  0
  4 10  1  0  0  0  0
  4  9  1  0  0  0  0
  5 11  1  1  0  0  0
  5  4  1  0  0  0  0
  6 12  1  6  0  0  0
  6 26  1  0  0  0  0
  6  5  1  0  0  0  0
 13 19  1  0  0  0  0
 13 14  1  0  0  0  0
 14 20  1  0  0  0  0
 15 14  2  0  0  0  0
 15  2  1  0  0  0  0
 16 15  1  0  0  0  0
 17 18  1  0  0  0  0
 17 16  2  0  0  0  0
 18 13  2  0  0  0  0
 21 17  1  0  0  0  0
 22  1  1  0  0  0  0
 23 22  1  0  0  0  0
 24  5  1  0  0  0  0
 24 25  1  0  0  0  0
 27 33  1  0  0  0  0
 27 26  1  1  0  0  0
 28 27  1  0  0  0  0
 28 30  1  0  0  0  0
 29 28  1  0  0  0  0
 30 31  1  0  0  0  0
 30 32  1  0  0  0  0
 33 32  1  0  0  0  0
 33 34  1  0  0  0  0
M  END
>  <minimizedAffinity>
-5.04158783

$$$$

 OpenBabel03242521293D

 34 36  0  0  1  0  0  0  0  0999 V2000
   38.3280   29.1960   41.2330 C   0  0  1  0  0  0  0  0  0  0  0  0
   37.5820   28.2090   40.3670 C   0  0  2  0  0  0  0  0  0  0  0  0
   36.2260   28.4680   40.3410 O   0  0  0  0  0  0  0  0  0  0  0  0
   36.0680   29.6350   39.6120 C   0  0  0  0  0  0  0  0  0  0  0  0
   36.5330   30.7850   40.4660 C   0  0  2  0  0  0  0  0  0  0  0  0
   37.8960   30.6090   41.0570 C   0  0  2  0  0  0  0  0  0  0  0  0
   39.4030   29.1290   40.8900 H   0  0  0  0  0  0  0  0  0  0  0  0
   37.9970   28.3010   39.3370 H   0  0  0  0  0  0  0  0  0  0  0  0
   36.5530   29.6220   38.6180 H   0  0  0  0  0  0  0  0  0  0  0  0
   34.9650   29.7870   39.4790 H   0  0  0  0  0  0  0  0  0  0  0  0
   36.5140   31.7190   39.8600 H   0  0  0  0  0  0  0  0  0  0  0  0
   37.8410   31.0570   42.0920 H   0  0  0  0  0  0  0  0  0  0  0  0
   39.0570   24.7530   40.8480 C   0  0  0  0  0  0  0  0  0  0  0  0
   38.9110   26.0640   40.3690 C   0  0  0  0  0  0  0  0  0  0  0  0
   37.8040   26.8260   40.8380 C   0  0  0  0  0  0  0  0  0  0  0  0
   36.9460   26.2570   41.7190 N   0  0  0  0  0  0  0  0  0  0  0  0
   37.1280   24.9770   42.1550 C   0  0  0  0  0  0  0  0  0  0  0  0
   38.1800   24.2270   41.7220 N   0  0  0  0  0  0  0  0  0  0  0  0
   39.8850   24.1420   40.5170 H   0  0  0  0  0  0  0  0  0  0  0  0
   39.6130   26.4990   39.6640 H   0  0  0  0  0  0  0  0  0  0  0  0
   36.3790   24.6310   42.8550 H   0  0  0  0  0  0  0  0  0  0  0  0
   38.3570   28.7990   42.5750 O   0  0  0  0  0  0  0  0  0  0  0  0
   39.2390   28.5670   42.9100 H   0  0  0  0  0  0  0  0  0  0  0  0
   35.5530   30.9540   41.4550 O   0  0  0  0  0  0  0  0  0  0  0  0
   34.7510   31.3580   41.0750 H   0  0  0  0  0  0  0  0  0  0  0  0
   38.8760   31.3800   40.4070 O   0  0  0  0  0  0  0  0  0  0  0  0
   39.4670   32.3210   41.2130 C   0  0  2  0  0  3  0  0  0  0  0  0
   39.1600   33.6900   40.6590 C   0  0  0  0  0  3  0  0  0  0  0  0
   39.4660   34.4300   41.4390 H   0  0  0  0  0  0  0  0  0  0  0  0
   40.1680   33.7870   39.5440 C   0  0  0  0  0  3  0  0  0  0  0  0
   39.6700   33.4770   38.5980 H   0  0  0  0  0  0  0  0  0  0  0  0
   41.2210   32.9390   39.8190 O   0  0  0  0  0  0  0  0  0  0  0  0
   40.9800   32.3100   41.0300 C   0  0  0  0  0  3  0  0  0  0  0  0
   41.3950   31.2940   40.9920 H   0  0  0  0  0  0  0  0  0  0  0  0
  1  7  1  6  0  0  0
  1 22  1  0  0  0  0
  2  8  1  6  0  0  0
  2 15  1  0  0  0  0
  2  1  1  0  0  0  0
  3  2  1  0  0  0  0
  4  3  1  0  0  0  0
  4  5  1  0  0  0  0
  5 11  1  6  0  0  0
  5  6  1  0  0  0  0
  5 24  1  0  0  0  0
  6  1  1  0  0  0  0
  6 12  1  1  0  0  0
  9  4  1  0  0  0  0
 10  4  1  0  0  0  0
 13 18  1  0  0  0  0
 14 15  1  0  0  0  0
 14 13  2  0  0  0  0
 15 16  2  0  0  0  0
 16 17  1  0  0  0  0
 17 21  1  0  0  0  0
 18 17  2  0  0  0  0
 19 13  1  0  0  0  0
 20 14  1  0  0  0  0
 22 23  1  0  0  0  0
 25 24  1  0  0  0  0
 26  6  1  0  0  0  0
 27 26  1  6  0  0  0
 28 27  1  0  0  0  0
 28 29  1  0  0  0  0
 30 32  1  0  0  0  0
 30 28  1  0  0  0  0
 31 30  1  0  0  0  0
 32 33  1  0  0  0  0
 33 27  1  0  0  0  0
 34 33  1  0  0  0  0
M  END
>  <minimizedAffinity>
-4.98464537

$$$$

 OpenBabel03242521293D

 34 36  0  0  1  0  0  0  0  0999 V2000
   37.5570   27.9190   40.7940 C   0  0  1  0  0  0  0  0  0  0  0  0
   38.0790   29.2610   41.2470 C   0  0  2  0  0  0  0  0  0  0  0  0
   37.4810   29.6790   42.4190 O   0  0  0  0  0  0  0  0  0  0  0  0
   37.9680   28.8530   43.4190 C   0  0  0  0  0  0  0  0  0  0  0  0
   37.3190   27.5030   43.2650 C   0  0  2  0  0  0  0  0  0  0  0  0
   37.4090   26.9220   41.8890 C   0  0  2  0  0  0  0  0  0  0  0  0
   38.3450   27.5250   40.0860 H   0  0  0  0  0  0  0  0  0  0  0  0
   39.1760   29.1460   41.4110 H   0  0  0  0  0  0  0  0  0  0  0  0
   39.0710   28.7900   43.4620 H   0  0  0  0  0  0  0  0  0  0  0  0
   37.5850   29.2610   44.3910 H   0  0  0  0  0  0  0  0  0  0  0  0
   37.7760   26.7950   43.9920 H   0  0  0  0  0  0  0  0  0  0  0  0
   36.4240   26.3980   41.7120 H   0  0  0  0  0  0  0  0  0  0  0  0
   37.0640   32.4490   39.4690 C   0  0  0  0  0  0  0  0  0  0  0  0
   37.2440   31.5260   40.5110 C   0  0  0  0  0  0  0  0  0  0  0  0
   37.8680   30.2850   40.2020 C   0  0  0  0  0  0  0  0  0  0  0  0
   38.2570   30.0500   38.9250 N   0  0  0  0  0  0  0  0  0  0  0  0
   38.0600   30.9780   37.9450 C   0  0  0  0  0  0  0  0  0  0  0  0
   37.4660   32.1730   38.2140 N   0  0  0  0  0  0  0  0  0  0  0  0
   36.5950   33.4030   39.6630 H   0  0  0  0  0  0  0  0  0  0  0  0
   36.9240   31.7380   41.5260 H   0  0  0  0  0  0  0  0  0  0  0  0
   38.4110   30.6770   36.9660 H   0  0  0  0  0  0  0  0  0  0  0  0
   36.4040   28.0420   40.0110 O   0  0  0  0  0  0  0  0  0  0  0  0
   36.5140   27.7760   39.0820 H   0  0  0  0  0  0  0  0  0  0  0  0
   35.9880   27.6630   43.6780 O   0  0  0  0  0  0  0  0  0  0  0  0
   35.9390   27.7490   44.6480 H   0  0  0  0  0  0  0  0  0  0  0  0
   38.3620   25.8920   41.7940 O   0  0  0  0  0  0  0  0  0  0  0  0
   37.8510   24.6400   42.0300 C   0  0  2  0  0  3  0  0  0  0  0  0
   38.7660   23.6210   41.3980 C   0  0  0  0  0  3  0  0  0  0  0  0
   38.4480   22.6200   41.7820 H   0  0  0  0  0  0  0  0  0  0  0  0
   38.3330   23.6950   39.9570 C   0  0  0  0  0  3  0  0  0  0  0  0
   39.0180   24.3920   39.4240 H   0  0  0  0  0  0  0  0  0  0  0  0
   37.0400   24.1740   39.9030 O   0  0  0  0  0  0  0  0  0  0  0  0
   36.5980   24.4050   41.1950 C   0  0  0  0  0  3  0  0  0  0  0  0
   35.9230   25.2720   41.1910 H   0  0  0  0  0  0  0  0  0  0  0  0
  1  7  1  6  0  0  0
  1  2  1  0  0  0  0
  1  6  1  0  0  0  0
  2  8  1  1  0  0  0
  2  3  1  0  0  0  0
  3  4  1  0  0  0  0
  4  9  1  0  0  0  0
  4 10  1  0  0  0  0
  5  4  1  0  0  0  0
  5 24  1  0  0  0  0
  5 11  1  1  0  0  0
  6 12  1  6  0  0  0
  6  5  1  0  0  0  0
 13 19  1  0  0  0  0
 13 14  1  0  0  0  0
 14 20  1  0  0  0  0
 15 14  2  0  0  0  0
 15  2  1  0  0  0  0
 16 15  1  0  0  0  0
 17 18  1  0  0  0  0
 17 16  2  0  0  0  0
 18 13  2  0  0  0  0
 21 17  1  0  0  0  0
 22  1  1  0  0  0  0
 23 22  1  0  0  0  0
 24 25  1  0  0  0  0
 26  6  1  0  0  0  0
 27 26  1  6  0  0  0
 28 29  1  0  0  0  0
 28 27  1  0  0  0  0
 30 28  1  0  0  0  0
 31 30  1  0  0  0  0
 32 30  1  0  0  0  0
 32 33  1  0  0  0  0
 33 27  1  0  0  0  0
 34 33  1  0  0  0  0
M  END
>  <minimizedAffinity>
-4.97711086

$$$$

 OpenBabel03242521293D

 34 36  0  0  1  0  0  0  0  0999 V2000
   37.4630   31.3990   38.5450 C   0  0  1  0  0  0  0  0  0  0  0  0
   38.7180   31.1390   39.3430 C   0  0  2  0  0  0  0  0  0  0  0  0
   38.4750   31.1380   40.7020 O   0  0  0  0  0  0  0  0  0  0  0  0
   37.7500   29.9870   40.9650 C   0  0  0  0  0  0  0  0  0  0  0  0
   36.3490   30.1920   40.4520 C   0  0  2  0  0  0  0  0  0  0  0  0
   36.2670   30.6590   39.0330 C   0  0  2  0  0  0  0  0  0  0  0  0
   37.6940   31.0150   37.5080 H   0  0  0  0  0  0  0  0  0  0  0  0
   39.1000   30.1390   39.0340 H   0  0  0  0  0  0  0  0  0  0  0  0
   38.2100   29.0590   40.5790 H   0  0  0  0  0  0  0  0  0  0  0  0
   37.6530   29.9130   42.0800 H   0  0  0  0  0  0  0  0  0  0  0  0
   35.7810   29.2400   40.5570 H   0  0  0  0  0  0  0  0  0  0  0  0
   35.4060   31.3890   38.9990 H   0  0  0  0  0  0  0  0  0  0  0  0
   41.5390   33.0180   37.6490 C   0  0  0  0  0  0  0  0  0  0  0  0
   40.5680   32.0300   37.8750 C   0  0  0  0  0  0  0  0  0  0  0  0
   39.7520   32.1500   39.0360 C   0  0  0  0  0  0  0  0  0  0  0  0
   39.9490   33.2030   39.8650 N   0  0  0  0  0  0  0  0  0  0  0  0
   40.9060   34.1390   39.6040 C   0  0  0  0  0  0  0  0  0  0  0  0
   41.6990   34.0470   38.5000 N   0  0  0  0  0  0  0  0  0  0  0  0
   42.1770   32.9630   36.7780 H   0  0  0  0  0  0  0  0  0  0  0  0
   40.4290   31.1950   37.1950 H   0  0  0  0  0  0  0  0  0  0  0  0
   40.9700   34.9320   40.3370 H   0  0  0  0  0  0  0  0  0  0  0  0
   37.2240   32.7670   38.3730 O   0  0  0  0  0  0  0  0  0  0  0  0
   37.2990   33.0800   37.4560 H   0  0  0  0  0  0  0  0  0  0  0  0
   35.7410   31.0960   41.3350 O   0  0  0  0  0  0  0  0  0  0  0  0
   35.5330   30.6600   42.1820 H   0  0  0  0  0  0  0  0  0  0  0  0
   35.8820   29.6390   38.1450 O   0  0  0  0  0  0  0  0  0  0  0  0
   35.0200   28.7220   38.6940 C   0  0  2  0  0  3  0  0  0  0  0  0
   35.3650   27.3560   38.1530 C   0  0  0  0  0  3  0  0  0  0  0  0
   34.7990   26.6140   38.7680 H   0  0  0  0  0  0  0  0  0  0  0  0
   34.7020   27.4020   36.8020 C   0  0  0  0  0  3  0  0  0  0  0  0
   35.4650   27.7060   36.0500 H   0  0  0  0  0  0  0  0  0  0  0  0
   33.6810   28.3290   36.8350 O   0  0  0  0  0  0  0  0  0  0  0  0
   33.6230   28.8800   38.1050 C   0  0  0  0  0  3  0  0  0  0  0  0
   33.3140   29.9300   38.0240 H   0  0  0  0  0  0  0  0  0  0  0  0
  1  7  1  6  0  0  0
  1  6  1  0  0  0  0
  1  2  1  0  0  0  0
  2  8  1  6  0  0  0
  2  3  1  0  0  0  0
  3  4  1  0  0  0  0
  4 10  1  0  0  0  0
  5 11  1  1  0  0  0
  5  4  1  0  0  0  0
  5 24  1  0  0  0  0
  6 12  1  6  0  0  0
  6  5  1  0  0  0  0
  9  4  1  0  0  0  0
 13 14  2  0  0  0  0
 13 18  1  0  0  0  0
 14 15  1  0  0  0  0
 15  2  1  0  0  0  0
 15 16  2  0  0  0  0
 17 16  1  0  0  0  0
 17 21  1  0  0  0  0
 18 17  2  0  0  0  0
 19 13  1  0  0  0  0
 20 14  1  0  0  0  0
 22  1  1  0  0  0  0
 23 22  1  0  0  0  0
 24 25  1  0  0  0  0
 26  6  1  0  0  0  0
 27 26  1  6  0  0  0
 28 27  1  0  0  0  0
 28 29  1  0  0  0  0
 30 32  1  0  0  0  0
 30 28  1  0  0  0  0
 31 30  1  0  0  0  0
 32 33  1  0  0  0  0
 33 27  1  0  0  0  0
 34 33  1  0  0  0  0
M  END
>  <minimizedAffinity>
-4.95136404

$$$$

 OpenBabel03242521293D

 34 36  0  0  1  0  0  0  0  0999 V2000
   39.8670   31.2210   40.7460 C   0  0  1  0  0  0  0  0  0  0  0  0
   38.4720   30.6480   40.6640 C   0  0  2  0  0  0  0  0  0  0  0  0
   37.5170   31.5520   41.0840 O   0  0  0  0  0  0  0  0  0  0  0  0
   37.4590   32.5360   40.1100 C   0  0  0  0  0  0  0  0  0  0  0  0
   38.6940   33.3880   40.2340 C   0  0  2  0  0  0  0  0  0  0  0  0
   39.9790   32.6230   40.2600 C   0  0  2  0  0  0  0  0  0  0  0  0
   40.4870   30.5760   40.0560 H   0  0  0  0  0  0  0  0  0  0  0  0
   38.2900   30.3860   39.5950 H   0  0  0  0  0  0  0  0  0  0  0  0
   37.3110   32.1540   39.0830 H   0  0  0  0  0  0  0  0  0  0  0  0
   36.6020   33.2080   40.3790 H   0  0  0  0  0  0  0  0  0  0  0  0
   38.7190   34.1180   39.3940 H   0  0  0  0  0  0  0  0  0  0  0  0
   40.6440   33.1630   40.9950 H   0  0  0  0  0  0  0  0  0  0  0  0
   38.6190   27.0230   41.7560 C   0  0  0  0  0  0  0  0  0  0  0  0
   38.7600   28.1560   40.9390 C   0  0  0  0  0  0  0  0  0  0  0  0
   38.3630   29.4160   41.4720 C   0  0  0  0  0  0  0  0  0  0  0  0
   37.8710   29.4650   42.7330 N   0  0  0  0  0  0  0  0  0  0  0  0
   37.7520   28.3360   43.4890 C   0  0  0  0  0  0  0  0  0  0  0  0
   38.1250   27.1190   43.0040 N   0  0  0  0  0  0  0  0  0  0  0  0
   38.9100   26.0490   41.3890 H   0  0  0  0  0  0  0  0  0  0  0  0
   39.1580   28.0910   39.9310 H   0  0  0  0  0  0  0  0  0  0  0  0
   37.3450   28.5000   44.4790 H   0  0  0  0  0  0  0  0  0  0  0  0
   40.4350   31.0370   42.0120 O   0  0  0  0  0  0  0  0  0  0  0  0
   41.1970   30.4340   42.0300 H   0  0  0  0  0  0  0  0  0  0  0  0
   38.5200   34.1540   41.3970 O   0  0  0  0  0  0  0  0  0  0  0  0
   37.8610   34.8570   41.2470 H   0  0  0  0  0  0  0  0  0  0  0  0
   40.6840   32.7020   39.0450 O   0  0  0  0  0  0  0  0  0  0  0  0
   41.2930   33.9140   38.8350 C   0  0  2  0  0  3  0  0  0  0  0  0
   42.1590   33.8110   37.6040 C   0  0  0  0  0  3  0  0  0  0  0  0
   42.4680   34.8510   37.3380 H   0  0  0  0  0  0  0  0  0  0  0  0
   43.3760   33.1200   38.1600 C   0  0  0  0  0  3  0  0  0  0  0  0
   43.2710   32.0270   37.9740 H   0  0  0  0  0  0  0  0  0  0  0  0
   43.4450   33.3600   39.5170 O   0  0  0  0  0  0  0  0  0  0  0  0
   42.3740   34.1600   39.8820 C   0  0  0  0  0  3  0  0  0  0  0  0
   42.0530   33.8850   40.8950 H   0  0  0  0  0  0  0  0  0  0  0  0
  1  7  1  6  0  0  0
  1 22  1  0  0  0  0
  2  8  1  6  0  0  0
  2  1  1  0  0  0  0
  2  3  1  0  0  0  0
  2 15  1  0  0  0  0
  4  5  1  0  0  0  0
  4 10  1  0  0  0  0
  4  3  1  0  0  0  0
  5 11  1  6  0  0  0
  5  6  1  0  0  0  0
  5 24  1  0  0  0  0
  6  1  1  0  0  0  0
  6 12  1  1  0  0  0
  9  4  1  0  0  0  0
 13 18  1  0  0  0  0
 14 15  1  0  0  0  0
 14 13  2  0  0  0  0
 15 16  2  0  0  0  0
 16 17  1  0  0  0  0
 17 21  1  0  0  0  0
 18 17  2  0  0  0  0
 19 13  1  0  0  0  0
 20 14  1  0  0  0  0
 22 23  1  0  0  0  0
 25 24  1  0  0  0  0
 26  6  1  0  0  0  0
 27 26  1  1  0  0  0
 27 33  1  0  0  0  0
 28 30  1  0  0  0  0
 28 27  1  0  0  0  0
 29 28  1  0  0  0  0
 30 32  1  0  0  0  0
 31 30  1  0  0  0  0
 32 33  1  0  0  0  0
 33 34  1  0  0  0  0
M  END
>  <minimizedAffinity>
-4.87220192

$$$$
