REMARK  Name = 
REMARK  7 active torsions:
REMARK  status: ('A' for Active; 'I' for Inactive)
REMARK    1  A    between atoms: C_1  and  O_12
REMARK    2  A    between atoms: C_2  and  C_8
REMARK    3  A    between atoms: C_5  and  O_13
REMARK    4  A    between atoms: O_13  and  C_15
REMARK    5  A    between atoms: C_14  and  O_19
REMARK    6  A    between atoms: C_18  and  O_20
REMARK    7  A    between atoms: O_20  and  C_36
REMARK                            x       y       z     vdW  Elec       q    Type
REMARK                         _______ _______ _______ _____ _____    ______ ____
ROOT
ATOM      1  O   UNL     1      47.806  33.822  39.840  0.00  0.00    +0.000 OA
ENDROOT
BRANCH   1   6
ATOM      2  C   UNL     1      48.055  34.629  42.051  0.00  0.00    +0.000 C 
ATOM      3  C   UNL     1      46.758  33.827  42.347  0.00  0.00    +0.000 C 
ATOM      4  O   UNL     1      47.318  32.631  42.689  0.00  0.00    +0.000 OA
ATOM      5  C   UNL     1      48.203  32.357  41.626  0.00  0.00    +0.000 C 
ATOM      6  C   UNL     1      48.561  33.709  40.965  0.00  0.00    +0.000 C 
ATOM      7  H   UNL     1      47.828  35.635  41.698  0.00  0.00    +0.000 HD
ATOM      8  H   UNL     1      46.224  33.880  41.382  0.00  0.00    +0.000 HD
ATOM      9  H   UNL     1      47.723  31.680  40.886  0.00  0.00    +0.000 HD
ATOM     10  H   UNL     1      49.122  31.964  42.074  0.00  0.00    +0.000 HD
ATOM     11  H   UNL     1      49.644  33.838  40.816  0.00  0.00    +0.000 HD
BRANCH   3  14
ATOM     12  C   UNL     1      44.523  36.013  44.511  0.00  0.00    +0.000 A 
ATOM     13  C   UNL     1      45.196  35.622  43.351  0.00  0.00    +0.000 A 
ATOM     14  C   UNL     1      45.972  34.479  43.403  0.00  0.00    +0.000 A 
ATOM     15  N   UNL     1      46.028  33.804  44.602  0.00  0.00    +0.000 NA
ATOM     16  C   UNL     1      45.367  34.209  45.700  0.00  0.00    +0.000 A 
ATOM     17  N   UNL     1      44.611  35.322  45.649  0.00  0.00    +0.000 NA
ATOM     18  H   UNL     1      43.938  36.917  44.391  0.00  0.00    +0.000 HD
ATOM     19  H   UNL     1      45.205  36.083  42.394  0.00  0.00    +0.000 HD
ATOM     20  H   UNL     1      45.432  33.655  46.626  0.00  0.00    +0.000 HD
ENDBRANCH   3  14
BRANCH   2  21
ATOM     21  O   UNL     1      48.933  34.535  43.089  0.00  0.00    +0.000 OA
ATOM     22  H   UNL     1      49.111  35.417  43.527  0.00  0.00    +0.000 HD
ENDBRANCH   2  21
ENDBRANCH   1   6
BRANCH   1  24
ATOM     23  C   UNL     1      49.141  32.782  38.202  0.00  0.00    +0.000 C 
ATOM     24  C   UNL     1      48.485  34.177  38.678  0.00  0.00    +0.000 C 
ATOM     25  O   UNL     1      47.605  34.316  37.670  0.00  0.00    +0.000 OA
ATOM     26  C   UNL     1      46.860  33.122  37.818  0.00  0.00    +0.000 C 
ATOM     27  C   UNL     1      47.929  32.100  37.634  0.00  0.00    +0.000 C 
ATOM     28  H   UNL     1      49.628  32.318  39.036  0.00  0.00    +0.000 HD
ATOM     29  H   UNL     1      49.390  34.760  38.811  0.00  0.00    +0.000 HD
ATOM     30  H   UNL     1      46.026  33.070  37.113  0.00  0.00    +0.000 HD
ATOM     31  H   UNL     1      46.414  33.013  38.821  0.00  0.00    +0.000 HD
ATOM     32  H   UNL     1      47.783  31.166  38.237  0.00  0.00    +0.000 HD
BRANCH  23  33
ATOM     33  O   UNL     1      49.953  33.135  37.119  0.00  0.00    +0.000 OA
ATOM     34  H   UNL     1      50.901  32.996  37.373  0.00  0.00    +0.000 HD
ENDBRANCH  23  33
BRANCH  27  35
ATOM     35  O   UNL     1      48.083  31.740  36.342  0.00  0.00    +0.000 OA
BRANCH  35  36
ATOM     36  C   UNL     1      48.043  30.436  35.996  0.00  0.00    +0.000 C 
ATOM     37  C   UNL     1      46.730  29.950  35.415  0.00  0.00    +0.000 C 
ATOM     38  H   UNL     1      46.181  29.298  36.125  0.00  0.00    +0.000 HD
ATOM     39  C   UNL     1      47.217  29.035  34.289  0.00  0.00    +0.000 C 
ATOM     40  H   UNL     1      46.752  28.029  34.333  0.00  0.00    +0.000 HD
ATOM     41  O   UNL     1      48.606  28.997  34.383  0.00  0.00    +0.000 OA
ATOM     42  C   UNL     1      48.928  30.284  34.752  0.00  0.00    +0.000 C 
ATOM     43  H   UNL     1      49.978  30.459  34.969  0.00  0.00    +0.000 HD
ENDBRANCH  35  36
ENDBRANCH  27  35
ENDBRANCH   1  24
TORSDOF 7
