
 OpenBabel03252501073D

 39 42  0  0  1  0  0  0  0  0999 V2000
   48.9100   32.4700   38.2560 O   0  0  0  0  0  0  0  0  0  0  0  0
   48.1340   33.7810   38.3930 P   0  0  2  0  0  0  0  0  0  0  0  0
   49.0790   34.9420   37.5950 O   0  0  0  0  0  0  0  0  0  0  0  0
   48.5180   35.7170   37.4210 H   0  0  0  0  0  0  0  0  0  0  0  0
   47.7810   34.1360   39.9490 O   0  0  0  0  0  0  0  0  0  0  0  0
   48.0940   35.5120   41.9150 C   0  0  1  0  0  0  0  0  0  0  0  0
   49.3330   34.7290   41.8220 C   0  0  0  0  0  0  0  0  0  0  0  0
   48.5020   35.0830   40.5760 C   0  0  1  0  0  0  0  0  0  0  0  0
   48.1480   36.5850   42.1840 H   0  0  0  0  0  0  0  0  0  0  0  0
   50.3170   35.2070   41.9590 H   0  0  0  0  0  0  0  0  0  0  0  0
   49.3380   33.6300   42.0000 H   0  0  0  0  0  0  0  0  0  0  0  0
   49.0770   35.7530   39.9090 H   0  0  0  0  0  0  0  0  0  0  0  0
   46.0580   33.0730   43.9820 C   0  0  0  0  0  0  0  0  0  0  0  0
   47.1520   33.7460   43.4470 C   0  0  0  0  0  0  0  0  0  0  0  0
   46.9270   34.7800   42.5190 C   0  0  0  0  0  0  0  0  0  0  0  0
   45.6530   35.0940   42.1720 N   0  0  0  0  0  0  0  0  0  0  0  0
   44.6010   34.4210   42.7120 C   0  0  0  0  0  0  0  0  0  0  0  0
   44.8010   33.4160   43.6110 N   0  0  0  0  0  0  0  0  0  0  0  0
   46.2600   32.2840   44.6930 H   0  0  0  0  0  0  0  0  0  0  0  0
   48.1300   33.4660   43.7470 H   0  0  0  0  0  0  0  0  0  0  0  0
   43.6540   34.7570   42.3620 H   0  0  0  0  0  0  0  0  0  0  0  0
   46.7410   33.5550   37.4850 O   0  0  0  0  0  0  0  0  0  0  0  0
   45.7010   32.7200   37.8500 C   0  0  0  0  0  0  0  0  0  0  0  0
   45.6650   31.3380   37.8460 C   0  0  0  0  0  0  0  0  0  0  0  0
   44.5560   30.6600   38.2380 C   0  0  0  0  0  0  0  0  0  0  0  0
   43.4310   31.3300   38.6530 C   0  0  0  0  0  0  0  0  0  0  0  0
   43.4970   32.7250   38.6470 C   0  0  0  0  0  0  0  0  0  0  0  0
   44.6180   33.3890   38.2500 N   0  0  0  0  0  0  0  0  0  0  0  0
   46.5880   30.8730   37.5070 H   0  0  0  0  0  0  0  0  0  0  0  0
   44.6250   29.5740   38.2000 H   0  0  0  0  0  0  0  0  0  0  0  0
   42.5530   30.7890   38.9640 H   0  0  0  0  0  0  0  0  0  0  0  0
   42.2840   33.4760   39.0940 C   0  0  2  0  0  3  0  0  0  0  0  0
   42.5750   34.9430   39.3350 C   0  0  0  0  0  3  0  0  0  0  0  0
   42.4120   35.5820   38.4650 H   0  0  0  0  0  0  0  0  0  0  0  0
   41.7260   35.2900   40.5380 C   0  0  0  0  0  3  0  0  0  0  0  0
   40.8670   35.8880   40.1160 H   0  0  0  0  0  0  0  0  0  0  0  0
   41.3100   34.1240   41.1260 O   0  0  0  0  0  0  0  0  0  0  0  0
   41.8730   33.0470   40.4870 C   0  0  0  0  0  3  0  0  0  0  0  0
   41.0820   32.2570   40.4520 H   0  0  0  0  0  0  0  0  0  0  0  0
  2  1  2  6  0  0  0
  2  5  1  0  0  0  0
  3  2  1  0  0  0  0
  4  3  1  0  0  0  0
  5  8  1  0  0  0  0
  6  9  1  1  0  0  0
  6 15  1  0  0  0  0
  7  6  1  0  0  0  0
  7 10  1  0  0  0  0
  7 11  1  0  0  0  0
  8 12  1  6  0  0  0
  8  7  1  0  0  0  0
  8  6  1  0  0  0  0
 13 19  1  0  0  0  0
 14 20  1  0  0  0  0
 14 13  2  0  0  0  0
 15 14  1  0  0  0  0
 16 15  2  0  0  0  0
 16 17  1  0  0  0  0
 17 18  2  0  0  0  0
 18 13  1  0  0  0  0
 21 17  1  0  0  0  0
 22 23  1  0  0  0  0
 22  2  1  0  0  0  0
 23 28  1  0  0  0  0
 24 23  2  0  0  0  0
 24 25  1  0  0  0  0
 25 26  2  0  0  0  0
 26 31  1  0  0  0  0
 27 26  1  0  0  0  0
 28 27  2  0  0  0  0
 29 24  1  0  0  0  0
 30 25  1  0  0  0  0
 32 27  1  1  0  0  0
 32 33  1  0  0  0  0
 32 38  1  0  0  0  0
 33 35  1  0  0  0  0
 34 33  1  0  0  0  0
 35 37  1  0  0  0  0
 36 35  1  0  0  0  0
 38 37  1  0  0  0  0
 39 38  1  0  0  0  0
M  END
>  <minimizedAffinity>
-5.02760029

>  <minimizedRMSD>
1.66917861

$$$$
