
     RDKit          3D

 49 53  0  0  0  0  0  0  0  0999 V2000
   47.5592   30.0941   47.6393 N   0  0  0  0  0  0  0  0  0  0  0  0
   48.0599   29.7992   46.3516 C   0  0  1  0  0  0  0  0  0  0  0  0
   47.5041   28.4800   45.9081 C   0  0  0  0  0  0  0  0  0  0  0  0
   46.0807   28.6976   45.7720 N   0  0  0  0  0  0  0  0  0  0  0  0
   45.4570   28.9375   47.0455 C   0  0  0  0  0  0  0  0  0  0  0  0
   46.2209   29.8436   47.9665 C   0  0  2  0  0  0  0  0  0  0  0  0
   46.7921   32.5848   44.5614 C   0  0  0  0  0  0  0  0  0  0  0  0
   47.4485   31.9162   43.5331 C   0  0  0  0  0  0  0  0  0  0  0  0
   48.0052   30.7977   44.0569 C   0  0  0  0  0  0  0  0  0  0  0  0
   47.6960   30.7825   45.3769 N   0  0  0  0  0  0  0  0  0  0  0  0
   46.9742   31.8565   45.6506 N   0  0  0  0  0  0  0  0  0  0  0  0
   44.6054   35.4540   45.3090 C   0  0  0  0  0  0  0  0  0  0  0  0
   44.6783   36.2180   44.1370 C   0  0  0  0  0  0  0  0  0  0  0  0
   45.4891   35.7205   43.1045 C   0  0  0  0  0  0  0  0  0  0  0  0
   46.1431   34.5515   43.2966 N   0  0  0  0  0  0  0  0  0  0  0  0
   46.0537   33.8430   44.4292 C   0  0  0  0  0  0  0  0  0  0  0  0
   45.2923   34.2805   45.4381 N   0  0  0  0  0  0  0  0  0  0  0  0
   45.3615   31.0959   48.1740 C   0  0  1  0  0  0  0  0  0  0  0  0
   44.9857   31.2845   49.6358 C   0  0  0  0  0  0  0  0  0  0  0  0
   45.8700   32.2535   48.8939 C   0  0  2  0  0  0  0  0  0  0  0  0
   47.9469   30.9853   47.9534 H   0  0  0  0  0  0  0  0  0  0  0  0
   49.1707   29.7880   46.4100 H   0  0  0  0  0  0  0  0  0  0  0  0
   47.9236   28.1426   44.9470 H   0  0  0  0  0  0  0  0  0  0  0  0
   47.7411   27.7362   46.6972 H   0  0  0  0  0  0  0  0  0  0  0  0
   45.9670   29.5584   45.1860 H   0  0  0  0  0  0  0  0  0  0  0  0
   45.2259   27.9343   47.4593 H   0  0  0  0  0  0  0  0  0  0  0  0
   44.4350   29.3465   46.7840 H   0  0  0  0  0  0  0  0  0  0  0  0
   46.2850   29.2594   48.9230 H   0  0  0  0  0  0  0  0  0  0  0  0
   47.5205   32.2158   42.4761 H   0  0  0  0  0  0  0  0  0  0  0  0
   48.5869   30.0517   43.5338 H   0  0  0  0  0  0  0  0  0  0  0  0
   43.9808   35.8258   46.1195 H   0  0  0  0  0  0  0  0  0  0  0  0
   44.1322   37.1472   44.0396 H   0  0  0  0  0  0  0  0  0  0  0  0
   45.5848   36.2624   42.1809 H   0  0  0  0  0  0  0  0  0  0  0  0
   44.5971   31.3022   47.3975 H   0  0  0  0  0  0  0  0  0  0  0  0
   43.9205   31.4222   49.7809 H   0  0  0  0  0  0  0  0  0  0  0  0
   45.4279   30.5985   50.4042 H   0  0  0  0  0  0  0  0  0  0  0  0
   46.9526   32.1623   49.2651 H   0  0  0  0  0  0  0  0  0  0  0  0
   45.3733   33.6241   48.9619 C   0  0  2  0  0  0  0  0  0  0  0  0
   45.7260   34.3565   47.6407 C   0  0  2  0  0  0  0  0  0  0  0  0
   45.3839   35.3933   47.6470 H   0  0  0  0  0  0  0  0  0  0  0  0
   47.2469   34.4072   47.8634 C   0  0  2  0  0  0  0  0  0  0  0  0
   47.6895   35.3134   47.4462 H   0  0  0  0  0  0  0  0  0  0  0  0
   47.4525   34.3909   49.2391 O   0  0  0  0  0  0  0  0  0  0  0  0
   46.2394   34.5382   49.8496 C   0  0  1  0  0  0  0  0  0  0  0  0
   45.8392   35.5787   49.7762 H   0  0  0  0  0  0  0  0  0  0  0  0
   44.3607   33.8276   49.2622 H   0  0  0  0  0  0  0  0  0  0  0  0
   45.4677   33.7627   46.7666 H   0  0  0  0  0  0  0  0  0  0  0  0
   47.7420   33.4925   47.4638 H   0  0  0  0  0  0  0  0  0  0  0  0
   46.2435   34.2708   50.8916 H   0  0  0  0  0  0  0  0  0  0  0  0
  1  6  1  0
  2  1  1  0
  3  2  1  0
  4  3  1  0
  4  5  1  0
  5  6  1  0
  6 18  1  0
  7 11  2  0
  8  9  2  0
  8  7  1  0
  9 10  1  0
 10 11  1  0
 10  2  1  0
 12 17  2  0
 13 12  1  0
 14 15  1  0
 14 13  2  0
 15 16  2  0
 16  7  1  0
 16 17  1  0
 18 20  1  0
 18 19  1  0
 20 19  1  0
  1 21  1  0
  2 22  1  1
  3 23  1  0
  3 24  1  0
  4 25  1  0
  5 26  1  0
  5 27  1  0
  6 28  1  1
  8 29  1  0
  9 30  1  0
 12 31  1  0
 13 32  1  0
 14 33  1  0
 18 34  1  6
 19 35  1  0
 19 36  1  0
 20 37  1  1
 38 39  1  0
 39 40  1  6
 39 41  1  0
 41 42  1  6
 41 43  1  0
 43 44  1  0
 44 45  1  1
 44 38  1  0
 38 46  1  1
 39 47  1  0
 41 48  1  0
 44 49  1  0
 20 38  1  0
M  ISO  8  21   5  22  13  23  13  24  13  25   5  26  13  27  13  28  13
M  ISO  8  29  14  30  14  31  14  32  14  33  14  34  13  35  13  36  13
M  ISO  4  37  13  40  15  42  15  45  15
M  END
>  <DihAtoms>  (1) 
17,19,37,38

>  <DihDeg>  (1) 
179.4375859773583

$$$$
