
 OpenBabel03252509043D

 47 49  0  0  1  0  0  0  0  0999 V2000
   46.6920   34.5170   43.5520 N   0  0  0  0  0  0  0  0  0  0  0  0
   46.2230   35.5490   42.7110 C   0  0  0  0  0  0  0  0  0  0  0  0
   44.7140   35.7210   42.6950 C   0  0  0  0  0  0  0  0  0  0  0  0
   44.0380   35.4210   44.0070 C   0  0  0  0  0  0  0  0  0  0  0  0
   45.0490   35.0940   45.0910 C   0  0  0  0  0  0  0  0  0  0  0  0
   45.8720   33.8970   44.4710 C   0  0  2  0  0  0  0  0  0  0  0  0
   46.6280   36.5150   43.1070 H   0  0  0  0  0  0  0  0  0  0  0  0
   46.5380   35.5150   41.6600 H   0  0  0  0  0  0  0  0  0  0  0  0
   44.5080   36.7370   42.3280 H   0  0  0  0  0  0  0  0  0  0  0  0
   44.3190   35.0100   41.9320 H   0  0  0  0  0  0  0  0  0  0  0  0
   43.4010   36.2810   44.2900 H   0  0  0  0  0  0  0  0  0  0  0  0
   43.3510   34.5490   43.9460 H   0  0  0  0  0  0  0  0  0  0  0  0
   44.5210   34.6820   45.9580 H   0  0  0  0  0  0  0  0  0  0  0  0
   45.7360   35.9210   45.2900 H   0  0  0  0  0  0  0  0  0  0  0  0
   45.1000   33.1990   44.0880 H   0  0  0  0  0  0  0  0  0  0  0  0
   47.7870   33.7670   42.9980 C   0  0  0  0  0  0  0  0  0  0  0  0
   48.3710   33.3160   43.8380 H   0  0  0  0  0  0  0  0  0  0  0  0
   48.4500   34.4700   42.4410 H   0  0  0  0  0  0  0  0  0  0  0  0
   47.2470   32.6770   42.1270 C   0  0  0  0  0  0  0  0  0  0  0  0
   47.4980   31.6940   42.5150 H   0  0  0  0  0  0  0  0  0  0  0  0
   46.1440   32.7380   42.0580 H   0  0  0  0  0  0  0  0  0  0  0  0
   49.0780   31.9810   38.9110 C   0  0  0  0  0  0  0  0  0  0  0  0
   48.5550   31.8500   40.2190 C   0  0  0  0  0  0  0  0  0  0  0  0
   47.7840   32.8410   40.7490 C   0  0  0  0  0  0  0  0  0  0  0  0
   47.5530   33.9190   39.9880 N   0  0  0  0  0  0  0  0  0  0  0  0
   48.0380   34.0570   38.7540 C   0  0  0  0  0  0  0  0  0  0  0  0
   48.8010   33.1010   38.2020 N   0  0  0  0  0  0  0  0  0  0  0  0
   49.6870   31.2070   38.4800 H   0  0  0  0  0  0  0  0  0  0  0  0
   48.7680   30.9540   40.8050 H   0  0  0  0  0  0  0  0  0  0  0  0
   47.7920   34.9670   38.2230 H   0  0  0  0  0  0  0  0  0  0  0  0
   46.5550   33.4400   45.5750 O   0  0  0  0  0  0  0  0  0  0  0  0
   45.5540   31.1070   44.7600 O   0  0  0  0  0  0  0  0  0  0  0  0
   46.2410   31.8370   45.9330 P   0  0  2  0  0  0  0  0  0  0  0  0
   45.0420   31.8510   47.1640 O   0  0  0  0  0  0  0  0  0  0  0  0
   45.4640   32.0870   48.0320 H   0  0  0  0  0  0  0  0  0  0  0  0
   47.5360   30.9850   46.5120 O   0  0  0  0  0  0  0  0  0  0  0  0
   47.9770   30.0730   45.5750 C   0  0  0  0  0  0  0  0  0  0  0  0
   47.1850   29.3570   45.2480 H   0  0  0  0  0  0  0  0  0  0  0  0
   48.3090   30.6170   44.6700 H   0  0  0  0  0  0  0  0  0  0  0  0
   49.1220   29.2250   46.0690 C   0  0  1  0  0  3  0  0  0  0  0  0
   49.0230   28.9640   47.5570 C   0  0  0  0  0  3  0  0  0  0  0  0
   50.0140   28.7600   48.0040 H   0  0  0  0  0  0  0  0  0  0  0  0
   48.2070   27.6760   47.6000 C   0  0  0  0  0  3  0  0  0  0  0  0
   47.3570   27.7630   48.3230 H   0  0  0  0  0  0  0  0  0  0  0  0
   47.7500   27.4700   46.2990 O   0  0  0  0  0  0  0  0  0  0  0  0
   48.8770   27.8020   45.5460 C   0  0  0  0  0  3  0  0  0  0  0  0
   49.6910   27.1190   45.9150 H   0  0  0  0  0  0  0  0  0  0  0  0
  1  6  1  0  0  0  0
  2  7  1  0  0  0  0
  2  1  1  0  0  0  0
  3  2  1  0  0  0  0
  3  4  1  0  0  0  0
  4 11  1  0  0  0  0
  4  5  1  0  0  0  0
  5 14  1  0  0  0  0
  5 13  1  0  0  0  0
  6 15  1  6  0  0  0
  6  5  1  0  0  0  0
  6 31  1  0  0  0  0
  8  2  1  0  0  0  0
  9  3  1  0  0  0  0
 10  3  1  0  0  0  0
 12  4  1  0  0  0  0
 16  1  1  0  0  0  0
 16 17  1  0  0  0  0
 18 16  1  0  0  0  0
 19 20  1  0  0  0  0
 19 16  1  0  0  0  0
 21 19  1  0  0  0  0
 22 23  1  0  0  0  0
 23 24  2  0  0  0  0
 23 29  1  0  0  0  0
 24 19  1  0  0  0  0
 25 24  1  0  0  0  0
 26 25  2  0  0  0  0
 27 26  1  0  0  0  0
 27 22  2  0  0  0  0
 28 22  1  0  0  0  0
 30 26  1  0  0  0  0
 31 33  1  0  0  0  0
 33 32  2  6  0  0  0
 33 36  1  0  0  0  0
 33 34  1  0  0  0  0
 34 35  1  0  0  0  0
 37 36  1  0  0  0  0
 38 37  1  0  0  0  0
 39 37  1  0  0  0  0
 40 37  1  6  0  0  0
 40 41  1  0  0  0  0
 41 43  1  0  0  0  0
 41 42  1  0  0  0  0
 43 44  1  0  0  0  0
 45 43  1  0  0  0  0
 46 47  1  0  0  0  0
 46 40  1  0  0  0  0
 46 45  1  0  0  0  0
M  END
>  <minimizedAffinity>
-4.03816557

>  <minimizedRMSD>
1.09511411

$$$$
