REMARK  Name = 
REMARK  6 active torsions:
REMARK  status: ('A' for Active; 'I' for Inactive)
REMARK    1  A    between atoms: C_5  and  O_7
REMARK    2  A    between atoms: O_7  and  P_9
REMARK    3  A    between atoms: P_9  and  O_10
REMARK    4  A    between atoms: P_9  and  O_11
REMARK    5  A    between atoms: O_11  and  C_12
REMARK    6  A    between atoms: C_12  and  C_19
REMARK                            x       y       z     vdW  Elec       q    Type
REMARK                         _______ _______ _______ _____ _____    ______ ____
ROOT
ATOM      1  O   UNL     1      46.983  32.298  48.440  0.00  0.00    +0.000 OA
ATOM      2  P   UNL     1      45.911  32.400  47.348  0.00  0.00    +0.000 P 
ENDROOT
BRANCH   2   3
ATOM      3  O   UNL     1      44.623  33.351  47.847  0.00  0.00    +0.000 OA
ATOM      4  H   UNL     1      44.889  34.067  48.486  0.00  0.00    +0.000 HD
ENDBRANCH   2   3
BRANCH   2   5
ATOM      5  O   UNL     1      46.652  33.056  45.979  0.00  0.00    +0.000 OA
BRANCH   5  10
ATOM      6  C   UNL     1      44.522  35.623  44.793  0.00  0.00    +0.000 A 
ATOM      7  C   UNL     1      44.911  35.828  43.455  0.00  0.00    +0.000 A 
ATOM      8  C   UNL     1      45.973  35.012  42.976  0.00  0.00    +0.000 A 
ATOM      9  N   UNL     1      46.526  34.104  43.841  0.00  0.00    +0.000 NA
ATOM     10  C   UNL     1      46.106  33.963  45.102  0.00  0.00    +0.000 A 
ATOM     11  N   UNL     1      45.112  34.714  45.580  0.00  0.00    +0.000 NA
ATOM     12  H   UNL     1      43.707  36.233  45.199  0.00  0.00    +0.000 HD
ATOM     13  H   UNL     1      44.456  36.545  42.812  0.00  0.00    +0.000 HD
ATOM     14  H   UNL     1      46.337  35.100  41.965  0.00  0.00    +0.000 HD
ENDBRANCH   5  10
ENDBRANCH   2   5
BRANCH   2  15
ATOM     15  O   UNL     1      45.347  30.839  47.097  0.00  0.00    +0.000 OA
BRANCH  15  16
ATOM     16  C   UNL     1      45.112  30.241  48.300  0.00  0.00    +0.000 C 
ATOM     17  H   UNL     1      45.941  30.240  49.006  0.00  0.00    +0.000 HD
ATOM     18  H   UNL     1      44.287  30.818  48.796  0.00  0.00    +0.000 HD
BRANCH  16  19
ATOM     19  C   UNL     1      44.600  28.827  48.192  0.00  0.00    +0.000 C 
ATOM     20  C   UNL     1      43.086  28.745  48.130  0.00  0.00    +0.000 C 
ATOM     21  H   UNL     1      42.774  28.836  47.082  0.00  0.00    +0.000 HD
ATOM     22  C   UNL     1      42.903  27.321  48.671  0.00  0.00    +0.000 C 
ATOM     23  H   UNL     1      41.867  27.130  49.005  0.00  0.00    +0.000 HD
ATOM     24  O   UNL     1      43.781  27.280  49.724  0.00  0.00    +0.000 OA
ATOM     25  C   UNL     1      44.870  28.077  49.467  0.00  0.00    +0.000 C 
ATOM     26  H   UNL     1      45.067  28.781  50.326  0.00  0.00    +0.000 HD
ENDBRANCH  16  19
ENDBRANCH  15  16
ENDBRANCH   2  15
TORSDOF 6
