
 OpenBabel03242520273D

 37 39  0  0  1  0  0  0  0  0999 V2000
   44.9480   35.5110   43.2230 C   0  0  0  0  0  0  0  0  0  0  0  0
   45.9950   34.5490   43.2960 C   0  0  0  0  0  0  0  0  0  0  0  0
   46.2900   33.9940   44.5240 C   0  0  0  0  0  0  0  0  0  0  0  0
   45.5630   34.3940   45.6130 N   0  0  0  0  0  0  0  0  0  0  0  0
   44.5760   35.3050   45.5270 C   0  0  0  0  0  0  0  0  0  0  0  0
   44.2740   35.8550   44.3460 N   0  0  0  0  0  0  0  0  0  0  0  0
   44.6960   35.9590   42.2760 H   0  0  0  0  0  0  0  0  0  0  0  0
   44.1210   35.4900   46.4900 H   0  0  0  0  0  0  0  0  0  0  0  0
   46.6450   34.2510   42.0740 N   0  0  0  0  0  0  0  0  0  0  0  0
   47.7860   35.0180   41.5800 C   0  0  0  0  0  0  0  0  0  0  0  0
   48.3180   34.3580   40.3350 C   0  0  0  0  0  0  0  0  0  0  0  0
   47.3100   34.1340   39.3470 N   0  0  0  0  0  0  0  0  0  0  0  0
   46.1350   33.4760   39.8230 C   0  0  0  0  0  0  0  0  0  0  0  0
   46.1510   33.1360   41.2870 C   0  0  0  0  0  0  0  0  0  0  0  0
   47.3830   36.0270   41.3560 H   0  0  0  0  0  0  0  0  0  0  0  0
   48.5570   35.0480   42.3540 H   0  0  0  0  0  0  0  0  0  0  0  0
   49.1220   34.9330   39.8780 H   0  0  0  0  0  0  0  0  0  0  0  0
   48.7110   33.3580   40.6340 H   0  0  0  0  0  0  0  0  0  0  0  0
   47.0820   35.0550   38.9110 H   0  0  0  0  0  0  0  0  0  0  0  0
   45.2370   34.0820   39.5830 H   0  0  0  0  0  0  0  0  0  0  0  0
   46.0290   32.5190   39.2400 H   0  0  0  0  0  0  0  0  0  0  0  0
   45.1550   32.8170   41.5920 H   0  0  0  0  0  0  0  0  0  0  0  0
   46.8300   32.2450   41.4210 H   0  0  0  0  0  0  0  0  0  0  0  0
   47.3160   33.0590   44.5690 O   0  0  0  0  0  0  0  0  0  0  0  0
   45.4120   31.2260   44.4740 O   0  0  0  0  0  0  0  0  0  0  0  0
   46.9060   31.3930   44.7080 P   0  0  1  0  0  0  0  0  0  0  0  0
   47.7960   30.5540   43.5660 O   0  0  0  0  0  0  0  0  0  0  0  0
   47.2640   30.5110   42.7160 H   0  0  0  0  0  0  0  0  0  0  0  0
   47.2780   30.9060   46.2910 O   0  0  0  0  0  0  0  0  0  0  0  0
   46.2930   31.3300   47.1530 C   0  0  1  0  0  3  0  0  0  0  0  0
   45.7630   30.1810   48.0210 C   0  0  0  0  0  3  0  0  0  0  0  0
   45.0720   29.5200   47.4720 H   0  0  0  0  0  0  0  0  0  0  0  0
   45.0140   31.0440   49.0440 C   0  0  0  0  0  3  0  0  0  0  0  0
   44.0920   31.4010   48.5010 H   0  0  0  0  0  0  0  0  0  0  0  0
   45.8060   32.1630   49.2430 O   0  0  0  0  0  0  0  0  0  0  0  0
   46.7490   32.2470   48.2460 C   0  0  0  0  0  3  0  0  0  0  0  0
   46.9680   33.2680   47.9160 H   0  0  0  0  0  0  0  0  0  0  0  0
  1  2  2  0  0  0  0
  1  6  1  0  0  0  0
  2  3  1  0  0  0  0
  3 24  1  0  0  0  0
  3  4  2  0  0  0  0
  5  4  1  0  0  0  0
  5  8  1  0  0  0  0
  6  5  2  0  0  0  0
  7  1  1  0  0  0  0
  9  2  1  0  0  0  0
 10  9  1  0  0  0  0
 10 16  1  0  0  0  0
 11 18  1  0  0  0  0
 11 10  1  0  0  0  0
 12 13  1  0  0  0  0
 12 11  1  0  0  0  0
 13 14  1  0  0  0  0
 14 23  1  0  0  0  0
 14 22  1  0  0  0  0
 14  9  1  0  0  0  0
 15 10  1  0  0  0  0
 17 11  1  0  0  0  0
 19 12  1  0  0  0  0
 20 13  1  0  0  0  0
 21 13  1  0  0  0  0
 24 26  1  0  0  0  0
 26 25  2  6  0  0  0
 26 29  1  0  0  0  0
 27 26  1  0  0  0  0
 28 27  1  0  0  0  0
 30 29  1  6  0  0  0
 30 31  1  0  0  0  0
 30 36  1  0  0  0  0
 31 33  1  0  0  0  0
 32 31  1  0  0  0  0
 33 35  1  0  0  0  0
 34 33  1  0  0  0  0
 36 35  1  0  0  0  0
 37 36  1  0  0  0  0
M  END
>  <minimizedAffinity>
-5.06584215

>  <minimizedRMSD>
1.36896026

$$$$
