REMARK  Name = 
REMARK  5 active torsions:
REMARK  status: ('A' for Active; 'I' for Inactive)
REMARK    1  A    between atoms: C_1  and  C_16
REMARK    2  A    between atoms: C_2  and  O_7
REMARK    3  A    between atoms: O_7  and  P_9
REMARK    4  A    between atoms: P_9  and  O_10
REMARK    5  A    between atoms: P_9  and  O_11
REMARK                            x       y       z     vdW  Elec       q    Type
REMARK                         _______ _______ _______ _____ _____    ______ ____
ROOT
ATOM      1  C   UNL     1      46.288  35.159  42.505  0.00  0.00    +0.000 A 
ATOM      2  C   UNL     1      46.838  34.088  43.252  0.00  0.00    +0.000 A 
ATOM      3  C   UNL     1      46.367  33.802  44.575  0.00  0.00    +0.000 A 
ATOM      4  N   UNL     1      45.393  34.597  45.071  0.00  0.00    +0.000 NA
ATOM      5  C   UNL     1      44.903  35.604  44.339  0.00  0.00    +0.000 A 
ATOM      6  N   UNL     1      45.331  35.884  43.092  0.00  0.00    +0.000 NA
ATOM      7  H   UNL     1      46.940  32.951  44.901  0.00  0.00    +0.000 HD
ATOM      8  H   UNL     1      44.137  36.084  44.978  0.00  0.00    +0.000 HD
ENDROOT
BRANCH   1   9
ATOM      9  C   UNL     1      46.369  35.802  41.168  0.00  0.00    +0.000 C 
ATOM     10  C   UNL     1      45.596  35.137  40.097  0.00  0.00    +0.000 C 
ATOM     11  H   UNL     1      45.337  35.861  39.303  0.00  0.00    +0.000 HD
ATOM     12  C   UNL     1      46.587  34.116  39.521  0.00  0.00    +0.000 C 
ATOM     13  H   UNL     1      46.755  34.289  38.430  0.00  0.00    +0.000 HD
ATOM     14  O   UNL     1      47.794  34.328  40.186  0.00  0.00    +0.000 OA
ATOM     15  C   UNL     1      47.801  35.666  40.552  0.00  0.00    +0.000 C 
ATOM     16  H   UNL     1      47.826  36.293  39.665  0.00  0.00    +0.000 HD
ENDBRANCH   1   9
BRANCH   2  17
ATOM     17  O   UNL     1      47.847  33.405  42.562  0.00  0.00    +0.000 OA
BRANCH  17  19
ATOM     18  O   UNL     1      50.386  33.185  41.840  0.00  0.00    +0.000 OA
ATOM     19  P   UNL     1      49.321  34.188  42.160  0.00  0.00    +0.000 P 
BRANCH  19  20
ATOM     20  O   UNL     1      49.113  35.167  40.814  0.00  0.00    +0.000 OA
ATOM     21  H   UNL     1      49.594  36.023  40.840  0.00  0.00    +0.000 HD
ENDBRANCH  19  20
BRANCH  19  22
ATOM     22  O   UNL     1      49.857  35.219  43.380  0.00  0.00    +0.000 OA
ATOM     23  H   UNL     1      50.262  34.637  44.082  0.00  0.00    +0.000 HD
ENDBRANCH  19  22
ENDBRANCH  17  19
ENDBRANCH   2  17
TORSDOF 5
