
 OpenBabel03252502563D

 36 38  0  0  1  0  0  0  0  0999 V2000
   45.6220   29.9590   44.8660 Br  0  0  0  0  0  0  0  0  0  0  0  0
   45.6560   30.6360   46.6670 C   0  0  0  0  0  0  0  0  0  0  0  0
   46.3340   31.8160   46.8490 C   0  0  0  0  0  0  0  0  0  0  0  0
   46.3370   32.2740   48.1680 C   0  0  0  0  0  0  0  0  0  0  0  0
   45.7210   31.6180   49.2130 C   0  0  0  0  0  0  0  0  0  0  0  0
   45.0670   30.4490   48.9470 C   0  0  0  0  0  0  0  0  0  0  0  0
   45.0180   29.9270   47.6690 C   0  0  0  0  0  0  0  0  0  0  0  0
   46.8530   33.2010   48.3900 H   0  0  0  0  0  0  0  0  0  0  0  0
   45.7740   32.0430   50.1950 H   0  0  0  0  0  0  0  0  0  0  0  0
   44.5670   29.8960   49.7370 H   0  0  0  0  0  0  0  0  0  0  0  0
   47.0230   32.6020   45.8340 C   0  0  0  0  0  0  0  0  0  0  0  0
   47.3040   31.9050   45.0060 H   0  0  0  0  0  0  0  0  0  0  0  0
   47.9460   33.0680   46.2260 H   0  0  0  0  0  0  0  0  0  0  0  0
   44.5220   35.3260   45.3900 C   0  0  0  0  0  0  0  0  0  0  0  0
   44.7500   35.7040   44.0670 C   0  0  0  0  0  0  0  0  0  0  0  0
   45.7370   35.0410   43.3450 C   0  0  0  0  0  0  0  0  0  0  0  0
   46.4410   34.0530   43.9510 N   0  0  0  0  0  0  0  0  0  0  0  0
   46.2000   33.6980   45.2540 C   0  0  0  0  0  0  0  0  0  0  0  0
   45.2310   34.3610   45.9360 N   0  0  0  0  0  0  0  0  0  0  0  0
   43.7430   35.8790   45.8950 H   0  0  0  0  0  0  0  0  0  0  0  0
   44.2380   36.4770   43.5060 H   0  0  0  0  0  0  0  0  0  0  0  0
   45.9950   35.2520   42.3190 H   0  0  0  0  0  0  0  0  0  0  0  0
   44.3490   28.7380   47.4140 O   0  0  0  0  0  0  0  0  0  0  0  0
   44.4280   26.7470   49.1000 O   0  0  0  0  0  0  0  0  0  0  0  0
   45.0070   27.2160   47.7720 P   0  0  2  0  0  0  0  0  0  0  0  0
   46.6710   27.4010   47.9230 O   0  0  0  0  0  0  0  0  0  0  0  0
   47.1880   26.8670   47.2640 H   0  0  0  0  0  0  0  0  0  0  0  0
   44.6390   26.0570   46.6130 O   0  0  0  0  0  0  0  0  0  0  0  0
   43.6500   25.1940   47.0620 C   0  0  1  0  0  0  0  0  0  0  0  0
   42.3040   25.7720   46.8040 C   0  0  0  0  0  0  0  0  0  0  0  0
   42.3640   26.8000   46.3700 H   0  0  0  0  0  0  0  0  0  0  0  0
   41.6730   24.8540   45.7980 C   0  0  0  0  0  0  0  0  0  0  0  0
   40.6370   24.6550   46.1030 H   0  0  0  0  0  0  0  0  0  0  0  0
   42.4300   23.7240   45.6940 O   0  0  0  0  0  0  0  0  0  0  0  0
   43.6430   23.9090   46.2850 C   0  0  0  0  0  0  0  0  0  0  0  0
   43.8430   23.0500   46.9580 H   0  0  0  0  0  0  0  0  0  0  0  0
  1  2  1  0  0  0  0
  2  3  2  0  0  0  0
  2  7  1  0  0  0  0
  3  4  1  0  0  0  0
  4  8  1  0  0  0  0
  4  5  2  0  0  0  0
  5  9  1  0  0  0  0
  6  5  1  0  0  0  0
  6 10  1  0  0  0  0
  7  6  2  0  0  0  0
 11 13  1  0  0  0  0
 11  3  1  0  0  0  0
 12 11  1  0  0  0  0
 14 20  1  0  0  0  0
 14 19  1  0  0  0  0
 15 14  2  0  0  0  0
 16 17  2  0  0  0  0
 16 15  1  0  0  0  0
 17 18  1  0  0  0  0
 18 11  1  0  0  0  0
 18 19  2  0  0  0  0
 21 15  1  0  0  0  0
 22 16  1  0  0  0  0
 23  7  1  0  0  0  0
 23 25  1  0  0  0  0
 25 26  1  0  0  0  0
 25 24  2  1  0  0  0
 27 26  1  0  0  0  0
 28 25  1  0  0  0  0
 29 28  1  6  0  0  0
 30 29  1  0  0  0  0
 31 30  1  0  0  0  0
 32 33  1  0  0  0  0
 32 30  1  0  0  0  0
 34 32  1  0  0  0  0
 34 35  1  0  0  0  0
 35 36  1  0  0  0  0
 35 29  1  0  0  0  0
M  END
>  <minimizedAffinity>
-5.34407377

>  <minimizedRMSD>
2.17866445

$$$$
