
 OpenBabel03242512213D

 40 43  0  0  1  0  0  0  0  0999 V2000
   48.3540   33.0860   41.4410 C   0  0  0  0  0  0  0  0  0  0  0  0
   47.9270   34.3030   41.8950 C   0  0  0  0  0  0  0  0  0  0  0  0
   48.8260   35.1480   42.4800 C   0  0  0  0  0  0  0  0  0  0  0  0
   50.1580   34.7660   42.6080 C   0  0  0  0  0  0  0  0  0  0  0  0
   50.5560   33.5290   42.1390 C   0  0  0  0  0  0  0  0  0  0  0  0
   49.6440   32.6610   41.5410 C   0  0  0  0  0  0  0  0  0  0  0  0
   48.4960   36.1270   42.8480 H   0  0  0  0  0  0  0  0  0  0  0  0
   50.8890   35.4180   43.0690 H   0  0  0  0  0  0  0  0  0  0  0  0
   51.5980   33.2370   42.2420 H   0  0  0  0  0  0  0  0  0  0  0  0
   46.5010   34.6280   41.7190 C   0  0  0  0  0  0  0  0  0  0  0  0
   45.9310   33.8350   41.2580 H   0  0  0  0  0  0  0  0  0  0  0  0
   46.4060   35.5510   41.1400 H   0  0  0  0  0  0  0  0  0  0  0  0
   45.8500   34.8630   43.0690 C   0  0  0  0  0  0  0  0  0  0  0  0
   45.9690   33.8450   44.0380 C   0  0  0  0  0  0  0  0  0  0  0  0
   45.3710   34.0840   45.2570 C   0  0  0  0  0  0  0  0  0  0  0  0
   44.7270   35.2450   45.4460 N   0  0  0  0  0  0  0  0  0  0  0  0
   44.6250   36.2100   44.4980 C   0  0  0  0  0  0  0  0  0  0  0  0
   45.1940   35.9960   43.3190 N   0  0  0  0  0  0  0  0  0  0  0  0
   46.4970   32.9210   43.8500 H   0  0  0  0  0  0  0  0  0  0  0  0
   45.4180   33.3480   46.0620 H   0  0  0  0  0  0  0  0  0  0  0  0
   44.0890   37.1260   44.7150 H   0  0  0  0  0  0  0  0  0  0  0  0
   47.5090   32.1460   40.8250 O   0  0  0  0  0  0  0  0  0  0  0  0
   47.4400   31.2130   41.2370 H   0  0  0  0  0  0  0  0  0  0  0  0
   50.1550   31.4360   41.1020 O   0  0  0  0  0  0  0  0  0  0  0  0
   50.5550   31.4290   39.7660 C   0  0  0  0  0  0  0  0  0  0  0  0
   51.9030   31.4420   39.4800 C   0  0  0  0  0  0  0  0  0  0  0  0
   52.4060   31.4360   38.1830 C   0  0  0  0  0  0  0  0  0  0  0  0
   51.5440   31.4190   37.1710 N   0  0  0  0  0  0  0  0  0  0  0  0
   50.2190   31.4060   37.4370 C   0  0  0  0  0  0  0  0  0  0  0  0
   49.7450   31.4110   38.7000 N   0  0  0  0  0  0  0  0  0  0  0  0
   52.6360   31.4570   40.3010 H   0  0  0  0  0  0  0  0  0  0  0  0
   53.4810   31.4480   38.0220 H   0  0  0  0  0  0  0  0  0  0  0  0
   49.1880   31.3850   36.3830 C   0  0  2  0  0  0  0  0  0  0  0  0
   49.6590   30.9040   35.0510 C   0  0  0  0  0  0  0  0  0  0  0  0
   50.7550   30.7550   34.9840 H   0  0  0  0  0  0  0  0  0  0  0  0
   49.2910   32.0580   34.1110 C   0  0  0  0  0  0  0  0  0  0  0  0
   50.1290   32.7810   34.0710 H   0  0  0  0  0  0  0  0  0  0  0  0
   48.2190   32.6650   34.7830 O   0  0  0  0  0  0  0  0  0  0  0  0
   48.7310   32.7970   36.0660 C   0  0  0  0  0  0  0  0  0  0  0  0
   49.6010   33.4740   36.0890 H   0  0  0  0  0  0  0  0  0  0  0  0
  1  6  2  0  0  0  0
  1  2  1  0  0  0  0
  2  3  2  0  0  0  0
  3  4  1  0  0  0  0
  3  7  1  0  0  0  0
  4  8  1  0  0  0  0
  5  9  1  0  0  0  0
  5  4  2  0  0  0  0
  6  5  1  0  0  0  0
 10  2  1  0  0  0  0
 10 13  1  0  0  0  0
 11 10  1  0  0  0  0
 12 10  1  0  0  0  0
 13 18  2  0  0  0  0
 13 14  1  0  0  0  0
 14 15  2  0  0  0  0
 15 16  1  0  0  0  0
 15 20  1  0  0  0  0
 17 21  1  0  0  0  0
 17 16  2  0  0  0  0
 18 17  1  0  0  0  0
 19 14  1  0  0  0  0
 22 23  1  0  0  0  0
 22  1  1  0  0  0  0
 24  6  1  0  0  0  0
 25 24  1  0  0  0  0
 26 25  1  0  0  0  0
 26 31  1  0  0  0  0
 27 26  2  0  0  0  0
 28 29  2  0  0  0  0
 28 27  1  0  0  0  0
 29 30  1  0  0  0  0
 30 25  2  0  0  0  0
 32 27  1  0  0  0  0
 33 29  1  1  0  0  0
 34 33  1  0  0  0  0
 35 34  1  0  0  0  0
 36 38  1  0  0  0  0
 36 34  1  0  0  0  0
 37 36  1  0  0  0  0
 38 39  1  0  0  0  0
 39 40  1  0  0  0  0
 39 33  1  0  0  0  0
M  END
>  <minimizedAffinity>
-5.86616325

>  <minimizedRMSD>
1.11677635

$$$$
