
 OpenBabel03242520533D

 26 27  0  0  1  0  0  0  0  0999 V2000
   41.7490   31.9260   40.7710 C   0  0  0  0  0  0  0  0  0  0  0  0
   40.8350   32.9190   40.4120 C   0  0  0  0  0  0  0  0  0  0  0  0
   39.5070   32.7900   40.7940 C   0  0  0  0  0  0  0  0  0  0  0  0
   39.1870   31.6890   41.5010 N   0  0  0  0  0  0  0  0  0  0  0  0
   40.0670   30.7460   41.8380 C   0  0  0  0  0  0  0  0  0  0  0  0
   41.3410   30.8650   41.4740 N   0  0  0  0  0  0  0  0  0  0  0  0
   42.7830   32.0600   40.4530 H   0  0  0  0  0  0  0  0  0  0  0  0
   41.0810   33.8070   39.8450 H   0  0  0  0  0  0  0  0  0  0  0  0
   39.6250   29.5670   42.6190 C   0  0  0  0  0  3  0  0  0  0  0  0
   38.3670   29.3700   42.8730 C   0  0  0  0  0  3  0  0  0  0  0  0
   37.8550   28.2170   43.6450 C   0  0  0  0  0  0  0  0  0  0  0  0
   38.6390   27.5010   43.9630 H   0  0  0  0  0  0  0  0  0  0  0  0
   37.3710   28.6340   44.5630 H   0  0  0  0  0  0  0  0  0  0  0  0
   36.7650   27.4740   42.9090 C   0  0  2  0  0  3  0  0  0  0  0  0
   37.1650   26.1210   42.4250 C   0  0  0  0  0  3  0  0  0  0  0  0
   38.1490   25.7650   42.7800 H   0  0  0  0  0  0  0  0  0  0  0  0
   37.0920   26.2160   40.9200 C   0  0  0  0  0  3  0  0  0  0  0  0
   36.3190   25.5710   40.4900 H   0  0  0  0  0  0  0  0  0  0  0  0
   36.9390   27.5580   40.5900 O   0  0  0  0  0  0  0  0  0  0  0  0
   36.3190   28.1840   41.6770 C   0  0  0  0  0  3  0  0  0  0  0  0
   36.6500   29.2420   41.6280 H   0  0  0  0  0  0  0  0  0  0  0  0
   38.5000   33.6830   40.5140 O   0  0  0  0  0  0  0  0  0  0  0  0
   37.4530   33.2410   39.6520 C   0  0  0  0  0  0  0  0  0  0  0  0
   36.7660   34.3590   39.1690 F   0  0  0  0  0  0  0  0  0  0  0  0
   38.0480   32.5760   38.5740 F   0  0  0  0  0  0  0  0  0  0  0  0
   36.5870   32.3600   40.3010 F   0  0  0  0  0  0  0  0  0  0  0  0
  1  6  1  0  0  0  0
  2  1  2  0  0  0  0
  2  3  1  0  0  0  0
  3  4  2  0  0  0  0
  4  5  1  0  0  0  0
  5  9  1  0  0  0  0
  6  5  2  0  0  0  0
  7  1  1  0  0  0  0
  8  2  1  0  0  0  0
  9 10  2  0  0  0  0
 10 11  1  0  0  0  0
 11 12  1  0  0  0  0
 11 13  1  0  0  0  0
 14 11  1  6  0  0  0
 15 16  1  0  0  0  0
 15 14  1  0  0  0  0
 17 15  1  0  0  0  0
 18 17  1  0  0  0  0
 19 17  1  0  0  0  0
 19 20  1  0  0  0  0
 20 14  1  0  0  0  0
 21 20  1  0  0  0  0
 22  3  1  0  0  0  0
 23 26  1  0  0  0  0
 23 22  1  0  0  0  0
 24 23  1  0  0  0  0
 25 23  1  0  0  0  0
M  END
>  <minimizedAffinity>
-4.99047995

$$$$

 OpenBabel03242520533D

 26 27  0  0  1  0  0  0  0  0999 V2000
   36.9970   29.9780   36.8300 C   0  0  0  0  0  0  0  0  0  0  0  0
   37.4490   31.2170   37.2870 C   0  0  0  0  0  0  0  0  0  0  0  0
   38.0930   31.2960   38.5140 C   0  0  0  0  0  0  0  0  0  0  0  0
   38.2400   30.1420   39.1930 N   0  0  0  0  0  0  0  0  0  0  0  0
   37.8040   28.9630   38.7470 C   0  0  0  0  0  0  0  0  0  0  0  0
   37.1860   28.8830   37.5730 N   0  0  0  0  0  0  0  0  0  0  0  0
   36.4950   29.9540   35.8620 H   0  0  0  0  0  0  0  0  0  0  0  0
   37.3360   32.1510   36.7500 H   0  0  0  0  0  0  0  0  0  0  0  0
   38.0100   27.7430   39.5630 C   0  0  0  0  0  3  0  0  0  0  0  0
   37.0530   27.2620   40.2960 C   0  0  0  0  0  3  0  0  0  0  0  0
   37.1880   26.0510   41.1340 C   0  0  0  0  0  0  0  0  0  0  0  0
   36.3880   25.3000   40.9770 H   0  0  0  0  0  0  0  0  0  0  0  0
   38.1660   25.5800   40.8640 H   0  0  0  0  0  0  0  0  0  0  0  0
   37.2850   26.3800   42.6060 C   0  0  2  0  0  3  0  0  0  0  0  0
   36.5890   27.6390   42.9990 C   0  0  0  0  0  3  0  0  0  0  0  0
   35.9710   28.1030   42.2090 H   0  0  0  0  0  0  0  0  0  0  0  0
   37.6920   28.5510   43.4810 C   0  0  0  0  0  3  0  0  0  0  0  0
   37.6120   28.7870   44.5480 H   0  0  0  0  0  0  0  0  0  0  0  0
   38.9040   27.9660   43.1340 O   0  0  0  0  0  0  0  0  0  0  0  0
   38.6910   26.5850   43.0560 C   0  0  0  0  0  3  0  0  0  0  0  0
   39.4480   26.2160   42.3330 H   0  0  0  0  0  0  0  0  0  0  0  0
   38.5880   32.4410   39.0890 O   0  0  0  0  0  0  0  0  0  0  0  0
   37.7180   33.1720   39.9510 C   0  0  0  0  0  0  0  0  0  0  0  0
   38.4870   34.0140   40.7600 F   0  0  0  0  0  0  0  0  0  0  0  0
   36.8870   33.9570   39.1430 F   0  0  0  0  0  0  0  0  0  0  0  0
   36.9220   32.3220   40.7220 F   0  0  0  0  0  0  0  0  0  0  0  0
  1  2  2  0  0  0  0
  1  6  1  0  0  0  0
  2  3  1  0  0  0  0
  3 22  1  0  0  0  0
  3  4  2  0  0  0  0
  5  4  1  0  0  0  0
  5  9  1  0  0  0  0
  6  5  2  0  0  0  0
  7  1  1  0  0  0  0
  8  2  1  0  0  0  0
  9 10  2  0  0  0  0
 10 11  1  0  0  0  0
 12 11  1  0  0  0  0
 13 11  1  0  0  0  0
 14 11  1  6  0  0  0
 14 15  1  0  0  0  0
 14 20  1  0  0  0  0
 15 17  1  0  0  0  0
 16 15  1  0  0  0  0
 17 18  1  0  0  0  0
 19 17  1  0  0  0  0
 20 19  1  0  0  0  0
 21 20  1  0  0  0  0
 22 23  1  0  0  0  0
 23 26  1  0  0  0  0
 23 24  1  0  0  0  0
 25 23  1  0  0  0  0
M  END
>  <minimizedAffinity>
-4.80944443

$$$$

 OpenBabel03242520533D

 26 27  0  0  1  0  0  0  0  0999 V2000
   39.1780   28.1100   43.2730 C   0  0  0  0  0  0  0  0  0  0  0  0
   38.5440   26.8660   43.2930 C   0  0  0  0  0  0  0  0  0  0  0  0
   37.3240   26.7150   42.6480 C   0  0  0  0  0  0  0  0  0  0  0  0
   36.8270   27.8070   42.0340 N   0  0  0  0  0  0  0  0  0  0  0  0
   37.4410   28.9900   42.0220 C   0  0  0  0  0  0  0  0  0  0  0  0
   38.6100   29.1400   42.6380 N   0  0  0  0  0  0  0  0  0  0  0  0
   40.1340   28.1910   43.7900 H   0  0  0  0  0  0  0  0  0  0  0  0
   38.9330   25.9830   43.7820 H   0  0  0  0  0  0  0  0  0  0  0  0
   36.8190   30.1380   41.3200 C   0  0  0  0  0  3  0  0  0  0  0  0
   37.5450   31.1110   40.8610 C   0  0  0  0  0  3  0  0  0  0  0  0
   36.9930   32.2860   40.1520 C   0  0  0  0  0  0  0  0  0  0  0  0
   36.1680   32.0450   39.4520 H   0  0  0  0  0  0  0  0  0  0  0  0
   36.5940   32.9760   40.9360 H   0  0  0  0  0  0  0  0  0  0  0  0
   38.0600   33.0670   39.4220 C   0  0  2  0  0  3  0  0  0  0  0  0
   39.4070   32.4290   39.4380 C   0  0  0  0  0  3  0  0  0  0  0  0
   39.4380   31.4040   39.8510 H   0  0  0  0  0  0  0  0  0  0  0  0
   40.2780   33.3910   40.2100 C   0  0  0  0  0  3  0  0  0  0  0  0
   41.0690   33.8350   39.5960 H   0  0  0  0  0  0  0  0  0  0  0  0
   39.4430   34.3310   40.8020 O   0  0  0  0  0  0  0  0  0  0  0  0
   38.2890   34.4160   40.0150 C   0  0  0  0  0  3  0  0  0  0  0  0
   37.4870   34.7390   40.7110 H   0  0  0  0  0  0  0  0  0  0  0  0
   36.5870   25.5570   42.5840 O   0  0  0  0  0  0  0  0  0  0  0  0
   36.9910   24.5740   41.6320 C   0  0  0  0  0  0  0  0  0  0  0  0
   37.6330   25.2140   40.5680 F   0  0  0  0  0  0  0  0  0  0  0  0
   37.9040   23.7240   42.2670 F   0  0  0  0  0  0  0  0  0  0  0  0
   35.9080   23.8160   41.1830 F   0  0  0  0  0  0  0  0  0  0  0  0
  1  2  1  0  0  0  0
  1  7  1  0  0  0  0
  2  8  1  0  0  0  0
  3  2  2  0  0  0  0
  4  3  1  0  0  0  0
  5  4  2  0  0  0  0
  5  6  1  0  0  0  0
  6  1  2  0  0  0  0
  9  5  1  0  0  0  0
 10  9  2  0  0  0  0
 11 10  1  0  0  0  0
 11 13  1  0  0  0  0
 12 11  1  0  0  0  0
 14 15  1  0  0  0  0
 14 20  1  0  0  0  0
 14 11  1  1  0  0  0
 15 16  1  0  0  0  0
 15 17  1  0  0  0  0
 17 19  1  0  0  0  0
 18 17  1  0  0  0  0
 20 21  1  0  0  0  0
 20 19  1  0  0  0  0
 22  3  1  0  0  0  0
 23 25  1  0  0  0  0
 23 22  1  0  0  0  0
 24 23  1  0  0  0  0
 26 23  1  0  0  0  0
M  END
>  <minimizedAffinity>
-4.77504158

$$$$

 OpenBabel03242520533D

 26 27  0  0  1  0  0  0  0  0999 V2000
   37.8290   33.6520   39.8920 C   0  0  0  0  0  0  0  0  0  0  0  0
   39.1550   33.6020   40.3250 C   0  0  0  0  0  0  0  0  0  0  0  0
   39.6330   32.4420   40.9180 C   0  0  0  0  0  0  0  0  0  0  0  0
   38.7620   31.4210   41.0350 N   0  0  0  0  0  0  0  0  0  0  0  0
   37.4970   31.4800   40.6180 C   0  0  0  0  0  0  0  0  0  0  0  0
   37.0350   32.5890   40.0490 N   0  0  0  0  0  0  0  0  0  0  0  0
   37.4880   34.5800   39.4310 H   0  0  0  0  0  0  0  0  0  0  0  0
   39.8640   34.4160   40.2370 H   0  0  0  0  0  0  0  0  0  0  0  0
   36.6090   30.3050   40.7870 C   0  0  0  0  0  3  0  0  0  0  0  0
   36.9590   29.3080   41.5410 C   0  0  0  0  0  3  0  0  0  0  0  0
   36.1240   28.1060   41.7550 C   0  0  0  0  0  0  0  0  0  0  0  0
   35.0460   28.3240   41.8940 H   0  0  0  0  0  0  0  0  0  0  0  0
   36.2360   27.4700   40.8420 H   0  0  0  0  0  0  0  0  0  0  0  0
   36.6180   27.2630   42.9070 C   0  0  2  0  0  3  0  0  0  0  0  0
   37.6100   27.9470   43.7860 C   0  0  0  0  0  3  0  0  0  0  0  0
   37.7570   29.0230   43.5820 H   0  0  0  0  0  0  0  0  0  0  0  0
   38.8810   27.1480   43.6240 C   0  0  0  0  0  3  0  0  0  0  0  0
   39.1880   26.6450   44.5480 H   0  0  0  0  0  0  0  0  0  0  0  0
   38.6970   26.2780   42.5560 O   0  0  0  0  0  0  0  0  0  0  0  0
   37.3240   26.0300   42.4520 C   0  0  0  0  0  3  0  0  0  0  0  0
   37.1540   25.7880   41.3830 H   0  0  0  0  0  0  0  0  0  0  0  0
   40.9090   32.2480   41.3920 O   0  0  0  0  0  0  0  0  0  0  0  0
   41.0800   31.3080   42.4500 C   0  0  0  0  0  0  0  0  0  0  0  0
   41.3060   30.0440   41.8980 F   0  0  0  0  0  0  0  0  0  0  0  0
   42.2120   31.6930   43.1770 F   0  0  0  0  0  0  0  0  0  0  0  0
   39.9790   31.2910   43.3090 F   0  0  0  0  0  0  0  0  0  0  0  0
  1  6  2  0  0  0  0
  1  2  1  0  0  0  0
  2  3  2  0  0  0  0
  3  4  1  0  0  0  0
  3 22  1  0  0  0  0
  5  9  1  0  0  0  0
  5  4  2  0  0  0  0
  6  5  1  0  0  0  0
  7  1  1  0  0  0  0
  8  2  1  0  0  0  0
  9 10  2  0  0  0  0
 10 11  1  0  0  0  0
 11 12  1  0  0  0  0
 13 11  1  0  0  0  0
 14 11  1  6  0  0  0
 14 15  1  0  0  0  0
 16 15  1  0  0  0  0
 17 15  1  0  0  0  0
 17 18  1  0  0  0  0
 19 17  1  0  0  0  0
 20 19  1  0  0  0  0
 20 14  1  0  0  0  0
 21 20  1  0  0  0  0
 22 23  1  0  0  0  0
 23 25  1  0  0  0  0
 23 26  1  0  0  0  0
 24 23  1  0  0  0  0
M  END
>  <minimizedAffinity>
-4.77145672

$$$$

 OpenBabel03242520533D

 26 27  0  0  1  0  0  0  0  0999 V2000
   35.5020   28.9730   40.6610 C   0  0  0  0  0  0  0  0  0  0  0  0
   36.1630   28.3410   41.7160 C   0  0  0  0  0  0  0  0  0  0  0  0
   37.2210   28.9880   42.3400 C   0  0  0  0  0  0  0  0  0  0  0  0
   37.5420   30.2100   41.8710 N   0  0  0  0  0  0  0  0  0  0  0  0
   36.9030   30.8040   40.8630 C   0  0  0  0  0  0  0  0  0  0  0  0
   35.8890   30.1880   40.2630 N   0  0  0  0  0  0  0  0  0  0  0  0
   34.6760   28.4350   40.1950 H   0  0  0  0  0  0  0  0  0  0  0  0
   35.9150   27.3600   42.1010 H   0  0  0  0  0  0  0  0  0  0  0  0
   37.3250   32.1520   40.4140 C   0  0  0  0  0  3  0  0  0  0  0  0
   38.5080   32.6080   40.6930 C   0  0  0  0  0  3  0  0  0  0  0  0
   38.9950   33.9420   40.2790 C   0  0  0  0  0  0  0  0  0  0  0  0
   38.2800   34.5080   39.6490 H   0  0  0  0  0  0  0  0  0  0  0  0
   39.1720   34.5250   41.2160 H   0  0  0  0  0  0  0  0  0  0  0  0
   40.3320   33.8710   39.5800 C   0  0  2  0  0  3  0  0  0  0  0  0
   40.9420   32.5100   39.5600 C   0  0  0  0  0  3  0  0  0  0  0  0
   40.2900   31.6960   39.9230 H   0  0  0  0  0  0  0  0  0  0  0  0
   42.2080   32.6460   40.3720 C   0  0  0  0  0  3  0  0  0  0  0  0
   43.1140   32.4930   39.7750 H   0  0  0  0  0  0  0  0  0  0  0  0
   42.1670   33.8790   41.0110 O   0  0  0  0  0  0  0  0  0  0  0  0
   41.3660   34.7240   40.2350 C   0  0  0  0  0  3  0  0  0  0  0  0
   40.9470   35.4620   40.9490 H   0  0  0  0  0  0  0  0  0  0  0  0
   37.9630   28.4920   43.3850 O   0  0  0  0  0  0  0  0  0  0  0  0
   39.2430   27.9430   43.0790 C   0  0  0  0  0  0  0  0  0  0  0  0
   39.5240   26.9190   43.9880 F   0  0  0  0  0  0  0  0  0  0  0  0
   39.1710   27.3980   41.7920 F   0  0  0  0  0  0  0  0  0  0  0  0
   40.2410   28.9190   43.0970 F   0  0  0  0  0  0  0  0  0  0  0  0
  1  2  1  0  0  0  0
  2  8  1  0  0  0  0
  2  3  2  0  0  0  0
  3 22  1  0  0  0  0
  4  3  1  0  0  0  0
  5  4  2  0  0  0  0
  6  1  2  0  0  0  0
  6  5  1  0  0  0  0
  7  1  1  0  0  0  0
  9 10  2  0  0  0  0
  9  5  1  0  0  0  0
 11 10  1  0  0  0  0
 11 13  1  0  0  0  0
 12 11  1  0  0  0  0
 14 20  1  0  0  0  0
 14 11  1  1  0  0  0
 15 14  1  0  0  0  0
 15 16  1  0  0  0  0
 15 17  1  0  0  0  0
 17 19  1  0  0  0  0
 18 17  1  0  0  0  0
 20 21  1  0  0  0  0
 20 19  1  0  0  0  0
 23 26  1  0  0  0  0
 23 22  1  0  0  0  0
 23 24  1  0  0  0  0
 25 23  1  0  0  0  0
M  END
>  <minimizedAffinity>
-4.77092171

$$$$

 OpenBabel03242520533D

 26 27  0  0  1  0  0  0  0  0999 V2000
   37.0090   30.2590   36.9290 C   0  0  0  0  0  0  0  0  0  0  0  0
   37.7520   31.3960   37.2490 C   0  0  0  0  0  0  0  0  0  0  0  0
   38.2620   31.5370   38.5320 C   0  0  0  0  0  0  0  0  0  0  0  0
   37.9960   30.5400   39.3990 N   0  0  0  0  0  0  0  0  0  0  0  0
   37.2840   29.4580   39.0830 C   0  0  0  0  0  0  0  0  0  0  0  0
   36.7940   29.3190   37.8540 N   0  0  0  0  0  0  0  0  0  0  0  0
   36.6240   30.1830   35.9110 H   0  0  0  0  0  0  0  0  0  0  0  0
   37.9720   32.2030   36.5620 H   0  0  0  0  0  0  0  0  0  0  0  0
   37.0420   28.4090   40.1020 C   0  0  0  0  0  3  0  0  0  0  0  0
   36.7460   28.7250   41.3260 C   0  0  0  0  0  3  0  0  0  0  0  0
   36.4920   27.7340   42.3930 C   0  0  0  0  0  0  0  0  0  0  0  0
   35.5700   27.9250   42.9780 H   0  0  0  0  0  0  0  0  0  0  0  0
   36.3870   26.7400   41.8910 H   0  0  0  0  0  0  0  0  0  0  0  0
   37.6640   27.5940   43.3360 C   0  0  2  0  0  3  0  0  0  0  0  0
   38.5980   28.7560   43.3290 C   0  0  0  0  0  3  0  0  0  0  0  0
   38.2550   29.6340   42.7520 H   0  0  0  0  0  0  0  0  0  0  0  0
   39.9010   28.1970   42.8100 C   0  0  0  0  0  3  0  0  0  0  0  0
   40.7020   28.2220   43.5570 H   0  0  0  0  0  0  0  0  0  0  0  0
   39.6450   26.9230   42.3170 O   0  0  0  0  0  0  0  0  0  0  0  0
   38.5310   26.4280   43.0030 C   0  0  0  0  0  3  0  0  0  0  0  0
   38.0580   25.7060   42.3060 H   0  0  0  0  0  0  0  0  0  0  0  0
   39.0070   32.5970   38.9900 O   0  0  0  0  0  0  0  0  0  0  0  0
   38.3780   33.4960   39.9000 C   0  0  0  0  0  0  0  0  0  0  0  0
   38.5130   32.9930   41.1970 F   0  0  0  0  0  0  0  0  0  0  0  0
   39.0540   34.7200   39.8180 F   0  0  0  0  0  0  0  0  0  0  0  0
   37.0350   33.7020   39.5770 F   0  0  0  0  0  0  0  0  0  0  0  0
  1  2  2  0  0  0  0
  1  6  1  0  0  0  0
  2  3  1  0  0  0  0
  3 22  1  0  0  0  0
  3  4  2  0  0  0  0
  5  4  1  0  0  0  0
  5  9  1  0  0  0  0
  6  5  2  0  0  0  0
  7  1  1  0  0  0  0
  8  2  1  0  0  0  0
  9 10  2  0  0  0  0
 10 11  1  0  0  0  0
 11 12  1  0  0  0  0
 13 11  1  0  0  0  0
 14 11  1  6  0  0  0
 15 14  1  0  0  0  0
 16 15  1  0  0  0  0
 17 15  1  0  0  0  0
 17 18  1  0  0  0  0
 19 17  1  0  0  0  0
 19 20  1  0  0  0  0
 20 14  1  0  0  0  0
 21 20  1  0  0  0  0
 22 23  1  0  0  0  0
 23 24  1  0  0  0  0
 25 23  1  0  0  0  0
 26 23  1  0  0  0  0
M  END
>  <minimizedAffinity>
-4.63574219

$$$$

 OpenBabel03242520533D

 26 27  0  0  1  0  0  0  0  0999 V2000
   38.6110   33.4330   40.6060 C   0  0  0  0  0  0  0  0  0  0  0  0
   39.8420   33.4470   39.9480 C   0  0  0  0  0  0  0  0  0  0  0  0
   40.3290   32.2720   39.3930 C   0  0  0  0  0  0  0  0  0  0  0  0
   39.5600   31.1750   39.5320 N   0  0  0  0  0  0  0  0  0  0  0  0
   38.3860   31.1730   40.1630 C   0  0  0  0  0  0  0  0  0  0  0  0
   37.9140   32.2960   40.6960 N   0  0  0  0  0  0  0  0  0  0  0  0
   38.2590   34.3740   41.0300 H   0  0  0  0  0  0  0  0  0  0  0  0
   40.4690   34.3220   39.8300 H   0  0  0  0  0  0  0  0  0  0  0  0
   37.6060   29.9160   40.2670 C   0  0  0  0  0  3  0  0  0  0  0  0
   36.9990   29.5980   41.3700 C   0  0  0  0  0  3  0  0  0  0  0  0
   36.2050   28.3630   41.5450 C   0  0  0  0  0  0  0  0  0  0  0  0
   35.1090   28.5280   41.5620 H   0  0  0  0  0  0  0  0  0  0  0  0
   36.4450   27.7010   40.6760 H   0  0  0  0  0  0  0  0  0  0  0  0
   36.6150   27.5880   42.7760 C   0  0  2  0  0  3  0  0  0  0  0  0
   37.6470   28.2660   43.6110 C   0  0  0  0  0  3  0  0  0  0  0  0
   37.8840   29.3050   43.3170 H   0  0  0  0  0  0  0  0  0  0  0  0
   38.8510   27.3570   43.5460 C   0  0  0  0  0  3  0  0  0  0  0  0
   39.1030   26.9150   44.5160 H   0  0  0  0  0  0  0  0  0  0  0  0
   38.6110   26.4130   42.5540 O   0  0  0  0  0  0  0  0  0  0  0  0
   37.2230   26.2680   42.4450 C   0  0  0  0  0  3  0  0  0  0  0  0
   37.0470   25.9460   41.3980 H   0  0  0  0  0  0  0  0  0  0  0  0
   41.5200   32.1350   38.7200 O   0  0  0  0  0  0  0  0  0  0  0  0
   41.5590   32.5660   37.3610 C   0  0  0  0  0  0  0  0  0  0  0  0
   42.4760   31.7750   36.6630 F   0  0  0  0  0  0  0  0  0  0  0  0
   40.2840   32.3650   36.8190 F   0  0  0  0  0  0  0  0  0  0  0  0
   41.8830   33.9200   37.2590 F   0  0  0  0  0  0  0  0  0  0  0  0
  1  6  1  0  0  0  0
  1  7  1  0  0  0  0
  2  1  2  0  0  0  0
  3  4  2  0  0  0  0
  3  2  1  0  0  0  0
  4  5  1  0  0  0  0
  5  9  1  0  0  0  0
  5  6  2  0  0  0  0
  8  2  1  0  0  0  0
  9 10  2  0  0  0  0
 10 11  1  0  0  0  0
 11 12  1  0  0  0  0
 13 11  1  0  0  0  0
 14 11  1  6  0  0  0
 14 15  1  0  0  0  0
 16 15  1  0  0  0  0
 17 15  1  0  0  0  0
 17 18  1  0  0  0  0
 19 17  1  0  0  0  0
 20 19  1  0  0  0  0
 20 14  1  0  0  0  0
 21 20  1  0  0  0  0
 22  3  1  0  0  0  0
 23 22  1  0  0  0  0
 24 23  1  0  0  0  0
 25 23  1  0  0  0  0
 26 23  1  0  0  0  0
M  END
>  <minimizedAffinity>
-4.62466908

$$$$

 OpenBabel03242520533D

 26 27  0  0  1  0  0  0  0  0999 V2000
   38.6860   32.3530   39.6520 C   0  0  0  0  0  0  0  0  0  0  0  0
   37.3490   31.9880   39.8200 C   0  0  0  0  0  0  0  0  0  0  0  0
   37.0270   30.9870   40.7260 C   0  0  0  0  0  0  0  0  0  0  0  0
   38.0530   30.4250   41.3940 N   0  0  0  0  0  0  0  0  0  0  0  0
   39.3260   30.7810   41.2250 C   0  0  0  0  0  0  0  0  0  0  0  0
   39.6400   31.7400   40.3590 N   0  0  0  0  0  0  0  0  0  0  0  0
   38.9020   33.1430   38.9320 H   0  0  0  0  0  0  0  0  0  0  0  0
   36.5170   32.4320   39.2890 H   0  0  0  0  0  0  0  0  0  0  0  0
   40.3910   30.1070   42.0060 C   0  0  0  0  0  3  0  0  0  0  0  0
   40.2710   28.8650   42.3630 C   0  0  0  0  0  3  0  0  0  0  0  0
   41.2910   28.1300   43.1410 C   0  0  0  0  0  0  0  0  0  0  0  0
   42.1280   27.7360   42.5310 H   0  0  0  0  0  0  0  0  0  0  0  0
   41.7120   28.8530   43.8840 H   0  0  0  0  0  0  0  0  0  0  0  0
   40.6920   27.0080   43.9560 C   0  0  2  0  0  3  0  0  0  0  0  0
   41.2500   25.6600   43.6460 C   0  0  0  0  0  3  0  0  0  0  0  0
   42.1250   25.6560   42.9710 H   0  0  0  0  0  0  0  0  0  0  0  0
   40.0830   24.8820   43.0860 C   0  0  0  0  0  3  0  0  0  0  0  0
   39.7890   24.0410   43.7220 H   0  0  0  0  0  0  0  0  0  0  0  0
   39.0520   25.7830   42.8480 O   0  0  0  0  0  0  0  0  0  0  0  0
   39.2260   26.8550   43.7300 C   0  0  0  0  0  3  0  0  0  0  0  0
   38.7610   27.7260   43.2230 H   0  0  0  0  0  0  0  0  0  0  0  0
   35.7610   30.5240   40.9950 O   0  0  0  0  0  0  0  0  0  0  0  0
   35.4420   29.2000   40.5720 C   0  0  0  0  0  0  0  0  0  0  0  0
   35.6720   28.3200   41.6330 F   0  0  0  0  0  0  0  0  0  0  0  0
   34.0800   29.1760   40.2520 F   0  0  0  0  0  0  0  0  0  0  0  0
   36.1760   28.8290   39.4430 F   0  0  0  0  0  0  0  0  0  0  0  0
  1  2  2  0  0  0  0
  1  6  1  0  0  0  0
  2  3  1  0  0  0  0
  3 22  1  0  0  0  0
  3  4  2  0  0  0  0
  5  4  1  0  0  0  0
  5  9  1  0  0  0  0
  6  5  2  0  0  0  0
  7  1  1  0  0  0  0
  8  2  1  0  0  0  0
  9 10  2  0  0  0  0
 10 11  1  0  0  0  0
 11 13  1  0  0  0  0
 12 11  1  0  0  0  0
 14 11  1  6  0  0  0
 15 14  1  0  0  0  0
 16 15  1  0  0  0  0
 17 15  1  0  0  0  0
 17 18  1  0  0  0  0
 19 17  1  0  0  0  0
 19 20  1  0  0  0  0
 20 14  1  0  0  0  0
 21 20  1  0  0  0  0
 23 22  1  0  0  0  0
 23 24  1  0  0  0  0
 25 23  1  0  0  0  0
 26 23  1  0  0  0  0
M  END
>  <minimizedAffinity>
-4.59698868

$$$$

 OpenBabel03242520533D

 26 27  0  0  1  0  0  0  0  0999 V2000
   39.5240   30.4440   42.5290 C   0  0  0  0  0  0  0  0  0  0  0  0
   38.9450   31.3250   41.6140 C   0  0  0  0  0  0  0  0  0  0  0  0
   37.7360   30.9910   41.0200 C   0  0  0  0  0  0  0  0  0  0  0  0
   37.1940   29.8110   41.3790 N   0  0  0  0  0  0  0  0  0  0  0  0
   37.7550   28.9770   42.2540 C   0  0  0  0  0  0  0  0  0  0  0  0
   38.9140   29.2930   42.8250 N   0  0  0  0  0  0  0  0  0  0  0  0
   40.4740   30.7390   42.9750 H   0  0  0  0  0  0  0  0  0  0  0  0
   39.3710   32.2750   41.3180 H   0  0  0  0  0  0  0  0  0  0  0  0
   37.0860   27.6980   42.5900 C   0  0  0  0  0  3  0  0  0  0  0  0
   37.4280   26.5920   42.0020 C   0  0  0  0  0  3  0  0  0  0  0  0
   36.8030   25.2820   42.2870 C   0  0  0  0  0  0  0  0  0  0  0  0
   36.4590   25.1630   43.3340 H   0  0  0  0  0  0  0  0  0  0  0  0
   35.9130   25.1970   41.6150 H   0  0  0  0  0  0  0  0  0  0  0  0
   37.7050   24.1260   41.9210 C   0  0  2  0  0  3  0  0  0  0  0  0
   39.1250   24.5100   41.6780 C   0  0  0  0  0  3  0  0  0  0  0  0
   39.3810   25.5540   41.9310 H   0  0  0  0  0  0  0  0  0  0  0  0
   39.3650   24.1910   40.2220 C   0  0  0  0  0  3  0  0  0  0  0  0
   40.0990   23.3920   40.0760 H   0  0  0  0  0  0  0  0  0  0  0  0
   38.1310   23.9200   39.6430 O   0  0  0  0  0  0  0  0  0  0  0  0
   37.2890   23.4520   40.6570 C   0  0  0  0  0  3  0  0  0  0  0  0
   36.2630   23.7180   40.3280 H   0  0  0  0  0  0  0  0  0  0  0  0
   37.0520   31.7550   40.1050 O   0  0  0  0  0  0  0  0  0  0  0  0
   37.1400   31.3720   38.7340 C   0  0  0  0  0  0  0  0  0  0  0  0
   37.1480   32.5250   37.9440 F   0  0  0  0  0  0  0  0  0  0  0  0
   38.3550   30.6980   38.5620 F   0  0  0  0  0  0  0  0  0  0  0  0
   36.0970   30.5190   38.3680 F   0  0  0  0  0  0  0  0  0  0  0  0
  1  6  1  0  0  0  0
  1  7  1  0  0  0  0
  2  1  2  0  0  0  0
  3  4  2  0  0  0  0
  3  2  1  0  0  0  0
  4  5  1  0  0  0  0
  5  9  1  0  0  0  0
  5  6  2  0  0  0  0
  8  2  1  0  0  0  0
 10 11  1  0  0  0  0
 10  9  2  0  0  0  0
 11 12  1  0  0  0  0
 13 11  1  0  0  0  0
 14 11  1  6  0  0  0
 15 14  1  0  0  0  0
 15 16  1  0  0  0  0
 17 15  1  0  0  0  0
 18 17  1  0  0  0  0
 19 17  1  0  0  0  0
 19 20  1  0  0  0  0
 20 14  1  0  0  0  0
 21 20  1  0  0  0  0
 22  3  1  0  0  0  0
 23 22  1  0  0  0  0
 24 23  1  0  0  0  0
 25 23  1  0  0  0  0
 26 23  1  0  0  0  0
M  END
>  <minimizedAffinity>
-4.57147789

$$$$
