
 OpenBabel03252505583D

 35 37  0  0  1  0  0  0  0  0999 V2000
   44.9020   35.0960   45.1790 C   0  0  0  0  0  0  0  0  0  0  0  0
   45.6530   34.7690   44.0300 C   0  0  0  0  0  0  0  0  0  0  0  0
   46.4580   33.6400   44.1030 C   0  0  0  0  0  0  0  0  0  0  0  0
   46.4740   32.9320   45.2540 N   0  0  0  0  0  0  0  0  0  0  0  0
   45.7490   33.2710   46.3210 C   0  0  0  0  0  0  0  0  0  0  0  0
   44.9670   34.3440   46.2890 N   0  0  0  0  0  0  0  0  0  0  0  0
   44.2710   35.9740   45.1310 H   0  0  0  0  0  0  0  0  0  0  0  0
   47.3030   33.1210   43.0450 C   0  0  2  0  0  3  0  0  0  0  0  0
   46.4060   32.2460   42.1490 C   0  0  0  0  0  3  0  0  0  0  0  0
   46.3030   32.6600   41.1270 H   0  0  0  0  0  0  0  0  0  0  0  0
   47.0590   30.9050   42.0750 C   0  0  0  0  0  3  0  0  0  0  0  0
   46.3500   30.0690   41.9660 H   0  0  0  0  0  0  0  0  0  0  0  0
   47.6060   30.8120   43.3550 O   0  0  0  0  0  0  0  0  0  0  0  0
   48.2450   32.0360   43.5490 C   0  0  0  0  0  3  0  0  0  0  0  0
   49.1500   32.0560   42.9100 H   0  0  0  0  0  0  0  0  0  0  0  0
   45.5540   35.6210   42.8250 C   0  0  0  0  0  0  0  0  0  0  0  0
   44.9780   36.8030   43.2910 F   0  0  0  0  0  0  0  0  0  0  0  0
   44.6150   35.0200   41.9850 F   0  0  0  0  0  0  0  0  0  0  0  0
   46.7470   35.8410   42.2850 F   0  0  0  0  0  0  0  0  0  0  0  0
   45.7690   32.5380   47.5040 O   0  0  0  0  0  0  0  0  0  0  0  0
   45.3080   31.2010   47.5260 C   0  0  0  0  0  0  0  0  0  0  0  0
   44.6980   31.0840   48.4540 H   0  0  0  0  0  0  0  0  0  0  0  0
   44.6470   30.9490   46.6790 H   0  0  0  0  0  0  0  0  0  0  0  0
   46.4880   30.3290   47.6550 C   0  0  0  0  0  0  0  0  0  0  0  0
   46.7310   29.0700   47.1230 C   0  0  0  0  0  0  0  0  0  0  0  0
   47.9220   28.4780   47.4040 C   0  0  0  0  0  0  0  0  0  0  0  0
   48.8490   29.0600   48.1620 N   0  0  0  0  0  0  0  0  0  0  0  0
   48.6080   30.2750   48.6720 C   0  0  0  0  0  0  0  0  0  0  0  0
   47.4290   30.9240   48.4260 N   0  0  0  0  0  0  0  0  0  0  0  0
   45.9170   28.7140   46.5370 H   0  0  0  0  0  0  0  0  0  0  0  0
   48.0460   27.4940   46.9540 H   0  0  0  0  0  0  0  0  0  0  0  0
   49.6970   30.8400   49.5010 C   0  0  0  0  0  0  0  0  0  0  0  0
   49.6700   32.2200   49.4990 F   0  0  0  0  0  0  0  0  0  0  0  0
   50.9380   30.4250   49.0120 F   0  0  0  0  0  0  0  0  0  0  0  0
   49.6240   30.4240   50.8150 F   0  0  0  0  0  0  0  0  0  0  0  0
  1  6  1  0  0  0  0
  2  3  1  0  0  0  0
  2  1  2  0  0  0  0
  3  4  2  0  0  0  0
  4  5  1  0  0  0  0
  5 20  1  0  0  0  0
  6  5  2  0  0  0  0
  7  1  1  0  0  0  0
  8 14  1  0  0  0  0
  8  3  1  1  0  0  0
  9  8  1  0  0  0  0
 10  9  1  0  0  0  0
 11  9  1  0  0  0  0
 11 13  1  0  0  0  0
 12 11  1  0  0  0  0
 13 14  1  0  0  0  0
 15 14  1  0  0  0  0
 16 17  1  0  0  0  0
 16  2  1  0  0  0  0
 18 16  1  0  0  0  0
 19 16  1  0  0  0  0
 20 21  1  0  0  0  0
 21 24  1  0  0  0  0
 21 22  1  0  0  0  0
 23 21  1  0  0  0  0
 24 29  1  0  0  0  0
 25 26  1  0  0  0  0
 25 24  2  0  0  0  0
 26 27  2  0  0  0  0
 27 28  1  0  0  0  0
 28 32  1  0  0  0  0
 29 28  2  0  0  0  0
 30 25  1  0  0  0  0
 31 26  1  0  0  0  0
 32 35  1  0  0  0  0
 33 32  1  0  0  0  0
 34 32  1  0  0  0  0
M  END
>  <minimizedAffinity>
-5.47036982

>  <minimizedRMSD>
0.451909304

$$$$
