
 OpenBabel03252504113D

 24 25  0  0  1  0  0  0  0  0999 V2000
   46.8650   33.6720   43.5410 C   0  0  0  0  0  0  0  0  0  0  0  0
   45.8320   34.5570   43.8070 C   0  0  0  0  0  0  0  0  0  0  0  0
   45.2120   34.4840   45.0740 C   0  0  0  0  0  0  0  0  0  0  0  0
   45.6550   33.5610   45.9600 N   0  0  0  0  0  0  0  0  0  0  0  0
   46.6690   32.7150   45.6580 C   0  0  0  0  0  0  0  0  0  0  0  0
   47.2640   32.7730   44.4630 N   0  0  0  0  0  0  0  0  0  0  0  0
   44.4140   35.1650   45.2850 H   0  0  0  0  0  0  0  0  0  0  0  0
   47.0770   31.7550   46.6780 C   0  0  2  0  0  3  0  0  0  0  0  0
   45.9680   30.8460   47.1710 C   0  0  0  0  0  3  0  0  0  0  0  0
   45.8170   30.0020   46.4790 H   0  0  0  0  0  0  0  0  0  0  0  0
   46.6280   30.4000   48.4660 C   0  0  0  0  0  3  0  0  0  0  0  0
   45.9650   29.8630   49.1310 H   0  0  0  0  0  0  0  0  0  0  0  0
   46.9760   31.6500   49.0170 O   0  0  0  0  0  0  0  0  0  0  0  0
   47.4860   32.4010   47.9850 C   0  0  0  0  0  3  0  0  0  0  0  0
   47.2090   33.4660   48.0370 H   0  0  0  0  0  0  0  0  0  0  0  0
   45.4130   35.5360   42.7730 C   0  0  0  0  0  0  0  0  0  0  0  0
   46.3600   36.5420   42.6770 F   0  0  0  0  0  0  0  0  0  0  0  0
   45.4010   34.8850   41.5510 F   0  0  0  0  0  0  0  0  0  0  0  0
   44.2090   36.1230   42.9940 F   0  0  0  0  0  0  0  0  0  0  0  0
   47.4480   33.7530   42.3240 O   0  0  0  0  0  0  0  0  0  0  0  0
   48.7110   34.3020   42.0230 C   0  0  0  0  0  0  0  0  0  0  0  0
   49.1870   34.9080   43.1900 F   0  0  0  0  0  0  0  0  0  0  0  0
   49.5390   33.3220   41.5650 F   0  0  0  0  0  0  0  0  0  0  0  0
   48.5660   35.3390   41.1180 F   0  0  0  0  0  0  0  0  0  0  0  0
  1  2  2  0  0  0  0
  1  6  1  0  0  0  0
  2  3  1  0  0  0  0
  3  7  1  0  0  0  0
  3  4  2  0  0  0  0
  5  4  1  0  0  0  0
  6  5  2  0  0  0  0
  8  5  1  6  0  0  0
  8  9  1  0  0  0  0
  8 14  1  0  0  0  0
  9 11  1  0  0  0  0
 10  9  1  0  0  0  0
 11 13  1  0  0  0  0
 11 12  1  0  0  0  0
 14 15  1  0  0  0  0
 14 13  1  0  0  0  0
 16 19  1  0  0  0  0
 16  2  1  0  0  0  0
 17 16  1  0  0  0  0
 18 16  1  0  0  0  0
 20  1  1  0  0  0  0
 21 20  1  0  0  0  0
 21 22  1  0  0  0  0
 23 21  1  0  0  0  0
 24 21  1  0  0  0  0
M  END
>  <minimizedAffinity>
-5.18301153

>  <minimizedRMSD>
1.74427223

$$$$
