
 OpenBabel03242520053D

 45 49  0  0  1  0  0  0  0  0999 V2000
   47.4440   28.7710   47.2510 N   0  0  0  0  0  0  0  0  0  0  0  0
   47.8570   29.5690   46.1610 C   0  0  1  0  0  0  0  0  0  0  0  0
   49.3050   29.9150   46.3370 C   0  0  0  0  0  0  0  0  0  0  0  0
   50.0080   28.6550   46.2340 N   0  0  0  0  0  0  0  0  0  0  0  0
   49.7110   27.7890   47.3430 C   0  0  0  0  0  0  0  0  0  0  0  0
   48.2670   27.7560   47.7540 C   0  0  2  0  0  0  0  0  0  0  0  0
   46.4540   28.5450   47.1440 H   0  0  0  0  0  0  0  0  0  0  0  0
   47.2100   30.4730   46.1330 H   0  0  0  0  0  0  0  0  0  0  0  0
   49.6720   30.6120   45.5680 H   0  0  0  0  0  0  0  0  0  0  0  0
   49.4170   30.3770   47.3400 H   0  0  0  0  0  0  0  0  0  0  0  0
   49.6640   28.1940   45.3590 H   0  0  0  0  0  0  0  0  0  0  0  0
   50.4210   28.0770   48.1460 H   0  0  0  0  0  0  0  0  0  0  0  0
   50.0930   26.7760   47.0170 H   0  0  0  0  0  0  0  0  0  0  0  0
   48.2990   27.9600   48.8570 H   0  0  0  0  0  0  0  0  0  0  0  0
   47.8530   27.3120   43.4260 C   0  0  0  0  0  0  0  0  0  0  0  0
   47.2460   28.4140   42.8310 C   0  0  0  0  0  0  0  0  0  0  0  0
   47.1660   29.3940   43.7610 C   0  0  0  0  0  0  0  0  0  0  0  0
   47.7120   28.9040   44.9020 N   0  0  0  0  0  0  0  0  0  0  0  0
   48.1120   27.6630   44.6750 N   0  0  0  0  0  0  0  0  0  0  0  0
   46.8860   28.5020   41.7940 H   0  0  0  0  0  0  0  0  0  0  0  0
   46.7490   30.3830   43.6330 H   0  0  0  0  0  0  0  0  0  0  0  0
   49.4400   24.1050   42.5480 C   0  0  0  0  0  0  0  0  0  0  0  0
   48.6310   23.6290   41.5080 C   0  0  0  0  0  0  0  0  0  0  0  0
   47.5450   24.4330   41.1300 C   0  0  0  0  0  0  0  0  0  0  0  0
   47.3440   25.6040   41.7800 N   0  0  0  0  0  0  0  0  0  0  0  0
   48.1350   26.0330   42.7710 C   0  0  0  0  0  0  0  0  0  0  0  0
   49.1810   25.2970   43.1620 N   0  0  0  0  0  0  0  0  0  0  0  0
   50.2870   23.4930   42.8540 H   0  0  0  0  0  0  0  0  0  0  0  0
   48.8400   22.6840   41.0240 H   0  0  0  0  0  0  0  0  0  0  0  0
   46.8880   24.1220   40.3380 H   0  0  0  0  0  0  0  0  0  0  0  0
   47.7650   26.3300   47.4990 C   0  0  1  0  0  0  0  0  0  0  0  0
   48.5950   25.2990   48.2480 C   0  0  0  0  0  0  0  0  0  0  0  0
   47.1400   25.5460   48.5540 C   0  0  2  0  0  0  0  0  0  0  0  0
   47.4390   26.1010   46.4640 H   0  0  0  0  0  0  0  0  0  0  0  0
   48.9540   24.5030   47.6050 H   0  0  0  0  0  0  0  0  0  0  0  0
   49.3850   25.6500   48.9600 H   0  0  0  0  0  0  0  0  0  0  0  0
   47.0370   26.0820   49.5650 H   0  0  0  0  0  0  0  0  0  0  0  0
   46.3430   24.3270   48.4870 C   0  0  2  0  0  3  0  0  0  0  0  0
   44.8870   24.6950   48.0980 C   0  0  0  0  0  3  0  0  0  0  0  0
   44.2450   23.8140   48.0460 H   0  0  0  0  0  0  0  0  0  0  0  0
   44.5250   25.4100   49.4110 C   0  0  0  0  0  3  0  0  0  0  0  0
   43.4760   25.2670   49.6770 H   0  0  0  0  0  0  0  0  0  0  0  0
   45.3260   24.8560   50.4050 O   0  0  0  0  0  0  0  0  0  0  0  0
   45.9680   23.7720   49.8740 C   0  0  0  0  0  3  0  0  0  0  0  0
   45.2910   22.8940   49.7290 H   0  0  0  0  0  0  0  0  0  0  0  0
  1  6  1  0  0  0  0
  2  8  1  6  0  0  0
  2  3  1  0  0  0  0
  2  1  1  0  0  0  0
  3 10  1  0  0  0  0
  4  3  1  0  0  0  0
  4  5  1  0  0  0  0
  5  6  1  0  0  0  0
  5 12  1  0  0  0  0
  6 14  1  1  0  0  0
  7  1  1  0  0  0  0
  9  3  1  0  0  0  0
 11  4  1  0  0  0  0
 13  5  1  0  0  0  0
 15 19  2  0  0  0  0
 16 15  1  0  0  0  0
 16 17  2  0  0  0  0
 17 18  1  0  0  0  0
 18  2  1  0  0  0  0
 19 18  1  0  0  0  0
 20 16  1  0  0  0  0
 21 17  1  0  0  0  0
 22 28  1  0  0  0  0
 22 27  1  0  0  0  0
 23 22  2  0  0  0  0
 24 23  1  0  0  0  0
 24 25  2  0  0  0  0
 25 26  1  0  0  0  0
 26 27  2  0  0  0  0
 26 15  1  0  0  0  0
 29 23  1  0  0  0  0
 30 24  1  0  0  0  0
 31 34  1  6  0  0  0
 31  6  1  0  0  0  0
 31 32  1  0  0  0  0
 31 33  1  0  0  0  0
 32 33  1  0  0  0  0
 32 36  1  0  0  0  0
 33 37  1  1  0  0  0
 35 32  1  0  0  0  0
 38 39  1  6  0  0  0
 38 33  1  0  0  0  0
 38 44  1  0  0  0  0
 39 41  1  0  0  0  0
 40 39  1  0  0  0  0
 41 42  1  0  0  0  0
 41 43  1  0  0  0  0
 44 43  1  0  0  0  0
 45 44  1  0  0  0  0
M  END
>  <minimizedAffinity>
-1.72546852

>  <minimizedRMSD>
7.64656734

$$$$
