
 OpenBabel03252502253D

 33 35  0  0  1  0  0  0  0  0999 V2000
   37.1040   30.6790   39.6200 N   0  0  0  0  0  0  0  0  0  0  0  0
   37.1010   29.9080   38.3880 C   0  0  0  0  0  0  0  0  0  0  0  0
   35.6220   29.6010   38.1500 C   0  0  0  0  0  0  0  0  0  0  0  0
   35.0920   28.7040   39.2300 C   0  0  0  0  0  0  0  0  0  0  0  0
   35.5630   29.0400   40.5980 C   0  0  0  0  0  0  0  0  0  0  0  0
   36.2720   30.3590   40.7480 C   0  0  1  0  0  0  0  0  0  0  0  0
   37.4260   30.5590   37.5620 H   0  0  0  0  0  0  0  0  0  0  0  0
   37.7020   28.9880   38.4740 H   0  0  0  0  0  0  0  0  0  0  0  0
   35.0910   30.5760   38.2350 H   0  0  0  0  0  0  0  0  0  0  0  0
   35.4630   29.1290   37.1650 H   0  0  0  0  0  0  0  0  0  0  0  0
   33.9860   28.6820   39.1550 H   0  0  0  0  0  0  0  0  0  0  0  0
   35.4780   27.6710   38.9920 H   0  0  0  0  0  0  0  0  0  0  0  0
   34.6650   29.0810   41.2690 H   0  0  0  0  0  0  0  0  0  0  0  0
   36.2040   28.2530   41.0470 H   0  0  0  0  0  0  0  0  0  0  0  0
   35.4810   31.1350   40.8110 H   0  0  0  0  0  0  0  0  0  0  0  0
   38.3900   34.1610   40.0540 C   0  0  0  0  0  0  0  0  0  0  0  0
   37.4560   33.1140   39.9250 C   0  0  0  0  0  0  0  0  0  0  0  0
   37.9580   31.8160   39.7610 C   0  0  0  0  0  0  0  0  0  0  0  0
   39.3200   31.6600   39.7370 N   0  0  0  0  0  0  0  0  0  0  0  0
   40.1750   32.6980   39.8650 C   0  0  0  0  0  0  0  0  0  0  0  0
   39.6930   33.9580   40.0250 N   0  0  0  0  0  0  0  0  0  0  0  0
   37.8290   35.0980   40.1740 H   0  0  0  0  0  0  0  0  0  0  0  0
   36.3890   33.1800   39.9360 H   0  0  0  0  0  0  0  0  0  0  0  0
   41.2430   32.5620   39.8460 H   0  0  0  0  0  0  0  0  0  0  0  0
   37.0580   30.2870   41.8990 O   0  0  0  0  0  0  0  0  0  0  0  0
   37.4020   28.9800   42.1000 C   0  0  2  0  0  3  0  0  0  0  0  0
   37.3710   28.5140   43.5330 C   0  0  0  0  0  3  0  0  0  0  0  0
   36.3690   28.2680   43.8790 H   0  0  0  0  0  0  0  0  0  0  0  0
   38.2490   27.2650   43.3950 C   0  0  0  0  0  3  0  0  0  0  0  0
   38.7240   27.0100   44.3610 H   0  0  0  0  0  0  0  0  0  0  0  0
   39.1360   27.4780   42.3780 O   0  0  0  0  0  0  0  0  0  0  0  0
   38.8900   28.7260   41.8260 C   0  0  0  0  0  3  0  0  0  0  0  0
   39.0710   28.6920   40.7520 H   0  0  0  0  0  0  0  0  0  0  0  0
  1 18  1  0  0  0  0
  1  6  1  0  0  0  0
  2  8  1  0  0  0  0
  2  1  1  0  0  0  0
  3  9  1  0  0  0  0
  3  2  1  0  0  0  0
  3  4  1  0  0  0  0
  4  5  1  0  0  0  0
  5  6  1  0  0  0  0
  5 14  1  0  0  0  0
  5 13  1  0  0  0  0
  6 15  1  1  0  0  0
  6 25  1  0  0  0  0
  7  2  1  0  0  0  0
 10  3  1  0  0  0  0
 11  4  1  0  0  0  0
 12  4  1  0  0  0  0
 16 22  1  0  0  0  0
 17 23  1  0  0  0  0
 17 16  2  0  0  0  0
 18 17  1  0  0  0  0
 19 18  2  0  0  0  0
 19 20  1  0  0  0  0
 20 21  2  0  0  0  0
 21 16  1  0  0  0  0
 24 20  1  0  0  0  0
 26 25  1  1  0  0  0
 26 27  1  0  0  0  0
 27 28  1  0  0  0  0
 29 27  1  0  0  0  0
 29 30  1  0  0  0  0
 31 29  1  0  0  0  0
 32 26  1  0  0  0  0
 32 31  1  0  0  0  0
 33 32  1  0  0  0  0
M  END
>  <minimizedAffinity>
-4.94717264

$$$$

 OpenBabel03252502253D

 33 35  0  0  1  0  0  0  0  0999 V2000
   36.8060   28.3450   40.9630 N   0  0  0  0  0  0  0  0  0  0  0  0
   36.9840   27.0700   41.6370 C   0  0  0  0  0  0  0  0  0  0  0  0
   36.6480   27.3770   43.0970 C   0  0  0  0  0  0  0  0  0  0  0  0
   37.6550   28.3260   43.6790 C   0  0  0  0  0  0  0  0  0  0  0  0
   38.0620   29.4280   42.7710 C   0  0  0  0  0  0  0  0  0  0  0  0
   37.2340   29.5970   41.5250 C   0  0  1  0  0  0  0  0  0  0  0  0
   36.2170   26.3680   41.2770 H   0  0  0  0  0  0  0  0  0  0  0  0
   38.0100   26.6830   41.5250 H   0  0  0  0  0  0  0  0  0  0  0  0
   35.6650   27.9010   43.0810 H   0  0  0  0  0  0  0  0  0  0  0  0
   36.6130   26.4560   43.7040 H   0  0  0  0  0  0  0  0  0  0  0  0
   37.2660   28.6960   44.6500 H   0  0  0  0  0  0  0  0  0  0  0  0
   38.5780   27.7100   43.8860 H   0  0  0  0  0  0  0  0  0  0  0  0
   37.9810   30.3900   43.3410 H   0  0  0  0  0  0  0  0  0  0  0  0
   39.1290   29.3770   42.4700 H   0  0  0  0  0  0  0  0  0  0  0  0
   36.3250   30.1580   41.8250 H   0  0  0  0  0  0  0  0  0  0  0  0
   34.4040   28.9970   38.1750 C   0  0  0  0  0  0  0  0  0  0  0  0
   34.9260   28.9960   39.4840 C   0  0  0  0  0  0  0  0  0  0  0  0
   36.1810   28.4040   39.6790 C   0  0  0  0  0  0  0  0  0  0  0  0
   36.8090   27.8690   38.5840 N   0  0  0  0  0  0  0  0  0  0  0  0
   36.2650   27.8960   37.3470 C   0  0  0  0  0  0  0  0  0  0  0  0
   35.0490   28.4700   37.1530 N   0  0  0  0  0  0  0  0  0  0  0  0
   33.4250   29.4960   38.2050 H   0  0  0  0  0  0  0  0  0  0  0  0
   34.4810   29.3960   40.3690 H   0  0  0  0  0  0  0  0  0  0  0  0
   36.7690   27.4720   36.4940 H   0  0  0  0  0  0  0  0  0  0  0  0
   38.0140   30.2820   40.5910 O   0  0  0  0  0  0  0  0  0  0  0  0
   37.6400   31.5960   40.6040 C   0  0  2  0  0  3  0  0  0  0  0  0
   37.0960   32.1290   39.3040 C   0  0  0  0  0  3  0  0  0  0  0  0
   36.0510   31.8680   39.1420 H   0  0  0  0  0  0  0  0  0  0  0  0
   37.2750   33.6280   39.5680 C   0  0  0  0  0  3  0  0  0  0  0  0
   37.3590   34.1870   38.6160 H   0  0  0  0  0  0  0  0  0  0  0  0
   38.3440   33.7880   40.4040 O   0  0  0  0  0  0  0  0  0  0  0  0
   38.8450   32.5380   40.7300 C   0  0  0  0  0  3  0  0  0  0  0  0
   39.2050   32.5470   41.7590 H   0  0  0  0  0  0  0  0  0  0  0  0
  1  6  1  0  0  0  0
  1  2  1  0  0  0  0
  2  3  1  0  0  0  0
  3  4  1  0  0  0  0
  3 10  1  0  0  0  0
  4 12  1  0  0  0  0
  4 11  1  0  0  0  0
  5 13  1  0  0  0  0
  5  4  1  0  0  0  0
  6 15  1  1  0  0  0
  6  5  1  0  0  0  0
  7  2  1  0  0  0  0
  8  2  1  0  0  0  0
  9  3  1  0  0  0  0
 14  5  1  0  0  0  0
 16 22  1  0  0  0  0
 16 17  1  0  0  0  0
 17 18  2  0  0  0  0
 17 23  1  0  0  0  0
 18  1  1  0  0  0  0
 19 18  1  0  0  0  0
 20 19  2  0  0  0  0
 21 20  1  0  0  0  0
 21 16  2  0  0  0  0
 24 20  1  0  0  0  0
 25  6  1  0  0  0  0
 26 25  1  6  0  0  0
 26 32  1  0  0  0  0
 27 29  1  0  0  0  0
 27 26  1  0  0  0  0
 28 27  1  0  0  0  0
 29 31  1  0  0  0  0
 30 29  1  0  0  0  0
 31 32  1  0  0  0  0
 32 33  1  0  0  0  0
M  END
>  <minimizedAffinity>
-4.86128283

$$$$

 OpenBabel03252502253D

 33 35  0  0  1  0  0  0  0  0999 V2000
   38.2460   30.8100   41.2200 N   0  0  0  0  0  0  0  0  0  0  0  0
   39.4010   31.6580   40.9780 C   0  0  0  0  0  0  0  0  0  0  0  0
   38.8380   33.0780   41.0590 C   0  0  0  0  0  0  0  0  0  0  0  0
   37.8710   33.3230   39.9380 C   0  0  0  0  0  0  0  0  0  0  0  0
   36.9610   32.1860   39.6470 C   0  0  0  0  0  0  0  0  0  0  0  0
   36.9480   31.0740   40.6620 C   0  0  1  0  0  0  0  0  0  0  0  0
   40.1040   31.5490   41.8180 H   0  0  0  0  0  0  0  0  0  0  0  0
   39.8650   31.4560   39.9990 H   0  0  0  0  0  0  0  0  0  0  0  0
   38.2640   33.1240   42.0120 H   0  0  0  0  0  0  0  0  0  0  0  0
   39.6430   33.8320   41.0260 H   0  0  0  0  0  0  0  0  0  0  0  0
   37.3220   34.2640   40.1490 H   0  0  0  0  0  0  0  0  0  0  0  0
   38.5000   33.4860   39.0160 H   0  0  0  0  0  0  0  0  0  0  0  0
   35.9150   32.5870   39.6010 H   0  0  0  0  0  0  0  0  0  0  0  0
   37.1270   31.7360   38.6470 H   0  0  0  0  0  0  0  0  0  0  0  0
   36.2900   31.4110   41.4890 H   0  0  0  0  0  0  0  0  0  0  0  0
   39.5100   27.7170   42.8940 C   0  0  0  0  0  0  0  0  0  0  0  0
   39.5050   28.8380   42.0410 C   0  0  0  0  0  0  0  0  0  0  0  0
   38.3610   29.6490   42.0440 C   0  0  0  0  0  0  0  0  0  0  0  0
   37.3320   29.2920   42.8770 N   0  0  0  0  0  0  0  0  0  0  0  0
   37.3860   28.2050   43.6780 C   0  0  0  0  0  0  0  0  0  0  0  0
   38.4930   27.4160   43.6780 N   0  0  0  0  0  0  0  0  0  0  0  0
   40.4710   27.2010   42.7650 H   0  0  0  0  0  0  0  0  0  0  0  0
   40.2750   29.1600   41.3740 H   0  0  0  0  0  0  0  0  0  0  0  0
   36.5710   27.9350   44.3280 H   0  0  0  0  0  0  0  0  0  0  0  0
   36.4760   29.9260   40.0220 O   0  0  0  0  0  0  0  0  0  0  0  0
   36.8120   30.0040   38.7000 C   0  0  2  0  0  3  0  0  0  0  0  0
   35.7710   29.5000   37.7350 C   0  0  0  0  0  3  0  0  0  0  0  0
   34.9820   30.2260   37.5430 H   0  0  0  0  0  0  0  0  0  0  0  0
   36.6650   29.2910   36.5080 C   0  0  0  0  0  3  0  0  0  0  0  0
   36.2320   28.5310   35.8300 H   0  0  0  0  0  0  0  0  0  0  0  0
   37.9250   28.9930   36.9460 O   0  0  0  0  0  0  0  0  0  0  0  0
   37.9340   29.0260   38.3320 C   0  0  0  0  0  3  0  0  0  0  0  0
   38.8930   29.4080   38.6810 H   0  0  0  0  0  0  0  0  0  0  0  0
  1 18  1  0  0  0  0
  2  3  1  0  0  0  0
  2  1  1  0  0  0  0
  2  7  1  0  0  0  0
  3  9  1  0  0  0  0
  4 11  1  0  0  0  0
  4  3  1  0  0  0  0
  5  4  1  0  0  0  0
  5  6  1  0  0  0  0
  6  1  1  0  0  0  0
  6 15  1  1  0  0  0
  8  2  1  0  0  0  0
 10  3  1  0  0  0  0
 12  4  1  0  0  0  0
 13  5  1  0  0  0  0
 14  5  1  0  0  0  0
 16 21  1  0  0  0  0
 17 18  1  0  0  0  0
 17 16  2  0  0  0  0
 18 19  2  0  0  0  0
 19 20  1  0  0  0  0
 20 21  2  0  0  0  0
 20 24  1  0  0  0  0
 22 16  1  0  0  0  0
 23 17  1  0  0  0  0
 25  6  1  0  0  0  0
 26 25  1  1  0  0  0
 27 26  1  0  0  0  0
 28 27  1  0  0  0  0
 29 31  1  0  0  0  0
 29 27  1  0  0  0  0
 30 29  1  0  0  0  0
 31 32  1  0  0  0  0
 32 33  1  0  0  0  0
 32 26  1  0  0  0  0
M  END
>  <minimizedAffinity>
-4.55756617

$$$$

 OpenBabel03252502253D

 33 35  0  0  1  0  0  0  0  0999 V2000
   38.3250   30.8140   40.9450 N   0  0  0  0  0  0  0  0  0  0  0  0
   39.3270   31.8650   40.8890 C   0  0  0  0  0  0  0  0  0  0  0  0
   38.5050   33.1540   40.8320 C   0  0  0  0  0  0  0  0  0  0  0  0
   37.7260   33.2220   39.5510 C   0  0  0  0  0  0  0  0  0  0  0  0
   37.1090   31.9370   39.1340 C   0  0  0  0  0  0  0  0  0  0  0  0
   37.1210   30.8350   40.1590 C   0  0  1  0  0  0  0  0  0  0  0  0
   39.8770   31.8830   41.8420 H   0  0  0  0  0  0  0  0  0  0  0  0
   39.9870   31.7610   40.0120 H   0  0  0  0  0  0  0  0  0  0  0  0
   37.7720   33.0850   41.6660 H   0  0  0  0  0  0  0  0  0  0  0  0
   39.1500   34.0450   40.9210 H   0  0  0  0  0  0  0  0  0  0  0  0
   36.9830   34.0420   39.6370 H   0  0  0  0  0  0  0  0  0  0  0  0
   38.4680   33.5070   38.7500 H   0  0  0  0  0  0  0  0  0  0  0  0
   36.0320   32.1360   38.8930 H   0  0  0  0  0  0  0  0  0  0  0  0
   37.5310   31.5330   38.1910 H   0  0  0  0  0  0  0  0  0  0  0  0
   36.2750   31.0370   40.8480 H   0  0  0  0  0  0  0  0  0  0  0  0
   37.8240   28.1850   43.5540 C   0  0  0  0  0  0  0  0  0  0  0  0
   37.5430   29.3120   42.7560 C   0  0  0  0  0  0  0  0  0  0  0  0
   38.5040   29.6890   41.8070 C   0  0  0  0  0  0  0  0  0  0  0  0
   39.6450   28.9350   41.7250 N   0  0  0  0  0  0  0  0  0  0  0  0
   39.8680   27.8600   42.5150 C   0  0  0  0  0  0  0  0  0  0  0  0
   38.9390   27.4920   43.4350 N   0  0  0  0  0  0  0  0  0  0  0  0
   36.9740   28.0350   44.2330 H   0  0  0  0  0  0  0  0  0  0  0  0
   36.6740   29.9330   42.7780 H   0  0  0  0  0  0  0  0  0  0  0  0
   40.7690   27.2760   42.4400 H   0  0  0  0  0  0  0  0  0  0  0  0
   36.9920   29.6240   39.4770 O   0  0  0  0  0  0  0  0  0  0  0  0
   35.8490   29.6740   38.7300 C   0  0  2  0  0  3  0  0  0  0  0  0
   34.6440   29.0060   39.3400 C   0  0  0  0  0  3  0  0  0  0  0  0
   34.1450   29.6260   40.0840 H   0  0  0  0  0  0  0  0  0  0  0  0
   33.7970   28.8410   38.0740 C   0  0  0  0  0  3  0  0  0  0  0  0
   33.0820   28.0030   38.1860 H   0  0  0  0  0  0  0  0  0  0  0  0
   34.6430   28.7120   37.0090 O   0  0  0  0  0  0  0  0  0  0  0  0
   35.9490   28.8140   37.4640 C   0  0  0  0  0  3  0  0  0  0  0  0
   36.5560   29.3210   36.7150 H   0  0  0  0  0  0  0  0  0  0  0  0
  1 18  1  0  0  0  0
  2  1  1  0  0  0  0
  2  7  1  0  0  0  0
  3  2  1  0  0  0  0
  3 10  1  0  0  0  0
  3  9  1  0  0  0  0
  4 11  1  0  0  0  0
  4  3  1  0  0  0  0
  5  4  1  0  0  0  0
  5  6  1  0  0  0  0
  6 15  1  1  0  0  0
  6  1  1  0  0  0  0
  8  2  1  0  0  0  0
 12  4  1  0  0  0  0
 13  5  1  0  0  0  0
 14  5  1  0  0  0  0
 16 22  1  0  0  0  0
 17 23  1  0  0  0  0
 17 16  2  0  0  0  0
 18 17  1  0  0  0  0
 19 18  2  0  0  0  0
 19 20  1  0  0  0  0
 20 21  2  0  0  0  0
 21 16  1  0  0  0  0
 24 20  1  0  0  0  0
 25  6  1  0  0  0  0
 26 27  1  0  0  0  0
 26 25  1  1  0  0  0
 27 28  1  0  0  0  0
 29 30  1  0  0  0  0
 29 27  1  0  0  0  0
 31 32  1  0  0  0  0
 31 29  1  0  0  0  0
 32 26  1  0  0  0  0
 33 32  1  0  0  0  0
M  END
>  <minimizedAffinity>
-4.44781828

$$$$

 OpenBabel03252502253D

 33 35  0  0  1  0  0  0  0  0999 V2000
   38.1290   29.7100   41.6570 N   0  0  0  0  0  0  0  0  0  0  0  0
   38.6670   29.5930   43.0020 C   0  0  0  0  0  0  0  0  0  0  0  0
   38.7710   28.0830   43.2260 C   0  0  0  0  0  0  0  0  0  0  0  0
   37.4060   27.4600   43.2430 C   0  0  0  0  0  0  0  0  0  0  0  0
   36.4730   27.9890   42.2150 C   0  0  0  0  0  0  0  0  0  0  0  0
   37.0860   28.8600   41.1520 C   0  0  1  0  0  0  0  0  0  0  0  0
   39.6950   29.9850   43.0090 H   0  0  0  0  0  0  0  0  0  0  0  0
   38.0160   30.0740   43.7510 H   0  0  0  0  0  0  0  0  0  0  0  0
   39.3110   27.6800   42.3400 H   0  0  0  0  0  0  0  0  0  0  0  0
   39.2950   27.8530   44.1690 H   0  0  0  0  0  0  0  0  0  0  0  0
   37.5230   26.3590   43.1840 H   0  0  0  0  0  0  0  0  0  0  0  0
   36.9630   27.7100   44.2510 H   0  0  0  0  0  0  0  0  0  0  0  0
   36.0140   27.1140   41.6860 H   0  0  0  0  0  0  0  0  0  0  0  0
   35.6070   28.5320   42.6480 H   0  0  0  0  0  0  0  0  0  0  0  0
   37.5420   28.1750   40.4090 H   0  0  0  0  0  0  0  0  0  0  0  0
   39.8080   31.4320   38.7970 C   0  0  0  0  0  0  0  0  0  0  0  0
   39.3590   30.3720   39.6090 C   0  0  0  0  0  0  0  0  0  0  0  0
   38.6320   30.7030   40.7610 C   0  0  0  0  0  0  0  0  0  0  0  0
   38.4110   32.0320   41.0130 N   0  0  0  0  0  0  0  0  0  0  0  0
   38.8630   33.0130   40.2010 C   0  0  0  0  0  0  0  0  0  0  0  0
   39.5680   32.6970   39.0830 N   0  0  0  0  0  0  0  0  0  0  0  0
   40.3520   30.9970   37.9470 H   0  0  0  0  0  0  0  0  0  0  0  0
   39.5030   29.3240   39.4610 H   0  0  0  0  0  0  0  0  0  0  0  0
   38.6820   34.0540   40.4100 H   0  0  0  0  0  0  0  0  0  0  0  0
   36.0660   29.6480   40.6140 O   0  0  0  0  0  0  0  0  0  0  0  0
   35.5950   29.0280   39.4910 C   0  0  2  0  0  3  0  0  0  0  0  0
   35.9400   29.6990   38.1870 C   0  0  0  0  0  3  0  0  0  0  0  0
   36.9490   29.4750   37.8460 H   0  0  0  0  0  0  0  0  0  0  0  0
   34.8790   29.0450   37.2950 C   0  0  0  0  0  3  0  0  0  0  0  0
   34.6490   29.6860   36.4230 H   0  0  0  0  0  0  0  0  0  0  0  0
   33.7930   28.7510   38.0710 O   0  0  0  0  0  0  0  0  0  0  0  0
   34.0680   29.1190   39.3790 C   0  0  0  0  0  3  0  0  0  0  0  0
   33.6010   28.4110   40.0620 H   0  0  0  0  0  0  0  0  0  0  0  0
  1  2  1  0  0  0  0
  2  7  1  0  0  0  0
  2  3  1  0  0  0  0
  2  8  1  0  0  0  0
  3  4  1  0  0  0  0
  3 10  1  0  0  0  0
  4 12  1  0  0  0  0
  5 14  1  0  0  0  0
  5  4  1  0  0  0  0
  6 15  1  6  0  0  0
  6  1  1  0  0  0  0
  6  5  1  0  0  0  0
  9  3  1  0  0  0  0
 11  4  1  0  0  0  0
 13  5  1  0  0  0  0
 16 21  2  0  0  0  0
 16 17  1  0  0  0  0
 17 18  2  0  0  0  0
 18 19  1  0  0  0  0
 18  1  1  0  0  0  0
 20 24  1  0  0  0  0
 20 19  2  0  0  0  0
 21 20  1  0  0  0  0
 22 16  1  0  0  0  0
 23 17  1  0  0  0  0
 25  6  1  0  0  0  0
 26 25  1  1  0  0  0
 27 26  1  0  0  0  0
 28 27  1  0  0  0  0
 29 31  1  0  0  0  0
 29 27  1  0  0  0  0
 30 29  1  0  0  0  0
 31 32  1  0  0  0  0
 32 26  1  0  0  0  0
 32 33  1  0  0  0  0
M  END
>  <minimizedAffinity>
-4.38153076

$$$$

 OpenBabel03252502253D

 33 35  0  0  1  0  0  0  0  0999 V2000
   38.9850   28.7420   42.0490 N   0  0  0  0  0  0  0  0  0  0  0  0
   39.9380   29.5410   42.8020 C   0  0  0  0  0  0  0  0  0  0  0  0
   41.2070   28.6870   42.8110 C   0  0  0  0  0  0  0  0  0  0  0  0
   40.9830   27.4230   43.5880 C   0  0  0  0  0  0  0  0  0  0  0  0
   39.6650   26.7790   43.3540 C   0  0  0  0  0  0  0  0  0  0  0  0
   38.8620   27.3180   42.2000 C   0  0  1  0  0  0  0  0  0  0  0  0
   40.1730   30.4490   42.2270 H   0  0  0  0  0  0  0  0  0  0  0  0
   39.5820   29.7560   43.8230 H   0  0  0  0  0  0  0  0  0  0  0  0
   41.3890   28.4000   41.7510 H   0  0  0  0  0  0  0  0  0  0  0  0
   42.0600   29.2400   43.2410 H   0  0  0  0  0  0  0  0  0  0  0  0
   41.8320   26.7360   43.3910 H   0  0  0  0  0  0  0  0  0  0  0  0
   41.0180   27.7170   44.6770 H   0  0  0  0  0  0  0  0  0  0  0  0
   39.8470   25.6940   43.1370 H   0  0  0  0  0  0  0  0  0  0  0  0
   39.0140   26.7740   44.2520 H   0  0  0  0  0  0  0  0  0  0  0  0
   39.2740   26.8480   41.2840 H   0  0  0  0  0  0  0  0  0  0  0  0
   37.3420   29.8480   38.8800 C   0  0  0  0  0  0  0  0  0  0  0  0
   38.2630   29.1910   39.7200 C   0  0  0  0  0  0  0  0  0  0  0  0
   38.1110   29.3610   41.1040 C   0  0  0  0  0  0  0  0  0  0  0  0
   37.0800   30.1530   41.5370 N   0  0  0  0  0  0  0  0  0  0  0  0
   36.2220   30.7630   40.6890 C   0  0  0  0  0  0  0  0  0  0  0  0
   36.3650   30.6010   39.3470 N   0  0  0  0  0  0  0  0  0  0  0  0
   37.6060   29.6070   37.8410 H   0  0  0  0  0  0  0  0  0  0  0  0
   39.0810   28.5650   39.4370 H   0  0  0  0  0  0  0  0  0  0  0  0
   35.4160   31.3830   41.0420 H   0  0  0  0  0  0  0  0  0  0  0  0
   37.5250   26.9900   42.4290 O   0  0  0  0  0  0  0  0  0  0  0  0
   37.1680   26.0110   41.5450 C   0  0  2  0  0  3  0  0  0  0  0  0
   36.9150   24.6530   42.1480 C   0  0  0  0  0  3  0  0  0  0  0  0
   35.9260   24.5640   42.5940 H   0  0  0  0  0  0  0  0  0  0  0  0
   37.0480   23.8010   40.8810 C   0  0  0  0  0  3  0  0  0  0  0  0
   37.3360   22.7630   41.1340 H   0  0  0  0  0  0  0  0  0  0  0  0
   37.9180   24.4300   40.0350 O   0  0  0  0  0  0  0  0  0  0  0  0
   38.3270   25.6180   40.6200 C   0  0  0  0  0  3  0  0  0  0  0  0
   38.4620   26.3770   39.8490 H   0  0  0  0  0  0  0  0  0  0  0  0
  1  6  1  0  0  0  0
  1  2  1  0  0  0  0
  2  3  1  0  0  0  0
  2  8  1  0  0  0  0
  3 10  1  0  0  0  0
  3  4  1  0  0  0  0
  4 12  1  0  0  0  0
  5  4  1  0  0  0  0
  5 14  1  0  0  0  0
  6 15  1  6  0  0  0
  6 25  1  0  0  0  0
  6  5  1  0  0  0  0
  7  2  1  0  0  0  0
  9  3  1  0  0  0  0
 11  4  1  0  0  0  0
 13  5  1  0  0  0  0
 16 21  2  0  0  0  0
 16 17  1  0  0  0  0
 17 18  2  0  0  0  0
 18 19  1  0  0  0  0
 18  1  1  0  0  0  0
 20 24  1  0  0  0  0
 20 19  2  0  0  0  0
 21 20  1  0  0  0  0
 22 16  1  0  0  0  0
 23 17  1  0  0  0  0
 26 27  1  0  0  0  0
 26 25  1  1  0  0  0
 27 28  1  0  0  0  0
 29 30  1  0  0  0  0
 29 27  1  0  0  0  0
 31 32  1  0  0  0  0
 31 29  1  0  0  0  0
 32 26  1  0  0  0  0
 33 32  1  0  0  0  0
M  END
>  <minimizedAffinity>
-4.27307653

$$$$

 OpenBabel03252502253D

 33 35  0  0  1  0  0  0  0  0999 V2000
   36.9850   28.9290   40.1580 N   0  0  0  0  0  0  0  0  0  0  0  0
   35.7210   28.3560   39.7260 C   0  0  0  0  0  0  0  0  0  0  0  0
   35.8480   28.2920   38.2030 C   0  0  0  0  0  0  0  0  0  0  0  0
   35.9230   29.6750   37.6250 C   0  0  0  0  0  0  0  0  0  0  0  0
   36.7710   30.6210   38.3940 C   0  0  0  0  0  0  0  0  0  0  0  0
   37.6310   30.0120   39.4690 C   0  0  1  0  0  0  0  0  0  0  0  0
   35.6620   27.3160   40.0820 H   0  0  0  0  0  0  0  0  0  0  0  0
   34.8600   28.9690   40.0410 H   0  0  0  0  0  0  0  0  0  0  0  0
   36.8210   27.7900   37.9990 H   0  0  0  0  0  0  0  0  0  0  0  0
   35.0000   27.7470   37.7530 H   0  0  0  0  0  0  0  0  0  0  0  0
   36.2340   29.5930   36.5630 H   0  0  0  0  0  0  0  0  0  0  0  0
   34.8700   30.0800   37.6500 H   0  0  0  0  0  0  0  0  0  0  0  0
   37.4680   31.1210   37.6730 H   0  0  0  0  0  0  0  0  0  0  0  0
   36.1970   31.4560   38.8450 H   0  0  0  0  0  0  0  0  0  0  0  0
   38.5260   29.5990   38.9590 H   0  0  0  0  0  0  0  0  0  0  0  0
   39.4770   27.3500   42.4530 C   0  0  0  0  0  0  0  0  0  0  0  0
   38.9130   27.8140   41.2480 C   0  0  0  0  0  0  0  0  0  0  0  0
   37.6510   28.4220   41.3150 C   0  0  0  0  0  0  0  0  0  0  0  0
   37.0590   28.5190   42.5480 N   0  0  0  0  0  0  0  0  0  0  0  0
   37.6420   28.0570   43.6760 C   0  0  0  0  0  0  0  0  0  0  0  0
   38.8650   27.4680   43.6150 N   0  0  0  0  0  0  0  0  0  0  0  0
   40.4550   26.9080   42.2170 H   0  0  0  0  0  0  0  0  0  0  0  0
   39.3290   27.7640   40.2650 H   0  0  0  0  0  0  0  0  0  0  0  0
   37.1660   28.1400   44.6390 H   0  0  0  0  0  0  0  0  0  0  0  0
   37.9420   31.0220   40.3820 O   0  0  0  0  0  0  0  0  0  0  0  0
   38.5950   32.0180   39.7120 C   0  0  2  0  0  3  0  0  0  0  0  0
   40.0900   31.8580   39.6080 C   0  0  0  0  0  3  0  0  0  0  0  0
   40.3910   31.1740   38.8170 H   0  0  0  0  0  0  0  0  0  0  0  0
   40.4620   33.3090   39.2810 C   0  0  0  0  0  3  0  0  0  0  0  0
   41.5020   33.5260   39.5880 H   0  0  0  0  0  0  0  0  0  0  0  0
   39.5290   34.1270   39.8530 O   0  0  0  0  0  0  0  0  0  0  0  0
   38.5770   33.3430   40.4850 C   0  0  0  0  0  3  0  0  0  0  0  0
   37.5980   33.8140   40.3950 H   0  0  0  0  0  0  0  0  0  0  0  0
  1 18  1  0  0  0  0
  2  8  1  0  0  0  0
  2  7  1  0  0  0  0
  2  1  1  0  0  0  0
  3  2  1  0  0  0  0
  4 12  1  0  0  0  0
  4  3  1  0  0  0  0
  4  5  1  0  0  0  0
  5 14  1  0  0  0  0
  5  6  1  0  0  0  0
  6 15  1  6  0  0  0
  6  1  1  0  0  0  0
  6 25  1  0  0  0  0
  9  3  1  0  0  0  0
 10  3  1  0  0  0  0
 11  4  1  0  0  0  0
 13  5  1  0  0  0  0
 16 21  1  0  0  0  0
 17 18  1  0  0  0  0
 17 16  2  0  0  0  0
 18 19  2  0  0  0  0
 19 20  1  0  0  0  0
 20 24  1  0  0  0  0
 21 20  2  0  0  0  0
 22 16  1  0  0  0  0
 23 17  1  0  0  0  0
 26 25  1  1  0  0  0
 26 32  1  0  0  0  0
 27 26  1  0  0  0  0
 28 27  1  0  0  0  0
 29 30  1  0  0  0  0
 29 27  1  0  0  0  0
 29 31  1  0  0  0  0
 31 32  1  0  0  0  0
 33 32  1  0  0  0  0
M  END
>  <minimizedAffinity>
-4.24009371

$$$$

 OpenBabel03252502253D

 33 35  0  0  1  0  0  0  0  0999 V2000
   36.3600   28.7430   40.0120 N   0  0  0  0  0  0  0  0  0  0  0  0
   35.0820   29.4360   39.9790 C   0  0  0  0  0  0  0  0  0  0  0  0
   34.3910   28.8730   38.7360 C   0  0  0  0  0  0  0  0  0  0  0  0
   35.1380   29.2720   37.4960 C   0  0  0  0  0  0  0  0  0  0  0  0
   36.6160   29.1950   37.6140 C   0  0  0  0  0  0  0  0  0  0  0  0
   37.1460   28.4920   38.8350 C   0  0  1  0  0  0  0  0  0  0  0  0
   34.4830   29.1160   40.8460 H   0  0  0  0  0  0  0  0  0  0  0  0
   35.2060   30.5290   39.9210 H   0  0  0  0  0  0  0  0  0  0  0  0
   34.4570   27.7650   38.8250 H   0  0  0  0  0  0  0  0  0  0  0  0
   33.3460   29.2200   38.6670 H   0  0  0  0  0  0  0  0  0  0  0  0
   34.7470   28.6750   36.6460 H   0  0  0  0  0  0  0  0  0  0  0  0
   34.8770   30.3540   37.3110 H   0  0  0  0  0  0  0  0  0  0  0  0
   37.0020   28.6280   36.7270 H   0  0  0  0  0  0  0  0  0  0  0  0
   37.1130   30.1840   37.5450 H   0  0  0  0  0  0  0  0  0  0  0  0
   37.0900   27.4050   38.6210 H   0  0  0  0  0  0  0  0  0  0  0  0
   37.6090   26.5590   42.7750 C   0  0  0  0  0  0  0  0  0  0  0  0
   37.0710   26.9090   41.5210 C   0  0  0  0  0  0  0  0  0  0  0  0
   36.8970   28.2730   41.2500 C   0  0  0  0  0  0  0  0  0  0  0  0
   37.2620   29.1660   42.2230 N   0  0  0  0  0  0  0  0  0  0  0  0
   37.7750   28.7790   43.4130 C   0  0  0  0  0  0  0  0  0  0  0  0
   37.9460   27.4570   43.6790 N   0  0  0  0  0  0  0  0  0  0  0  0
   37.6760   25.4630   42.8170 H   0  0  0  0  0  0  0  0  0  0  0  0
   36.7700   26.2570   40.7290 H   0  0  0  0  0  0  0  0  0  0  0  0
   38.0590   29.4910   44.1700 H   0  0  0  0  0  0  0  0  0  0  0  0
   38.4510   28.9400   39.0460 O   0  0  0  0  0  0  0  0  0  0  0  0
   38.5730   30.1810   38.4870 C   0  0  2  0  0  3  0  0  0  0  0  0
   39.8440   30.4230   37.7150 C   0  0  0  0  0  3  0  0  0  0  0  0
   39.8150   30.0100   36.7070 H   0  0  0  0  0  0  0  0  0  0  0  0
   39.8260   31.9560   37.7020 C   0  0  0  0  0  3  0  0  0  0  0  0
   40.8500   32.3600   37.5860 H   0  0  0  0  0  0  0  0  0  0  0  0
   39.1840   32.3830   38.8310 O   0  0  0  0  0  0  0  0  0  0  0  0
   38.7570   31.2750   39.5460 C   0  0  0  0  0  3  0  0  0  0  0  0
   37.8030   31.4950   40.0250 H   0  0  0  0  0  0  0  0  0  0  0  0
  1 18  1  0  0  0  0
  2  1  1  0  0  0  0
  2  7  1  0  0  0  0
  3  9  1  0  0  0  0
  3  2  1  0  0  0  0
  4  5  1  0  0  0  0
  4  3  1  0  0  0  0
  5  6  1  0  0  0  0
  6 15  1  6  0  0  0
  6 25  1  0  0  0  0
  6  1  1  0  0  0  0
  8  2  1  0  0  0  0
 10  3  1  0  0  0  0
 11  4  1  0  0  0  0
 12  4  1  0  0  0  0
 13  5  1  0  0  0  0
 14  5  1  0  0  0  0
 16 22  1  0  0  0  0
 16 21  1  0  0  0  0
 17 16  2  0  0  0  0
 18 17  1  0  0  0  0
 18 19  2  0  0  0  0
 19 20  1  0  0  0  0
 20 21  2  0  0  0  0
 20 24  1  0  0  0  0
 23 17  1  0  0  0  0
 26 25  1  1  0  0  0
 26 32  1  0  0  0  0
 27 26  1  0  0  0  0
 28 27  1  0  0  0  0
 29 27  1  0  0  0  0
 29 31  1  0  0  0  0
 30 29  1  0  0  0  0
 31 32  1  0  0  0  0
 32 33  1  0  0  0  0
M  END
>  <minimizedAffinity>
-4.23950815

$$$$

 OpenBabel03252502253D

 33 35  0  0  1  0  0  0  0  0999 V2000
   37.7170   30.2790   41.2330 N   0  0  0  0  0  0  0  0  0  0  0  0
   36.4920   30.9720   40.8680 C   0  0  0  0  0  0  0  0  0  0  0  0
   36.9020   31.8410   39.6790 C   0  0  0  0  0  0  0  0  0  0  0  0
   37.8870   32.8890   40.1100 C   0  0  0  0  0  0  0  0  0  0  0  0
   38.9220   32.4090   41.0610 C   0  0  0  0  0  0  0  0  0  0  0  0
   39.0040   30.9180   41.2520 C   0  0  1  0  0  0  0  0  0  0  0  0
   35.7680   30.2360   40.4870 H   0  0  0  0  0  0  0  0  0  0  0  0
   36.0960   31.5760   41.7010 H   0  0  0  0  0  0  0  0  0  0  0  0
   37.4260   31.1610   38.9700 H   0  0  0  0  0  0  0  0  0  0  0  0
   36.0260   32.3250   39.2150 H   0  0  0  0  0  0  0  0  0  0  0  0
   38.3270   33.3500   39.2010 H   0  0  0  0  0  0  0  0  0  0  0  0
   37.2860   33.6790   40.6460 H   0  0  0  0  0  0  0  0  0  0  0  0
   39.9220   32.7370   40.6750 H   0  0  0  0  0  0  0  0  0  0  0  0
   38.8470   32.8800   42.0630 H   0  0  0  0  0  0  0  0  0  0  0  0
   39.5870   30.5240   40.3940 H   0  0  0  0  0  0  0  0  0  0  0  0
   37.0150   27.0500   42.9780 C   0  0  0  0  0  0  0  0  0  0  0  0
   36.9760   28.4330   42.7130 C   0  0  0  0  0  0  0  0  0  0  0  0
   37.6860   28.8980   41.5960 C   0  0  0  0  0  0  0  0  0  0  0  0
   38.3650   27.9740   40.8460 N   0  0  0  0  0  0  0  0  0  0  0  0
   38.3710   26.6550   41.1420 C   0  0  0  0  0  0  0  0  0  0  0  0
   37.6840   26.2000   42.2240 N   0  0  0  0  0  0  0  0  0  0  0  0
   36.4120   26.8640   43.8780 H   0  0  0  0  0  0  0  0  0  0  0  0
   36.4660   29.1940   43.2630 H   0  0  0  0  0  0  0  0  0  0  0  0
   38.9080   25.9390   40.5440 H   0  0  0  0  0  0  0  0  0  0  0  0
   39.6200   30.6850   42.4830 O   0  0  0  0  0  0  0  0  0  0  0  0
   40.9170   30.3250   42.2510 C   0  0  2  0  0  3  0  0  0  0  0  0
   41.3190   28.9710   42.7740 C   0  0  0  0  0  3  0  0  0  0  0  0
   41.0120   28.1540   42.1230 H   0  0  0  0  0  0  0  0  0  0  0  0
   42.8400   29.1570   42.7750 C   0  0  0  0  0  3  0  0  0  0  0  0
   43.3180   28.4850   43.5130 H   0  0  0  0  0  0  0  0  0  0  0  0
   43.1060   30.4830   42.9750 O   0  0  0  0  0  0  0  0  0  0  0  0
   41.9050   31.1690   43.0670 C   0  0  0  0  0  3  0  0  0  0  0  0
   42.0140   32.1550   42.6170 H   0  0  0  0  0  0  0  0  0  0  0  0
  1  6  1  0  0  0  0
  1 18  1  0  0  0  0
  2  1  1  0  0  0  0
  2  8  1  0  0  0  0
  3  4  1  0  0  0  0
  3  2  1  0  0  0  0
  4 12  1  0  0  0  0
  4  5  1  0  0  0  0
  5  6  1  0  0  0  0
  5 14  1  0  0  0  0
  6 15  1  6  0  0  0
  6 25  1  0  0  0  0
  7  2  1  0  0  0  0
  9  3  1  0  0  0  0
 10  3  1  0  0  0  0
 11  4  1  0  0  0  0
 13  5  1  0  0  0  0
 16 22  1  0  0  0  0
 17 16  1  0  0  0  0
 17 23  1  0  0  0  0
 18 17  2  0  0  0  0
 19 20  2  0  0  0  0
 19 18  1  0  0  0  0
 20 21  1  0  0  0  0
 21 16  2  0  0  0  0
 24 20  1  0  0  0  0
 26 25  1  1  0  0  0
 26 27  1  0  0  0  0
 26 32  1  0  0  0  0
 27 29  1  0  0  0  0
 28 27  1  0  0  0  0
 29 31  1  0  0  0  0
 29 30  1  0  0  0  0
 31 32  1  0  0  0  0
 33 32  1  0  0  0  0
M  END
>  <minimizedAffinity>
-4.21984148

$$$$
