REMARK  Name = 
REMARK  9 active torsions:
REMARK  status: ('A' for Active; 'I' for Inactive)
REMARK    1  A    between atoms: N_1  and  C_7
REMARK    2  A    between atoms: C_6  and  O_15
REMARK    3  A    between atoms: C_7  and  C_8
REMARK    4  A    between atoms: C_8  and  C_11
REMARK    5  A    between atoms: O_15  and  P_17
REMARK    6  A    between atoms: P_17  and  O_18
REMARK    7  A    between atoms: P_17  and  O_19
REMARK    8  A    between atoms: O_19  and  C_20
REMARK    9  A    between atoms: C_20  and  C_40
REMARK                            x       y       z     vdW  Elec       q    Type
REMARK                         _______ _______ _______ _____ _____    ______ ____
ROOT
ATOM      1  N   UNL     1      47.168  34.168  43.084  0.00  0.00    +0.000 NA
ATOM      2  C   UNL     1      46.661  35.359  42.521  0.00  0.00    +0.000 C 
ATOM      3  C   UNL     1      45.172  35.576  42.725  0.00  0.00    +0.000 C 
ATOM      4  C   UNL     1      44.637  35.045  44.030  0.00  0.00    +0.000 C 
ATOM      5  C   UNL     1      45.748  34.481  44.897  0.00  0.00    +0.000 C 
ATOM      6  C   UNL     1      46.428  33.405  43.962  0.00  0.00    +0.000 C 
ATOM      7  H   UNL     1      47.160  36.216  43.041  0.00  0.00    +0.000 HD
ATOM      8  H   UNL     1      46.850  35.522  41.452  0.00  0.00    +0.000 HD
ATOM      9  H   UNL     1      44.979  36.650  42.588  0.00  0.00    +0.000 HD
ATOM     10  H   UNL     1      44.653  35.041  41.896  0.00  0.00    +0.000 HD
ATOM     11  H   UNL     1      44.084  35.852  44.549  0.00  0.00    +0.000 HD
ATOM     12  H   UNL     1      43.902  34.223  43.889  0.00  0.00    +0.000 HD
ATOM     13  H   UNL     1      45.303  33.923  45.728  0.00  0.00    +0.000 HD
ATOM     14  H   UNL     1      46.497  35.232  45.163  0.00  0.00    +0.000 HD
ATOM     15  H   UNL     1      45.581  32.819  43.552  0.00  0.00    +0.000 HD
ENDROOT
BRANCH   1  16
ATOM     16  C   UNL     1      48.150  33.509  42.265  0.00  0.00    +0.000 C 
ATOM     17  H   UNL     1      48.790  32.870  42.922  0.00  0.00    +0.000 HD
ATOM     18  H   UNL     1      48.792  34.287  41.789  0.00  0.00    +0.000 HD
BRANCH  16  19
ATOM     19  C   UNL     1      47.454  32.647  41.260  0.00  0.00    +0.000 C 
ATOM     20  H   UNL     1      47.565  31.591  41.494  0.00  0.00    +0.000 HD
ATOM     21  H   UNL     1      46.370  32.871  41.232  0.00  0.00    +0.000 HD
BRANCH  19  24
ATOM     22  C   UNL     1      49.350  32.273  38.029  0.00  0.00    +0.000 A 
ATOM     23  C   UNL     1      48.819  32.022  39.315  0.00  0.00    +0.000 A 
ATOM     24  C   UNL     1      47.999  32.936  39.906  0.00  0.00    +0.000 A 
ATOM     25  N   UNL     1      47.729  34.058  39.224  0.00  0.00    +0.000 NA
ATOM     26  C   UNL     1      48.222  34.309  38.011  0.00  0.00    +0.000 A 
ATOM     27  N   UNL     1      49.032  33.430  37.401  0.00  0.00    +0.000 NA
ATOM     28  H   UNL     1      49.998  31.561  37.550  0.00  0.00    +0.000 HD
ATOM     29  H   UNL     1      49.064  31.095  39.836  0.00  0.00    +0.000 HD
ATOM     30  H   UNL     1      47.942  35.244  37.546  0.00  0.00    +0.000 HD
ENDBRANCH  19  24
ENDBRANCH  16  19
ENDBRANCH   1  16
BRANCH   6  31
ATOM     31  O   UNL     1      47.209  32.720  44.865  0.00  0.00    +0.000 OA
BRANCH  31  33
ATOM     32  O   UNL     1      46.034  30.539  43.880  0.00  0.00    +0.000 OA
ATOM     33  P   UNL     1      46.693  31.152  45.133  0.00  0.00    +0.000 P 
BRANCH  33  34
ATOM     34  O   UNL     1      45.402  31.262  46.261  0.00  0.00    +0.000 OA
ATOM     35  H   UNL     1      45.771  31.424  47.169  0.00  0.00    +0.000 HD
ENDBRANCH  33  34
BRANCH  33  36
ATOM     36  O   UNL     1      47.834  30.144  45.782  0.00  0.00    +0.000 OA
BRANCH  36  37
ATOM     37  C   UNL     1      47.762  28.892  45.206  0.00  0.00    +0.000 C 
ATOM     38  H   UNL     1      46.770  28.399  45.343  0.00  0.00    +0.000 HD
ATOM     39  H   UNL     1      47.925  28.987  44.115  0.00  0.00    +0.000 HD
BRANCH  37  40
ATOM     40  C   UNL     1      48.782  27.928  45.759  0.00  0.00    +0.000 C 
ATOM     41  C   UNL     1      48.928  26.704  44.880  0.00  0.00    +0.000 C 
ATOM     42  H   UNL     1      49.291  25.829  45.451  0.00  0.00    +0.000 HD
ATOM     43  C   UNL     1      50.033  27.135  43.919  0.00  0.00    +0.000 C 
ATOM     44  H   UNL     1      49.742  26.934  42.857  0.00  0.00    +0.000 HD
ATOM     45  O   UNL     1      50.226  28.497  44.145  0.00  0.00    +0.000 OA
ATOM     46  C   UNL     1      50.160  28.566  45.538  0.00  0.00    +0.000 C 
ATOM     47  H   UNL     1      50.962  27.869  45.905  0.00  0.00    +0.000 HD
ENDBRANCH  37  40
ENDBRANCH  36  37
ENDBRANCH  33  36
ENDBRANCH  31  33
ENDBRANCH   6  31
TORSDOF 9
