REMARK  Name = 
REMARK  7 active torsions:
REMARK  status: ('A' for Active; 'I' for Inactive)
REMARK    1  A    between atoms: C_2  and  O_17
REMARK    2  A    between atoms: C_3  and  C_7
REMARK    3  A    between atoms: O_17  and  P_19
REMARK    4  A    between atoms: P_19  and  O_20
REMARK    5  A    between atoms: P_19  and  O_21
REMARK    6  A    between atoms: O_20  and  C_36
REMARK    7  A    between atoms: O_21  and  C_22
REMARK                            x       y       z     vdW  Elec       q    Type
REMARK                         _______ _______ _______ _____ _____    ______ ____
ROOT
ATOM      1  C   UNL     1      45.132  36.017  42.917  0.00  0.00    +0.000 A 
ATOM      2  C   UNL     1      45.372  34.651  42.910  0.00  0.00    +0.000 A 
ATOM      3  C   UNL     1      45.214  33.920  44.061  0.00  0.00    +0.000 A 
ATOM      4  N   UNL     1      44.811  34.609  45.188  0.00  0.00    +0.000 NA
ATOM      5  C   UNL     1      44.582  35.920  45.189  0.00  0.00    +0.000 A 
ATOM      6  N   UNL     1      44.747  36.612  44.042  0.00  0.00    +0.000 NA
ATOM      7  H   UNL     1      45.257  36.592  42.011  0.00  0.00    +0.000 HD
ATOM      8  H   UNL     1      44.268  36.409  46.101  0.00  0.00    +0.000 HD
ENDROOT
BRANCH   3   9
ATOM      9  C   UNL     1      45.418  32.530  44.220  0.00  0.00    +0.000 A 
ATOM     10  C   UNL     1      44.940  31.563  43.331  0.00  0.00    +0.000 A 
ATOM     11  C   UNL     1      45.078  30.211  43.516  0.00  0.00    +0.000 A 
ATOM     12  C   UNL     1      45.723  29.739  44.636  0.00  0.00    +0.000 A 
ATOM     13  C   UNL     1      46.223  30.708  45.559  0.00  0.00    +0.000 A 
ATOM     14  C   UNL     1      46.864  30.250  46.673  0.00  0.00    +0.000 A 
ATOM     15  C   UNL     1      47.372  31.134  47.602  0.00  0.00    +0.000 A 
ATOM     16  C   UNL     1      47.225  32.516  47.390  0.00  0.00    +0.000 A 
ATOM     17  C   UNL     1      46.556  32.935  46.227  0.00  0.00    +0.000 A 
ATOM     18  C   UNL     1      46.059  32.034  45.325  0.00  0.00    +0.000 A 
ATOM     19  H   UNL     1      44.427  31.916  42.441  0.00  0.00    +0.000 HD
ATOM     20  H   UNL     1      44.670  29.533  42.764  0.00  0.00    +0.000 HD
ATOM     21  H   UNL     1      45.850  28.681  44.816  0.00  0.00    +0.000 HD
ATOM     22  H   UNL     1      46.987  29.172  46.851  0.00  0.00    +0.000 HD
ATOM     23  H   UNL     1      47.869  30.715  48.466  0.00  0.00    +0.000 HD
ATOM     24  H   UNL     1      47.652  33.113  48.163  0.00  0.00    +0.000 HD
ATOM     25  H   UNL     1      46.566  34.004  46.236  0.00  0.00    +0.000 HD
ENDBRANCH   3   9
BRANCH   2  26
ATOM     26  O   UNL     1      45.761  34.091  41.724  0.00  0.00    +0.000 OA
BRANCH  26  28
ATOM     27  O   UNL     1      47.683  32.429  41.090  0.00  0.00    +0.000 OA
ATOM     28  P   UNL     1      47.370  33.874  41.244  0.00  0.00    +0.000 P 
BRANCH  28  29
ATOM     29  O   UNL     1      47.653  34.602  39.740  0.00  0.00    +0.000 OA
BRANCH  29  30
ATOM     30  C   UNL     1      46.668  34.057  38.891  0.00  0.00    +0.000 C 
ATOM     31  C   UNL     1      45.294  34.177  39.528  0.00  0.00    +0.000 C 
ATOM     32  H   UNL     1      45.344  34.380  40.625  0.00  0.00    +0.000 HD
ATOM     33  C   UNL     1      44.733  32.783  39.278  0.00  0.00    +0.000 C 
ATOM     34  H   UNL     1      44.317  32.814  38.253  0.00  0.00    +0.000 HD
ATOM     35  O   UNL     1      45.860  31.987  39.407  0.00  0.00    +0.000 OA
ATOM     36  C   UNL     1      46.836  32.600  38.632  0.00  0.00    +0.000 C 
ATOM     37  H   UNL     1      46.531  32.415  37.561  0.00  0.00    +0.000 HD
ENDBRANCH  29  30
ENDBRANCH  28  29
BRANCH  28  38
ATOM     38  O   UNL     1      48.362  34.596  42.389  0.00  0.00    +0.000 OA
BRANCH  38  39
ATOM     39  C   UNL     1      49.535  35.294  42.149  0.00  0.00    +0.000 C 
ATOM     40  O   UNL     1      49.204  36.213  41.377  0.00  0.00    +0.000 OA
ATOM     41  N   UNL     1      50.639  34.702  42.861  0.00  0.00    +0.000 N 
ATOM     42  H   UNL     1      50.613  34.770  43.919  0.00  0.00    +0.000 HD
ATOM     43  H   UNL     1      51.484  34.201  42.470  0.00  0.00    +0.000 HD
ENDBRANCH  38  39
ENDBRANCH  28  38
ENDBRANCH  26  28
ENDBRANCH   2  26
TORSDOF 7
