
 OpenBabel03242510303D

 33 35  0  0  1  0  0  0  0  0999 V2000
   36.9500   27.7860   39.7110 C   0  0  1  0  0  0  0  0  0  0  0  0
   36.2080   26.5390   39.3450 C   0  0  0  0  0  0  0  0  0  0  0  0
   35.9010   26.6830   37.8620 C   0  0  0  0  0  0  0  0  0  0  0  0
   34.8580   27.7680   37.7370 C   0  0  0  0  0  0  0  0  0  0  0  0
   35.2020   29.0470   38.4120 C   0  0  0  0  0  0  0  0  0  0  0  0
   36.0120   28.9770   39.6420 C   0  0  2  0  0  0  0  0  0  0  0  0
   37.7400   27.9680   38.9910 H   0  0  0  0  0  0  0  0  0  0  0  0
   35.2060   26.4910   39.8400 H   0  0  0  0  0  0  0  0  0  0  0  0
   36.7790   25.6270   39.5820 H   0  0  0  0  0  0  0  0  0  0  0  0
   35.4130   25.7430   37.5380 H   0  0  0  0  0  0  0  0  0  0  0  0
   36.8130   26.9150   37.2860 H   0  0  0  0  0  0  0  0  0  0  0  0
   34.7110   27.9120   36.6460 H   0  0  0  0  0  0  0  0  0  0  0  0
   33.8900   27.3190   38.0960 H   0  0  0  0  0  0  0  0  0  0  0  0
   35.6580   29.7120   37.6220 H   0  0  0  0  0  0  0  0  0  0  0  0
   34.2410   29.5620   38.6480 H   0  0  0  0  0  0  0  0  0  0  0  0
   35.3610   28.9060   40.5400 H   0  0  0  0  0  0  0  0  0  0  0  0
   37.4040   27.5860   43.4760 C   0  0  0  0  0  0  0  0  0  0  0  0
   36.7340   27.6380   42.2570 C   0  0  0  0  0  0  0  0  0  0  0  0
   37.5120   27.7180   41.0870 C   0  0  0  0  0  0  0  0  0  0  0  0
   38.8690   27.7380   41.2450 N   0  0  0  0  0  0  0  0  0  0  0  0
   39.4820   27.6860   42.4300 C   0  0  0  0  0  0  0  0  0  0  0  0
   38.7630   27.6100   43.5530 N   0  0  0  0  0  0  0  0  0  0  0  0
   36.7350   27.5250   44.3210 H   0  0  0  0  0  0  0  0  0  0  0  0
   35.6800   27.6230   42.1260 H   0  0  0  0  0  0  0  0  0  0  0  0
   40.5580   27.7040   42.5290 H   0  0  0  0  0  0  0  0  0  0  0  0
   36.9100   30.1710   39.8590 C   0  0  1  0  0  3  0  0  0  0  0  0
   37.1980   30.9570   38.6210 C   0  0  0  0  0  3  0  0  0  0  0  0
   36.4810   30.7970   37.7920 H   0  0  0  0  0  0  0  0  0  0  0  0
   37.1080   32.3850   39.1600 C   0  0  0  0  0  3  0  0  0  0  0  0
   36.1250   32.8440   38.9420 H   0  0  0  0  0  0  0  0  0  0  0  0
   37.1850   32.2920   40.5490 O   0  0  0  0  0  0  0  0  0  0  0  0
   36.4430   31.1370   40.8870 C   0  0  0  0  0  3  0  0  0  0  0  0
   36.8630   30.8020   41.8800 H   0  0  0  0  0  0  0  0  0  0  0  0
  1  7  1  6  0  0  0
  1 19  1  0  0  0  0
  2  9  1  0  0  0  0
  2  1  1  0  0  0  0
  2  8  1  0  0  0  0
  3  2  1  0  0  0  0
  4  3  1  0  0  0  0
  4 13  1  0  0  0  0
  4  5  1  0  0  0  0
  5 15  1  0  0  0  0
  5  6  1  0  0  0  0
  6  1  1  0  0  0  0
  6 26  1  0  0  0  0
  6 16  1  1  0  0  0
 10  3  1  0  0  0  0
 11  3  1  0  0  0  0
 12  4  1  0  0  0  0
 14  5  1  0  0  0  0
 17 22  1  0  0  0  0
 17 23  1  0  0  0  0
 18 17  2  0  0  0  0
 19 20  2  0  0  0  0
 19 18  1  0  0  0  0
 20 21  1  0  0  0  0
 21 25  1  0  0  0  0
 21 22  2  0  0  0  0
 24 18  1  0  0  0  0
 26 27  1  6  0  0  0
 26 32  1  0  0  0  0
 27 29  1  0  0  0  0
 28 27  1  0  0  0  0
 29 31  1  0  0  0  0
 30 29  1  0  0  0  0
 31 32  1  0  0  0  0
 32 33  1  0  0  0  0
M  END
>  <minimizedAffinity>
-4.67478371

$$$$

 OpenBabel03242510303D

 33 35  0  0  1  0  0  0  0  0999 V2000
   36.5360   28.8730   41.2080 C   0  0  1  0  0  0  0  0  0  0  0  0
   36.6420   27.7320   42.1700 C   0  0  0  0  0  0  0  0  0  0  0  0
   37.2280   28.3370   43.4370 C   0  0  0  0  0  0  0  0  0  0  0  0
   38.6660   28.6790   43.1300 C   0  0  0  0  0  0  0  0  0  0  0  0
   38.8660   29.5080   41.9130 C   0  0  0  0  0  0  0  0  0  0  0  0
   37.9250   29.3210   40.7940 C   0  0  2  0  0  0  0  0  0  0  0  0
   36.0650   29.7210   41.6930 H   0  0  0  0  0  0  0  0  0  0  0  0
   37.3970   26.9770   41.8390 H   0  0  0  0  0  0  0  0  0  0  0  0
   35.6720   27.2340   42.3380 H   0  0  0  0  0  0  0  0  0  0  0  0
   37.2540   27.5340   44.2000 H   0  0  0  0  0  0  0  0  0  0  0  0
   36.6520   29.2200   43.7620 H   0  0  0  0  0  0  0  0  0  0  0  0
   39.0490   29.1910   44.0380 H   0  0  0  0  0  0  0  0  0  0  0  0
   39.2240   27.7010   43.1020 H   0  0  0  0  0  0  0  0  0  0  0  0
   38.9270   30.5790   42.2640 H   0  0  0  0  0  0  0  0  0  0  0  0
   39.9000   29.3070   41.5450 H   0  0  0  0  0  0  0  0  0  0  0  0
   38.2980   28.5480   40.0890 H   0  0  0  0  0  0  0  0  0  0  0  0
   34.0200   28.6860   38.3690 C   0  0  0  0  0  0  0  0  0  0  0  0
   34.6160   29.1510   39.5380 C   0  0  0  0  0  0  0  0  0  0  0  0
   35.7840   28.5000   39.9790 C   0  0  0  0  0  0  0  0  0  0  0  0
   36.2380   27.4600   39.2190 N   0  0  0  0  0  0  0  0  0  0  0  0
   35.6430   27.0380   38.1020 C   0  0  0  0  0  0  0  0  0  0  0  0
   34.5340   27.6400   37.6650 N   0  0  0  0  0  0  0  0  0  0  0  0
   33.1320   29.2380   38.1020 H   0  0  0  0  0  0  0  0  0  0  0  0
   34.2700   29.9590   40.1340 H   0  0  0  0  0  0  0  0  0  0  0  0
   36.0220   26.2120   37.5180 H   0  0  0  0  0  0  0  0  0  0  0  0
   37.6860   30.5660   39.9750 C   0  0  1  0  0  3  0  0  0  0  0  0
   37.1140   31.7110   40.7470 C   0  0  0  0  0  3  0  0  0  0  0  0
   37.2500   31.6450   41.8440 H   0  0  0  0  0  0  0  0  0  0  0  0
   37.9120   32.8780   40.1630 C   0  0  0  0  0  3  0  0  0  0  0  0
   38.7580   33.1640   40.8160 H   0  0  0  0  0  0  0  0  0  0  0  0
   38.4840   32.4160   38.9780 O   0  0  0  0  0  0  0  0  0  0  0  0
   38.8740   31.0840   39.2470 C   0  0  0  0  0  3  0  0  0  0  0  0
   38.8980   30.5790   38.2370 H   0  0  0  0  0  0  0  0  0  0  0  0
  1  7  1  1  0  0  0
  1  2  1  0  0  0  0
  2  9  1  0  0  0  0
  2  3  1  0  0  0  0
  3 11  1  0  0  0  0
  3 10  1  0  0  0  0
  4  3  1  0  0  0  0
  4 12  1  0  0  0  0
  5 14  1  0  0  0  0
  5  4  1  0  0  0  0
  6 16  1  6  0  0  0
  6  1  1  0  0  0  0
  6  5  1  0  0  0  0
  8  2  1  0  0  0  0
 13  4  1  0  0  0  0
 15  5  1  0  0  0  0
 17 18  1  0  0  0  0
 18 19  2  0  0  0  0
 18 24  1  0  0  0  0
 19  1  1  0  0  0  0
 20 19  1  0  0  0  0
 21 20  2  0  0  0  0
 22 21  1  0  0  0  0
 22 17  2  0  0  0  0
 23 17  1  0  0  0  0
 25 21  1  0  0  0  0
 26 32  1  1  0  0  0
 26 27  1  0  0  0  0
 26  6  1  0  0  0  0
 27 28  1  0  0  0  0
 29 27  1  0  0  0  0
 29 30  1  0  0  0  0
 31 32  1  0  0  0  0
 31 29  1  0  0  0  0
 33 32  1  0  0  0  0
M  END
>  <minimizedAffinity>
-4.65218592

$$$$

 OpenBabel03242510303D

 33 35  0  0  1  0  0  0  0  0999 V2000
   38.0460   29.3010   41.4750 C   0  0  1  0  0  0  0  0  0  0  0  0
   38.3500   29.4910   42.9280 C   0  0  0  0  0  0  0  0  0  0  0  0
   38.3940   28.0870   43.5090 C   0  0  0  0  0  0  0  0  0  0  0  0
   36.9750   27.5700   43.5070 C   0  0  0  0  0  0  0  0  0  0  0  0
   36.2780   27.6630   42.1970 C   0  0  0  0  0  0  0  0  0  0  0  0
   36.6270   28.7900   41.3130 C   0  0  2  0  0  0  0  0  0  0  0  0
   38.7010   28.5430   41.0590 H   0  0  0  0  0  0  0  0  0  0  0  0
   37.5100   29.9960   43.4650 H   0  0  0  0  0  0  0  0  0  0  0  0
   39.2830   30.0560   43.0900 H   0  0  0  0  0  0  0  0  0  0  0  0
   38.6880   28.1840   44.5730 H   0  0  0  0  0  0  0  0  0  0  0  0
   39.0740   27.4360   42.9330 H   0  0  0  0  0  0  0  0  0  0  0  0
   37.0420   26.5190   43.8570 H   0  0  0  0  0  0  0  0  0  0  0  0
   36.4400   28.1110   44.3370 H   0  0  0  0  0  0  0  0  0  0  0  0
   36.4020   26.6580   41.6990 H   0  0  0  0  0  0  0  0  0  0  0  0
   35.1840   27.7030   42.4090 H   0  0  0  0  0  0  0  0  0  0  0  0
   35.9650   29.6620   41.5050 H   0  0  0  0  0  0  0  0  0  0  0  0
   37.4810   32.7380   39.9600 C   0  0  0  0  0  0  0  0  0  0  0  0
   37.2270   31.6120   40.7380 C   0  0  0  0  0  0  0  0  0  0  0  0
   38.1730   30.5690   40.7060 C   0  0  0  0  0  0  0  0  0  0  0  0
   39.2670   30.7500   39.9100 N   0  0  0  0  0  0  0  0  0  0  0  0
   39.4830   31.8430   39.1750 C   0  0  0  0  0  0  0  0  0  0  0  0
   38.5990   32.8440   39.1900 N   0  0  0  0  0  0  0  0  0  0  0  0
   36.7090   33.4880   40.0420 H   0  0  0  0  0  0  0  0  0  0  0  0
   36.3790   31.4640   41.3600 H   0  0  0  0  0  0  0  0  0  0  0  0
   40.3570   31.9620   38.5520 H   0  0  0  0  0  0  0  0  0  0  0  0
   36.5080   28.4790   39.8410 C   0  0  1  0  0  3  0  0  0  0  0  0
   36.9190   27.0910   39.4700 C   0  0  0  0  0  3  0  0  0  0  0  0
   36.9280   26.3700   40.3100 H   0  0  0  0  0  0  0  0  0  0  0  0
   35.8370   26.7350   38.4500 C   0  0  0  0  0  3  0  0  0  0  0  0
   35.0320   26.1250   38.9020 H   0  0  0  0  0  0  0  0  0  0  0  0
   35.2380   27.9350   38.0690 O   0  0  0  0  0  0  0  0  0  0  0  0
   35.1630   28.7060   39.2510 C   0  0  0  0  0  3  0  0  0  0  0  0
   35.1260   29.7780   38.8970 H   0  0  0  0  0  0  0  0  0  0  0  0
  1  7  1  6  0  0  0
  1  2  1  0  0  0  0
  2  9  1  0  0  0  0
  2  8  1  0  0  0  0
  2  3  1  0  0  0  0
  3 10  1  0  0  0  0
  4  3  1  0  0  0  0
  4 12  1  0  0  0  0
  4 13  1  0  0  0  0
  5 15  1  0  0  0  0
  5  4  1  0  0  0  0
  6  1  1  0  0  0  0
  6 16  1  1  0  0  0
  6  5  1  0  0  0  0
 11  3  1  0  0  0  0
 14  5  1  0  0  0  0
 17 23  1  0  0  0  0
 17 18  1  0  0  0  0
 18 24  1  0  0  0  0
 19 18  2  0  0  0  0
 19  1  1  0  0  0  0
 20 19  1  0  0  0  0
 21 22  1  0  0  0  0
 21 20  2  0  0  0  0
 22 17  2  0  0  0  0
 25 21  1  0  0  0  0
 26 32  1  1  0  0  0
 26  6  1  0  0  0  0
 27 26  1  0  0  0  0
 27 28  1  0  0  0  0
 29 30  1  0  0  0  0
 29 27  1  0  0  0  0
 31 29  1  0  0  0  0
 31 32  1  0  0  0  0
 33 32  1  0  0  0  0
M  END
>  <minimizedAffinity>
-4.62444592

$$$$

 OpenBabel03242510303D

 33 35  0  0  1  0  0  0  0  0999 V2000
   38.2620   29.2270   41.4390 C   0  0  1  0  0  0  0  0  0  0  0  0
   38.6380   29.3790   42.8800 C   0  0  0  0  0  0  0  0  0  0  0  0
   38.5540   27.9760   43.4600 C   0  0  0  0  0  0  0  0  0  0  0  0
   37.0890   27.6140   43.5110 C   0  0  0  0  0  0  0  0  0  0  0  0
   36.3580   27.7850   42.2290 C   0  0  0  0  0  0  0  0  0  0  0  0
   36.7910   28.8720   41.3310 C   0  0  2  0  0  0  0  0  0  0  0  0
   38.8160   28.4050   40.9990 H   0  0  0  0  0  0  0  0  0  0  0  0
   37.8780   29.9690   43.4480 H   0  0  0  0  0  0  0  0  0  0  0  0
   39.6320   29.8410   43.0060 H   0  0  0  0  0  0  0  0  0  0  0  0
   38.8970   28.0370   44.5120 H   0  0  0  0  0  0  0  0  0  0  0  0
   39.1380   27.2580   42.8590 H   0  0  0  0  0  0  0  0  0  0  0  0
   37.0570   26.5600   43.8590 H   0  0  0  0  0  0  0  0  0  0  0  0
   36.6460   28.2060   44.3610 H   0  0  0  0  0  0  0  0  0  0  0  0
   36.3540   26.7740   41.7270 H   0  0  0  0  0  0  0  0  0  0  0  0
   35.2820   27.9410   42.4820 H   0  0  0  0  0  0  0  0  0  0  0  0
   36.2340   29.8080   41.5470 H   0  0  0  0  0  0  0  0  0  0  0  0
   39.6130   31.8710   39.0710 C   0  0  0  0  0  0  0  0  0  0  0  0
   39.5170   30.6390   39.7120 C   0  0  0  0  0  0  0  0  0  0  0  0
   38.4940   30.4770   40.6660 C   0  0  0  0  0  0  0  0  0  0  0  0
   37.6750   31.5480   40.8840 N   0  0  0  0  0  0  0  0  0  0  0  0
   37.7930   32.7180   40.2510 C   0  0  0  0  0  0  0  0  0  0  0  0
   38.7570   32.8930   39.3430 N   0  0  0  0  0  0  0  0  0  0  0  0
   40.4220   31.9110   38.3570 H   0  0  0  0  0  0  0  0  0  0  0  0
   40.1500   29.8020   39.5480 H   0  0  0  0  0  0  0  0  0  0  0  0
   37.1320   33.5510   40.4420 H   0  0  0  0  0  0  0  0  0  0  0  0
   36.5850   28.5800   39.8650 C   0  0  1  0  0  3  0  0  0  0  0  0
   37.0220   27.2150   39.4410 C   0  0  0  0  0  3  0  0  0  0  0  0
   37.1150   26.4810   40.2650 H   0  0  0  0  0  0  0  0  0  0  0  0
   35.8870   26.8330   38.4900 C   0  0  0  0  0  3  0  0  0  0  0  0
   35.1380   26.1860   38.9840 H   0  0  0  0  0  0  0  0  0  0  0  0
   35.2190   28.0150   38.1720 O   0  0  0  0  0  0  0  0  0  0  0  0
   35.1960   28.7640   39.3710 C   0  0  0  0  0  3  0  0  0  0  0  0
   35.0940   29.8390   39.0400 H   0  0  0  0  0  0  0  0  0  0  0  0
  1  7  1  6  0  0  0
  1  2  1  0  0  0  0
  2  9  1  0  0  0  0
  2  8  1  0  0  0  0
  2  3  1  0  0  0  0
  3  4  1  0  0  0  0
  3 10  1  0  0  0  0
  4 12  1  0  0  0  0
  4 13  1  0  0  0  0
  5 15  1  0  0  0  0
  5  4  1  0  0  0  0
  6  1  1  0  0  0  0
  6 16  1  1  0  0  0
  6  5  1  0  0  0  0
 11  3  1  0  0  0  0
 14  5  1  0  0  0  0
 17 22  2  0  0  0  0
 17 18  1  0  0  0  0
 18 19  2  0  0  0  0
 19 20  1  0  0  0  0
 19  1  1  0  0  0  0
 21 25  1  0  0  0  0
 21 20  2  0  0  0  0
 22 21  1  0  0  0  0
 23 17  1  0  0  0  0
 24 18  1  0  0  0  0
 26 32  1  1  0  0  0
 26  6  1  0  0  0  0
 27 26  1  0  0  0  0
 27 28  1  0  0  0  0
 29 30  1  0  0  0  0
 29 27  1  0  0  0  0
 31 29  1  0  0  0  0
 31 32  1  0  0  0  0
 33 32  1  0  0  0  0
M  END
>  <minimizedAffinity>
-4.52864313

$$$$

 OpenBabel03242510303D

 33 35  0  0  1  0  0  0  0  0999 V2000
   36.4710   29.8270   39.4230 C   0  0  1  0  0  0  0  0  0  0  0  0
   35.9560   29.6540   38.0290 C   0  0  0  0  0  0  0  0  0  0  0  0
   34.8790   28.5860   38.1350 C   0  0  0  0  0  0  0  0  0  0  0  0
   35.5860   27.2820   38.4180 C   0  0  0  0  0  0  0  0  0  0  0  0
   36.5230   27.3150   39.5700 C   0  0  0  0  0  0  0  0  0  0  0  0
   37.2280   28.5810   39.8450 C   0  0  2  0  0  0  0  0  0  0  0  0
   35.6400   29.9360   40.1110 H   0  0  0  0  0  0  0  0  0  0  0  0
   36.7280   29.2140   37.3510 H   0  0  0  0  0  0  0  0  0  0  0  0
   35.5860   30.6000   37.5990 H   0  0  0  0  0  0  0  0  0  0  0  0
   34.4220   28.4810   37.1310 H   0  0  0  0  0  0  0  0  0  0  0  0
   34.1420   28.8360   38.9180 H   0  0  0  0  0  0  0  0  0  0  0  0
   34.7790   26.5350   38.5720 H   0  0  0  0  0  0  0  0  0  0  0  0
   36.0760   26.9720   37.4520 H   0  0  0  0  0  0  0  0  0  0  0  0
   35.9470   26.9310   40.4610 H   0  0  0  0  0  0  0  0  0  0  0  0
   37.2830   26.5160   39.4000 H   0  0  0  0  0  0  0  0  0  0  0  0
   38.1990   28.6170   39.3060 H   0  0  0  0  0  0  0  0  0  0  0  0
   38.0730   33.1570   40.2980 C   0  0  0  0  0  0  0  0  0  0  0  0
   37.1140   32.1480   40.2880 C   0  0  0  0  0  0  0  0  0  0  0  0
   37.3920   30.9900   39.5380 C   0  0  0  0  0  0  0  0  0  0  0  0
   38.5880   30.9520   38.8790 N   0  0  0  0  0  0  0  0  0  0  0  0
   39.4870   31.9370   38.9090 C   0  0  0  0  0  0  0  0  0  0  0  0
   39.2440   33.0450   39.6130 N   0  0  0  0  0  0  0  0  0  0  0  0
   37.7810   34.0080   40.8960 H   0  0  0  0  0  0  0  0  0  0  0  0
   36.1820   32.1700   40.7990 H   0  0  0  0  0  0  0  0  0  0  0  0
   40.4260   31.8830   38.3770 H   0  0  0  0  0  0  0  0  0  0  0  0
   37.5390   28.8110   41.3040 C   0  0  1  0  0  3  0  0  0  0  0  0
   36.5780   28.1640   42.2470 C   0  0  0  0  0  3  0  0  0  0  0  0
   35.9810   27.3400   41.8090 H   0  0  0  0  0  0  0  0  0  0  0  0
   37.5350   27.6400   43.3180 C   0  0  0  0  0  3  0  0  0  0  0  0
   37.7600   26.5660   43.1780 H   0  0  0  0  0  0  0  0  0  0  0  0
   38.7450   28.3090   43.1320 O   0  0  0  0  0  0  0  0  0  0  0  0
   38.9040   28.4090   41.7320 C   0  0  0  0  0  3  0  0  0  0  0  0
   39.5820   29.2990   41.5800 H   0  0  0  0  0  0  0  0  0  0  0  0
  1 19  1  0  0  0  0
  1  6  1  0  0  0  0
  1  7  1  1  0  0  0
  2  3  1  0  0  0  0
  2  1  1  0  0  0  0
  3  4  1  0  0  0  0
  3 11  1  0  0  0  0
  4 12  1  0  0  0  0
  4  5  1  0  0  0  0
  5  6  1  0  0  0  0
  5 14  1  0  0  0  0
  6 16  1  6  0  0  0
  6 26  1  0  0  0  0
  8  2  1  0  0  0  0
  9  2  1  0  0  0  0
 10  3  1  0  0  0  0
 13  4  1  0  0  0  0
 15  5  1  0  0  0  0
 17 23  1  0  0  0  0
 18 17  1  0  0  0  0
 18 24  1  0  0  0  0
 19 18  2  0  0  0  0
 20 21  2  0  0  0  0
 20 19  1  0  0  0  0
 21 22  1  0  0  0  0
 22 17  2  0  0  0  0
 25 21  1  0  0  0  0
 26 32  1  1  0  0  0
 26 27  1  0  0  0  0
 27 29  1  0  0  0  0
 28 27  1  0  0  0  0
 30 29  1  0  0  0  0
 31 29  1  0  0  0  0
 32 31  1  0  0  0  0
 33 32  1  0  0  0  0
M  END
>  <minimizedAffinity>
-4.48994541

$$$$

 OpenBabel03242510303D

 33 35  0  0  1  0  0  0  0  0999 V2000
   36.7520   27.7010   41.0540 C   0  0  1  0  0  0  0  0  0  0  0  0
   36.9380   26.6880   42.1400 C   0  0  0  0  0  0  0  0  0  0  0  0
   36.5810   27.4170   43.4260 C   0  0  0  0  0  0  0  0  0  0  0  0
   37.6830   28.4180   43.6800 C   0  0  0  0  0  0  0  0  0  0  0  0
   37.9860   29.3170   42.5360 C   0  0  0  0  0  0  0  0  0  0  0  0
   37.8140   28.7780   41.1740 C   0  0  2  0  0  0  0  0  0  0  0  0
   35.7920   28.1930   41.1710 H   0  0  0  0  0  0  0  0  0  0  0  0
   38.0120   26.4030   42.2630 H   0  0  0  0  0  0  0  0  0  0  0  0
   36.3330   25.7810   41.9750 H   0  0  0  0  0  0  0  0  0  0  0  0
   36.6370   26.6770   44.2480 H   0  0  0  0  0  0  0  0  0  0  0  0
   35.5910   27.9000   43.3500 H   0  0  0  0  0  0  0  0  0  0  0  0
   37.3610   28.9920   44.5740 H   0  0  0  0  0  0  0  0  0  0  0  0
   38.5740   27.8250   44.0300 H   0  0  0  0  0  0  0  0  0  0  0  0
   37.3990   30.2650   42.7120 H   0  0  0  0  0  0  0  0  0  0  0  0
   39.0440   29.6540   42.6540 H   0  0  0  0  0  0  0  0  0  0  0  0
   38.7570   28.3200   40.8090 H   0  0  0  0  0  0  0  0  0  0  0  0
   36.0840   26.5230   37.5060 C   0  0  0  0  0  0  0  0  0  0  0  0
   35.8400   27.1410   38.7290 C   0  0  0  0  0  0  0  0  0  0  0  0
   36.8590   27.0950   39.7000 C   0  0  0  0  0  0  0  0  0  0  0  0
   38.0100   26.4440   39.3580 N   0  0  0  0  0  0  0  0  0  0  0  0
   38.2140   25.8610   38.1750 C   0  0  0  0  0  0  0  0  0  0  0  0
   37.2610   25.8920   37.2400 N   0  0  0  0  0  0  0  0  0  0  0  0
   35.2540   26.6050   36.8210 H   0  0  0  0  0  0  0  0  0  0  0  0
   34.9480   27.6490   39.0020 H   0  0  0  0  0  0  0  0  0  0  0  0
   39.1340   25.3510   37.9290 H   0  0  0  0  0  0  0  0  0  0  0  0
   37.4150   29.8110   40.1480 C   0  0  1  0  0  3  0  0  0  0  0  0
   36.4290   30.8190   40.6410 C   0  0  0  0  0  3  0  0  0  0  0  0
   36.3690   30.9110   41.7430 H   0  0  0  0  0  0  0  0  0  0  0  0
   36.9870   32.0970   40.0120 C   0  0  0  0  0  3  0  0  0  0  0  0
   37.5910   32.6790   40.7340 H   0  0  0  0  0  0  0  0  0  0  0  0
   37.8720   31.6950   39.0130 O   0  0  0  0  0  0  0  0  0  0  0  0
   38.5400   30.5660   39.5380 C   0  0  0  0  0  3  0  0  0  0  0  0
   38.8840   29.9850   38.6320 H   0  0  0  0  0  0  0  0  0  0  0  0
  1  7  1  1  0  0  0
  1  6  1  0  0  0  0
  1  2  1  0  0  0  0
  2  8  1  0  0  0  0
  2  3  1  0  0  0  0
  3  4  1  0  0  0  0
  3 10  1  0  0  0  0
  4 13  1  0  0  0  0
  4 12  1  0  0  0  0
  5 15  1  0  0  0  0
  5 14  1  0  0  0  0
  5  4  1  0  0  0  0
  6 16  1  6  0  0  0
  6  5  1  0  0  0  0
  9  2  1  0  0  0  0
 11  3  1  0  0  0  0
 17 18  1  0  0  0  0
 18 24  1  0  0  0  0
 18 19  2  0  0  0  0
 19  1  1  0  0  0  0
 20 19  1  0  0  0  0
 21 20  2  0  0  0  0
 22 17  2  0  0  0  0
 22 21  1  0  0  0  0
 23 17  1  0  0  0  0
 25 21  1  0  0  0  0
 26 32  1  1  0  0  0
 26 27  1  0  0  0  0
 26  6  1  0  0  0  0
 27 28  1  0  0  0  0
 29 27  1  0  0  0  0
 29 30  1  0  0  0  0
 31 32  1  0  0  0  0
 31 29  1  0  0  0  0
 33 32  1  0  0  0  0
M  END
>  <minimizedAffinity>
-4.45766115

$$$$

 OpenBabel03242510303D

 33 35  0  0  1  0  0  0  0  0999 V2000
   38.9650   26.7400   42.9710 C   0  0  1  0  0  0  0  0  0  0  0  0
   38.4570   28.0480   43.4910 C   0  0  0  0  0  0  0  0  0  0  0  0
   36.9620   27.8450   43.6800 C   0  0  0  0  0  0  0  0  0  0  0  0
   36.3580   27.7520   42.2990 C   0  0  0  0  0  0  0  0  0  0  0  0
   36.9980   26.7540   41.4020 C   0  0  0  0  0  0  0  0  0  0  0  0
   38.4440   26.5130   41.5640 C   0  0  2  0  0  0  0  0  0  0  0  0
   38.5830   25.9290   43.5810 H   0  0  0  0  0  0  0  0  0  0  0  0
   38.5410   28.8600   42.7270 H   0  0  0  0  0  0  0  0  0  0  0  0
   38.9720   28.3600   44.4160 H   0  0  0  0  0  0  0  0  0  0  0  0
   36.5610   28.7730   44.1330 H   0  0  0  0  0  0  0  0  0  0  0  0
   36.7540   26.9460   44.2850 H   0  0  0  0  0  0  0  0  0  0  0  0
   35.2840   27.5220   42.4600 H   0  0  0  0  0  0  0  0  0  0  0  0
   36.3640   28.7970   41.8800 H   0  0  0  0  0  0  0  0  0  0  0  0
   36.3830   25.8110   41.4850 H   0  0  0  0  0  0  0  0  0  0  0  0
   36.8090   27.0850   40.3540 H   0  0  0  0  0  0  0  0  0  0  0  0
   39.0330   27.1890   40.9080 H   0  0  0  0  0  0  0  0  0  0  0  0
   42.6320   27.4510   42.2840 C   0  0  0  0  0  0  0  0  0  0  0  0
   41.2520   27.6260   42.2370 C   0  0  0  0  0  0  0  0  0  0  0  0
   40.4520   26.6950   42.9270 C   0  0  0  0  0  0  0  0  0  0  0  0
   41.1000   25.6920   43.5890 N   0  0  0  0  0  0  0  0  0  0  0  0
   42.4280   25.5510   43.6150 C   0  0  0  0  0  0  0  0  0  0  0  0
   43.2050   26.4220   42.9670 N   0  0  0  0  0  0  0  0  0  0  0  0
   43.1700   28.2050   41.7300 H   0  0  0  0  0  0  0  0  0  0  0  0
   40.7410   28.4030   41.7250 H   0  0  0  0  0  0  0  0  0  0  0  0
   42.9160   24.7480   44.1460 H   0  0  0  0  0  0  0  0  0  0  0  0
   38.8770   25.1070   41.2290 C   0  0  1  0  0  3  0  0  0  0  0  0
   38.0270   24.0390   41.8380 C   0  0  0  0  0  3  0  0  0  0  0  0
   37.0210   24.3740   42.1590 H   0  0  0  0  0  0  0  0  0  0  0  0
   37.9330   23.0500   40.6760 C   0  0  0  0  0  3  0  0  0  0  0  0
   36.9840   23.1620   40.1180 H   0  0  0  0  0  0  0  0  0  0  0  0
   38.9450   23.3920   39.7790 O   0  0  0  0  0  0  0  0  0  0  0  0
   38.9800   24.8050   39.7780 C   0  0  0  0  0  3  0  0  0  0  0  0
   40.0290   25.0680   39.4510 H   0  0  0  0  0  0  0  0  0  0  0  0
  1  2  1  0  0  0  0
  1  7  1  1  0  0  0
  2  3  1  0  0  0  0
  2  9  1  0  0  0  0
  3 10  1  0  0  0  0
  3 11  1  0  0  0  0
  4 12  1  0  0  0  0
  4  3  1  0  0  0  0
  5 14  1  0  0  0  0
  5  6  1  0  0  0  0
  5  4  1  0  0  0  0
  6 16  1  6  0  0  0
  6  1  1  0  0  0  0
  8  2  1  0  0  0  0
 13  4  1  0  0  0  0
 15  5  1  0  0  0  0
 17 22  1  0  0  0  0
 18 17  2  0  0  0  0
 18 19  1  0  0  0  0
 19  1  1  0  0  0  0
 19 20  2  0  0  0  0
 20 21  1  0  0  0  0
 21 25  1  0  0  0  0
 22 21  2  0  0  0  0
 23 17  1  0  0  0  0
 24 18  1  0  0  0  0
 26 32  1  6  0  0  0
 26  6  1  0  0  0  0
 26 27  1  0  0  0  0
 27 28  1  0  0  0  0
 29 27  1  0  0  0  0
 30 29  1  0  0  0  0
 31 29  1  0  0  0  0
 32 31  1  0  0  0  0
 33 32  1  0  0  0  0
M  END
>  <minimizedAffinity>
-4.43407822

$$$$

 OpenBabel03242510303D

 33 35  0  0  1  0  0  0  0  0999 V2000
   37.6680   28.4990   40.9660 C   0  0  1  0  0  0  0  0  0  0  0  0
   37.3240   29.4980   42.0260 C   0  0  0  0  0  0  0  0  0  0  0  0
   37.9290   28.9410   43.3050 C   0  0  0  0  0  0  0  0  0  0  0  0
   37.1110   27.7270   43.6800 C   0  0  0  0  0  0  0  0  0  0  0  0
   36.9500   26.7230   42.5970 C   0  0  0  0  0  0  0  0  0  0  0  0
   36.8990   27.2140   41.2070 C   0  0  2  0  0  0  0  0  0  0  0  0
   38.7220   28.2490   41.0240 H   0  0  0  0  0  0  0  0  0  0  0  0
   36.2240   29.5330   42.2220 H   0  0  0  0  0  0  0  0  0  0  0  0
   37.6870   30.5100   41.7810 H   0  0  0  0  0  0  0  0  0  0  0  0
   37.7560   29.6910   44.1010 H   0  0  0  0  0  0  0  0  0  0  0  0
   38.9960   28.6960   43.1690 H   0  0  0  0  0  0  0  0  0  0  0  0
   37.6180   27.2920   44.5660 H   0  0  0  0  0  0  0  0  0  0  0  0
   36.1320   28.1160   44.0770 H   0  0  0  0  0  0  0  0  0  0  0  0
   37.7540   25.9470   42.7600 H   0  0  0  0  0  0  0  0  0  0  0  0
   36.0120   26.1580   42.8090 H   0  0  0  0  0  0  0  0  0  0  0  0
   35.8520   27.4220   40.9000 H   0  0  0  0  0  0  0  0  0  0  0  0
   35.8590   29.6600   37.8340 C   0  0  0  0  0  0  0  0  0  0  0  0
   36.0180   29.1990   39.1380 C   0  0  0  0  0  0  0  0  0  0  0  0
   37.3310   28.9920   39.6030 C   0  0  0  0  0  0  0  0  0  0  0  0
   38.3460   29.2620   38.7300 N   0  0  0  0  0  0  0  0  0  0  0  0
   38.1610   29.7040   37.4840 C   0  0  0  0  0  0  0  0  0  0  0  0
   36.9240   29.9070   37.0230 N   0  0  0  0  0  0  0  0  0  0  0  0
   34.8240   29.7920   37.5580 H   0  0  0  0  0  0  0  0  0  0  0  0
   35.2340   28.9870   39.8220 H   0  0  0  0  0  0  0  0  0  0  0  0
   38.9820   29.9100   36.8130 H   0  0  0  0  0  0  0  0  0  0  0  0
   37.4580   26.2490   40.1900 C   0  0  1  0  0  3  0  0  0  0  0  0
   38.7930   25.6810   40.5490 C   0  0  0  0  0  3  0  0  0  0  0  0
   39.0530   25.7500   41.6240 H   0  0  0  0  0  0  0  0  0  0  0  0
   38.6110   24.2250   40.1200 C   0  0  0  0  0  3  0  0  0  0  0  0
   38.3630   23.5720   40.9780 H   0  0  0  0  0  0  0  0  0  0  0  0
   37.4960   24.1930   39.2820 O   0  0  0  0  0  0  0  0  0  0  0  0
   36.5760   25.1020   39.8530 C   0  0  0  0  0  3  0  0  0  0  0  0
   35.9160   25.4240   38.9940 H   0  0  0  0  0  0  0  0  0  0  0  0
  1  7  1  1  0  0  0
  1  6  1  0  0  0  0
  1  2  1  0  0  0  0
  2  8  1  0  0  0  0
  2  3  1  0  0  0  0
  3  4  1  0  0  0  0
  3 10  1  0  0  0  0
  4 13  1  0  0  0  0
  4 12  1  0  0  0  0
  5 14  1  0  0  0  0
  5 15  1  0  0  0  0
  5  4  1  0  0  0  0
  6 16  1  6  0  0  0
  6  5  1  0  0  0  0
  9  2  1  0  0  0  0
 11  3  1  0  0  0  0
 17 18  1  0  0  0  0
 18 19  2  0  0  0  0
 18 24  1  0  0  0  0
 19  1  1  0  0  0  0
 20 19  1  0  0  0  0
 21 20  2  0  0  0  0
 22 21  1  0  0  0  0
 22 17  2  0  0  0  0
 23 17  1  0  0  0  0
 25 21  1  0  0  0  0
 26 32  1  1  0  0  0
 26 27  1  0  0  0  0
 26  6  1  0  0  0  0
 27 28  1  0  0  0  0
 29 27  1  0  0  0  0
 29 30  1  0  0  0  0
 31 32  1  0  0  0  0
 31 29  1  0  0  0  0
 33 32  1  0  0  0  0
M  END
>  <minimizedAffinity>
-4.43100929

$$$$

 OpenBabel03242510303D

 33 35  0  0  1  0  0  0  0  0999 V2000
   36.9280   29.8440   40.5420 C   0  0  1  0  0  0  0  0  0  0  0  0
   37.8150   31.0080   40.8520 C   0  0  0  0  0  0  0  0  0  0  0  0
   37.1460   32.2030   40.1910 C   0  0  0  0  0  0  0  0  0  0  0  0
   37.3040   32.0210   38.7000 C   0  0  0  0  0  0  0  0  0  0  0  0
   36.8500   30.7060   38.1790 C   0  0  0  0  0  0  0  0  0  0  0  0
   36.9960   29.5310   39.0590 C   0  0  2  0  0  0  0  0  0  0  0  0
   35.8960   30.1000   40.7600 H   0  0  0  0  0  0  0  0  0  0  0  0
   38.8080   30.9210   40.3450 H   0  0  0  0  0  0  0  0  0  0  0  0
   37.9660   31.1420   41.9360 H   0  0  0  0  0  0  0  0  0  0  0  0
   37.7380   33.0990   40.4600 H   0  0  0  0  0  0  0  0  0  0  0  0
   36.0860   32.2830   40.4890 H   0  0  0  0  0  0  0  0  0  0  0  0
   36.7400   32.8580   38.2380 H   0  0  0  0  0  0  0  0  0  0  0  0
   38.3830   32.2460   38.4680 H   0  0  0  0  0  0  0  0  0  0  0  0
   35.7920   30.8550   37.8160 H   0  0  0  0  0  0  0  0  0  0  0  0
   37.4130   30.5140   37.2350 H   0  0  0  0  0  0  0  0  0  0  0  0
   37.9770   29.0350   38.8960 H   0  0  0  0  0  0  0  0  0  0  0  0
   37.0230   26.8430   42.8680 C   0  0  0  0  0  0  0  0  0  0  0  0
   36.5120   27.9770   42.2430 C   0  0  0  0  0  0  0  0  0  0  0  0
   37.3250   28.6220   41.2920 C   0  0  0  0  0  0  0  0  0  0  0  0
   38.5560   28.0780   41.0590 N   0  0  0  0  0  0  0  0  0  0  0  0
   39.0180   26.9870   41.6750 C   0  0  0  0  0  0  0  0  0  0  0  0
   38.2630   26.3600   42.5820 N   0  0  0  0  0  0  0  0  0  0  0  0
   36.3370   26.4110   43.5810 H   0  0  0  0  0  0  0  0  0  0  0  0
   35.5560   28.4060   42.4180 H   0  0  0  0  0  0  0  0  0  0  0  0
   39.9960   26.5760   41.4740 H   0  0  0  0  0  0  0  0  0  0  0  0
   35.9420   28.4710   38.8520 C   0  0  1  0  0  3  0  0  0  0  0  0
   34.5450   28.9970   38.7800 C   0  0  0  0  0  3  0  0  0  0  0  0
   34.4670   30.0760   38.5430 H   0  0  0  0  0  0  0  0  0  0  0  0
   33.9750   28.1430   37.6470 C   0  0  0  0  0  3  0  0  0  0  0  0
   33.9800   28.6850   36.6820 H   0  0  0  0  0  0  0  0  0  0  0  0
   34.8450   27.0660   37.4840 O   0  0  0  0  0  0  0  0  0  0  0  0
   36.1400   27.6030   37.6630 C   0  0  0  0  0  3  0  0  0  0  0  0
   36.7750   26.7260   37.9870 H   0  0  0  0  0  0  0  0  0  0  0  0
  1  7  1  1  0  0  0
  1  2  1  0  0  0  0
  1 19  1  0  0  0  0
  2  9  1  0  0  0  0
  3 10  1  0  0  0  0
  3 11  1  0  0  0  0
  3  2  1  0  0  0  0
  4  3  1  0  0  0  0
  5  4  1  0  0  0  0
  5  6  1  0  0  0  0
  6 16  1  6  0  0  0
  6  1  1  0  0  0  0
  8  2  1  0  0  0  0
 12  4  1  0  0  0  0
 13  4  1  0  0  0  0
 14  5  1  0  0  0  0
 15  5  1  0  0  0  0
 17 23  1  0  0  0  0
 18 24  1  0  0  0  0
 18 17  2  0  0  0  0
 19 18  1  0  0  0  0
 20 19  2  0  0  0  0
 20 21  1  0  0  0  0
 21 22  2  0  0  0  0
 22 17  1  0  0  0  0
 25 21  1  0  0  0  0
 26 32  1  6  0  0  0
 26  6  1  0  0  0  0
 27 26  1  0  0  0  0
 28 27  1  0  0  0  0
 29 27  1  0  0  0  0
 30 29  1  0  0  0  0
 31 29  1  0  0  0  0
 31 32  1  0  0  0  0
 32 33  1  0  0  0  0
M  END
>  <minimizedAffinity>
-4.42155743

$$$$
