
 OpenBabel03242516123D

 38 41  0  0  1  0  0  0  0  0999 V2000
   48.1920   34.0400   41.9910 C   0  0  0  0  0  0  0  0  0  0  0  0
   48.2970   35.5460   41.9920 C   0  0  0  0  0  0  0  0  0  0  0  0
   49.5030   34.7190   42.0900 C   0  0  0  0  0  0  0  0  0  0  0  0
   48.0480   36.1540   41.1230 H   0  0  0  0  0  0  0  0  0  0  0  0
   47.9820   36.0510   42.9480 H   0  0  0  0  0  0  0  0  0  0  0  0
   50.0340   34.5870   43.0610 H   0  0  0  0  0  0  0  0  0  0  0  0
   50.2070   34.5760   41.2200 H   0  0  0  0  0  0  0  0  0  0  0  0
   47.8310   33.4440   40.6610 C   0  0  0  0  0  0  0  0  0  0  0  0
   48.1390   34.3150   39.4740 C   0  0  0  0  0  0  0  0  0  0  0  0
   47.7980   33.4750   38.2400 C   0  0  0  0  0  0  0  0  0  0  0  0
   46.4200   33.3830   38.1630 O   0  0  0  0  0  0  0  0  0  0  0  0
   46.0250   32.5560   39.2280 C   0  0  0  0  0  0  0  0  0  0  0  0
   46.3030   33.2500   40.5540 C   0  0  0  0  0  0  0  0  0  0  0  0
   48.2890   32.4560   40.4900 H   0  0  0  0  0  0  0  0  0  0  0  0
   49.2410   34.4390   39.4180 H   0  0  0  0  0  0  0  0  0  0  0  0
   47.5630   35.2500   39.4340 H   0  0  0  0  0  0  0  0  0  0  0  0
   48.3380   32.5280   38.2380 H   0  0  0  0  0  0  0  0  0  0  0  0
   48.1200   34.1150   37.3670 H   0  0  0  0  0  0  0  0  0  0  0  0
   44.9800   32.2350   39.1690 H   0  0  0  0  0  0  0  0  0  0  0  0
   46.7460   31.6910   39.1930 H   0  0  0  0  0  0  0  0  0  0  0  0
   46.0360   32.5050   41.3490 H   0  0  0  0  0  0  0  0  0  0  0  0
   45.7560   34.1840   40.6680 H   0  0  0  0  0  0  0  0  0  0  0  0
   46.7150   34.0980   43.9850 C   0  0  0  0  0  0  0  0  0  0  0  0
   47.6230   33.3940   43.2140 C   0  0  0  0  0  0  0  0  0  0  0  0
   47.9890   32.0630   43.6150 C   0  0  0  0  0  0  0  0  0  0  0  0
   47.4030   31.5850   44.7460 N   0  0  0  0  0  0  0  0  0  0  0  0
   46.5330   32.3090   45.4530 C   0  0  0  0  0  0  0  0  0  0  0  0
   46.1810   33.5430   45.0970 N   0  0  0  0  0  0  0  0  0  0  0  0
   46.4060   35.1020   43.7270 H   0  0  0  0  0  0  0  0  0  0  0  0
   48.6900   31.5890   42.9730 H   0  0  0  0  0  0  0  0  0  0  0  0
   45.9580   31.6720   46.6770 C   0  0  2  0  0  0  0  0  0  0  0  0
   45.3660   32.6550   47.6390 C   0  0  0  0  0  0  0  0  0  0  0  0
   44.2400   32.6370   47.6080 H   0  0  0  0  0  0  0  0  0  0  0  0
   45.8720   32.1950   48.9890 C   0  0  0  0  0  0  0  0  0  0  0  0
   46.5840   32.9220   49.4270 H   0  0  0  0  0  0  0  0  0  0  0  0
   46.5350   30.9930   48.7700 O   0  0  0  0  0  0  0  0  0  0  0  0
   47.1020   31.0820   47.5040 C   0  0  0  0  0  0  0  0  0  0  0  0
   47.2620   30.0510   47.0840 H   0  0  0  0  0  0  0  0  0  0  0  0
  1  2  1  0  0  0  0
  1  3  1  0  0  0  0
  1 24  1  0  0  0  0
  2  3  1  0  0  0  0
  2  5  1  0  0  0  0
  3  6  1  0  0  0  0
  4  2  1  0  0  0  0
  7  3  1  0  0  0  0
  8  1  1  0  0  0  0
  9  8  1  0  0  0  0
 10  9  1  0  0  0  0
 11 10  1  0  0  0  0
 11 12  1  0  0  0  0
 12 13  1  0  0  0  0
 13  8  1  0  0  0  0
 13 22  1  0  0  0  0
 13 21  1  0  0  0  0
 14  8  1  0  0  0  0
 15  9  1  0  0  0  0
 16  9  1  0  0  0  0
 17 10  1  0  0  0  0
 18 10  1  0  0  0  0
 19 12  1  0  0  0  0
 20 12  1  0  0  0  0
 23 28  1  0  0  0  0
 24 25  1  0  0  0  0
 24 23  2  0  0  0  0
 25 26  2  0  0  0  0
 26 27  1  0  0  0  0
 28 27  2  0  0  0  0
 29 23  1  0  0  0  0
 30 25  1  0  0  0  0
 31 27  1  6  0  0  0
 31 37  1  0  0  0  0
 31 32  1  0  0  0  0
 32 34  1  0  0  0  0
 33 32  1  0  0  0  0
 34 35  1  0  0  0  0
 36 34  1  0  0  0  0
 37 36  1  0  0  0  0
 38 37  1  0  0  0  0
M  END
>  <minimizedAffinity>
-5.05474758

>  <minimizedRMSD>
2.55046177

$$$$
