
 OpenBabel03252501463D

 22 23  0  0  1  0  0  0  0  0999 V2000
   44.4620   35.5980   44.0390 C   0  0  0  0  0  0  0  0  0  0  0  0
   44.3390   34.8400   42.8780 C   0  0  0  0  0  0  0  0  0  0  0  0
   44.8370   33.5490   42.8850 C   0  0  0  0  0  0  0  0  0  0  0  0
   45.4320   33.0630   44.0240 N   0  0  0  0  0  0  0  0  0  0  0  0
   45.5320   33.8330   45.1350 C   0  0  0  0  0  0  0  0  0  0  0  0
   45.0480   35.0870   45.1330 N   0  0  0  0  0  0  0  0  0  0  0  0
   44.0700   36.6060   44.0290 H   0  0  0  0  0  0  0  0  0  0  0  0
   44.7620   32.9360   42.0100 H   0  0  0  0  0  0  0  0  0  0  0  0
   46.1570   33.3590   46.3750 C   0  0  2  0  0  3  0  0  0  0  0  0
   46.8500   32.0380   46.0530 C   0  0  0  0  0  3  0  0  0  0  0  0
   46.6160   31.6670   45.0490 H   0  0  0  0  0  0  0  0  0  0  0  0
   46.2700   31.1230   47.1090 C   0  0  0  0  0  3  0  0  0  0  0  0
   47.1330   30.5300   47.5030 H   0  0  0  0  0  0  0  0  0  0  0  0
   45.7340   31.9440   48.1100 O   0  0  0  0  0  0  0  0  0  0  0  0
   45.1790   33.0470   47.4720 C   0  0  0  0  0  3  0  0  0  0  0  0
   45.0890   33.8500   48.2360 H   0  0  0  0  0  0  0  0  0  0  0  0
   43.7120   35.3610   41.6800 C   0  0  0  0  0  3  0  0  0  0  0  0
   43.0020   34.6810   40.8050 C   0  0  0  0  0  3  0  0  0  0  0  0
   42.3910   35.3110   39.5920 C   0  0  0  0  0  0  0  0  0  0  0  0
   42.2970   34.4770   38.8460 H   0  0  0  0  0  0  0  0  0  0  0  0
   41.4240   35.7840   39.8080 H   0  0  0  0  0  0  0  0  0  0  0  0
   43.1180   36.0330   39.1270 H   0  0  0  0  0  0  0  0  0  0  0  0
  1  6  1  0  0  0  0
  2  3  1  0  0  0  0
  2  1  2  0  0  0  0
  3  4  2  0  0  0  0
  4  5  1  0  0  0  0
  6  5  2  0  0  0  0
  7  1  1  0  0  0  0
  8  3  1  0  0  0  0
  9  5  1  6  0  0  0
  9 15  1  0  0  0  0
 10  9  1  0  0  0  0
 10 12  1  0  0  0  0
 11 10  1  0  0  0  0
 12 13  1  0  0  0  0
 12 14  1  0  0  0  0
 15 14  1  0  0  0  0
 15 16  1  0  0  0  0
 17  2  1  0  0  0  0
 18 17  2  0  0  0  0
 19 21  1  0  0  0  0
 19 18  1  0  0  0  0
 20 19  1  0  0  0  0
 22 19  1  0  0  0  0
M  END
>  <minimizedAffinity>
-4.12258673

>  <minimizedRMSD>
1.10677922

$$$$
