
 OpenBabel03242516343D

 43 46  0  0  1  0  0  0  0  0999 V2000
   47.7730   33.8140   39.7600 O   0  0  0  0  0  0  0  0  0  0  0  0
   48.0380   34.5850   41.9820 C   0  0  2  0  0  0  0  0  0  0  0  0
   46.7130   33.8240   42.2620 C   0  0  1  0  0  0  0  0  0  0  0  0
   47.2310   32.6050   42.5920 O   0  0  0  0  0  0  0  0  0  0  0  0
   48.1110   32.3140   41.5300 C   0  0  0  0  0  0  0  0  0  0  0  0
   48.5180   33.6610   40.8870 C   0  0  1  0  0  0  0  0  0  0  0  0
   47.8480   35.6020   41.6400 H   0  0  0  0  0  0  0  0  0  0  0  0
   46.1860   33.9070   41.2950 H   0  0  0  0  0  0  0  0  0  0  0  0
   47.6120   31.6630   40.7790 H   0  0  0  0  0  0  0  0  0  0  0  0
   49.0140   31.8850   41.9770 H   0  0  0  0  0  0  0  0  0  0  0  0
   49.6060   33.7550   40.7450 H   0  0  0  0  0  0  0  0  0  0  0  0
   44.5330   36.0510   44.4390 C   0  0  0  0  0  0  0  0  0  0  0  0
   45.1940   35.6490   43.2760 C   0  0  0  0  0  0  0  0  0  0  0  0
   45.9450   34.4890   43.3220 C   0  0  0  0  0  0  0  0  0  0  0  0
   45.9890   33.8090   44.5190 N   0  0  0  0  0  0  0  0  0  0  0  0
   45.3400   34.2250   45.6200 C   0  0  0  0  0  0  0  0  0  0  0  0
   44.6080   35.3550   45.5750 N   0  0  0  0  0  0  0  0  0  0  0  0
   43.9670   36.9680   44.3240 H   0  0  0  0  0  0  0  0  0  0  0  0
   45.2110   36.1130   42.3210 H   0  0  0  0  0  0  0  0  0  0  0  0
   45.3950   33.6670   46.5440 H   0  0  0  0  0  0  0  0  0  0  0  0
   48.9070   34.4480   43.0230 O   0  0  0  0  0  0  0  0  0  0  0  0
   49.1130   35.3180   43.4730 H   0  0  0  0  0  0  0  0  0  0  0  0
   49.1410   32.9020   38.0740 C   0  0  1  0  0  0  0  0  0  0  0  0
   48.4550   34.2520   38.6280 C   0  0  1  0  0  0  0  0  0  0  0  0
   47.5800   34.4370   37.6230 O   0  0  0  0  0  0  0  0  0  0  0  0
   46.8570   33.2220   37.6900 C   0  0  0  0  0  0  0  0  0  0  0  0
   47.9480   32.2330   37.4540 C   0  0  1  0  0  0  0  0  0  0  0  0
   49.6310   32.3970   38.8820 H   0  0  0  0  0  0  0  0  0  0  0  0
   49.3470   34.8430   38.8050 H   0  0  0  0  0  0  0  0  0  0  0  0
   46.0300   33.1980   36.9760 H   0  0  0  0  0  0  0  0  0  0  0  0
   46.4060   33.0430   38.6810 H   0  0  0  0  0  0  0  0  0  0  0  0
   47.8150   31.2620   37.9970 H   0  0  0  0  0  0  0  0  0  0  0  0
   49.9550   33.3360   37.0220 O   0  0  0  0  0  0  0  0  0  0  0  0
   50.9040   33.2000   37.2760 H   0  0  0  0  0  0  0  0  0  0  0  0
   48.1190   31.9570   36.1430 O   0  0  0  0  0  0  0  0  0  0  0  0
   47.3090   31.0670   35.5310 C   0  0  1  0  0  3  0  0  0  0  0  0
   46.5130   31.6020   34.3570 C   0  0  0  0  0  3  0  0  0  0  0  0
   45.4360   31.7080   34.6040 H   0  0  0  0  0  0  0  0  0  0  0  0
   46.6090   30.4380   33.3680 C   0  0  0  0  0  3  0  0  0  0  0  0
   45.6160   30.1270   32.9860 H   0  0  0  0  0  0  0  0  0  0  0  0
   47.2830   29.4140   34.0300 O   0  0  0  0  0  0  0  0  0  0  0  0
   48.2210   30.0890   34.7770 C   0  0  0  0  0  3  0  0  0  0  0  0
   48.8140   29.4760   35.4500 H   0  0  0  0  0  0  0  0  0  0  0  0
  1  6  1  0  0  0  0
  2  7  1  6  0  0  0
  2  3  1  0  0  0  0
  2 21  1  0  0  0  0
  3  8  1  6  0  0  0
  3  4  1  0  0  0  0
  3 14  1  0  0  0  0
  5 10  1  0  0  0  0
  5  4  1  0  0  0  0
  6 11  1  6  0  0  0
  6  5  1  0  0  0  0
  6  2  1  0  0  0  0
  9  5  1  0  0  0  0
 12 17  1  0  0  0  0
 13 14  1  0  0  0  0
 13 12  2  0  0  0  0
 14 15  2  0  0  0  0
 15 16  1  0  0  0  0
 16 20  1  0  0  0  0
 17 16  2  0  0  0  0
 18 12  1  0  0  0  0
 19 13  1  0  0  0  0
 21 22  1  0  0  0  0
 23 24  1  0  0  0  0
 23 28  1  1  0  0  0
 24 29  1  1  0  0  0
 24  1  1  0  0  0  0
 25 26  1  0  0  0  0
 25 24  1  0  0  0  0
 26 31  1  0  0  0  0
 27 26  1  0  0  0  0
 27 32  1  1  0  0  0
 27 23  1  0  0  0  0
 30 26  1  0  0  0  0
 33 34  1  0  0  0  0
 33 23  1  0  0  0  0
 35 27  1  0  0  0  0
 36 35  1  6  0  0  0
 37 38  1  0  0  0  0
 37 36  1  0  0  0  0
 39 41  1  0  0  0  0
 39 37  1  0  0  0  0
 40 39  1  0  0  0  0
 41 42  1  0  0  0  0
 42 43  1  0  0  0  0
 42 36  1  0  0  0  0
M  END
>  <minimizedAffinity>
-5.30398703

>  <minimizedRMSD>
0.700953484

$$$$
