
     RDKit          3D

 27 28  0  0  0  0  0  0  0  0999 V2000
   46.2883   35.1588   42.5048 C   0  0  0  0  0  0  0  0  0  0  0  0
   46.8382   34.0882   43.2522 C   0  0  0  0  0  0  0  0  0  0  0  0
   46.3669   33.8019   44.5753 C   0  0  0  0  0  0  0  0  0  0  0  0
   45.3933   34.5969   45.0705 N   0  0  0  0  0  0  0  0  0  0  0  0
   44.9031   35.6044   44.3388 C   0  0  0  0  0  0  0  0  0  0  0  0
   45.3305   35.8840   43.0915 N   0  0  0  0  0  0  0  0  0  0  0  0
   47.8469   33.4052   42.5622 O   0  0  0  0  0  0  0  0  0  0  0  0
   50.3855   33.1849   41.8401 O   0  0  0  0  0  0  0  0  0  0  0  0
   49.3209   34.1875   42.1605 P   0  0  0  0  0  0  0  0  0  0  0  0
   49.1130   35.1672   40.8136 O   0  0  0  0  0  0  0  0  0  0  0  0
   49.8573   35.2189   43.3805 O   0  0  0  0  0  0  0  0  0  0  0  0
   46.9403   32.9514   44.9005 H   0  0  0  0  0  0  0  0  0  0  0  0
   44.1372   36.0838   44.9781 H   0  0  0  0  0  0  0  0  0  0  0  0
   49.5937   36.0228   40.8404 H   0  0  0  0  0  0  0  0  0  0  0  0
   50.2618   34.6373   44.0824 H   0  0  0  0  0  0  0  0  0  0  0  0
   46.3689   35.8022   41.1681 C   0  0  2  0  0  0  0  0  0  0  0  0
   45.5955   35.1368   40.0971 C   0  0  2  0  0  0  0  0  0  0  0  0
   45.3375   35.8615   39.3030 H   0  0  0  0  0  0  0  0  0  0  0  0
   46.5875   34.1164   39.5214 C   0  0  2  0  0  0  0  0  0  0  0  0
   46.7551   34.2894   38.4301 H   0  0  0  0  0  0  0  0  0  0  0  0
   47.7941   34.3278   40.1864 O   0  0  0  0  0  0  0  0  0  0  0  0
   47.8009   35.6660   40.5521 C   0  0  1  0  0  0  0  0  0  0  0  0
   47.8258   36.2932   39.6649 H   0  0  0  0  0  0  0  0  0  0  0  0
   46.3397   36.9069   41.2299 H   0  0  0  0  0  0  0  0  0  0  0  0
   44.6861   34.5847   40.4772 H   0  0  0  0  0  0  0  0  0  0  0  0
   46.2230   33.0923   39.7291 H   0  0  0  0  0  0  0  0  0  0  0  0
   48.5186   35.8985   41.3366 H   0  0  0  0  0  0  0  0  0  0  0  0
  1  6  1  0
  1  2  2  0
  2  3  1  0
  3  4  2  0
  5  4  1  0
  6  5  2  0
  7  2  1  0
  8  9  2  0
  9  7  1  0
  9 11  1  0
 10  9  1  0
  3 12  1  0
  5 13  1  0
 10 14  1  0
 11 15  1  0
 16 17  1  0
 17 18  1  6
 17 19  1  0
 19 20  1  6
 19 21  1  0
 21 22  1  0
 22 23  1  6
 22 16  1  0
 16 24  1  1
 17 25  1  0
 19 26  1  0
 22 27  1  0
  1 16  1  0
M  ISO  7  12  14  13  14  14   3  15   3  18  15  20  15  23  15
M  END
>  <DihAtoms>  (1) 
5,0,15,16

>  <DihDeg>  (1) 
68.38278999220903

$$$$
