
 OpenBabel03252505583D

 35 37  0  0  1  0  0  0  0  0999 V2000
   44.7560   35.2660   45.0630 C   0  0  0  0  0  0  0  0  0  0  0  0
   45.2620   34.5750   43.9410 C   0  0  0  0  0  0  0  0  0  0  0  0
   45.8160   33.3220   44.1690 C   0  0  0  0  0  0  0  0  0  0  0  0
   45.8370   32.8460   45.4330 N   0  0  0  0  0  0  0  0  0  0  0  0
   45.3480   33.5280   46.4700 C   0  0  0  0  0  0  0  0  0  0  0  0
   44.8100   34.7290   46.2920 N   0  0  0  0  0  0  0  0  0  0  0  0
   44.3220   36.2430   44.8950 H   0  0  0  0  0  0  0  0  0  0  0  0
   46.3850   32.4420   43.1670 C   0  0  2  0  0  3  0  0  0  0  0  0
   46.0070   31.0050   43.5720 C   0  0  0  0  0  3  0  0  0  0  0  0
   45.3340   30.5240   42.8340 H   0  0  0  0  0  0  0  0  0  0  0  0
   47.2860   30.2360   43.6470 C   0  0  0  0  0  3  0  0  0  0  0  0
   47.2770   29.4300   44.4000 H   0  0  0  0  0  0  0  0  0  0  0  0
   48.1540   31.2230   44.1140 O   0  0  0  0  0  0  0  0  0  0  0  0
   47.8970   32.3250   43.3010 C   0  0  0  0  0  3  0  0  0  0  0  0
   48.3060   32.1130   42.2940 H   0  0  0  0  0  0  0  0  0  0  0  0
   45.1830   35.1980   42.6020 C   0  0  0  0  0  0  0  0  0  0  0  0
   44.7020   36.4840   42.8540 F   0  0  0  0  0  0  0  0  0  0  0  0
   44.1800   34.5240   41.9040 F   0  0  0  0  0  0  0  0  0  0  0  0
   46.3710   35.2300   42.0100 F   0  0  0  0  0  0  0  0  0  0  0  0
   45.3720   33.0330   47.7710 O   0  0  0  0  0  0  0  0  0  0  0  0
   44.8570   31.7470   48.0580 C   0  0  0  0  0  0  0  0  0  0  0  0
   44.5530   31.7520   49.1330 H   0  0  0  0  0  0  0  0  0  0  0  0
   43.9550   31.4940   47.4750 H   0  0  0  0  0  0  0  0  0  0  0  0
   45.9630   30.7860   47.9120 C   0  0  0  0  0  0  0  0  0  0  0  0
   46.0390   29.6180   47.1630 C   0  0  0  0  0  0  0  0  0  0  0  0
   47.1960   28.9060   47.2080 C   0  0  0  0  0  0  0  0  0  0  0  0
   48.2430   29.2890   47.9360 N   0  0  0  0  0  0  0  0  0  0  0  0
   48.1630   30.4170   48.6550 C   0  0  0  0  0  0  0  0  0  0  0  0
   47.0260   31.1770   48.6520 N   0  0  0  0  0  0  0  0  0  0  0  0
   45.1410   29.4220   46.6270 H   0  0  0  0  0  0  0  0  0  0  0  0
   47.1870   28.0040   46.5990 H   0  0  0  0  0  0  0  0  0  0  0  0
   49.3770   30.7590   49.4310 C   0  0  0  0  0  0  0  0  0  0  0  0
   49.5350   32.1250   49.5460 F   0  0  0  0  0  0  0  0  0  0  0  0
   50.5110   30.2360   48.8050 F   0  0  0  0  0  0  0  0  0  0  0  0
   49.3470   30.2350   50.7080 F   0  0  0  0  0  0  0  0  0  0  0  0
  1  6  1  0  0  0  0
  2  3  1  0  0  0  0
  2  1  2  0  0  0  0
  3  4  2  0  0  0  0
  4  5  1  0  0  0  0
  5 20  1  0  0  0  0
  6  5  2  0  0  0  0
  7  1  1  0  0  0  0
  8 14  1  0  0  0  0
  8  9  1  0  0  0  0
  8  3  1  1  0  0  0
  9 11  1  0  0  0  0
 10  9  1  0  0  0  0
 11 13  1  0  0  0  0
 11 12  1  0  0  0  0
 14 13  1  0  0  0  0
 15 14  1  0  0  0  0
 16 17  1  0  0  0  0
 16  2  1  0  0  0  0
 18 16  1  0  0  0  0
 19 16  1  0  0  0  0
 20 21  1  0  0  0  0
 21 22  1  0  0  0  0
 23 21  1  0  0  0  0
 24 21  1  0  0  0  0
 24 29  1  0  0  0  0
 25 26  1  0  0  0  0
 25 24  2  0  0  0  0
 26 27  2  0  0  0  0
 27 28  1  0  0  0  0
 28 32  1  0  0  0  0
 29 28  2  0  0  0  0
 30 25  1  0  0  0  0
 31 26  1  0  0  0  0
 32 33  1  0  0  0  0
 32 35  1  0  0  0  0
 34 32  1  0  0  0  0
M  END
>  <minimizedAffinity>
-5.4199338

>  <minimizedRMSD>
1.11757982

$$$$
