
 OpenBabel03252507083D

 23 24  0  0  1  0  0  0  0  0999 V2000
   44.5680   35.7900   44.6410 C   0  0  0  0  0  0  0  0  0  0  0  0
   45.1770   35.8020   43.3620 C   0  0  0  0  0  0  0  0  0  0  0  0
   46.1430   34.8440   43.0830 C   0  0  0  0  0  0  0  0  0  0  0  0
   46.4550   33.9410   44.0600 N   0  0  0  0  0  0  0  0  0  0  0  0
   45.8640   33.9500   45.2620 C   0  0  0  0  0  0  0  0  0  0  0  0
   44.9180   34.8760   45.5570 N   0  0  0  0  0  0  0  0  0  0  0  0
   43.8270   36.5820   44.7470 H   0  0  0  0  0  0  0  0  0  0  0  0
   44.9180   36.5260   42.5990 H   0  0  0  0  0  0  0  0  0  0  0  0
   46.1990   32.9790   46.3140 C   0  0  1  0  0  3  0  0  0  0  0  0
   45.2050   33.0400   47.4830 C   0  0  0  0  0  3  0  0  0  0  0  0
   45.4660   33.9210   48.1050 H   0  0  0  0  0  0  0  0  0  0  0  0
   45.5990   31.7290   48.1340 C   0  0  0  0  0  3  0  0  0  0  0  0
   44.8530   31.3430   48.8410 H   0  0  0  0  0  0  0  0  0  0  0  0
   45.9530   30.8590   47.1200 O   0  0  0  0  0  0  0  0  0  0  0  0
   46.0420   31.5450   45.9360 C   0  0  0  0  0  3  0  0  0  0  0  0
   45.0640   31.3840   45.3970 H   0  0  0  0  0  0  0  0  0  0  0  0
   46.7290   34.8680   41.8350 O   0  0  0  0  0  0  0  0  0  0  0  0
   48.6830   33.2430   41.1060 O   0  0  0  0  0  0  0  0  0  0  0  0
   48.4240   34.6360   41.6910 P   0  0  0  0  0  0  0  0  0  0  0  0
   49.0750   35.8440   40.7540 O   0  0  0  0  0  0  0  0  0  0  0  0
   49.9020   36.2000   41.1950 H   0  0  0  0  0  0  0  0  0  0  0  0
   49.0670   34.6430   43.2690 O   0  0  0  0  0  0  0  0  0  0  0  0
   48.9910   33.7320   43.6140 H   0  0  0  0  0  0  0  0  0  0  0  0
  1  7  1  0  0  0  0
  1  6  1  0  0  0  0
  2  1  2  0  0  0  0
  3  2  1  0  0  0  0
  3  4  2  0  0  0  0
  4  5  1  0  0  0  0
  5  6  2  0  0  0  0
  8  2  1  0  0  0  0
  9  5  1  6  0  0  0
  9 10  1  0  0  0  0
 10 11  1  0  0  0  0
 10 12  1  0  0  0  0
 12 13  1  0  0  0  0
 14 12  1  0  0  0  0
 15  9  1  0  0  0  0
 15 14  1  0  0  0  0
 16 15  1  0  0  0  0
 17  3  1  0  0  0  0
 18 19  2  0  0  0  0
 19 17  1  0  0  0  0
 19 22  1  0  0  0  0
 20 21  1  0  0  0  0
 20 19  1  0  0  0  0
 22 23  1  0  0  0  0
M  END
>  <minimizedAffinity>
-5.36906767

>  <minimizedRMSD>
0.461837769

$$$$
