
 OpenBabel03252507083D

 23 24  0  0  1  0  0  0  0  0999 V2000
   44.6120   36.0830   44.5140 C   0  0  0  0  0  0  0  0  0  0  0  0
   45.2640   36.0220   43.2570 C   0  0  0  0  0  0  0  0  0  0  0  0
   46.0570   34.9160   42.9790 C   0  0  0  0  0  0  0  0  0  0  0  0
   46.1670   33.9460   43.9350 N   0  0  0  0  0  0  0  0  0  0  0  0
   45.5410   34.0260   45.1160 C   0  0  0  0  0  0  0  0  0  0  0  0
   44.7600   35.0970   45.4100 N   0  0  0  0  0  0  0  0  0  0  0  0
   44.0190   36.9900   44.6220 H   0  0  0  0  0  0  0  0  0  0  0  0
   45.1660   36.8000   42.5110 H   0  0  0  0  0  0  0  0  0  0  0  0
   45.6580   32.9830   46.1460 C   0  0  1  0  0  3  0  0  0  0  0  0
   47.1170   32.7470   46.5560 C   0  0  0  0  0  3  0  0  0  0  0  0
   47.5980   32.1320   45.7670 H   0  0  0  0  0  0  0  0  0  0  0  0
   46.8320   31.9580   47.8190 C   0  0  0  0  0  3  0  0  0  0  0  0
   47.6870   31.8980   48.5060 H   0  0  0  0  0  0  0  0  0  0  0  0
   45.6730   32.4700   48.3680 O   0  0  0  0  0  0  0  0  0  0  0  0
   45.0830   33.3300   47.4770 C   0  0  0  0  0  3  0  0  0  0  0  0
   45.3930   34.3710   47.7810 H   0  0  0  0  0  0  0  0  0  0  0  0
   46.6860   34.8690   41.7530 O   0  0  0  0  0  0  0  0  0  0  0  0
   48.6590   33.2580   41.0470 O   0  0  0  0  0  0  0  0  0  0  0  0
   48.3840   34.6260   41.6820 P   0  0  0  0  0  0  0  0  0  0  0  0
   49.0910   35.8680   40.8330 O   0  0  0  0  0  0  0  0  0  0  0  0
   49.8980   36.1950   41.3290 H   0  0  0  0  0  0  0  0  0  0  0  0
   48.9490   34.5560   43.2880 O   0  0  0  0  0  0  0  0  0  0  0  0
   48.8480   33.6310   43.5880 H   0  0  0  0  0  0  0  0  0  0  0  0
  1  7  1  0  0  0  0
  1  6  1  0  0  0  0
  2  1  2  0  0  0  0
  3  2  1  0  0  0  0
  3  4  2  0  0  0  0
  4  5  1  0  0  0  0
  5  6  2  0  0  0  0
  8  2  1  0  0  0  0
  9  5  1  6  0  0  0
  9 10  1  0  0  0  0
  9 15  1  0  0  0  0
 10 12  1  0  0  0  0
 11 10  1  0  0  0  0
 12 14  1  0  0  0  0
 12 13  1  0  0  0  0
 15 16  1  0  0  0  0
 15 14  1  0  0  0  0
 17  3  1  0  0  0  0
 18 19  2  0  0  0  0
 19 17  1  0  0  0  0
 19 22  1  0  0  0  0
 20 21  1  0  0  0  0
 20 19  1  0  0  0  0
 22 23  1  0  0  0  0
M  END
>  <minimizedAffinity>
-5.18853807

>  <minimizedRMSD>
0.260338753

$$$$
