
 OpenBabel03252509043D

 47 49  0  0  1  0  0  0  0  0999 V2000
   46.7030   34.5100   43.5470 N   0  0  0  0  0  0  0  0  0  0  0  0
   46.2330   35.5470   42.7120 C   0  0  0  0  0  0  0  0  0  0  0  0
   44.7250   35.7210   42.7010 C   0  0  0  0  0  0  0  0  0  0  0  0
   44.0510   35.4160   44.0140 C   0  0  0  0  0  0  0  0  0  0  0  0
   45.0650   35.0820   45.0930 C   0  0  0  0  0  0  0  0  0  0  0  0
   45.8840   33.8870   44.4650 C   0  0  2  0  0  0  0  0  0  0  0  0
   46.6400   36.5100   43.1120 H   0  0  0  0  0  0  0  0  0  0  0  0
   46.5460   35.5170   41.6610 H   0  0  0  0  0  0  0  0  0  0  0  0
   44.5190   36.7390   42.3390 H   0  0  0  0  0  0  0  0  0  0  0  0
   44.3260   35.0140   41.9360 H   0  0  0  0  0  0  0  0  0  0  0  0
   43.4160   36.2760   44.3020 H   0  0  0  0  0  0  0  0  0  0  0  0
   43.3630   34.5460   43.9500 H   0  0  0  0  0  0  0  0  0  0  0  0
   44.5390   34.6670   45.9600 H   0  0  0  0  0  0  0  0  0  0  0  0
   45.7540   35.9080   45.2940 H   0  0  0  0  0  0  0  0  0  0  0  0
   45.1110   33.1920   44.0820 H   0  0  0  0  0  0  0  0  0  0  0  0
   47.7960   33.7610   42.9870 C   0  0  0  0  0  0  0  0  0  0  0  0
   48.3810   33.3060   43.8230 H   0  0  0  0  0  0  0  0  0  0  0  0
   48.4570   34.4650   42.4300 H   0  0  0  0  0  0  0  0  0  0  0  0
   47.2510   32.6750   42.1130 C   0  0  0  0  0  0  0  0  0  0  0  0
   47.5000   31.6900   42.4990 H   0  0  0  0  0  0  0  0  0  0  0  0
   46.1480   32.7400   42.0460 H   0  0  0  0  0  0  0  0  0  0  0  0
   49.0760   31.9830   38.8930 C   0  0  0  0  0  0  0  0  0  0  0  0
   48.5540   31.8500   40.2010 C   0  0  0  0  0  0  0  0  0  0  0  0
   47.7870   32.8410   40.7350 C   0  0  0  0  0  0  0  0  0  0  0  0
   47.5580   33.9230   39.9770 N   0  0  0  0  0  0  0  0  0  0  0  0
   48.0420   34.0630   38.7430 C   0  0  0  0  0  0  0  0  0  0  0  0
   48.8010   33.1060   38.1880 N   0  0  0  0  0  0  0  0  0  0  0  0
   49.6820   31.2090   38.4590 H   0  0  0  0  0  0  0  0  0  0  0  0
   48.7650   30.9520   40.7840 H   0  0  0  0  0  0  0  0  0  0  0  0
   47.7980   34.9750   38.2160 H   0  0  0  0  0  0  0  0  0  0  0  0
   46.5690   33.4240   45.5660 O   0  0  0  0  0  0  0  0  0  0  0  0
   45.5520   31.1000   44.7480 O   0  0  0  0  0  0  0  0  0  0  0  0
   46.2520   31.8210   45.9190 P   0  0  2  0  0  0  0  0  0  0  0  0
   45.0640   31.8330   47.1600 O   0  0  0  0  0  0  0  0  0  0  0  0
   45.4940   32.0640   48.0250 H   0  0  0  0  0  0  0  0  0  0  0  0
   47.5490   30.9610   46.4820 O   0  0  0  0  0  0  0  0  0  0  0  0
   47.9740   30.0470   45.5400 C   0  0  0  0  0  0  0  0  0  0  0  0
   47.1890   29.3060   45.2570 H   0  0  0  0  0  0  0  0  0  0  0  0
   48.2530   30.5870   44.6140 H   0  0  0  0  0  0  0  0  0  0  0  0
   49.1610   29.2370   45.9970 C   0  0  1  0  0  3  0  0  0  0  0  0
   49.1600   29.0410   47.4980 C   0  0  0  0  0  3  0  0  0  0  0  0
   50.1800   28.8680   47.8900 H   0  0  0  0  0  0  0  0  0  0  0  0
   48.3690   27.7440   47.6460 C   0  0  0  0  0  3  0  0  0  0  0  0
   47.5640   27.8490   48.4170 H   0  0  0  0  0  0  0  0  0  0  0  0
   47.8360   27.4740   46.3860 O   0  0  0  0  0  0  0  0  0  0  0  0
   48.9080   27.7910   45.5500 C   0  0  0  0  0  3  0  0  0  0  0  0
   49.7540   27.1350   45.8960 H   0  0  0  0  0  0  0  0  0  0  0  0
  1  6  1  0  0  0  0
  2  7  1  0  0  0  0
  2  1  1  0  0  0  0
  3  2  1  0  0  0  0
  3  4  1  0  0  0  0
  4 11  1  0  0  0  0
  4  5  1  0  0  0  0
  5 14  1  0  0  0  0
  5 13  1  0  0  0  0
  6 15  1  6  0  0  0
  6  5  1  0  0  0  0
  6 31  1  0  0  0  0
  8  2  1  0  0  0  0
  9  3  1  0  0  0  0
 10  3  1  0  0  0  0
 12  4  1  0  0  0  0
 16  1  1  0  0  0  0
 16 17  1  0  0  0  0
 18 16  1  0  0  0  0
 19 20  1  0  0  0  0
 19 16  1  0  0  0  0
 21 19  1  0  0  0  0
 22 23  1  0  0  0  0
 23 24  2  0  0  0  0
 23 29  1  0  0  0  0
 24 19  1  0  0  0  0
 25 24  1  0  0  0  0
 26 25  2  0  0  0  0
 27 26  1  0  0  0  0
 27 22  2  0  0  0  0
 28 22  1  0  0  0  0
 30 26  1  0  0  0  0
 31 33  1  0  0  0  0
 33 32  2  6  0  0  0
 33 36  1  0  0  0  0
 33 34  1  0  0  0  0
 34 35  1  0  0  0  0
 37 36  1  0  0  0  0
 38 37  1  0  0  0  0
 39 37  1  0  0  0  0
 40 37  1  1  0  0  0
 40 41  1  0  0  0  0
 41 43  1  0  0  0  0
 41 42  1  0  0  0  0
 43 44  1  0  0  0  0
 45 43  1  0  0  0  0
 46 47  1  0  0  0  0
 46 40  1  0  0  0  0
 46 45  1  0  0  0  0
M  END
>  <minimizedAffinity>
-4.03206539

>  <minimizedRMSD>
1.28410196

$$$$
