
 OpenBabel03252502173D

 23 24  0  0  1  0  0  0  0  0999 V2000
   46.3740   35.1890   42.5950 C   0  0  0  0  0  0  0  0  0  0  0  0
   46.8870   34.0900   43.3190 C   0  0  0  0  0  0  0  0  0  0  0  0
   46.3150   33.7950   44.5770 C   0  0  0  0  0  0  0  0  0  0  0  0
   45.3070   34.5740   45.0310 N   0  0  0  0  0  0  0  0  0  0  0  0
   44.8520   35.6200   44.2950 C   0  0  0  0  0  0  0  0  0  0  0  0
   45.3660   35.9370   43.0940 N   0  0  0  0  0  0  0  0  0  0  0  0
   46.8010   35.4220   41.6390 H   0  0  0  0  0  0  0  0  0  0  0  0
   44.0540   36.1880   44.7230 H   0  0  0  0  0  0  0  0  0  0  0  0
   46.8770   32.6310   45.3120 C   0  0  2  0  0  3  0  0  0  0  0  0
   46.0840   31.3660   45.0470 C   0  0  0  0  0  3  0  0  0  0  0  0
   46.3960   30.8360   44.1360 H   0  0  0  0  0  0  0  0  0  0  0  0
   46.3770   30.5940   46.3170 C   0  0  0  0  0  3  0  0  0  0  0  0
   47.3920   30.1770   46.2060 H   0  0  0  0  0  0  0  0  0  0  0  0
   46.2440   31.5620   47.2880 O   0  0  0  0  0  0  0  0  0  0  0  0
   46.7160   32.7510   46.7980 C   0  0  0  0  0  3  0  0  0  0  0  0
   47.7350   32.9210   47.2380 H   0  0  0  0  0  0  0  0  0  0  0  0
   47.9150   33.3830   42.7370 O   0  0  0  0  0  0  0  0  0  0  0  0
   50.4100   33.1800   41.8810 O   0  0  0  0  0  0  0  0  0  0  0  0
   49.3400   34.1660   42.1840 P   0  0  0  0  0  0  0  0  0  0  0  0
   49.0170   35.0340   40.7650 O   0  0  0  0  0  0  0  0  0  0  0  0
   48.8200   34.3470   40.0620 H   0  0  0  0  0  0  0  0  0  0  0  0
   49.9040   35.2420   43.3540 O   0  0  0  0  0  0  0  0  0  0  0  0
   49.1870   35.6340   43.8980 H   0  0  0  0  0  0  0  0  0  0  0  0
  1  6  2  0  0  0  0
  1  2  1  0  0  0  0
  2  3  2  0  0  0  0
  3  4  1  0  0  0  0
  5  8  1  0  0  0  0
  5  4  2  0  0  0  0
  6  5  1  0  0  0  0
  7  1  1  0  0  0  0
  9  3  1  6  0  0  0
  9 15  1  0  0  0  0
 10  9  1  0  0  0  0
 10 12  1  0  0  0  0
 11 10  1  0  0  0  0
 12 14  1  0  0  0  0
 13 12  1  0  0  0  0
 15 16  1  0  0  0  0
 15 14  1  0  0  0  0
 17  2  1  0  0  0  0
 18 19  2  0  0  0  0
 19 17  1  0  0  0  0
 19 22  1  0  0  0  0
 20 19  1  0  0  0  0
 21 20  1  0  0  0  0
 22 23  1  0  0  0  0
M  END
>  <minimizedAffinity>
-5.11591387

>  <minimizedRMSD>
0.670361698

$$$$
