REMARK  Name = 
REMARK  12 active torsions:
REMARK  status: ('A' for Active; 'I' for Inactive)
REMARK    1  A    between atoms: C_1  and  C_2
REMARK    2  A    between atoms: C_1  and  C_12
REMARK    3  A    between atoms: C_3  and  S_8
REMARK    4  A    between atoms: S_8  and  C_9
REMARK    5  A    between atoms: C_9  and  C_10
REMARK    6  A    between atoms: C_10  and  N_11
REMARK    7  A    between atoms: C_12  and  C_13
REMARK    8  A    between atoms: C_16  and  O_18
REMARK    9  A    between atoms: O_18  and  P_20
REMARK   10  A    between atoms: P_20  and  O_21
REMARK   11  A    between atoms: P_20  and  O_22
REMARK   12  A    between atoms: O_22  and  C_37
REMARK                            x       y       z     vdW  Elec       q    Type
REMARK                         _______ _______ _______ _____ _____    ______ ____
ROOT
ATOM      1  C   UNL     1      46.750  34.952  41.952  0.00  0.00    +0.000 C 
ATOM      2  H   UNL     1      47.032  34.414  42.896  0.00  0.00    +0.000 HD
ATOM      3  H   UNL     1      47.040  36.006  42.138  0.00  0.00    +0.000 HD
ENDROOT
BRANCH   1   4
ATOM      4  C   UNL     1      45.280  34.943  41.758  0.00  0.00    +0.000 A 
ATOM      5  C   UNL     1      44.441  35.605  42.683  0.00  0.00    +0.000 A 
ATOM      6  S   UNL     1      42.766  35.315  42.028  0.00  0.00    +0.000 S 
ATOM      7  C   UNL     1      43.484  34.311  40.556  0.00  0.00    +0.000 A 
ATOM      8  N   UNL     1      44.604  34.376  40.795  0.00  0.00    +0.000 NA
ATOM      9  H   UNL     1      44.671  36.162  43.577  0.00  0.00    +0.000 HD
BRANCH   7  10
ATOM     10  O   UNL     1      42.696  33.736  39.568  0.00  0.00    +0.000 OA
BRANCH  10  12
ATOM     11  O   UNL     1      40.750  33.998  37.788  0.00  0.00    +0.000 OA
ATOM     12  P   UNL     1      41.779  34.774  38.599  0.00  0.00    +0.000 P 
BRANCH  12  13
ATOM     13  O   UNL     1      40.926  35.827  39.643  0.00  0.00    +0.000 OA
ATOM     14  H   UNL     1      40.150  35.384  40.053  0.00  0.00    +0.000 HD
ENDBRANCH  12  13
BRANCH  12  15
ATOM     15  O   UNL     1      42.792  35.714  37.614  0.00  0.00    +0.000 OA
BRANCH  15  16
ATOM     16  C   UNL     1      42.137  36.809  37.089  0.00  0.00    +0.000 C 
ATOM     17  C   UNL     1      40.659  36.611  37.357  0.00  0.00    +0.000 C 
ATOM     18  H   UNL     1      40.161  36.489  36.378  0.00  0.00    +0.000 HD
ATOM     19  C   UNL     1      40.294  37.923  38.036  0.00  0.00    +0.000 C 
ATOM     20  H   UNL     1      40.235  38.692  37.228  0.00  0.00    +0.000 HD
ATOM     21  O   UNL     1      41.401  38.161  38.830  0.00  0.00    +0.000 OA
ATOM     22  C   UNL     1      42.471  38.009  37.949  0.00  0.00    +0.000 C 
ATOM     23  H   UNL     1      43.388  37.866  38.560  0.00  0.00    +0.000 HD
ENDBRANCH  15  16
ENDBRANCH  12  15
ENDBRANCH  10  12
ENDBRANCH   7  10
ENDBRANCH   1   4
BRANCH   1  24
ATOM     24  C   UNL     1      47.516  34.430  40.772  0.00  0.00    +0.000 C 
ATOM     25  H   UNL     1      47.753  35.221  40.027  0.00  0.00    +0.000 HD
ATOM     26  H   UNL     1      46.818  33.742  40.242  0.00  0.00    +0.000 HD
BRANCH  24  27
ATOM     27  C   UNL     1      48.775  33.762  41.129  0.00  0.00    +0.000 A 
ATOM     28  C   UNL     1      49.105  32.627  40.414  0.00  0.00    +0.000 A 
ATOM     29  C   UNL     1      50.271  31.938  40.684  0.00  0.00    +0.000 A 
ATOM     30  N   UNL     1      51.080  32.428  41.688  0.00  0.00    +0.000 NA
ATOM     31  C   UNL     1      50.715  33.552  42.368  0.00  0.00    +0.000 A 
ATOM     32  N   UNL     1      49.591  34.188  42.084  0.00  0.00    +0.000 NA
ATOM     33  H   UNL     1      50.563  31.038  40.139  0.00  0.00    +0.000 HD
ATOM     34  H   UNL     1      51.335  33.955  43.160  0.00  0.00    +0.000 HD
BRANCH  28  35
ATOM     35  S   UNL     1      48.011  32.038  39.119  0.00  0.00    +0.000 S 
BRANCH  35  36
ATOM     36  C   UNL     1      48.825  32.158  37.514  0.00  0.00    +0.000 C 
ATOM     37  H   UNL     1      49.915  32.132  37.636  0.00  0.00    +0.000 HD
ATOM     38  H   UNL     1      48.497  31.337  36.860  0.00  0.00    +0.000 HD
BRANCH  36  39
ATOM     39  C   UNL     1      48.489  33.491  36.892  0.00  0.00    +0.000 C 
ATOM     40  H   UNL     1      49.359  34.205  36.941  0.00  0.00    +0.000 HD
ATOM     41  H   UNL     1      47.663  33.983  37.429  0.00  0.00    +0.000 HD
BRANCH  39  42
ATOM     42  N   UNL     1      48.188  33.289  35.505  0.00  0.00    +0.000 NA
ATOM     43  H   UNL     1      47.653  32.406  35.394  0.00  0.00    +0.000 HD
ATOM     44  H   UNL     1      47.553  34.071  35.208  0.00  0.00    +0.000 HD
ENDBRANCH  39  42
ENDBRANCH  36  39
ENDBRANCH  35  36
ENDBRANCH  28  35
ENDBRANCH  24  27
ENDBRANCH   1  24
TORSDOF 12
