
 OpenBabel03252502173D

 23 24  0  0  1  0  0  0  0  0999 V2000
   38.3530   29.0480   42.6720 C   0  0  0  0  0  0  0  0  0  0  0  0
   37.4880   28.0740   42.1270 C   0  0  0  0  0  0  0  0  0  0  0  0
   38.0180   26.7930   41.8490 C   0  0  0  0  0  0  0  0  0  0  0  0
   39.3230   26.5570   42.1160 N   0  0  0  0  0  0  0  0  0  0  0  0
   40.1110   27.5310   42.6410 C   0  0  0  0  0  0  0  0  0  0  0  0
   39.6510   28.7620   42.9210 N   0  0  0  0  0  0  0  0  0  0  0  0
   37.9620   30.0230   42.8860 H   0  0  0  0  0  0  0  0  0  0  0  0
   41.1310   27.2670   42.8230 H   0  0  0  0  0  0  0  0  0  0  0  0
   37.0810   25.7900   41.2770 C   0  0  2  0  0  3  0  0  0  0  0  0
   37.4650   24.3770   41.6680 C   0  0  0  0  0  3  0  0  0  0  0  0
   37.0700   24.0690   42.6450 H   0  0  0  0  0  0  0  0  0  0  0  0
   36.8660   23.6050   40.5100 C   0  0  0  0  0  3  0  0  0  0  0  0
   35.7820   23.5400   40.7020 H   0  0  0  0  0  0  0  0  0  0  0  0
   37.2230   24.3780   39.4260 O   0  0  0  0  0  0  0  0  0  0  0  0
   37.1690   25.6980   39.7850 C   0  0  0  0  0  3  0  0  0  0  0  0
   36.2230   26.1300   39.3590 H   0  0  0  0  0  0  0  0  0  0  0  0
   36.1830   28.4500   41.9050 O   0  0  0  0  0  0  0  0  0  0  0  0
   36.7350   29.5140   39.5470 O   0  0  0  0  0  0  0  0  0  0  0  0
   35.7730   29.5800   40.6780 P   0  0  0  0  0  0  0  0  0  0  0  0
   34.2290   29.2450   40.0670 O   0  0  0  0  0  0  0  0  0  0  0  0
   34.3090   28.3700   39.5850 H   0  0  0  0  0  0  0  0  0  0  0  0
   35.7740   31.1460   41.3050 O   0  0  0  0  0  0  0  0  0  0  0  0
   35.5200   31.1840   42.2530 H   0  0  0  0  0  0  0  0  0  0  0  0
  1  7  1  0  0  0  0
  1  6  1  0  0  0  0
  2  1  2  0  0  0  0
  3  4  2  0  0  0  0
  3  2  1  0  0  0  0
  4  5  1  0  0  0  0
  5  8  1  0  0  0  0
  5  6  2  0  0  0  0
  9 10  1  0  0  0  0
  9  3  1  1  0  0  0
 10 11  1  0  0  0  0
 12 13  1  0  0  0  0
 12 10  1  0  0  0  0
 14 15  1  0  0  0  0
 14 12  1  0  0  0  0
 15  9  1  0  0  0  0
 16 15  1  0  0  0  0
 17  2  1  0  0  0  0
 18 19  2  0  0  0  0
 19 22  1  0  0  0  0
 19 17  1  0  0  0  0
 20 19  1  0  0  0  0
 21 20  1  0  0  0  0
 22 23  1  0  0  0  0
M  END
>  <minimizedAffinity>
-4.59952593

$$$$

 OpenBabel03252502173D

 23 24  0  0  1  0  0  0  0  0999 V2000
   36.5730   30.7260   38.7920 C   0  0  0  0  0  0  0  0  0  0  0  0
   37.2610   30.6390   40.0230 C   0  0  0  0  0  0  0  0  0  0  0  0
   37.7940   29.3860   40.4010 C   0  0  0  0  0  0  0  0  0  0  0  0
   37.6230   28.3300   39.5730 N   0  0  0  0  0  0  0  0  0  0  0  0
   36.9520   28.4680   38.4000 C   0  0  0  0  0  0  0  0  0  0  0  0
   36.4280   29.6400   38.0010 N   0  0  0  0  0  0  0  0  0  0  0  0
   36.1640   31.6720   38.4960 H   0  0  0  0  0  0  0  0  0  0  0  0
   36.8580   27.5880   37.8020 H   0  0  0  0  0  0  0  0  0  0  0  0
   38.5140   29.3290   41.7010 C   0  0  2  0  0  3  0  0  0  0  0  0
   39.5400   28.2130   41.7250 C   0  0  0  0  0  3  0  0  0  0  0  0
   40.5090   28.4980   41.2940 H   0  0  0  0  0  0  0  0  0  0  0  0
   39.6050   27.9400   43.2130 C   0  0  0  0  0  3  0  0  0  0  0  0
   40.2230   28.7400   43.6540 H   0  0  0  0  0  0  0  0  0  0  0  0
   38.2750   27.9610   43.5750 O   0  0  0  0  0  0  0  0  0  0  0  0
   37.6290   28.9160   42.8370 C   0  0  0  0  0  3  0  0  0  0  0  0
   37.4790   29.8140   43.4960 H   0  0  0  0  0  0  0  0  0  0  0  0
   37.3610   31.7930   40.7660 O   0  0  0  0  0  0  0  0  0  0  0  0
   39.2100   32.8610   39.2040 O   0  0  0  0  0  0  0  0  0  0  0  0
   38.0990   33.2070   40.1280 P   0  0  0  0  0  0  0  0  0  0  0  0
   36.9650   34.1170   39.2580 O   0  0  0  0  0  0  0  0  0  0  0  0
   36.7350   33.5690   38.4510 H   0  0  0  0  0  0  0  0  0  0  0  0
   38.7070   34.1610   41.3800 O   0  0  0  0  0  0  0  0  0  0  0  0
   38.1880   34.0880   42.2100 H   0  0  0  0  0  0  0  0  0  0  0  0
  1  2  1  0  0  0  0
  2  3  2  0  0  0  0
  2 17  1  0  0  0  0
  4  3  1  0  0  0  0
  5  4  2  0  0  0  0
  6  5  1  0  0  0  0
  6  1  2  0  0  0  0
  7  1  1  0  0  0  0
  8  5  1  0  0  0  0
  9  3  1  6  0  0  0
  9 10  1  0  0  0  0
  9 15  1  0  0  0  0
 10 12  1  0  0  0  0
 11 10  1  0  0  0  0
 12 14  1  0  0  0  0
 12 13  1  0  0  0  0
 15 16  1  0  0  0  0
 15 14  1  0  0  0  0
 18 19  2  0  0  0  0
 19 17  1  0  0  0  0
 19 22  1  0  0  0  0
 20 19  1  0  0  0  0
 21 20  1  0  0  0  0
 22 23  1  0  0  0  0
M  END
>  <minimizedAffinity>
-4.47470427

$$$$

 OpenBabel03252502173D

 23 24  0  0  1  0  0  0  0  0999 V2000
   38.0190   29.3220   42.8070 C   0  0  0  0  0  0  0  0  0  0  0  0
   37.8580   29.1310   41.4170 C   0  0  0  0  0  0  0  0  0  0  0  0
   37.4010   27.8720   40.9660 C   0  0  0  0  0  0  0  0  0  0  0  0
   37.1390   26.9100   41.8800 N   0  0  0  0  0  0  0  0  0  0  0  0
   37.3110   27.1460   43.2060 C   0  0  0  0  0  0  0  0  0  0  0  0
   37.7440   28.3270   43.6800 N   0  0  0  0  0  0  0  0  0  0  0  0
   38.3660   30.2730   43.1600 H   0  0  0  0  0  0  0  0  0  0  0  0
   37.0840   26.3360   43.8640 H   0  0  0  0  0  0  0  0  0  0  0  0
   37.2410   27.7050   39.4970 C   0  0  2  0  0  3  0  0  0  0  0  0
   35.8100   27.9480   39.0580 C   0  0  0  0  0  3  0  0  0  0  0  0
   35.5790   29.0060   38.8800 H   0  0  0  0  0  0  0  0  0  0  0  0
   35.7690   27.1080   37.7980 C   0  0  0  0  0  3  0  0  0  0  0  0
   36.2820   27.6890   37.0140 H   0  0  0  0  0  0  0  0  0  0  0  0
   36.4170   25.9560   38.1910 O   0  0  0  0  0  0  0  0  0  0  0  0
   37.4300   26.2880   39.0500 C   0  0  0  0  0  3  0  0  0  0  0  0
   38.3950   26.2370   38.4760 H   0  0  0  0  0  0  0  0  0  0  0  0
   38.1610   30.1960   40.6000 O   0  0  0  0  0  0  0  0  0  0  0  0
   36.6270   31.4970   38.8810 O   0  0  0  0  0  0  0  0  0  0  0  0
   37.0280   31.4550   40.3120 P   0  0  0  0  0  0  0  0  0  0  0  0
   35.6290   31.2050   41.2360 O   0  0  0  0  0  0  0  0  0  0  0  0
   35.1950   30.3840   40.8580 H   0  0  0  0  0  0  0  0  0  0  0  0
   37.6930   32.9450   40.7380 O   0  0  0  0  0  0  0  0  0  0  0  0
   38.3350   32.8870   41.4780 H   0  0  0  0  0  0  0  0  0  0  0  0
  1  7  1  0  0  0  0
  1  6  1  0  0  0  0
  2  1  2  0  0  0  0
  3  2  1  0  0  0  0
  3  4  2  0  0  0  0
  4  5  1  0  0  0  0
  5  6  2  0  0  0  0
  5  8  1  0  0  0  0
  9  3  1  1  0  0  0
 10  9  1  0  0  0  0
 11 10  1  0  0  0  0
 12 14  1  0  0  0  0
 12 10  1  0  0  0  0
 13 12  1  0  0  0  0
 14 15  1  0  0  0  0
 15  9  1  0  0  0  0
 16 15  1  0  0  0  0
 17  2  1  0  0  0  0
 18 19  2  0  0  0  0
 19 17  1  0  0  0  0
 19 22  1  0  0  0  0
 19 20  1  0  0  0  0
 21 20  1  0  0  0  0
 22 23  1  0  0  0  0
M  END
>  <minimizedAffinity>
-4.46431017

$$$$

 OpenBabel03252502173D

 23 24  0  0  1  0  0  0  0  0999 V2000
   38.5400   29.5620   42.6390 C   0  0  0  0  0  0  0  0  0  0  0  0
   38.0300   29.5890   41.3220 C   0  0  0  0  0  0  0  0  0  0  0  0
   36.9220   28.7650   41.0190 C   0  0  0  0  0  0  0  0  0  0  0  0
   36.4010   27.9910   41.9980 N   0  0  0  0  0  0  0  0  0  0  0  0
   36.9290   28.0020   43.2490 C   0  0  0  0  0  0  0  0  0  0  0  0
   37.9820   28.7690   43.5820 N   0  0  0  0  0  0  0  0  0  0  0  0
   39.3800   30.1820   42.8800 H   0  0  0  0  0  0  0  0  0  0  0  0
   36.4630   27.3620   43.9660 H   0  0  0  0  0  0  0  0  0  0  0  0
   36.4100   28.8180   39.6240 C   0  0  2  0  0  3  0  0  0  0  0  0
   34.9460   29.2090   39.5790 C   0  0  0  0  0  3  0  0  0  0  0  0
   34.7810   30.2950   39.5950 H   0  0  0  0  0  0  0  0  0  0  0  0
   34.5340   28.5610   38.2740 C   0  0  0  0  0  3  0  0  0  0  0  0
   34.9040   29.2150   37.4660 H   0  0  0  0  0  0  0  0  0  0  0  0
   35.1440   27.3270   38.3530 O   0  0  0  0  0  0  0  0  0  0  0  0
   36.3560   27.4700   38.9730 C   0  0  0  0  0  3  0  0  0  0  0  0
   37.1520   27.4420   38.1800 H   0  0  0  0  0  0  0  0  0  0  0  0
   38.6580   30.4240   40.4260 O   0  0  0  0  0  0  0  0  0  0  0  0
   38.6530   32.6810   39.0450 O   0  0  0  0  0  0  0  0  0  0  0  0
   38.3050   32.1040   40.3700 P   0  0  0  0  0  0  0  0  0  0  0  0
   36.6510   32.3640   40.6320 O   0  0  0  0  0  0  0  0  0  0  0  0
   36.1850   31.9830   39.8300 H   0  0  0  0  0  0  0  0  0  0  0  0
   39.1720   32.9210   41.5650 O   0  0  0  0  0  0  0  0  0  0  0  0
   39.3340   32.3770   42.3670 H   0  0  0  0  0  0  0  0  0  0  0  0
  1  7  1  0  0  0  0
  1  6  1  0  0  0  0
  2  1  2  0  0  0  0
  3  2  1  0  0  0  0
  3  4  2  0  0  0  0
  4  5  1  0  0  0  0
  5  6  2  0  0  0  0
  5  8  1  0  0  0  0
  9  3  1  1  0  0  0
 10 11  1  0  0  0  0
 10  9  1  0  0  0  0
 12 14  1  0  0  0  0
 12 10  1  0  0  0  0
 13 12  1  0  0  0  0
 14 15  1  0  0  0  0
 15  9  1  0  0  0  0
 16 15  1  0  0  0  0
 17  2  1  0  0  0  0
 18 19  2  0  0  0  0
 19 17  1  0  0  0  0
 19 20  1  0  0  0  0
 19 22  1  0  0  0  0
 21 20  1  0  0  0  0
 22 23  1  0  0  0  0
M  END
>  <minimizedAffinity>
-4.43336201

$$$$

 OpenBabel03252502173D

 23 24  0  0  1  0  0  0  0  0999 V2000
   39.0520   31.0630   41.3780 C   0  0  0  0  0  0  0  0  0  0  0  0
   38.2060   30.0470   40.8790 C   0  0  0  0  0  0  0  0  0  0  0  0
   37.1280   30.4270   40.0470 C   0  0  0  0  0  0  0  0  0  0  0  0
   36.9550   31.7390   39.7660 N   0  0  0  0  0  0  0  0  0  0  0  0
   37.7980   32.6760   40.2720 C   0  0  0  0  0  0  0  0  0  0  0  0
   38.8350   32.3600   41.0680 N   0  0  0  0  0  0  0  0  0  0  0  0
   39.8720   30.7860   42.0100 H   0  0  0  0  0  0  0  0  0  0  0  0
   37.5940   33.6900   40.0060 H   0  0  0  0  0  0  0  0  0  0  0  0
   36.2580   29.3340   39.5370 C   0  0  2  0  0  3  0  0  0  0  0  0
   35.7190   29.6460   38.1540 C   0  0  0  0  0  3  0  0  0  0  0  0
   36.4050   29.3680   37.3430 H   0  0  0  0  0  0  0  0  0  0  0  0
   34.4470   28.8230   38.1700 C   0  0  0  0  0  3  0  0  0  0  0  0
   34.7460   27.7760   37.9980 H   0  0  0  0  0  0  0  0  0  0  0  0
   33.9410   29.0890   39.4250 O   0  0  0  0  0  0  0  0  0  0  0  0
   34.9810   29.2020   40.3080 C   0  0  0  0  0  3  0  0  0  0  0  0
   35.0350   28.2460   40.8970 H   0  0  0  0  0  0  0  0  0  0  0  0
   38.4990   28.7540   41.2440 O   0  0  0  0  0  0  0  0  0  0  0  0
   39.0660   27.6480   43.5800 O   0  0  0  0  0  0  0  0  0  0  0  0
   37.9340   28.0920   42.7260 P   0  0  0  0  0  0  0  0  0  0  0  0
   37.0580   29.2570   43.5900 O   0  0  0  0  0  0  0  0  0  0  0  0
   37.7250   29.9540   43.8640 H   0  0  0  0  0  0  0  0  0  0  0  0
   36.9240   26.7740   42.4280 O   0  0  0  0  0  0  0  0  0  0  0  0
   36.4240   26.8510   41.5860 H   0  0  0  0  0  0  0  0  0  0  0  0
  1  7  1  0  0  0  0
  2 17  1  0  0  0  0
  2  1  2  0  0  0  0
  3  2  1  0  0  0  0
  4  3  2  0  0  0  0
  4  5  1  0  0  0  0
  5  6  2  0  0  0  0
  6  1  1  0  0  0  0
  8  5  1  0  0  0  0
  9  3  1  1  0  0  0
  9 15  1  0  0  0  0
 10 12  1  0  0  0  0
 10  9  1  0  0  0  0
 11 10  1  0  0  0  0
 12 14  1  0  0  0  0
 13 12  1  0  0  0  0
 14 15  1  0  0  0  0
 15 16  1  0  0  0  0
 17 19  1  0  0  0  0
 19 18  2  0  0  0  0
 19 20  1  0  0  0  0
 20 21  1  0  0  0  0
 22 19  1  0  0  0  0
 23 22  1  0  0  0  0
M  END
>  <minimizedAffinity>
-4.41535187

$$$$

 OpenBabel03252502173D

 23 24  0  0  1  0  0  0  0  0999 V2000
   36.4590   27.2800   39.1690 C   0  0  0  0  0  0  0  0  0  0  0  0
   36.8560   27.0340   40.5020 C   0  0  0  0  0  0  0  0  0  0  0  0
   37.8030   26.0110   40.7360 C   0  0  0  0  0  0  0  0  0  0  0  0
   38.2850   25.3170   39.6810 N   0  0  0  0  0  0  0  0  0  0  0  0
   37.8690   25.5940   38.4180 C   0  0  0  0  0  0  0  0  0  0  0  0
   36.9700   26.5570   38.1480 N   0  0  0  0  0  0  0  0  0  0  0  0
   35.7410   28.0540   38.9790 H   0  0  0  0  0  0  0  0  0  0  0  0
   38.2950   25.0010   37.6380 H   0  0  0  0  0  0  0  0  0  0  0  0
   38.2010   25.7780   42.1500 C   0  0  2  0  0  3  0  0  0  0  0  0
   39.5140   26.4600   42.4820 C   0  0  0  0  0  3  0  0  0  0  0  0
   39.4010   27.5130   42.7730 H   0  0  0  0  0  0  0  0  0  0  0  0
   39.9970   25.5760   43.6140 C   0  0  0  0  0  3  0  0  0  0  0  0
   39.4270   25.8720   44.5110 H   0  0  0  0  0  0  0  0  0  0  0  0
   39.7230   24.3120   43.1370 O   0  0  0  0  0  0  0  0  0  0  0  0
   38.5540   24.3490   42.4270 C   0  0  0  0  0  3  0  0  0  0  0  0
   37.7450   23.9170   43.0760 H   0  0  0  0  0  0  0  0  0  0  0  0
   36.2860   27.8160   41.4790 O   0  0  0  0  0  0  0  0  0  0  0  0
   38.1770   29.6320   41.1190 O   0  0  0  0  0  0  0  0  0  0  0  0
   36.9350   29.3540   41.8880 P   0  0  0  0  0  0  0  0  0  0  0  0
   35.8170   30.5750   41.5280 O   0  0  0  0  0  0  0  0  0  0  0  0
   35.7420   30.5920   40.5280 H   0  0  0  0  0  0  0  0  0  0  0  0
   37.2880   29.4170   43.5360 O   0  0  0  0  0  0  0  0  0  0  0  0
   36.6880   28.8650   44.0830 H   0  0  0  0  0  0  0  0  0  0  0  0
  1  2  1  0  0  0  0
  2  3  2  0  0  0  0
  2 17  1  0  0  0  0
  4  3  1  0  0  0  0
  5  4  2  0  0  0  0
  6  5  1  0  0  0  0
  6  1  2  0  0  0  0
  7  1  1  0  0  0  0
  8  5  1  0  0  0  0
  9  3  1  6  0  0  0
  9 15  1  0  0  0  0
  9 10  1  0  0  0  0
 10 11  1  0  0  0  0
 10 12  1  0  0  0  0
 12 13  1  0  0  0  0
 14 12  1  0  0  0  0
 15 16  1  0  0  0  0
 15 14  1  0  0  0  0
 17 19  1  0  0  0  0
 18 19  2  0  0  0  0
 19 22  1  0  0  0  0
 20 19  1  0  0  0  0
 21 20  1  0  0  0  0
 22 23  1  0  0  0  0
M  END
>  <minimizedAffinity>
-4.33997536

$$$$

 OpenBabel03252502173D

 23 24  0  0  1  0  0  0  0  0999 V2000
   39.6180   28.6940   40.1550 C   0  0  0  0  0  0  0  0  0  0  0  0
   39.1450   30.0190   40.0230 C   0  0  0  0  0  0  0  0  0  0  0  0
   39.4510   30.7190   38.8330 C   0  0  0  0  0  0  0  0  0  0  0  0
   40.1790   30.0940   37.8800 N   0  0  0  0  0  0  0  0  0  0  0  0
   40.6090   28.8190   38.0580 C   0  0  0  0  0  0  0  0  0  0  0  0
   40.3430   28.1150   39.1730 N   0  0  0  0  0  0  0  0  0  0  0  0
   39.3930   28.1540   41.0540 H   0  0  0  0  0  0  0  0  0  0  0  0
   41.1800   28.3950   37.2600 H   0  0  0  0  0  0  0  0  0  0  0  0
   38.9370   32.1100   38.7240 C   0  0  2  0  0  3  0  0  0  0  0  0
   39.0890   32.8670   40.0290 C   0  0  0  0  0  3  0  0  0  0  0  0
   40.0770   33.3290   40.1570 H   0  0  0  0  0  0  0  0  0  0  0  0
   37.9710   33.8790   39.8850 C   0  0  0  0  0  3  0  0  0  0  0  0
   38.3390   34.6600   39.1990 H   0  0  0  0  0  0  0  0  0  0  0  0
   36.9380   33.1080   39.3940 O   0  0  0  0  0  0  0  0  0  0  0  0
   37.4520   32.1680   38.5420 C   0  0  0  0  0  3  0  0  0  0  0  0
   37.2510   32.5130   37.4920 H   0  0  0  0  0  0  0  0  0  0  0  0
   38.4160   30.5310   41.0710 O   0  0  0  0  0  0  0  0  0  0  0  0
   36.5000   28.7720   40.5840 O   0  0  0  0  0  0  0  0  0  0  0  0
   36.8730   29.8970   41.4810 P   0  0  0  0  0  0  0  0  0  0  0  0
   36.8840   29.3120   43.0710 O   0  0  0  0  0  0  0  0  0  0  0  0
   37.4900   28.5130   43.0640 H   0  0  0  0  0  0  0  0  0  0  0  0
   35.6980   31.1030   41.3620 O   0  0  0  0  0  0  0  0  0  0  0  0
   36.0420   32.0000   41.5640 H   0  0  0  0  0  0  0  0  0  0  0  0
  1  7  1  0  0  0  0
  2  1  1  0  0  0  0
  2 17  1  0  0  0  0
  3  2  2  0  0  0  0
  4  5  2  0  0  0  0
  4  3  1  0  0  0  0
  5  6  1  0  0  0  0
  6  1  2  0  0  0  0
  8  5  1  0  0  0  0
  9  3  1  1  0  0  0
  9 10  1  0  0  0  0
 10 11  1  0  0  0  0
 12 10  1  0  0  0  0
 13 12  1  0  0  0  0
 14 12  1  0  0  0  0
 15  9  1  0  0  0  0
 15 14  1  0  0  0  0
 16 15  1  0  0  0  0
 17 19  1  0  0  0  0
 18 19  2  0  0  0  0
 19 20  1  0  0  0  0
 21 20  1  0  0  0  0
 22 19  1  0  0  0  0
 22 23  1  0  0  0  0
M  END
>  <minimizedAffinity>
-4.30575943

$$$$

 OpenBabel03252502173D

 23 24  0  0  1  0  0  0  0  0999 V2000
   37.1270   29.4830   38.1300 C   0  0  0  0  0  0  0  0  0  0  0  0
   37.8220   30.1840   39.1400 C   0  0  0  0  0  0  0  0  0  0  0  0
   38.4080   31.4260   38.8070 C   0  0  0  0  0  0  0  0  0  0  0  0
   38.2780   31.8880   37.5420 N   0  0  0  0  0  0  0  0  0  0  0  0
   37.5980   31.1730   36.6080 C   0  0  0  0  0  0  0  0  0  0  0  0
   37.0260   29.9870   36.8800 N   0  0  0  0  0  0  0  0  0  0  0  0
   36.6790   28.5390   38.3720 H   0  0  0  0  0  0  0  0  0  0  0  0
   37.5400   31.6040   35.6320 H   0  0  0  0  0  0  0  0  0  0  0  0
   39.1310   32.1390   39.8930 C   0  0  2  0  0  3  0  0  0  0  0  0
   38.8250   33.6240   39.8900 C   0  0  0  0  0  3  0  0  0  0  0  0
   37.9110   33.8840   40.4390 H   0  0  0  0  0  0  0  0  0  0  0  0
   40.0850   34.1590   40.5390 C   0  0  0  0  0  3  0  0  0  0  0  0
   39.9860   33.9730   41.6210 H   0  0  0  0  0  0  0  0  0  0  0  0
   41.0720   33.4330   39.9080 O   0  0  0  0  0  0  0  0  0  0  0  0
   40.6150   32.1620   39.6850 C   0  0  0  0  0  3  0  0  0  0  0  0
   41.0780   31.4910   40.4580 H   0  0  0  0  0  0  0  0  0  0  0  0
   37.8770   29.5970   40.3840 O   0  0  0  0  0  0  0  0  0  0  0  0
   35.5530   28.5650   41.1140 O   0  0  0  0  0  0  0  0  0  0  0  0
   36.5300   29.6330   41.4500 P   0  0  0  0  0  0  0  0  0  0  0  0
   37.0410   29.3850   43.0470 O   0  0  0  0  0  0  0  0  0  0  0  0
   37.3670   28.4380   43.0850 H   0  0  0  0  0  0  0  0  0  0  0  0
   35.7560   31.1290   41.3600 O   0  0  0  0  0  0  0  0  0  0  0  0
   36.3670   31.8700   41.1550 H   0  0  0  0  0  0  0  0  0  0  0  0
  1  7  1  0  0  0  0
  1  2  1  0  0  0  0
  2 17  1  0  0  0  0
  3  2  2  0  0  0  0
  4  3  1  0  0  0  0
  5  6  1  0  0  0  0
  5  4  2  0  0  0  0
  6  1  2  0  0  0  0
  8  5  1  0  0  0  0
  9  3  1  6  0  0  0
 10  9  1  0  0  0  0
 10 11  1  0  0  0  0
 10 12  1  0  0  0  0
 12 13  1  0  0  0  0
 14 12  1  0  0  0  0
 15  9  1  0  0  0  0
 15 14  1  0  0  0  0
 15 16  1  0  0  0  0
 17 19  1  0  0  0  0
 18 19  2  0  0  0  0
 19 20  1  0  0  0  0
 20 21  1  0  0  0  0
 22 19  1  0  0  0  0
 23 22  1  0  0  0  0
M  END
>  <minimizedAffinity>
-4.26787186

$$$$

 OpenBabel03252502173D

 23 24  0  0  1  0  0  0  0  0999 V2000
   35.7440   28.7580   39.2540 C   0  0  0  0  0  0  0  0  0  0  0  0
   36.2570   29.8170   40.0360 C   0  0  0  0  0  0  0  0  0  0  0  0
   36.8260   30.9240   39.3660 C   0  0  0  0  0  0  0  0  0  0  0  0
   36.8540   30.9210   38.0140 N   0  0  0  0  0  0  0  0  0  0  0  0
   36.3470   29.8760   37.3100 C   0  0  0  0  0  0  0  0  0  0  0  0
   35.7970   28.8030   37.9050 N   0  0  0  0  0  0  0  0  0  0  0  0
   35.3100   27.9130   39.7520 H   0  0  0  0  0  0  0  0  0  0  0  0
   36.4080   29.9480   36.2460 H   0  0  0  0  0  0  0  0  0  0  0  0
   37.3550   32.0220   40.2170 C   0  0  2  0  0  3  0  0  0  0  0  0
   37.3610   33.3480   39.4820 C   0  0  0  0  0  3  0  0  0  0  0  0
   36.4030   33.8810   39.5310 H   0  0  0  0  0  0  0  0  0  0  0  0
   38.4790   34.0580   40.2180 C   0  0  0  0  0  3  0  0  0  0  0  0
   38.0560   34.4040   41.1760 H   0  0  0  0  0  0  0  0  0  0  0  0
   39.4360   33.0710   40.3220 O   0  0  0  0  0  0  0  0  0  0  0  0
   38.8130   31.8690   40.5230 C   0  0  0  0  0  3  0  0  0  0  0  0
   38.9090   31.6130   41.6130 H   0  0  0  0  0  0  0  0  0  0  0  0
   36.1620   29.6890   41.4020 O   0  0  0  0  0  0  0  0  0  0  0  0
   36.4970   27.3900   42.6690 O   0  0  0  0  0  0  0  0  0  0  0  0
   37.2030   28.6380   42.2770 P   0  0  0  0  0  0  0  0  0  0  0  0
   38.5330   28.2040   41.3220 O   0  0  0  0  0  0  0  0  0  0  0  0
   38.1660   27.6350   40.5830 H   0  0  0  0  0  0  0  0  0  0  0  0
   37.7680   29.4050   43.6690 O   0  0  0  0  0  0  0  0  0  0  0  0
   37.8610   30.3770   43.5650 H   0  0  0  0  0  0  0  0  0  0  0  0
  1  7  1  0  0  0  0
  1  2  1  0  0  0  0
  2 17  1  0  0  0  0
  3  2  2  0  0  0  0
  4  3  1  0  0  0  0
  5  6  1  0  0  0  0
  5  4  2  0  0  0  0
  6  1  2  0  0  0  0
  8  5  1  0  0  0  0
  9  3  1  6  0  0  0
  9 15  1  0  0  0  0
 10 11  1  0  0  0  0
 10  9  1  0  0  0  0
 10 12  1  0  0  0  0
 12 14  1  0  0  0  0
 12 13  1  0  0  0  0
 14 15  1  0  0  0  0
 15 16  1  0  0  0  0
 17 19  1  0  0  0  0
 19 18  2  0  0  0  0
 19 22  1  0  0  0  0
 20 19  1  0  0  0  0
 21 20  1  0  0  0  0
 23 22  1  0  0  0  0
M  END
>  <minimizedAffinity>
-4.26730013

$$$$
