
 OpenBabel03252505583D

 35 37  0  0  1  0  0  0  0  0999 V2000
   44.9020   35.0950   45.1820 C   0  0  0  0  0  0  0  0  0  0  0  0
   45.6520   34.7710   44.0320 C   0  0  0  0  0  0  0  0  0  0  0  0
   46.4580   33.6420   44.1030 C   0  0  0  0  0  0  0  0  0  0  0  0
   46.4750   32.9320   45.2520 N   0  0  0  0  0  0  0  0  0  0  0  0
   45.7500   33.2690   46.3200 C   0  0  0  0  0  0  0  0  0  0  0  0
   44.9680   34.3410   46.2910 N   0  0  0  0  0  0  0  0  0  0  0  0
   44.2700   35.9730   45.1360 H   0  0  0  0  0  0  0  0  0  0  0  0
   47.3030   33.1250   43.0440 C   0  0  2  0  0  3  0  0  0  0  0  0
   46.4060   32.2510   42.1470 C   0  0  0  0  0  3  0  0  0  0  0  0
   46.3010   32.6660   41.1260 H   0  0  0  0  0  0  0  0  0  0  0  0
   47.0610   30.9100   42.0700 C   0  0  0  0  0  3  0  0  0  0  0  0
   46.3520   30.0730   41.9620 H   0  0  0  0  0  0  0  0  0  0  0  0
   47.6100   30.8170   43.3490 O   0  0  0  0  0  0  0  0  0  0  0  0
   48.2470   32.0410   43.5440 C   0  0  0  0  0  3  0  0  0  0  0  0
   49.1510   32.0640   42.9040 H   0  0  0  0  0  0  0  0  0  0  0  0
   45.5530   35.6250   42.8290 C   0  0  0  0  0  0  0  0  0  0  0  0
   44.9800   36.8080   43.2980 F   0  0  0  0  0  0  0  0  0  0  0  0
   44.6100   35.0280   41.9910 F   0  0  0  0  0  0  0  0  0  0  0  0
   46.7450   35.8430   42.2860 F   0  0  0  0  0  0  0  0  0  0  0  0
   45.7710   32.5330   47.5020 O   0  0  0  0  0  0  0  0  0  0  0  0
   45.3110   31.1960   47.5220 C   0  0  0  0  0  0  0  0  0  0  0  0
   44.6970   31.0780   48.4480 H   0  0  0  0  0  0  0  0  0  0  0  0
   44.6520   30.9450   46.6730 H   0  0  0  0  0  0  0  0  0  0  0  0
   46.4910   30.3250   47.6540 C   0  0  0  0  0  0  0  0  0  0  0  0
   46.7340   29.0650   47.1240 C   0  0  0  0  0  0  0  0  0  0  0  0
   47.9250   28.4730   47.4070 C   0  0  0  0  0  0  0  0  0  0  0  0
   48.8510   29.0580   48.1650 N   0  0  0  0  0  0  0  0  0  0  0  0
   48.6100   30.2740   48.6720 C   0  0  0  0  0  0  0  0  0  0  0  0
   47.4300   30.9210   48.4240 N   0  0  0  0  0  0  0  0  0  0  0  0
   45.9200   28.7070   46.5380 H   0  0  0  0  0  0  0  0  0  0  0  0
   48.0490   27.4880   46.9600 H   0  0  0  0  0  0  0  0  0  0  0  0
   49.6980   30.8400   49.5000 C   0  0  0  0  0  0  0  0  0  0  0  0
   49.6700   32.2200   49.4980 F   0  0  0  0  0  0  0  0  0  0  0  0
   50.9390   30.4260   49.0120 F   0  0  0  0  0  0  0  0  0  0  0  0
   49.6250   30.4250   50.8150 F   0  0  0  0  0  0  0  0  0  0  0  0
  1  6  1  0  0  0  0
  2  3  1  0  0  0  0
  2  1  2  0  0  0  0
  3  4  2  0  0  0  0
  4  5  1  0  0  0  0
  5 20  1  0  0  0  0
  6  5  2  0  0  0  0
  7  1  1  0  0  0  0
  8 14  1  0  0  0  0
  8  3  1  1  0  0  0
  9  8  1  0  0  0  0
 10  9  1  0  0  0  0
 11  9  1  0  0  0  0
 11 13  1  0  0  0  0
 12 11  1  0  0  0  0
 13 14  1  0  0  0  0
 15 14  1  0  0  0  0
 16 17  1  0  0  0  0
 16  2  1  0  0  0  0
 18 16  1  0  0  0  0
 19 16  1  0  0  0  0
 20 21  1  0  0  0  0
 21 24  1  0  0  0  0
 21 22  1  0  0  0  0
 23 21  1  0  0  0  0
 24 29  1  0  0  0  0
 25 26  1  0  0  0  0
 25 24  2  0  0  0  0
 26 27  2  0  0  0  0
 27 28  1  0  0  0  0
 28 32  1  0  0  0  0
 29 28  2  0  0  0  0
 30 25  1  0  0  0  0
 31 26  1  0  0  0  0
 32 35  1  0  0  0  0
 33 32  1  0  0  0  0
 34 32  1  0  0  0  0
M  END
>  <minimizedAffinity>
-5.47086477

>  <minimizedRMSD>
0.365809798

$$$$
