
 OpenBabel03252504333D

 39 41  0  0  1  0  0  0  0  0999 V2000
   42.5050   35.3690   40.5800 O   0  0  0  0  0  0  0  0  0  0  0  0
   41.3130   35.5590   41.1960 C   0  0  0  0  0  0  0  0  0  0  0  0
   40.7870   36.4220   40.6480 H   0  0  0  0  0  0  0  0  0  0  0  0
   41.2820   35.8150   42.2530 H   0  0  0  0  0  0  0  0  0  0  0  0
   40.6050   33.2770   41.6760 C   0  0  0  0  0  0  0  0  0  0  0  0
   40.3220   34.4460   40.9840 C   0  0  0  0  0  0  0  0  0  0  0  0
   39.2020   34.5050   40.2130 C   0  0  0  0  0  0  0  0  0  0  0  0
   38.4530   33.4170   40.1840 N   0  0  0  0  0  0  0  0  0  0  0  0
   38.6980   32.2850   40.8370 C   0  0  0  0  0  0  0  0  0  0  0  0
   39.8340   32.1820   41.6360 N   0  0  0  0  0  0  0  0  0  0  0  0
   41.4870   33.1880   42.3020 H   0  0  0  0  0  0  0  0  0  0  0  0
   39.0170   35.4120   39.6960 H   0  0  0  0  0  0  0  0  0  0  0  0
   37.8530   31.0570   40.8050 C   0  0  1  0  0  3  0  0  0  0  0  0
   37.9630   30.4100   39.4210 C   0  0  0  0  0  3  0  0  0  0  0  0
   38.9440   30.6810   38.9700 H   0  0  0  0  0  0  0  0  0  0  0  0
   37.9540   28.9450   39.8260 C   0  0  0  0  0  3  0  0  0  0  0  0
   36.9010   28.5890   39.9050 H   0  0  0  0  0  0  0  0  0  0  0  0
   38.6210   28.8920   41.0470 O   0  0  0  0  0  0  0  0  0  0  0  0
   38.2840   30.0100   41.7770 C   0  0  0  0  0  3  0  0  0  0  0  0
   37.4440   29.7420   42.4750 H   0  0  0  0  0  0  0  0  0  0  0  0
   43.7760   35.2750   41.1330 C   0  0  0  0  0  3  0  0  0  0  0  0
   43.8510   35.5770   42.4270 C   0  0  0  0  0  3  0  0  0  0  0  0
   45.1130   35.5570   43.2570 C   0  0  0  0  0  0  0  0  0  0  0  0
   45.8860   35.1550   42.5370 H   0  0  0  0  0  0  0  0  0  0  0  0
   45.4100   36.5700   43.5720 H   0  0  0  0  0  0  0  0  0  0  0  0
   44.9430   34.6690   44.2890 O   0  0  0  0  0  0  0  0  0  0  0  0
   45.6810   32.5510   42.8490 O   0  0  0  0  0  0  0  0  0  0  0  0
   45.9720   33.3450   44.1010 P   0  0  1  0  0  0  0  0  0  0  0  0
   47.5880   33.8810   43.9910 O   0  0  0  0  0  0  0  0  0  0  0  0
   47.6470   34.7380   44.4500 H   0  0  0  0  0  0  0  0  0  0  0  0
   45.8800   32.3450   45.4550 O   0  0  0  0  0  0  0  0  0  0  0  0
   46.1630   33.0120   46.6290 C   0  0  0  0  0  0  0  0  0  0  0  0
   47.0270   32.3470   47.6550 C   0  0  0  0  0  0  0  0  0  0  0  0
   45.5250   32.4300   47.8670 C   0  0  0  0  0  0  0  0  0  0  0  0
   46.1990   34.1080   46.5470 H   0  0  0  0  0  0  0  0  0  0  0  0
   47.5010   31.3990   47.3770 H   0  0  0  0  0  0  0  0  0  0  0  0
   47.6350   33.0340   48.2680 H   0  0  0  0  0  0  0  0  0  0  0  0
   45.1290   33.0980   48.6470 H   0  0  0  0  0  0  0  0  0  0  0  0
   45.0380   31.4260   47.7930 H   0  0  0  0  0  0  0  0  0  0  0  0
  1 21  1  0  0  0  0
  1  2  1  0  0  0  0
  2  4  1  0  0  0  0
  3  2  1  0  0  0  0
  5 11  1  0  0  0  0
  6  2  1  0  0  0  0
  6  5  2  0  0  0  0
  7  6  1  0  0  0  0
  8  7  2  0  0  0  0
  8  9  1  0  0  0  0
  9 10  2  0  0  0  0
 10  5  1  0  0  0  0
 12  7  1  0  0  0  0
 13  9  1  6  0  0  0
 13 19  1  0  0  0  0
 14 16  1  0  0  0  0
 14 13  1  0  0  0  0
 15 14  1  0  0  0  0
 16 17  1  0  0  0  0
 16 18  1  0  0  0  0
 18 19  1  0  0  0  0
 19 20  1  0  0  0  0
 21 22  2  0  0  0  0
 22 23  1  0  0  0  0
 23 25  1  0  0  0  0
 23 26  1  0  0  0  0
 24 23  1  0  0  0  0
 28 27  2  6  0  0  0
 28 26  1  0  0  0  0
 28 31  1  0  0  0  0
 29 28  1  0  0  0  0
 29 30  1  0  0  0  0
 31 32  1  0  0  0  0
 32 33  1  0  0  0  0
 32 34  1  0  0  0  0
 33 34  1  0  0  0  0
 33 37  1  0  0  0  0
 34 38  1  0  0  0  0
 35 32  1  0  0  0  0
 36 33  1  0  0  0  0
 39 34  1  0  0  0  0
M  END
>  <minimizedAffinity>
-5.06252527

>  <minimizedRMSD>
0.631980538

$$$$
