
     RDKit          3D

 27 28  0  0  0  0  0  0  0  0999 V2000
   46.3521   35.2120   42.5842 C   0  0  0  0  0  0  0  0  0  0  0  0
   46.8772   34.0959   43.2725 C   0  0  0  0  0  0  0  0  0  0  0  0
   46.3260   33.7715   44.5337 C   0  0  0  0  0  0  0  0  0  0  0  0
   45.3260   34.5399   45.0233 N   0  0  0  0  0  0  0  0  0  0  0  0
   44.8585   35.6033   44.3185 C   0  0  0  0  0  0  0  0  0  0  0  0
   45.3520   35.9478   43.1169 N   0  0  0  0  0  0  0  0  0  0  0  0
   47.8941   33.4025   42.6583 O   0  0  0  0  0  0  0  0  0  0  0  0
   50.3989   33.2046   41.8290 O   0  0  0  0  0  0  0  0  0  0  0  0
   49.3333   34.1907   42.1471 P   0  0  0  0  0  0  0  0  0  0  0  0
   49.0359   35.1034   40.7500 O   0  0  0  0  0  0  0  0  0  0  0  0
   49.8899   35.2265   43.3565 O   0  0  0  0  0  0  0  0  0  0  0  0
   46.7629   35.4666   41.6269 H   0  0  0  0  0  0  0  0  0  0  0  0
   44.0675   36.1607   44.7726 H   0  0  0  0  0  0  0  0  0  0  0  0
   48.8432   34.4382   40.0246 H   0  0  0  0  0  0  0  0  0  0  0  0
   49.1685   35.6087   43.9018 H   0  0  0  0  0  0  0  0  0  0  0  0
   46.9002   32.5913   45.2324 C   0  0  2  0  0  0  0  0  0  0  0  0
   46.2256   32.3496   46.5691 C   0  0  2  0  0  0  0  0  0  0  0  0
   45.3055   31.7547   46.4941 H   0  0  0  0  0  0  0  0  0  0  0  0
   47.3398   31.6364   47.3066 C   0  0  2  0  0  0  0  0  0  0  0  0
   47.3493   30.5980   46.9371 H   0  0  0  0  0  0  0  0  0  0  0  0
   48.4454   32.3878   46.9689 O   0  0  0  0  0  0  0  0  0  0  0  0
   48.3154   32.8099   45.6723 C   0  0  1  0  0  0  0  0  0  0  0  0
   48.9748   32.1620   45.0355 H   0  0  0  0  0  0  0  0  0  0  0  0
   46.7784   31.6793   44.6176 H   0  0  0  0  0  0  0  0  0  0  0  0
   46.1036   33.3258   47.0758 H   0  0  0  0  0  0  0  0  0  0  0  0
   47.1799   31.6580   48.4099 H   0  0  0  0  0  0  0  0  0  0  0  0
   48.6297   33.8710   45.6424 H   0  0  0  0  0  0  0  0  0  0  0  0
  1  6  2  0
  1  2  1  0
  2  3  2  0
  3  4  1  0
  5  4  2  0
  6  5  1  0
  7  2  1  0
  8  9  2  0
  9  7  1  0
  9 11  1  0
 10  9  1  0
  1 12  1  0
  5 13  1  0
 10 14  1  0
 11 15  1  0
 16 17  1  0
 17 18  1  6
 17 19  1  0
 19 20  1  6
 19 21  1  0
 21 22  1  0
 22 23  1  6
 22 16  1  0
 16 24  1  6
 17 25  1  0
 19 26  1  0
 22 27  1  0
  3 16  1  0
M  ISO  7  12  14  13  14  14   3  15   3  18  15  20  15  23  15
M  END
>  <DihAtoms>  (1) 
1,2,15,16

>  <DihDeg>  (1) 
-89.9811377483582

$$$$
