
     RDKit          3D

 38 41  0  0  0  0  0  0  0  0999 V2000
   46.6362   32.5341   44.0820 C   0  0  1  0  0  0  0  0  0  0  0  0
   46.0495   33.8544   44.3867 C   0  0  0  0  0  0  0  0  0  0  0  0
   47.5496   33.6679   43.9475 C   0  0  2  0  0  0  0  0  0  0  0  0
   46.1542   30.7986   47.3741 C   0  0  0  0  0  0  0  0  0  0  0  0
   45.9420   31.7138   46.3540 C   0  0  0  0  0  0  0  0  0  0  0  0
   46.7622   31.6000   45.2418 C   0  0  0  0  0  0  0  0  0  0  0  0
   47.7091   30.6364   45.1878 N   0  0  0  0  0  0  0  0  0  0  0  0
   47.8794   29.7583   46.2201 C   0  0  0  0  0  0  0  0  0  0  0  0
   47.0902   29.8515   47.3136 N   0  0  0  0  0  0  0  0  0  0  0  0
   45.2725   30.8893   48.5844 C   0  0  0  0  0  0  0  0  0  0  0  0
   46.0522   31.3087   49.6356 F   0  0  0  0  0  0  0  0  0  0  0  0
   44.8271   29.6143   48.8640 F   0  0  0  0  0  0  0  0  0  0  0  0
   44.2451   31.7721   48.3909 F   0  0  0  0  0  0  0  0  0  0  0  0
   47.7982   34.1401   42.5489 C   0  0  0  0  0  0  0  0  0  0  0  0
   47.2740   33.6162   41.3713 C   0  0  0  0  0  0  0  0  0  0  0  0
   47.8381   34.4338   40.4131 C   0  0  0  0  0  0  0  0  0  0  0  0
   48.6490   35.3850   41.0058 C   0  0  0  0  0  0  0  0  0  0  0  0
   48.5746   35.1454   42.2937 O   0  0  0  0  0  0  0  0  0  0  0  0
   46.3134   31.9824   43.1589 H   0  0  0  0  0  0  0  0  0  0  0  0
   45.9436   34.2445   45.3959 H   0  0  0  0  0  0  0  0  0  0  0  0
   45.3800   34.3278   43.6397 H   0  0  0  0  0  0  0  0  0  0  0  0
   48.2793   33.8864   44.7222 H   0  0  0  0  0  0  0  0  0  0  0  0
   45.1871   32.4832   46.3964 H   0  0  0  0  0  0  0  0  0  0  0  0
   48.6493   29.0003   46.1397 H   0  0  0  0  0  0  0  0  0  0  0  0
   46.6028   32.7839   41.2788 H   0  0  0  0  0  0  0  0  0  0  0  0
   47.6728   34.3481   39.3408 H   0  0  0  0  0  0  0  0  0  0  0  0
   49.4509   36.4577   40.4316 C   0  0  1  0  0  0  0  0  0  0  0  0
   49.7925   36.0440   38.9942 C   0  0  2  0  0  0  0  0  0  0  0  0
   50.0420   34.9808   39.0005 H   0  0  0  0  0  0  0  0  0  0  0  0
   48.4786   36.3683   38.3043 C   0  0  1  0  0  0  0  0  0  0  0  0
   48.6356   36.8928   37.3455 H   0  0  0  0  0  0  0  0  0  0  0  0
   47.7197   37.1247   39.1599 O   0  0  0  0  0  0  0  0  0  0  0  0
   48.5578   37.6474   40.1434 C   0  0  1  0  0  0  0  0  0  0  0  0
   47.9684   37.9835   40.9995 H   0  0  0  0  0  0  0  0  0  0  0  0
   50.3477   36.7234   40.9987 H   0  0  0  0  0  0  0  0  0  0  0  0
   50.5860   36.7083   38.5975 H   0  0  0  0  0  0  0  0  0  0  0  0
   47.9001   35.4260   38.0875 H   0  0  0  0  0  0  0  0  0  0  0  0
   49.1205   38.4822   39.6776 H   0  0  0  0  0  0  0  0  0  0  0  0
  1  2  1  0
  1  6  1  0
  3  1  1  0
  3  2  1  0
  4 10  1  0
  5  4  2  0
  6  5  1  0
  7  6  2  0
  7  8  1  0
  8  9  2  0
  9  4  1  0
 10 12  1  0
 10 11  1  0
 13 10  1  0
 14  3  1  0
 15 14  2  0
 16 17  2  0
 16 15  1  0
 17 18  1  0
 18 14  1  0
  1 19  1  6
  2 20  1  0
  2 21  1  0
  3 22  1  1
  5 23  1  0
  8 24  1  0
 15 25  1  0
 16 26  1  0
 27 28  1  0
 28 29  1  1
 28 30  1  0
 30 31  1  6
 30 32  1  0
 32 33  1  0
 33 34  1  1
 33 27  1  0
 27 35  1  1
 28 36  1  0
 30 37  1  0
 33 38  1  0
 17 27  1  0
M  ISO  8  19  13  20  13  21  13  22  13  23  14  24  14  25  14  26  14
M  ISO  3  29  15  31  15  34  15
M  END
>  <DihAtoms>  (1) 
15,16,26,27

>  <DihDeg>  (1) 
124.77038566183109

$$$$
