
 OpenBabel03252504333D

 39 41  0  0  1  0  0  0  0  0999 V2000
   42.0990   35.4640   40.7040 O   0  0  0  0  0  0  0  0  0  0  0  0
   40.9860   35.3390   41.4660 C   0  0  0  0  0  0  0  0  0  0  0  0
   40.3040   36.2290   41.2110 H   0  0  0  0  0  0  0  0  0  0  0  0
   41.0670   35.3280   42.5510 H   0  0  0  0  0  0  0  0  0  0  0  0
   40.4040   32.9840   41.7030 C   0  0  0  0  0  0  0  0  0  0  0  0
   40.0980   34.1870   41.0810 C   0  0  0  0  0  0  0  0  0  0  0  0
   39.0450   34.2370   40.2200 C   0  0  0  0  0  0  0  0  0  0  0  0
   38.3800   33.1090   40.0400 N   0  0  0  0  0  0  0  0  0  0  0  0
   38.6500   31.9450   40.6220 C   0  0  0  0  0  0  0  0  0  0  0  0
   39.7190   31.8490   41.5090 N   0  0  0  0  0  0  0  0  0  0  0  0
   41.2340   32.9000   42.3960 H   0  0  0  0  0  0  0  0  0  0  0  0
   38.8390   35.1710   39.7600 H   0  0  0  0  0  0  0  0  0  0  0  0
   37.9000   30.6720   40.4200 C   0  0  1  0  0  3  0  0  0  0  0  0
   38.9000   29.5220   40.2630 C   0  0  0  0  0  3  0  0  0  0  0  0
   39.8420   29.7850   40.7920 H   0  0  0  0  0  0  0  0  0  0  0  0
   38.1530   28.4350   41.0140 C   0  0  0  0  0  3  0  0  0  0  0  0
   37.4530   27.9160   40.3200 H   0  0  0  0  0  0  0  0  0  0  0  0
   37.4830   29.0870   42.0460 O   0  0  0  0  0  0  0  0  0  0  0  0
   37.0340   30.3010   41.5760 C   0  0  0  0  0  3  0  0  0  0  0  0
   35.9630   30.1820   41.2540 H   0  0  0  0  0  0  0  0  0  0  0  0
   43.4340   35.4520   41.0890 C   0  0  0  0  0  3  0  0  0  0  0  0
   43.6420   35.4500   42.4040 C   0  0  0  0  0  3  0  0  0  0  0  0
   44.9950   35.4430   43.0750 C   0  0  0  0  0  0  0  0  0  0  0  0
   45.6570   34.9420   42.3090 H   0  0  0  0  0  0  0  0  0  0  0  0
   45.3650   36.4640   43.2540 H   0  0  0  0  0  0  0  0  0  0  0  0
   44.9210   34.6600   44.1990 O   0  0  0  0  0  0  0  0  0  0  0  0
   45.7150   32.5260   42.8140 O   0  0  0  0  0  0  0  0  0  0  0  0
   45.9610   33.3380   44.0640 P   0  0  1  0  0  0  0  0  0  0  0  0
   47.5770   33.8790   44.0010 O   0  0  0  0  0  0  0  0  0  0  0  0
   47.6180   34.7420   44.4500 H   0  0  0  0  0  0  0  0  0  0  0  0
   45.8260   32.3560   45.4270 O   0  0  0  0  0  0  0  0  0  0  0  0
   46.1340   33.0220   46.5950 C   0  0  0  0  0  0  0  0  0  0  0  0
   47.0490   32.3720   47.5860 C   0  0  0  0  0  0  0  0  0  0  0  0
   45.5540   32.4180   47.8510 C   0  0  0  0  0  0  0  0  0  0  0  0
   46.1410   34.1190   46.5190 H   0  0  0  0  0  0  0  0  0  0  0  0
   47.5360   31.4390   47.2850 H   0  0  0  0  0  0  0  0  0  0  0  0
   47.6620   33.0710   48.1820 H   0  0  0  0  0  0  0  0  0  0  0  0
   45.1690   33.0710   48.6490 H   0  0  0  0  0  0  0  0  0  0  0  0
   45.0890   31.4030   47.7870 H   0  0  0  0  0  0  0  0  0  0  0  0
  1 21  1  0  0  0  0
  1  2  1  0  0  0  0
  2  4  1  0  0  0  0
  3  2  1  0  0  0  0
  5 11  1  0  0  0  0
  6  2  1  0  0  0  0
  6  5  2  0  0  0  0
  7  6  1  0  0  0  0
  8  7  2  0  0  0  0
  8  9  1  0  0  0  0
  9 10  2  0  0  0  0
 10  5  1  0  0  0  0
 12  7  1  0  0  0  0
 13  9  1  1  0  0  0
 13 19  1  0  0  0  0
 14 13  1  0  0  0  0
 14 15  1  0  0  0  0
 14 16  1  0  0  0  0
 16 18  1  0  0  0  0
 17 16  1  0  0  0  0
 19 18  1  0  0  0  0
 20 19  1  0  0  0  0
 21 22  2  0  0  0  0
 22 23  1  0  0  0  0
 23 25  1  0  0  0  0
 23 26  1  0  0  0  0
 24 23  1  0  0  0  0
 28 27  2  6  0  0  0
 28 26  1  0  0  0  0
 28 31  1  0  0  0  0
 29 28  1  0  0  0  0
 29 30  1  0  0  0  0
 31 32  1  0  0  0  0
 32 33  1  0  0  0  0
 32 34  1  0  0  0  0
 33 34  1  0  0  0  0
 33 37  1  0  0  0  0
 34 38  1  0  0  0  0
 35 32  1  0  0  0  0
 36 33  1  0  0  0  0
 39 34  1  0  0  0  0
M  END
>  <minimizedAffinity>
-5.05628729

>  <minimizedRMSD>
0.751257062

$$$$
