
     RDKit          3D

 27 28  0  0  0  0  0  0  0  0999 V2000
   46.3521   35.2120   42.5842 C   0  0  0  0  0  0  0  0  0  0  0  0
   46.8772   34.0959   43.2725 C   0  0  0  0  0  0  0  0  0  0  0  0
   46.3260   33.7715   44.5337 C   0  0  0  0  0  0  0  0  0  0  0  0
   45.3260   34.5399   45.0233 N   0  0  0  0  0  0  0  0  0  0  0  0
   44.8585   35.6033   44.3185 C   0  0  0  0  0  0  0  0  0  0  0  0
   45.3520   35.9478   43.1169 N   0  0  0  0  0  0  0  0  0  0  0  0
   47.8941   33.4025   42.6583 O   0  0  0  0  0  0  0  0  0  0  0  0
   50.3989   33.2046   41.8290 O   0  0  0  0  0  0  0  0  0  0  0  0
   49.3333   34.1907   42.1471 P   0  0  0  0  0  0  0  0  0  0  0  0
   49.0359   35.1034   40.7500 O   0  0  0  0  0  0  0  0  0  0  0  0
   49.8899   35.2265   43.3565 O   0  0  0  0  0  0  0  0  0  0  0  0
   46.7629   35.4666   41.6269 H   0  0  0  0  0  0  0  0  0  0  0  0
   44.0675   36.1607   44.7726 H   0  0  0  0  0  0  0  0  0  0  0  0
   48.8432   34.4382   40.0246 H   0  0  0  0  0  0  0  0  0  0  0  0
   49.1685   35.6087   43.9018 H   0  0  0  0  0  0  0  0  0  0  0  0
   46.9002   32.5913   45.2324 C   0  0  2  0  0  0  0  0  0  0  0  0
   46.0107   32.1270   46.3697 C   0  0  2  0  0  0  0  0  0  0  0  0
   45.2108   31.4458   46.0501 H   0  0  0  0  0  0  0  0  0  0  0  0
   47.0399   31.4636   47.2613 C   0  0  2  0  0  0  0  0  0  0  0  0
   47.2599   30.4810   46.8130 H   0  0  0  0  0  0  0  0  0  0  0  0
   48.0815   32.3665   47.2320 O   0  0  0  0  0  0  0  0  0  0  0  0
   48.1579   32.9149   45.9792 C   0  0  1  0  0  0  0  0  0  0  0  0
   49.0106   32.4202   45.4423 H   0  0  0  0  0  0  0  0  0  0  0  0
   47.0249   31.7465   44.5286 H   0  0  0  0  0  0  0  0  0  0  0  0
   45.6624   33.0203   46.9224 H   0  0  0  0  0  0  0  0  0  0  0  0
   46.6619   31.3429   48.3033 H   0  0  0  0  0  0  0  0  0  0  0  0
   48.3289   34.0009   46.1092 H   0  0  0  0  0  0  0  0  0  0  0  0
  1  6  2  0
  1  2  1  0
  2  3  2  0
  3  4  1  0
  5  4  2  0
  6  5  1  0
  7  2  1  0
  8  9  2  0
  9  7  1  0
  9 11  1  0
 10  9  1  0
  1 12  1  0
  5 13  1  0
 10 14  1  0
 11 15  1  0
 16 17  1  0
 17 18  1  6
 17 19  1  0
 19 20  1  6
 19 21  1  0
 21 22  1  0
 22 23  1  6
 22 16  1  0
 16 24  1  6
 17 25  1  0
 19 26  1  0
 22 27  1  0
  3 16  1  0
M  ISO  7  12  14  13  14  14   3  15   3  18  15  20  15  23  15
M  END
>  <DihAtoms>  (1) 
1,2,15,16

>  <DihDeg>  (1) 
-89.9811377483582

$$$$
