
 OpenBabel03252504113D

 24 25  0  0  1  0  0  0  0  0999 V2000
   47.0020   34.2120   43.1160 C   0  0  0  0  0  0  0  0  0  0  0  0
   45.8160   34.6560   43.6790 C   0  0  0  0  0  0  0  0  0  0  0  0
   45.3010   33.9400   44.7820 C   0  0  0  0  0  0  0  0  0  0  0  0
   45.9880   32.8630   45.2330 N   0  0  0  0  0  0  0  0  0  0  0  0
   47.1450   32.4640   44.6530 C   0  0  0  0  0  0  0  0  0  0  0  0
   47.6420   33.1320   43.6080 N   0  0  0  0  0  0  0  0  0  0  0  0
   44.3860   34.2780   45.2210 H   0  0  0  0  0  0  0  0  0  0  0  0
   47.8130   31.2930   45.2090 C   0  0  2  0  0  3  0  0  0  0  0  0
   47.5550   30.0000   44.4600 C   0  0  0  0  0  3  0  0  0  0  0  0
   48.2100   29.9190   43.5780 H   0  0  0  0  0  0  0  0  0  0  0  0
   47.9690   29.0380   45.5600 C   0  0  0  0  0  3  0  0  0  0  0  0
   47.7120   28.0060   45.3580 H   0  0  0  0  0  0  0  0  0  0  0  0
   47.2040   29.5360   46.6350 O   0  0  0  0  0  0  0  0  0  0  0  0
   47.3070   30.9040   46.5820 C   0  0  0  0  0  3  0  0  0  0  0  0
   46.3750   31.4270   46.8530 H   0  0  0  0  0  0  0  0  0  0  0  0
   45.1320   35.8470   43.1170 C   0  0  0  0  0  0  0  0  0  0  0  0
   46.0180   36.9100   43.0680 F   0  0  0  0  0  0  0  0  0  0  0  0
   44.7840   35.5600   41.8080 F   0  0  0  0  0  0  0  0  0  0  0  0
   44.0350   36.2570   43.8050 F   0  0  0  0  0  0  0  0  0  0  0  0
   47.4810   34.9080   42.0600 O   0  0  0  0  0  0  0  0  0  0  0  0
   48.8310   35.0480   41.6790 C   0  0  0  0  0  0  0  0  0  0  0  0
   49.5500   35.4000   42.8260 F   0  0  0  0  0  0  0  0  0  0  0  0
   49.2730   33.8880   41.1180 F   0  0  0  0  0  0  0  0  0  0  0  0
   48.9660   36.1320   40.8290 F   0  0  0  0  0  0  0  0  0  0  0  0
  1  6  2  0  0  0  0
  1  2  1  0  0  0  0
  2  3  2  0  0  0  0
  3  7  1  0  0  0  0
  3  4  1  0  0  0  0
  5  4  2  0  0  0  0
  6  5  1  0  0  0  0
  8  5  1  6  0  0  0
  8 14  1  0  0  0  0
  9  8  1  0  0  0  0
  9 11  1  0  0  0  0
 10  9  1  0  0  0  0
 11 13  1  0  0  0  0
 12 11  1  0  0  0  0
 14 13  1  0  0  0  0
 14 15  1  0  0  0  0
 16  2  1  0  0  0  0
 16 19  1  0  0  0  0
 17 16  1  0  0  0  0
 18 16  1  0  0  0  0
 20  1  1  0  0  0  0
 21 20  1  0  0  0  0
 21 22  1  0  0  0  0
 23 21  1  0  0  0  0
 24 21  1  0  0  0  0
M  END
>  <minimizedAffinity>
-4.78217268

>  <minimizedRMSD>
0.384466618

$$$$
