
 OpenBabel03252507083D

 23 24  0  0  1  0  0  0  0  0999 V2000
   44.5710   35.7780   44.6910 C   0  0  0  0  0  0  0  0  0  0  0  0
   45.1740   35.8260   43.4100 C   0  0  0  0  0  0  0  0  0  0  0  0
   46.1420   34.8800   43.1000 C   0  0  0  0  0  0  0  0  0  0  0  0
   46.4610   33.9520   44.0510 N   0  0  0  0  0  0  0  0  0  0  0  0
   45.8770   33.9270   45.2560 C   0  0  0  0  0  0  0  0  0  0  0  0
   44.9290   34.8410   45.5800 N   0  0  0  0  0  0  0  0  0  0  0  0
   43.8290   36.5650   44.8220 H   0  0  0  0  0  0  0  0  0  0  0  0
   44.9090   36.5690   42.6670 H   0  0  0  0  0  0  0  0  0  0  0  0
   46.2200   32.9290   46.2800 C   0  0  1  0  0  3  0  0  0  0  0  0
   45.2440   32.9680   47.4640 C   0  0  0  0  0  3  0  0  0  0  0  0
   45.5170   33.8330   48.1030 H   0  0  0  0  0  0  0  0  0  0  0  0
   45.6390   31.6400   48.0790 C   0  0  0  0  0  3  0  0  0  0  0  0
   44.9000   31.2410   48.7860 H   0  0  0  0  0  0  0  0  0  0  0  0
   45.9740   30.7930   47.0390 O   0  0  0  0  0  0  0  0  0  0  0  0
   46.0490   31.5050   45.8710 C   0  0  0  0  0  3  0  0  0  0  0  0
   45.0640   31.3630   45.3430 H   0  0  0  0  0  0  0  0  0  0  0  0
   46.7200   34.9380   41.8510 O   0  0  0  0  0  0  0  0  0  0  0  0
   48.6150   33.2490   41.1100 O   0  0  0  0  0  0  0  0  0  0  0  0
   48.4060   34.6550   41.6840 P   0  0  0  0  0  0  0  0  0  0  0  0
   49.0780   35.8340   40.7250 O   0  0  0  0  0  0  0  0  0  0  0  0
   49.9210   36.1690   41.1500 H   0  0  0  0  0  0  0  0  0  0  0  0
   49.0720   34.6590   43.2530 O   0  0  0  0  0  0  0  0  0  0  0  0
   48.9750   33.7540   43.6080 H   0  0  0  0  0  0  0  0  0  0  0  0
  1  7  1  0  0  0  0
  1  6  1  0  0  0  0
  2  1  2  0  0  0  0
  3  2  1  0  0  0  0
  3  4  2  0  0  0  0
  4  5  1  0  0  0  0
  5  6  2  0  0  0  0
  8  2  1  0  0  0  0
  9  5  1  6  0  0  0
  9 10  1  0  0  0  0
 10 12  1  0  0  0  0
 10 11  1  0  0  0  0
 12 13  1  0  0  0  0
 14 12  1  0  0  0  0
 15  9  1  0  0  0  0
 15 14  1  0  0  0  0
 16 15  1  0  0  0  0
 17  3  1  0  0  0  0
 18 19  2  0  0  0  0
 19 17  1  0  0  0  0
 19 22  1  0  0  0  0
 20 21  1  0  0  0  0
 20 19  1  0  0  0  0
 22 23  1  0  0  0  0
M  END
>  <minimizedAffinity>
-5.3536396

>  <minimizedRMSD>
0.548352599

$$$$
