
     RDKit          3D

 38 40  0  0  0  0  0  0  0  0999 V2000
   48.1519   33.5189   42.5698 C   0  0  1  0  0  0  0  0  0  0  0  0
   46.6818   33.7264   42.2919 C   0  0  2  0  0  0  0  0  0  0  0  0
   46.4733   34.6229   41.2639 O   0  0  0  0  0  0  0  0  0  0  0  0
   46.8758   33.9832   40.1029 C   0  0  0  0  0  0  0  0  0  0  0  0
   48.3807   33.9305   40.0978 C   0  0  2  0  0  0  0  0  0  0  0  0
   48.9893   33.3782   41.3483 C   0  0  2  0  0  0  0  0  0  0  0  0
   44.5958   35.8110   44.6701 C   0  0  0  0  0  0  0  0  0  0  0  0
   45.2256   35.4091   43.4817 C   0  0  0  0  0  0  0  0  0  0  0  0
   45.9819   34.2031   43.5034 C   0  0  0  0  0  0  0  0  0  0  0  0
   46.0601   33.5025   44.6605 N   0  0  0  0  0  0  0  0  0  0  0  0
   45.4312   33.9327   45.7908 C   0  0  0  0  0  0  0  0  0  0  0  0
   44.7011   35.0825   45.7972 N   0  0  0  0  0  0  0  0  0  0  0  0
   48.6536   34.4675   43.4684 O   0  0  0  0  0  0  0  0  0  0  0  0
   48.8129   35.2414   39.8430 O   0  0  0  0  0  0  0  0  0  0  0  0
   49.4661   32.0650   41.1873 O   0  0  0  0  0  0  0  0  0  0  0  0
   48.2057   32.5379   43.1294 H   0  0  0  0  0  0  0  0  0  0  0  0
   46.2609   32.7331   42.0098 H   0  0  0  0  0  0  0  0  0  0  0  0
   46.4176   32.9892   39.9472 H   0  0  0  0  0  0  0  0  0  0  0  0
   46.5960   34.6540   39.2494 H   0  0  0  0  0  0  0  0  0  0  0  0
   48.7207   33.3268   39.2266 H   0  0  0  0  0  0  0  0  0  0  0  0
   49.9226   33.9862   41.5298 H   0  0  0  0  0  0  0  0  0  0  0  0
   44.0124   36.7199   44.6951 H   0  0  0  0  0  0  0  0  0  0  0  0
   45.1484   35.9877   42.5672 H   0  0  0  0  0  0  0  0  0  0  0  0
   45.5656   33.2911   46.6522 H   0  0  0  0  0  0  0  0  0  0  0  0
   48.9302   34.1073   44.3274 H   0  0  0  0  0  0  0  0  0  0  0  0
   48.6632   35.4743   38.9085 H   0  0  0  0  0  0  0  0  0  0  0  0
   50.8303   31.9526   41.2960 C   0  0  2  0  0  0  0  0  0  0  0  0
   51.1685   30.5253   41.6492 C   0  0  2  0  0  0  0  0  0  0  0  0
   52.2732   30.4152   41.5222 H   0  0  0  0  0  0  0  0  0  0  0  0
   50.8952   30.5184   43.1299 C   0  0  1  0  0  0  0  0  0  0  0  0
   49.8611   30.1368   43.2901 H   0  0  0  0  0  0  0  0  0  0  0  0
   50.9969   31.8085   43.6095 O   0  0  0  0  0  0  0  0  0  0  0  0
   51.3267   32.6482   42.5579 C   0  0  2  0  0  0  0  0  0  0  0  0
   50.8502   33.6239   42.7187 H   0  0  0  0  0  0  0  0  0  0  0  0
   51.3319   32.3313   40.4006 H   0  0  0  0  0  0  0  0  0  0  0  0
   50.6161   29.7824   41.0749 H   0  0  0  0  0  0  0  0  0  0  0  0
   51.6453   29.8774   43.6642 H   0  0  0  0  0  0  0  0  0  0  0  0
   52.4170   32.7483   42.4555 H   0  0  0  0  0  0  0  0  0  0  0  0
  1 13  1  0
  2  1  1  0
  2  9  1  0
  3  2  1  0
  4  3  1  0
  5 14  1  0
  5  4  1  0
  5  6  1  0
  6 15  1  0
  6  1  1  0
  7 12  2  0
  8  9  2  0
  8  7  1  0
  9 10  1  0
 10 11  2  0
 12 11  1  0
  1 16  1  1
  2 17  1  6
  4 18  1  0
  4 19  1  0
  5 20  1  6
  6 21  1  1
  7 22  1  0
  8 23  1  0
 11 24  1  0
 13 25  1  0
 14 26  1  0
 27 28  1  0
 28 29  1  1
 28 30  1  0
 30 31  1  6
 30 32  1  0
 32 33  1  0
 33 34  1  1
 33 27  1  0
 27 35  1  6
 28 36  1  0
 30 37  1  0
 33 38  1  0
 15 27  1  0
M  ISO  8  16  13  17  13  18  13  19  13  20  13  21  13  22  14  23  14
M  ISO  6  24  14  25   3  26   3  29  15  31  15  34  15
M  END
>  <DihAtoms>  (1) 
5,14,26,27

>  <DihDeg>  (1) 
-127.01723028585533

$$$$
