
 OpenBabel03252509063D

 47 49  0  0  1  0  0  0  0  0999 V2000
   37.8510   28.8140   37.4770 N   0  0  0  0  0  0  0  0  0  0  0  0
   38.1370   28.2930   36.1970 C   0  0  0  0  0  0  0  0  0  0  0  0
   37.0030   27.5100   35.5610 C   0  0  0  0  0  0  0  0  0  0  0  0
   35.6250   28.0180   35.9020 C   0  0  0  0  0  0  0  0  0  0  0  0
   35.6920   29.2740   36.7510 C   0  0  0  0  0  0  0  0  0  0  0  0
   36.5700   28.8320   37.9870 C   0  0  2  0  0  0  0  0  0  0  0  0
   38.3190   29.1610   35.5130 H   0  0  0  0  0  0  0  0  0  0  0  0
   39.0320   27.6630   36.1060 H   0  0  0  0  0  0  0  0  0  0  0  0
   37.1940   27.4840   34.4780 H   0  0  0  0  0  0  0  0  0  0  0  0
   37.0860   26.4620   35.9340 H   0  0  0  0  0  0  0  0  0  0  0  0
   35.0600   28.1880   34.9650 H   0  0  0  0  0  0  0  0  0  0  0  0
   35.0280   27.2800   36.4810 H   0  0  0  0  0  0  0  0  0  0  0  0
   34.6940   29.4880   37.1500 H   0  0  0  0  0  0  0  0  0  0  0  0
   36.1990   30.0990   36.2430 H   0  0  0  0  0  0  0  0  0  0  0  0
   36.1290   27.8680   38.3100 H   0  0  0  0  0  0  0  0  0  0  0  0
   38.9530   28.7320   38.3990 C   0  0  0  0  0  0  0  0  0  0  0  0
   39.5030   27.7770   38.2120 H   0  0  0  0  0  0  0  0  0  0  0  0
   38.5440   28.7120   39.4360 H   0  0  0  0  0  0  0  0  0  0  0  0
   39.8740   29.8880   38.1680 C   0  0  0  0  0  0  0  0  0  0  0  0
   40.9170   29.5860   38.2280 H   0  0  0  0  0  0  0  0  0  0  0  0
   39.7100   30.3290   37.1660 H   0  0  0  0  0  0  0  0  0  0  0  0
   39.3320   33.2820   39.7040 C   0  0  0  0  0  0  0  0  0  0  0  0
   39.6020   32.2540   38.7720 C   0  0  0  0  0  0  0  0  0  0  0  0
   39.5860   30.9510   39.1690 C   0  0  0  0  0  0  0  0  0  0  0  0
   39.3100   30.6990   40.4560 N   0  0  0  0  0  0  0  0  0  0  0  0
   39.0540   31.6570   41.3470 C   0  0  0  0  0  0  0  0  0  0  0  0
   39.0610   32.9510   40.9880 N   0  0  0  0  0  0  0  0  0  0  0  0
   39.3400   34.3150   39.4050 H   0  0  0  0  0  0  0  0  0  0  0  0
   39.8220   32.5030   37.7320 H   0  0  0  0  0  0  0  0  0  0  0  0
   38.8420   31.3480   42.3610 H   0  0  0  0  0  0  0  0  0  0  0  0
   36.3550   29.8760   38.8570 O   0  0  0  0  0  0  0  0  0  0  0  0
   33.9910   29.2710   39.9310 O   0  0  0  0  0  0  0  0  0  0  0  0
   35.4970   29.4350   40.2230 P   0  0  2  0  0  0  0  0  0  0  0  0
   35.5620   30.7860   41.2830 O   0  0  0  0  0  0  0  0  0  0  0  0
   36.4580   30.8260   41.7110 H   0  0  0  0  0  0  0  0  0  0  0  0
   36.1090   28.1330   41.0410 O   0  0  0  0  0  0  0  0  0  0  0  0
   36.8770   28.5470   42.1110 C   0  0  0  0  0  0  0  0  0  0  0  0
   37.8870   28.9180   41.8130 H   0  0  0  0  0  0  0  0  0  0  0  0
   36.3640   29.3870   42.6190 H   0  0  0  0  0  0  0  0  0  0  0  0
   37.1200   27.4540   43.1210 C   0  0  1  0  0  3  0  0  0  0  0  0
   37.1290   26.0850   42.4730 C   0  0  0  0  0  3  0  0  0  0  0  0
   36.8560   25.2900   43.1910 H   0  0  0  0  0  0  0  0  0  0  0  0
   38.6030   25.9170   42.1130 C   0  0  0  0  0  3  0  0  0  0  0  0
   38.7210   25.5900   41.0490 H   0  0  0  0  0  0  0  0  0  0  0  0
   39.1960   27.1590   42.3340 O   0  0  0  0  0  0  0  0  0  0  0  0
   38.5950   27.5510   43.5320 C   0  0  0  0  0  3  0  0  0  0  0  0
   38.8370   26.7330   44.2650 H   0  0  0  0  0  0  0  0  0  0  0  0
  1  6  1  0  0  0  0
  1 16  1  0  0  0  0
  2  1  1  0  0  0  0
  3  4  1  0  0  0  0
  3 10  1  0  0  0  0
  3  2  1  0  0  0  0
  4 12  1  0  0  0  0
  4  5  1  0  0  0  0
  5 13  1  0  0  0  0
  5  6  1  0  0  0  0
  6 15  1  1  0  0  0
  6 31  1  0  0  0  0
  7  2  1  0  0  0  0
  8  2  1  0  0  0  0
  9  3  1  0  0  0  0
 11  4  1  0  0  0  0
 14  5  1  0  0  0  0
 16 18  1  0  0  0  0
 17 16  1  0  0  0  0
 19 20  1  0  0  0  0
 19 16  1  0  0  0  0
 19 24  1  0  0  0  0
 21 19  1  0  0  0  0
 22 27  1  0  0  0  0
 23 24  1  0  0  0  0
 23 22  2  0  0  0  0
 24 25  2  0  0  0  0
 25 26  1  0  0  0  0
 26 30  1  0  0  0  0
 27 26  2  0  0  0  0
 28 22  1  0  0  0  0
 29 23  1  0  0  0  0
 31 33  1  0  0  0  0
 33 32  2  6  0  0  0
 33 36  1  0  0  0  0
 33 34  1  0  0  0  0
 34 35  1  0  0  0  0
 36 37  1  0  0  0  0
 37 39  1  0  0  0  0
 38 37  1  0  0  0  0
 40 37  1  6  0  0  0
 40 46  1  0  0  0  0
 41 40  1  0  0  0  0
 41 42  1  0  0  0  0
 43 45  1  0  0  0  0
 43 41  1  0  0  0  0
 44 43  1  0  0  0  0
 45 46  1  0  0  0  0
 46 47  1  0  0  0  0
M  END
>  <minimizedAffinity>
-5.01063061

$$$$

 OpenBabel03252509063D

 47 49  0  0  1  0  0  0  0  0999 V2000
   37.7580   30.5920   41.4420 N   0  0  0  0  0  0  0  0  0  0  0  0
   36.5880   31.0560   40.8030 C   0  0  0  0  0  0  0  0  0  0  0  0
   35.7840   29.9840   40.0900 C   0  0  0  0  0  0  0  0  0  0  0  0
   35.8220   28.6310   40.7520 C   0  0  0  0  0  0  0  0  0  0  0  0
   36.6000   28.6720   42.0550 C   0  0  0  0  0  0  0  0  0  0  0  0
   38.0050   29.2470   41.6210 C   0  0  2  0  0  0  0  0  0  0  0  0
   35.9090   31.4580   41.5970 H   0  0  0  0  0  0  0  0  0  0  0  0
   36.7080   31.8770   40.0850 H   0  0  0  0  0  0  0  0  0  0  0  0
   34.7630   30.3730   39.9660 H   0  0  0  0  0  0  0  0  0  0  0  0
   36.2210   29.8810   39.0690 H   0  0  0  0  0  0  0  0  0  0  0  0
   34.7840   28.2760   40.9070 H   0  0  0  0  0  0  0  0  0  0  0  0
   36.3100   27.8580   40.1200 H   0  0  0  0  0  0  0  0  0  0  0  0
   36.7830   27.6470   42.3930 H   0  0  0  0  0  0  0  0  0  0  0  0
   36.1580   29.3530   42.7880 H   0  0  0  0  0  0  0  0  0  0  0  0
   38.2860   28.6490   40.7300 H   0  0  0  0  0  0  0  0  0  0  0  0
   38.8810   31.4830   41.3210 C   0  0  0  0  0  0  0  0  0  0  0  0
   39.7300   30.9240   40.8570 H   0  0  0  0  0  0  0  0  0  0  0  0
   39.1840   31.8090   42.3440 H   0  0  0  0  0  0  0  0  0  0  0  0
   38.5030   32.6320   40.4410 C   0  0  0  0  0  0  0  0  0  0  0  0
   37.5550   32.4570   39.9400 H   0  0  0  0  0  0  0  0  0  0  0  0
   38.4030   33.5640   41.0310 H   0  0  0  0  0  0  0  0  0  0  0  0
   40.6830   32.2230   37.3990 C   0  0  0  0  0  0  0  0  0  0  0  0
   39.6680   32.0290   38.3630 C   0  0  0  0  0  0  0  0  0  0  0  0
   39.5820   32.8580   39.4410 C   0  0  0  0  0  0  0  0  0  0  0  0
   40.4880   33.8410   39.5400 N   0  0  0  0  0  0  0  0  0  0  0  0
   41.4520   34.0360   38.6400 C   0  0  0  0  0  0  0  0  0  0  0  0
   41.5640   33.2380   37.5670 N   0  0  0  0  0  0  0  0  0  0  0  0
   40.7630   31.5770   36.5430 H   0  0  0  0  0  0  0  0  0  0  0  0
   38.9490   31.2170   38.2440 H   0  0  0  0  0  0  0  0  0  0  0  0
   42.1320   34.8580   38.8120 H   0  0  0  0  0  0  0  0  0  0  0  0
   38.7600   28.9860   42.7420 O   0  0  0  0  0  0  0  0  0  0  0  0
   41.1120   27.7900   43.1230 O   0  0  0  0  0  0  0  0  0  0  0  0
   39.6680   27.5870   42.6200 P   0  0  2  0  0  0  0  0  0  0  0  0
   39.8600   27.2900   40.9390 O   0  0  0  0  0  0  0  0  0  0  0  0
   39.0150   26.9170   40.5720 H   0  0  0  0  0  0  0  0  0  0  0  0
   38.9690   26.2420   43.2850 O   0  0  0  0  0  0  0  0  0  0  0  0
   39.4040   25.1000   42.6430 C   0  0  0  0  0  0  0  0  0  0  0  0
   39.9270   25.3070   41.6790 H   0  0  0  0  0  0  0  0  0  0  0  0
   40.1280   24.5740   43.2950 H   0  0  0  0  0  0  0  0  0  0  0  0
   38.2830   24.1480   42.3090 C   0  0  1  0  0  3  0  0  0  0  0  0
   36.9800   24.8800   42.0680 C   0  0  0  0  0  3  0  0  0  0  0  0
   36.1040   24.2360   42.2680 H   0  0  0  0  0  0  0  0  0  0  0  0
   37.0410   25.1470   40.5660 C   0  0  0  0  0  3  0  0  0  0  0  0
   36.8120   26.2190   40.3400 H   0  0  0  0  0  0  0  0  0  0  0  0
   38.3330   24.8060   40.1690 O   0  0  0  0  0  0  0  0  0  0  0  0
   38.5500   23.6300   40.8900 C   0  0  0  0  0  3  0  0  0  0  0  0
   37.7210   22.9360   40.5780 H   0  0  0  0  0  0  0  0  0  0  0  0
  1  6  1  0  0  0  0
  2  1  1  0  0  0  0
  2  7  1  0  0  0  0
  3  4  1  0  0  0  0
  3  2  1  0  0  0  0
  4 11  1  0  0  0  0
  4  5  1  0  0  0  0
  5 13  1  0  0  0  0
  5 14  1  0  0  0  0
  6 15  1  6  0  0  0
  6  5  1  0  0  0  0
  6 31  1  0  0  0  0
  8  2  1  0  0  0  0
  9  3  1  0  0  0  0
 10  3  1  0  0  0  0
 12  4  1  0  0  0  0
 16  1  1  0  0  0  0
 16 18  1  0  0  0  0
 17 16  1  0  0  0  0
 19 21  1  0  0  0  0
 19 16  1  0  0  0  0
 20 19  1  0  0  0  0
 22 27  2  0  0  0  0
 22 23  1  0  0  0  0
 23 24  2  0  0  0  0
 24 25  1  0  0  0  0
 24 19  1  0  0  0  0
 26 30  1  0  0  0  0
 26 25  2  0  0  0  0
 27 26  1  0  0  0  0
 28 22  1  0  0  0  0
 29 23  1  0  0  0  0
 33 31  1  0  0  0  0
 33 32  2  1  0  0  0
 33 36  1  0  0  0  0
 34 33  1  0  0  0  0
 35 34  1  0  0  0  0
 37 36  1  0  0  0  0
 37 39  1  0  0  0  0
 38 37  1  0  0  0  0
 40 37  1  6  0  0  0
 41 42  1  0  0  0  0
 41 40  1  0  0  0  0
 43 41  1  0  0  0  0
 44 43  1  0  0  0  0
 45 43  1  0  0  0  0
 45 46  1  0  0  0  0
 46 40  1  0  0  0  0
 47 46  1  0  0  0  0
M  END
>  <minimizedAffinity>
-5.00682735

$$$$

 OpenBabel03252509063D

 47 49  0  0  1  0  0  0  0  0999 V2000
   35.8660   29.4120   38.6520 N   0  0  0  0  0  0  0  0  0  0  0  0
   34.7450   28.6730   38.2160 C   0  0  0  0  0  0  0  0  0  0  0  0
   34.3430   28.9190   36.7720 C   0  0  0  0  0  0  0  0  0  0  0  0
   35.4950   29.2030   35.8430 C   0  0  0  0  0  0  0  0  0  0  0  0
   36.8280   29.0910   36.5610 C   0  0  0  0  0  0  0  0  0  0  0  0
   36.6760   30.0950   37.7700 C   0  0  2  0  0  0  0  0  0  0  0  0
   35.0170   27.5880   38.2670 H   0  0  0  0  0  0  0  0  0  0  0  0
   33.8270   28.7670   38.8090 H   0  0  0  0  0  0  0  0  0  0  0  0
   33.7380   28.0580   36.4530 H   0  0  0  0  0  0  0  0  0  0  0  0
   33.6720   29.8090   36.7730 H   0  0  0  0  0  0  0  0  0  0  0  0
   35.4390   28.5160   34.9770 H   0  0  0  0  0  0  0  0  0  0  0  0
   35.4570   30.2280   35.4140 H   0  0  0  0  0  0  0  0  0  0  0  0
   37.6140   29.5040   35.9200 H   0  0  0  0  0  0  0  0  0  0  0  0
   37.0070   28.0890   36.9630 H   0  0  0  0  0  0  0  0  0  0  0  0
   36.2760   31.0220   37.3120 H   0  0  0  0  0  0  0  0  0  0  0  0
   35.7480   29.9080   39.9970 C   0  0  0  0  0  0  0  0  0  0  0  0
   34.8350   30.5510   40.0600 H   0  0  0  0  0  0  0  0  0  0  0  0
   36.6420   30.5360   40.2220 H   0  0  0  0  0  0  0  0  0  0  0  0
   35.6080   28.7530   40.9370 C   0  0  0  0  0  0  0  0  0  0  0  0
   34.7490   28.8730   41.5930 H   0  0  0  0  0  0  0  0  0  0  0  0
   35.4730   27.8060   40.3800 H   0  0  0  0  0  0  0  0  0  0  0  0
   38.2020   27.3620   43.2840 C   0  0  0  0  0  0  0  0  0  0  0  0
   37.0260   27.5120   42.5130 C   0  0  0  0  0  0  0  0  0  0  0  0
   36.8540   28.6200   41.7380 C   0  0  0  0  0  0  0  0  0  0  0  0
   37.8310   29.5370   41.7440 N   0  0  0  0  0  0  0  0  0  0  0  0
   38.9450   29.4100   42.4650 C   0  0  0  0  0  0  0  0  0  0  0  0
   39.1460   28.3320   43.2380 N   0  0  0  0  0  0  0  0  0  0  0  0
   38.3520   26.4930   43.9000 H   0  0  0  0  0  0  0  0  0  0  0  0
   36.2550   26.7400   42.5370 H   0  0  0  0  0  0  0  0  0  0  0  0
   39.6730   30.2070   42.3990 H   0  0  0  0  0  0  0  0  0  0  0  0
   37.9780   30.1920   38.2050 O   0  0  0  0  0  0  0  0  0  0  0  0
   37.3740   32.7660   38.5470 O   0  0  0  0  0  0  0  0  0  0  0  0
   38.5270   31.7680   38.3110 P   0  0  2  0  0  0  0  0  0  0  0  0
   39.1070   32.1760   36.7460 O   0  0  0  0  0  0  0  0  0  0  0  0
   39.9930   31.7500   36.6020 H   0  0  0  0  0  0  0  0  0  0  0  0
   39.7700   32.0030   39.3780 O   0  0  0  0  0  0  0  0  0  0  0  0
   40.3070   33.2650   39.2300 C   0  0  0  0  0  0  0  0  0  0  0  0
   40.0240   33.7560   38.2690 H   0  0  0  0  0  0  0  0  0  0  0  0
   39.9300   33.9140   40.0450 H   0  0  0  0  0  0  0  0  0  0  0  0
   41.8150   33.2750   39.2710 C   0  0  1  0  0  3  0  0  0  0  0  0
   42.3940   31.9440   38.8410 C   0  0  0  0  0  3  0  0  0  0  0  0
   43.3970   31.7740   39.2740 H   0  0  0  0  0  0  0  0  0  0  0  0
   42.5520   32.1380   37.3350 C   0  0  0  0  0  3  0  0  0  0  0  0
   42.1150   31.2760   36.7710 H   0  0  0  0  0  0  0  0  0  0  0  0
   41.8950   33.3310   37.0330 O   0  0  0  0  0  0  0  0  0  0  0  0
   42.2830   34.1460   38.0980 C   0  0  0  0  0  3  0  0  0  0  0  0
   43.4080   34.1610   38.0630 H   0  0  0  0  0  0  0  0  0  0  0  0
  1 16  1  0  0  0  0
  2  7  1  0  0  0  0
  2  1  1  0  0  0  0
  2  8  1  0  0  0  0
  3 10  1  0  0  0  0
  3  2  1  0  0  0  0
  4  5  1  0  0  0  0
  4  3  1  0  0  0  0
  5 14  1  0  0  0  0
  5  6  1  0  0  0  0
  6 15  1  6  0  0  0
  6 31  1  0  0  0  0
  6  1  1  0  0  0  0
  9  3  1  0  0  0  0
 11  4  1  0  0  0  0
 12  4  1  0  0  0  0
 13  5  1  0  0  0  0
 16 17  1  0  0  0  0
 16 18  1  0  0  0  0
 16 19  1  0  0  0  0
 19 20  1  0  0  0  0
 19 24  1  0  0  0  0
 21 19  1  0  0  0  0
 22 28  1  0  0  0  0
 23 29  1  0  0  0  0
 23 22  2  0  0  0  0
 24 25  2  0  0  0  0
 24 23  1  0  0  0  0
 25 26  1  0  0  0  0
 26 27  2  0  0  0  0
 27 22  1  0  0  0  0
 30 26  1  0  0  0  0
 31 33  1  0  0  0  0
 33 32  2  1  0  0  0
 33 36  1  0  0  0  0
 34 33  1  0  0  0  0
 35 34  1  0  0  0  0
 37 36  1  0  0  0  0
 37 39  1  0  0  0  0
 38 37  1  0  0  0  0
 40 37  1  6  0  0  0
 41 40  1  0  0  0  0
 41 42  1  0  0  0  0
 43 41  1  0  0  0  0
 44 43  1  0  0  0  0
 45 43  1  0  0  0  0
 45 46  1  0  0  0  0
 46 40  1  0  0  0  0
 47 46  1  0  0  0  0
M  END
>  <minimizedAffinity>
-4.99448156

$$$$

 OpenBabel03252509063D

 47 49  0  0  1  0  0  0  0  0999 V2000
   38.1260   28.8360   42.4720 N   0  0  0  0  0  0  0  0  0  0  0  0
   39.0720   28.0910   43.2080 C   0  0  0  0  0  0  0  0  0  0  0  0
   40.5210   28.3650   42.8440 C   0  0  0  0  0  0  0  0  0  0  0  0
   40.8030   29.7870   42.4310 C   0  0  0  0  0  0  0  0  0  0  0  0
   39.5670   30.6580   42.5610 C   0  0  0  0  0  0  0  0  0  0  0  0
   38.4960   29.9020   41.6790 C   0  0  2  0  0  0  0  0  0  0  0  0
   38.9750   28.3920   44.2820 H   0  0  0  0  0  0  0  0  0  0  0  0
   38.9570   27.0000   43.2030 H   0  0  0  0  0  0  0  0  0  0  0  0
   41.1370   28.0350   43.6930 H   0  0  0  0  0  0  0  0  0  0  0  0
   40.7660   27.7000   41.9830 H   0  0  0  0  0  0  0  0  0  0  0  0
   41.6440   30.1780   43.0370 H   0  0  0  0  0  0  0  0  0  0  0  0
   41.1340   29.8680   41.3730 H   0  0  0  0  0  0  0  0  0  0  0  0
   39.7510   31.6150   42.0600 H   0  0  0  0  0  0  0  0  0  0  0  0
   39.1950   30.7110   43.5880 H   0  0  0  0  0  0  0  0  0  0  0  0
   39.0230   29.6830   40.7290 H   0  0  0  0  0  0  0  0  0  0  0  0
   36.9530   28.0890   42.1080 C   0  0  0  0  0  0  0  0  0  0  0  0
   36.9370   27.9700   40.9960 H   0  0  0  0  0  0  0  0  0  0  0  0
   36.0530   28.6710   42.4170 H   0  0  0  0  0  0  0  0  0  0  0  0
   37.0100   26.7390   42.7510 C   0  0  0  0  0  0  0  0  0  0  0  0
   37.8460   26.6610   43.4420 H   0  0  0  0  0  0  0  0  0  0  0  0
   36.0840   26.5350   43.3220 H   0  0  0  0  0  0  0  0  0  0  0  0
   37.0360   25.0870   39.3680 C   0  0  0  0  0  0  0  0  0  0  0  0
   36.9420   26.0580   40.3910 C   0  0  0  0  0  0  0  0  0  0  0  0
   37.1150   25.6970   41.6940 C   0  0  0  0  0  0  0  0  0  0  0  0
   37.3710   24.4070   41.9500 N   0  0  0  0  0  0  0  0  0  0  0  0
   37.4630   23.4790   40.9970 C   0  0  0  0  0  0  0  0  0  0  0  0
   37.2980   23.8010   39.7040 N   0  0  0  0  0  0  0  0  0  0  0  0
   36.9030   25.3570   38.3360 H   0  0  0  0  0  0  0  0  0  0  0  0
   36.7320   27.0990   40.1390 H   0  0  0  0  0  0  0  0  0  0  0  0
   37.6740   22.4660   41.3090 H   0  0  0  0  0  0  0  0  0  0  0  0
   37.5110   30.8590   41.5760 O   0  0  0  0  0  0  0  0  0  0  0  0
   38.6950   31.5440   39.2870 O   0  0  0  0  0  0  0  0  0  0  0  0
   37.3450   31.4740   40.0300 P   0  0  2  0  0  0  0  0  0  0  0  0
   36.8970   33.1220   40.2190 O   0  0  0  0  0  0  0  0  0  0  0  0
   35.9390   33.1760   40.4740 H   0  0  0  0  0  0  0  0  0  0  0  0
   36.1760   30.7460   39.1120 O   0  0  0  0  0  0  0  0  0  0  0  0
   36.7050   29.6880   38.4000 C   0  0  0  0  0  0  0  0  0  0  0  0
   37.7440   29.8740   38.0390 H   0  0  0  0  0  0  0  0  0  0  0  0
   36.7480   28.7980   39.0560 H   0  0  0  0  0  0  0  0  0  0  0  0
   35.8980   29.3390   37.1740 C   0  0  1  0  0  3  0  0  0  0  0  0
   36.6560   29.6490   35.9000 C   0  0  0  0  0  3  0  0  0  0  0  0
   35.9720   29.8330   35.0500 H   0  0  0  0  0  0  0  0  0  0  0  0
   37.3920   28.3370   35.6430 C   0  0  0  0  0  3  0  0  0  0  0  0
   38.4770   28.5180   35.4390 H   0  0  0  0  0  0  0  0  0  0  0  0
   37.2100   27.5650   36.7900 O   0  0  0  0  0  0  0  0  0  0  0  0
   35.8670   27.8080   37.0850 C   0  0  0  0  0  3  0  0  0  0  0  0
   35.3010   27.4940   36.1650 H   0  0  0  0  0  0  0  0  0  0  0  0
  1  2  1  0  0  0  0
  2  7  1  0  0  0  0
  3  2  1  0  0  0  0
  3  9  1  0  0  0  0
  4  5  1  0  0  0  0
  4  3  1  0  0  0  0
  4 11  1  0  0  0  0
  5 14  1  0  0  0  0
  6 15  1  6  0  0  0
  6  1  1  0  0  0  0
  6  5  1  0  0  0  0
  8  2  1  0  0  0  0
 10  3  1  0  0  0  0
 12  4  1  0  0  0  0
 13  5  1  0  0  0  0
 16 18  1  0  0  0  0
 16  1  1  0  0  0  0
 16 19  1  0  0  0  0
 17 16  1  0  0  0  0
 19 21  1  0  0  0  0
 19 20  1  0  0  0  0
 22 27  2  0  0  0  0
 22 23  1  0  0  0  0
 23 24  2  0  0  0  0
 24 25  1  0  0  0  0
 24 19  1  0  0  0  0
 26 30  1  0  0  0  0
 26 25  2  0  0  0  0
 27 26  1  0  0  0  0
 28 22  1  0  0  0  0
 29 23  1  0  0  0  0
 31  6  1  0  0  0  0
 33 32  2  6  0  0  0
 33 34  1  0  0  0  0
 33 31  1  0  0  0  0
 34 35  1  0  0  0  0
 36 33  1  0  0  0  0
 37 39  1  0  0  0  0
 37 36  1  0  0  0  0
 38 37  1  0  0  0  0
 40 37  1  1  0  0  0
 41 40  1  0  0  0  0
 42 41  1  0  0  0  0
 43 41  1  0  0  0  0
 43 45  1  0  0  0  0
 44 43  1  0  0  0  0
 45 46  1  0  0  0  0
 46 40  1  0  0  0  0
 47 46  1  0  0  0  0
M  END
>  <minimizedAffinity>
-4.98497391

$$$$

 OpenBabel03252509063D

 47 49  0  0  1  0  0  0  0  0999 V2000
   37.3980   26.1740   41.6460 N   0  0  0  0  0  0  0  0  0  0  0  0
   38.0870   25.1040   42.2560 C   0  0  0  0  0  0  0  0  0  0  0  0
   39.3390   25.5040   43.0170 C   0  0  0  0  0  0  0  0  0  0  0  0
   39.2610   26.8550   43.6790 C   0  0  0  0  0  0  0  0  0  0  0  0
   37.8890   27.4820   43.5030 C   0  0  0  0  0  0  0  0  0  0  0  0
   37.6920   27.4890   41.9360 C   0  0  2  0  0  0  0  0  0  0  0  0
   37.4040   24.6570   43.0220 H   0  0  0  0  0  0  0  0  0  0  0  0
   38.3790   24.2680   41.6070 H   0  0  0  0  0  0  0  0  0  0  0  0
   39.5620   24.6920   43.7240 H   0  0  0  0  0  0  0  0  0  0  0  0
   40.1710   25.5310   42.2750 H   0  0  0  0  0  0  0  0  0  0  0  0
   39.5270   26.7490   44.7490 H   0  0  0  0  0  0  0  0  0  0  0  0
   39.9920   27.5810   43.2610 H   0  0  0  0  0  0  0  0  0  0  0  0
   37.9360   28.5330   43.8090 H   0  0  0  0  0  0  0  0  0  0  0  0
   37.0920   26.8820   43.9500 H   0  0  0  0  0  0  0  0  0  0  0  0
   38.6380   27.9080   41.5400 H   0  0  0  0  0  0  0  0  0  0  0  0
   36.8740   25.8620   40.3430 C   0  0  0  0  0  0  0  0  0  0  0  0
   36.1200   26.6400   40.0680 H   0  0  0  0  0  0  0  0  0  0  0  0
   36.3630   24.8720   40.3960 H   0  0  0  0  0  0  0  0  0  0  0  0
   37.9900   25.8780   39.3470 C   0  0  0  0  0  0  0  0  0  0  0  0
   38.9250   26.1970   39.8000 H   0  0  0  0  0  0  0  0  0  0  0  0
   38.1520   24.8700   38.9200 H   0  0  0  0  0  0  0  0  0  0  0  0
   38.2980   28.1140   36.3340 C   0  0  0  0  0  0  0  0  0  0  0  0
   38.6160   27.2550   37.4110 C   0  0  0  0  0  0  0  0  0  0  0  0
   37.6280   26.7810   38.2210 C   0  0  0  0  0  0  0  0  0  0  0  0
   36.3710   27.1620   37.9530 N   0  0  0  0  0  0  0  0  0  0  0  0
   36.0560   27.9710   36.9420 C   0  0  0  0  0  0  0  0  0  0  0  0
   37.0040   28.4550   36.1250 N   0  0  0  0  0  0  0  0  0  0  0  0
   39.0670   28.4960   35.6860 H   0  0  0  0  0  0  0  0  0  0  0  0
   39.6530   26.9690   37.5940 H   0  0  0  0  0  0  0  0  0  0  0  0
   35.0110   28.2170   36.8110 H   0  0  0  0  0  0  0  0  0  0  0  0
   36.6030   28.3220   41.8070 O   0  0  0  0  0  0  0  0  0  0  0  0
   38.1240   30.4950   42.0770 O   0  0  0  0  0  0  0  0  0  0  0  0
   36.9980   29.8470   41.2460 P   0  0  2  0  0  0  0  0  0  0  0  0
   35.6320   30.8390   41.5650 O   0  0  0  0  0  0  0  0  0  0  0  0
   34.9210   30.6460   40.8980 H   0  0  0  0  0  0  0  0  0  0  0  0
   37.3050   29.9340   39.6220 O   0  0  0  0  0  0  0  0  0  0  0  0
   38.5640   30.4500   39.3910 C   0  0  0  0  0  0  0  0  0  0  0  0
   39.0810   30.7850   40.3220 H   0  0  0  0  0  0  0  0  0  0  0  0
   39.1980   29.6640   38.9370 H   0  0  0  0  0  0  0  0  0  0  0  0
   38.5530   31.6450   38.4710 C   0  0  1  0  0  3  0  0  0  0  0  0
   37.2580   32.4230   38.5800 C   0  0  0  0  0  3  0  0  0  0  0  0
   37.0390   32.9870   37.6550 H   0  0  0  0  0  0  0  0  0  0  0  0
   37.5820   33.4250   39.6850 C   0  0  0  0  0  3  0  0  0  0  0  0
   36.7780   33.4390   40.4630 H   0  0  0  0  0  0  0  0  0  0  0  0
   38.8040   33.0200   40.2220 O   0  0  0  0  0  0  0  0  0  0  0  0
   39.5180   32.6750   39.0720 C   0  0  0  0  0  3  0  0  0  0  0  0
   39.5230   33.6040   38.4380 H   0  0  0  0  0  0  0  0  0  0  0  0
  1  6  1  0  0  0  0
  1  2  1  0  0  0  0
  2  3  1  0  0  0  0
  2  7  1  0  0  0  0
  3  4  1  0  0  0  0
  3  9  1  0  0  0  0
  4 11  1  0  0  0  0
  5  4  1  0  0  0  0
  5 13  1  0  0  0  0
  5 14  1  0  0  0  0
  6 15  1  6  0  0  0
  6  5  1  0  0  0  0
  8  2  1  0  0  0  0
 10  3  1  0  0  0  0
 12  4  1  0  0  0  0
 16 18  1  0  0  0  0
 16  1  1  0  0  0  0
 17 16  1  0  0  0  0
 19 20  1  0  0  0  0
 19 16  1  0  0  0  0
 21 19  1  0  0  0  0
 22 23  1  0  0  0  0
 23 29  1  0  0  0  0
 23 24  2  0  0  0  0
 24 19  1  0  0  0  0
 25 24  1  0  0  0  0
 26 25  2  0  0  0  0
 27 22  2  0  0  0  0
 27 26  1  0  0  0  0
 28 22  1  0  0  0  0
 30 26  1  0  0  0  0
 31  6  1  0  0  0  0
 33 34  1  0  0  0  0
 33 31  1  0  0  0  0
 33 32  2  1  0  0  0
 35 34  1  0  0  0  0
 36 33  1  0  0  0  0
 37 36  1  0  0  0  0
 37 38  1  0  0  0  0
 39 37  1  0  0  0  0
 40 41  1  0  0  0  0
 40 46  1  0  0  0  0
 40 37  1  1  0  0  0
 41 43  1  0  0  0  0
 42 41  1  0  0  0  0
 43 45  1  0  0  0  0
 43 44  1  0  0  0  0
 46 45  1  0  0  0  0
 47 46  1  0  0  0  0
M  END
>  <minimizedAffinity>
-4.97391224

$$$$

 OpenBabel03252509063D

 47 49  0  0  1  0  0  0  0  0999 V2000
   38.9660   28.5060   41.7020 N   0  0  0  0  0  0  0  0  0  0  0  0
   39.3590   27.6130   42.7220 C   0  0  0  0  0  0  0  0  0  0  0  0
   38.2510   27.2120   43.6800 C   0  0  0  0  0  0  0  0  0  0  0  0
   36.8860   27.1170   43.0490 C   0  0  0  0  0  0  0  0  0  0  0  0
   36.9470   27.3640   41.5520 C   0  0  0  0  0  0  0  0  0  0  0  0
   37.6390   28.7790   41.4460 C   0  0  2  0  0  0  0  0  0  0  0  0
   39.6850   26.6620   42.2300 H   0  0  0  0  0  0  0  0  0  0  0  0
   40.2080   27.9180   43.3480 H   0  0  0  0  0  0  0  0  0  0  0  0
   38.5650   26.2770   44.1660 H   0  0  0  0  0  0  0  0  0  0  0  0
   38.2110   27.9960   44.4710 H   0  0  0  0  0  0  0  0  0  0  0  0
   36.4480   26.1260   43.2810 H   0  0  0  0  0  0  0  0  0  0  0  0
   36.1710   27.8620   43.4600 H   0  0  0  0  0  0  0  0  0  0  0  0
   35.9290   27.4940   41.1710 H   0  0  0  0  0  0  0  0  0  0  0  0
   37.5710   26.6330   41.0300 H   0  0  0  0  0  0  0  0  0  0  0  0
   37.0910   29.4110   42.1730 H   0  0  0  0  0  0  0  0  0  0  0  0
   39.9430   29.5190   41.4070 C   0  0  0  0  0  0  0  0  0  0  0  0
   39.8730   29.7740   40.3200 H   0  0  0  0  0  0  0  0  0  0  0  0
   40.9570   29.1030   41.6120 H   0  0  0  0  0  0  0  0  0  0  0  0
   39.6480   30.7390   42.2220 C   0  0  0  0  0  0  0  0  0  0  0  0
   38.6720   30.6770   42.6950 H   0  0  0  0  0  0  0  0  0  0  0  0
   40.4010   30.8680   43.0230 H   0  0  0  0  0  0  0  0  0  0  0  0
   41.0280   33.4480   40.0020 C   0  0  0  0  0  0  0  0  0  0  0  0
   40.9300   32.3100   40.8340 C   0  0  0  0  0  0  0  0  0  0  0  0
   39.7230   31.9410   41.3490 C   0  0  0  0  0  0  0  0  0  0  0  0
   38.6600   32.6950   41.0350 N   0  0  0  0  0  0  0  0  0  0  0  0
   38.7370   33.7710   40.2520 C   0  0  0  0  0  0  0  0  0  0  0  0
   39.9100   34.1610   39.7290 N   0  0  0  0  0  0  0  0  0  0  0  0
   41.9740   33.7510   39.5880 H   0  0  0  0  0  0  0  0  0  0  0  0
   41.8210   31.7230   41.0650 H   0  0  0  0  0  0  0  0  0  0  0  0
   37.8200   34.3100   40.0590 H   0  0  0  0  0  0  0  0  0  0  0  0
   37.4030   29.0950   40.1270 O   0  0  0  0  0  0  0  0  0  0  0  0
   36.4730   31.2940   38.9400 O   0  0  0  0  0  0  0  0  0  0  0  0
   36.1230   30.1510   39.9170 P   0  0  2  0  0  0  0  0  0  0  0  0
   35.9140   30.9510   41.4230 O   0  0  0  0  0  0  0  0  0  0  0  0
   35.4600   30.3390   42.0600 H   0  0  0  0  0  0  0  0  0  0  0  0
   34.6830   29.4340   39.5320 O   0  0  0  0  0  0  0  0  0  0  0  0
   34.8830   28.3610   38.6860 C   0  0  0  0  0  0  0  0  0  0  0  0
   35.9280   27.9690   38.7110 H   0  0  0  0  0  0  0  0  0  0  0  0
   34.2210   27.5300   38.9950 H   0  0  0  0  0  0  0  0  0  0  0  0
   34.5990   28.6870   37.2410 C   0  0  1  0  0  3  0  0  0  0  0  0
   35.8530   28.6130   36.3940 C   0  0  0  0  0  3  0  0  0  0  0  0
   35.7790   29.2530   35.4960 H   0  0  0  0  0  0  0  0  0  0  0  0
   35.8440   27.1550   35.9440 C   0  0  0  0  0  3  0  0  0  0  0  0
   36.8400   26.6750   36.1170 H   0  0  0  0  0  0  0  0  0  0  0  0
   34.8420   26.5310   36.6860 O   0  0  0  0  0  0  0  0  0  0  0  0
   33.8300   27.4930   36.6610 C   0  0  0  0  0  3  0  0  0  0  0  0
   33.6200   27.6730   35.5710 H   0  0  0  0  0  0  0  0  0  0  0  0
  1  2  1  0  0  0  0
  2  8  1  0  0  0  0
  2  3  1  0  0  0  0
  3  9  1  0  0  0  0
  3 10  1  0  0  0  0
  4 11  1  0  0  0  0
  4 12  1  0  0  0  0
  4  3  1  0  0  0  0
  5  4  1  0  0  0  0
  6  5  1  0  0  0  0
  6  1  1  0  0  0  0
  6 15  1  1  0  0  0
  7  2  1  0  0  0  0
 13  5  1  0  0  0  0
 14  5  1  0  0  0  0
 16 18  1  0  0  0  0
 16  1  1  0  0  0  0
 16 19  1  0  0  0  0
 17 16  1  0  0  0  0
 19 20  1  0  0  0  0
 19 21  1  0  0  0  0
 22 23  1  0  0  0  0
 23 29  1  0  0  0  0
 23 24  2  0  0  0  0
 24 19  1  0  0  0  0
 25 24  1  0  0  0  0
 26 25  2  0  0  0  0
 27 22  2  0  0  0  0
 27 26  1  0  0  0  0
 28 22  1  0  0  0  0
 30 26  1  0  0  0  0
 31  6  1  0  0  0  0
 33 32  2  6  0  0  0
 33 31  1  0  0  0  0
 33 34  1  0  0  0  0
 34 35  1  0  0  0  0
 36 33  1  0  0  0  0
 37 38  1  0  0  0  0
 37 39  1  0  0  0  0
 37 36  1  0  0  0  0
 40 37  1  1  0  0  0
 41 40  1  0  0  0  0
 42 41  1  0  0  0  0
 43 44  1  0  0  0  0
 43 41  1  0  0  0  0
 43 45  1  0  0  0  0
 46 45  1  0  0  0  0
 46 40  1  0  0  0  0
 47 46  1  0  0  0  0
M  END
>  <minimizedAffinity>
-4.95775938

$$$$

 OpenBabel03252509063D

 47 49  0  0  1  0  0  0  0  0999 V2000
   38.0300   27.4600   43.0730 N   0  0  0  0  0  0  0  0  0  0  0  0
   39.1780   26.8890   43.6630 C   0  0  0  0  0  0  0  0  0  0  0  0
   40.4980   27.4130   43.1250 C   0  0  0  0  0  0  0  0  0  0  0  0
   40.4750   28.8640   42.7190 C   0  0  0  0  0  0  0  0  0  0  0  0
   39.1340   29.5050   43.0280 C   0  0  0  0  0  0  0  0  0  0  0  0
   38.1040   28.5780   42.2700 C   0  0  2  0  0  0  0  0  0  0  0  0
   39.1700   27.1630   44.7490 H   0  0  0  0  0  0  0  0  0  0  0  0
   39.2530   25.7940   43.6430 H   0  0  0  0  0  0  0  0  0  0  0  0
   41.2670   27.1920   43.8800 H   0  0  0  0  0  0  0  0  0  0  0  0
   40.7410   26.8060   42.2230 H   0  0  0  0  0  0  0  0  0  0  0  0
   41.3060   29.3940   43.2230 H   0  0  0  0  0  0  0  0  0  0  0  0
   40.6460   29.0070   41.6300 H   0  0  0  0  0  0  0  0  0  0  0  0
   39.0840   30.4820   42.5350 H   0  0  0  0  0  0  0  0  0  0  0  0
   38.8950   29.4880   44.0950 H   0  0  0  0  0  0  0  0  0  0  0  0
   38.5340   28.4590   41.2550 H   0  0  0  0  0  0  0  0  0  0  0  0
   36.9660   26.5210   42.8410 C   0  0  0  0  0  0  0  0  0  0  0  0
   36.2110   26.9980   42.1690 H   0  0  0  0  0  0  0  0  0  0  0  0
   36.4800   26.2900   43.8180 H   0  0  0  0  0  0  0  0  0  0  0  0
   37.5220   25.3020   42.1760 C   0  0  0  0  0  0  0  0  0  0  0  0
   38.6010   25.3690   42.0570 H   0  0  0  0  0  0  0  0  0  0  0  0
   37.3080   24.3950   42.7740 H   0  0  0  0  0  0  0  0  0  0  0  0
   35.7160   23.7100   39.2820 C   0  0  0  0  0  0  0  0  0  0  0  0
   36.3440   23.9060   40.5330 C   0  0  0  0  0  0  0  0  0  0  0  0
   36.8660   25.1230   40.8530 C   0  0  0  0  0  0  0  0  0  0  0  0
   36.7580   26.1020   39.9430 N   0  0  0  0  0  0  0  0  0  0  0  0
   36.1680   25.9330   38.7590 C   0  0  0  0  0  0  0  0  0  0  0  0
   35.6440   24.7470   38.4130 N   0  0  0  0  0  0  0  0  0  0  0  0
   35.2990   22.7550   39.0160 H   0  0  0  0  0  0  0  0  0  0  0  0
   36.4110   23.0820   41.2460 H   0  0  0  0  0  0  0  0  0  0  0  0
   36.1320   26.7870   38.0970 H   0  0  0  0  0  0  0  0  0  0  0  0
   36.9640   29.3480   42.3180 O   0  0  0  0  0  0  0  0  0  0  0  0
   35.0470   29.1880   40.4730 O   0  0  0  0  0  0  0  0  0  0  0  0
   36.4150   29.8160   40.8090 P   0  0  2  0  0  0  0  0  0  0  0  0
   37.4840   29.0990   39.6710 O   0  0  0  0  0  0  0  0  0  0  0  0
   38.3360   29.6100   39.6520 H   0  0  0  0  0  0  0  0  0  0  0  0
   36.4250   31.4480   40.5390 O   0  0  0  0  0  0  0  0  0  0  0  0
   36.9510   31.7330   39.2950 C   0  0  0  0  0  0  0  0  0  0  0  0
   37.4380   30.8540   38.8100 H   0  0  0  0  0  0  0  0  0  0  0  0
   36.1340   32.0590   38.6230 H   0  0  0  0  0  0  0  0  0  0  0  0
   37.9990   32.8170   39.3320 C   0  0  1  0  0  3  0  0  0  0  0  0
   38.5800   32.9870   40.7200 C   0  0  0  0  0  3  0  0  0  0  0  0
   38.9780   34.0070   40.8760 H   0  0  0  0  0  0  0  0  0  0  0  0
   39.7570   32.0150   40.6920 C   0  0  0  0  0  3  0  0  0  0  0  0
   39.7520   31.3530   41.5940 H   0  0  0  0  0  0  0  0  0  0  0  0
   39.6150   31.2780   39.5170 O   0  0  0  0  0  0  0  0  0  0  0  0
   39.2330   32.2650   38.6060 C   0  0  0  0  0  3  0  0  0  0  0  0
   40.0600   33.0270   38.6330 H   0  0  0  0  0  0  0  0  0  0  0  0
  1  2  1  0  0  0  0
  2  7  1  0  0  0  0
  3  2  1  0  0  0  0
  3  9  1  0  0  0  0
  4  5  1  0  0  0  0
  4  3  1  0  0  0  0
  4 11  1  0  0  0  0
  5 14  1  0  0  0  0
  6 15  1  6  0  0  0
  6 31  1  0  0  0  0
  6  5  1  0  0  0  0
  6  1  1  0  0  0  0
  8  2  1  0  0  0  0
 10  3  1  0  0  0  0
 12  4  1  0  0  0  0
 13  5  1  0  0  0  0
 16  1  1  0  0  0  0
 16 18  1  0  0  0  0
 17 16  1  0  0  0  0
 19 21  1  0  0  0  0
 19 16  1  0  0  0  0
 20 19  1  0  0  0  0
 22 23  1  0  0  0  0
 23 24  2  0  0  0  0
 23 29  1  0  0  0  0
 24 19  1  0  0  0  0
 25 24  1  0  0  0  0
 26 25  2  0  0  0  0
 27 26  1  0  0  0  0
 27 22  2  0  0  0  0
 28 22  1  0  0  0  0
 30 26  1  0  0  0  0
 33 32  2  6  0  0  0
 33 31  1  0  0  0  0
 34 33  1  0  0  0  0
 35 34  1  0  0  0  0
 36 33  1  0  0  0  0
 37 36  1  0  0  0  0
 38 37  1  0  0  0  0
 39 37  1  0  0  0  0
 40 37  1  1  0  0  0
 40 41  1  0  0  0  0
 41 42  1  0  0  0  0
 43 41  1  0  0  0  0
 43 44  1  0  0  0  0
 45 43  1  0  0  0  0
 46 47  1  0  0  0  0
 46 40  1  0  0  0  0
 46 45  1  0  0  0  0
M  END
>  <minimizedAffinity>
-4.93906641

$$$$

 OpenBabel03252509063D

 47 49  0  0  1  0  0  0  0  0999 V2000
   38.0880   27.7880   43.0050 N   0  0  0  0  0  0  0  0  0  0  0  0
   39.2390   27.2200   43.5940 C   0  0  0  0  0  0  0  0  0  0  0  0
   40.5550   27.6840   42.9950 C   0  0  0  0  0  0  0  0  0  0  0  0
   40.5530   29.1130   42.5160 C   0  0  0  0  0  0  0  0  0  0  0  0
   39.2360   29.8010   42.8270 C   0  0  0  0  0  0  0  0  0  0  0  0
   38.1650   28.8620   42.1440 C   0  0  2  0  0  0  0  0  0  0  0  0
   39.2670   27.5480   44.6640 H   0  0  0  0  0  0  0  0  0  0  0  0
   39.2880   26.1240   43.6280 H   0  0  0  0  0  0  0  0  0  0  0  0
   41.3390   27.4830   43.7400 H   0  0  0  0  0  0  0  0  0  0  0  0
   40.7590   27.0270   42.1190 H   0  0  0  0  0  0  0  0  0  0  0  0
   41.4100   29.6480   42.9710 H   0  0  0  0  0  0  0  0  0  0  0  0
   40.6980   29.1970   41.4170 H   0  0  0  0  0  0  0  0  0  0  0  0
   39.1940   30.7530   42.2860 H   0  0  0  0  0  0  0  0  0  0  0  0
   39.0260   29.8440   43.9000 H   0  0  0  0  0  0  0  0  0  0  0  0
   38.5640   28.6820   41.1260 H   0  0  0  0  0  0  0  0  0  0  0  0
   36.9970   26.8640   42.8500 C   0  0  0  0  0  0  0  0  0  0  0  0
   36.2680   27.2940   42.1190 H   0  0  0  0  0  0  0  0  0  0  0  0
   36.4890   26.7490   43.8360 H   0  0  0  0  0  0  0  0  0  0  0  0
   37.5230   25.5670   42.3210 C   0  0  0  0  0  0  0  0  0  0  0  0
   38.6070   25.5770   42.2430 H   0  0  0  0  0  0  0  0  0  0  0  0
   37.2440   24.7280   42.9880 H   0  0  0  0  0  0  0  0  0  0  0  0
   35.8680   23.7580   39.4640 C   0  0  0  0  0  0  0  0  0  0  0  0
   36.4530   24.0410   40.7200 C   0  0  0  0  0  0  0  0  0  0  0  0
   36.9110   25.2950   40.9930 C   0  0  0  0  0  0  0  0  0  0  0  0
   36.7830   26.2240   40.0340 N   0  0  0  0  0  0  0  0  0  0  0  0
   36.2340   25.9720   38.8460 C   0  0  0  0  0  0  0  0  0  0  0  0
   35.7730   24.7480   38.5450 N   0  0  0  0  0  0  0  0  0  0  0  0
   35.5020   22.7730   39.2350 H   0  0  0  0  0  0  0  0  0  0  0  0
   36.5380   23.2560   41.4730 H   0  0  0  0  0  0  0  0  0  0  0  0
   36.1770   26.7910   38.1420 H   0  0  0  0  0  0  0  0  0  0  0  0
   37.0450   29.6600   42.1830 O   0  0  0  0  0  0  0  0  0  0  0  0
   36.6020   31.7760   40.6230 O   0  0  0  0  0  0  0  0  0  0  0  0
   36.5870   30.2350   40.6810 P   0  0  2  0  0  0  0  0  0  0  0  0
   34.9250   29.8350   40.5040 O   0  0  0  0  0  0  0  0  0  0  0  0
   34.8400   28.8680   40.2950 H   0  0  0  0  0  0  0  0  0  0  0  0
   37.3960   29.5640   39.4020 O   0  0  0  0  0  0  0  0  0  0  0  0
   38.1520   30.5180   38.7510 C   0  0  0  0  0  0  0  0  0  0  0  0
   38.0600   30.4710   37.6390 H   0  0  0  0  0  0  0  0  0  0  0  0
   37.8080   31.5240   39.0590 H   0  0  0  0  0  0  0  0  0  0  0  0
   39.6270   30.4060   39.0480 C   0  0  1  0  0  3  0  0  0  0  0  0
   40.4560   30.4330   37.7810 C   0  0  0  0  0  3  0  0  0  0  0  0
   41.4270   29.9210   37.9150 H   0  0  0  0  0  0  0  0  0  0  0  0
   40.7250   31.9260   37.6110 C   0  0  0  0  0  3  0  0  0  0  0  0
   40.4930   32.2590   36.5680 H   0  0  0  0  0  0  0  0  0  0  0  0
   39.9130   32.5700   38.5450 O   0  0  0  0  0  0  0  0  0  0  0  0
   40.0580   31.7450   39.6620 C   0  0  0  0  0  3  0  0  0  0  0  0
   41.1620   31.7250   39.8740 H   0  0  0  0  0  0  0  0  0  0  0  0
  1  2  1  0  0  0  0
  2  8  1  0  0  0  0
  2  7  1  0  0  0  0
  3  2  1  0  0  0  0
  3  9  1  0  0  0  0
  4  5  1  0  0  0  0
  4 11  1  0  0  0  0
  4  3  1  0  0  0  0
  5 14  1  0  0  0  0
  6 15  1  6  0  0  0
  6 31  1  0  0  0  0
  6  5  1  0  0  0  0
  6  1  1  0  0  0  0
 10  3  1  0  0  0  0
 12  4  1  0  0  0  0
 13  5  1  0  0  0  0
 16  1  1  0  0  0  0
 16 18  1  0  0  0  0
 17 16  1  0  0  0  0
 19 16  1  0  0  0  0
 19 21  1  0  0  0  0
 20 19  1  0  0  0  0
 22 23  1  0  0  0  0
 23 24  2  0  0  0  0
 23 29  1  0  0  0  0
 24 19  1  0  0  0  0
 25 24  1  0  0  0  0
 26 25  2  0  0  0  0
 27 26  1  0  0  0  0
 27 22  2  0  0  0  0
 28 22  1  0  0  0  0
 30 26  1  0  0  0  0
 33 32  2  6  0  0  0
 33 31  1  0  0  0  0
 34 33  1  0  0  0  0
 35 34  1  0  0  0  0
 36 33  1  0  0  0  0
 37 39  1  0  0  0  0
 37 36  1  0  0  0  0
 38 37  1  0  0  0  0
 40 37  1  6  0  0  0
 40 46  1  0  0  0  0
 41 42  1  0  0  0  0
 41 40  1  0  0  0  0
 43 41  1  0  0  0  0
 43 45  1  0  0  0  0
 44 43  1  0  0  0  0
 45 46  1  0  0  0  0
 46 47  1  0  0  0  0
M  END
>  <minimizedAffinity>
-4.92791319

$$$$

 OpenBabel03252509063D

 47 49  0  0  1  0  0  0  0  0999 V2000
   37.0670   26.5980   41.7230 N   0  0  0  0  0  0  0  0  0  0  0  0
   37.1880   25.2230   42.0160 C   0  0  0  0  0  0  0  0  0  0  0  0
   36.5580   24.2960   40.9910 C   0  0  0  0  0  0  0  0  0  0  0  0
   36.6280   24.7960   39.5720 C   0  0  0  0  0  0  0  0  0  0  0  0
   37.4040   26.0970   39.4790 C   0  0  0  0  0  0  0  0  0  0  0  0
   36.6460   27.0450   40.4890 C   0  0  2  0  0  0  0  0  0  0  0  0
   38.2790   24.9720   42.0120 H   0  0  0  0  0  0  0  0  0  0  0  0
   36.8200   24.8900   42.9960 H   0  0  0  0  0  0  0  0  0  0  0  0
   37.0210   23.3070   41.1210 H   0  0  0  0  0  0  0  0  0  0  0  0
   35.4830   24.1930   41.2690 H   0  0  0  0  0  0  0  0  0  0  0  0
   37.0730   24.0090   38.9320 H   0  0  0  0  0  0  0  0  0  0  0  0
   35.6240   24.9990   39.1390 H   0  0  0  0  0  0  0  0  0  0  0  0
   37.2540   26.5310   38.4840 H   0  0  0  0  0  0  0  0  0  0  0  0
   38.4410   25.9940   39.8120 H   0  0  0  0  0  0  0  0  0  0  0  0
   35.5740   26.9240   40.2320 H   0  0  0  0  0  0  0  0  0  0  0  0
   36.8010   27.4180   42.8750 C   0  0  0  0  0  0  0  0  0  0  0  0
   36.0190   26.9150   43.4960 H   0  0  0  0  0  0  0  0  0  0  0  0
   36.4020   28.3990   42.5250 H   0  0  0  0  0  0  0  0  0  0  0  0
   38.0550   27.5610   43.6770 C   0  0  0  0  0  0  0  0  0  0  0  0
   37.8400   27.8020   44.7150 H   0  0  0  0  0  0  0  0  0  0  0  0
   38.6390   26.6210   43.6670 H   0  0  0  0  0  0  0  0  0  0  0  0
   41.0560   29.3390   42.2590 C   0  0  0  0  0  0  0  0  0  0  0  0
   40.2240   28.3520   42.8370 C   0  0  0  0  0  0  0  0  0  0  0  0
   38.9080   28.6170   43.0680 C   0  0  0  0  0  0  0  0  0  0  0  0
   38.4520   29.8320   42.7290 N   0  0  0  0  0  0  0  0  0  0  0  0
   39.2230   30.7730   42.1840 C   0  0  0  0  0  0  0  0  0  0  0  0
   40.5240   30.5430   41.9430 N   0  0  0  0  0  0  0  0  0  0  0  0
   42.0960   29.1440   42.0710 H   0  0  0  0  0  0  0  0  0  0  0  0
   40.6350   27.3760   43.0980 H   0  0  0  0  0  0  0  0  0  0  0  0
   38.7580   31.7190   41.9470 H   0  0  0  0  0  0  0  0  0  0  0  0
   37.1760   28.2710   40.1550 O   0  0  0  0  0  0  0  0  0  0  0  0
   36.5870   30.4890   38.7970 O   0  0  0  0  0  0  0  0  0  0  0  0
   36.0180   29.4010   39.7310 P   0  0  2  0  0  0  0  0  0  0  0  0
   35.6380   30.2570   41.1710 O   0  0  0  0  0  0  0  0  0  0  0  0
   35.0530   29.6940   41.7440 H   0  0  0  0  0  0  0  0  0  0  0  0
   34.6060   28.7660   39.1440 O   0  0  0  0  0  0  0  0  0  0  0  0
   34.4330   29.1060   37.8180 C   0  0  0  0  0  0  0  0  0  0  0  0
   34.3180   30.2040   37.6550 H   0  0  0  0  0  0  0  0  0  0  0  0
   35.3260   28.7880   37.2450 H   0  0  0  0  0  0  0  0  0  0  0  0
   33.2150   28.4670   37.1990 C   0  0  1  0  0  3  0  0  0  0  0  0
   32.3520   29.4850   36.4850 C   0  0  0  0  0  3  0  0  0  0  0  0
   31.2960   29.1600   36.4270 H   0  0  0  0  0  0  0  0  0  0  0  0
   32.9350   29.4610   35.0740 C   0  0  0  0  0  3  0  0  0  0  0  0
   33.1430   30.4980   34.7080 H   0  0  0  0  0  0  0  0  0  0  0  0
   34.1030   28.7050   35.1560 O   0  0  0  0  0  0  0  0  0  0  0  0
   33.7060   27.6580   35.9910 C   0  0  0  0  0  3  0  0  0  0  0  0
   32.8270   27.1840   35.4710 H   0  0  0  0  0  0  0  0  0  0  0  0
  1  2  1  0  0  0  0
  1 16  1  0  0  0  0
  2  8  1  0  0  0  0
  3  9  1  0  0  0  0
  3 10  1  0  0  0  0
  3  2  1  0  0  0  0
  4  3  1  0  0  0  0
  5  4  1  0  0  0  0
  5 14  1  0  0  0  0
  5  6  1  0  0  0  0
  6 15  1  6  0  0  0
  6  1  1  0  0  0  0
  7  2  1  0  0  0  0
 11  4  1  0  0  0  0
 12  4  1  0  0  0  0
 13  5  1  0  0  0  0
 16 17  1  0  0  0  0
 16 19  1  0  0  0  0
 18 16  1  0  0  0  0
 19 20  1  0  0  0  0
 21 19  1  0  0  0  0
 22 23  1  0  0  0  0
 23 24  2  0  0  0  0
 23 29  1  0  0  0  0
 24 19  1  0  0  0  0
 25 24  1  0  0  0  0
 26 25  2  0  0  0  0
 27 26  1  0  0  0  0
 27 22  2  0  0  0  0
 28 22  1  0  0  0  0
 30 26  1  0  0  0  0
 31  6  1  0  0  0  0
 33 32  2  6  0  0  0
 33 31  1  0  0  0  0
 33 34  1  0  0  0  0
 34 35  1  0  0  0  0
 36 33  1  0  0  0  0
 37 36  1  0  0  0  0
 38 37  1  0  0  0  0
 39 37  1  0  0  0  0
 40 37  1  6  0  0  0
 41 40  1  0  0  0  0
 42 41  1  0  0  0  0
 43 45  1  0  0  0  0
 43 41  1  0  0  0  0
 44 43  1  0  0  0  0
 45 46  1  0  0  0  0
 46 40  1  0  0  0  0
 47 46  1  0  0  0  0
M  END
>  <minimizedAffinity>
-4.90877438

$$$$
