REMARK  Name = 
REMARK  2 active torsions:
REMARK  status: ('A' for Active; 'I' for Inactive)
REMARK    1  A    between atoms: C_3  and  C_10
REMARK    2  A    between atoms: C_7  and  C_19
REMARK                            x       y       z     vdW  Elec       q    Type
REMARK                         _______ _______ _______ _____ _____    ______ ____
ROOT
ATOM      1  C   UNL     1      45.429  35.190  43.107  0.00  0.00    +0.000 A 
ATOM      2  C   UNL     1      46.456  35.561  42.213  0.00  0.00    +0.000 A 
ATOM      3  C   UNL     1      47.679  34.888  42.376  0.00  0.00    +0.000 A 
ATOM      4  N   UNL     1      47.769  33.954  43.361  0.00  0.00    +0.000 NA
ATOM      5  C   UNL     1      46.747  33.643  44.187  0.00  0.00    +0.000 A 
ATOM      6  N   UNL     1      45.560  34.274  44.053  0.00  0.00    +0.000 NA
ATOM      7  C   UNL     1      43.399  35.343  41.885  0.00  0.00    +0.000 C 
ATOM      8  O   UNL     1      43.950  34.477  41.151  0.00  0.00    +0.000 OA
ATOM      9  N   UNL     1      44.153  35.838  42.996  0.00  0.00    +0.000 N 
ATOM     10  H   UNL     1      46.296  36.317  41.457  0.00  0.00    +0.000 HD
ATOM     11  H   UNL     1      46.871  32.886  44.960  0.00  0.00    +0.000 HD
ATOM     12  H   UNL     1      43.765  36.590  43.623  0.00  0.00    +0.000 HD
ENDROOT
BRANCH   7  15
ATOM     13 CL   UNL     1      42.177  34.692  39.286  0.00  0.00    +0.000 Cl
ATOM     14  C   UNL     1      41.369  35.648  40.510  0.00  0.00    +0.000 A 
ATOM     15  C   UNL     1      42.040  35.894  41.700  0.00  0.00    +0.000 A 
ATOM     16  C   UNL     1      41.536  36.628  42.756  0.00  0.00    +0.000 A 
ATOM     17  H   UNL     1      42.072  36.801  43.658  0.00  0.00    +0.000 HD
ATOM     18  C   UNL     1      40.271  37.145  42.594  0.00  0.00    +0.000 A 
ATOM     19  H   UNL     1      39.757  37.747  43.358  0.00  0.00    +0.000 HD
ATOM     20  C   UNL     1      39.561  36.929  41.428  0.00  0.00    +0.000 A 
ATOM     21  H   UNL     1      38.559  37.342  41.305  0.00  0.00    +0.000 HD
ATOM     22  C   UNL     1      40.100  36.188  40.394  0.00  0.00    +0.000 A 
ATOM     23 CL   UNL     1      39.246  35.879  38.887  0.00  0.00    +0.000 Cl
ENDBRANCH   7  15
BRANCH   3  24
ATOM     24  C   UNL     1      48.740  35.269  41.456  0.00  0.00    +0.000 C 
ATOM     25  F   UNL     1      49.853  34.452  41.673  0.00  0.00    +0.000 F 
ATOM     26  F   UNL     1      49.146  36.546  41.800  0.00  0.00    +0.000 F 
ATOM     27  F   UNL     1      48.390  35.138  40.138  0.00  0.00    +0.000 F 
ENDBRANCH   3  24
TORSDOF 2
