REMARK  Name = 
REMARK  2 active torsions:
REMARK  status: ('A' for Active; 'I' for Inactive)
REMARK    1  A    between atoms: C_2  and  S_7
REMARK    2  A    between atoms: S_7  and  C_13
REMARK                            x       y       z     vdW  Elec       q    Type
REMARK                         _______ _______ _______ _____ _____    ______ ____
ROOT
ATOM      1 CL   UNL     1      43.175  33.600  39.103  0.00  0.00    +0.000 Cl
ATOM      2  C   UNL     1      41.893  34.105  40.191  0.00  0.00    +0.000 A 
ATOM      3  C   UNL     1      42.119  34.924  41.282  0.00  0.00    +0.000 A 
ATOM      4  C   UNL     1      41.042  35.276  42.095  0.00  0.00    +0.000 A 
ATOM      5  H   UNL     1      41.276  35.924  42.942  0.00  0.00    +0.000 HD
ATOM      6  C   UNL     1      39.770  34.816  41.818  0.00  0.00    +0.000 A 
ATOM      7  H   UNL     1      38.971  35.130  42.494  0.00  0.00    +0.000 HD
ATOM      8  C   UNL     1      39.530  33.995  40.728  0.00  0.00    +0.000 A 
ATOM      9  H   UNL     1      38.513  33.666  40.560  0.00  0.00    +0.000 HD
ATOM     10  C   UNL     1      40.607  33.655  39.931  0.00  0.00    +0.000 A 
ATOM     11 CL   UNL     1      40.211  32.615  38.578  0.00  0.00    +0.000 Cl
ENDROOT
BRANCH   3  12
ATOM     12  S   UNL     1      43.806  35.451  41.534  0.00  0.00    +0.000 S 
BRANCH  12  14
ATOM     13  C   UNL     1      44.263  35.740  44.263  0.00  0.00    +0.000 A 
ATOM     14  C   UNL     1      44.423  34.910  43.123  0.00  0.00    +0.000 A 
ATOM     15  C   UNL     1      45.063  33.689  43.287  0.00  0.00    +0.000 A 
ATOM     16  N   UNL     1      45.511  33.331  44.518  0.00  0.00    +0.000 NA
ATOM     17  C   UNL     1      45.341  34.149  45.585  0.00  0.00    +0.000 A 
ATOM     18  N   UNL     1      44.731  35.329  45.461  0.00  0.00    +0.000 NA
ATOM     19  H   UNL     1      43.767  36.678  44.114  0.00  0.00    +0.000 HD
ATOM     20  H   UNL     1      45.186  33.056  42.424  0.00  0.00    +0.000 HD
ATOM     21  H   UNL     1      45.739  33.747  46.490  0.00  0.00    +0.000 HD
ENDBRANCH  12  14
ENDBRANCH   3  12
TORSDOF 2
