
 OpenBabel03252503283D

 27 28  0  0  0  0  0  0  0  0999 V2000
   45.1880   34.6500   42.8900 C   0  0  0  0  0  0  0  0  0  0  0  0
   46.2050   35.1250   42.0340 C   0  0  0  0  0  0  0  0  0  0  0  0
   47.5160   34.7590   42.3830 C   0  0  0  0  0  0  0  0  0  0  0  0
   47.6920   33.9920   43.4930 N   0  0  0  0  0  0  0  0  0  0  0  0
   46.6750   33.5680   44.2730 C   0  0  0  0  0  0  0  0  0  0  0  0
   45.4050   33.9050   43.9610 N   0  0  0  0  0  0  0  0  0  0  0  0
   43.3090   34.2110   41.5060 C   0  0  0  0  0  0  0  0  0  0  0  0
   44.1000   33.4030   40.9450 O   0  0  0  0  0  0  0  0  0  0  0  0
   43.8250   34.9880   42.5910 N   0  0  0  0  0  0  0  0  0  0  0  0
   45.9730   35.7320   41.1700 H   0  0  0  0  0  0  0  0  0  0  0  0
   46.8700   32.9540   45.1510 H   0  0  0  0  0  0  0  0  0  0  0  0
   43.2280   35.7070   43.0760 H   0  0  0  0  0  0  0  0  0  0  0  0
   41.6070   31.8280   41.8180 Cl  0  0  0  0  0  0  0  0  0  0  0  0
   41.0000   33.3700   41.2510 C   0  0  0  0  0  0  0  0  0  0  0  0
   41.8930   34.4270   41.1420 C   0  0  0  0  0  0  0  0  0  0  0  0
   41.5670   35.6980   40.7120 C   0  0  0  0  0  0  0  0  0  0  0  0
   42.2710   36.4910   40.6370 H   0  0  0  0  0  0  0  0  0  0  0  0
   40.2490   35.9090   40.3700 C   0  0  0  0  0  0  0  0  0  0  0  0
   39.8610   36.8760   40.0140 H   0  0  0  0  0  0  0  0  0  0  0  0
   39.3220   34.8910   40.4620 C   0  0  0  0  0  0  0  0  0  0  0  0
   38.2790   35.0640   40.1900 H   0  0  0  0  0  0  0  0  0  0  0  0
   39.6880   33.6310   40.8970 C   0  0  0  0  0  0  0  0  0  0  0  0
   38.5520   32.2940   41.0330 Cl  0  0  0  0  0  0  0  0  0  0  0  0
   48.5670   35.2480   41.5030 C   0  0  0  0  0  0  0  0  0  0  0  0
   49.7240   34.4900   41.7020 F   0  0  0  0  0  0  0  0  0  0  0  0
   48.8880   36.5290   41.9150 F   0  0  0  0  0  0  0  0  0  0  0  0
   48.2470   35.1610   40.1730 F   0  0  0  0  0  0  0  0  0  0  0  0
  1  6  1  0  0  0  0
  2  3  1  0  0  0  0
  2  1  2  0  0  0  0
  3  4  2  0  0  0  0
  4  5  1  0  0  0  0
  5 11  1  0  0  0  0
  6  5  2  0  0  0  0
  7  9  1  0  0  0  0
  8  7  2  0  0  0  0
  9  1  1  0  0  0  0
  9 12  1  0  0  0  0
 10  2  1  0  0  0  0
 14 13  1  0  0  0  0
 15 14  1  0  0  0  0
 15  7  1  0  0  0  0
 16 15  2  0  0  0  0
 17 16  1  0  0  0  0
 18 20  2  0  0  0  0
 18 16  1  0  0  0  0
 19 18  1  0  0  0  0
 20 22  1  0  0  0  0
 21 20  1  0  0  0  0
 22 23  1  0  0  0  0
 22 14  2  0  0  0  0
 24 25  1  0  0  0  0
 24 26  1  0  0  0  0
 24  3  1  0  0  0  0
 27 24  1  0  0  0  0
M  END
>  <minimizedAffinity>
-6.79710388

>  <minimizedRMSD>
1.29925728

$$$$
