
 OpenBabel03242517433D

 21 22  0  0  0  0  0  0  0  0999 V2000
   42.1520   31.8800   41.6560 Cl  0  0  0  0  0  0  0  0  0  0  0  0
   41.4320   33.3830   41.1060 C   0  0  0  0  0  0  0  0  0  0  0  0
   42.1850   34.5030   40.8020 C   0  0  0  0  0  0  0  0  0  0  0  0
   41.5300   35.6570   40.3730 C   0  0  0  0  0  0  0  0  0  0  0  0
   42.1720   36.5130   40.1460 H   0  0  0  0  0  0  0  0  0  0  0  0
   40.1550   35.6850   40.2530 C   0  0  0  0  0  0  0  0  0  0  0  0
   39.7060   36.6210   39.9130 H   0  0  0  0  0  0  0  0  0  0  0  0
   39.3910   34.5710   40.5550 C   0  0  0  0  0  0  0  0  0  0  0  0
   38.3170   34.6510   40.4420 H   0  0  0  0  0  0  0  0  0  0  0  0
   40.0530   33.4340   40.9800 C   0  0  0  0  0  0  0  0  0  0  0  0
   39.0070   32.0740   41.3390 Cl  0  0  0  0  0  0  0  0  0  0  0  0
   43.9520   34.3410   40.9960 S   0  0  0  0  0  0  0  0  0  0  0  0
   44.2130   35.6760   43.4230 C   0  0  0  0  0  0  0  0  0  0  0  0
   44.4280   34.4650   42.7160 C   0  0  0  0  0  0  0  0  0  0  0  0
   45.0110   33.4040   43.3960 C   0  0  0  0  0  0  0  0  0  0  0  0
   45.3520   33.5570   44.7020 N   0  0  0  0  0  0  0  0  0  0  0  0
   45.1320   34.7280   45.3460 C   0  0  0  0  0  0  0  0  0  0  0  0
   44.5750   35.7670   44.7210 N   0  0  0  0  0  0  0  0  0  0  0  0
   43.7630   36.4820   42.8790 H   0  0  0  0  0  0  0  0  0  0  0  0
   45.1760   32.4830   42.8620 H   0  0  0  0  0  0  0  0  0  0  0  0
   45.4460   34.7120   46.3660 H   0  0  0  0  0  0  0  0  0  0  0  0
  2  1  1  0  0  0  0
  3 12  1  0  0  0  0
  3  2  2  0  0  0  0
  4  3  1  0  0  0  0
  5  4  1  0  0  0  0
  6  4  2  0  0  0  0
  6  8  1  0  0  0  0
  7  6  1  0  0  0  0
  8 10  2  0  0  0  0
  9  8  1  0  0  0  0
 10  2  1  0  0  0  0
 10 11  1  0  0  0  0
 12 14  1  0  0  0  0
 13 18  1  0  0  0  0
 14 15  1  0  0  0  0
 14 13  2  0  0  0  0
 15 16  2  0  0  0  0
 16 17  1  0  0  0  0
 17 21  1  0  0  0  0
 18 17  2  0  0  0  0
 19 13  1  0  0  0  0
 20 15  1  0  0  0  0
M  END
>  <minimizedAffinity>
-4.54285145

>  <minimizedRMSD>
0.823503256

$$$$
