REMARK  Name = 
REMARK  7 active torsions:
REMARK  status: ('A' for Active; 'I' for Inactive)
REMARK    1  A    between atoms: C_3  and  O_13
REMARK    2  A    between atoms: C_5  and  C_8
REMARK    3  A    between atoms: C_7  and  O_12
REMARK    4  A    between atoms: O_13  and  P_15
REMARK    5  A    between atoms: P_15  and  O_16
REMARK    6  A    between atoms: P_15  and  O_17
REMARK    7  A    between atoms: O_17  and  C_30
REMARK                            x       y       z     vdW  Elec       q    Type
REMARK                         _______ _______ _______ _____ _____    ______ ____
ROOT
ATOM      1  C   UNL     1      44.571  35.591  44.753  0.00  0.00    +0.000 A 
ATOM      2  C   UNL     1      45.148  35.737  43.476  0.00  0.00    +0.000 A 
ATOM      3  C   UNL     1      46.198  34.877  43.161  0.00  0.00    +0.000 A 
ATOM      4  N   UNL     1      46.605  33.968  44.064  0.00  0.00    +0.000 NA
ATOM      5  C   UNL     1      46.042  33.845  45.271  0.00  0.00    +0.000 A 
ATOM      6  N   UNL     1      45.016  34.665  45.617  0.00  0.00    +0.000 NA
ATOM      7  H   UNL     1      43.751  36.226  45.063  0.00  0.00    +0.000 HD
ATOM      8  H   UNL     1      44.734  36.506  42.838  0.00  0.00    +0.000 HD
ENDROOT
BRANCH   5  10
ATOM      9  C   UNL     1      45.410  32.549  47.324  0.00  0.00    +0.000 C 
ATOM     10  C   UNL     1      46.455  32.876  46.300  0.00  0.00    +0.000 C 
ATOM     11  C   UNL     1      46.589  31.474  45.655  0.00  0.00    +0.000 C 
ATOM     12  O   UNL     1      46.353  30.566  46.641  0.00  0.00    +0.000 OA
ATOM     13  C   UNL     1      45.971  31.217  47.809  0.00  0.00    +0.000 C 
ATOM     14  H   UNL     1      44.463  32.319  46.784  0.00  0.00    +0.000 HD
ATOM     15  H   UNL     1      47.411  33.136  46.786  0.00  0.00    +0.000 HD
ATOM     16  H   UNL     1      47.651  31.396  45.335  0.00  0.00    +0.000 HD
ATOM     17  H   UNL     1      45.965  31.397  44.763  0.00  0.00    +0.000 HD
ATOM     18  H   UNL     1      46.811  31.429  48.478  0.00  0.00    +0.000 HD
ATOM     19  H   UNL     1      45.175  30.601  48.283  0.00  0.00    +0.000 HD
BRANCH   9  20
ATOM     20  O   UNL     1      45.245  33.487  48.298  0.00  0.00    +0.000 OA
ATOM     21  H   UNL     1      44.272  33.515  48.557  0.00  0.00    +0.000 HD
ENDBRANCH   9  20
ENDBRANCH   5  10
BRANCH   3  22
ATOM     22  O   UNL     1      46.759  35.029  41.903  0.00  0.00    +0.000 OA
BRANCH  22  24
ATOM     23  O   UNL     1      48.586  33.249  41.137  0.00  0.00    +0.000 OA
ATOM     24  P   UNL     1      48.424  34.676  41.662  0.00  0.00    +0.000 P 
BRANCH  24  25
ATOM     25  O   UNL     1      49.034  35.791  40.583  0.00  0.00    +0.000 OA
ATOM     26  H   UNL     1      48.751  35.523  39.661  0.00  0.00    +0.000 HD
ENDBRANCH  24  25
BRANCH  24  27
ATOM     27  O   UNL     1      49.158  34.781  43.180  0.00  0.00    +0.000 OA
BRANCH  27  30
ATOM     28 CL   UNL     1      48.558  31.971  43.613  0.00  0.00    +0.000 Cl
ATOM     29  C   UNL     1      50.105  32.792  43.797  0.00  0.00    +0.000 A 
ATOM     30  C   UNL     1      50.321  34.153  43.571  0.00  0.00    +0.000 A 
ATOM     31  C   UNL     1      51.584  34.678  43.750  0.00  0.00    +0.000 A 
ATOM     32  H   UNL     1      51.642  35.738  43.549  0.00  0.00    +0.000 HD
ATOM     33  C   UNL     1      52.637  33.910  44.144  0.00  0.00    +0.000 A 
ATOM     34  H   UNL     1      53.606  34.349  44.275  0.00  0.00    +0.000 HD
ATOM     35  C   UNL     1      52.383  32.570  44.358  0.00  0.00    +0.000 A 
ATOM     36  H   UNL     1      53.217  31.947  44.672  0.00  0.00    +0.000 HD
ATOM     37  C   UNL     1      51.156  31.967  44.202  0.00  0.00    +0.000 A 
ATOM     38 CL   UNL     1      50.950  30.255  44.502  0.00  0.00    +0.000 Cl
ENDBRANCH  27  30
ENDBRANCH  24  27
ENDBRANCH  22  24
ENDBRANCH   3  22
TORSDOF 7
