
 OpenBabel03242521173D

 40 42  0  0  0  0  0  0  0  0999 V2000
   46.4460   32.7460   46.5730 C   0  0  0  0  0  0  0  0  0  0  0  0
   47.3380   33.2350   47.0500 H   0  0  0  0  0  0  0  0  0  0  0  0
   46.8410   31.8710   46.0330 H   0  0  0  0  0  0  0  0  0  0  0  0
   44.5410   35.5430   44.9740 C   0  0  0  0  0  0  0  0  0  0  0  0
   45.1130   35.5370   43.6840 C   0  0  0  0  0  0  0  0  0  0  0  0
   46.0960   34.5940   43.4470 C   0  0  0  0  0  0  0  0  0  0  0  0
   46.4690   33.7200   44.4540 N   0  0  0  0  0  0  0  0  0  0  0  0
   45.8780   33.7830   45.6670 C   0  0  0  0  0  0  0  0  0  0  0  0
   44.9120   34.6870   45.9450 N   0  0  0  0  0  0  0  0  0  0  0  0
   43.7680   36.2650   45.2000 H   0  0  0  0  0  0  0  0  0  0  0  0
   44.8030   36.2220   42.9340 H   0  0  0  0  0  0  0  0  0  0  0  0
   46.6940   34.5610   42.1550 N   0  0  0  0  0  0  0  0  0  0  0  0
   47.9000   35.1530   41.9930 C   0  0  0  0  0  0  0  0  0  0  0  0
   48.4920   35.1260   40.7370 C   0  0  0  0  0  0  0  0  0  0  0  0
   47.8370   34.5060   39.7180 C   0  0  0  0  0  0  0  0  0  0  0  0
   48.4020   34.4970   38.5770 O   0  0  0  0  0  0  0  0  0  0  0  0
   46.6440   33.9200   39.8730 N   0  0  0  0  0  0  0  0  0  0  0  0
   46.1060   33.9710   41.1130 C   0  0  0  0  0  0  0  0  0  0  0  0
   44.9930   33.4510   41.3550 O   0  0  0  0  0  0  0  0  0  0  0  0
   48.4290   35.6470   42.8000 H   0  0  0  0  0  0  0  0  0  0  0  0
   49.4500   35.5850   40.5730 H   0  0  0  0  0  0  0  0  0  0  0  0
   46.1280   33.4430   39.1080 H   0  0  0  0  0  0  0  0  0  0  0  0
   45.4610   32.3890   47.6660 C   0  0  0  0  0  0  0  0  0  0  0  0
   45.9560   32.3420   48.6350 H   0  0  0  0  0  0  0  0  0  0  0  0
   44.6360   33.1590   47.6650 H   0  0  0  0  0  0  0  0  0  0  0  0
   45.5390   29.9550   47.5570 C   0  0  0  0  0  0  0  0  0  0  0  0
   46.7250   30.0420   47.9340 O   0  0  0  0  0  0  0  0  0  0  0  0
   44.8310   31.1370   47.3260 N   0  0  0  0  0  0  0  0  0  0  0  0
   43.8740   31.0910   46.9170 H   0  0  0  0  0  0  0  0  0  0  0  0
   44.8510   29.3680   44.7360 Cl  0  0  0  0  0  0  0  0  0  0  0  0
   44.6210   28.2610   46.0850 C   0  0  0  0  0  0  0  0  0  0  0  0
   44.9740   28.6210   47.3850 C   0  0  0  0  0  0  0  0  0  0  0  0
   44.7760   27.7230   48.4110 C   0  0  0  0  0  0  0  0  0  0  0  0
   45.0540   28.0150   49.4140 H   0  0  0  0  0  0  0  0  0  0  0  0
   44.2330   26.4960   48.1050 C   0  0  0  0  0  0  0  0  0  0  0  0
   44.0940   25.8140   48.9510 H   0  0  0  0  0  0  0  0  0  0  0  0
   43.8640   26.0790   46.8430 C   0  0  0  0  0  0  0  0  0  0  0  0
   43.4390   25.1040   46.6470 H   0  0  0  0  0  0  0  0  0  0  0  0
   44.0790   27.0160   45.8280 C   0  0  0  0  0  0  0  0  0  0  0  0
   43.6420   26.5890   44.1740 Cl  0  0  0  0  0  0  0  0  0  0  0  0
  1  2  1  0  0  0  0
  1 23  1  0  0  0  0
  3  1  1  0  0  0  0
  4 10  1  0  0  0  0
  4  9  1  0  0  0  0
  5  4  2  0  0  0  0
  6  5  1  0  0  0  0
  6  7  2  0  0  0  0
  7  8  1  0  0  0  0
  8  9  2  0  0  0  0
  8  1  1  0  0  0  0
 11  5  1  0  0  0  0
 12  6  1  0  0  0  0
 13 12  1  0  0  0  0
 13 20  1  0  0  0  0
 14 13  2  0  0  0  0
 15 17  1  0  0  0  0
 15 14  1  0  0  0  0
 16 15  2  0  0  0  0
 17 18  1  0  0  0  0
 18 19  2  0  0  0  0
 18 12  1  0  0  0  0
 21 14  1  0  0  0  0
 22 17  1  0  0  0  0
 23 24  1  0  0  0  0
 25 23  1  0  0  0  0
 26 27  2  0  0  0  0
 28 26  1  0  0  0  0
 28 23  1  0  0  0  0
 29 28  1  0  0  0  0
 30 31  1  0  0  0  0
 31 32  1  0  0  0  0
 32 26  1  0  0  0  0
 32 33  2  0  0  0  0
 33 34  1  0  0  0  0
 35 33  1  0  0  0  0
 35 36  1  0  0  0  0
 37 35  2  0  0  0  0
 38 37  1  0  0  0  0
 39 31  2  0  0  0  0
 39 37  1  0  0  0  0
 40 39  1  0  0  0  0
M  END
>  <minimizedAffinity>
-6.50194836

>  <minimizedRMSD>
1.50565112

$$$$
