
     RDKit          3D

 21 22  0  0  0  0  0  0  0  0999 V2000
   44.2634   35.7404   44.2626 C   0  0  0  0  0  0  0  0  0  0  0  0
   44.4233   34.9097   43.1232 C   0  0  0  0  0  0  0  0  0  0  0  0
   45.0628   33.6890   43.2874 C   0  0  0  0  0  0  0  0  0  0  0  0
   45.5108   33.3307   44.5180 N   0  0  0  0  0  0  0  0  0  0  0  0
   45.3413   34.1490   45.5849 C   0  0  0  0  0  0  0  0  0  0  0  0
   44.7307   35.3289   45.4606 N   0  0  0  0  0  0  0  0  0  0  0  0
   43.8057   35.4513   41.5342 S   0  0  0  0  0  0  0  0  0  0  0  0
   43.7671   36.6784   44.1141 H   0  0  0  0  0  0  0  0  0  0  0  0
   45.1856   33.0560   42.4243 H   0  0  0  0  0  0  0  0  0  0  0  0
   45.7393   33.7470   46.4902 H   0  0  0  0  0  0  0  0  0  0  0  0
   42.8423   34.8929   38.6193 Cl  0  0  0  0  0  0  0  0  0  0  0  0
   41.7424   34.6896   39.9724 C   0  0  0  0  0  0  0  0  0  0  0  0
   42.1190   34.9236   41.2820 C   0  0  0  0  0  0  0  0  0  0  0  0
   41.1803   34.7371   42.2962 C   0  0  0  0  0  0  0  0  0  0  0  0
   41.5296   34.9357   43.3122 H   0  0  0  0  0  0  0  0  0  0  0  0
   39.8956   34.3256   42.0012 C   0  0  0  0  0  0  0  0  0  0  0  0
   39.2105   34.1988   42.8424 H   0  0  0  0  0  0  0  0  0  0  0  0
   39.5062   34.0879   40.6931 C   0  0  0  0  0  0  0  0  0  0  0  0
   38.4866   33.7672   40.5226 H   0  0  0  0  0  0  0  0  0  0  0  0
   40.4471   34.2770   39.6987 C   0  0  0  0  0  0  0  0  0  0  0  0
   39.8667   33.9530   38.0772 Cl  0  0  0  0  0  0  0  0  0  0  0  0
  1  6  2  0
  2  3  2  0
  2  1  1  0
  3  4  1  0
  4  5  2  0
  6  5  1  0
  7  2  1  0
  1  8  1  0
  3  9  1  0
  5 10  1  0
 11 12  1  0
 12 13  2  0
 13 14  1  0
 14 15  1  0
 14 16  2  0
 16 17  1  0
 16 18  1  0
 18 19  1  0
 18 20  2  0
 20 21  1  0
 20 12  1  0
  7 13  1  0
M  ISO  6   8  14   9  14  10  14  15  15  17  15  19  15
M  END
>  <DihAtoms>  (1) 
1,6,12,11

>  <DihDeg>  (1) 
-179.9997064237777

$$$$
