
 OpenBabel03252503283D

 27 28  0  0  0  0  0  0  0  0999 V2000
   42.9640   33.0130   39.9390 C   0  0  0  0  0  0  0  0  0  0  0  0
   42.2820   34.2160   39.6570 C   0  0  0  0  0  0  0  0  0  0  0  0
   41.1070   34.4390   40.3950 C   0  0  0  0  0  0  0  0  0  0  0  0
   40.7330   33.4970   41.3030 N   0  0  0  0  0  0  0  0  0  0  0  0
   41.4310   32.3630   41.5280 C   0  0  0  0  0  0  0  0  0  0  0  0
   42.5640   32.1220   40.8320 N   0  0  0  0  0  0  0  0  0  0  0  0
   45.2780   33.4920   39.7050 C   0  0  0  0  0  0  0  0  0  0  0  0
   45.0460   34.3250   40.6240 O   0  0  0  0  0  0  0  0  0  0  0  0
   44.1720   32.7220   39.2210 N   0  0  0  0  0  0  0  0  0  0  0  0
   42.6530   34.9110   38.9160 H   0  0  0  0  0  0  0  0  0  0  0  0
   41.0880   31.6400   42.2660 H   0  0  0  0  0  0  0  0  0  0  0  0
   44.2920   32.0390   38.4290 H   0  0  0  0  0  0  0  0  0  0  0  0
   47.2930   32.3860   41.5460 Cl  0  0  0  0  0  0  0  0  0  0  0  0
   47.6190   32.7170   39.8580 C   0  0  0  0  0  0  0  0  0  0  0  0
   46.5930   33.2380   39.0810 C   0  0  0  0  0  0  0  0  0  0  0  0
   46.6960   33.5490   37.7400 C   0  0  0  0  0  0  0  0  0  0  0  0
   45.8950   33.9480   37.1670 H   0  0  0  0  0  0  0  0  0  0  0  0
   47.9180   33.3170   37.1480 C   0  0  0  0  0  0  0  0  0  0  0  0
   48.1300   33.5210   36.0880 H   0  0  0  0  0  0  0  0  0  0  0  0
   48.9710   32.7990   37.8780 C   0  0  0  0  0  0  0  0  0  0  0  0
   49.9370   32.6170   37.4060 H   0  0  0  0  0  0  0  0  0  0  0  0
   48.8280   32.4990   39.2200 C   0  0  0  0  0  0  0  0  0  0  0  0
   50.1300   31.8390   40.2010 Cl  0  0  0  0  0  0  0  0  0  0  0  0
   40.4020   35.6780   40.1060 C   0  0  0  0  0  0  0  0  0  0  0  0
   39.0530   35.3960   39.8710 F   0  0  0  0  0  0  0  0  0  0  0  0
   40.8930   36.1620   38.9060 F   0  0  0  0  0  0  0  0  0  0  0  0
   40.4550   36.5870   41.1300 F   0  0  0  0  0  0  0  0  0  0  0  0
  1  6  1  0  0  0  0
  2  1  2  0  0  0  0
  2  3  1  0  0  0  0
  3  4  2  0  0  0  0
  4  5  1  0  0  0  0
  5 11  1  0  0  0  0
  6  5  2  0  0  0  0
  7  8  2  0  0  0  0
  9  7  1  0  0  0  0
  9  1  1  0  0  0  0
 10  2  1  0  0  0  0
 12  9  1  0  0  0  0
 14 13  1  0  0  0  0
 15  7  1  0  0  0  0
 15 14  2  0  0  0  0
 16 15  1  0  0  0  0
 17 16  1  0  0  0  0
 18 16  2  0  0  0  0
 18 20  1  0  0  0  0
 19 18  1  0  0  0  0
 20 22  2  0  0  0  0
 21 20  1  0  0  0  0
 22 14  1  0  0  0  0
 22 23  1  0  0  0  0
 24  3  1  0  0  0  0
 24 27  1  0  0  0  0
 25 24  1  0  0  0  0
 26 24  1  0  0  0  0
M  END
>  <minimizedAffinity>
-4.94329357

>  <minimizedRMSD>
7.59423018

$$$$
