
 OpenBabel03242521443D

 40 42  0  0  1  0  0  0  0  0999 V2000
   45.2010   35.9610   43.7660 C   0  0  0  0  0  0  0  0  0  0  0  0
   46.1180   34.9560   43.4010 C   0  0  0  0  0  0  0  0  0  0  0  0
   46.3420   33.8870   44.2800 C   0  0  0  0  0  0  0  0  0  0  0  0
   45.6620   33.8810   45.4320 N   0  0  0  0  0  0  0  0  0  0  0  0
   44.7810   34.8570   45.7690 C   0  0  0  0  0  0  0  0  0  0  0  0
   44.5550   35.8920   44.9350 N   0  0  0  0  0  0  0  0  0  0  0  0
   46.5940   35.0880   42.4390 H   0  0  0  0  0  0  0  0  0  0  0  0
   44.2420   34.8310   46.7060 H   0  0  0  0  0  0  0  0  0  0  0  0
   48.3350   33.3630   42.9000 C   0  0  2  0  0  0  0  0  0  0  0  0
   47.2950   32.8840   43.8500 C   0  0  2  0  0  0  0  0  0  0  0  0
   46.7190   31.8140   43.1010 O   0  0  0  0  0  0  0  0  0  0  0  0
   47.8500   31.0840   42.7710 C   0  0  0  0  0  0  0  0  0  0  0  0
   49.0150   32.0070   42.6130 C   0  0  1  0  0  0  0  0  0  0  0  0
   47.8740   33.6600   41.9140 H   0  0  0  0  0  0  0  0  0  0  0  0
   47.7720   32.4110   44.7400 H   0  0  0  0  0  0  0  0  0  0  0  0
   48.0510   30.4410   43.6710 H   0  0  0  0  0  0  0  0  0  0  0  0
   47.6990   30.3960   41.9270 H   0  0  0  0  0  0  0  0  0  0  0  0
   49.8300   31.8150   43.3210 H   0  0  0  0  0  0  0  0  0  0  0  0
   49.1790   34.3060   43.4000 O   0  0  0  0  0  0  0  0  0  0  0  0
   49.3000   35.0870   42.8150 H   0  0  0  0  0  0  0  0  0  0  0  0
   49.5550   32.0430   41.3300 O   0  0  0  0  0  0  0  0  0  0  0  0
   50.5080   31.7320   41.3300 H   0  0  0  0  0  0  0  0  0  0  0  0
   44.9790   37.0980   42.8220 C   0  0  0  0  0  0  0  0  0  0  0  0
   44.1840   36.8790   42.0950 H   0  0  0  0  0  0  0  0  0  0  0  0
   45.9140   37.3290   42.2830 H   0  0  0  0  0  0  0  0  0  0  0  0
   45.5000   39.4300   43.7570 C   0  0  0  0  0  0  0  0  0  0  0  0
   46.5900   39.4380   43.1220 O   0  0  0  0  0  0  0  0  0  0  0  0
   44.7000   38.2680   43.6490 N   0  0  0  0  0  0  0  0  0  0  0  0
   43.8090   38.2450   44.2250 H   0  0  0  0  0  0  0  0  0  0  0  0
   45.0790   39.0940   46.7640 Cl  0  0  0  0  0  0  0  0  0  0  0  0
   44.8550   40.6070   45.9190 C   0  0  0  0  0  0  0  0  0  0  0  0
   45.0890   40.5730   44.5630 C   0  0  0  0  0  0  0  0  0  0  0  0
   44.9460   41.7020   43.7930 C   0  0  0  0  0  0  0  0  0  0  0  0
   45.1050   41.7880   42.7150 H   0  0  0  0  0  0  0  0  0  0  0  0
   44.5610   42.9280   44.3330 C   0  0  0  0  0  0  0  0  0  0  0  0
   44.4330   43.8430   43.7720 H   0  0  0  0  0  0  0  0  0  0  0  0
   44.3270   42.9440   45.7130 C   0  0  0  0  0  0  0  0  0  0  0  0
   44.0260   43.8420   46.2200 H   0  0  0  0  0  0  0  0  0  0  0  0
   44.4730   41.8060   46.4800 C   0  0  0  0  0  0  0  0  0  0  0  0
   44.1860   41.7910   48.2160 Cl  0  0  0  0  0  0  0  0  0  0  0  0
  1  6  1  0  0  0  0
  2  1  2  0  0  0  0
  2  3  1  0  0  0  0
  3  4  2  0  0  0  0
  4  5  1  0  0  0  0
  5  8  1  0  0  0  0
  6  5  2  0  0  0  0
  7  2  1  0  0  0  0
  9 14  1  6  0  0  0
  9 19  1  0  0  0  0
  9 10  1  0  0  0  0
 10  3  1  0  0  0  0
 10 15  1  1  0  0  0
 11 10  1  0  0  0  0
 12 11  1  0  0  0  0
 12 16  1  0  0  0  0
 13 12  1  0  0  0  0
 13  9  1  0  0  0  0
 13 18  1  1  0  0  0
 17 12  1  0  0  0  0
 20 19  1  0  0  0  0
 21 13  1  0  0  0  0
 22 21  1  0  0  0  0
 23 28  1  0  0  0  0
 23  1  1  0  0  0  0
 24 23  1  0  0  0  0
 25 23  1  0  0  0  0
 26 32  1  0  0  0  0
 27 26  2  0  0  0  0
 28 26  1  0  0  0  0
 28 29  1  0  0  0  0
 31 39  1  0  0  0  0
 31 30  1  0  0  0  0
 32 31  2  0  0  0  0
 33 35  2  0  0  0  0
 33 32  1  0  0  0  0
 34 33  1  0  0  0  0
 35 37  1  0  0  0  0
 36 35  1  0  0  0  0
 37 38  1  0  0  0  0
 37 39  2  0  0  0  0
 39 40  1  0  0  0  0
M  END
>  <minimizedAffinity>
-0.00533610443

>  <minimizedRMSD>
1.41139185

$$$$
