
 OpenBabel03252507463D

 39 41  0  0  0  0  0  0  0  0999 V2000
   48.4850   33.9520   41.3020 C   0  0  0  0  0  0  0  0  0  0  0  0
   48.9260   32.7180   40.8220 C   0  0  0  0  0  0  0  0  0  0  0  0
   50.1710   32.2230   41.1990 C   0  0  0  0  0  0  0  0  0  0  0  0
   50.9260   32.9830   42.0400 N   0  0  0  0  0  0  0  0  0  0  0  0
   50.4640   34.1770   42.4860 C   0  0  0  0  0  0  0  0  0  0  0  0
   49.2740   34.6260   42.1120 N   0  0  0  0  0  0  0  0  0  0  0  0
   50.5000   31.2680   40.8200 H   0  0  0  0  0  0  0  0  0  0  0  0
   51.1280   34.7270   43.1570 H   0  0  0  0  0  0  0  0  0  0  0  0
   47.1610   34.4010   40.8580 C   0  0  0  0  0  0  0  0  0  0  0  0
   46.6120   33.6450   40.3070 H   0  0  0  0  0  0  0  0  0  0  0  0
   47.3550   35.2290   40.1160 H   0  0  0  0  0  0  0  0  0  0  0  0
   46.3480   35.0220   41.9480 C   0  0  0  0  0  0  0  0  0  0  0  0
   46.6010   34.5420   42.9170 H   0  0  0  0  0  0  0  0  0  0  0  0
   46.5720   36.1060   42.0980 H   0  0  0  0  0  0  0  0  0  0  0  0
   44.8780   34.9550   41.7160 C   0  0  0  0  0  0  0  0  0  0  0  0
   43.9880   35.4430   42.7220 C   0  0  0  0  0  0  0  0  0  0  0  0
   42.3300   35.1450   41.9800 S   0  0  0  0  0  0  0  0  0  0  0  0
   43.1320   34.4070   40.4210 C   0  0  0  0  0  0  0  0  0  0  0  0
   44.2400   34.4930   40.6750 N   0  0  0  0  0  0  0  0  0  0  0  0
   44.2520   35.8760   43.6780 H   0  0  0  0  0  0  0  0  0  0  0  0
   42.3880   33.9320   39.3470 O   0  0  0  0  0  0  0  0  0  0  0  0
   40.4340   34.3480   37.6150 O   0  0  0  0  0  0  0  0  0  0  0  0
   41.5110   35.0590   38.4270 P   0  0  0  0  0  0  0  0  0  0  0  0
   40.7700   36.1410   39.5080 O   0  0  0  0  0  0  0  0  0  0  0  0
   40.2190   35.6620   40.1470 H   0  0  0  0  0  0  0  0  0  0  0  0
   42.5660   35.9320   37.4390 O   0  0  0  0  0  0  0  0  0  0  0  0
   42.8020   35.3780   36.6540 H   0  0  0  0  0  0  0  0  0  0  0  0
   47.8890   31.7490   39.7120 S   0  0  0  0  0  0  0  0  0  0  0  0
   48.7010   28.9650   41.0810 Cl  0  0  0  0  0  0  0  0  0  0  0  0
   47.0450   29.5200   41.2030 C   0  0  0  0  0  0  0  0  0  0  0  0
   46.7330   30.7220   40.6020 C   0  0  0  0  0  0  0  0  0  0  0  0
   45.4420   31.2020   40.6710 C   0  0  0  0  0  0  0  0  0  0  0  0
   45.0950   32.1190   40.2410 H   0  0  0  0  0  0  0  0  0  0  0  0
   44.4450   30.5190   41.3240 C   0  0  0  0  0  0  0  0  0  0  0  0
   43.4110   30.8550   41.4060 H   0  0  0  0  0  0  0  0  0  0  0  0
   44.7450   29.3000   41.9380 C   0  0  0  0  0  0  0  0  0  0  0  0
   43.9890   28.7060   42.4750 H   0  0  0  0  0  0  0  0  0  0  0  0
   46.0400   28.8410   41.8550 C   0  0  0  0  0  0  0  0  0  0  0  0
   46.4470   27.3220   42.6110 Cl  0  0  0  0  0  0  0  0  0  0  0  0
  1  6  1  0  0  0  0
  2  3  1  0  0  0  0
  2  1  2  0  0  0  0
  3  4  2  0  0  0  0
  4  5  1  0  0  0  0
  5  8  1  0  0  0  0
  6  5  2  0  0  0  0
  7  3  1  0  0  0  0
  9  1  1  0  0  0  0
  9 12  1  0  0  0  0
 10  9  1  0  0  0  0
 11  9  1  0  0  0  0
 12 14  1  0  0  0  0
 12 13  1  0  0  0  0
 15 12  1  0  0  0  0
 15 16  2  0  0  0  0
 16 20  1  0  0  0  0
 17 16  1  0  0  0  0
 18 19  2  0  0  0  0
 18 17  1  0  0  0  0
 19 15  1  0  0  0  0
 21 18  1  0  0  0  0
 22 23  2  0  0  0  0
 23 21  1  0  0  0  0
 23 24  1  0  0  0  0
 24 25  1  0  0  0  0
 26 23  1  0  0  0  0
 27 26  1  0  0  0  0
 28 31  1  0  0  0  0
 28  2  1  0  0  0  0
 29 30  1  0  0  0  0
 30 38  1  0  0  0  0
 31 32  1  0  0  0  0
 31 30  2  0  0  0  0
 32 34  2  0  0  0  0
 33 32  1  0  0  0  0
 34 35  1  0  0  0  0
 34 36  1  0  0  0  0
 36 37  1  0  0  0  0
 38 36  2  0  0  0  0
 38 39  1  0  0  0  0
M  END
>  <minimizedAffinity>
-4.33530664

>  <minimizedRMSD>
0.214362919

$$$$
