
 OpenBabel03252503283D

 27 28  0  0  0  0  0  0  0  0999 V2000
   45.1010   34.5970   42.8670 C   0  0  0  0  0  0  0  0  0  0  0  0
   46.1200   35.0390   41.9960 C   0  0  0  0  0  0  0  0  0  0  0  0
   47.4310   34.7030   42.3720 C   0  0  0  0  0  0  0  0  0  0  0  0
   47.6060   33.9950   43.5200 N   0  0  0  0  0  0  0  0  0  0  0  0
   46.5880   33.6000   44.3140 C   0  0  0  0  0  0  0  0  0  0  0  0
   45.3160   33.9090   43.9770 N   0  0  0  0  0  0  0  0  0  0  0  0
   43.2370   34.0700   41.4950 C   0  0  0  0  0  0  0  0  0  0  0  0
   44.0390   33.2430   40.9800 O   0  0  0  0  0  0  0  0  0  0  0  0
   43.7370   34.9060   42.5430 N   0  0  0  0  0  0  0  0  0  0  0  0
   45.8890   35.5990   41.1010 H   0  0  0  0  0  0  0  0  0  0  0  0
   46.7820   33.0340   45.2230 H   0  0  0  0  0  0  0  0  0  0  0  0
   43.1290   35.6430   42.9860 H   0  0  0  0  0  0  0  0  0  0  0  0
   41.5470   31.7010   41.9450 Cl  0  0  0  0  0  0  0  0  0  0  0  0
   40.9340   33.2000   41.2800 C   0  0  0  0  0  0  0  0  0  0  0  0
   41.8210   34.2540   41.1100 C   0  0  0  0  0  0  0  0  0  0  0  0
   41.4900   35.4940   40.6000 C   0  0  0  0  0  0  0  0  0  0  0  0
   42.1900   36.2860   40.4810 H   0  0  0  0  0  0  0  0  0  0  0  0
   40.1730   35.6760   40.2400 C   0  0  0  0  0  0  0  0  0  0  0  0
   39.7810   36.6150   39.8210 H   0  0  0  0  0  0  0  0  0  0  0  0
   39.2510   34.6580   40.3880 C   0  0  0  0  0  0  0  0  0  0  0  0
   38.2090   34.8080   40.1010 H   0  0  0  0  0  0  0  0  0  0  0  0
   39.6220   33.4310   40.9040 C   0  0  0  0  0  0  0  0  0  0  0  0
   38.4950   32.0970   41.1170 Cl  0  0  0  0  0  0  0  0  0  0  0  0
   48.4840   35.1580   41.4760 C   0  0  0  0  0  0  0  0  0  0  0  0
   49.6130   34.3520   41.6470 F   0  0  0  0  0  0  0  0  0  0  0  0
   48.8640   36.4210   41.8930 F   0  0  0  0  0  0  0  0  0  0  0  0
   48.1360   35.0950   40.1530 F   0  0  0  0  0  0  0  0  0  0  0  0
  1  6  1  0  0  0  0
  2  3  1  0  0  0  0
  2  1  2  0  0  0  0
  3  4  2  0  0  0  0
  4  5  1  0  0  0  0
  5 11  1  0  0  0  0
  6  5  2  0  0  0  0
  7  9  1  0  0  0  0
  8  7  2  0  0  0  0
  9  1  1  0  0  0  0
  9 12  1  0  0  0  0
 10  2  1  0  0  0  0
 14 13  1  0  0  0  0
 15 14  1  0  0  0  0
 15  7  1  0  0  0  0
 16 15  2  0  0  0  0
 17 16  1  0  0  0  0
 18 20  2  0  0  0  0
 18 16  1  0  0  0  0
 19 18  1  0  0  0  0
 20 22  1  0  0  0  0
 21 20  1  0  0  0  0
 22 23  1  0  0  0  0
 22 14  2  0  0  0  0
 24 25  1  0  0  0  0
 24 26  1  0  0  0  0
 24  3  1  0  0  0  0
 27 24  1  0  0  0  0
M  END
>  <minimizedAffinity>
-6.8045783

>  <minimizedRMSD>
2.44097638

$$$$
