
     RDKit          3D

 37 39  0  0  0  0  0  0  0  0999 V2000
   43.9839   34.5763   41.2800 C   0  0  0  0  0  0  0  0  0  0  0  0
   42.8254   35.2809   40.8785 C   0  0  0  0  0  0  0  0  0  0  0  0
   42.2898   35.0290   39.6235 C   0  0  0  0  0  0  0  0  0  0  0  0
   42.9310   34.0993   38.8447 N   0  0  0  0  0  0  0  0  0  0  0  0
   44.0433   33.4492   39.2782 C   0  0  0  0  0  0  0  0  0  0  0  0
   44.5626   33.6842   40.4793 N   0  0  0  0  0  0  0  0  0  0  0  0
   44.5511   34.8602   42.6217 C   0  0  0  0  0  0  0  0  0  0  0  0
   46.0536   35.2816   42.5514 C   0  0  0  0  0  0  0  0  0  0  0  0
   44.9786   36.1374   43.0662 C   0  0  0  0  0  0  0  0  0  0  0  0
   41.0706   35.7446   39.1745 C   0  0  0  0  0  0  0  0  0  0  0  0
   39.9810   35.6451   40.2098 C   0  0  0  0  0  0  0  0  0  0  0  0
   39.0349   33.4553   40.7598 C   0  0  0  0  0  0  0  0  0  0  0  0
   39.7858   33.2471   41.7473 O   0  0  0  0  0  0  0  0  0  0  0  0
   39.0315   34.5859   39.9110 N   0  0  0  0  0  0  0  0  0  0  0  0
   42.4054   35.9872   41.5664 H   0  0  0  0  0  0  0  0  0  0  0  0
   44.4373   32.7441   38.5504 H   0  0  0  0  0  0  0  0  0  0  0  0
   44.3295   34.0477   43.3402 H   0  0  0  0  0  0  0  0  0  0  0  0
   46.4732   35.4839   41.5494 H   0  0  0  0  0  0  0  0  0  0  0  0
   46.7013   34.6819   43.2203 H   0  0  0  0  0  0  0  0  0  0  0  0
   44.7537   37.0556   42.4750 H   0  0  0  0  0  0  0  0  0  0  0  0
   45.0117   36.3385   44.1662 H   0  0  0  0  0  0  0  0  0  0  0  0
   41.2634   36.8183   38.9535 H   0  0  0  0  0  0  0  0  0  0  0  0
   40.7083   35.2208   38.2614 H   0  0  0  0  0  0  0  0  0  0  0  0
   40.4616   35.5126   41.1926 H   0  0  0  0  0  0  0  0  0  0  0  0
   39.3792   36.5798   40.2791 H   0  0  0  0  0  0  0  0  0  0  0  0
   38.3953   34.6926   39.1005 H   0  0  0  0  0  0  0  0  0  0  0  0
   39.0887   32.8204   37.8898 Cl  0  0  0  0  0  0  0  0  0  0  0  0
   38.0732   32.0685   39.1172 C   0  0  0  0  0  0  0  0  0  0  0  0
   38.0584   32.3814   40.4805 C   0  0  0  0  0  0  0  0  0  0  0  0
   37.2288   31.7309   41.3314 C   0  0  0  0  0  0  0  0  0  0  0  0
   37.3111   32.0585   42.3389 H   0  0  0  0  0  0  0  0  0  0  0  0
   36.3916   30.7487   40.8377 C   0  0  0  0  0  0  0  0  0  0  0  0
   35.7392   30.2494   41.5571 H   0  0  0  0  0  0  0  0  0  0  0  0
   36.3637   30.3974   39.4979 C   0  0  0  0  0  0  0  0  0  0  0  0
   35.6850   29.6167   39.1620 H   0  0  0  0  0  0  0  0  0  0  0  0
   37.2244   31.0759   38.6300 C   0  0  0  0  0  0  0  0  0  0  0  0
   37.1741   30.6155   36.9312 Cl  0  0  0  0  0  0  0  0  0  0  0  0
  1  7  1  0
  2  1  2  0
  3  2  1  0
  4  5  1  0
  4  3  2  0
  5  6  2  0
  6  1  1  0
  7  9  1  0
  8  7  1  0
  8  9  1  0
 10  3  1  0
 10 11  1  0
 12 13  2  0
 14 11  1  0
 14 12  1  0
  2 15  1  0
  5 16  1  0
  7 17  1  0
  8 18  1  0
  8 19  1  0
  9 20  1  0
  9 21  1  0
 10 22  1  0
 10 23  1  0
 11 24  1  0
 11 25  1  0
 14 26  1  0
 27 28  1  0
 28 29  2  0
 29 30  1  0
 30 31  1  0
 30 32  2  0
 32 33  1  0
 32 34  1  0
 34 35  1  0
 34 36  2  0
 36 37  1  0
 36 28  1  0
 12 29  1  0
M  ISO  8  15  14  16  14  17  13  18  13  19  13  20  13  21  13  22   8
M  ISO  6  23   8  24   8  25   8  31  15  33  15  35  15
M  END
>  <DihAtoms>  (1) 
12,11,28,27

>  <DihDeg>  (1) 
62.28994040710694

$$$$
