
 OpenBabel03242510513D

 24 25  0  0  0  0  0  0  0  0999 V2000
   44.8970   36.0210   43.9260 C   0  0  0  0  0  0  0  0  0  0  0  0
   44.5370   35.7500   42.5870 C   0  0  0  0  0  0  0  0  0  0  0  0
   44.5120   34.4020   42.1920 C   0  0  0  0  0  0  0  0  0  0  0  0
   44.8300   33.4340   43.1040 N   0  0  0  0  0  0  0  0  0  0  0  0
   45.1680   33.7380   44.3670 C   0  0  0  0  0  0  0  0  0  0  0  0
   45.2030   35.0390   44.7860 N   0  0  0  0  0  0  0  0  0  0  0  0
   45.7930   31.4220   44.6680 C   0  0  0  0  0  0  0  0  0  0  0  0
   45.8000   31.1750   43.4490 O   0  0  0  0  0  0  0  0  0  0  0  0
   45.4880   32.6860   45.2630 N   0  0  0  0  0  0  0  0  0  0  0  0
   44.9160   37.0550   44.2250 H   0  0  0  0  0  0  0  0  0  0  0  0
   44.2890   36.5310   41.8850 H   0  0  0  0  0  0  0  0  0  0  0  0
   44.2350   34.2020   41.1660 H   0  0  0  0  0  0  0  0  0  0  0  0
   45.4960   32.8410   46.2930 H   0  0  0  0  0  0  0  0  0  0  0  0
   48.5780   30.2030   44.5420 Cl  0  0  0  0  0  0  0  0  0  0  0  0
   47.3410   29.6900   45.6610 C   0  0  0  0  0  0  0  0  0  0  0  0
   46.1260   30.3300   45.6070 C   0  0  0  0  0  0  0  0  0  0  0  0
   45.1180   29.9560   46.4770 C   0  0  0  0  0  0  0  0  0  0  0  0
   44.1350   30.4420   46.4640 H   0  0  0  0  0  0  0  0  0  0  0  0
   45.2680   28.9540   47.4130 C   0  0  0  0  0  0  0  0  0  0  0  0
   44.4700   28.6780   48.0800 H   0  0  0  0  0  0  0  0  0  0  0  0
   46.4970   28.3170   47.4550 C   0  0  0  0  0  0  0  0  0  0  0  0
   46.6250   27.5280   48.1890 H   0  0  0  0  0  0  0  0  0  0  0  0
   47.5280   28.6830   46.5850 C   0  0  0  0  0  0  0  0  0  0  0  0
   49.0760   27.8680   46.6530 Cl  0  0  0  0  0  0  0  0  0  0  0  0
  1 10  1  0  0  0  0
  1  6  1  0  0  0  0
  2  1  2  0  0  0  0
  3  2  1  0  0  0  0
  3  4  2  0  0  0  0
  4  5  1  0  0  0  0
  5  6  2  0  0  0  0
  5  9  1  0  0  0  0
  7  9  1  0  0  0  0
  7 16  1  0  0  0  0
  8  7  2  0  0  0  0
  9 13  1  0  0  0  0
 11  2  1  0  0  0  0
 12  3  1  0  0  0  0
 14 15  1  0  0  0  0
 15 23  1  0  0  0  0
 16 15  2  0  0  0  0
 16 17  1  0  0  0  0
 17 19  2  0  0  0  0
 18 17  1  0  0  0  0
 19 21  1  0  0  0  0
 19 20  1  0  0  0  0
 21 22  1  0  0  0  0
 23 24  1  0  0  0  0
 23 21  2  0  0  0  0
M  END
>  <minimizedAffinity>
-3.92798305

>  <minimizedRMSD>
2.99247813

$$$$
