REMARK  Name = 
REMARK  5 active torsions:
REMARK  status: ('A' for Active; 'I' for Inactive)
REMARK    1  A    between atoms: C_1  and  C_7
REMARK    2  A    between atoms: C_3  and  C_10
REMARK    3  A    between atoms: C_10  and  C_11
REMARK    4  A    between atoms: C_11  and  N_14
REMARK    5  A    between atoms: C_12  and  C_29
REMARK                            x       y       z     vdW  Elec       q    Type
REMARK                         _______ _______ _______ _____ _____    ______ ____
ROOT
ATOM      1  C   UNL     1      41.071  35.745  39.175  0.00  0.00    +0.000 C 
ATOM      2  H   UNL     1      41.263  36.818  38.953  0.00  0.00    +0.000 HD
ATOM      3  H   UNL     1      40.708  35.221  38.261  0.00  0.00    +0.000 HD
ENDROOT
BRANCH   1   6
ATOM      4  C   UNL     1      43.984  34.576  41.280  0.00  0.00    +0.000 A 
ATOM      5  C   UNL     1      42.825  35.281  40.879  0.00  0.00    +0.000 A 
ATOM      6  C   UNL     1      42.290  35.029  39.623  0.00  0.00    +0.000 A 
ATOM      7  N   UNL     1      42.931  34.099  38.845  0.00  0.00    +0.000 NA
ATOM      8  C   UNL     1      44.043  33.449  39.278  0.00  0.00    +0.000 A 
ATOM      9  N   UNL     1      44.563  33.684  40.479  0.00  0.00    +0.000 NA
ATOM     10  H   UNL     1      42.405  35.987  41.566  0.00  0.00    +0.000 HD
ATOM     11  H   UNL     1      44.437  32.744  38.550  0.00  0.00    +0.000 HD
BRANCH   4  12
ATOM     12  C   UNL     1      44.551  34.860  42.622  0.00  0.00    +0.000 C 
ATOM     13  C   UNL     1      46.054  35.282  42.551  0.00  0.00    +0.000 C 
ATOM     14  C   UNL     1      44.979  36.137  43.066  0.00  0.00    +0.000 C 
ATOM     15  H   UNL     1      44.330  34.048  43.340  0.00  0.00    +0.000 HD
ATOM     16  H   UNL     1      46.473  35.484  41.549  0.00  0.00    +0.000 HD
ATOM     17  H   UNL     1      46.701  34.682  43.220  0.00  0.00    +0.000 HD
ATOM     18  H   UNL     1      44.754  37.056  42.475  0.00  0.00    +0.000 HD
ATOM     19  H   UNL     1      45.012  36.339  44.166  0.00  0.00    +0.000 HD
ENDBRANCH   4  12
ENDBRANCH   1   6
BRANCH   1  20
ATOM     20  C   UNL     1      39.981  35.645  40.210  0.00  0.00    +0.000 C 
ATOM     21  H   UNL     1      40.462  35.513  41.193  0.00  0.00    +0.000 HD
ATOM     22  H   UNL     1      39.379  36.580  40.279  0.00  0.00    +0.000 HD
BRANCH  20  25
ATOM     23  C   UNL     1      39.035  33.455  40.760  0.00  0.00    +0.000 C 
ATOM     24  O   UNL     1      39.786  33.247  41.747  0.00  0.00    +0.000 OA
ATOM     25  N   UNL     1      39.032  34.586  39.911  0.00  0.00    +0.000 N 
ATOM     26  H   UNL     1      38.395  34.693  39.100  0.00  0.00    +0.000 HD
BRANCH  23  29
ATOM     27 CL   UNL     1      39.574  32.325  38.100  0.00  0.00    +0.000 Cl
ATOM     28  C   UNL     1      38.303  31.834  39.217  0.00  0.00    +0.000 A 
ATOM     29  C   UNL     1      38.058  32.381  40.480  0.00  0.00    +0.000 A 
ATOM     30  C   UNL     1      37.046  31.918  41.252  0.00  0.00    +0.000 A 
ATOM     31  H   UNL     1      36.963  32.414  42.188  0.00  0.00    +0.000 HD
ATOM     32  C   UNL     1      36.251  30.892  40.777  0.00  0.00    +0.000 A 
ATOM     33  H   UNL     1      35.447  30.548  41.430  0.00  0.00    +0.000 HD
ATOM     34  C   UNL     1      36.447  30.312  39.534  0.00  0.00    +0.000 A 
ATOM     35  H   UNL     1      35.792  29.507  39.209  0.00  0.00    +0.000 HD
ATOM     36  C   UNL     1      37.495  30.799  38.748  0.00  0.00    +0.000 A 
ATOM     37 CL   UNL     1      37.728  30.049  37.172  0.00  0.00    +0.000 Cl
ENDBRANCH  23  29
ENDBRANCH  20  25
ENDBRANCH   1  20
TORSDOF 5
