
 OpenBabel03242517433D

 21 22  0  0  0  0  0  0  0  0999 V2000
   42.5400   35.4540   41.6610 Cl  0  0  0  0  0  0  0  0  0  0  0  0
   43.8140   34.5930   40.8140 C   0  0  0  0  0  0  0  0  0  0  0  0
   45.1290   34.5990   41.2410 C   0  0  0  0  0  0  0  0  0  0  0  0
   46.0780   33.8860   40.5090 C   0  0  0  0  0  0  0  0  0  0  0  0
   47.1010   33.9240   40.8880 H   0  0  0  0  0  0  0  0  0  0  0  0
   45.7130   33.1860   39.3750 C   0  0  0  0  0  0  0  0  0  0  0  0
   46.5050   32.6490   38.8490 H   0  0  0  0  0  0  0  0  0  0  0  0
   44.3990   33.1720   38.9380 C   0  0  0  0  0  0  0  0  0  0  0  0
   44.1730   32.6060   38.0440 H   0  0  0  0  0  0  0  0  0  0  0  0
   43.4700   33.8820   39.6740 C   0  0  0  0  0  0  0  0  0  0  0  0
   41.8350   33.8090   39.0470 Cl  0  0  0  0  0  0  0  0  0  0  0  0
   45.4740   35.5400   42.7190 S   0  0  0  0  0  0  0  0  0  0  0  0
   45.0860   34.5580   45.2930 C   0  0  0  0  0  0  0  0  0  0  0  0
   45.8470   34.4650   44.0990 C   0  0  0  0  0  0  0  0  0  0  0  0
   46.8690   33.5270   44.0460 C   0  0  0  0  0  0  0  0  0  0  0  0
   47.1060   32.7370   45.1250 N   0  0  0  0  0  0  0  0  0  0  0  0
   46.3590   32.8540   46.2500 C   0  0  0  0  0  0  0  0  0  0  0  0
   45.3700   33.7460   46.3330 N   0  0  0  0  0  0  0  0  0  0  0  0
   44.3020   35.2890   45.3120 H   0  0  0  0  0  0  0  0  0  0  0  0
   47.4480   33.4520   43.1410 H   0  0  0  0  0  0  0  0  0  0  0  0
   46.6500   32.1760   47.0200 H   0  0  0  0  0  0  0  0  0  0  0  0
  2  3  1  0  0  0  0
  2  1  1  0  0  0  0
  3 12  1  0  0  0  0
  4  5  1  0  0  0  0
  4  3  2  0  0  0  0
  6  4  1  0  0  0  0
  7  6  1  0  0  0  0
  8  6  2  0  0  0  0
  8 10  1  0  0  0  0
  9  8  1  0  0  0  0
 10  2  2  0  0  0  0
 11 10  1  0  0  0  0
 12 14  1  0  0  0  0
 13 19  1  0  0  0  0
 13 18  1  0  0  0  0
 14 13  2  0  0  0  0
 15 14  1  0  0  0  0
 15 16  2  0  0  0  0
 16 17  1  0  0  0  0
 17 18  2  0  0  0  0
 17 21  1  0  0  0  0
 20 15  1  0  0  0  0
M  END
>  <minimizedAffinity>
-3.9648695

>  <minimizedRMSD>
3.45862198

$$$$
