
 OpenBabel03252507463D

 39 41  0  0  0  0  0  0  0  0999 V2000
   48.5850   33.9630   41.2910 C   0  0  0  0  0  0  0  0  0  0  0  0
   48.9750   32.7410   40.7420 C   0  0  0  0  0  0  0  0  0  0  0  0
   50.1960   32.1720   41.0940 C   0  0  0  0  0  0  0  0  0  0  0  0
   50.9780   32.8480   41.9800 N   0  0  0  0  0  0  0  0  0  0  0  0
   50.5650   34.0340   42.4930 C   0  0  0  0  0  0  0  0  0  0  0  0
   49.3970   34.5550   42.1410 N   0  0  0  0  0  0  0  0  0  0  0  0
   50.4860   31.2260   40.6620 H   0  0  0  0  0  0  0  0  0  0  0  0
   51.2470   34.5150   43.1970 H   0  0  0  0  0  0  0  0  0  0  0  0
   47.2850   34.4940   40.8690 C   0  0  0  0  0  0  0  0  0  0  0  0
   46.7210   33.8090   40.2450 H   0  0  0  0  0  0  0  0  0  0  0  0
   47.5190   35.3760   40.2050 H   0  0  0  0  0  0  0  0  0  0  0  0
   46.4730   35.0450   41.9970 C   0  0  0  0  0  0  0  0  0  0  0  0
   46.7330   34.5090   42.9340 H   0  0  0  0  0  0  0  0  0  0  0  0
   46.6930   36.1190   42.2110 H   0  0  0  0  0  0  0  0  0  0  0  0
   45.0030   34.9850   41.7670 C   0  0  0  0  0  0  0  0  0  0  0  0
   44.1180   35.5220   42.7530 C   0  0  0  0  0  0  0  0  0  0  0  0
   42.4570   35.2140   42.0220 S   0  0  0  0  0  0  0  0  0  0  0  0
   43.2510   34.4060   40.4940 C   0  0  0  0  0  0  0  0  0  0  0  0
   44.3600   34.4900   40.7450 N   0  0  0  0  0  0  0  0  0  0  0  0
   44.3870   35.9890   43.6910 H   0  0  0  0  0  0  0  0  0  0  0  0
   42.5020   33.8970   39.4390 O   0  0  0  0  0  0  0  0  0  0  0  0
   40.5570   34.2460   37.6830 O   0  0  0  0  0  0  0  0  0  0  0  0
   41.6040   34.9920   38.5000 P   0  0  0  0  0  0  0  0  0  0  0  0
   40.8230   36.0630   39.5650 O   0  0  0  0  0  0  0  0  0  0  0  0
   40.2770   35.5730   40.2010 H   0  0  0  0  0  0  0  0  0  0  0  0
   42.6460   35.8860   37.5160 O   0  0  0  0  0  0  0  0  0  0  0  0
   42.9060   35.3330   36.7390 H   0  0  0  0  0  0  0  0  0  0  0  0
   47.9050   31.8840   39.5730 S   0  0  0  0  0  0  0  0  0  0  0  0
   45.6560   31.3790   41.8040 Cl  0  0  0  0  0  0  0  0  0  0  0  0
   46.4880   30.0030   41.1090 C   0  0  0  0  0  0  0  0  0  0  0  0
   47.4490   30.2590   40.1530 C   0  0  0  0  0  0  0  0  0  0  0  0
   48.1320   29.2080   39.5760 C   0  0  0  0  0  0  0  0  0  0  0  0
   48.8930   29.2950   38.8280 H   0  0  0  0  0  0  0  0  0  0  0  0
   47.8850   27.9030   39.9230 C   0  0  0  0  0  0  0  0  0  0  0  0
   48.3970   27.0380   39.4980 H   0  0  0  0  0  0  0  0  0  0  0  0
   46.9150   27.6260   40.8910 C   0  0  0  0  0  0  0  0  0  0  0  0
   46.6730   26.6010   41.2110 H   0  0  0  0  0  0  0  0  0  0  0  0
   46.2480   28.6920   41.4510 C   0  0  0  0  0  0  0  0  0  0  0  0
   45.0290   28.3810   42.6620 Cl  0  0  0  0  0  0  0  0  0  0  0  0
  1  6  1  0  0  0  0
  2  3  1  0  0  0  0
  2  1  2  0  0  0  0
  3  4  2  0  0  0  0
  4  5  1  0  0  0  0
  5  8  1  0  0  0  0
  6  5  2  0  0  0  0
  7  3  1  0  0  0  0
  9  1  1  0  0  0  0
  9 12  1  0  0  0  0
 10  9  1  0  0  0  0
 11  9  1  0  0  0  0
 12 14  1  0  0  0  0
 12 13  1  0  0  0  0
 15 12  1  0  0  0  0
 15 16  2  0  0  0  0
 16 20  1  0  0  0  0
 17 16  1  0  0  0  0
 18 19  2  0  0  0  0
 18 17  1  0  0  0  0
 19 15  1  0  0  0  0
 21 18  1  0  0  0  0
 22 23  2  0  0  0  0
 23 21  1  0  0  0  0
 23 24  1  0  0  0  0
 24 25  1  0  0  0  0
 26 23  1  0  0  0  0
 27 26  1  0  0  0  0
 28 31  1  0  0  0  0
 28  2  1  0  0  0  0
 30 38  1  0  0  0  0
 30 29  1  0  0  0  0
 31 30  2  0  0  0  0
 32 34  2  0  0  0  0
 32 31  1  0  0  0  0
 33 32  1  0  0  0  0
 34 36  1  0  0  0  0
 35 34  1  0  0  0  0
 36 37  1  0  0  0  0
 36 38  2  0  0  0  0
 38 39  1  0  0  0  0
M  END
>  <minimizedAffinity>
-4.31559134

>  <minimizedRMSD>
0.966224968

$$$$
