
 OpenBabel03242517433D

 21 22  0  0  0  0  0  0  0  0999 V2000
   42.3910   35.5500   38.1030 Cl  0  0  0  0  0  0  0  0  0  0  0  0
   41.4460   34.9500   39.4550 C   0  0  0  0  0  0  0  0  0  0  0  0
   41.9560   34.8510   40.7370 C   0  0  0  0  0  0  0  0  0  0  0  0
   41.1340   34.3630   41.7520 C   0  0  0  0  0  0  0  0  0  0  0  0
   41.5860   34.3060   42.7450 H   0  0  0  0  0  0  0  0  0  0  0  0
   39.8340   33.9830   41.4850 C   0  0  0  0  0  0  0  0  0  0  0  0
   39.2450   33.6090   42.3260 H   0  0  0  0  0  0  0  0  0  0  0  0
   39.3120   34.0770   40.2060 C   0  0  0  0  0  0  0  0  0  0  0  0
   38.2870   33.7640   40.0570 H   0  0  0  0  0  0  0  0  0  0  0  0
   40.1370   34.5620   39.2100 C   0  0  0  0  0  0  0  0  0  0  0  0
   39.3940   34.6460   37.6250 Cl  0  0  0  0  0  0  0  0  0  0  0  0
   43.6490   35.3730   40.9530 S   0  0  0  0  0  0  0  0  0  0  0  0
   44.1870   35.9490   43.6210 C   0  0  0  0  0  0  0  0  0  0  0  0
   44.2460   34.9740   42.5910 C   0  0  0  0  0  0  0  0  0  0  0  0
   44.7730   33.7270   42.8990 C   0  0  0  0  0  0  0  0  0  0  0  0
   45.2100   33.4820   44.1610 N   0  0  0  0  0  0  0  0  0  0  0  0
   45.1390   34.4360   45.1200 C   0  0  0  0  0  0  0  0  0  0  0  0
   44.6390   35.6450   44.8570 N   0  0  0  0  0  0  0  0  0  0  0  0
   43.7770   36.9040   43.3620 H   0  0  0  0  0  0  0  0  0  0  0  0
   44.8190   32.9850   42.1200 H   0  0  0  0  0  0  0  0  0  0  0  0
   45.5160   34.1120   46.0640 H   0  0  0  0  0  0  0  0  0  0  0  0
  1  2  1  0  0  0  0
  2  3  1  0  0  0  0
  3 12  1  0  0  0  0
  3  4  2  0  0  0  0
  4  5  1  0  0  0  0
  6  4  1  0  0  0  0
  6  7  1  0  0  0  0
  8  6  2  0  0  0  0
  9  8  1  0  0  0  0
 10  2  2  0  0  0  0
 10  8  1  0  0  0  0
 11 10  1  0  0  0  0
 12 14  1  0  0  0  0
 13 18  1  0  0  0  0
 14 15  1  0  0  0  0
 14 13  2  0  0  0  0
 15 16  2  0  0  0  0
 16 17  1  0  0  0  0
 17 21  1  0  0  0  0
 18 17  2  0  0  0  0
 19 13  1  0  0  0  0
 20 15  1  0  0  0  0
M  END
>  <minimizedAffinity>
-4.60218382

>  <minimizedRMSD>
0.659182191

$$$$
