
 OpenBabel03242510513D

 24 25  0  0  0  0  0  0  0  0999 V2000
   44.7630   36.1120   44.2000 C   0  0  0  0  0  0  0  0  0  0  0  0
   45.6310   36.3790   43.1170 C   0  0  0  0  0  0  0  0  0  0  0  0
   46.3180   35.2850   42.5650 C   0  0  0  0  0  0  0  0  0  0  0  0
   46.1200   34.0380   43.0900 N   0  0  0  0  0  0  0  0  0  0  0  0
   45.2850   33.8320   44.1200 C   0  0  0  0  0  0  0  0  0  0  0  0
   44.6000   34.8720   44.6830 N   0  0  0  0  0  0  0  0  0  0  0  0
   46.1310   31.5700   44.2430 C   0  0  0  0  0  0  0  0  0  0  0  0
   47.1200   31.8090   43.5270 O   0  0  0  0  0  0  0  0  0  0  0  0
   45.1240   32.5130   44.6190 N   0  0  0  0  0  0  0  0  0  0  0  0
   44.2380   36.9530   44.6210 H   0  0  0  0  0  0  0  0  0  0  0  0
   45.7720   37.3720   42.7190 H   0  0  0  0  0  0  0  0  0  0  0  0
   46.9810   35.4960   41.7360 H   0  0  0  0  0  0  0  0  0  0  0  0
   44.3140   32.2620   45.2220 H   0  0  0  0  0  0  0  0  0  0  0  0
   45.5660   31.2120   47.2120 Cl  0  0  0  0  0  0  0  0  0  0  0  0
   45.7000   29.8910   46.0800 C   0  0  0  0  0  0  0  0  0  0  0  0
   45.9590   30.1980   44.7660 C   0  0  0  0  0  0  0  0  0  0  0  0
   46.0720   29.1820   43.8360 C   0  0  0  0  0  0  0  0  0  0  0  0
   46.2770   29.3860   42.7790 H   0  0  0  0  0  0  0  0  0  0  0  0
   45.9370   27.8470   44.1630 C   0  0  0  0  0  0  0  0  0  0  0  0
   46.0290   27.0710   43.4240 H   0  0  0  0  0  0  0  0  0  0  0  0
   45.6770   27.5530   45.4900 C   0  0  0  0  0  0  0  0  0  0  0  0
   45.5700   26.5060   45.7570 H   0  0  0  0  0  0  0  0  0  0  0  0
   45.5590   28.5680   46.4430 C   0  0  0  0  0  0  0  0  0  0  0  0
   45.2290   28.1760   48.1190 Cl  0  0  0  0  0  0  0  0  0  0  0  0
  1 10  1  0  0  0  0
  1  6  1  0  0  0  0
  2  1  2  0  0  0  0
  3  4  2  0  0  0  0
  3  2  1  0  0  0  0
  4  5  1  0  0  0  0
  5  9  1  0  0  0  0
  5  6  2  0  0  0  0
  7  9  1  0  0  0  0
  7 16  1  0  0  0  0
  8  7  2  0  0  0  0
  9 13  1  0  0  0  0
 11  2  1  0  0  0  0
 12  3  1  0  0  0  0
 15 23  1  0  0  0  0
 15 14  1  0  0  0  0
 16 15  2  0  0  0  0
 17 19  2  0  0  0  0
 17 16  1  0  0  0  0
 18 17  1  0  0  0  0
 19 21  1  0  0  0  0
 20 19  1  0  0  0  0
 21 22  1  0  0  0  0
 21 23  2  0  0  0  0
 23 24  1  0  0  0  0
M  END
>  <minimizedAffinity>
-3.57271266

>  <minimizedRMSD>
3.7047348

$$$$
