
 OpenBabel03242510223D

 40 43  0  0  1  0  0  0  0  0999 V2000
   48.0490   33.2170   43.1260 N   0  0  0  0  0  0  0  0  0  0  0  0
   49.2240   33.2760   42.3790 C   0  0  0  0  0  0  0  0  0  0  0  0
   50.3780   32.8400   42.6330 O   0  0  0  0  0  0  0  0  0  0  0  0
   47.5200   34.1160   43.0930 H   0  0  0  0  0  0  0  0  0  0  0  0
   46.2660   32.0670   44.3850 C   0  0  1  0  0  0  0  0  0  0  0  0
   46.4130   31.3550   43.1940 C   0  0  0  0  0  0  0  0  0  0  0  0
   47.6440   32.0600   43.8400 C   0  0  1  0  0  0  0  0  0  0  0  0
   46.0780   31.5730   45.3790 H   0  0  0  0  0  0  0  0  0  0  0  0
   46.4150   30.2210   43.2390 H   0  0  0  0  0  0  0  0  0  0  0  0
   46.1410   31.6760   42.1730 H   0  0  0  0  0  0  0  0  0  0  0  0
   48.4050   31.3020   44.1250 H   0  0  0  0  0  0  0  0  0  0  0  0
   45.0370   33.9780   43.1180 C   0  0  0  0  0  0  0  0  0  0  0  0
   45.5390   33.4170   44.3400 C   0  0  0  0  0  0  0  0  0  0  0  0
   45.3640   34.1520   45.4950 C   0  0  0  0  0  0  0  0  0  0  0  0
   44.7390   35.3480   45.4240 N   0  0  0  0  0  0  0  0  0  0  0  0
   44.2710   35.8660   44.2620 C   0  0  0  0  0  0  0  0  0  0  0  0
   44.4300   35.1470   43.0690 N   0  0  0  0  0  0  0  0  0  0  0  0
   45.1510   33.4000   42.2220 H   0  0  0  0  0  0  0  0  0  0  0  0
   45.7170   33.7870   46.4430 H   0  0  0  0  0  0  0  0  0  0  0  0
   43.7700   36.8250   44.2070 H   0  0  0  0  0  0  0  0  0  0  0  0
   49.2090   33.9520   41.0210 C   0  0  2  0  0  0  0  0  0  0  0  0
   48.5660   35.3860   40.9660 C   0  0  0  0  0  0  0  0  0  0  0  0
   47.9490   34.1970   40.3070 C   0  0  1  0  0  0  0  0  0  0  0  0
   50.1540   33.9630   40.4440 H   0  0  0  0  0  0  0  0  0  0  0  0
   48.1320   35.7090   41.9430 H   0  0  0  0  0  0  0  0  0  0  0  0
   49.0090   36.1240   40.3070 H   0  0  0  0  0  0  0  0  0  0  0  0
   47.0420   33.7140   40.7240 H   0  0  0  0  0  0  0  0  0  0  0  0
   47.9850   34.1350   38.7960 C   0  0  0  0  0  0  0  0  0  0  0  0
   48.6500   34.9560   38.1790 O   0  0  0  0  0  0  0  0  0  0  0  0
   49.6020   31.7020   38.2280 Cl  0  0  0  0  0  0  0  0  0  0  0  0
   47.9290   31.9650   37.7450 C   0  0  0  0  0  0  0  0  0  0  0  0
   47.2480   33.1230   38.0480 C   0  0  0  0  0  0  0  0  0  0  0  0
   45.9460   33.2020   37.6130 C   0  0  0  0  0  0  0  0  0  0  0  0
   45.4140   34.1080   37.8490 H   0  0  0  0  0  0  0  0  0  0  0  0
   45.3450   32.1790   36.9100 C   0  0  0  0  0  0  0  0  0  0  0  0
   44.2990   32.3520   36.6120 H   0  0  0  0  0  0  0  0  0  0  0  0
   46.0210   31.0170   36.6040 C   0  0  0  0  0  0  0  0  0  0  0  0
   45.5210   30.2380   36.0530 H   0  0  0  0  0  0  0  0  0  0  0  0
   47.3290   30.9190   37.0310 C   0  0  0  0  0  0  0  0  0  0  0  0
   48.2170   29.4560   36.6600 Cl  0  0  0  0  0  0  0  0  0  0  0  0
  1  7  1  0  0  0  0
  2  3  2  0  0  0  0
  2  1  1  0  0  0  0
  4  1  1  0  0  0  0
  5  8  1  1  0  0  0
  6  9  1  0  0  0  0
  6  7  1  0  0  0  0
  6  5  1  0  0  0  0
  7 11  1  1  0  0  0
  7  5  1  0  0  0  0
 10  6  1  0  0  0  0
 12 13  1  0  0  0  0
 13  5  1  0  0  0  0
 13 14  2  0  0  0  0
 14 19  1  0  0  0  0
 15 14  1  0  0  0  0
 16 15  2  0  0  0  0
 17 12  2  0  0  0  0
 17 16  1  0  0  0  0
 18 12  1  0  0  0  0
 20 16  1  0  0  0  0
 21 24  1  6  0  0  0
 21  2  1  0  0  0  0
 22 21  1  0  0  0  0
 22 25  1  0  0  0  0
 23 27  1  1  0  0  0
 23 22  1  0  0  0  0
 23 21  1  0  0  0  0
 26 22  1  0  0  0  0
 28 23  1  0  0  0  0
 29 28  2  0  0  0  0
 31 32  1  0  0  0  0
 31 30  1  0  0  0  0
 32 28  1  0  0  0  0
 33 34  1  0  0  0  0
 33 32  2  0  0  0  0
 35 33  1  0  0  0  0
 36 35  1  0  0  0  0
 37 35  2  0  0  0  0
 37 39  1  0  0  0  0
 38 37  1  0  0  0  0
 39 31  2  0  0  0  0
 40 39  1  0  0  0  0
M  END
>  <minimizedAffinity>
-4.91741085

>  <minimizedRMSD>
1.55332553

$$$$
