
 OpenBabel03242520203D

 37 39  0  0  0  0  0  0  0  0999 V2000
   36.6290   27.2840   43.4180 C   0  0  0  0  0  0  0  0  0  0  0  0
   35.7530   27.4410   42.7500 H   0  0  0  0  0  0  0  0  0  0  0  0
   36.2930   26.9000   44.4090 H   0  0  0  0  0  0  0  0  0  0  0  0
   38.0730   24.2920   41.6180 C   0  0  0  0  0  0  0  0  0  0  0  0
   37.1320   25.2170   42.1260 C   0  0  0  0  0  0  0  0  0  0  0  0
   37.5880   26.2910   42.8770 C   0  0  0  0  0  0  0  0  0  0  0  0
   38.9420   26.3850   43.0770 N   0  0  0  0  0  0  0  0  0  0  0  0
   39.8050   25.4680   42.5650 C   0  0  0  0  0  0  0  0  0  0  0  0
   39.3770   24.4350   41.8460 N   0  0  0  0  0  0  0  0  0  0  0  0
   36.0960   25.0480   41.9110 H   0  0  0  0  0  0  0  0  0  0  0  0
   40.8440   25.6760   42.8090 H   0  0  0  0  0  0  0  0  0  0  0  0
   37.5710   23.1420   40.8230 C   0  0  0  0  0  0  0  0  0  0  0  0
   37.6300   23.4170   39.2860 C   0  0  0  0  0  0  0  0  0  0  0  0
   38.3680   22.3450   39.9630 C   0  0  0  0  0  0  0  0  0  0  0  0
   36.5930   22.7840   41.1940 H   0  0  0  0  0  0  0  0  0  0  0  0
   38.1710   24.3220   38.9560 H   0  0  0  0  0  0  0  0  0  0  0  0
   36.6610   23.2370   38.7800 H   0  0  0  0  0  0  0  0  0  0  0  0
   39.4790   22.4340   39.9610 H   0  0  0  0  0  0  0  0  0  0  0  0
   38.0270   21.3050   39.7270 H   0  0  0  0  0  0  0  0  0  0  0  0
   37.3060   28.6080   43.6580 C   0  0  0  0  0  0  0  0  0  0  0  0
   36.9830   28.9760   44.6460 H   0  0  0  0  0  0  0  0  0  0  0  0
   38.4150   28.5100   43.7080 H   0  0  0  0  0  0  0  0  0  0  0  0
   38.1320   29.9440   41.7800 C   0  0  0  0  0  0  0  0  0  0  0  0
   39.3250   29.5590   41.8780 O   0  0  0  0  0  0  0  0  0  0  0  0
   37.0410   29.5640   42.5970 N   0  0  0  0  0  0  0  0  0  0  0  0
   36.0790   29.9280   42.4740 H   0  0  0  0  0  0  0  0  0  0  0  0
   37.4530   28.4490   39.3410 Cl  0  0  0  0  0  0  0  0  0  0  0  0
   37.5460   30.2000   39.5140 C   0  0  0  0  0  0  0  0  0  0  0  0
   37.8700   30.8980   40.6820 C   0  0  0  0  0  0  0  0  0  0  0  0
   37.9090   32.2520   40.6920 C   0  0  0  0  0  0  0  0  0  0  0  0
   38.1680   32.6630   41.6370 H   0  0  0  0  0  0  0  0  0  0  0  0
   37.6240   32.9440   39.5310 C   0  0  0  0  0  0  0  0  0  0  0  0
   37.6660   34.0330   39.5820 H   0  0  0  0  0  0  0  0  0  0  0  0
   37.2960   32.3060   38.3450 C   0  0  0  0  0  0  0  0  0  0  0  0
   37.0790   32.8990   37.4590 H   0  0  0  0  0  0  0  0  0  0  0  0
   37.2590   30.9080   38.3480 C   0  0  0  0  0  0  0  0  0  0  0  0
   36.8400   30.1160   36.8320 Cl  0  0  0  0  0  0  0  0  0  0  0  0
  1 20  1  0  0  0  0
  1  3  1  0  0  0  0
  2  1  1  0  0  0  0
  4  9  2  0  0  0  0
  4  5  1  0  0  0  0
  5  6  2  0  0  0  0
  6  7  1  0  0  0  0
  6  1  1  0  0  0  0
  8 11  1  0  0  0  0
  8  7  2  0  0  0  0
  9  8  1  0  0  0  0
 10  5  1  0  0  0  0
 12 15  1  0  0  0  0
 12  4  1  0  0  0  0
 13 14  1  0  0  0  0
 13 12  1  0  0  0  0
 14 12  1  0  0  0  0
 16 13  1  0  0  0  0
 17 13  1  0  0  0  0
 18 14  1  0  0  0  0
 19 14  1  0  0  0  0
 20 22  1  0  0  0  0
 20 21  1  0  0  0  0
 23 24  2  0  0  0  0
 23 25  1  0  0  0  0
 25 20  1  0  0  0  0
 26 25  1  0  0  0  0
 27 28  1  0  0  0  0
 28 29  1  0  0  0  0
 29 30  2  0  0  0  0
 29 23  1  0  0  0  0
 30 31  1  0  0  0  0
 32 33  1  0  0  0  0
 32 30  1  0  0  0  0
 34 36  1  0  0  0  0
 34 32  2  0  0  0  0
 35 34  1  0  0  0  0
 36 28  2  0  0  0  0
 37 36  1  0  0  0  0
M  END
>  <minimizedAffinity>
-5.46358347

$$$$

 OpenBabel03242520203D

 37 39  0  0  0  0  0  0  0  0999 V2000
   35.7710   28.1460   37.7680 C   0  0  0  0  0  0  0  0  0  0  0  0
   36.0650   28.8000   36.9170 H   0  0  0  0  0  0  0  0  0  0  0  0
   36.3550   27.1970   37.7440 H   0  0  0  0  0  0  0  0  0  0  0  0
   36.4430   28.6140   41.4570 C   0  0  0  0  0  0  0  0  0  0  0  0
   36.1890   27.9850   40.2160 C   0  0  0  0  0  0  0  0  0  0  0  0
   36.0300   28.7750   39.0860 C   0  0  0  0  0  0  0  0  0  0  0  0
   36.1320   30.1320   39.2520 N   0  0  0  0  0  0  0  0  0  0  0  0
   36.3770   30.6870   40.4680 C   0  0  0  0  0  0  0  0  0  0  0  0
   36.5300   29.9390   41.5560 N   0  0  0  0  0  0  0  0  0  0  0  0
   36.1280   26.9160   40.2000 H   0  0  0  0  0  0  0  0  0  0  0  0
   36.4290   31.7730   40.4400 H   0  0  0  0  0  0  0  0  0  0  0  0
   36.6030   27.7590   42.6600 C   0  0  0  0  0  0  0  0  0  0  0  0
   37.9630   26.9890   42.6610 C   0  0  0  0  0  0  0  0  0  0  0  0
   37.5670   27.9680   43.6790 C   0  0  0  0  0  0  0  0  0  0  0  0
   35.7120   27.1270   42.8350 H   0  0  0  0  0  0  0  0  0  0  0  0
   38.7040   27.2770   41.8940 H   0  0  0  0  0  0  0  0  0  0  0  0
   37.8400   25.8990   42.8120 H   0  0  0  0  0  0  0  0  0  0  0  0
   38.1660   28.9080   43.7190 H   0  0  0  0  0  0  0  0  0  0  0  0
   37.3700   27.5480   44.6970 H   0  0  0  0  0  0  0  0  0  0  0  0
   34.3170   27.7800   37.6260 C   0  0  0  0  0  0  0  0  0  0  0  0
   34.2110   27.1710   36.7130 H   0  0  0  0  0  0  0  0  0  0  0  0
   33.9590   27.1450   38.4690 H   0  0  0  0  0  0  0  0  0  0  0  0
   32.2600   28.8650   36.8620 C   0  0  0  0  0  0  0  0  0  0  0  0
   31.8620   27.8910   36.1730 O   0  0  0  0  0  0  0  0  0  0  0  0
   33.4530   28.9480   37.6170 N   0  0  0  0  0  0  0  0  0  0  0  0
   33.7340   29.7880   38.1550 H   0  0  0  0  0  0  0  0  0  0  0  0
   32.4660   30.2460   34.2750 Cl  0  0  0  0  0  0  0  0  0  0  0  0
   31.4480   30.7050   35.6380 C   0  0  0  0  0  0  0  0  0  0  0  0
   31.3600   30.0380   36.8630 C   0  0  0  0  0  0  0  0  0  0  0  0
   30.5380   30.4890   37.8410 C   0  0  0  0  0  0  0  0  0  0  0  0
   30.5600   29.8970   38.7230 H   0  0  0  0  0  0  0  0  0  0  0  0
   29.7800   31.6220   37.6140 C   0  0  0  0  0  0  0  0  0  0  0  0
   29.1300   31.9520   38.4270 H   0  0  0  0  0  0  0  0  0  0  0  0
   29.8260   32.3230   36.4200 C   0  0  0  0  0  0  0  0  0  0  0  0
   29.2080   33.2090   36.2940 H   0  0  0  0  0  0  0  0  0  0  0  0
   30.6790   31.8470   35.4200 C   0  0  0  0  0  0  0  0  0  0  0  0
   30.7230   32.7520   33.9100 Cl  0  0  0  0  0  0  0  0  0  0  0  0
  1  6  1  0  0  0  0
  2  1  1  0  0  0  0
  3  1  1  0  0  0  0
  4  9  1  0  0  0  0
  4 12  1  0  0  0  0
  5  4  2  0  0  0  0
  6  7  2  0  0  0  0
  6  5  1  0  0  0  0
  7  8  1  0  0  0  0
  8  9  2  0  0  0  0
 10  5  1  0  0  0  0
 11  8  1  0  0  0  0
 12 13  1  0  0  0  0
 12 15  1  0  0  0  0
 12 14  1  0  0  0  0
 13 17  1  0  0  0  0
 13 14  1  0  0  0  0
 14 18  1  0  0  0  0
 14 19  1  0  0  0  0
 16 13  1  0  0  0  0
 20  1  1  0  0  0  0
 20 22  1  0  0  0  0
 21 20  1  0  0  0  0
 23 29  1  0  0  0  0
 23 25  1  0  0  0  0
 24 23  2  0  0  0  0
 25 20  1  0  0  0  0
 25 26  1  0  0  0  0
 27 28  1  0  0  0  0
 28 29  1  0  0  0  0
 29 30  2  0  0  0  0
 30 31  1  0  0  0  0
 32 30  1  0  0  0  0
 32 33  1  0  0  0  0
 34 32  2  0  0  0  0
 35 34  1  0  0  0  0
 36 28  2  0  0  0  0
 36 34  1  0  0  0  0
 37 36  1  0  0  0  0
M  END
>  <minimizedAffinity>
-5.32538652

$$$$

 OpenBabel03242520203D

 37 39  0  0  0  0  0  0  0  0999 V2000
   37.3270   30.9050   37.2140 C   0  0  0  0  0  0  0  0  0  0  0  0
   36.7090   31.4350   36.4550 H   0  0  0  0  0  0  0  0  0  0  0  0
   38.1570   30.3530   36.7170 H   0  0  0  0  0  0  0  0  0  0  0  0
   39.9000   32.8620   39.1720 C   0  0  0  0  0  0  0  0  0  0  0  0
   39.3340   31.9630   38.2380 C   0  0  0  0  0  0  0  0  0  0  0  0
   37.9530   31.8330   38.1870 C   0  0  0  0  0  0  0  0  0  0  0  0
   37.2200   32.5970   39.0590 N   0  0  0  0  0  0  0  0  0  0  0  0
   37.8130   33.4470   39.9380 C   0  0  0  0  0  0  0  0  0  0  0  0
   39.1350   33.5780   39.9940 N   0  0  0  0  0  0  0  0  0  0  0  0
   40.0000   31.4140   37.6040 H   0  0  0  0  0  0  0  0  0  0  0  0
   37.1010   33.9820   40.5620 H   0  0  0  0  0  0  0  0  0  0  0  0
   41.3780   32.9870   39.2220 C   0  0  0  0  0  0  0  0  0  0  0  0
   41.9020   34.1610   38.3350 C   0  0  0  0  0  0  0  0  0  0  0  0
   42.0790   34.0810   39.7890 C   0  0  0  0  0  0  0  0  0  0  0  0
   41.8770   32.0150   39.0490 H   0  0  0  0  0  0  0  0  0  0  0  0
   41.1480   34.8530   37.9190 H   0  0  0  0  0  0  0  0  0  0  0  0
   42.6930   33.8450   37.6270 H   0  0  0  0  0  0  0  0  0  0  0  0
   41.5470   34.8540   40.3930 H   0  0  0  0  0  0  0  0  0  0  0  0
   43.1310   33.9230   40.1360 H   0  0  0  0  0  0  0  0  0  0  0  0
   36.4720   29.8860   37.9200 C   0  0  0  0  0  0  0  0  0  0  0  0
   35.4940   30.3520   38.1260 H   0  0  0  0  0  0  0  0  0  0  0  0
   36.2660   28.9950   37.2830 H   0  0  0  0  0  0  0  0  0  0  0  0
   36.2660   29.0910   40.2260 C   0  0  0  0  0  0  0  0  0  0  0  0
   35.0210   29.2520   40.2960 O   0  0  0  0  0  0  0  0  0  0  0  0
   37.1050   29.3730   39.1230 N   0  0  0  0  0  0  0  0  0  0  0  0
   38.1320   29.2320   39.1320 H   0  0  0  0  0  0  0  0  0  0  0  0
   36.5490   26.1780   39.9530 Cl  0  0  0  0  0  0  0  0  0  0  0  0
   37.0370   27.1600   41.3320 C   0  0  0  0  0  0  0  0  0  0  0  0
   36.8960   28.5460   41.4480 C   0  0  0  0  0  0  0  0  0  0  0  0
   37.3110   29.1950   42.5630 C   0  0  0  0  0  0  0  0  0  0  0  0
   37.1490   30.2450   42.5300 H   0  0  0  0  0  0  0  0  0  0  0  0
   37.8790   28.4690   43.5930 C   0  0  0  0  0  0  0  0  0  0  0  0
   38.2000   29.0290   44.4720 H   0  0  0  0  0  0  0  0  0  0  0  0
   38.0440   27.0950   43.5330 C   0  0  0  0  0  0  0  0  0  0  0  0
   38.4970   26.5720   44.3720 H   0  0  0  0  0  0  0  0  0  0  0  0
   37.6120   26.4380   42.3770 C   0  0  0  0  0  0  0  0  0  0  0  0
   37.8300   24.6920   42.3200 Cl  0  0  0  0  0  0  0  0  0  0  0  0
  1 20  1  0  0  0  0
  1  6  1  0  0  0  0
  2  1  1  0  0  0  0
  3  1  1  0  0  0  0
  4 12  1  0  0  0  0
  4  9  1  0  0  0  0
  5  4  2  0  0  0  0
  6  5  1  0  0  0  0
  6  7  2  0  0  0  0
  7  8  1  0  0  0  0
  8  9  2  0  0  0  0
  8 11  1  0  0  0  0
 10  5  1  0  0  0  0
 12 14  1  0  0  0  0
 13 12  1  0  0  0  0
 13 14  1  0  0  0  0
 14 19  1  0  0  0  0
 14 18  1  0  0  0  0
 15 12  1  0  0  0  0
 16 13  1  0  0  0  0
 17 13  1  0  0  0  0
 20 21  1  0  0  0  0
 20 25  1  0  0  0  0
 22 20  1  0  0  0  0
 23 24  2  0  0  0  0
 23 29  1  0  0  0  0
 25 26  1  0  0  0  0
 25 23  1  0  0  0  0
 27 28  1  0  0  0  0
 28 29  2  0  0  0  0
 28 36  1  0  0  0  0
 29 30  1  0  0  0  0
 30 32  2  0  0  0  0
 31 30  1  0  0  0  0
 32 33  1  0  0  0  0
 34 32  1  0  0  0  0
 34 35  1  0  0  0  0
 36 34  2  0  0  0  0
 37 36  1  0  0  0  0
M  END
>  <minimizedAffinity>
-5.29403925

$$$$

 OpenBabel03242520203D

 37 39  0  0  0  0  0  0  0  0999 V2000
   35.8470   28.0150   38.2210 C   0  0  0  0  0  0  0  0  0  0  0  0
   36.2750   28.2520   37.2220 H   0  0  0  0  0  0  0  0  0  0  0  0
   34.9860   27.3160   38.1160 H   0  0  0  0  0  0  0  0  0  0  0  0
   37.5060   26.5890   41.3030 C   0  0  0  0  0  0  0  0  0  0  0  0
   36.5550   27.2300   40.4750 C   0  0  0  0  0  0  0  0  0  0  0  0
   36.8260   27.3560   39.1190 C   0  0  0  0  0  0  0  0  0  0  0  0
   38.0150   26.8420   38.6690 N   0  0  0  0  0  0  0  0  0  0  0  0
   38.8950   26.2350   39.5080 C   0  0  0  0  0  0  0  0  0  0  0  0
   38.6450   26.1100   40.8070 N   0  0  0  0  0  0  0  0  0  0  0  0
   35.6580   27.5960   40.9310 H   0  0  0  0  0  0  0  0  0  0  0  0
   39.7910   25.8800   39.0040 H   0  0  0  0  0  0  0  0  0  0  0  0
   37.2080   26.4680   42.7520 C   0  0  0  0  0  0  0  0  0  0  0  0
   37.9720   27.5320   43.6040 C   0  0  0  0  0  0  0  0  0  0  0  0
   36.5110   27.4360   43.5190 C   0  0  0  0  0  0  0  0  0  0  0  0
   37.3150   25.4250   43.1070 H   0  0  0  0  0  0  0  0  0  0  0  0
   38.4940   28.3360   43.0540 H   0  0  0  0  0  0  0  0  0  0  0  0
   38.5440   27.0840   44.4390 H   0  0  0  0  0  0  0  0  0  0  0  0
   35.9880   28.2900   43.0280 H   0  0  0  0  0  0  0  0  0  0  0  0
   35.9960   27.1080   44.4570 H   0  0  0  0  0  0  0  0  0  0  0  0
   35.3210   29.2820   38.8430 C   0  0  0  0  0  0  0  0  0  0  0  0
   34.4160   29.5790   38.2870 H   0  0  0  0  0  0  0  0  0  0  0  0
   35.0040   29.1330   39.9000 H   0  0  0  0  0  0  0  0  0  0  0  0
   36.5520   30.9700   40.1190 C   0  0  0  0  0  0  0  0  0  0  0  0
   35.9740   30.7370   41.2110 O   0  0  0  0  0  0  0  0  0  0  0  0
   36.3200   30.3370   38.8760 N   0  0  0  0  0  0  0  0  0  0  0  0
   36.8210   30.5850   38.0030 H   0  0  0  0  0  0  0  0  0  0  0  0
   39.1190   29.7830   40.9240 Cl  0  0  0  0  0  0  0  0  0  0  0  0
   38.8100   31.4770   40.5520 C   0  0  0  0  0  0  0  0  0  0  0  0
   37.5840   32.0280   40.1710 C   0  0  0  0  0  0  0  0  0  0  0  0
   37.4690   33.3530   39.9100 C   0  0  0  0  0  0  0  0  0  0  0  0
   36.4870   33.6480   39.6300 H   0  0  0  0  0  0  0  0  0  0  0  0
   38.5840   34.1610   40.0250 C   0  0  0  0  0  0  0  0  0  0  0  0
   38.4490   35.2220   39.8050 H   0  0  0  0  0  0  0  0  0  0  0  0
   39.8250   33.6710   40.3990 C   0  0  0  0  0  0  0  0  0  0  0  0
   40.6700   34.3510   40.4740 H   0  0  0  0  0  0  0  0  0  0  0  0
   39.9290   32.3020   40.6650 C   0  0  0  0  0  0  0  0  0  0  0  0
   41.5130   31.6980   41.1390 Cl  0  0  0  0  0  0  0  0  0  0  0  0
  1 20  1  0  0  0  0
  1  6  1  0  0  0  0
  2  1  1  0  0  0  0
  3  1  1  0  0  0  0
  4 12  1  0  0  0  0
  5 10  1  0  0  0  0
  5  4  2  0  0  0  0
  6  5  1  0  0  0  0
  7  6  2  0  0  0  0
  7  8  1  0  0  0  0
  8  9  2  0  0  0  0
  9  4  1  0  0  0  0
 11  8  1  0  0  0  0
 12 15  1  0  0  0  0
 12 14  1  0  0  0  0
 12 13  1  0  0  0  0
 13 17  1  0  0  0  0
 14 13  1  0  0  0  0
 14 19  1  0  0  0  0
 16 13  1  0  0  0  0
 18 14  1  0  0  0  0
 20 25  1  0  0  0  0
 20 22  1  0  0  0  0
 21 20  1  0  0  0  0
 23 29  1  0  0  0  0
 23 24  2  0  0  0  0
 25 23  1  0  0  0  0
 26 25  1  0  0  0  0
 28 36  1  0  0  0  0
 28 27  1  0  0  0  0
 29 28  2  0  0  0  0
 30 32  2  0  0  0  0
 30 29  1  0  0  0  0
 31 30  1  0  0  0  0
 32 34  1  0  0  0  0
 33 32  1  0  0  0  0
 34 35  1  0  0  0  0
 34 36  2  0  0  0  0
 36 37  1  0  0  0  0
M  END
>  <minimizedAffinity>
-5.18962288

$$$$

 OpenBabel03242520203D

 37 39  0  0  0  0  0  0  0  0999 V2000
   37.0370   30.7790   40.8070 C   0  0  0  0  0  0  0  0  0  0  0  0
   36.6830   31.8330   40.7950 H   0  0  0  0  0  0  0  0  0  0  0  0
   36.3480   30.1470   41.4150 H   0  0  0  0  0  0  0  0  0  0  0  0
   35.9860   29.2990   37.4920 C   0  0  0  0  0  0  0  0  0  0  0  0
   35.9070   29.8630   38.7870 C   0  0  0  0  0  0  0  0  0  0  0  0
   37.0850   30.1780   39.4520 C   0  0  0  0  0  0  0  0  0  0  0  0
   38.2620   29.9180   38.7980 N   0  0  0  0  0  0  0  0  0  0  0  0
   38.2820   29.3740   37.5530 C   0  0  0  0  0  0  0  0  0  0  0  0
   37.1600   29.0680   36.9090 N   0  0  0  0  0  0  0  0  0  0  0  0
   34.9350   30.0240   39.2050 H   0  0  0  0  0  0  0  0  0  0  0  0
   39.2880   29.2260   37.1680 H   0  0  0  0  0  0  0  0  0  0  0  0
   34.7210   28.9590   36.7950 C   0  0  0  0  0  0  0  0  0  0  0  0
   34.1380   27.5870   37.2640 C   0  0  0  0  0  0  0  0  0  0  0  0
   33.4500   28.8740   37.4190 C   0  0  0  0  0  0  0  0  0  0  0  0
   34.8140   29.0730   35.6990 H   0  0  0  0  0  0  0  0  0  0  0  0
   34.6080   27.1150   38.1460 H   0  0  0  0  0  0  0  0  0  0  0  0
   33.9210   26.9010   36.4220 H   0  0  0  0  0  0  0  0  0  0  0  0
   33.2990   29.2290   38.4660 H   0  0  0  0  0  0  0  0  0  0  0  0
   32.5340   29.0070   36.7910 H   0  0  0  0  0  0  0  0  0  0  0  0
   38.3910   30.7230   41.4650 C   0  0  0  0  0  0  0  0  0  0  0  0
   39.0800   31.3450   40.8700 H   0  0  0  0  0  0  0  0  0  0  0  0
   38.3800   31.1610   42.4900 H   0  0  0  0  0  0  0  0  0  0  0  0
   38.4320   28.6470   42.7610 C   0  0  0  0  0  0  0  0  0  0  0  0
   37.6760   29.0640   43.6760 O   0  0  0  0  0  0  0  0  0  0  0  0
   38.8720   29.3610   41.6230 N   0  0  0  0  0  0  0  0  0  0  0  0
   39.5100   28.9650   40.9080 H   0  0  0  0  0  0  0  0  0  0  0  0
   36.7630   26.8760   41.1100 Cl  0  0  0  0  0  0  0  0  0  0  0  0
   38.1100   26.3980   42.1410 C   0  0  0  0  0  0  0  0  0  0  0  0
   38.8950   27.2520   42.9210 C   0  0  0  0  0  0  0  0  0  0  0  0
   39.9090   26.7650   43.6760 C   0  0  0  0  0  0  0  0  0  0  0  0
   40.4300   27.5130   44.2230 H   0  0  0  0  0  0  0  0  0  0  0  0
   40.1630   25.4070   43.6690 C   0  0  0  0  0  0  0  0  0  0  0  0
   40.9880   25.0550   44.2910 H   0  0  0  0  0  0  0  0  0  0  0  0
   39.4180   24.5140   42.9150 C   0  0  0  0  0  0  0  0  0  0  0  0
   39.6610   23.4540   42.9460 H   0  0  0  0  0  0  0  0  0  0  0  0
   38.3760   25.0290   42.1400 C   0  0  0  0  0  0  0  0  0  0  0  0
   37.4410   23.8790   41.1900 Cl  0  0  0  0  0  0  0  0  0  0  0  0
  1  3  1  0  0  0  0
  1 20  1  0  0  0  0
  2  1  1  0  0  0  0
  4  5  1  0  0  0  0
  5 10  1  0  0  0  0
  5  6  2  0  0  0  0
  6  1  1  0  0  0  0
  7  6  1  0  0  0  0
  8  7  2  0  0  0  0
  9  4  2  0  0  0  0
  9  8  1  0  0  0  0
 11  8  1  0  0  0  0
 12 13  1  0  0  0  0
 12 14  1  0  0  0  0
 12  4  1  0  0  0  0
 13 14  1  0  0  0  0
 13 16  1  0  0  0  0
 14 18  1  0  0  0  0
 15 12  1  0  0  0  0
 17 13  1  0  0  0  0
 19 14  1  0  0  0  0
 20 25  1  0  0  0  0
 20 22  1  0  0  0  0
 21 20  1  0  0  0  0
 23 29  1  0  0  0  0
 23 24  2  0  0  0  0
 25 23  1  0  0  0  0
 26 25  1  0  0  0  0
 27 28  1  0  0  0  0
 28 29  1  0  0  0  0
 29 30  2  0  0  0  0
 30 31  1  0  0  0  0
 32 30  1  0  0  0  0
 32 33  1  0  0  0  0
 34 35  1  0  0  0  0
 34 32  2  0  0  0  0
 36 28  2  0  0  0  0
 36 34  1  0  0  0  0
 37 36  1  0  0  0  0
M  END
>  <minimizedAffinity>
-5.17318249

$$$$

 OpenBabel03242520203D

 37 39  0  0  0  0  0  0  0  0999 V2000
   35.9190   29.7610   40.5870 C   0  0  0  0  0  0  0  0  0  0  0  0
   36.1720   29.6630   39.5080 H   0  0  0  0  0  0  0  0  0  0  0  0
   34.8280   29.6000   40.7430 H   0  0  0  0  0  0  0  0  0  0  0  0
   37.3810   26.5140   41.8540 C   0  0  0  0  0  0  0  0  0  0  0  0
   36.6950   27.4380   41.0310 C   0  0  0  0  0  0  0  0  0  0  0  0
   36.6240   28.7660   41.4300 C   0  0  0  0  0  0  0  0  0  0  0  0
   37.2350   29.0970   42.6130 N   0  0  0  0  0  0  0  0  0  0  0  0
   37.8820   28.1700   43.3670 C   0  0  0  0  0  0  0  0  0  0  0  0
   37.9540   26.8960   42.9930 N   0  0  0  0  0  0  0  0  0  0  0  0
   36.2530   27.0720   40.1270 H   0  0  0  0  0  0  0  0  0  0  0  0
   38.3130   28.5830   44.2760 H   0  0  0  0  0  0  0  0  0  0  0  0
   37.4430   25.0960   41.4200 C   0  0  0  0  0  0  0  0  0  0  0  0
   38.9120   24.6050   41.2140 C   0  0  0  0  0  0  0  0  0  0  0  0
   37.9810   24.0360   42.1930 C   0  0  0  0  0  0  0  0  0  0  0  0
   36.7630   24.8980   40.5700 H   0  0  0  0  0  0  0  0  0  0  0  0
   39.7200   25.2750   41.5600 H   0  0  0  0  0  0  0  0  0  0  0  0
   39.0760   24.1450   40.2200 H   0  0  0  0  0  0  0  0  0  0  0  0
   38.2430   24.1840   43.2670 H   0  0  0  0  0  0  0  0  0  0  0  0
   37.6400   22.9910   41.9810 H   0  0  0  0  0  0  0  0  0  0  0  0
   36.2330   31.1630   41.0390 C   0  0  0  0  0  0  0  0  0  0  0  0
   35.5040   31.8400   40.5640 H   0  0  0  0  0  0  0  0  0  0  0  0
   36.1070   31.2890   42.1390 H   0  0  0  0  0  0  0  0  0  0  0  0
   37.8130   32.5530   39.7880 C   0  0  0  0  0  0  0  0  0  0  0  0
   36.9350   33.1610   39.1240 O   0  0  0  0  0  0  0  0  0  0  0  0
   37.6070   31.5410   40.7530 N   0  0  0  0  0  0  0  0  0  0  0  0
   38.3770   31.0640   41.2580 H   0  0  0  0  0  0  0  0  0  0  0  0
   38.9330   30.8030   37.7080 Cl  0  0  0  0  0  0  0  0  0  0  0  0
   39.7510   32.1380   38.5170 C   0  0  0  0  0  0  0  0  0  0  0  0
   39.2050   32.9620   39.5050 C   0  0  0  0  0  0  0  0  0  0  0  0
   39.9350   33.9610   40.0550 C   0  0  0  0  0  0  0  0  0  0  0  0
   39.4100   34.5160   40.7930 H   0  0  0  0  0  0  0  0  0  0  0  0
   41.2350   34.1610   39.6280 C   0  0  0  0  0  0  0  0  0  0  0  0
   41.7880   34.9770   40.0970 H   0  0  0  0  0  0  0  0  0  0  0  0
   41.8270   33.3750   38.6530 C   0  0  0  0  0  0  0  0  0  0  0  0
   42.8530   33.5760   38.3540 H   0  0  0  0  0  0  0  0  0  0  0  0
   41.0630   32.3480   38.0930 C   0  0  0  0  0  0  0  0  0  0  0  0
   41.8330   31.3610   36.8550 Cl  0  0  0  0  0  0  0  0  0  0  0  0
  1  3  1  0  0  0  0
  1 20  1  0  0  0  0
  1  6  1  0  0  0  0
  2  1  1  0  0  0  0
  4  9  1  0  0  0  0
  5  6  1  0  0  0  0
  5  4  2  0  0  0  0
  6  7  2  0  0  0  0
  7  8  1  0  0  0  0
  8 11  1  0  0  0  0
  9  8  2  0  0  0  0
 10  5  1  0  0  0  0
 12  4  1  0  0  0  0
 12 14  1  0  0  0  0
 13 12  1  0  0  0  0
 13 16  1  0  0  0  0
 13 14  1  0  0  0  0
 14 18  1  0  0  0  0
 15 12  1  0  0  0  0
 17 13  1  0  0  0  0
 19 14  1  0  0  0  0
 20 22  1  0  0  0  0
 21 20  1  0  0  0  0
 23 25  1  0  0  0  0
 24 23  2  0  0  0  0
 25 20  1  0  0  0  0
 25 26  1  0  0  0  0
 27 28  1  0  0  0  0
 28 29  1  0  0  0  0
 29 23  1  0  0  0  0
 29 30  2  0  0  0  0
 30 31  1  0  0  0  0
 32 30  1  0  0  0  0
 32 33  1  0  0  0  0
 34 32  2  0  0  0  0
 35 34  1  0  0  0  0
 36 28  2  0  0  0  0
 36 34  1  0  0  0  0
 37 36  1  0  0  0  0
M  END
>  <minimizedAffinity>
-5.14345789

$$$$

 OpenBabel03242520203D

 37 39  0  0  0  0  0  0  0  0999 V2000
   37.4840   28.4090   43.4130 C   0  0  0  0  0  0  0  0  0  0  0  0
   36.3910   28.5600   43.2720 H   0  0  0  0  0  0  0  0  0  0  0  0
   37.7220   28.3080   44.4970 H   0  0  0  0  0  0  0  0  0  0  0  0
   37.5870   25.0820   41.6250 C   0  0  0  0  0  0  0  0  0  0  0  0
   37.0820   26.2400   42.2600 C   0  0  0  0  0  0  0  0  0  0  0  0
   37.9800   27.1800   42.7500 C   0  0  0  0  0  0  0  0  0  0  0  0
   39.3150   26.9160   42.5800 N   0  0  0  0  0  0  0  0  0  0  0  0
   39.7480   25.7860   41.9630 C   0  0  0  0  0  0  0  0  0  0  0  0
   38.8960   24.8800   41.4910 N   0  0  0  0  0  0  0  0  0  0  0  0
   36.0190   26.3460   42.3400 H   0  0  0  0  0  0  0  0  0  0  0  0
   40.8320   25.7180   41.9050 H   0  0  0  0  0  0  0  0  0  0  0  0
   36.6170   24.0810   41.1140 C   0  0  0  0  0  0  0  0  0  0  0  0
   36.1700   24.3870   39.6480 C   0  0  0  0  0  0  0  0  0  0  0  0
   36.8760   23.1690   40.0590 C   0  0  0  0  0  0  0  0  0  0  0  0
   35.7880   23.9130   41.8260 H   0  0  0  0  0  0  0  0  0  0  0  0
   36.7230   25.1770   39.1080 H   0  0  0  0  0  0  0  0  0  0  0  0
   35.0690   24.4200   39.5320 H   0  0  0  0  0  0  0  0  0  0  0  0
   37.9070   23.0360   39.6550 H   0  0  0  0  0  0  0  0  0  0  0  0
   36.2760   22.2260   40.0060 H   0  0  0  0  0  0  0  0  0  0  0  0
   38.2170   29.6240   42.9060 C   0  0  0  0  0  0  0  0  0  0  0  0
   37.7510   30.5130   43.3630 H   0  0  0  0  0  0  0  0  0  0  0  0
   39.2850   29.6330   43.2220 H   0  0  0  0  0  0  0  0  0  0  0  0
   37.1870   30.4080   40.8280 C   0  0  0  0  0  0  0  0  0  0  0  0
   36.2200   30.9860   41.3870 O   0  0  0  0  0  0  0  0  0  0  0  0
   38.2330   29.6920   41.4550 N   0  0  0  0  0  0  0  0  0  0  0  0
   38.9990   29.2220   40.9360 H   0  0  0  0  0  0  0  0  0  0  0  0
   35.7220   28.1270   39.6900 Cl  0  0  0  0  0  0  0  0  0  0  0  0
   36.5120   29.4250   38.7980 C   0  0  0  0  0  0  0  0  0  0  0  0
   37.2060   30.5040   39.3530 C   0  0  0  0  0  0  0  0  0  0  0  0
   37.7740   31.4440   38.5610 C   0  0  0  0  0  0  0  0  0  0  0  0
   38.2720   32.2120   39.1010 H   0  0  0  0  0  0  0  0  0  0  0  0
   37.6610   31.3270   37.1880 C   0  0  0  0  0  0  0  0  0  0  0  0
   38.1330   32.1060   36.5860 H   0  0  0  0  0  0  0  0  0  0  0  0
   36.9850   30.2800   36.5830 C   0  0  0  0  0  0  0  0  0  0  0  0
   36.9260   30.2360   35.4980 H   0  0  0  0  0  0  0  0  0  0  0  0
   36.4030   29.3170   37.4120 C   0  0  0  0  0  0  0  0  0  0  0  0
   35.5490   27.9940   36.6240 Cl  0  0  0  0  0  0  0  0  0  0  0  0
  1  3  1  0  0  0  0
  2  1  1  0  0  0  0
  4  5  1  0  0  0  0
  5 10  1  0  0  0  0
  5  6  2  0  0  0  0
  6  1  1  0  0  0  0
  7  6  1  0  0  0  0
  8  7  2  0  0  0  0
  9  4  2  0  0  0  0
  9  8  1  0  0  0  0
 11  8  1  0  0  0  0
 12  4  1  0  0  0  0
 12 15  1  0  0  0  0
 13 14  1  0  0  0  0
 13 12  1  0  0  0  0
 14 12  1  0  0  0  0
 16 13  1  0  0  0  0
 17 13  1  0  0  0  0
 18 14  1  0  0  0  0
 19 14  1  0  0  0  0
 20 22  1  0  0  0  0
 20 21  1  0  0  0  0
 20  1  1  0  0  0  0
 23 24  2  0  0  0  0
 23 25  1  0  0  0  0
 25 20  1  0  0  0  0
 26 25  1  0  0  0  0
 28 29  1  0  0  0  0
 28 27  1  0  0  0  0
 29 23  1  0  0  0  0
 30 31  1  0  0  0  0
 30 29  2  0  0  0  0
 32 30  1  0  0  0  0
 33 32  1  0  0  0  0
 34 32  2  0  0  0  0
 34 36  1  0  0  0  0
 35 34  1  0  0  0  0
 36 28  2  0  0  0  0
 37 36  1  0  0  0  0
M  END
>  <minimizedAffinity>
-5.12456989

$$$$

 OpenBabel03242520203D

 37 39  0  0  0  0  0  0  0  0999 V2000
   36.6760   30.3040   41.4570 C   0  0  0  0  0  0  0  0  0  0  0  0
   35.6360   30.0850   41.1280 H   0  0  0  0  0  0  0  0  0  0  0  0
   36.6710   31.0790   42.2580 H   0  0  0  0  0  0  0  0  0  0  0  0
   37.4640   26.7390   42.4330 C   0  0  0  0  0  0  0  0  0  0  0  0
   36.7840   27.8560   41.8940 C   0  0  0  0  0  0  0  0  0  0  0  0
   37.3590   29.1130   42.0190 C   0  0  0  0  0  0  0  0  0  0  0  0
   38.5650   29.1880   42.6660 N   0  0  0  0  0  0  0  0  0  0  0  0
   39.1770   28.0830   43.1670 C   0  0  0  0  0  0  0  0  0  0  0  0
   38.6340   26.8750   43.0530 N   0  0  0  0  0  0  0  0  0  0  0  0
   35.8450   27.6850   41.4080 H   0  0  0  0  0  0  0  0  0  0  0  0
   40.1250   28.3020   43.6520 H   0  0  0  0  0  0  0  0  0  0  0  0
   36.8350   25.4010   42.3000 C   0  0  0  0  0  0  0  0  0  0  0  0
   37.0070   24.8080   40.8650 C   0  0  0  0  0  0  0  0  0  0  0  0
   37.5430   24.1920   42.0830 C   0  0  0  0  0  0  0  0  0  0  0  0
   35.7970   25.3970   42.6830 H   0  0  0  0  0  0  0  0  0  0  0  0
   37.6930   25.3380   40.1800 H   0  0  0  0  0  0  0  0  0  0  0  0
   36.0480   24.4850   40.4150 H   0  0  0  0  0  0  0  0  0  0  0  0
   38.6550   24.1540   42.1690 H   0  0  0  0  0  0  0  0  0  0  0  0
   37.0630   23.2280   42.3850 H   0  0  0  0  0  0  0  0  0  0  0  0
   37.4510   30.8670   40.2950 C   0  0  0  0  0  0  0  0  0  0  0  0
   37.7350   31.9010   40.5490 H   0  0  0  0  0  0  0  0  0  0  0  0
   38.4030   30.3160   40.1170 H   0  0  0  0  0  0  0  0  0  0  0  0
   36.8890   29.6250   38.2610 C   0  0  0  0  0  0  0  0  0  0  0  0
   37.6390   28.6470   38.5100 O   0  0  0  0  0  0  0  0  0  0  0  0
   36.7100   30.7870   39.0470 N   0  0  0  0  0  0  0  0  0  0  0  0
   36.0860   31.5700   38.7800 H   0  0  0  0  0  0  0  0  0  0  0  0
   34.1160   28.8660   38.8740 Cl  0  0  0  0  0  0  0  0  0  0  0  0
   34.8010   29.1610   37.2770 C   0  0  0  0  0  0  0  0  0  0  0  0
   36.1230   29.5210   37.0010 C   0  0  0  0  0  0  0  0  0  0  0  0
   36.5350   29.7220   35.7260 C   0  0  0  0  0  0  0  0  0  0  0  0
   37.5600   29.9910   35.6470 H   0  0  0  0  0  0  0  0  0  0  0  0
   35.6300   29.5660   34.6930 C   0  0  0  0  0  0  0  0  0  0  0  0
   36.0030   29.7370   33.6810 H   0  0  0  0  0  0  0  0  0  0  0  0
   34.3090   29.2110   34.9070 C   0  0  0  0  0  0  0  0  0  0  0  0
   33.6380   29.1020   34.0580 H   0  0  0  0  0  0  0  0  0  0  0  0
   33.8970   29.0070   36.2270 C   0  0  0  0  0  0  0  0  0  0  0  0
   32.2130   28.5560   36.4790 Cl  0  0  0  0  0  0  0  0  0  0  0  0
  1  6  1  0  0  0  0
  1  3  1  0  0  0  0
  2  1  1  0  0  0  0
  4  9  1  0  0  0  0
  5  6  1  0  0  0  0
  5  4  2  0  0  0  0
  6  7  2  0  0  0  0
  7  8  1  0  0  0  0
  8 11  1  0  0  0  0
  9  8  2  0  0  0  0
 10  5  1  0  0  0  0
 12  4  1  0  0  0  0
 12 15  1  0  0  0  0
 13 14  1  0  0  0  0
 13 12  1  0  0  0  0
 14 18  1  0  0  0  0
 14 12  1  0  0  0  0
 14 19  1  0  0  0  0
 16 13  1  0  0  0  0
 17 13  1  0  0  0  0
 20 21  1  0  0  0  0
 20  1  1  0  0  0  0
 22 20  1  0  0  0  0
 23 24  2  0  0  0  0
 23 25  1  0  0  0  0
 25 20  1  0  0  0  0
 26 25  1  0  0  0  0
 28 27  1  0  0  0  0
 29 28  1  0  0  0  0
 29 23  1  0  0  0  0
 30 29  2  0  0  0  0
 31 30  1  0  0  0  0
 32 34  2  0  0  0  0
 32 30  1  0  0  0  0
 33 32  1  0  0  0  0
 34 36  1  0  0  0  0
 35 34  1  0  0  0  0
 36 37  1  0  0  0  0
 36 28  2  0  0  0  0
M  END
>  <minimizedAffinity>
-5.08622599

$$$$

 OpenBabel03242520203D

 37 39  0  0  0  0  0  0  0  0999 V2000
   37.1540   28.1720   43.3020 C   0  0  0  0  0  0  0  0  0  0  0  0
   36.1280   28.3070   42.8960 H   0  0  0  0  0  0  0  0  0  0  0  0
   37.1350   28.1950   44.4160 H   0  0  0  0  0  0  0  0  0  0  0  0
   39.6180   25.3410   42.8590 C   0  0  0  0  0  0  0  0  0  0  0  0
   39.0750   26.5900   43.2400 C   0  0  0  0  0  0  0  0  0  0  0  0
   37.7570   26.8750   42.9110 C   0  0  0  0  0  0  0  0  0  0  0  0
   37.0600   25.9100   42.2300 N   0  0  0  0  0  0  0  0  0  0  0  0
   37.6290   24.7250   41.8870 C   0  0  0  0  0  0  0  0  0  0  0  0
   38.8910   24.4430   42.1970 N   0  0  0  0  0  0  0  0  0  0  0  0
   39.7090   27.2710   43.7700 H   0  0  0  0  0  0  0  0  0  0  0  0
   36.9520   24.0650   41.3500 H   0  0  0  0  0  0  0  0  0  0  0  0
   41.0310   25.0510   43.2100 C   0  0  0  0  0  0  0  0  0  0  0  0
   42.0120   25.4040   42.0460 C   0  0  0  0  0  0  0  0  0  0  0  0
   42.0420   26.0320   43.3720 C   0  0  0  0  0  0  0  0  0  0  0  0
   41.1490   24.0320   43.6250 H   0  0  0  0  0  0  0  0  0  0  0  0
   41.5970   25.9660   41.1900 H   0  0  0  0  0  0  0  0  0  0  0  0
   42.6810   24.5630   41.7780 H   0  0  0  0  0  0  0  0  0  0  0  0
   41.7880   27.1180   43.4080 H   0  0  0  0  0  0  0  0  0  0  0  0
   42.9340   25.7850   44.0000 H   0  0  0  0  0  0  0  0  0  0  0  0
   38.0170   29.3210   42.8480 C   0  0  0  0  0  0  0  0  0  0  0  0
   37.6400   30.2360   43.3340 H   0  0  0  0  0  0  0  0  0  0  0  0
   39.0760   29.2070   43.1730 H   0  0  0  0  0  0  0  0  0  0  0  0
   37.0800   30.2560   40.7880 C   0  0  0  0  0  0  0  0  0  0  0  0
   36.1520   30.8860   41.3560 O   0  0  0  0  0  0  0  0  0  0  0  0
   38.0590   29.4390   41.4000 N   0  0  0  0  0  0  0  0  0  0  0  0
   38.7930   28.9310   40.8740 H   0  0  0  0  0  0  0  0  0  0  0  0
   35.6890   27.9850   39.5430 Cl  0  0  0  0  0  0  0  0  0  0  0  0
   36.4680   29.3290   38.7120 C   0  0  0  0  0  0  0  0  0  0  0  0
   37.1270   30.4030   39.3180 C   0  0  0  0  0  0  0  0  0  0  0  0
   37.6910   31.3820   38.5700 C   0  0  0  0  0  0  0  0  0  0  0  0
   38.1600   32.1410   39.1470 H   0  0  0  0  0  0  0  0  0  0  0  0
   37.6090   31.3090   37.1920 C   0  0  0  0  0  0  0  0  0  0  0  0
   38.0760   32.1180   36.6270 H   0  0  0  0  0  0  0  0  0  0  0  0
   36.9690   30.2690   36.5380 C   0  0  0  0  0  0  0  0  0  0  0  0
   36.9330   30.2610   35.4510 H   0  0  0  0  0  0  0  0  0  0  0  0
   36.3910   29.2660   37.3210 C   0  0  0  0  0  0  0  0  0  0  0  0
   35.5830   27.9540   36.4710 Cl  0  0  0  0  0  0  0  0  0  0  0  0
  1  3  1  0  0  0  0
  2  1  1  0  0  0  0
  4 12  1  0  0  0  0
  4  5  1  0  0  0  0
  5 10  1  0  0  0  0
  6  5  2  0  0  0  0
  6  1  1  0  0  0  0
  7  6  1  0  0  0  0
  8  9  1  0  0  0  0
  8  7  2  0  0  0  0
  9  4  2  0  0  0  0
 11  8  1  0  0  0  0
 12 14  1  0  0  0  0
 12 15  1  0  0  0  0
 13 12  1  0  0  0  0
 13 14  1  0  0  0  0
 14 18  1  0  0  0  0
 14 19  1  0  0  0  0
 16 13  1  0  0  0  0
 17 13  1  0  0  0  0
 20 22  1  0  0  0  0
 20  1  1  0  0  0  0
 20 21  1  0  0  0  0
 23 24  2  0  0  0  0
 23 25  1  0  0  0  0
 25 20  1  0  0  0  0
 26 25  1  0  0  0  0
 28 29  1  0  0  0  0
 28 27  1  0  0  0  0
 29 23  1  0  0  0  0
 30 31  1  0  0  0  0
 30 29  2  0  0  0  0
 32 30  1  0  0  0  0
 33 32  1  0  0  0  0
 34 32  2  0  0  0  0
 34 36  1  0  0  0  0
 35 34  1  0  0  0  0
 36 28  2  0  0  0  0
 37 36  1  0  0  0  0
M  END
>  <minimizedAffinity>
-5.0762434

$$$$
