
 OpenBabel03252507463D

 39 41  0  0  0  0  0  0  0  0999 V2000
   48.4430   33.9450   41.3120 C   0  0  0  0  0  0  0  0  0  0  0  0
   48.9120   32.7020   40.8870 C   0  0  0  0  0  0  0  0  0  0  0  0
   50.1670   32.2520   41.2860 C   0  0  0  0  0  0  0  0  0  0  0  0
   50.9040   33.0640   42.0930 N   0  0  0  0  0  0  0  0  0  0  0  0
   50.4150   34.2660   42.4860 C   0  0  0  0  0  0  0  0  0  0  0  0
   49.2150   34.6720   42.0920 N   0  0  0  0  0  0  0  0  0  0  0  0
   50.5180   31.2880   40.9500 H   0  0  0  0  0  0  0  0  0  0  0  0
   51.0640   34.8590   43.1330 H   0  0  0  0  0  0  0  0  0  0  0  0
   47.1100   34.3450   40.8470 C   0  0  0  0  0  0  0  0  0  0  0  0
   46.5610   33.5410   40.3700 H   0  0  0  0  0  0  0  0  0  0  0  0
   47.2890   35.1080   40.0350 H   0  0  0  0  0  0  0  0  0  0  0  0
   46.3050   35.0510   41.8900 C   0  0  0  0  0  0  0  0  0  0  0  0
   46.5670   34.6520   42.8920 H   0  0  0  0  0  0  0  0  0  0  0  0
   46.5280   36.1440   41.9500 H   0  0  0  0  0  0  0  0  0  0  0  0
   44.8340   34.9640   41.6760 C   0  0  0  0  0  0  0  0  0  0  0  0
   43.9490   35.3980   42.7120 C   0  0  0  0  0  0  0  0  0  0  0  0
   42.2860   35.0940   41.9820 S   0  0  0  0  0  0  0  0  0  0  0  0
   43.0800   34.4270   40.3880 C   0  0  0  0  0  0  0  0  0  0  0  0
   44.1890   34.5260   40.6290 N   0  0  0  0  0  0  0  0  0  0  0  0
   44.2190   35.8020   43.6790 H   0  0  0  0  0  0  0  0  0  0  0  0
   42.3290   33.9760   39.3080 O   0  0  0  0  0  0  0  0  0  0  0  0
   40.3820   34.4460   37.5820 O   0  0  0  0  0  0  0  0  0  0  0  0
   41.4760   35.1270   38.3940 P   0  0  0  0  0  0  0  0  0  0  0  0
   40.7650   36.2220   39.4830 O   0  0  0  0  0  0  0  0  0  0  0  0
   40.2030   35.7530   40.1200 H   0  0  0  0  0  0  0  0  0  0  0  0
   42.5500   35.9790   37.4080 O   0  0  0  0  0  0  0  0  0  0  0  0
   42.7710   35.4240   36.6200 H   0  0  0  0  0  0  0  0  0  0  0  0
   47.9000   31.6630   39.8180 S   0  0  0  0  0  0  0  0  0  0  0  0
   48.3430   29.4030   42.0510 Cl  0  0  0  0  0  0  0  0  0  0  0  0
   46.7120   29.9180   41.6760 C   0  0  0  0  0  0  0  0  0  0  0  0
   46.5600   30.8910   40.7100 C   0  0  0  0  0  0  0  0  0  0  0  0
   45.2950   31.3310   40.3800 C   0  0  0  0  0  0  0  0  0  0  0  0
   45.0670   32.0780   39.6490 H   0  0  0  0  0  0  0  0  0  0  0  0
   44.1690   30.8270   40.9840 C   0  0  0  0  0  0  0  0  0  0  0  0
   43.1490   31.1410   40.7580 H   0  0  0  0  0  0  0  0  0  0  0  0
   44.3060   29.8400   41.9640 C   0  0  0  0  0  0  0  0  0  0  0  0
   43.4420   29.3980   42.4840 H   0  0  0  0  0  0  0  0  0  0  0  0
   45.5790   29.4180   42.2760 C   0  0  0  0  0  0  0  0  0  0  0  0
   45.7820   28.1870   43.4960 Cl  0  0  0  0  0  0  0  0  0  0  0  0
  1  6  1  0  0  0  0
  2  3  1  0  0  0  0
  2  1  2  0  0  0  0
  3  4  2  0  0  0  0
  4  5  1  0  0  0  0
  5  8  1  0  0  0  0
  6  5  2  0  0  0  0
  7  3  1  0  0  0  0
  9  1  1  0  0  0  0
  9 12  1  0  0  0  0
 10  9  1  0  0  0  0
 11  9  1  0  0  0  0
 12 14  1  0  0  0  0
 12 13  1  0  0  0  0
 15 12  1  0  0  0  0
 15 16  2  0  0  0  0
 16 20  1  0  0  0  0
 17 16  1  0  0  0  0
 18 19  2  0  0  0  0
 18 17  1  0  0  0  0
 19 15  1  0  0  0  0
 21 18  1  0  0  0  0
 22 23  2  0  0  0  0
 23 21  1  0  0  0  0
 23 24  1  0  0  0  0
 24 25  1  0  0  0  0
 26 23  1  0  0  0  0
 27 26  1  0  0  0  0
 28 31  1  0  0  0  0
 28  2  1  0  0  0  0
 30 29  1  0  0  0  0
 30 38  1  0  0  0  0
 31 30  2  0  0  0  0
 32 31  1  0  0  0  0
 32 34  2  0  0  0  0
 33 32  1  0  0  0  0
 34 36  1  0  0  0  0
 35 34  1  0  0  0  0
 36 38  2  0  0  0  0
 36 37  1  0  0  0  0
 38 39  1  0  0  0  0
M  END
>  <minimizedAffinity>
-4.35237694

>  <minimizedRMSD>
0.523757041

$$$$
