
     RDKit          3D

 45 47  0  0  0  0  0  0  0  0999 V2000
   44.7981   33.2403   41.7580 C   0  0  1  0  0  0  0  0  0  0  0  0
   44.3448   34.2348   40.6317 C   0  0  0  0  0  0  0  0  0  0  0  0
   44.2054   33.5177   39.3582 C   0  0  0  0  0  0  0  0  0  0  0  0
   45.6442   33.1049   38.9571 C   0  0  0  0  0  0  0  0  0  0  0  0
   46.1316   32.2842   40.0121 C   0  0  0  0  0  0  0  0  0  0  0  0
   46.0919   32.7849   41.5217 C   0  0  1  0  0  0  0  0  0  0  0  0
   44.4755   35.9506   44.4721 C   0  0  0  0  0  0  0  0  0  0  0  0
   44.4011   35.3702   43.2432 C   0  0  0  0  0  0  0  0  0  0  0  0
   44.7856   34.0326   43.0284 C   0  0  0  0  0  0  0  0  0  0  0  0
   45.2190   33.3881   44.0929 N   0  0  0  0  0  0  0  0  0  0  0  0
   45.2972   33.9398   45.2950 C   0  0  0  0  0  0  0  0  0  0  0  0
   44.9205   35.2430   45.4945 N   0  0  0  0  0  0  0  0  0  0  0  0
   47.0565   33.8383   41.5382 O   0  0  0  0  0  0  0  0  0  0  0  0
   48.2820   33.1162   41.9452 C   0  0  2  0  0  0  0  0  0  0  0  0
   49.1042   34.1455   41.4690 O   0  0  0  0  0  0  0  0  0  0  0  0
   49.4576   35.3043   41.9503 C   0  0  0  0  0  0  0  0  0  0  0  0
   49.2319   36.3676   41.4557 O   0  0  0  0  0  0  0  0  0  0  0  0
   50.1447   35.2159   43.1395 N   0  0  0  0  0  0  0  0  0  0  0  0
   44.0384   32.4312   41.8007 H   0  0  0  0  0  0  0  0  0  0  0  0
   45.0877   35.0410   40.5633 H   0  0  0  0  0  0  0  0  0  0  0  0
   43.3193   34.5936   40.9351 H   0  0  0  0  0  0  0  0  0  0  0  0
   43.8537   34.2006   38.5893 H   0  0  0  0  0  0  0  0  0  0  0  0
   43.6566   32.5613   39.4401 H   0  0  0  0  0  0  0  0  0  0  0  0
   45.4633   32.4424   38.0854 H   0  0  0  0  0  0  0  0  0  0  0  0
   46.1961   33.9773   38.6167 H   0  0  0  0  0  0  0  0  0  0  0  0
   45.1905   31.5987   40.1825 H   0  0  0  0  0  0  0  0  0  0  0  0
   46.7636   31.4250   39.8531 H   0  0  0  0  0  0  0  0  0  0  0  0
   46.4445   31.8847   42.0058 H   0  0  0  0  0  0  0  0  0  0  0  0
   44.1369   36.9899   44.4524 H   0  0  0  0  0  0  0  0  0  0  0  0
   44.0535   35.8543   42.3307 H   0  0  0  0  0  0  0  0  0  0  0  0
   45.6494   33.4243   46.1710 H   0  0  0  0  0  0  0  0  0  0  0  0
   47.6997   32.4868   42.4117 H   0  0  0  0  0  0  0  0  0  0  0  0
   50.9055   35.3424   43.8515 H   0  0  0  0  0  0  0  0  0  0  0  0
   51.0773   35.6991   43.1269 H   0  0  0  0  0  0  0  0  0  0  0  0
   47.2812   30.1998   41.2813 Cl  0  0  0  0  0  0  0  0  0  0  0  0
   48.6386   30.9252   40.4477 C   0  0  0  0  0  0  0  0  0  0  0  0
   48.9004   32.2264   40.8572 C   0  0  0  0  0  0  0  0  0  0  0  0
   49.9677   32.8091   40.1279 C   0  0  0  0  0  0  0  0  0  0  0  0
   50.2485   33.8454   40.3821 H   0  0  0  0  0  0  0  0  0  0  0  0
   50.7066   32.2430   39.1332 C   0  0  0  0  0  0  0  0  0  0  0  0
   51.5024   32.7812   38.6419 H   0  0  0  0  0  0  0  0  0  0  0  0
   50.3687   30.9514   38.8049 C   0  0  0  0  0  0  0  0  0  0  0  0
   50.8886   30.4081   38.0331 H   0  0  0  0  0  0  0  0  0  0  0  0
   49.3492   30.2989   39.4515 C   0  0  0  0  0  0  0  0  0  0  0  0
   48.8228   28.6612   39.1290 Cl  0  0  0  0  0  0  0  0  0  0  0  0
  1  9  1  0
  2  1  1  0
  3  2  1  0
  4  3  1  0
  4  5  1  0
  5  6  1  0
  6 13  1  0
  6  1  1  0
  7 12  2  0
  8  7  1  0
  9  8  2  0
  9 10  1  0
 10 11  2  0
 11 12  1  0
 13 14  1  0
 15 16  1  0
 15 14  1  0
 16 18  1  0
 17 16  2  0
  1 19  1  1
  2 20  1  0
  2 21  1  0
  3 22  1  0
  3 23  1  0
  4 24  1  0
  4 25  1  0
  5 26  1  0
  5 27  1  0
  6 28  1  1
  7 29  1  0
  8 30  1  0
 11 31  1  0
 14 32  1  1
 18 33  1  0
 18 34  1  0
 35 36  1  0
 36 37  2  0
 37 38  1  0
 38 39  1  0
 38 40  2  0
 40 41  1  0
 40 42  1  0
 42 43  1  0
 42 44  2  0
 44 45  1  0
 44 36  1  0
 14 37  1  0
M  ISO  8  19  13  20  13  21  13  22  13  23  13  24  13  25  13  26  13
M  ISO  8  27  13  28  13  29  14  30  14  31  14  32   8  39  15  41  15
M  ISO  1  43  15
M  END
>  <DihAtoms>  (1) 
12,13,36,35

>  <DihDeg>  (1) 
50.566386837700136

$$$$
