
 OpenBabel03242521173D

 40 42  0  0  0  0  0  0  0  0999 V2000
   46.6630   32.7000   46.5220 C   0  0  0  0  0  0  0  0  0  0  0  0
   47.0920   33.2880   47.3770 H   0  0  0  0  0  0  0  0  0  0  0  0
   47.5190   32.1840   46.0580 H   0  0  0  0  0  0  0  0  0  0  0  0
   44.6190   35.4200   44.9610 C   0  0  0  0  0  0  0  0  0  0  0  0
   45.1830   35.4520   43.6680 C   0  0  0  0  0  0  0  0  0  0  0  0
   46.2060   34.5590   43.4160 C   0  0  0  0  0  0  0  0  0  0  0  0
   46.6270   33.6930   44.4120 N   0  0  0  0  0  0  0  0  0  0  0  0
   46.0410   33.7180   45.6300 C   0  0  0  0  0  0  0  0  0  0  0  0
   45.0360   34.5730   45.9220 N   0  0  0  0  0  0  0  0  0  0  0  0
   43.8150   36.1030   45.2000 H   0  0  0  0  0  0  0  0  0  0  0  0
   44.8360   36.1290   42.9260 H   0  0  0  0  0  0  0  0  0  0  0  0
   46.7960   34.5650   42.1200 N   0  0  0  0  0  0  0  0  0  0  0  0
   47.9770   35.2060   41.9580 C   0  0  0  0  0  0  0  0  0  0  0  0
   48.5610   35.2180   40.6980 C   0  0  0  0  0  0  0  0  0  0  0  0
   47.9240   34.5860   39.6750 C   0  0  0  0  0  0  0  0  0  0  0  0
   48.4820   34.6130   38.5310 O   0  0  0  0  0  0  0  0  0  0  0  0
   46.7560   33.9510   39.8310 N   0  0  0  0  0  0  0  0  0  0  0  0
   46.2250   33.9650   41.0740 C   0  0  0  0  0  0  0  0  0  0  0  0
   45.1350   33.3990   41.3160 O   0  0  0  0  0  0  0  0  0  0  0  0
   48.4910   35.7110   42.7680 H   0  0  0  0  0  0  0  0  0  0  0  0
   49.4990   35.7170   40.5340 H   0  0  0  0  0  0  0  0  0  0  0  0
   46.2550   33.4640   39.0630 H   0  0  0  0  0  0  0  0  0  0  0  0
   45.6140   31.7580   47.0740 C   0  0  0  0  0  0  0  0  0  0  0  0
   45.0430   32.2350   47.8690 H   0  0  0  0  0  0  0  0  0  0  0  0
   44.9440   31.4350   46.2260 H   0  0  0  0  0  0  0  0  0  0  0  0
   46.2730   29.4410   46.6980 C   0  0  0  0  0  0  0  0  0  0  0  0
   45.6090   29.4910   45.6430 O   0  0  0  0  0  0  0  0  0  0  0  0
   46.2710   30.5590   47.5350 N   0  0  0  0  0  0  0  0  0  0  0  0
   46.7360   30.5050   48.4660 H   0  0  0  0  0  0  0  0  0  0  0  0
   44.6310   27.4340   48.1300 Cl  0  0  0  0  0  0  0  0  0  0  0  0
   46.3110   27.2130   47.6550 C   0  0  0  0  0  0  0  0  0  0  0  0
   47.0100   28.2130   46.9820 C   0  0  0  0  0  0  0  0  0  0  0  0
   48.3250   27.9980   46.6290 C   0  0  0  0  0  0  0  0  0  0  0  0
   48.8550   28.7820   46.1080 H   0  0  0  0  0  0  0  0  0  0  0  0
   48.8970   26.7920   46.9600 C   0  0  0  0  0  0  0  0  0  0  0  0
   49.9420   26.6630   46.6600 H   0  0  0  0  0  0  0  0  0  0  0  0
   48.2610   25.7630   47.6230 C   0  0  0  0  0  0  0  0  0  0  0  0
   48.7490   24.8270   47.8640 H   0  0  0  0  0  0  0  0  0  0  0  0
   46.9290   26.0160   47.9650 C   0  0  0  0  0  0  0  0  0  0  0  0
   46.0200   24.7710   48.8170 Cl  0  0  0  0  0  0  0  0  0  0  0  0
  1 23  1  0  0  0  0
  1  2  1  0  0  0  0
  3  1  1  0  0  0  0
  4 10  1  0  0  0  0
  4  9  1  0  0  0  0
  5  4  2  0  0  0  0
  6  5  1  0  0  0  0
  6  7  2  0  0  0  0
  7  8  1  0  0  0  0
  8  9  2  0  0  0  0
  8  1  1  0  0  0  0
 11  5  1  0  0  0  0
 12  6  1  0  0  0  0
 13 12  1  0  0  0  0
 13 20  1  0  0  0  0
 14 13  2  0  0  0  0
 15 17  1  0  0  0  0
 15 14  1  0  0  0  0
 16 15  2  0  0  0  0
 17 18  1  0  0  0  0
 18 19  2  0  0  0  0
 18 12  1  0  0  0  0
 21 14  1  0  0  0  0
 22 17  1  0  0  0  0
 23 28  1  0  0  0  0
 23 24  1  0  0  0  0
 25 23  1  0  0  0  0
 26 32  1  0  0  0  0
 26 28  1  0  0  0  0
 27 26  2  0  0  0  0
 28 29  1  0  0  0  0
 31 39  1  0  0  0  0
 31 30  1  0  0  0  0
 32 31  2  0  0  0  0
 33 35  2  0  0  0  0
 33 32  1  0  0  0  0
 34 33  1  0  0  0  0
 35 37  1  0  0  0  0
 36 35  1  0  0  0  0
 37 38  1  0  0  0  0
 37 39  2  0  0  0  0
 39 40  1  0  0  0  0
M  END
>  <minimizedAffinity>
-5.68458891

>  <minimizedRMSD>
2.58220959

$$$$
