REMARK  Name = 
REMARK  1 active torsions:
REMARK  status: ('A' for Active; 'I' for Inactive)
REMARK    1  A    between atoms: C_7  and  C_16
REMARK                            x       y       z     vdW  Elec       q    Type
REMARK                         _______ _______ _______ _____ _____    ______ ____
ROOT
ATOM      1  C   UNL     1      44.677  36.079  44.289  0.00  0.00    +0.000 A 
ATOM      2  C   UNL     1      45.482  35.588  43.236  0.00  0.00    +0.000 A 
ATOM      3  C   UNL     1      46.170  34.385  43.466  0.00  0.00    +0.000 A 
ATOM      4  N   UNL     1      46.032  33.757  44.673  0.00  0.00    +0.000 NA
ATOM      5  C   UNL     1      45.256  34.261  45.645  0.00  0.00    +0.000 A 
ATOM      6  N   UNL     1      44.572  35.429  45.457  0.00  0.00    +0.000 NA
ATOM      7  C   UNL     1      46.168  32.582  47.127  0.00  0.00    +0.000 C 
ATOM      8  O   UNL     1      47.113  32.301  46.368  0.00  0.00    +0.000 OA
ATOM      9  N   UNL     1      45.156  33.560  46.875  0.00  0.00    +0.000 N 
ATOM     10  H   UNL     1      44.151  37.001  44.110  0.00  0.00    +0.000 HD
ATOM     11  H   UNL     1      45.576  36.101  42.292  0.00  0.00    +0.000 HD
ATOM     12  H   UNL     1      46.784  34.015  42.656  0.00  0.00    +0.000 HD
ATOM     13  H   UNL     1      44.384  33.758  47.545  0.00  0.00    +0.000 HD
ENDROOT
BRANCH   7  16
ATOM     14 CL   UNL     1      48.691  32.169  48.778  0.00  0.00    +0.000 Cl
ATOM     15  C   UNL     1      47.112  31.598  49.254  0.00  0.00    +0.000 A 
ATOM     16  C   UNL     1      46.059  31.856  48.410  0.00  0.00    +0.000 A 
ATOM     17  C   UNL     1      44.790  31.422  48.749  0.00  0.00    +0.000 A 
ATOM     18  H   UNL     1      43.924  31.608  48.103  0.00  0.00    +0.000 HD
ATOM     19  C   UNL     1      44.520  30.730  49.911  0.00  0.00    +0.000 A 
ATOM     20  H   UNL     1      43.525  30.401  50.157  0.00  0.00    +0.000 HD
ATOM     21  C   UNL     1      45.591  30.478  50.752  0.00  0.00    +0.000 A 
ATOM     22  H   UNL     1      45.388  29.934  51.669  0.00  0.00    +0.000 HD
ATOM     23  C   UNL     1      46.879  30.909  50.425  0.00  0.00    +0.000 A 
ATOM     24 CL   UNL     1      48.223  30.581  51.501  0.00  0.00    +0.000 Cl
ENDBRANCH   7  16
TORSDOF 1
