
 OpenBabel03242510333D

 45 47  0  0  1  0  0  0  0  0999 V2000
   44.5530   33.3250   41.5270 C   0  0  1  0  0  0  0  0  0  0  0  0
   43.9680   34.2600   40.4110 C   0  0  0  0  0  0  0  0  0  0  0  0
   43.6800   33.4770   39.2020 C   0  0  0  0  0  0  0  0  0  0  0  0
   45.0630   33.0380   38.6570 C   0  0  0  0  0  0  0  0  0  0  0  0
   45.6750   32.2730   39.6890 C   0  0  0  0  0  0  0  0  0  0  0  0
   45.8120   32.8530   41.1640 C   0  0  1  0  0  0  0  0  0  0  0  0
   43.8060   32.5220   41.7020 H   0  0  0  0  0  0  0  0  0  0  0  0
   44.6950   35.0590   40.2120 H   0  0  0  0  0  0  0  0  0  0  0  0
   42.9840   34.6380   40.8140 H   0  0  0  0  0  0  0  0  0  0  0  0
   43.2390   34.1190   38.4450 H   0  0  0  0  0  0  0  0  0  0  0  0
   43.1490   32.5270   39.3990 H   0  0  0  0  0  0  0  0  0  0  0  0
   44.7820   32.3310   37.8490 H   0  0  0  0  0  0  0  0  0  0  0  0
   45.5680   33.8890   38.2080 H   0  0  0  0  0  0  0  0  0  0  0  0
   44.7620   31.6010   40.0050 H   0  0  0  0  0  0  0  0  0  0  0  0
   46.2860   31.4050   39.5020 H   0  0  0  0  0  0  0  0  0  0  0  0
   46.2210   31.9790   41.6500 H   0  0  0  0  0  0  0  0  0  0  0  0
   44.6940   36.2080   44.0740 C   0  0  0  0  0  0  0  0  0  0  0  0
   44.5040   35.5730   42.8850 C   0  0  0  0  0  0  0  0  0  0  0  0
   44.6890   34.1840   42.7450 C   0  0  0  0  0  0  0  0  0  0  0  0
   45.0560   33.5470   43.8400 N   0  0  0  0  0  0  0  0  0  0  0  0
   45.2450   34.1510   45.0040 C   0  0  0  0  0  0  0  0  0  0  0  0
   45.0620   35.5040   45.1300 N   0  0  0  0  0  0  0  0  0  0  0  0
   44.5060   37.2810   43.9960 H   0  0  0  0  0  0  0  0  0  0  0  0
   44.2030   36.0470   41.9520 H   0  0  0  0  0  0  0  0  0  0  0  0
   45.5440   33.6420   45.9030 H   0  0  0  0  0  0  0  0  0  0  0  0
   46.7680   33.9030   41.0100 O   0  0  0  0  0  0  0  0  0  0  0  0
   47.9410   33.3460   41.7200 C   0  0  1  0  0  0  0  0  0  0  0  0
   47.3300   32.7050   42.1300 H   0  0  0  0  0  0  0  0  0  0  0  0
   49.5480   30.8940   42.8820 Cl  0  0  0  0  0  0  0  0  0  0  0  0
   49.6430   31.3470   41.1940 C   0  0  0  0  0  0  0  0  0  0  0  0
   48.8350   32.4290   40.8710 C   0  0  0  0  0  0  0  0  0  0  0  0
   48.8880   32.7400   39.4900 C   0  0  0  0  0  0  0  0  0  0  0  0
   48.2750   33.5880   39.1370 H   0  0  0  0  0  0  0  0  0  0  0  0
   49.6130   32.1150   38.5200 C   0  0  0  0  0  0  0  0  0  0  0  0
   49.5790   32.4360   37.4900 H   0  0  0  0  0  0  0  0  0  0  0  0
   50.3820   31.0570   38.9440 C   0  0  0  0  0  0  0  0  0  0  0  0
   50.9950   30.4920   38.2610 H   0  0  0  0  0  0  0  0  0  0  0  0
   50.3990   30.6760   40.2620 C   0  0  0  0  0  0  0  0  0  0  0  0
   51.3310   29.3520   40.9270 Cl  0  0  0  0  0  0  0  0  0  0  0  0
   48.7560   34.4060   41.3040 O   0  0  0  0  0  0  0  0  0  0  0  0
   49.3380   35.3880   41.9330 C   0  0  0  0  0  0  0  0  0  0  0  0
   49.2920   36.5420   41.6280 O   0  0  0  0  0  0  0  0  0  0  0  0
   50.0470   34.9850   43.0410 N   0  0  0  0  0  0  0  0  0  0  0  0
   50.8470   34.8550   43.7090 H   0  0  0  0  0  0  0  0  0  0  0  0
   51.0510   35.2920   43.0380 H   0  0  0  0  0  0  0  0  0  0  0  0
  1  7  1  1  0  0  0
  1 19  1  0  0  0  0
  2  9  1  0  0  0  0
  2  1  1  0  0  0  0
  3 11  1  0  0  0  0
  3  2  1  0  0  0  0
  4  3  1  0  0  0  0
  4  5  1  0  0  0  0
  5 14  1  0  0  0  0
  5  6  1  0  0  0  0
  6  1  1  0  0  0  0
  6 16  1  1  0  0  0
  8  2  1  0  0  0  0
 10  3  1  0  0  0  0
 12  4  1  0  0  0  0
 13  4  1  0  0  0  0
 15  5  1  0  0  0  0
 17 22  1  0  0  0  0
 18 17  2  0  0  0  0
 19 18  1  0  0  0  0
 19 20  2  0  0  0  0
 20 21  1  0  0  0  0
 21 22  2  0  0  0  0
 21 25  1  0  0  0  0
 23 17  1  0  0  0  0
 24 18  1  0  0  0  0
 26  6  1  0  0  0  0
 26 27  1  0  0  0  0
 27 28  1  1  0  0  0
 30 29  1  0  0  0  0
 31 30  1  0  0  0  0
 31 27  1  0  0  0  0
 32 31  2  0  0  0  0
 33 32  1  0  0  0  0
 34 36  2  0  0  0  0
 34 32  1  0  0  0  0
 35 34  1  0  0  0  0
 36 38  1  0  0  0  0
 37 36  1  0  0  0  0
 38 39  1  0  0  0  0
 38 30  2  0  0  0  0
 40 27  1  0  0  0  0
 40 41  1  0  0  0  0
 41 43  1  0  0  0  0
 42 41  2  0  0  0  0
 43 44  1  0  0  0  0
 45 43  1  0  0  0  0
M  END
>  <minimizedAffinity>
-5.25221539

>  <minimizedRMSD>
0.582359135

$$$$
