
 OpenBabel03252507463D

 39 41  0  0  0  0  0  0  0  0999 V2000
   48.5540   33.8740   41.3170 C   0  0  0  0  0  0  0  0  0  0  0  0
   48.7220   32.5380   40.9490 C   0  0  0  0  0  0  0  0  0  0  0  0
   49.8670   31.8450   41.3310 C   0  0  0  0  0  0  0  0  0  0  0  0
   50.7980   32.5150   42.0640 N   0  0  0  0  0  0  0  0  0  0  0  0
   50.6000   33.8130   42.4020 C   0  0  0  0  0  0  0  0  0  0  0  0
   49.5000   34.4510   42.0260 N   0  0  0  0  0  0  0  0  0  0  0  0
   49.9850   30.8120   41.0400 H   0  0  0  0  0  0  0  0  0  0  0  0
   51.3920   34.2810   42.9910 H   0  0  0  0  0  0  0  0  0  0  0  0
   47.3190   34.5320   40.8750 C   0  0  0  0  0  0  0  0  0  0  0  0
   46.7350   33.9340   40.1840 H   0  0  0  0  0  0  0  0  0  0  0  0
   47.6520   35.4330   40.2820 H   0  0  0  0  0  0  0  0  0  0  0  0
   46.5000   35.0740   42.0020 C   0  0  0  0  0  0  0  0  0  0  0  0
   46.7640   34.5420   42.9400 H   0  0  0  0  0  0  0  0  0  0  0  0
   46.7060   36.1510   42.2150 H   0  0  0  0  0  0  0  0  0  0  0  0
   45.0310   34.9960   41.7700 C   0  0  0  0  0  0  0  0  0  0  0  0
   44.1370   35.5000   42.7650 C   0  0  0  0  0  0  0  0  0  0  0  0
   42.4810   35.1800   42.0270 S   0  0  0  0  0  0  0  0  0  0  0  0
   43.2880   34.4140   40.4850 C   0  0  0  0  0  0  0  0  0  0  0  0
   44.3950   34.5100   40.7380 N   0  0  0  0  0  0  0  0  0  0  0  0
   44.3980   35.9540   43.7120 H   0  0  0  0  0  0  0  0  0  0  0  0
   42.5470   33.9140   39.4210 O   0  0  0  0  0  0  0  0  0  0  0  0
   40.5740   34.2700   37.6960 O   0  0  0  0  0  0  0  0  0  0  0  0
   41.6350   35.0130   38.5010 P   0  0  0  0  0  0  0  0  0  0  0  0
   40.8700   36.0780   39.5820 O   0  0  0  0  0  0  0  0  0  0  0  0
   40.3350   35.5860   40.2250 H   0  0  0  0  0  0  0  0  0  0  0  0
   42.6600   35.9120   37.5040 O   0  0  0  0  0  0  0  0  0  0  0  0
   42.9080   35.3620   36.7210 H   0  0  0  0  0  0  0  0  0  0  0  0
   47.4600   31.6940   39.9780 S   0  0  0  0  0  0  0  0  0  0  0  0
   44.5930   31.0910   38.6740 Cl  0  0  0  0  0  0  0  0  0  0  0  0
   44.7530   31.0740   40.4170 C   0  0  0  0  0  0  0  0  0  0  0  0
   46.0020   31.3390   40.9430 C   0  0  0  0  0  0  0  0  0  0  0  0
   46.1790   31.3380   42.3110 C   0  0  0  0  0  0  0  0  0  0  0  0
   47.1000   31.5290   42.8200 H   0  0  0  0  0  0  0  0  0  0  0  0
   45.1450   31.0790   43.1780 C   0  0  0  0  0  0  0  0  0  0  0  0
   45.2340   31.0670   44.2650 H   0  0  0  0  0  0  0  0  0  0  0  0
   43.8740   30.8100   42.6620 C   0  0  0  0  0  0  0  0  0  0  0  0
   43.0080   30.5960   43.3050 H   0  0  0  0  0  0  0  0  0  0  0  0
   43.7230   30.8170   41.2940 C   0  0  0  0  0  0  0  0  0  0  0  0
   42.1480   30.4850   40.6180 Cl  0  0  0  0  0  0  0  0  0  0  0  0
  1  6  1  0  0  0  0
  2  1  2  0  0  0  0
  2  3  1  0  0  0  0
  3  4  2  0  0  0  0
  4  5  1  0  0  0  0
  5  8  1  0  0  0  0
  6  5  2  0  0  0  0
  7  3  1  0  0  0  0
  9  1  1  0  0  0  0
  9 12  1  0  0  0  0
 10  9  1  0  0  0  0
 11  9  1  0  0  0  0
 12 14  1  0  0  0  0
 12 13  1  0  0  0  0
 15 12  1  0  0  0  0
 15 16  2  0  0  0  0
 16 20  1  0  0  0  0
 17 16  1  0  0  0  0
 18 19  2  0  0  0  0
 18 17  1  0  0  0  0
 19 15  1  0  0  0  0
 21 18  1  0  0  0  0
 22 23  2  0  0  0  0
 23 21  1  0  0  0  0
 23 24  1  0  0  0  0
 24 25  1  0  0  0  0
 26 23  1  0  0  0  0
 27 26  1  0  0  0  0
 28 31  1  0  0  0  0
 28  2  1  0  0  0  0
 29 30  1  0  0  0  0
 30 31  2  0  0  0  0
 30 38  1  0  0  0  0
 31 32  1  0  0  0  0
 32 33  1  0  0  0  0
 32 34  2  0  0  0  0
 34 35  1  0  0  0  0
 36 34  1  0  0  0  0
 36 37  1  0  0  0  0
 38 36  2  0  0  0  0
 39 38  1  0  0  0  0
M  END
>  <minimizedAffinity>
-4.54467392

>  <minimizedRMSD>
1.06621492

$$$$
