REMARK  Name = 
REMARK  3 active torsions:
REMARK  status: ('A' for Active; 'I' for Inactive)
REMARK    1  A    between atoms: C_3  and  C_18
REMARK    2  A    between atoms: C_14  and  N_17
REMARK    3  A    between atoms: C_15  and  C_35
REMARK                            x       y       z     vdW  Elec       q    Type
REMARK                         _______ _______ _______ _____ _____    ______ ____
ROOT
ATOM      1  C   UNL     1      45.346  34.684  42.352  0.00  0.00    +0.000 A 
ATOM      2  C   UNL     1      46.469  35.217  41.651  0.00  0.00    +0.000 A 
ATOM      3  C   UNL     1      47.733  34.922  42.200  0.00  0.00    +0.000 A 
ATOM      4  N   UNL     1      47.783  34.175  43.319  0.00  0.00    +0.000 NA
ATOM      5  C   UNL     1      46.685  33.696  43.942  0.00  0.00    +0.000 A 
ATOM      6  N   UNL     1      45.458  33.957  43.448  0.00  0.00    +0.000 NA
ATOM      7  C   UNL     1      43.740  34.146  40.730  0.00  0.00    +0.000 C 
ATOM      8  O   UNL     1      44.647  33.371  40.272  0.00  0.00    +0.000 OA
ATOM      9  N   UNL     1      44.022  34.940  41.859  0.00  0.00    +0.000 N 
ATOM     10  N   UNL     1      42.492  34.149  40.057  0.00  0.00    +0.000 N 
ATOM     11  C   UNL     1      42.388  33.539  38.718  0.00  0.00    +0.000 C 
ATOM     12  C   UNL     1      41.319  34.366  38.074  0.00  0.00    +0.000 C 
ATOM     13  C   UNL     1      40.822  35.309  39.131  0.00  0.00    +0.000 C 
ATOM     14  C   UNL     1      41.196  34.635  40.430  0.00  0.00    +0.000 C 
ATOM     15  H   UNL     1      46.295  35.796  40.772  0.00  0.00    +0.000 HD
ATOM     16  H   UNL     1      46.813  33.097  44.848  0.00  0.00    +0.000 HD
ATOM     17  H   UNL     1      43.305  35.602  42.225  0.00  0.00    +0.000 HD
ATOM     18  H   UNL     1      43.335  33.531  38.183  0.00  0.00    +0.000 HD
ATOM     19  H   UNL     1      41.966  32.509  38.903  0.00  0.00    +0.000 HD
ATOM     20  H   UNL     1      40.466  33.746  37.745  0.00  0.00    +0.000 HD
ATOM     21  H   UNL     1      41.699  34.882  37.172  0.00  0.00    +0.000 HD
ATOM     22  H   UNL     1      41.628  36.125  39.092  0.00  0.00    +0.000 HD
ATOM     23  H   UNL     1      39.942  35.847  38.991  0.00  0.00    +0.000 HD
ATOM     24  H   UNL     1      41.108  35.406  41.186  0.00  0.00    +0.000 HD
ENDROOT
BRANCH  14  27
ATOM     25  C   UNL     1      38.903  33.513  40.732  0.00  0.00    +0.000 C 
ATOM     26  O   UNL     1      38.499  34.513  40.119  0.00  0.00    +0.000 OA
ATOM     27  N   UNL     1      40.349  33.510  40.804  0.00  0.00    +0.000 N 
ATOM     28  H   UNL     1      40.846  32.632  41.155  0.00  0.00    +0.000 HD
BRANCH  25  31
ATOM     29 CL   UNL     1      40.557  31.772  42.525  0.00  0.00    +0.000 Cl
ATOM     30  C   UNL     1      38.848  31.564  42.190  0.00  0.00    +0.000 A 
ATOM     31  C   UNL     1      38.174  32.440  41.333  0.00  0.00    +0.000 A 
ATOM     32  C   UNL     1      36.828  32.278  41.068  0.00  0.00    +0.000 A 
ATOM     33  H   UNL     1      36.306  32.974  40.391  0.00  0.00    +0.000 HD
ATOM     34  C   UNL     1      36.133  31.222  41.666  0.00  0.00    +0.000 A 
ATOM     35  H   UNL     1      35.064  31.099  41.451  0.00  0.00    +0.000 HD
ATOM     36  C   UNL     1      36.821  30.356  42.519  0.00  0.00    +0.000 A 
ATOM     37  H   UNL     1      36.273  29.545  42.974  0.00  0.00    +0.000 HD
ATOM     38  C   UNL     1      38.176  30.535  42.774  0.00  0.00    +0.000 A 
ATOM     39 CL   UNL     1      38.937  29.377  43.868  0.00  0.00    +0.000 Cl
ENDBRANCH  25  31
ENDBRANCH  14  27
BRANCH   3  40
ATOM     40  C   UNL     1      48.864  35.480  41.462  0.00  0.00    +0.000 C 
ATOM     41  F   UNL     1      49.998  34.739  41.766  0.00  0.00    +0.000 F 
ATOM     42  F   UNL     1      49.109  36.754  41.996  0.00  0.00    +0.000 F 
ATOM     43  F   UNL     1      48.691  35.494  40.110  0.00  0.00    +0.000 F 
ENDBRANCH   3  40
TORSDOF 3
