
 OpenBabel03242510223D

 40 43  0  0  1  0  0  0  0  0999 V2000
   48.0300   33.0770   43.1710 N   0  0  0  0  0  0  0  0  0  0  0  0
   49.1790   33.0720   42.3840 C   0  0  0  0  0  0  0  0  0  0  0  0
   50.2910   32.5100   42.5620 O   0  0  0  0  0  0  0  0  0  0  0  0
   47.5910   34.0230   43.2190 H   0  0  0  0  0  0  0  0  0  0  0  0
   46.1320   31.9730   44.2990 C   0  0  1  0  0  0  0  0  0  0  0  0
   46.3070   31.2950   43.0920 C   0  0  0  0  0  0  0  0  0  0  0  0
   47.5340   31.9170   43.8230 C   0  0  1  0  0  0  0  0  0  0  0  0
   45.8700   31.4560   45.2640 H   0  0  0  0  0  0  0  0  0  0  0  0
   46.2540   30.1610   43.0980 H   0  0  0  0  0  0  0  0  0  0  0  0
   46.1020   31.6620   42.0710 H   0  0  0  0  0  0  0  0  0  0  0  0
   48.2440   31.1150   44.1190 H   0  0  0  0  0  0  0  0  0  0  0  0
   44.9600   33.9340   43.0560 C   0  0  0  0  0  0  0  0  0  0  0  0
   45.4720   33.3580   44.2650 C   0  0  0  0  0  0  0  0  0  0  0  0
   45.3720   34.1090   45.4190 C   0  0  0  0  0  0  0  0  0  0  0  0
   44.8060   35.3340   45.3580 N   0  0  0  0  0  0  0  0  0  0  0  0
   44.3260   35.8660   44.2070 C   0  0  0  0  0  0  0  0  0  0  0  0
   44.4100   35.1320   43.0160 N   0  0  0  0  0  0  0  0  0  0  0  0
   45.0150   33.3450   42.1610 H   0  0  0  0  0  0  0  0  0  0  0  0
   45.7370   33.7330   46.3590 H   0  0  0  0  0  0  0  0  0  0  0  0
   43.8720   36.8490   44.1600 H   0  0  0  0  0  0  0  0  0  0  0  0
   49.1870   33.8400   41.0750 C   0  0  2  0  0  0  0  0  0  0  0  0
   48.5270   35.2670   41.1030 C   0  0  0  0  0  0  0  0  0  0  0  0
   47.9400   34.1190   40.3500 C   0  0  1  0  0  0  0  0  0  0  0  0
   50.1440   33.9000   40.5220 H   0  0  0  0  0  0  0  0  0  0  0  0
   48.0670   35.5180   42.0880 H   0  0  0  0  0  0  0  0  0  0  0  0
   48.9760   36.0530   40.5060 H   0  0  0  0  0  0  0  0  0  0  0  0
   47.0300   33.5990   40.7110 H   0  0  0  0  0  0  0  0  0  0  0  0
   48.0120   34.1610   38.8390 C   0  0  0  0  0  0  0  0  0  0  0  0
   48.6680   35.0380   38.2950 O   0  0  0  0  0  0  0  0  0  0  0  0
   49.7880   31.9650   37.9010 Cl  0  0  0  0  0  0  0  0  0  0  0  0
   48.0750   32.1340   37.5330 C   0  0  0  0  0  0  0  0  0  0  0  0
   47.3190   33.1850   38.0080 C   0  0  0  0  0  0  0  0  0  0  0  0
   45.9920   33.1990   37.6460 C   0  0  0  0  0  0  0  0  0  0  0  0
   45.4020   34.0200   38.0170 H   0  0  0  0  0  0  0  0  0  0  0  0
   45.4380   32.2180   36.8500 C   0  0  0  0  0  0  0  0  0  0  0  0
   44.3670   32.3330   36.6250 H   0  0  0  0  0  0  0  0  0  0  0  0
   46.1880   31.1640   36.3720 C   0  0  0  0  0  0  0  0  0  0  0  0
   45.7240   30.4160   35.7540 H   0  0  0  0  0  0  0  0  0  0  0  0
   47.5220   31.1330   36.7250 C   0  0  0  0  0  0  0  0  0  0  0  0
   48.5050   29.8080   36.1340 Cl  0  0  0  0  0  0  0  0  0  0  0  0
  1  4  1  0  0  0  0
  1  7  1  0  0  0  0
  2  3  2  0  0  0  0
  2  1  1  0  0  0  0
  5  8  1  1  0  0  0
  6  9  1  0  0  0  0
  6  7  1  0  0  0  0
  6  5  1  0  0  0  0
  7 11  1  1  0  0  0
  7  5  1  0  0  0  0
 10  6  1  0  0  0  0
 12 13  1  0  0  0  0
 13  5  1  0  0  0  0
 13 14  2  0  0  0  0
 14 19  1  0  0  0  0
 15 14  1  0  0  0  0
 16 15  2  0  0  0  0
 17 12  2  0  0  0  0
 17 16  1  0  0  0  0
 18 12  1  0  0  0  0
 20 16  1  0  0  0  0
 21 24  1  6  0  0  0
 21 22  1  0  0  0  0
 21  2  1  0  0  0  0
 22 25  1  0  0  0  0
 23 27  1  1  0  0  0
 23 21  1  0  0  0  0
 23 22  1  0  0  0  0
 26 22  1  0  0  0  0
 28 23  1  0  0  0  0
 29 28  2  0  0  0  0
 31 30  1  0  0  0  0
 31 32  1  0  0  0  0
 32 28  1  0  0  0  0
 33 32  2  0  0  0  0
 33 34  1  0  0  0  0
 35 33  1  0  0  0  0
 36 35  1  0  0  0  0
 37 39  1  0  0  0  0
 37 35  2  0  0  0  0
 38 37  1  0  0  0  0
 39 31  2  0  0  0  0
 40 39  1  0  0  0  0
M  END
>  <minimizedAffinity>
-4.90021801

>  <minimizedRMSD>
1.31789315

$$$$
