
 OpenBabel03252503333D

 43 45  0  0  1  0  0  0  0  0999 V2000
   42.4500   32.1280   42.3750 C   0  0  0  0  0  0  0  0  0  0  0  0
   43.0690   33.3400   41.9450 C   0  0  0  0  0  0  0  0  0  0  0  0
   44.4510   33.4470   42.1970 C   0  0  0  0  0  0  0  0  0  0  0  0
   45.0690   32.4190   42.8100 N   0  0  0  0  0  0  0  0  0  0  0  0
   44.4310   31.2930   43.1960 C   0  0  0  0  0  0  0  0  0  0  0  0
   43.1090   31.1530   42.9730 N   0  0  0  0  0  0  0  0  0  0  0  0
   40.7750   31.6400   40.8070 C   0  0  0  0  0  0  0  0  0  0  0  0
   41.7420   31.6150   39.9720 O   0  0  0  0  0  0  0  0  0  0  0  0
   41.0430   31.9400   42.1570 N   0  0  0  0  0  0  0  0  0  0  0  0
   39.4800   31.3580   40.3050 N   0  0  0  0  0  0  0  0  0  0  0  0
   39.2470   31.3700   38.8480 C   0  0  0  0  0  0  0  0  0  0  0  0
   37.8200   31.8130   38.7570 C   0  0  0  0  0  0  0  0  0  0  0  0
   37.3190   31.9120   40.1690 C   0  0  0  0  0  0  0  0  0  0  0  0
   38.2480   31.0140   40.9520 C   0  0  1  0  0  0  0  0  0  0  0  0
   42.4660   34.0800   41.4690 H   0  0  0  0  0  0  0  0  0  0  0  0
   45.0070   30.5050   43.6890 H   0  0  0  0  0  0  0  0  0  0  0  0
   40.2620   31.9980   42.8450 H   0  0  0  0  0  0  0  0  0  0  0  0
   39.9510   32.0050   38.3140 H   0  0  0  0  0  0  0  0  0  0  0  0
   39.2950   30.2850   38.5410 H   0  0  0  0  0  0  0  0  0  0  0  0
   37.1960   31.0710   38.2280 H   0  0  0  0  0  0  0  0  0  0  0  0
   37.7290   32.7600   38.1940 H   0  0  0  0  0  0  0  0  0  0  0  0
   37.7320   32.9390   40.4750 H   0  0  0  0  0  0  0  0  0  0  0  0
   36.3010   32.0040   40.3660 H   0  0  0  0  0  0  0  0  0  0  0  0
   38.0930   31.2820   41.9910 H   0  0  0  0  0  0  0  0  0  0  0  0
   37.6210   28.6960   41.8670 C   0  0  0  0  0  0  0  0  0  0  0  0
   37.3310   29.3400   42.8870 O   0  0  0  0  0  0  0  0  0  0  0  0
   38.0010   29.5870   40.7920 N   0  0  0  0  0  0  0  0  0  0  0  0
   38.1160   29.1890   39.8080 H   0  0  0  0  0  0  0  0  0  0  0  0
   39.5560   27.1860   43.5870 Cl  0  0  0  0  0  0  0  0  0  0  0  0
   38.4900   26.4820   42.3850 C   0  0  0  0  0  0  0  0  0  0  0  0
   37.6250   27.2850   41.6360 C   0  0  0  0  0  0  0  0  0  0  0  0
   36.7850   26.7330   40.6880 C   0  0  0  0  0  0  0  0  0  0  0  0
   36.1060   27.3740   40.1030 H   0  0  0  0  0  0  0  0  0  0  0  0
   36.8040   25.3500   40.4770 C   0  0  0  0  0  0  0  0  0  0  0  0
   36.1350   24.9170   39.7230 H   0  0  0  0  0  0  0  0  0  0  0  0
   37.6750   24.5620   41.2330 C   0  0  0  0  0  0  0  0  0  0  0  0
   37.6810   23.4960   41.0600 H   0  0  0  0  0  0  0  0  0  0  0  0
   38.5130   25.1360   42.1830 C   0  0  0  0  0  0  0  0  0  0  0  0
   39.5690   24.0390   43.0760 Cl  0  0  0  0  0  0  0  0  0  0  0  0
   45.0590   34.6970   41.7460 C   0  0  0  0  0  0  0  0  0  0  0  0
   45.9460   35.1330   42.7210 F   0  0  0  0  0  0  0  0  0  0  0  0
   44.0390   35.6600   41.7270 F   0  0  0  0  0  0  0  0  0  0  0  0
   45.7180   34.5960   40.5580 F   0  0  0  0  0  0  0  0  0  0  0  0
  1  6  1  0  0  0  0
  2  3  1  0  0  0  0
  2  1  2  0  0  0  0
  3  4  2  0  0  0  0
  4  5  1  0  0  0  0
  5 16  1  0  0  0  0
  6  5  2  0  0  0  0
  7  9  1  0  0  0  0
  8  7  2  0  0  0  0
  9  1  1  0  0  0  0
  9 17  1  0  0  0  0
 10  7  1  0  0  0  0
 10 14  1  0  0  0  0
 11 10  1  0  0  0  0
 12 11  1  0  0  0  0
 12 13  1  0  0  0  0
 13 23  1  0  0  0  0
 13 22  1  0  0  0  0
 13 14  1  0  0  0  0
 14 24  1  1  0  0  0
 15  2  1  0  0  0  0
 18 11  1  0  0  0  0
 19 11  1  0  0  0  0
 20 12  1  0  0  0  0
 21 12  1  0  0  0  0
 25 26  2  0  0  0  0
 27 14  1  0  0  0  0
 27 25  1  0  0  0  0
 28 27  1  0  0  0  0
 30 29  1  0  0  0  0
 31 25  1  0  0  0  0
 31 30  2  0  0  0  0
 32 31  1  0  0  0  0
 33 32  1  0  0  0  0
 34 32  2  0  0  0  0
 34 36  1  0  0  0  0
 35 34  1  0  0  0  0
 36 38  2  0  0  0  0
 37 36  1  0  0  0  0
 38 30  1  0  0  0  0
 38 39  1  0  0  0  0
 40  3  1  0  0  0  0
 40 41  1  0  0  0  0
 42 40  1  0  0  0  0
 43 40  1  0  0  0  0
M  END
>  <minimizedAffinity>
-6.52550364

$$$$

 OpenBabel03252503333D

 43 45  0  0  1  0  0  0  0  0999 V2000
   40.3810   31.0980   40.2680 C   0  0  0  0  0  0  0  0  0  0  0  0
   40.1790   32.4100   40.7940 C   0  0  0  0  0  0  0  0  0  0  0  0
   40.3750   33.4720   39.8890 C   0  0  0  0  0  0  0  0  0  0  0  0
   40.7300   33.1740   38.6240 N   0  0  0  0  0  0  0  0  0  0  0  0
   40.9080   31.9110   38.1810 C   0  0  0  0  0  0  0  0  0  0  0  0
   40.7300   30.8680   39.0160 N   0  0  0  0  0  0  0  0  0  0  0  0
   38.8350   29.7010   41.3450 C   0  0  0  0  0  0  0  0  0  0  0  0
   37.9640   30.4800   40.8290 O   0  0  0  0  0  0  0  0  0  0  0  0
   40.2030   29.9610   41.1260 N   0  0  0  0  0  0  0  0  0  0  0  0
   38.3540   28.6110   42.1130 N   0  0  0  0  0  0  0  0  0  0  0  0
   36.9450   28.5980   42.5500 C   0  0  0  0  0  0  0  0  0  0  0  0
   37.0220   27.8540   43.8480 C   0  0  0  0  0  0  0  0  0  0  0  0
   38.4480   27.4080   43.9940 C   0  0  0  0  0  0  0  0  0  0  0  0
   38.9800   27.4090   42.5800 C   0  0  1  0  0  0  0  0  0  0  0  0
   39.8980   32.5120   41.8180 H   0  0  0  0  0  0  0  0  0  0  0  0
   41.1970   31.7560   37.1380 H   0  0  0  0  0  0  0  0  0  0  0  0
   40.9270   29.3550   41.5670 H   0  0  0  0  0  0  0  0  0  0  0  0
   36.5170   29.5950   42.6270 H   0  0  0  0  0  0  0  0  0  0  0  0
   36.4180   27.9370   41.8020 H   0  0  0  0  0  0  0  0  0  0  0  0
   36.3840   26.9520   43.8400 H   0  0  0  0  0  0  0  0  0  0  0  0
   36.6710   28.4800   44.6900 H   0  0  0  0  0  0  0  0  0  0  0  0
   38.9370   28.3680   44.3900 H   0  0  0  0  0  0  0  0  0  0  0  0
   38.7120   26.7020   44.7110 H   0  0  0  0  0  0  0  0  0  0  0  0
   40.0580   27.3680   42.6820 H   0  0  0  0  0  0  0  0  0  0  0  0
   39.2160   25.0080   41.6920 C   0  0  0  0  0  0  0  0  0  0  0  0
   40.0830   24.9260   42.5750 O   0  0  0  0  0  0  0  0  0  0  0  0
   38.5420   26.2880   41.7590 N   0  0  0  0  0  0  0  0  0  0  0  0
   37.6620   26.4390   41.1720 H   0  0  0  0  0  0  0  0  0  0  0  0
   41.0210   24.9620   39.3000 Cl  0  0  0  0  0  0  0  0  0  0  0  0
   39.5980   23.9610   39.5280 C   0  0  0  0  0  0  0  0  0  0  0  0
   38.8250   24.0680   40.6880 C   0  0  0  0  0  0  0  0  0  0  0  0
   37.7040   23.2820   40.8700 C   0  0  0  0  0  0  0  0  0  0  0  0
   37.1020   23.3730   41.7880 H   0  0  0  0  0  0  0  0  0  0  0  0
   37.3390   22.3670   39.8760 C   0  0  0  0  0  0  0  0  0  0  0  0
   36.4480   21.7460   40.0260 H   0  0  0  0  0  0  0  0  0  0  0  0
   38.1220   22.2730   38.7230 C   0  0  0  0  0  0  0  0  0  0  0  0
   37.8290   21.5650   37.9630 H   0  0  0  0  0  0  0  0  0  0  0  0
   39.2470   23.0740   38.5580 C   0  0  0  0  0  0  0  0  0  0  0  0
   40.1560   22.8650   37.0590 Cl  0  0  0  0  0  0  0  0  0  0  0  0
   40.1610   34.8020   40.4540 C   0  0  0  0  0  0  0  0  0  0  0  0
   38.9930   34.7810   41.2030 F   0  0  0  0  0  0  0  0  0  0  0  0
   39.8870   35.6610   39.3790 F   0  0  0  0  0  0  0  0  0  0  0  0
   41.1850   35.2420   41.2380 F   0  0  0  0  0  0  0  0  0  0  0  0
  1  2  1  0  0  0  0
  1  9  1  0  0  0  0
  2 15  1  0  0  0  0
  3 40  1  0  0  0  0
  3  2  2  0  0  0  0
  4  3  1  0  0  0  0
  5  4  2  0  0  0  0
  5  6  1  0  0  0  0
  6  1  2  0  0  0  0
  7 10  1  0  0  0  0
  8  7  2  0  0  0  0
  9  7  1  0  0  0  0
  9 17  1  0  0  0  0
 10 11  1  0  0  0  0
 10 14  1  0  0  0  0
 11 18  1  0  0  0  0
 11 12  1  0  0  0  0
 12 13  1  0  0  0  0
 12 21  1  0  0  0  0
 13 22  1  0  0  0  0
 13 23  1  0  0  0  0
 14 24  1  6  0  0  0
 14 13  1  0  0  0  0
 16  5  1  0  0  0  0
 19 11  1  0  0  0  0
 20 12  1  0  0  0  0
 25 27  1  0  0  0  0
 25 26  2  0  0  0  0
 27 14  1  0  0  0  0
 28 27  1  0  0  0  0
 29 30  1  0  0  0  0
 30 31  1  0  0  0  0
 31 32  2  0  0  0  0
 31 25  1  0  0  0  0
 32 33  1  0  0  0  0
 34 35  1  0  0  0  0
 34 32  1  0  0  0  0
 36 34  2  0  0  0  0
 37 36  1  0  0  0  0
 38 36  1  0  0  0  0
 38 30  2  0  0  0  0
 39 38  1  0  0  0  0
 40 41  1  0  0  0  0
 40 43  1  0  0  0  0
 42 40  1  0  0  0  0
M  END
>  <minimizedAffinity>
-6.24922752

$$$$

 OpenBabel03252503333D

 43 45  0  0  1  0  0  0  0  0999 V2000
   39.6390   31.5580   41.0160 C   0  0  0  0  0  0  0  0  0  0  0  0
   39.6460   32.8860   40.4940 C   0  0  0  0  0  0  0  0  0  0  0  0
   40.8900   33.5480   40.5130 C   0  0  0  0  0  0  0  0  0  0  0  0
   41.9540   32.8910   41.0110 N   0  0  0  0  0  0  0  0  0  0  0  0
   41.8900   31.6320   41.4940 C   0  0  0  0  0  0  0  0  0  0  0  0
   40.7180   30.9650   41.4940 N   0  0  0  0  0  0  0  0  0  0  0  0
   38.0830   30.3480   39.7470 C   0  0  0  0  0  0  0  0  0  0  0  0
   38.8380   30.6550   38.7620 O   0  0  0  0  0  0  0  0  0  0  0  0
   38.4110   30.8150   41.0350 N   0  0  0  0  0  0  0  0  0  0  0  0
   36.9490   29.5450   39.4650 N   0  0  0  0  0  0  0  0  0  0  0  0
   36.5110   29.3710   38.0680 C   0  0  0  0  0  0  0  0  0  0  0  0
   35.0310   29.2040   38.2160 C   0  0  0  0  0  0  0  0  0  0  0  0
   34.7550   29.1870   39.6920 C   0  0  0  0  0  0  0  0  0  0  0  0
   36.0740   28.7820   40.3070 C   0  0  1  0  0  0  0  0  0  0  0  0
   38.7320   33.2960   40.1270 H   0  0  0  0  0  0  0  0  0  0  0  0
   42.8020   31.1690   41.8820 H   0  0  0  0  0  0  0  0  0  0  0  0
   37.7880   30.6020   41.8420 H   0  0  0  0  0  0  0  0  0  0  0  0
   36.8100   30.1970   37.4260 H   0  0  0  0  0  0  0  0  0  0  0  0
   36.9420   28.3770   37.7530 H   0  0  0  0  0  0  0  0  0  0  0  0
   34.6840   28.2440   37.7950 H   0  0  0  0  0  0  0  0  0  0  0  0
   34.4810   30.0000   37.6790 H   0  0  0  0  0  0  0  0  0  0  0  0
   34.7620   30.3100   39.9290 H   0  0  0  0  0  0  0  0  0  0  0  0
   33.8290   28.8800   40.0550 H   0  0  0  0  0  0  0  0  0  0  0  0
   35.9860   29.0320   41.3580 H   0  0  0  0  0  0  0  0  0  0  0  0
   37.3350   26.6650   41.0390 C   0  0  0  0  0  0  0  0  0  0  0  0
   37.6570   27.3710   42.0070 O   0  0  0  0  0  0  0  0  0  0  0  0
   36.4000   27.3680   40.1850 N   0  0  0  0  0  0  0  0  0  0  0  0
   35.9080   26.8280   39.4060 H   0  0  0  0  0  0  0  0  0  0  0  0
   39.7650   26.5630   39.2890 Cl  0  0  0  0  0  0  0  0  0  0  0  0
   38.8650   25.1750   39.8720 C   0  0  0  0  0  0  0  0  0  0  0  0
   37.7410   25.3410   40.6860 C   0  0  0  0  0  0  0  0  0  0  0  0
   37.0290   24.2490   41.1460 C   0  0  0  0  0  0  0  0  0  0  0  0
   36.1450   24.3900   41.7870 H   0  0  0  0  0  0  0  0  0  0  0  0
   37.4430   22.9610   40.7890 C   0  0  0  0  0  0  0  0  0  0  0  0
   36.8740   22.0990   41.1560 H   0  0  0  0  0  0  0  0  0  0  0  0
   38.5680   22.8130   39.9740 C   0  0  0  0  0  0  0  0  0  0  0  0
   38.8760   21.8140   39.7050 H   0  0  0  0  0  0  0  0  0  0  0  0
   39.2710   23.9240   39.5210 C   0  0  0  0  0  0  0  0  0  0  0  0
   40.6760   23.6120   38.4990 Cl  0  0  0  0  0  0  0  0  0  0  0  0
   40.8670   34.9060   39.9720 C   0  0  0  0  0  0  0  0  0  0  0  0
   41.3960   34.8780   38.6880 F   0  0  0  0  0  0  0  0  0  0  0  0
   41.7810   35.6580   40.7240 F   0  0  0  0  0  0  0  0  0  0  0  0
   39.6250   35.4650   39.9300 F   0  0  0  0  0  0  0  0  0  0  0  0
  1  9  1  0  0  0  0
  1  6  1  0  0  0  0
  2  3  1  0  0  0  0
  2  1  2  0  0  0  0
  3  4  2  0  0  0  0
  4  5  1  0  0  0  0
  5  6  2  0  0  0  0
  5 16  1  0  0  0  0
  7  9  1  0  0  0  0
  8  7  2  0  0  0  0
  9 17  1  0  0  0  0
 10  7  1  0  0  0  0
 10 14  1  0  0  0  0
 11 12  1  0  0  0  0
 11 10  1  0  0  0  0
 12 13  1  0  0  0  0
 13 22  1  0  0  0  0
 13 23  1  0  0  0  0
 13 14  1  0  0  0  0
 14 24  1  1  0  0  0
 15  2  1  0  0  0  0
 18 11  1  0  0  0  0
 19 11  1  0  0  0  0
 20 12  1  0  0  0  0
 21 12  1  0  0  0  0
 25 26  2  0  0  0  0
 27 14  1  0  0  0  0
 27 25  1  0  0  0  0
 28 27  1  0  0  0  0
 29 30  1  0  0  0  0
 30 31  1  0  0  0  0
 31 25  1  0  0  0  0
 31 32  2  0  0  0  0
 32 33  1  0  0  0  0
 34 32  1  0  0  0  0
 34 35  1  0  0  0  0
 36 34  2  0  0  0  0
 37 36  1  0  0  0  0
 38 30  2  0  0  0  0
 38 36  1  0  0  0  0
 39 38  1  0  0  0  0
 40  3  1  0  0  0  0
 40 42  1  0  0  0  0
 41 40  1  0  0  0  0
 43 40  1  0  0  0  0
M  END
>  <minimizedAffinity>
-6.24013901

$$$$

 OpenBabel03252503333D

 43 45  0  0  1  0  0  0  0  0999 V2000
   40.3520   30.9220   39.6790 C   0  0  0  0  0  0  0  0  0  0  0  0
   40.5590   32.1950   40.2890 C   0  0  0  0  0  0  0  0  0  0  0  0
   40.7370   33.2780   39.4050 C   0  0  0  0  0  0  0  0  0  0  0  0
   40.6980   33.0340   38.0820 N   0  0  0  0  0  0  0  0  0  0  0  0
   40.4990   31.8060   37.5590 C   0  0  0  0  0  0  0  0  0  0  0  0
   40.3250   30.7440   38.3710 N   0  0  0  0  0  0  0  0  0  0  0  0
   38.8710   29.7490   41.0670 C   0  0  0  0  0  0  0  0  0  0  0  0
   38.0760   30.7210   40.8270 O   0  0  0  0  0  0  0  0  0  0  0  0
   40.1640   29.7650   40.5090 N   0  0  0  0  0  0  0  0  0  0  0  0
   38.3830   28.7040   41.8920 N   0  0  0  0  0  0  0  0  0  0  0  0
   37.1540   28.9160   42.6820 C   0  0  0  0  0  0  0  0  0  0  0  0
   37.3970   28.0580   43.8840 C   0  0  0  0  0  0  0  0  0  0  0  0
   38.6930   27.3410   43.6360 C   0  0  0  0  0  0  0  0  0  0  0  0
   38.8450   27.3690   42.1330 C   0  0  1  0  0  0  0  0  0  0  0  0
   40.5690   32.2560   41.3540 H   0  0  0  0  0  0  0  0  0  0  0  0
   40.4820   31.6930   36.4710 H   0  0  0  0  0  0  0  0  0  0  0  0
   40.8350   28.9970   40.7220 H   0  0  0  0  0  0  0  0  0  0  0  0
   36.9720   29.9640   42.9060 H   0  0  0  0  0  0  0  0  0  0  0  0
   36.3350   28.4360   42.0720 H   0  0  0  0  0  0  0  0  0  0  0  0
   36.6070   27.2960   44.0090 H   0  0  0  0  0  0  0  0  0  0  0  0
   37.4030   28.6600   44.8130 H   0  0  0  0  0  0  0  0  0  0  0  0
   39.4500   28.1520   43.9270 H   0  0  0  0  0  0  0  0  0  0  0  0
   38.9760   26.5360   44.2310 H   0  0  0  0  0  0  0  0  0  0  0  0
   39.8830   27.1170   41.9480 H   0  0  0  0  0  0  0  0  0  0  0  0
   38.2670   25.9380   40.0770 C   0  0  0  0  0  0  0  0  0  0  0  0
   39.4100   26.2600   39.7170 O   0  0  0  0  0  0  0  0  0  0  0  0
   37.9970   26.4280   41.4120 N   0  0  0  0  0  0  0  0  0  0  0  0
   37.1200   26.0890   41.9190 H   0  0  0  0  0  0  0  0  0  0  0  0
   38.3880   22.9820   40.5510 Cl  0  0  0  0  0  0  0  0  0  0  0  0
   37.2170   23.8090   39.5400 C   0  0  0  0  0  0  0  0  0  0  0  0
   37.2550   25.1980   39.3900 C   0  0  0  0  0  0  0  0  0  0  0  0
   36.3340   25.8520   38.5930 C   0  0  0  0  0  0  0  0  0  0  0  0
   36.3720   26.9470   38.4810 H   0  0  0  0  0  0  0  0  0  0  0  0
   35.3520   25.1090   37.9300 C   0  0  0  0  0  0  0  0  0  0  0  0
   34.6240   25.6340   37.2990 H   0  0  0  0  0  0  0  0  0  0  0  0
   35.3280   23.7220   38.0910 C   0  0  0  0  0  0  0  0  0  0  0  0
   34.5660   23.1600   37.5720 H   0  0  0  0  0  0  0  0  0  0  0  0
   36.2640   23.0820   38.8960 C   0  0  0  0  0  0  0  0  0  0  0  0
   36.1330   21.3260   39.0220 Cl  0  0  0  0  0  0  0  0  0  0  0  0
   40.9470   34.5690   40.0570 C   0  0  0  0  0  0  0  0  0  0  0  0
   39.7230   35.0340   40.5200 F   0  0  0  0  0  0  0  0  0  0  0  0
   41.3230   35.4750   39.0540 F   0  0  0  0  0  0  0  0  0  0  0  0
   41.8290   34.5290   41.0960 F   0  0  0  0  0  0  0  0  0  0  0  0
  1  2  1  0  0  0  0
  1  9  1  0  0  0  0
  2 15  1  0  0  0  0
  3 40  1  0  0  0  0
  3  2  2  0  0  0  0
  4  3  1  0  0  0  0
  5  4  2  0  0  0  0
  5  6  1  0  0  0  0
  6  1  2  0  0  0  0
  7 10  1  0  0  0  0
  8  7  2  0  0  0  0
  9 17  1  0  0  0  0
  9  7  1  0  0  0  0
 10 14  1  0  0  0  0
 10 11  1  0  0  0  0
 11 18  1  0  0  0  0
 11 12  1  0  0  0  0
 12 20  1  0  0  0  0
 12 21  1  0  0  0  0
 13 12  1  0  0  0  0
 13 22  1  0  0  0  0
 13 23  1  0  0  0  0
 14 24  1  6  0  0  0
 14 13  1  0  0  0  0
 16  5  1  0  0  0  0
 19 11  1  0  0  0  0
 25 27  1  0  0  0  0
 26 25  2  0  0  0  0
 27 28  1  0  0  0  0
 27 14  1  0  0  0  0
 30 29  1  0  0  0  0
 31 30  1  0  0  0  0
 31 25  1  0  0  0  0
 32 31  2  0  0  0  0
 33 32  1  0  0  0  0
 34 36  2  0  0  0  0
 34 32  1  0  0  0  0
 35 34  1  0  0  0  0
 36 38  1  0  0  0  0
 37 36  1  0  0  0  0
 38 39  1  0  0  0  0
 38 30  2  0  0  0  0
 40 41  1  0  0  0  0
 40 43  1  0  0  0  0
 42 40  1  0  0  0  0
M  END
>  <minimizedAffinity>
-6.23069763

$$$$

 OpenBabel03252503333D

 43 45  0  0  1  0  0  0  0  0999 V2000
   40.3360   30.9340   39.8540 C   0  0  0  0  0  0  0  0  0  0  0  0
   40.5270   32.2000   40.4840 C   0  0  0  0  0  0  0  0  0  0  0  0
   40.6990   33.2980   39.6170 C   0  0  0  0  0  0  0  0  0  0  0  0
   40.6700   33.0720   38.2900 N   0  0  0  0  0  0  0  0  0  0  0  0
   40.4850   31.8490   37.7480 C   0  0  0  0  0  0  0  0  0  0  0  0
   40.3170   30.7740   38.5440 N   0  0  0  0  0  0  0  0  0  0  0  0
   38.8580   29.7260   41.2180 C   0  0  0  0  0  0  0  0  0  0  0  0
   38.0560   30.6940   40.9870 O   0  0  0  0  0  0  0  0  0  0  0  0
   40.1540   29.7640   40.6670 N   0  0  0  0  0  0  0  0  0  0  0  0
   38.3760   28.6650   42.0250 N   0  0  0  0  0  0  0  0  0  0  0  0
   37.1420   28.8530   42.8100 C   0  0  0  0  0  0  0  0  0  0  0  0
   37.3870   27.9800   44.0020 C   0  0  0  0  0  0  0  0  0  0  0  0
   38.6900   27.2800   43.7500 C   0  0  0  0  0  0  0  0  0  0  0  0
   38.8510   27.3310   42.2490 C   0  0  1  0  0  0  0  0  0  0  0  0
   40.5300   32.2450   41.5500 H   0  0  0  0  0  0  0  0  0  0  0  0
   40.4750   31.7520   36.6590 H   0  0  0  0  0  0  0  0  0  0  0  0
   40.8320   28.9990   40.8720 H   0  0  0  0  0  0  0  0  0  0  0  0
   36.9480   29.8970   43.0490 H   0  0  0  0  0  0  0  0  0  0  0  0
   36.3300   28.3740   42.1900 H   0  0  0  0  0  0  0  0  0  0  0  0
   36.6030   27.2090   44.1110 H   0  0  0  0  0  0  0  0  0  0  0  0
   37.3810   28.5690   44.9390 H   0  0  0  0  0  0  0  0  0  0  0  0
   39.4390   28.0940   44.0570 H   0  0  0  0  0  0  0  0  0  0  0  0
   38.9790   26.4690   44.3350 H   0  0  0  0  0  0  0  0  0  0  0  0
   39.8920   27.0920   42.0660 H   0  0  0  0  0  0  0  0  0  0  0  0
   38.2660   25.9690   40.1480 C   0  0  0  0  0  0  0  0  0  0  0  0
   39.3870   26.3460   39.7730 O   0  0  0  0  0  0  0  0  0  0  0  0
   38.0160   26.3920   41.5100 N   0  0  0  0  0  0  0  0  0  0  0  0
   37.1640   26.0020   42.0230 H   0  0  0  0  0  0  0  0  0  0  0  0
   36.2960   27.6700   38.6620 Cl  0  0  0  0  0  0  0  0  0  0  0  0
   36.2900   25.9180   38.7270 C   0  0  0  0  0  0  0  0  0  0  0  0
   37.2610   25.2240   39.4560 C   0  0  0  0  0  0  0  0  0  0  0  0
   37.2580   23.8440   39.5090 C   0  0  0  0  0  0  0  0  0  0  0  0
   38.0280   23.3060   40.0860 H   0  0  0  0  0  0  0  0  0  0  0  0
   36.2660   23.1330   38.8240 C   0  0  0  0  0  0  0  0  0  0  0  0
   36.2690   22.0370   38.8710 H   0  0  0  0  0  0  0  0  0  0  0  0
   35.3030   23.8410   38.1020 C   0  0  0  0  0  0  0  0  0  0  0  0
   34.5430   23.2810   37.5780 H   0  0  0  0  0  0  0  0  0  0  0  0
   35.3230   25.2310   38.0600 C   0  0  0  0  0  0  0  0  0  0  0  0
   34.0550   26.0140   37.1140 Cl  0  0  0  0  0  0  0  0  0  0  0  0
   40.8930   34.5810   40.2890 C   0  0  0  0  0  0  0  0  0  0  0  0
   39.7060   34.9330   40.9170 F   0  0  0  0  0  0  0  0  0  0  0  0
   41.0710   35.5430   39.2830 F   0  0  0  0  0  0  0  0  0  0  0  0
   41.9000   34.5790   41.2080 F   0  0  0  0  0  0  0  0  0  0  0  0
  1  2  1  0  0  0  0
  1  9  1  0  0  0  0
  2 15  1  0  0  0  0
  3 40  1  0  0  0  0
  3  2  2  0  0  0  0
  4  3  1  0  0  0  0
  5  4  2  0  0  0  0
  5  6  1  0  0  0  0
  6  1  2  0  0  0  0
  7 10  1  0  0  0  0
  8  7  2  0  0  0  0
  9 17  1  0  0  0  0
  9  7  1  0  0  0  0
 10 14  1  0  0  0  0
 10 11  1  0  0  0  0
 11 18  1  0  0  0  0
 11 12  1  0  0  0  0
 12 20  1  0  0  0  0
 12 21  1  0  0  0  0
 13 12  1  0  0  0  0
 13 22  1  0  0  0  0
 13 23  1  0  0  0  0
 14 24  1  6  0  0  0
 14 13  1  0  0  0  0
 16  5  1  0  0  0  0
 19 11  1  0  0  0  0
 25 27  1  0  0  0  0
 26 25  2  0  0  0  0
 27 28  1  0  0  0  0
 27 14  1  0  0  0  0
 29 30  1  0  0  0  0
 30 31  1  0  0  0  0
 31 32  2  0  0  0  0
 31 25  1  0  0  0  0
 32 33  1  0  0  0  0
 34 35  1  0  0  0  0
 34 32  1  0  0  0  0
 36 34  2  0  0  0  0
 37 36  1  0  0  0  0
 38 36  1  0  0  0  0
 38 30  2  0  0  0  0
 39 38  1  0  0  0  0
 40 41  1  0  0  0  0
 40 43  1  0  0  0  0
 42 40  1  0  0  0  0
M  END
>  <minimizedAffinity>
-6.18113852

$$$$

 OpenBabel03252503333D

 43 45  0  0  1  0  0  0  0  0999 V2000
   39.2150   27.0430   39.9440 C   0  0  0  0  0  0  0  0  0  0  0  0
   38.0300   26.3090   40.2520 C   0  0  0  0  0  0  0  0  0  0  0  0
   38.2230   25.0870   40.9280 C   0  0  0  0  0  0  0  0  0  0  0  0
   39.4820   24.7150   41.2250 N   0  0  0  0  0  0  0  0  0  0  0  0
   40.5690   25.4510   40.9070 C   0  0  0  0  0  0  0  0  0  0  0  0
   40.4260   26.6250   40.2600 N   0  0  0  0  0  0  0  0  0  0  0  0
   38.6580   29.3140   40.1220 C   0  0  0  0  0  0  0  0  0  0  0  0
   38.3740   29.0190   41.3320 O   0  0  0  0  0  0  0  0  0  0  0  0
   39.1060   28.2980   39.2550 N   0  0  0  0  0  0  0  0  0  0  0  0
   38.5010   30.6680   39.7330 N   0  0  0  0  0  0  0  0  0  0  0  0
   37.7370   31.5880   40.5970 C   0  0  0  0  0  0  0  0  0  0  0  0
   37.1480   32.5410   39.6050 C   0  0  0  0  0  0  0  0  0  0  0  0
   37.7100   32.1570   38.2670 C   0  0  0  0  0  0  0  0  0  0  0  0
   38.9780   31.4090   38.6020 C   0  0  1  0  0  0  0  0  0  0  0  0
   37.0870   26.7140   39.9620 H   0  0  0  0  0  0  0  0  0  0  0  0
   41.5580   25.0760   41.1840 H   0  0  0  0  0  0  0  0  0  0  0  0
   39.3090   28.5150   38.2560 H   0  0  0  0  0  0  0  0  0  0  0  0
   37.0060   31.0740   41.2180 H   0  0  0  0  0  0  0  0  0  0  0  0
   38.5200   32.1430   41.1900 H   0  0  0  0  0  0  0  0  0  0  0  0
   37.4490   33.5840   39.8120 H   0  0  0  0  0  0  0  0  0  0  0  0
   36.0420   32.5210   39.6360 H   0  0  0  0  0  0  0  0  0  0  0  0
   37.0280   31.2770   37.9880 H   0  0  0  0  0  0  0  0  0  0  0  0
   37.6120   32.7920   37.4480 H   0  0  0  0  0  0  0  0  0  0  0  0
   39.2490   30.8860   37.6920 H   0  0  0  0  0  0  0  0  0  0  0  0
   41.4350   31.7630   39.2710 C   0  0  0  0  0  0  0  0  0  0  0  0
   41.5520   30.5860   38.8960 O   0  0  0  0  0  0  0  0  0  0  0  0
   40.0960   32.2490   39.0130 N   0  0  0  0  0  0  0  0  0  0  0  0
   39.8940   33.2910   39.1290 H   0  0  0  0  0  0  0  0  0  0  0  0
   43.6170   32.6640   37.4250 Cl  0  0  0  0  0  0  0  0  0  0  0  0
   43.4490   33.1200   39.1100 C   0  0  0  0  0  0  0  0  0  0  0  0
   42.3870   32.6380   39.8810 C   0  0  0  0  0  0  0  0  0  0  0  0
   42.2530   32.9950   41.2090 C   0  0  0  0  0  0  0  0  0  0  0  0
   41.4120   32.6090   41.8080 H   0  0  0  0  0  0  0  0  0  0  0  0
   43.1950   33.8530   41.7870 C   0  0  0  0  0  0  0  0  0  0  0  0
   43.0830   34.1320   42.8410 H   0  0  0  0  0  0  0  0  0  0  0  0
   44.2500   34.3260   41.0030 C   0  0  0  0  0  0  0  0  0  0  0  0
   44.9710   34.9850   41.4610 H   0  0  0  0  0  0  0  0  0  0  0  0
   44.3690   33.9540   39.6680 C   0  0  0  0  0  0  0  0  0  0  0  0
   45.7430   34.6160   38.7800 Cl  0  0  0  0  0  0  0  0  0  0  0  0
   36.9940   24.3570   41.2310 C   0  0  0  0  0  0  0  0  0  0  0  0
   37.2480   22.9970   41.1150 F   0  0  0  0  0  0  0  0  0  0  0  0
   36.0860   24.6450   40.2010 F   0  0  0  0  0  0  0  0  0  0  0  0
   36.4900   24.6120   42.4720 F   0  0  0  0  0  0  0  0  0  0  0  0
  1  2  2  0  0  0  0
  1  6  1  0  0  0  0
  2  3  1  0  0  0  0
  3  4  2  0  0  0  0
  3 40  1  0  0  0  0
  5 16  1  0  0  0  0
  5  4  1  0  0  0  0
  6  5  2  0  0  0  0
  7  8  2  0  0  0  0
  9  1  1  0  0  0  0
  9  7  1  0  0  0  0
 10  7  1  0  0  0  0
 10 11  1  0  0  0  0
 11 19  1  0  0  0  0
 11 18  1  0  0  0  0
 12 21  1  0  0  0  0
 12 20  1  0  0  0  0
 12 11  1  0  0  0  0
 13 14  1  0  0  0  0
 13 12  1  0  0  0  0
 14 24  1  6  0  0  0
 14 27  1  0  0  0  0
 14 10  1  0  0  0  0
 15  2  1  0  0  0  0
 17  9  1  0  0  0  0
 22 13  1  0  0  0  0
 23 13  1  0  0  0  0
 25 31  1  0  0  0  0
 26 25  2  0  0  0  0
 27 28  1  0  0  0  0
 27 25  1  0  0  0  0
 29 30  1  0  0  0  0
 30 38  2  0  0  0  0
 30 31  1  0  0  0  0
 31 32  2  0  0  0  0
 32 34  1  0  0  0  0
 32 33  1  0  0  0  0
 34 35  1  0  0  0  0
 36 37  1  0  0  0  0
 36 34  2  0  0  0  0
 38 36  1  0  0  0  0
 39 38  1  0  0  0  0
 40 43  1  0  0  0  0
 41 40  1  0  0  0  0
 42 40  1  0  0  0  0
M  END
>  <minimizedAffinity>
-5.95723724

$$$$

 OpenBabel03252503333D

 43 45  0  0  1  0  0  0  0  0999 V2000
   39.0230   29.9230   39.2790 C   0  0  0  0  0  0  0  0  0  0  0  0
   39.0770   31.2020   39.9100 C   0  0  0  0  0  0  0  0  0  0  0  0
   38.4050   32.2450   39.2420 C   0  0  0  0  0  0  0  0  0  0  0  0
   37.7760   31.9610   38.0860 N   0  0  0  0  0  0  0  0  0  0  0  0
   37.7570   30.7290   37.5340 C   0  0  0  0  0  0  0  0  0  0  0  0
   38.3890   29.7050   38.1420 N   0  0  0  0  0  0  0  0  0  0  0  0
   38.9530   28.3320   41.0010 C   0  0  0  0  0  0  0  0  0  0  0  0
   37.8780   28.9340   41.3410 O   0  0  0  0  0  0  0  0  0  0  0  0
   39.6840   28.8060   39.8940 N   0  0  0  0  0  0  0  0  0  0  0  0
   39.3370   27.2080   41.7760 N   0  0  0  0  0  0  0  0  0  0  0  0
   38.6990   26.9780   43.0860 C   0  0  0  0  0  0  0  0  0  0  0  0
   39.7940   26.3100   43.8590 C   0  0  0  0  0  0  0  0  0  0  0  0
   40.9290   26.1130   42.8960 C   0  0  0  0  0  0  0  0  0  0  0  0
   40.2700   26.1460   41.5380 C   0  0  1  0  0  0  0  0  0  0  0  0
   39.6110   31.2970   40.8290 H   0  0  0  0  0  0  0  0  0  0  0  0
   37.2230   30.5820   36.5910 H   0  0  0  0  0  0  0  0  0  0  0  0
   40.5800   28.3470   39.6240 H   0  0  0  0  0  0  0  0  0  0  0  0
   38.3220   27.8920   43.5380 H   0  0  0  0  0  0  0  0  0  0  0  0
   37.8970   26.2100   42.8850 H   0  0  0  0  0  0  0  0  0  0  0  0
   39.4850   25.3150   44.2260 H   0  0  0  0  0  0  0  0  0  0  0  0
   40.0740   26.9010   44.7510 H   0  0  0  0  0  0  0  0  0  0  0  0
   41.4090   27.1550   42.9090 H   0  0  0  0  0  0  0  0  0  0  0  0
   41.7270   25.4890   43.1370 H   0  0  0  0  0  0  0  0  0  0  0  0
   41.0790   26.2890   40.8320 H   0  0  0  0  0  0  0  0  0  0  0  0
   39.2560   24.5230   39.8220 C   0  0  0  0  0  0  0  0  0  0  0  0
   39.8890   25.2180   39.0120 O   0  0  0  0  0  0  0  0  0  0  0  0
   39.5410   24.9360   41.1800 N   0  0  0  0  0  0  0  0  0  0  0  0
   39.2000   24.3260   41.9870 H   0  0  0  0  0  0  0  0  0  0  0  0
   36.3760   25.3490   39.7690 Cl  0  0  0  0  0  0  0  0  0  0  0  0
   36.9760   23.7140   39.5550 C   0  0  0  0  0  0  0  0  0  0  0  0
   38.3460   23.4420   39.6000 C   0  0  0  0  0  0  0  0  0  0  0  0
   38.8210   22.1560   39.4320 C   0  0  0  0  0  0  0  0  0  0  0  0
   39.9040   21.9520   39.4680 H   0  0  0  0  0  0  0  0  0  0  0  0
   37.9140   21.1130   39.2150 C   0  0  0  0  0  0  0  0  0  0  0  0
   38.2980   20.0940   39.0830 H   0  0  0  0  0  0  0  0  0  0  0  0
   36.5480   21.4010   39.1740 C   0  0  0  0  0  0  0  0  0  0  0  0
   35.8590   20.5880   39.0070 H   0  0  0  0  0  0  0  0  0  0  0  0
   36.0900   22.7030   39.3450 C   0  0  0  0  0  0  0  0  0  0  0  0
   34.3420   22.9440   39.2720 Cl  0  0  0  0  0  0  0  0  0  0  0  0
   38.4770   33.5430   39.9100 C   0  0  0  0  0  0  0  0  0  0  0  0
   38.5280   33.3310   41.2810 F   0  0  0  0  0  0  0  0  0  0  0  0
   37.2490   34.1830   39.6870 F   0  0  0  0  0  0  0  0  0  0  0  0
   39.5470   34.3000   39.5360 F   0  0  0  0  0  0  0  0  0  0  0  0
  1  9  1  0  0  0  0
  1  2  1  0  0  0  0
  2 15  1  0  0  0  0
  3 40  1  0  0  0  0
  3  2  2  0  0  0  0
  4  3  1  0  0  0  0
  5  4  2  0  0  0  0
  5  6  1  0  0  0  0
  6  1  2  0  0  0  0
  7  8  2  0  0  0  0
  7 10  1  0  0  0  0
  9  7  1  0  0  0  0
 10 11  1  0  0  0  0
 11 18  1  0  0  0  0
 11 12  1  0  0  0  0
 12 20  1  0  0  0  0
 12 21  1  0  0  0  0
 13 22  1  0  0  0  0
 13 23  1  0  0  0  0
 13 12  1  0  0  0  0
 14 24  1  6  0  0  0
 14 10  1  0  0  0  0
 14 13  1  0  0  0  0
 16  5  1  0  0  0  0
 17  9  1  0  0  0  0
 19 11  1  0  0  0  0
 25 27  1  0  0  0  0
 26 25  2  0  0  0  0
 27 14  1  0  0  0  0
 27 28  1  0  0  0  0
 30 31  1  0  0  0  0
 30 29  1  0  0  0  0
 31 25  1  0  0  0  0
 32 33  1  0  0  0  0
 32 31  2  0  0  0  0
 34 32  1  0  0  0  0
 35 34  1  0  0  0  0
 36 34  2  0  0  0  0
 36 38  1  0  0  0  0
 37 36  1  0  0  0  0
 38 30  2  0  0  0  0
 39 38  1  0  0  0  0
 40 41  1  0  0  0  0
 42 40  1  0  0  0  0
 43 40  1  0  0  0  0
M  END
>  <minimizedAffinity>
-5.91964102

$$$$

 OpenBabel03252503333D

 43 45  0  0  1  0  0  0  0  0999 V2000
   36.4300   24.3910   39.7180 C   0  0  0  0  0  0  0  0  0  0  0  0
   36.5210   22.9670   39.7270 C   0  0  0  0  0  0  0  0  0  0  0  0
   35.9770   22.3100   38.6060 C   0  0  0  0  0  0  0  0  0  0  0  0
   35.4260   23.0590   37.6330 N   0  0  0  0  0  0  0  0  0  0  0  0
   35.3670   24.4080   37.6770 C   0  0  0  0  0  0  0  0  0  0  0  0
   35.8760   25.0730   38.7330 N   0  0  0  0  0  0  0  0  0  0  0  0
   38.3670   25.1910   40.7730 C   0  0  0  0  0  0  0  0  0  0  0  0
   38.9780   24.5730   39.8360 O   0  0  0  0  0  0  0  0  0  0  0  0
   36.9600   25.1380   40.8250 N   0  0  0  0  0  0  0  0  0  0  0  0
   39.1630   25.8990   41.7080 N   0  0  0  0  0  0  0  0  0  0  0  0
   40.6150   25.6430   41.7660 C   0  0  0  0  0  0  0  0  0  0  0  0
   40.9240   25.8880   43.2100 C   0  0  0  0  0  0  0  0  0  0  0  0
   39.6480   26.3700   43.8370 C   0  0  0  0  0  0  0  0  0  0  0  0
   38.8470   26.9080   42.6750 C   0  0  1  0  0  0  0  0  0  0  0  0
   36.9840   22.4900   40.5620 H   0  0  0  0  0  0  0  0  0  0  0  0
   34.9010   24.9420   36.8440 H   0  0  0  0  0  0  0  0  0  0  0  0
   36.4470   25.6070   41.6010 H   0  0  0  0  0  0  0  0  0  0  0  0
   40.8830   24.6510   41.4100 H   0  0  0  0  0  0  0  0  0  0  0  0
   41.0780   26.4780   41.1650 H   0  0  0  0  0  0  0  0  0  0  0  0
   41.6830   26.6800   43.3360 H   0  0  0  0  0  0  0  0  0  0  0  0
   41.3320   24.9800   43.6930 H   0  0  0  0  0  0  0  0  0  0  0  0
   39.1010   25.3760   44.0110 H   0  0  0  0  0  0  0  0  0  0  0  0
   39.6520   26.8000   44.7850 H   0  0  0  0  0  0  0  0  0  0  0  0
   37.8330   26.9990   43.0460 H   0  0  0  0  0  0  0  0  0  0  0  0
   38.6680   29.4690   42.5280 C   0  0  0  0  0  0  0  0  0  0  0  0
   37.8630   29.3170   43.4590 O   0  0  0  0  0  0  0  0  0  0  0  0
   39.2840   28.2060   42.1770 N   0  0  0  0  0  0  0  0  0  0  0  0
   40.1170   28.2070   41.5080 H   0  0  0  0  0  0  0  0  0  0  0  0
   36.3960   30.7630   41.0630 Cl  0  0  0  0  0  0  0  0  0  0  0  0
   38.0550   31.3330   41.0880 C   0  0  0  0  0  0  0  0  0  0  0  0
   39.0380   30.6470   41.8080 C   0  0  0  0  0  0  0  0  0  0  0  0
   40.3450   31.0940   41.8290 C   0  0  0  0  0  0  0  0  0  0  0  0
   41.1120   30.5460   42.3990 H   0  0  0  0  0  0  0  0  0  0  0  0
   40.6860   32.2500   41.1180 C   0  0  0  0  0  0  0  0  0  0  0  0
   41.7250   32.5990   41.1380 H   0  0  0  0  0  0  0  0  0  0  0  0
   39.6920   32.9230   40.4040 C   0  0  0  0  0  0  0  0  0  0  0  0
   39.9690   33.8130   39.8590 H   0  0  0  0  0  0  0  0  0  0  0  0
   38.3820   32.4570   40.3940 C   0  0  0  0  0  0  0  0  0  0  0  0
   37.2140   33.3930   39.4570 Cl  0  0  0  0  0  0  0  0  0  0  0  0
   36.0840   20.8530   38.6420 C   0  0  0  0  0  0  0  0  0  0  0  0
   34.8430   20.3270   38.9750 F   0  0  0  0  0  0  0  0  0  0  0  0
   36.9160   20.5330   39.7250 F   0  0  0  0  0  0  0  0  0  0  0  0
   36.5010   20.2990   37.4680 F   0  0  0  0  0  0  0  0  0  0  0  0
  1  2  1  0  0  0  0
  1  9  1  0  0  0  0
  2 15  1  0  0  0  0
  3 40  1  0  0  0  0
  3  2  2  0  0  0  0
  4  5  2  0  0  0  0
  4  3  1  0  0  0  0
  5  6  1  0  0  0  0
  6  1  2  0  0  0  0
  7  9  1  0  0  0  0
  7 10  1  0  0  0  0
  8  7  2  0  0  0  0
  9 17  1  0  0  0  0
 10 11  1  0  0  0  0
 10 14  1  0  0  0  0
 11 12  1  0  0  0  0
 12 20  1  0  0  0  0
 12 21  1  0  0  0  0
 12 13  1  0  0  0  0
 13 22  1  0  0  0  0
 13 23  1  0  0  0  0
 14 24  1  1  0  0  0
 14 13  1  0  0  0  0
 16  5  1  0  0  0  0
 18 11  1  0  0  0  0
 19 11  1  0  0  0  0
 25 26  2  0  0  0  0
 27 25  1  0  0  0  0
 27 14  1  0  0  0  0
 28 27  1  0  0  0  0
 29 30  1  0  0  0  0
 30 31  1  0  0  0  0
 31 32  2  0  0  0  0
 31 25  1  0  0  0  0
 32 33  1  0  0  0  0
 34 35  1  0  0  0  0
 34 32  1  0  0  0  0
 36 34  2  0  0  0  0
 37 36  1  0  0  0  0
 38 36  1  0  0  0  0
 38 30  2  0  0  0  0
 39 38  1  0  0  0  0
 40 41  1  0  0  0  0
 40 42  1  0  0  0  0
 43 40  1  0  0  0  0
M  END
>  <minimizedAffinity>
-5.90515089

$$$$

 OpenBabel03252503333D

 43 45  0  0  1  0  0  0  0  0999 V2000
   37.2880   24.6780   39.2410 C   0  0  0  0  0  0  0  0  0  0  0  0
   37.6020   23.3450   39.6440 C   0  0  0  0  0  0  0  0  0  0  0  0
   38.1100   22.5020   38.6350 C   0  0  0  0  0  0  0  0  0  0  0  0
   38.2600   23.0080   37.3970 N   0  0  0  0  0  0  0  0  0  0  0  0
   37.9460   24.2810   37.0720 C   0  0  0  0  0  0  0  0  0  0  0  0
   37.4560   25.1180   38.0080 N   0  0  0  0  0  0  0  0  0  0  0  0
   37.7780   26.0610   41.0710 C   0  0  0  0  0  0  0  0  0  0  0  0
   38.9640   25.6040   40.9370 O   0  0  0  0  0  0  0  0  0  0  0  0
   36.7640   25.6010   40.2080 N   0  0  0  0  0  0  0  0  0  0  0  0
   37.5650   27.0170   42.0960 N   0  0  0  0  0  0  0  0  0  0  0  0
   38.5900   27.2010   43.1410 C   0  0  0  0  0  0  0  0  0  0  0  0
   37.7680   27.5970   44.3280 C   0  0  0  0  0  0  0  0  0  0  0  0
   36.3530   27.7150   43.8390 C   0  0  0  0  0  0  0  0  0  0  0  0
   36.4960   27.9360   42.3520 C   0  0  1  0  0  0  0  0  0  0  0  0
   37.4370   23.0660   40.6600 H   0  0  0  0  0  0  0  0  0  0  0  0
   38.0970   24.6130   36.0410 H   0  0  0  0  0  0  0  0  0  0  0  0
   35.7840   25.9380   40.3250 H   0  0  0  0  0  0  0  0  0  0  0  0
   39.2020   26.3140   43.2930 H   0  0  0  0  0  0  0  0  0  0  0  0
   39.1800   28.1040   42.8100 H   0  0  0  0  0  0  0  0  0  0  0  0
   38.0720   28.5820   44.7250 H   0  0  0  0  0  0  0  0  0  0  0  0
   37.8850   26.8740   45.1570 H   0  0  0  0  0  0  0  0  0  0  0  0
   36.0280   26.6140   43.8450 H   0  0  0  0  0  0  0  0  0  0  0  0
   35.6260   28.1730   44.4250 H   0  0  0  0  0  0  0  0  0  0  0  0
   35.5120   27.7450   41.9400 H   0  0  0  0  0  0  0  0  0  0  0  0
   37.0340   29.7410   40.6020 C   0  0  0  0  0  0  0  0  0  0  0  0
   36.5400   28.9160   39.8170 O   0  0  0  0  0  0  0  0  0  0  0  0
   36.9120   29.2790   41.9680 N   0  0  0  0  0  0  0  0  0  0  0  0
   37.1420   29.9550   42.7630 H   0  0  0  0  0  0  0  0  0  0  0  0
   40.0230   29.6730   40.8120 Cl  0  0  0  0  0  0  0  0  0  0  0  0
   39.0570   31.0820   40.4150 C   0  0  0  0  0  0  0  0  0  0  0  0
   37.6630   30.9990   40.3450 C   0  0  0  0  0  0  0  0  0  0  0  0
   36.9000   32.1080   40.0340 C   0  0  0  0  0  0  0  0  0  0  0  0
   35.8010   32.0320   39.9810 H   0  0  0  0  0  0  0  0  0  0  0  0
   37.5350   33.3300   39.7860 C   0  0  0  0  0  0  0  0  0  0  0  0
   36.9230   34.2060   39.5400 H   0  0  0  0  0  0  0  0  0  0  0  0
   38.9280   33.3960   39.8600 C   0  0  0  0  0  0  0  0  0  0  0  0
   39.4050   34.3440   39.6680 H   0  0  0  0  0  0  0  0  0  0  0  0
   39.6790   32.2690   40.1760 C   0  0  0  0  0  0  0  0  0  0  0  0
   41.4310   32.4750   40.2400 Cl  0  0  0  0  0  0  0  0  0  0  0  0
   38.4220   21.1440   39.0760 C   0  0  0  0  0  0  0  0  0  0  0  0
   37.4270   20.2920   38.6170 F   0  0  0  0  0  0  0  0  0  0  0  0
   38.2960   21.1310   40.4730 F   0  0  0  0  0  0  0  0  0  0  0  0
   39.6320   20.6860   38.6460 F   0  0  0  0  0  0  0  0  0  0  0  0
  1  2  1  0  0  0  0
  1  9  1  0  0  0  0
  2 15  1  0  0  0  0
  3 40  1  0  0  0  0
  3  2  2  0  0  0  0
  4  3  1  0  0  0  0
  5  4  2  0  0  0  0
  5  6  1  0  0  0  0
  6  1  2  0  0  0  0
  7 10  1  0  0  0  0
  8  7  2  0  0  0  0
  9 17  1  0  0  0  0
  9  7  1  0  0  0  0
 10 14  1  0  0  0  0
 10 11  1  0  0  0  0
 11 18  1  0  0  0  0
 11 12  1  0  0  0  0
 12 20  1  0  0  0  0
 12 21  1  0  0  0  0
 13 22  1  0  0  0  0
 13 12  1  0  0  0  0
 13 23  1  0  0  0  0
 14 24  1  6  0  0  0
 14 13  1  0  0  0  0
 16  5  1  0  0  0  0
 19 11  1  0  0  0  0
 25 27  1  0  0  0  0
 26 25  2  0  0  0  0
 27 14  1  0  0  0  0
 27 28  1  0  0  0  0
 30 29  1  0  0  0  0
 31 30  1  0  0  0  0
 31 25  1  0  0  0  0
 32 31  2  0  0  0  0
 33 32  1  0  0  0  0
 34 36  2  0  0  0  0
 34 32  1  0  0  0  0
 35 34  1  0  0  0  0
 36 38  1  0  0  0  0
 37 36  1  0  0  0  0
 38 39  1  0  0  0  0
 38 30  2  0  0  0  0
 40 42  1  0  0  0  0
 41 40  1  0  0  0  0
 43 40  1  0  0  0  0
M  END
>  <minimizedAffinity>
-5.9006691

$$$$
