
 OpenBabel03242520193D

 37 39  0  0  0  0  0  0  0  0999 V2000
   41.5760   35.4750   38.7630 C   0  0  0  0  0  0  0  0  0  0  0  0
   41.7760   36.5500   38.5580 H   0  0  0  0  0  0  0  0  0  0  0  0
   41.3670   34.9330   37.8120 H   0  0  0  0  0  0  0  0  0  0  0  0
   44.2250   34.4720   41.2650 C   0  0  0  0  0  0  0  0  0  0  0  0
   43.1270   35.1480   40.6820 C   0  0  0  0  0  0  0  0  0  0  0  0
   42.7280   34.7920   39.4010 C   0  0  0  0  0  0  0  0  0  0  0  0
   43.4350   33.7950   38.7790 N   0  0  0  0  0  0  0  0  0  0  0  0
   44.4830   33.1780   39.3840 C   0  0  0  0  0  0  0  0  0  0  0  0
   44.8730   33.5110   40.6110 N   0  0  0  0  0  0  0  0  0  0  0  0
   42.6460   35.9130   41.2570 H   0  0  0  0  0  0  0  0  0  0  0  0
   44.9420   32.4100   38.7660 H   0  0  0  0  0  0  0  0  0  0  0  0
   44.6470   34.8670   42.6320 C   0  0  0  0  0  0  0  0  0  0  0  0
   46.1450   35.3100   42.6830 C   0  0  0  0  0  0  0  0  0  0  0  0
   45.0140   36.1810   43.0190 C   0  0  0  0  0  0  0  0  0  0  0  0
   44.3620   34.1070   43.3840 H   0  0  0  0  0  0  0  0  0  0  0  0
   46.6630   35.4430   41.7170 H   0  0  0  0  0  0  0  0  0  0  0  0
   46.7260   34.7740   43.4590 H   0  0  0  0  0  0  0  0  0  0  0  0
   44.8410   37.0490   42.3390 H   0  0  0  0  0  0  0  0  0  0  0  0
   44.9310   36.4660   44.0980 H   0  0  0  0  0  0  0  0  0  0  0  0
   40.3430   35.3600   39.6220 C   0  0  0  0  0  0  0  0  0  0  0  0
   40.5690   35.8210   40.5970 H   0  0  0  0  0  0  0  0  0  0  0  0
   39.4820   35.9260   39.2000 H   0  0  0  0  0  0  0  0  0  0  0  0
   39.6840   33.4910   41.0600 C   0  0  0  0  0  0  0  0  0  0  0  0
   39.8710   34.1040   42.1420 O   0  0  0  0  0  0  0  0  0  0  0  0
   39.8870   33.9860   39.7510 N   0  0  0  0  0  0  0  0  0  0  0  0
   39.7280   33.4240   38.8940 H   0  0  0  0  0  0  0  0  0  0  0  0
   41.9340   31.7510   41.8000 Cl  0  0  0  0  0  0  0  0  0  0  0  0
   40.2590   31.2630   41.5560 C   0  0  0  0  0  0  0  0  0  0  0  0
   39.1970   32.1030   41.2030 C   0  0  0  0  0  0  0  0  0  0  0  0
   37.9460   31.6080   41.0430 C   0  0  0  0  0  0  0  0  0  0  0  0
   37.2300   32.3460   40.7760 H   0  0  0  0  0  0  0  0  0  0  0  0
   37.7260   30.2580   41.2320 C   0  0  0  0  0  0  0  0  0  0  0  0
   36.7030   29.9010   41.0930 H   0  0  0  0  0  0  0  0  0  0  0  0
   38.7390   29.3790   41.5830 C   0  0  0  0  0  0  0  0  0  0  0  0
   38.5100   28.3250   41.7190 H   0  0  0  0  0  0  0  0  0  0  0  0
   40.0250   29.9010   41.7450 C   0  0  0  0  0  0  0  0  0  0  0  0
   41.2980   28.7700   42.1890 Cl  0  0  0  0  0  0  0  0  0  0  0  0
  1  6  1  0  0  0  0
  1 20  1  0  0  0  0
  2  1  1  0  0  0  0
  3  1  1  0  0  0  0
  4 12  1  0  0  0  0
  5 10  1  0  0  0  0
  5  4  1  0  0  0  0
  6  5  2  0  0  0  0
  7  8  2  0  0  0  0
  7  6  1  0  0  0  0
  8  9  1  0  0  0  0
  9  4  2  0  0  0  0
 11  8  1  0  0  0  0
 12 13  1  0  0  0  0
 12 14  1  0  0  0  0
 12 15  1  0  0  0  0
 13 14  1  0  0  0  0
 13 17  1  0  0  0  0
 14 19  1  0  0  0  0
 16 13  1  0  0  0  0
 18 14  1  0  0  0  0
 20 25  1  0  0  0  0
 20 21  1  0  0  0  0
 22 20  1  0  0  0  0
 23 29  1  0  0  0  0
 23 24  2  0  0  0  0
 25 23  1  0  0  0  0
 26 25  1  0  0  0  0
 28 36  1  0  0  0  0
 28 27  1  0  0  0  0
 29 28  2  0  0  0  0
 30 29  1  0  0  0  0
 30 32  2  0  0  0  0
 31 30  1  0  0  0  0
 32 34  1  0  0  0  0
 33 32  1  0  0  0  0
 34 35  1  0  0  0  0
 34 36  2  0  0  0  0
 36 37  1  0  0  0  0
M  END
>  <minimizedAffinity>
-5.0895257

>  <minimizedRMSD>
1.64136469

$$$$
