
 OpenBabel03242510223D

 40 43  0  0  1  0  0  0  0  0999 V2000
   48.0510   33.2200   43.1280 N   0  0  0  0  0  0  0  0  0  0  0  0
   49.2240   33.2780   42.3810 C   0  0  0  0  0  0  0  0  0  0  0  0
   50.3790   32.8430   42.6340 O   0  0  0  0  0  0  0  0  0  0  0  0
   47.5210   34.1190   43.0950 H   0  0  0  0  0  0  0  0  0  0  0  0
   46.2670   32.0690   44.3880 C   0  0  1  0  0  0  0  0  0  0  0  0
   46.4160   31.3570   43.1970 C   0  0  0  0  0  0  0  0  0  0  0  0
   47.6450   32.0620   43.8430 C   0  0  1  0  0  0  0  0  0  0  0  0
   46.0790   31.5760   45.3810 H   0  0  0  0  0  0  0  0  0  0  0  0
   46.4180   30.2230   43.2430 H   0  0  0  0  0  0  0  0  0  0  0  0
   46.1430   31.6770   42.1750 H   0  0  0  0  0  0  0  0  0  0  0  0
   48.4070   31.3060   44.1290 H   0  0  0  0  0  0  0  0  0  0  0  0
   45.0390   33.9790   43.1190 C   0  0  0  0  0  0  0  0  0  0  0  0
   45.5390   33.4190   44.3410 C   0  0  0  0  0  0  0  0  0  0  0  0
   45.3630   34.1540   45.4950 C   0  0  0  0  0  0  0  0  0  0  0  0
   44.7380   35.3500   45.4240 N   0  0  0  0  0  0  0  0  0  0  0  0
   44.2700   35.8670   44.2610 C   0  0  0  0  0  0  0  0  0  0  0  0
   44.4300   35.1480   43.0690 N   0  0  0  0  0  0  0  0  0  0  0  0
   45.1530   33.4020   42.2230 H   0  0  0  0  0  0  0  0  0  0  0  0
   45.7150   33.7900   46.4440 H   0  0  0  0  0  0  0  0  0  0  0  0
   43.7680   36.8260   44.2050 H   0  0  0  0  0  0  0  0  0  0  0  0
   49.2090   33.9540   41.0220 C   0  0  2  0  0  0  0  0  0  0  0  0
   48.5650   35.3880   40.9670 C   0  0  0  0  0  0  0  0  0  0  0  0
   47.9490   34.1980   40.3080 C   0  0  1  0  0  0  0  0  0  0  0  0
   50.1540   33.9650   40.4450 H   0  0  0  0  0  0  0  0  0  0  0  0
   48.1310   35.7110   41.9430 H   0  0  0  0  0  0  0  0  0  0  0  0
   49.0080   36.1250   40.3080 H   0  0  0  0  0  0  0  0  0  0  0  0
   47.0420   33.7140   40.7260 H   0  0  0  0  0  0  0  0  0  0  0  0
   47.9850   34.1360   38.7970 C   0  0  0  0  0  0  0  0  0  0  0  0
   48.6490   34.9560   38.1800 O   0  0  0  0  0  0  0  0  0  0  0  0
   49.6030   31.7020   38.2290 Cl  0  0  0  0  0  0  0  0  0  0  0  0
   47.9300   31.9650   37.7470 C   0  0  0  0  0  0  0  0  0  0  0  0
   47.2490   33.1230   38.0500 C   0  0  0  0  0  0  0  0  0  0  0  0
   45.9460   33.2020   37.6140 C   0  0  0  0  0  0  0  0  0  0  0  0
   45.4140   34.1080   37.8520 H   0  0  0  0  0  0  0  0  0  0  0  0
   45.3450   32.1790   36.9110 C   0  0  0  0  0  0  0  0  0  0  0  0
   44.3000   32.3520   36.6140 H   0  0  0  0  0  0  0  0  0  0  0  0
   46.0210   31.0160   36.6050 C   0  0  0  0  0  0  0  0  0  0  0  0
   45.5200   30.2390   36.0550 H   0  0  0  0  0  0  0  0  0  0  0  0
   47.3280   30.9190   37.0330 C   0  0  0  0  0  0  0  0  0  0  0  0
   48.2170   29.4560   36.6610 Cl  0  0  0  0  0  0  0  0  0  0  0  0
  1  7  1  0  0  0  0
  2  3  2  0  0  0  0
  2  1  1  0  0  0  0
  4  1  1  0  0  0  0
  5  8  1  1  0  0  0
  6  9  1  0  0  0  0
  6  7  1  0  0  0  0
  6  5  1  0  0  0  0
  7 11  1  1  0  0  0
  7  5  1  0  0  0  0
 10  6  1  0  0  0  0
 12 13  1  0  0  0  0
 13  5  1  0  0  0  0
 13 14  2  0  0  0  0
 14 19  1  0  0  0  0
 15 14  1  0  0  0  0
 16 15  2  0  0  0  0
 17 12  2  0  0  0  0
 17 16  1  0  0  0  0
 18 12  1  0  0  0  0
 20 16  1  0  0  0  0
 21 24  1  6  0  0  0
 21  2  1  0  0  0  0
 22 21  1  0  0  0  0
 22 25  1  0  0  0  0
 23 27  1  1  0  0  0
 23 22  1  0  0  0  0
 23 21  1  0  0  0  0
 26 22  1  0  0  0  0
 28 23  1  0  0  0  0
 29 28  2  0  0  0  0
 31 32  1  0  0  0  0
 31 30  1  0  0  0  0
 32 28  1  0  0  0  0
 33 34  1  0  0  0  0
 33 32  2  0  0  0  0
 35 33  1  0  0  0  0
 36 35  1  0  0  0  0
 37 35  2  0  0  0  0
 37 39  1  0  0  0  0
 38 37  1  0  0  0  0
 39 31  2  0  0  0  0
 40 39  1  0  0  0  0
M  END
>  <minimizedAffinity>
-4.91983271

>  <minimizedRMSD>
0.880448937

$$$$
