
 OpenBabel03242521173D

 40 42  0  0  0  0  0  0  0  0999 V2000
   46.4620   32.6820   46.5410 C   0  0  0  0  0  0  0  0  0  0  0  0
   47.3790   33.1470   46.9940 H   0  0  0  0  0  0  0  0  0  0  0  0
   46.8190   31.7970   45.9920 H   0  0  0  0  0  0  0  0  0  0  0  0
   44.5690   35.5100   44.9820 C   0  0  0  0  0  0  0  0  0  0  0  0
   45.1400   35.5180   43.6920 C   0  0  0  0  0  0  0  0  0  0  0  0
   46.1180   34.5740   43.4410 C   0  0  0  0  0  0  0  0  0  0  0  0
   46.4880   33.6850   44.4360 N   0  0  0  0  0  0  0  0  0  0  0  0
   45.8980   33.7340   45.6500 C   0  0  0  0  0  0  0  0  0  0  0  0
   44.9360   34.6390   45.9420 N   0  0  0  0  0  0  0  0  0  0  0  0
   43.7990   36.2330   45.2200 H   0  0  0  0  0  0  0  0  0  0  0  0
   44.8330   36.2150   42.9520 H   0  0  0  0  0  0  0  0  0  0  0  0
   46.7140   34.5560   42.1480 N   0  0  0  0  0  0  0  0  0  0  0  0
   47.9120   35.1650   41.9870 C   0  0  0  0  0  0  0  0  0  0  0  0
   48.5020   35.1520   40.7310 C   0  0  0  0  0  0  0  0  0  0  0  0
   47.8540   34.5300   39.7090 C   0  0  0  0  0  0  0  0  0  0  0  0
   48.4180   34.5330   38.5680 O   0  0  0  0  0  0  0  0  0  0  0  0
   46.6690   33.9270   39.8640 N   0  0  0  0  0  0  0  0  0  0  0  0
   46.1320   33.9640   41.1040 C   0  0  0  0  0  0  0  0  0  0  0  0
   45.0270   33.4270   41.3450 O   0  0  0  0  0  0  0  0  0  0  0  0
   48.4350   35.6630   42.7970 H   0  0  0  0  0  0  0  0  0  0  0  0
   49.4530   35.6260   40.5680 H   0  0  0  0  0  0  0  0  0  0  0  0
   46.1590   33.4460   39.0960 H   0  0  0  0  0  0  0  0  0  0  0  0
   45.4970   32.3520   47.6600 C   0  0  0  0  0  0  0  0  0  0  0  0
   46.0150   32.2950   48.6170 H   0  0  0  0  0  0  0  0  0  0  0  0
   44.6910   33.1410   47.6790 H   0  0  0  0  0  0  0  0  0  0  0  0
   45.5160   29.9170   47.5510 C   0  0  0  0  0  0  0  0  0  0  0  0
   46.7150   29.9760   47.8930 O   0  0  0  0  0  0  0  0  0  0  0  0
   44.8290   31.1140   47.3410 N   0  0  0  0  0  0  0  0  0  0  0  0
   43.8590   31.0900   46.9610 H   0  0  0  0  0  0  0  0  0  0  0  0
   44.6480   29.3800   44.7700 Cl  0  0  0  0  0  0  0  0  0  0  0  0
   44.4780   28.2600   46.1180 C   0  0  0  0  0  0  0  0  0  0  0  0
   44.9150   28.5950   47.3970 C   0  0  0  0  0  0  0  0  0  0  0  0
   44.7630   27.6880   48.4230 C   0  0  0  0  0  0  0  0  0  0  0  0
   45.1060   27.9610   49.4100 H   0  0  0  0  0  0  0  0  0  0  0  0
   44.1780   26.4760   48.1350 C   0  0  0  0  0  0  0  0  0  0  0  0
   44.0780   25.7850   48.9810 H   0  0  0  0  0  0  0  0  0  0  0  0
   43.7260   26.0830   46.8930 C   0  0  0  0  0  0  0  0  0  0  0  0
   43.2700   25.1180   46.7100 H   0  0  0  0  0  0  0  0  0  0  0  0
   43.8970   27.0290   45.8780 C   0  0  0  0  0  0  0  0  0  0  0  0
   43.3530   26.6330   44.2490 Cl  0  0  0  0  0  0  0  0  0  0  0  0
  1  2  1  0  0  0  0
  1 23  1  0  0  0  0
  3  1  1  0  0  0  0
  4 10  1  0  0  0  0
  4  9  1  0  0  0  0
  5  4  2  0  0  0  0
  6  5  1  0  0  0  0
  6  7  2  0  0  0  0
  7  8  1  0  0  0  0
  8  9  2  0  0  0  0
  8  1  1  0  0  0  0
 11  5  1  0  0  0  0
 12  6  1  0  0  0  0
 13 12  1  0  0  0  0
 13 20  1  0  0  0  0
 14 13  2  0  0  0  0
 15 17  1  0  0  0  0
 15 14  1  0  0  0  0
 16 15  2  0  0  0  0
 17 18  1  0  0  0  0
 18 19  2  0  0  0  0
 18 12  1  0  0  0  0
 21 14  1  0  0  0  0
 22 17  1  0  0  0  0
 23 25  1  0  0  0  0
 23 24  1  0  0  0  0
 26 27  2  0  0  0  0
 28 26  1  0  0  0  0
 28 23  1  0  0  0  0
 29 28  1  0  0  0  0
 30 31  1  0  0  0  0
 31 32  1  0  0  0  0
 32 26  1  0  0  0  0
 32 33  2  0  0  0  0
 33 34  1  0  0  0  0
 35 33  1  0  0  0  0
 35 36  1  0  0  0  0
 37 35  2  0  0  0  0
 38 37  1  0  0  0  0
 39 31  2  0  0  0  0
 39 37  1  0  0  0  0
 40 39  1  0  0  0  0
M  END
>  <minimizedAffinity>
-6.55276489

>  <minimizedRMSD>
1.49834657

$$$$
