
 OpenBabel03242519253D

 42 45  0  0  0  0  0  0  0  0999 V2000
   47.8740   33.7220   42.8820 C   0  0  0  0  0  0  0  0  0  0  0  0
   48.5980   34.9260   42.7020 C   0  0  0  0  0  0  0  0  0  0  0  0
   49.9610   34.8830   42.3800 C   0  0  0  0  0  0  0  0  0  0  0  0
   50.5220   33.6350   42.2570 N   0  0  0  0  0  0  0  0  0  0  0  0
   49.7950   32.4880   42.4380 C   0  0  0  0  0  0  0  0  0  0  0  0
   48.5010   32.5350   42.7430 N   0  0  0  0  0  0  0  0  0  0  0  0
   48.2300   35.9210   42.7810 H   0  0  0  0  0  0  0  0  0  0  0  0
   50.5590   35.7470   42.2320 H   0  0  0  0  0  0  0  0  0  0  0  0
   46.4520   33.8730   43.2230 C   0  0  0  0  0  0  0  0  0  0  0  0
   45.7620   34.8850   42.4250 C   0  0  0  0  0  0  0  0  0  0  0  0
   45.3430   36.0880   43.1850 C   0  0  0  0  0  0  0  0  0  0  0  0
   44.5490   35.7650   44.4410 C   0  0  0  0  0  0  0  0  0  0  0  0
   44.9810   34.5000   45.1300 C   0  0  0  0  0  0  0  0  0  0  0  0
   46.4100   34.1570   44.7360 C   0  0  0  0  0  0  0  0  0  0  0  0
   45.9660   32.8600   43.1210 H   0  0  0  0  0  0  0  0  0  0  0  0
   44.8280   34.4500   41.9620 H   0  0  0  0  0  0  0  0  0  0  0  0
   46.3640   35.2070   41.5730 H   0  0  0  0  0  0  0  0  0  0  0  0
   44.6110   36.6420   42.5270 H   0  0  0  0  0  0  0  0  0  0  0  0
   46.1050   36.8160   43.4440 H   0  0  0  0  0  0  0  0  0  0  0  0
   44.6520   36.5990   45.1750 H   0  0  0  0  0  0  0  0  0  0  0  0
   43.4520   35.6870   44.2340 H   0  0  0  0  0  0  0  0  0  0  0  0
   44.9330   34.5800   46.2250 H   0  0  0  0  0  0  0  0  0  0  0  0
   44.3460   33.6400   44.7840 H   0  0  0  0  0  0  0  0  0  0  0  0
   46.9890   35.0870   44.8790 H   0  0  0  0  0  0  0  0  0  0  0  0
   46.7690   33.2880   45.2890 H   0  0  0  0  0  0  0  0  0  0  0  0
   50.5410   31.2490   42.2770 C   0  0  0  0  0  0  0  0  0  0  0  0
   51.5580   31.2480   41.3860 N   0  0  0  0  0  0  0  0  0  0  0  0
   52.1360   30.0300   41.3670 C   0  0  0  0  0  0  0  0  0  0  0  0
   51.4580   29.2670   42.2660 N   0  0  0  0  0  0  0  0  0  0  0  0
   50.4930   30.0090   42.8160 N   0  0  0  0  0  0  0  0  0  0  0  0
   52.9740   29.7540   40.7430 H   0  0  0  0  0  0  0  0  0  0  0  0
   49.8480   27.3760   40.7040 Cl  0  0  0  0  0  0  0  0  0  0  0  0
   51.0510   26.9100   41.9060 C   0  0  0  0  0  0  0  0  0  0  0  0
   51.7370   27.9060   42.5670 C   0  0  0  0  0  0  0  0  0  0  0  0
   52.6820   27.5890   43.5100 C   0  0  0  0  0  0  0  0  0  0  0  0
   53.2390   28.3360   44.0490 H   0  0  0  0  0  0  0  0  0  0  0  0
   52.9390   26.2510   43.7890 C   0  0  0  0  0  0  0  0  0  0  0  0
   53.6870   26.0190   44.5350 H   0  0  0  0  0  0  0  0  0  0  0  0
   52.2340   25.2520   43.1090 C   0  0  0  0  0  0  0  0  0  0  0  0
   52.4370   24.2170   43.3300 H   0  0  0  0  0  0  0  0  0  0  0  0
   51.2910   25.5770   42.1690 C   0  0  0  0  0  0  0  0  0  0  0  0
   50.3760   24.3570   41.2840 Cl  0  0  0  0  0  0  0  0  0  0  0  0
  1  9  1  0  0  0  0
  2  7  1  0  0  0  0
  2  1  2  0  0  0  0
  3  2  1  0  0  0  0
  4  3  2  0  0  0  0
  4  5  1  0  0  0  0
  5  6  2  0  0  0  0
  6  1  1  0  0  0  0
  8  3  1  0  0  0  0
  9 14  1  0  0  0  0
 10 11  1  0  0  0  0
 10  9  1  0  0  0  0
 11 19  1  0  0  0  0
 11 12  1  0  0  0  0
 12 13  1  0  0  0  0
 12 20  1  0  0  0  0
 13 22  1  0  0  0  0
 14 24  1  0  0  0  0
 14 13  1  0  0  0  0
 14 25  1  0  0  0  0
 15  9  1  0  0  0  0
 16 10  1  0  0  0  0
 17 10  1  0  0  0  0
 18 11  1  0  0  0  0
 21 12  1  0  0  0  0
 23 13  1  0  0  0  0
 26  5  1  0  0  0  0
 26 30  2  0  0  0  0
 27 26  1  0  0  0  0
 28 27  2  0  0  0  0
 28 29  1  0  0  0  0
 29 34  1  0  0  0  0
 29 30  1  0  0  0  0
 31 28  1  0  0  0  0
 32 33  1  0  0  0  0
 33 41  2  0  0  0  0
 33 34  1  0  0  0  0
 34 35  2  0  0  0  0
 35 37  1  0  0  0  0
 35 36  1  0  0  0  0
 37 38  1  0  0  0  0
 39 40  1  0  0  0  0
 39 37  2  0  0  0  0
 41 39  1  0  0  0  0
 42 41  1  0  0  0  0
M  END
>  <minimizedAffinity>
-4.14889812

>  <minimizedRMSD>
0.242647529

$$$$
