
 OpenBabel03252507463D

 39 41  0  0  0  0  0  0  0  0999 V2000
   48.5110   33.9660   41.3600 C   0  0  0  0  0  0  0  0  0  0  0  0
   48.8640   32.6650   40.9990 C   0  0  0  0  0  0  0  0  0  0  0  0
   50.0890   32.1360   41.3950 C   0  0  0  0  0  0  0  0  0  0  0  0
   50.9120   32.9290   42.1350 N   0  0  0  0  0  0  0  0  0  0  0  0
   50.5340   34.1890   42.4670 C   0  0  0  0  0  0  0  0  0  0  0  0
   49.3610   34.6690   42.0770 N   0  0  0  0  0  0  0  0  0  0  0  0
   50.3500   31.1290   41.1090 H   0  0  0  0  0  0  0  0  0  0  0  0
   51.2480   34.7620   43.0620 H   0  0  0  0  0  0  0  0  0  0  0  0
   47.2020   34.4480   40.9030 C   0  0  0  0  0  0  0  0  0  0  0  0
   46.6530   33.7170   40.3210 H   0  0  0  0  0  0  0  0  0  0  0  0
   47.4240   35.2930   40.1880 H   0  0  0  0  0  0  0  0  0  0  0  0
   46.3780   35.0510   41.9940 C   0  0  0  0  0  0  0  0  0  0  0  0
   46.6300   34.5650   42.9600 H   0  0  0  0  0  0  0  0  0  0  0  0
   46.5910   36.1360   42.1560 H   0  0  0  0  0  0  0  0  0  0  0  0
   44.9100   34.9730   41.7540 C   0  0  0  0  0  0  0  0  0  0  0  0
   44.0110   35.4620   42.7510 C   0  0  0  0  0  0  0  0  0  0  0  0
   42.3590   35.1480   42.0010 S   0  0  0  0  0  0  0  0  0  0  0  0
   43.1760   34.4040   40.4530 C   0  0  0  0  0  0  0  0  0  0  0  0
   44.2810   34.4990   40.7130 N   0  0  0  0  0  0  0  0  0  0  0  0
   44.2660   35.9040   43.7060 H   0  0  0  0  0  0  0  0  0  0  0  0
   42.4420   33.9170   39.3780 O   0  0  0  0  0  0  0  0  0  0  0  0
   40.4830   34.3010   37.6430 O   0  0  0  0  0  0  0  0  0  0  0  0
   41.5490   35.0290   38.4540 P   0  0  0  0  0  0  0  0  0  0  0  0
   40.7940   36.1040   39.5320 O   0  0  0  0  0  0  0  0  0  0  0  0
   40.2480   35.6190   40.1720 H   0  0  0  0  0  0  0  0  0  0  0  0
   42.5930   35.9140   37.4640 O   0  0  0  0  0  0  0  0  0  0  0  0
   42.8370   35.3610   36.6810 H   0  0  0  0  0  0  0  0  0  0  0  0
   47.7400   31.6540   40.0190 S   0  0  0  0  0  0  0  0  0  0  0  0
   45.7490   31.5150   42.5290 Cl  0  0  0  0  0  0  0  0  0  0  0  0
   46.4620   30.0340   41.9290 C   0  0  0  0  0  0  0  0  0  0  0  0
   47.3150   30.1320   40.8480 C   0  0  0  0  0  0  0  0  0  0  0  0
   47.9030   28.9930   40.3380 C   0  0  0  0  0  0  0  0  0  0  0  0
   48.5750   28.9580   39.5060 H   0  0  0  0  0  0  0  0  0  0  0  0
   47.6670   27.7500   40.8750 C   0  0  0  0  0  0  0  0  0  0  0  0
   48.1070   26.8220   40.5090 H   0  0  0  0  0  0  0  0  0  0  0  0
   46.8080   27.6330   41.9700 C   0  0  0  0  0  0  0  0  0  0  0  0
   46.5800   26.6660   42.4430 H   0  0  0  0  0  0  0  0  0  0  0  0
   46.2340   28.7840   42.4600 C   0  0  0  0  0  0  0  0  0  0  0  0
   45.1540   28.6730   43.8280 Cl  0  0  0  0  0  0  0  0  0  0  0  0
  1  6  1  0  0  0  0
  2  1  2  0  0  0  0
  2  3  1  0  0  0  0
  3  4  2  0  0  0  0
  4  5  1  0  0  0  0
  5  8  1  0  0  0  0
  6  5  2  0  0  0  0
  7  3  1  0  0  0  0
  9  1  1  0  0  0  0
  9 12  1  0  0  0  0
 10  9  1  0  0  0  0
 11  9  1  0  0  0  0
 12 14  1  0  0  0  0
 12 13  1  0  0  0  0
 15 12  1  0  0  0  0
 15 16  2  0  0  0  0
 16 20  1  0  0  0  0
 17 16  1  0  0  0  0
 18 19  2  0  0  0  0
 18 17  1  0  0  0  0
 19 15  1  0  0  0  0
 21 18  1  0  0  0  0
 22 23  2  0  0  0  0
 23 21  1  0  0  0  0
 23 24  1  0  0  0  0
 24 25  1  0  0  0  0
 26 23  1  0  0  0  0
 27 26  1  0  0  0  0
 28 31  1  0  0  0  0
 28  2  1  0  0  0  0
 30 38  1  0  0  0  0
 30 29  1  0  0  0  0
 31 30  2  0  0  0  0
 32 31  1  0  0  0  0
 32 34  2  0  0  0  0
 33 32  1  0  0  0  0
 34 36  1  0  0  0  0
 35 34  1  0  0  0  0
 36 37  1  0  0  0  0
 36 38  2  0  0  0  0
 38 39  1  0  0  0  0
M  END
>  <minimizedAffinity>
-4.30586481

>  <minimizedRMSD>
0.789429665

$$$$
