
 OpenBabel03252503313D

 43 45  0  0  1  0  0  0  0  0999 V2000
   45.0940   34.1810   41.5170 C   0  0  0  0  0  0  0  0  0  0  0  0
   46.3560   34.5430   40.9570 C   0  0  0  0  0  0  0  0  0  0  0  0
   47.3680   34.8670   41.8820 C   0  0  0  0  0  0  0  0  0  0  0  0
   47.0740   34.8100   43.1950 N   0  0  0  0  0  0  0  0  0  0  0  0
   45.8590   34.4600   43.6690 C   0  0  0  0  0  0  0  0  0  0  0  0
   44.8640   34.1430   42.8160 N   0  0  0  0  0  0  0  0  0  0  0  0
   44.1800   32.5480   40.1030 C   0  0  0  0  0  0  0  0  0  0  0  0
   45.2340   31.8870   40.3960 O   0  0  0  0  0  0  0  0  0  0  0  0
   44.0080   33.8380   40.6420 N   0  0  0  0  0  0  0  0  0  0  0  0
   43.2430   31.9220   39.2420 N   0  0  0  0  0  0  0  0  0  0  0  0
   43.6440   30.7240   38.4820 C   0  0  0  0  0  0  0  0  0  0  0  0
   42.8150   30.8430   37.2410 C   0  0  0  0  0  0  0  0  0  0  0  0
   41.9290   32.0390   37.4400 C   0  0  0  0  0  0  0  0  0  0  0  0
   41.8710   32.2080   38.9390 C   0  0  1  0  0  0  0  0  0  0  0  0
   46.4610   34.5500   39.8960 H   0  0  0  0  0  0  0  0  0  0  0  0
   45.7030   34.4390   44.7510 H   0  0  0  0  0  0  0  0  0  0  0  0
   43.1710   34.4040   40.3870 H   0  0  0  0  0  0  0  0  0  0  0  0
   44.7160   30.6750   38.3040 H   0  0  0  0  0  0  0  0  0  0  0  0
   43.2460   29.8550   39.0820 H   0  0  0  0  0  0  0  0  0  0  0  0
   42.1660   29.9610   37.0970 H   0  0  0  0  0  0  0  0  0  0  0  0
   43.4510   30.9160   36.3380 H   0  0  0  0  0  0  0  0  0  0  0  0
   42.6480   32.8910   37.1710 H   0  0  0  0  0  0  0  0  0  0  0  0
   41.1200   32.2110   36.8070 H   0  0  0  0  0  0  0  0  0  0  0  0
   41.4820   33.2070   39.0980 H   0  0  0  0  0  0  0  0  0  0  0  0
   39.6190   31.0310   39.3260 C   0  0  0  0  0  0  0  0  0  0  0  0
   39.3080   31.6030   38.2700 O   0  0  0  0  0  0  0  0  0  0  0  0
   41.0160   31.2540   39.6330 N   0  0  0  0  0  0  0  0  0  0  0  0
   41.4670   30.6900   40.4200 H   0  0  0  0  0  0  0  0  0  0  0  0
   40.3030   28.1140   39.2860 Cl  0  0  0  0  0  0  0  0  0  0  0  0
   39.0640   28.8600   40.2770 C   0  0  0  0  0  0  0  0  0  0  0  0
   38.8290   30.2380   40.2150 C   0  0  0  0  0  0  0  0  0  0  0  0
   37.8520   30.8280   40.9940 C   0  0  0  0  0  0  0  0  0  0  0  0
   37.6760   31.9140   40.9370 H   0  0  0  0  0  0  0  0  0  0  0  0
   37.0910   30.0340   41.8580 C   0  0  0  0  0  0  0  0  0  0  0  0
   36.3170   30.5090   42.4740 H   0  0  0  0  0  0  0  0  0  0  0  0
   37.3380   28.6600   41.9080 C   0  0  0  0  0  0  0  0  0  0  0  0
   36.7420   28.0580   42.5780 H   0  0  0  0  0  0  0  0  0  0  0  0
   38.3240   28.0840   41.1150 C   0  0  0  0  0  0  0  0  0  0  0  0
   38.5440   26.3390   41.2660 Cl  0  0  0  0  0  0  0  0  0  0  0  0
   48.6490   35.2340   41.2820 C   0  0  0  0  0  0  0  0  0  0  0  0
   49.5940   34.2830   41.6430 F   0  0  0  0  0  0  0  0  0  0  0  0
   49.0670   36.4180   41.9080 F   0  0  0  0  0  0  0  0  0  0  0  0
   48.6160   35.3330   39.9230 F   0  0  0  0  0  0  0  0  0  0  0  0
  1  6  1  0  0  0  0
  2  1  2  0  0  0  0
  2  3  1  0  0  0  0
  3  4  2  0  0  0  0
  4  5  1  0  0  0  0
  5 16  1  0  0  0  0
  6  5  2  0  0  0  0
  7  8  2  0  0  0  0
  7  9  1  0  0  0  0
  9  1  1  0  0  0  0
 10  7  1  0  0  0  0
 11 19  1  0  0  0  0
 11 10  1  0  0  0  0
 12 13  1  0  0  0  0
 12 11  1  0  0  0  0
 13 14  1  0  0  0  0
 14 24  1  1  0  0  0
 14 10  1  0  0  0  0
 14 27  1  0  0  0  0
 15  2  1  0  0  0  0
 17  9  1  0  0  0  0
 18 11  1  0  0  0  0
 20 12  1  0  0  0  0
 21 12  1  0  0  0  0
 22 13  1  0  0  0  0
 23 13  1  0  0  0  0
 25 27  1  0  0  0  0
 25 31  1  0  0  0  0
 26 25  2  0  0  0  0
 27 28  1  0  0  0  0
 29 30  1  0  0  0  0
 30 38  1  0  0  0  0
 31 30  2  0  0  0  0
 31 32  1  0  0  0  0
 32 34  2  0  0  0  0
 33 32  1  0  0  0  0
 34 36  1  0  0  0  0
 34 35  1  0  0  0  0
 36 37  1  0  0  0  0
 38 39  1  0  0  0  0
 38 36  2  0  0  0  0
 40 41  1  0  0  0  0
 40  3  1  0  0  0  0
 40 42  1  0  0  0  0
 43 40  1  0  0  0  0
M  END
>  <minimizedAffinity>
-5.71163416

>  <minimizedRMSD>
2.54501534

$$$$
