REMARK  Name = 
REMARK  2 active torsions:
REMARK  status: ('A' for Active; 'I' for Inactive)
REMARK    1  A    between atoms: C_3  and  C_10
REMARK    2  A    between atoms: C_7  and  C_19
REMARK                            x       y       z     vdW  Elec       q    Type
REMARK                         _______ _______ _______ _____ _____    ______ ____
ROOT
ATOM      1  C   UNL     1      45.429  35.190  43.107  0.00  0.00    +0.000 A 
ATOM      2  C   UNL     1      46.456  35.561  42.213  0.00  0.00    +0.000 A 
ATOM      3  C   UNL     1      47.679  34.888  42.376  0.00  0.00    +0.000 A 
ATOM      4  N   UNL     1      47.769  33.954  43.361  0.00  0.00    +0.000 NA
ATOM      5  C   UNL     1      46.747  33.643  44.187  0.00  0.00    +0.000 A 
ATOM      6  N   UNL     1      45.560  34.274  44.053  0.00  0.00    +0.000 NA
ATOM      7  C   UNL     1      43.399  35.343  41.885  0.00  0.00    +0.000 C 
ATOM      8  O   UNL     1      43.950  34.477  41.151  0.00  0.00    +0.000 OA
ATOM      9  N   UNL     1      44.153  35.838  42.996  0.00  0.00    +0.000 N 
ATOM     10  H   UNL     1      46.296  36.317  41.457  0.00  0.00    +0.000 HD
ATOM     11  H   UNL     1      46.871  32.886  44.960  0.00  0.00    +0.000 HD
ATOM     12  H   UNL     1      43.765  36.590  43.623  0.00  0.00    +0.000 HD
ENDROOT
BRANCH   7  15
ATOM     13 CL   UNL     1      41.246  33.347  42.119  0.00  0.00    +0.000 Cl
ATOM     14  C   UNL     1      40.949  35.041  41.789  0.00  0.00    +0.000 A 
ATOM     15  C   UNL     1      42.040  35.894  41.700  0.00  0.00    +0.000 A 
ATOM     16  C   UNL     1      41.967  37.249  41.447  0.00  0.00    +0.000 A 
ATOM     17  H   UNL     1      42.819  37.881  41.383  0.00  0.00    +0.000 HD
ATOM     18  C   UNL     1      40.705  37.773  41.273  0.00  0.00    +0.000 A 
ATOM     19  H   UNL     1      40.510  38.836  41.066  0.00  0.00    +0.000 HD
ATOM     20  C   UNL     1      39.586  36.966  41.352  0.00  0.00    +0.000 A 
ATOM     21  H   UNL     1      38.589  37.385  41.213  0.00  0.00    +0.000 HD
ATOM     22  C   UNL     1      39.701  35.612  41.608  0.00  0.00    +0.000 A 
ATOM     23 CL   UNL     1      38.315  34.535  41.720  0.00  0.00    +0.000 Cl
ENDBRANCH   7  15
BRANCH   3  24
ATOM     24  C   UNL     1      48.740  35.269  41.456  0.00  0.00    +0.000 C 
ATOM     25  F   UNL     1      49.853  34.452  41.673  0.00  0.00    +0.000 F 
ATOM     26  F   UNL     1      49.146  36.546  41.800  0.00  0.00    +0.000 F 
ATOM     27  F   UNL     1      48.390  35.138  40.138  0.00  0.00    +0.000 F 
ENDBRANCH   3  24
TORSDOF 2
