REMARK  Name = 
REMARK  6 active torsions:
REMARK  status: ('A' for Active; 'I' for Inactive)
REMARK    1  A    between atoms: C_1  and  C_9
REMARK    2  A    between atoms: C_6  and  O_13
REMARK    3  A    between atoms: O_13  and  C_14
REMARK    4  A    between atoms: C_14  and  O_15
REMARK    5  A    between atoms: C_14  and  C_37
REMARK    6  A    between atoms: O_15  and  C_16
REMARK                            x       y       z     vdW  Elec       q    Type
REMARK                         _______ _______ _______ _____ _____    ______ ____
ROOT
ATOM      1  C   UNL     1      44.798  33.240  41.758  0.00  0.00    +0.000 C 
ATOM      2  C   UNL     1      44.345  34.235  40.632  0.00  0.00    +0.000 C 
ATOM      3  C   UNL     1      44.205  33.518  39.358  0.00  0.00    +0.000 C 
ATOM      4  C   UNL     1      45.644  33.105  38.957  0.00  0.00    +0.000 C 
ATOM      5  C   UNL     1      46.132  32.284  40.012  0.00  0.00    +0.000 C 
ATOM      6  C   UNL     1      46.092  32.785  41.522  0.00  0.00    +0.000 C 
ATOM      7  H   UNL     1      44.038  32.431  41.801  0.00  0.00    +0.000 HD
ATOM      8  H   UNL     1      45.088  35.041  40.563  0.00  0.00    +0.000 HD
ATOM      9  H   UNL     1      43.319  34.594  40.935  0.00  0.00    +0.000 HD
ATOM     10  H   UNL     1      43.854  34.201  38.589  0.00  0.00    +0.000 HD
ATOM     11  H   UNL     1      43.657  32.561  39.440  0.00  0.00    +0.000 HD
ATOM     12  H   UNL     1      45.463  32.442  38.085  0.00  0.00    +0.000 HD
ATOM     13  H   UNL     1      46.196  33.977  38.617  0.00  0.00    +0.000 HD
ATOM     14  H   UNL     1      45.191  31.599  40.182  0.00  0.00    +0.000 HD
ATOM     15  H   UNL     1      46.764  31.425  39.853  0.00  0.00    +0.000 HD
ATOM     16  H   UNL     1      46.444  31.885  42.006  0.00  0.00    +0.000 HD
ENDROOT
BRANCH   1  19
ATOM     17  C   UNL     1      44.475  35.951  44.472  0.00  0.00    +0.000 A 
ATOM     18  C   UNL     1      44.401  35.370  43.243  0.00  0.00    +0.000 A 
ATOM     19  C   UNL     1      44.786  34.033  43.028  0.00  0.00    +0.000 A 
ATOM     20  N   UNL     1      45.219  33.388  44.093  0.00  0.00    +0.000 NA
ATOM     21  C   UNL     1      45.297  33.940  45.295  0.00  0.00    +0.000 A 
ATOM     22  N   UNL     1      44.920  35.243  45.495  0.00  0.00    +0.000 NA
ATOM     23  H   UNL     1      44.137  36.990  44.452  0.00  0.00    +0.000 HD
ATOM     24  H   UNL     1      44.053  35.854  42.331  0.00  0.00    +0.000 HD
ATOM     25  H   UNL     1      45.649  33.424  46.171  0.00  0.00    +0.000 HD
ENDBRANCH   1  19
BRANCH   6  26
ATOM     26  O   UNL     1      47.056  33.838  41.538  0.00  0.00    +0.000 OA
BRANCH  26  27
ATOM     27  C   UNL     1      48.282  33.116  41.945  0.00  0.00    +0.000 C 
ATOM     28  H   UNL     1      47.700  32.487  42.412  0.00  0.00    +0.000 HD
BRANCH  27  31
ATOM     29 CL   UNL     1      47.775  30.012  41.716  0.00  0.00    +0.000 Cl
ATOM     30  C   UNL     1      48.838  30.860  40.614  0.00  0.00    +0.000 A 
ATOM     31  C   UNL     1      48.900  32.226  40.857  0.00  0.00    +0.000 A 
ATOM     32  C   UNL     1      49.723  32.897  39.917  0.00  0.00    +0.000 A 
ATOM     33  H   UNL     1      49.834  33.989  40.029  0.00  0.00    +0.000 HD
ATOM     34  C   UNL     1      50.410  32.356  38.873  0.00  0.00    +0.000 A 
ATOM     35  H   UNL     1      51.011  32.963  38.214  0.00  0.00    +0.000 HD
ATOM     36  C   UNL     1      50.283  30.995  38.720  0.00  0.00    +0.000 A 
ATOM     37  H   UNL     1      50.784  30.464  37.928  0.00  0.00    +0.000 HD
ATOM     38  C   UNL     1      49.508  30.255  39.578  0.00  0.00    +0.000 A 
ATOM     39 CL   UNL     1      49.265  28.524  39.492  0.00  0.00    +0.000 Cl
ENDBRANCH  27  31
BRANCH  27  40
ATOM     40  O   UNL     1      49.104  34.145  41.469  0.00  0.00    +0.000 OA
BRANCH  40  41
ATOM     41  C   UNL     1      49.458  35.304  41.950  0.00  0.00    +0.000 C 
ATOM     42  O   UNL     1      49.232  36.368  41.456  0.00  0.00    +0.000 OA
ATOM     43  N   UNL     1      50.145  35.216  43.139  0.00  0.00    +0.000 N 
ATOM     44  H   UNL     1      50.906  35.342  43.852  0.00  0.00    +0.000 HD
ATOM     45  H   UNL     1      51.077  35.699  43.127  0.00  0.00    +0.000 HD
ENDBRANCH  40  41
ENDBRANCH  27  40
ENDBRANCH  26  27
ENDBRANCH   6  26
TORSDOF 6
