
 OpenBabel03242510203D

 38 41  0  0  1  0  0  0  0  0999 V2000
   36.6990   30.1100   39.7360 N   0  0  0  0  0  0  0  0  0  0  0  0
   35.9120   29.2610   40.4950 C   0  0  0  0  0  0  0  0  0  0  0  0
   34.6630   29.0830   40.4850 O   0  0  0  0  0  0  0  0  0  0  0  0
   37.4470   30.6460   40.2570 H   0  0  0  0  0  0  0  0  0  0  0  0
   37.3260   31.3950   37.7150 C   0  0  1  0  0  0  0  0  0  0  0  0
   37.8360   30.0890   37.5170 C   0  0  0  0  0  0  0  0  0  0  0  0
   36.5440   30.2820   38.3290 C   0  0  1  0  0  0  0  0  0  0  0  0
   36.8650   31.9840   36.8970 H   0  0  0  0  0  0  0  0  0  0  0  0
   37.6890   29.6250   36.5060 H   0  0  0  0  0  0  0  0  0  0  0  0
   38.6230   29.5730   38.0670 H   0  0  0  0  0  0  0  0  0  0  0  0
   35.7120   29.7410   37.8670 H   0  0  0  0  0  0  0  0  0  0  0  0
   37.4180   33.3540   39.4070 C   0  0  0  0  0  0  0  0  0  0  0  0
   38.0690   32.3200   38.6810 C   0  0  0  0  0  0  0  0  0  0  0  0
   39.4240   32.1660   38.8520 C   0  0  0  0  0  0  0  0  0  0  0  0
   40.0760   33.0020   39.6980 N   0  0  0  0  0  0  0  0  0  0  0  0
   39.4530   33.9830   40.3850 C   0  0  0  0  0  0  0  0  0  0  0  0
   38.0760   34.1610   40.2300 N   0  0  0  0  0  0  0  0  0  0  0  0
   36.3660   33.4490   39.2560 H   0  0  0  0  0  0  0  0  0  0  0  0
   39.9720   31.3970   38.3260 H   0  0  0  0  0  0  0  0  0  0  0  0
   40.0500   34.5960   41.0320 H   0  0  0  0  0  0  0  0  0  0  0  0
   36.5590   28.3490   41.5310 C   0  0  2  0  0  0  0  0  0  0  0  0
   37.3580   29.0550   42.6660 C   0  0  0  0  0  0  0  0  0  0  0  0
   38.0040   28.1810   41.6030 C   0  0  1  0  0  0  0  0  0  0  0  0
   35.8730   27.6160   42.0200 H   0  0  0  0  0  0  0  0  0  0  0  0
   37.3280   28.6350   43.6690 H   0  0  0  0  0  0  0  0  0  0  0  0
   37.4120   30.1390   42.6300 H   0  0  0  0  0  0  0  0  0  0  0  0
   38.7720   28.7470   41.1100 H   0  0  0  0  0  0  0  0  0  0  0  0
   37.3050   25.5970   40.0260 Cl  0  0  0  0  0  0  0  0  0  0  0  0
   38.2960   25.6420   41.4570 C   0  0  0  0  0  0  0  0  0  0  0  0
   38.5280   26.8500   42.0690 C   0  0  0  0  0  0  0  0  0  0  0  0
   39.3220   26.7570   43.1900 C   0  0  0  0  0  0  0  0  0  0  0  0
   39.6020   27.6040   43.7790 H   0  0  0  0  0  0  0  0  0  0  0  0
   39.8520   25.5820   43.6790 C   0  0  0  0  0  0  0  0  0  0  0  0
   40.4750   25.5110   44.5600 H   0  0  0  0  0  0  0  0  0  0  0  0
   39.5830   24.4000   43.0210 C   0  0  0  0  0  0  0  0  0  0  0  0
   39.9700   23.4600   43.3600 H   0  0  0  0  0  0  0  0  0  0  0  0
   38.7930   24.4360   41.8930 C   0  0  0  0  0  0  0  0  0  0  0  0
   38.4490   22.9470   41.0540 Cl  0  0  0  0  0  0  0  0  0  0  0  0
  1  4  1  0  0  0  0
  1  2  1  0  0  0  0
  2 21  1  0  0  0  0
  3  2  2  0  0  0  0
  5  8  1  6  0  0  0
  5  7  1  0  0  0  0
  5 13  1  0  0  0  0
  6  5  1  0  0  0  0
  6 10  1  0  0  0  0
  6  7  1  0  0  0  0
  7 11  1  6  0  0  0
  7  1  1  0  0  0  0
  9  6  1  0  0  0  0
 12 17  1  0  0  0  0
 13 14  1  0  0  0  0
 13 12  2  0  0  0  0
 14 15  2  0  0  0  0
 15 16  1  0  0  0  0
 16 20  1  0  0  0  0
 17 16  2  0  0  0  0
 18 12  1  0  0  0  0
 19 14  1  0  0  0  0
 21 23  1  0  0  0  0
 21 24  1  1  0  0  0
 21 22  1  0  0  0  0
 22 25  1  0  0  0  0
 23 27  1  6  0  0  0
 23 30  1  0  0  0  0
 23 22  1  0  0  0  0
 26 22  1  0  0  0  0
 28 29  1  0  0  0  0
 29 37  2  0  0  0  0
 29 30  1  0  0  0  0
 30 31  2  0  0  0  0
 31 33  1  0  0  0  0
 31 32  1  0  0  0  0
 33 34  1  0  0  0  0
 35 36  1  0  0  0  0
 35 33  2  0  0  0  0
 37 35  1  0  0  0  0
 38 37  1  0  0  0  0
M  END
>  <minimizedAffinity>
-5.85110807

$$$$

 OpenBabel03242510203D

 38 41  0  0  1  0  0  0  0  0999 V2000
   36.8630   29.9300   39.8200 N   0  0  0  0  0  0  0  0  0  0  0  0
   36.0990   29.1160   40.6390 C   0  0  0  0  0  0  0  0  0  0  0  0
   34.8470   28.9730   40.7040 O   0  0  0  0  0  0  0  0  0  0  0  0
   37.6550   30.4530   40.2860 H   0  0  0  0  0  0  0  0  0  0  0  0
   37.3190   31.2320   37.7640 C   0  0  1  0  0  0  0  0  0  0  0  0
   37.8920   29.9550   37.5480 C   0  0  0  0  0  0  0  0  0  0  0  0
   36.6320   30.0820   38.4200 C   0  0  1  0  0  0  0  0  0  0  0  0
   36.7860   31.7870   36.9660 H   0  0  0  0  0  0  0  0  0  0  0  0
   37.7230   29.4760   36.5480 H   0  0  0  0  0  0  0  0  0  0  0  0
   38.7330   29.4880   38.0620 H   0  0  0  0  0  0  0  0  0  0  0  0
   35.8110   29.4910   38.0020 H   0  0  0  0  0  0  0  0  0  0  0  0
   37.3880   33.2450   39.3920 C   0  0  0  0  0  0  0  0  0  0  0  0
   38.0540   32.2040   38.6870 C   0  0  0  0  0  0  0  0  0  0  0  0
   39.4150   32.0900   38.8410 C   0  0  0  0  0  0  0  0  0  0  0  0
   40.0590   32.9680   39.6490 N   0  0  0  0  0  0  0  0  0  0  0  0
   39.4220   33.9540   40.3150 C   0  0  0  0  0  0  0  0  0  0  0  0
   38.0390   34.0940   40.1780 N   0  0  0  0  0  0  0  0  0  0  0  0
   36.3320   33.3100   39.2550 H   0  0  0  0  0  0  0  0  0  0  0  0
   39.9730   31.3180   38.3300 H   0  0  0  0  0  0  0  0  0  0  0  0
   40.0140   34.6030   40.9320 H   0  0  0  0  0  0  0  0  0  0  0  0
   36.7800   28.2050   41.6520 C   0  0  2  0  0  0  0  0  0  0  0  0
   37.4040   28.9030   42.8970 C   0  0  0  0  0  0  0  0  0  0  0  0
   38.2260   28.2040   41.8270 C   0  0  1  0  0  0  0  0  0  0  0  0
   36.1590   27.3570   42.0290 H   0  0  0  0  0  0  0  0  0  0  0  0
   37.3550   28.4000   43.8600 H   0  0  0  0  0  0  0  0  0  0  0  0
   37.3250   29.9850   42.9450 H   0  0  0  0  0  0  0  0  0  0  0  0
   38.9510   28.8950   41.4410 H   0  0  0  0  0  0  0  0  0  0  0  0
   41.1580   28.1970   42.8580 Cl  0  0  0  0  0  0  0  0  0  0  0  0
   40.1610   26.7770   42.7090 C   0  0  0  0  0  0  0  0  0  0  0  0
   38.8780   26.9100   42.2330 C   0  0  0  0  0  0  0  0  0  0  0  0
   38.1920   25.7190   42.1590 C   0  0  0  0  0  0  0  0  0  0  0  0
   37.1820   25.6480   41.8150 H   0  0  0  0  0  0  0  0  0  0  0  0
   38.7080   24.4930   42.5190 C   0  0  0  0  0  0  0  0  0  0  0  0
   38.1670   23.5590   42.4600 H   0  0  0  0  0  0  0  0  0  0  0  0
   40.0020   24.4230   42.9900 C   0  0  0  0  0  0  0  0  0  0  0  0
   40.4520   23.4960   43.2820 H   0  0  0  0  0  0  0  0  0  0  0  0
   40.7360   25.5850   43.0850 C   0  0  0  0  0  0  0  0  0  0  0  0
   42.3730   25.5060   43.6800 Cl  0  0  0  0  0  0  0  0  0  0  0  0
  1  4  1  0  0  0  0
  1  2  1  0  0  0  0
  2  3  2  0  0  0  0
  2 21  1  0  0  0  0
  5  8  1  6  0  0  0
  5  7  1  0  0  0  0
  5 13  1  0  0  0  0
  6  5  1  0  0  0  0
  6 10  1  0  0  0  0
  6  7  1  0  0  0  0
  7 11  1  6  0  0  0
  7  1  1  0  0  0  0
  9  6  1  0  0  0  0
 12 17  1  0  0  0  0
 13 14  1  0  0  0  0
 13 12  2  0  0  0  0
 14 15  2  0  0  0  0
 15 16  1  0  0  0  0
 16 20  1  0  0  0  0
 17 16  2  0  0  0  0
 18 12  1  0  0  0  0
 19 14  1  0  0  0  0
 21 23  1  0  0  0  0
 21 24  1  1  0  0  0
 21 22  1  0  0  0  0
 22 26  1  0  0  0  0
 22 25  1  0  0  0  0
 23 27  1  6  0  0  0
 23 30  1  0  0  0  0
 23 22  1  0  0  0  0
 29 28  1  0  0  0  0
 29 37  1  0  0  0  0
 30 29  2  0  0  0  0
 31 30  1  0  0  0  0
 31 33  2  0  0  0  0
 32 31  1  0  0  0  0
 33 35  1  0  0  0  0
 34 33  1  0  0  0  0
 35 37  2  0  0  0  0
 35 36  1  0  0  0  0
 37 38  1  0  0  0  0
M  END
>  <minimizedAffinity>
-5.71455717

$$$$

 OpenBabel03242510203D

 38 41  0  0  1  0  0  0  0  0999 V2000
   38.7240   27.5320   42.6580 N   0  0  0  0  0  0  0  0  0  0  0  0
   37.5460   28.2160   42.9060 C   0  0  0  0  0  0  0  0  0  0  0  0
   36.5720   27.9170   43.6500 O   0  0  0  0  0  0  0  0  0  0  0  0
   39.0320   27.4800   41.6480 H   0  0  0  0  0  0  0  0  0  0  0  0
   39.8920   25.4940   43.4430 C   0  0  1  0  0  0  0  0  0  0  0  0
   40.9050   26.4600   43.2190 C   0  0  0  0  0  0  0  0  0  0  0  0
   39.5100   26.9180   43.6780 C   0  0  1  0  0  0  0  0  0  0  0  0
   39.9140   24.7980   44.3040 H   0  0  0  0  0  0  0  0  0  0  0  0
   41.7080   26.5540   43.9970 H   0  0  0  0  0  0  0  0  0  0  0  0
   41.2230   26.9090   42.2790 H   0  0  0  0  0  0  0  0  0  0  0  0
   39.5730   27.4590   44.6270 H   0  0  0  0  0  0  0  0  0  0  0  0
   37.9750   24.2180   42.2580 C   0  0  0  0  0  0  0  0  0  0  0  0
   39.2660   24.8130   42.2250 C   0  0  0  0  0  0  0  0  0  0  0  0
   39.9750   24.7510   41.0490 C   0  0  0  0  0  0  0  0  0  0  0  0
   39.4170   24.1300   39.9810 N   0  0  0  0  0  0  0  0  0  0  0  0
   38.1900   23.5660   40.0180 C   0  0  0  0  0  0  0  0  0  0  0  0
   37.4480   23.6150   41.2000 N   0  0  0  0  0  0  0  0  0  0  0  0
   37.4470   24.2820   43.1840 H   0  0  0  0  0  0  0  0  0  0  0  0
   40.9610   25.1850   40.9660 H   0  0  0  0  0  0  0  0  0  0  0  0
   37.8300   23.0950   39.1240 H   0  0  0  0  0  0  0  0  0  0  0  0
   37.2910   29.5570   42.2290 C   0  0  2  0  0  0  0  0  0  0  0  0
   36.3420   29.5360   40.9950 C   0  0  0  0  0  0  0  0  0  0  0  0
   37.8250   29.8590   40.9080 C   0  0  1  0  0  0  0  0  0  0  0  0
   36.9350   30.3750   42.9020 H   0  0  0  0  0  0  0  0  0  0  0  0
   35.6660   30.3740   40.8380 H   0  0  0  0  0  0  0  0  0  0  0  0
   35.9460   28.5710   40.6940 H   0  0  0  0  0  0  0  0  0  0  0  0
   38.2830   29.1950   40.2000 H   0  0  0  0  0  0  0  0  0  0  0  0
   40.7110   30.8950   41.4120 Cl  0  0  0  0  0  0  0  0  0  0  0  0
   39.4100   31.8660   40.7810 C   0  0  0  0  0  0  0  0  0  0  0  0
   38.1740   31.2920   40.6080 C   0  0  0  0  0  0  0  0  0  0  0  0
   37.2290   32.1590   40.1070 C   0  0  0  0  0  0  0  0  0  0  0  0
   36.2190   31.8710   39.9090 H   0  0  0  0  0  0  0  0  0  0  0  0
   37.4660   33.4810   39.7960 C   0  0  0  0  0  0  0  0  0  0  0  0
   36.7220   34.1600   39.4020 H   0  0  0  0  0  0  0  0  0  0  0  0
   38.7280   34.0000   39.9920 C   0  0  0  0  0  0  0  0  0  0  0  0
   38.9650   35.0210   39.7670 H   0  0  0  0  0  0  0  0  0  0  0  0
   39.7120   33.1760   40.4920 C   0  0  0  0  0  0  0  0  0  0  0  0
   41.3120   33.8240   40.7420 Cl  0  0  0  0  0  0  0  0  0  0  0  0
  1  2  1  0  0  0  0
  1  7  1  0  0  0  0
  2  3  2  0  0  0  0
  4  1  1  0  0  0  0
  5  7  1  0  0  0  0
  5  8  1  1  0  0  0
  6  5  1  0  0  0  0
  6  7  1  0  0  0  0
  6  9  1  0  0  0  0
  7 11  1  1  0  0  0
 10  6  1  0  0  0  0
 12 18  1  0  0  0  0
 13 12  1  0  0  0  0
 13  5  1  0  0  0  0
 14 13  2  0  0  0  0
 15 16  2  0  0  0  0
 15 14  1  0  0  0  0
 16 17  1  0  0  0  0
 17 12  2  0  0  0  0
 19 14  1  0  0  0  0
 20 16  1  0  0  0  0
 21 24  1  1  0  0  0
 21  2  1  0  0  0  0
 22 21  1  0  0  0  0
 23 27  1  6  0  0  0
 23 22  1  0  0  0  0
 23 21  1  0  0  0  0
 25 22  1  0  0  0  0
 26 22  1  0  0  0  0
 29 28  1  0  0  0  0
 30 29  1  0  0  0  0
 30 23  1  0  0  0  0
 31 30  2  0  0  0  0
 32 31  1  0  0  0  0
 33 35  2  0  0  0  0
 33 31  1  0  0  0  0
 34 33  1  0  0  0  0
 35 37  1  0  0  0  0
 36 35  1  0  0  0  0
 37 38  1  0  0  0  0
 37 29  2  0  0  0  0
M  END
>  <minimizedAffinity>
-5.62536526

$$$$

 OpenBabel03242510203D

 38 41  0  0  1  0  0  0  0  0999 V2000
   39.9790   31.7390   39.8810 N   0  0  0  0  0  0  0  0  0  0  0  0
   40.5840   31.3830   41.0740 C   0  0  0  0  0  0  0  0  0  0  0  0
   41.4870   31.9660   41.7340 O   0  0  0  0  0  0  0  0  0  0  0  0
   39.8510   30.9660   39.1710 H   0  0  0  0  0  0  0  0  0  0  0  0
   38.0620   33.2430   39.4430 C   0  0  1  0  0  0  0  0  0  0  0  0
   38.6320   33.6870   40.6610 C   0  0  0  0  0  0  0  0  0  0  0  0
   39.5360   33.0620   39.5850 C   0  0  1  0  0  0  0  0  0  0  0  0
   37.6820   33.9450   38.6740 H   0  0  0  0  0  0  0  0  0  0  0  0
   38.7620   34.7940   40.7980 H   0  0  0  0  0  0  0  0  0  0  0  0
   38.6780   33.1730   41.6210 H   0  0  0  0  0  0  0  0  0  0  0  0
   40.3110   33.7700   39.2720 H   0  0  0  0  0  0  0  0  0  0  0  0
   36.6060   31.4760   40.6540 C   0  0  0  0  0  0  0  0  0  0  0  0
   37.2140   31.9710   39.4670 C   0  0  0  0  0  0  0  0  0  0  0  0
   37.0350   31.2580   38.3060 C   0  0  0  0  0  0  0  0  0  0  0  0
   36.2950   30.1220   38.3430 N   0  0  0  0  0  0  0  0  0  0  0  0
   35.7210   29.6570   39.4720 C   0  0  0  0  0  0  0  0  0  0  0  0
   35.8860   30.3620   40.6670 N   0  0  0  0  0  0  0  0  0  0  0  0
   36.7600   32.0510   41.5400 H   0  0  0  0  0  0  0  0  0  0  0  0
   37.4740   31.5860   37.3750 H   0  0  0  0  0  0  0  0  0  0  0  0
   35.1530   28.7490   39.4060 H   0  0  0  0  0  0  0  0  0  0  0  0
   40.1610   30.1050   41.7880 C   0  0  2  0  0  0  0  0  0  0  0  0
   40.9960   28.8290   41.4720 C   0  0  0  0  0  0  0  0  0  0  0  0
   39.5410   28.9990   41.0710 C   0  0  1  0  0  0  0  0  0  0  0  0
   40.0840   30.1790   42.9000 H   0  0  0  0  0  0  0  0  0  0  0  0
   41.1870   28.1150   42.2700 H   0  0  0  0  0  0  0  0  0  0  0  0
   41.8060   28.9360   40.7560 H   0  0  0  0  0  0  0  0  0  0  0  0
   39.4540   28.8490   40.0120 H   0  0  0  0  0  0  0  0  0  0  0  0
   38.9220   26.1090   40.1110 Cl  0  0  0  0  0  0  0  0  0  0  0  0
   38.1910   26.8650   41.4990 C   0  0  0  0  0  0  0  0  0  0  0  0
   38.5450   28.1550   41.8180 C   0  0  0  0  0  0  0  0  0  0  0  0
   37.8990   28.6430   42.9320 C   0  0  0  0  0  0  0  0  0  0  0  0
   38.0640   29.6270   43.3180 H   0  0  0  0  0  0  0  0  0  0  0  0
   36.9830   27.9350   43.6800 C   0  0  0  0  0  0  0  0  0  0  0  0
   36.4770   28.3210   44.5550 H   0  0  0  0  0  0  0  0  0  0  0  0
   36.6690   26.6450   43.3090 C   0  0  0  0  0  0  0  0  0  0  0  0
   35.9630   26.0520   43.8550 H   0  0  0  0  0  0  0  0  0  0  0  0
   37.2850   26.1060   42.2020 C   0  0  0  0  0  0  0  0  0  0  0  0
   36.8950   24.4740   41.7260 Cl  0  0  0  0  0  0  0  0  0  0  0  0
  1  2  1  0  0  0  0
  2  3  2  0  0  0  0
  2 21  1  0  0  0  0
  4  1  1  0  0  0  0
  5  8  1  6  0  0  0
  5 13  1  0  0  0  0
  5  7  1  0  0  0  0
  5  6  1  0  0  0  0
  6  9  1  0  0  0  0
  6 10  1  0  0  0  0
  7 11  1  6  0  0  0
  7  1  1  0  0  0  0
  7  6  1  0  0  0  0
 12 17  1  0  0  0  0
 12 18  1  0  0  0  0
 13 12  2  0  0  0  0
 14 15  2  0  0  0  0
 14 13  1  0  0  0  0
 15 16  1  0  0  0  0
 16 17  2  0  0  0  0
 19 14  1  0  0  0  0
 20 16  1  0  0  0  0
 21 24  1  1  0  0  0
 22 21  1  0  0  0  0
 22 25  1  0  0  0  0
 23 27  1  6  0  0  0
 23 22  1  0  0  0  0
 23 21  1  0  0  0  0
 23 30  1  0  0  0  0
 26 22  1  0  0  0  0
 28 29  1  0  0  0  0
 29 30  2  0  0  0  0
 29 37  1  0  0  0  0
 30 31  1  0  0  0  0
 31 32  1  0  0  0  0
 31 33  2  0  0  0  0
 33 34  1  0  0  0  0
 35 33  1  0  0  0  0
 35 36  1  0  0  0  0
 37 35  2  0  0  0  0
 38 37  1  0  0  0  0
M  END
>  <minimizedAffinity>
-5.52208614

$$$$

 OpenBabel03242510203D

 38 41  0  0  1  0  0  0  0  0999 V2000
   39.4150   31.5690   41.7350 N   0  0  0  0  0  0  0  0  0  0  0  0
   39.4390   32.3900   40.6210 C   0  0  0  0  0  0  0  0  0  0  0  0
   40.1780   33.3760   40.3530 O   0  0  0  0  0  0  0  0  0  0  0  0
   38.4600   31.3410   42.1290 H   0  0  0  0  0  0  0  0  0  0  0  0
   40.5710   29.5710   42.6310 C   0  0  1  0  0  0  0  0  0  0  0  0
   41.3250   29.9830   41.5050 C   0  0  0  0  0  0  0  0  0  0  0  0
   40.5870   31.0360   42.3490 C   0  0  1  0  0  0  0  0  0  0  0  0
   41.0450   29.2020   43.5620 H   0  0  0  0  0  0  0  0  0  0  0  0
   42.4430   29.9980   41.6100 H   0  0  0  0  0  0  0  0  0  0  0  0
   41.0370   29.9860   40.4540 H   0  0  0  0  0  0  0  0  0  0  0  0
   41.2910   31.7690   42.7560 H   0  0  0  0  0  0  0  0  0  0  0  0
   38.2230   28.7610   43.3670 C   0  0  0  0  0  0  0  0  0  0  0  0
   39.2490   28.8440   42.3840 C   0  0  0  0  0  0  0  0  0  0  0  0
   39.0340   28.2270   41.1750 C   0  0  0  0  0  0  0  0  0  0  0  0
   37.8640   27.5710   40.9730 N   0  0  0  0  0  0  0  0  0  0  0  0
   36.8950   27.4960   41.9090 C   0  0  0  0  0  0  0  0  0  0  0  0
   37.0860   28.1130   43.1470 N   0  0  0  0  0  0  0  0  0  0  0  0
   38.4160   29.2500   44.2950 H   0  0  0  0  0  0  0  0  0  0  0  0
   39.7780   28.2570   40.3920 H   0  0  0  0  0  0  0  0  0  0  0  0
   36.0020   26.9540   41.6610 H   0  0  0  0  0  0  0  0  0  0  0  0
   38.4640   32.1430   39.4750 C   0  0  2  0  0  0  0  0  0  0  0  0
   37.0910   32.8720   39.5710 C   0  0  0  0  0  0  0  0  0  0  0  0
   37.2490   31.3630   39.6620 C   0  0  1  0  0  0  0  0  0  0  0  0
   38.8670   32.3370   38.4520 H   0  0  0  0  0  0  0  0  0  0  0  0
   36.6300   33.2450   38.6590 H   0  0  0  0  0  0  0  0  0  0  0  0
   36.9190   33.4860   40.4500 H   0  0  0  0  0  0  0  0  0  0  0  0
   36.8020   31.0230   40.5770 H   0  0  0  0  0  0  0  0  0  0  0  0
   34.8430   29.4270   40.0130 Cl  0  0  0  0  0  0  0  0  0  0  0  0
   35.6860   29.6920   38.5120 C   0  0  0  0  0  0  0  0  0  0  0  0
   36.7410   30.5720   38.4870 C   0  0  0  0  0  0  0  0  0  0  0  0
   37.3270   30.6950   37.2470 C   0  0  0  0  0  0  0  0  0  0  0  0
   38.1560   31.3420   37.0550 H   0  0  0  0  0  0  0  0  0  0  0  0
   36.9200   30.0170   36.1180 C   0  0  0  0  0  0  0  0  0  0  0  0
   37.3820   30.1150   35.1440 H   0  0  0  0  0  0  0  0  0  0  0  0
   35.8540   29.1460   36.2060 C   0  0  0  0  0  0  0  0  0  0  0  0
   35.4990   28.5950   35.3590 H   0  0  0  0  0  0  0  0  0  0  0  0
   35.2310   28.9850   37.4240 C   0  0  0  0  0  0  0  0  0  0  0  0
   33.8820   27.8870   37.5450 Cl  0  0  0  0  0  0  0  0  0  0  0  0
  1  4  1  0  0  0  0
  1  7  1  0  0  0  0
  2  1  1  0  0  0  0
  3  2  2  0  0  0  0
  5  8  1  1  0  0  0
  6  9  1  0  0  0  0
  6  7  1  0  0  0  0
  6  5  1  0  0  0  0
  7  5  1  0  0  0  0
  7 11  1  1  0  0  0
 10  6  1  0  0  0  0
 12 18  1  0  0  0  0
 13  5  1  0  0  0  0
 13 12  2  0  0  0  0
 14 13  1  0  0  0  0
 15 14  2  0  0  0  0
 15 16  1  0  0  0  0
 16 17  2  0  0  0  0
 17 12  1  0  0  0  0
 19 14  1  0  0  0  0
 20 16  1  0  0  0  0
 21 24  1  6  0  0  0
 21 22  1  0  0  0  0
 21 23  1  0  0  0  0
 21  2  1  0  0  0  0
 22 23  1  0  0  0  0
 22 26  1  0  0  0  0
 23 27  1  1  0  0  0
 25 22  1  0  0  0  0
 29 28  1  0  0  0  0
 30 29  1  0  0  0  0
 30 23  1  0  0  0  0
 31 30  2  0  0  0  0
 32 31  1  0  0  0  0
 33 35  2  0  0  0  0
 33 31  1  0  0  0  0
 34 33  1  0  0  0  0
 35 37  1  0  0  0  0
 36 35  1  0  0  0  0
 37 38  1  0  0  0  0
 37 29  2  0  0  0  0
M  END
>  <minimizedAffinity>
-5.39549065

$$$$

 OpenBabel03242510203D

 38 41  0  0  1  0  0  0  0  0999 V2000
   38.3200   26.9130   41.8410 N   0  0  0  0  0  0  0  0  0  0  0  0
   37.3940   26.0030   41.3610 C   0  0  0  0  0  0  0  0  0  0  0  0
   36.9510   24.9410   41.8790 O   0  0  0  0  0  0  0  0  0  0  0  0
   39.0490   27.2480   41.1530 H   0  0  0  0  0  0  0  0  0  0  0  0
   37.9820   28.8410   43.3570 C   0  0  1  0  0  0  0  0  0  0  0  0
   36.9620   27.9120   43.6790 C   0  0  0  0  0  0  0  0  0  0  0  0
   38.3250   27.3990   43.1820 C   0  0  1  0  0  0  0  0  0  0  0  0
   38.5180   29.4270   44.1300 H   0  0  0  0  0  0  0  0  0  0  0  0
   36.7590   27.7250   44.7670 H   0  0  0  0  0  0  0  0  0  0  0  0
   36.1230   27.5810   43.0680 H   0  0  0  0  0  0  0  0  0  0  0  0
   38.7880   26.7470   43.9290 H   0  0  0  0  0  0  0  0  0  0  0  0
   38.9390   30.2040   41.3730 C   0  0  0  0  0  0  0  0  0  0  0  0
   37.8270   29.6650   42.0780 C   0  0  0  0  0  0  0  0  0  0  0  0
   36.5690   29.9170   41.5870 C   0  0  0  0  0  0  0  0  0  0  0  0
   36.4420   30.6620   40.4610 N   0  0  0  0  0  0  0  0  0  0  0  0
   37.5010   31.1720   39.7960 C   0  0  0  0  0  0  0  0  0  0  0  0
   38.7920   30.9310   40.2730 N   0  0  0  0  0  0  0  0  0  0  0  0
   39.9030   29.9920   41.7770 H   0  0  0  0  0  0  0  0  0  0  0  0
   35.6870   29.5330   42.0810 H   0  0  0  0  0  0  0  0  0  0  0  0
   37.3050   31.7510   38.9140 H   0  0  0  0  0  0  0  0  0  0  0  0
   36.7420   26.2290   40.0020 C   0  0  2  0  0  0  0  0  0  0  0  0
   37.5020   25.6570   38.7690 C   0  0  0  0  0  0  0  0  0  0  0  0
   37.3150   27.1430   39.0230 C   0  0  1  0  0  0  0  0  0  0  0  0
   35.6800   25.8940   39.9170 H   0  0  0  0  0  0  0  0  0  0  0  0
   36.9270   25.2420   37.9440 H   0  0  0  0  0  0  0  0  0  0  0  0
   38.4450   25.1550   38.9610 H   0  0  0  0  0  0  0  0  0  0  0  0
   38.2780   27.6170   39.0290 H   0  0  0  0  0  0  0  0  0  0  0  0
   38.3070   28.1620   36.2600 Cl  0  0  0  0  0  0  0  0  0  0  0  0
   36.6810   28.3500   36.8550 C   0  0  0  0  0  0  0  0  0  0  0  0
   36.3670   27.8590   38.1000 C   0  0  0  0  0  0  0  0  0  0  0  0
   35.0550   28.0700   38.4590 C   0  0  0  0  0  0  0  0  0  0  0  0
   34.6460   27.7460   39.3930 H   0  0  0  0  0  0  0  0  0  0  0  0
   34.1190   28.7060   37.6720 C   0  0  0  0  0  0  0  0  0  0  0  0
   33.0880   28.8700   37.9560 H   0  0  0  0  0  0  0  0  0  0  0  0
   34.4950   29.1770   36.4320 C   0  0  0  0  0  0  0  0  0  0  0  0
   33.8070   29.6780   35.7810 H   0  0  0  0  0  0  0  0  0  0  0  0
   35.7970   28.9930   36.0210 C   0  0  0  0  0  0  0  0  0  0  0  0
   36.2820   29.5850   34.4540 Cl  0  0  0  0  0  0  0  0  0  0  0  0
  1  7  1  0  0  0  0
  2  1  1  0  0  0  0
  2  3  2  0  0  0  0
  4  1  1  0  0  0  0
  5  6  1  0  0  0  0
  5  8  1  1  0  0  0
  6  9  1  0  0  0  0
  7  5  1  0  0  0  0
  7  6  1  0  0  0  0
  7 11  1  1  0  0  0
 10  6  1  0  0  0  0
 12 18  1  0  0  0  0
 12 13  1  0  0  0  0
 13  5  1  0  0  0  0
 14 13  2  0  0  0  0
 14 19  1  0  0  0  0
 15 14  1  0  0  0  0
 16 17  1  0  0  0  0
 16 15  2  0  0  0  0
 17 12  2  0  0  0  0
 20 16  1  0  0  0  0
 21 24  1  6  0  0  0
 21  2  1  0  0  0  0
 22 26  1  0  0  0  0
 22 23  1  0  0  0  0
 22 21  1  0  0  0  0
 23 27  1  1  0  0  0
 23 21  1  0  0  0  0
 25 22  1  0  0  0  0
 28 29  1  0  0  0  0
 29 30  1  0  0  0  0
 30 31  2  0  0  0  0
 30 23  1  0  0  0  0
 31 32  1  0  0  0  0
 33 34  1  0  0  0  0
 33 31  1  0  0  0  0
 35 33  2  0  0  0  0
 36 35  1  0  0  0  0
 37 35  1  0  0  0  0
 37 29  2  0  0  0  0
 38 37  1  0  0  0  0
M  END
>  <minimizedAffinity>
-5.2105217

$$$$

 OpenBabel03242510203D

 38 41  0  0  1  0  0  0  0  0999 V2000
   38.0300   26.7030   41.7090 N   0  0  0  0  0  0  0  0  0  0  0  0
   37.9380   25.5270   40.9840 C   0  0  0  0  0  0  0  0  0  0  0  0
   38.3740   24.3730   41.2480 O   0  0  0  0  0  0  0  0  0  0  0  0
   38.2860   27.5710   41.1630 H   0  0  0  0  0  0  0  0  0  0  0  0
   37.6690   28.1590   43.6790 C   0  0  1  0  0  0  0  0  0  0  0  0
   36.4620   27.4380   43.5040 C   0  0  0  0  0  0  0  0  0  0  0  0
   37.7990   26.7840   43.1140 C   0  0  1  0  0  0  0  0  0  0  0  0
   38.0970   28.3680   44.6790 H   0  0  0  0  0  0  0  0  0  0  0  0
   35.9800   27.0080   44.4220 H   0  0  0  0  0  0  0  0  0  0  0  0
   35.7480   27.4910   42.6820 H   0  0  0  0  0  0  0  0  0  0  0  0
   37.9580   25.8610   43.6820 H   0  0  0  0  0  0  0  0  0  0  0  0
   36.9770   29.8550   41.8470 C   0  0  0  0  0  0  0  0  0  0  0  0
   37.9600   29.3180   42.7240 C   0  0  0  0  0  0  0  0  0  0  0  0
   39.2210   29.8630   42.6900 C   0  0  0  0  0  0  0  0  0  0  0  0
   39.4720   30.8790   41.8270 N   0  0  0  0  0  0  0  0  0  0  0  0
   38.5350   31.3840   40.9970 C   0  0  0  0  0  0  0  0  0  0  0  0
   37.2450   30.8490   41.0110 N   0  0  0  0  0  0  0  0  0  0  0  0
   36.0070   29.4130   41.8960 H   0  0  0  0  0  0  0  0  0  0  0  0
   40.0080   29.4950   43.3330 H   0  0  0  0  0  0  0  0  0  0  0  0
   38.8250   32.1880   40.3480 H   0  0  0  0  0  0  0  0  0  0  0  0
   37.2110   25.5150   39.6450 C   0  0  2  0  0  0  0  0  0  0  0  0
   38.0290   26.0010   38.4120 C   0  0  0  0  0  0  0  0  0  0  0  0
   36.8320   26.7500   38.9720 C   0  0  1  0  0  0  0  0  0  0  0  0
   36.7400   24.5430   39.3630 H   0  0  0  0  0  0  0  0  0  0  0  0
   37.8750   25.5110   37.4540 H   0  0  0  0  0  0  0  0  0  0  0  0
   39.0490   26.3280   38.5960 H   0  0  0  0  0  0  0  0  0  0  0  0
   37.1270   27.7570   39.1970 H   0  0  0  0  0  0  0  0  0  0  0  0
   35.3030   29.3930   38.3930 Cl  0  0  0  0  0  0  0  0  0  0  0  0
   34.8270   27.8270   37.7980 C   0  0  0  0  0  0  0  0  0  0  0  0
   35.5850   26.7300   38.1300 C   0  0  0  0  0  0  0  0  0  0  0  0
   35.1080   25.5500   37.6030 C   0  0  0  0  0  0  0  0  0  0  0  0
   35.5830   24.6060   37.7610 H   0  0  0  0  0  0  0  0  0  0  0  0
   33.9820   25.4440   36.8150 C   0  0  0  0  0  0  0  0  0  0  0  0
   33.6090   24.5160   36.4020 H   0  0  0  0  0  0  0  0  0  0  0  0
   33.2620   26.5810   36.5160 C   0  0  0  0  0  0  0  0  0  0  0  0
   32.3800   26.5530   35.9090 H   0  0  0  0  0  0  0  0  0  0  0  0
   33.6950   27.7890   37.0180 C   0  0  0  0  0  0  0  0  0  0  0  0
   32.7910   29.2330   36.6450 Cl  0  0  0  0  0  0  0  0  0  0  0  0
  1  7  1  0  0  0  0
  2  3  2  0  0  0  0
  2  1  1  0  0  0  0
  4  1  1  0  0  0  0
  5  8  1  1  0  0  0
  6  5  1  0  0  0  0
  6  9  1  0  0  0  0
  7  6  1  0  0  0  0
  7  5  1  0  0  0  0
  7 11  1  1  0  0  0
 10  6  1  0  0  0  0
 12 18  1  0  0  0  0
 12 13  1  0  0  0  0
 13  5  1  0  0  0  0
 14 13  2  0  0  0  0
 14 19  1  0  0  0  0
 15 14  1  0  0  0  0
 16 17  1  0  0  0  0
 16 15  2  0  0  0  0
 17 12  2  0  0  0  0
 20 16  1  0  0  0  0
 21 24  1  6  0  0  0
 21  2  1  0  0  0  0
 22 26  1  0  0  0  0
 22 23  1  0  0  0  0
 22 21  1  0  0  0  0
 23 27  1  1  0  0  0
 23 21  1  0  0  0  0
 25 22  1  0  0  0  0
 29 30  1  0  0  0  0
 29 28  1  0  0  0  0
 30 23  1  0  0  0  0
 31 32  1  0  0  0  0
 31 30  2  0  0  0  0
 33 31  1  0  0  0  0
 34 33  1  0  0  0  0
 35 33  2  0  0  0  0
 35 37  1  0  0  0  0
 36 35  1  0  0  0  0
 37 29  2  0  0  0  0
 38 37  1  0  0  0  0
M  END
>  <minimizedAffinity>
-5.20090103

$$$$

 OpenBabel03242510203D

 38 41  0  0  1  0  0  0  0  0999 V2000
   37.7240   27.2860   40.5050 N   0  0  0  0  0  0  0  0  0  0  0  0
   36.8000   27.9680   39.7310 C   0  0  0  0  0  0  0  0  0  0  0  0
   35.6640   27.6090   39.3150 O   0  0  0  0  0  0  0  0  0  0  0  0
   38.7320   27.3450   40.1910 H   0  0  0  0  0  0  0  0  0  0  0  0
   37.9460   27.0290   42.9570 C   0  0  1  0  0  0  0  0  0  0  0  0
   36.5810   27.3250   42.7210 C   0  0  0  0  0  0  0  0  0  0  0  0
   37.3790   26.5360   41.6680 C   0  0  1  0  0  0  0  0  0  0  0  0
   38.2720   26.2900   43.7150 H   0  0  0  0  0  0  0  0  0  0  0  0
   35.8180   26.7200   43.2800 H   0  0  0  0  0  0  0  0  0  0  0  0
   36.1380   28.2420   42.3340 H   0  0  0  0  0  0  0  0  0  0  0  0
   36.9240   25.5570   41.4910 H   0  0  0  0  0  0  0  0  0  0  0  0
   38.5730   29.5420   42.9160 C   0  0  0  0  0  0  0  0  0  0  0  0
   38.9560   28.1740   42.8640 C   0  0  0  0  0  0  0  0  0  0  0  0
   40.2910   27.8840   42.7060 C   0  0  0  0  0  0  0  0  0  0  0  0
   41.1760   28.9070   42.6080 N   0  0  0  0  0  0  0  0  0  0  0  0
   40.8060   30.2040   42.6580 C   0  0  0  0  0  0  0  0  0  0  0  0
   39.4560   30.5280   42.8170 N   0  0  0  0  0  0  0  0  0  0  0  0
   37.5310   29.7380   43.0400 H   0  0  0  0  0  0  0  0  0  0  0  0
   40.6400   26.8620   42.6590 H   0  0  0  0  0  0  0  0  0  0  0  0
   41.5760   30.9460   42.5700 H   0  0  0  0  0  0  0  0  0  0  0  0
   37.1020   29.3850   39.2610 C   0  0  2  0  0  0  0  0  0  0  0  0
   37.8300   29.5160   37.8900 C   0  0  0  0  0  0  0  0  0  0  0  0
   38.4640   29.9010   39.2170 C   0  0  1  0  0  0  0  0  0  0  0  0
   36.2270   30.0790   39.2340 H   0  0  0  0  0  0  0  0  0  0  0  0
   37.5680   30.3420   37.2330 H   0  0  0  0  0  0  0  0  0  0  0  0
   38.0850   28.5930   37.3780 H   0  0  0  0  0  0  0  0  0  0  0  0
   39.3880   29.3670   39.3260 H   0  0  0  0  0  0  0  0  0  0  0  0
   41.3180   31.1260   39.1200 Cl  0  0  0  0  0  0  0  0  0  0  0  0
   39.8650   32.0330   39.4320 C   0  0  0  0  0  0  0  0  0  0  0  0
   38.6590   31.3730   39.4540 C   0  0  0  0  0  0  0  0  0  0  0  0
   37.5860   32.1960   39.7130 C   0  0  0  0  0  0  0  0  0  0  0  0
   36.5780   31.8430   39.7600 H   0  0  0  0  0  0  0  0  0  0  0  0
   37.6740   33.5540   39.9310 C   0  0  0  0  0  0  0  0  0  0  0  0
   36.8290   34.1980   40.1340 H   0  0  0  0  0  0  0  0  0  0  0  0
   38.9120   34.1600   39.8960 C   0  0  0  0  0  0  0  0  0  0  0  0
   39.0360   35.2110   40.0600 H   0  0  0  0  0  0  0  0  0  0  0  0
   40.0220   33.3840   39.6420 C   0  0  0  0  0  0  0  0  0  0  0  0
   41.5920   34.1410   39.5960 Cl  0  0  0  0  0  0  0  0  0  0  0  0
  1  7  1  0  0  0  0
  2  1  1  0  0  0  0
  3  2  2  0  0  0  0
  4  1  1  0  0  0  0
  5  8  1  1  0  0  0
  6  5  1  0  0  0  0
  6  9  1  0  0  0  0
  7 11  1  6  0  0  0
  7  6  1  0  0  0  0
  7  5  1  0  0  0  0
 10  6  1  0  0  0  0
 12 18  1  0  0  0  0
 13 12  1  0  0  0  0
 13  5  1  0  0  0  0
 14 13  2  0  0  0  0
 15 16  2  0  0  0  0
 15 14  1  0  0  0  0
 16 17  1  0  0  0  0
 17 12  2  0  0  0  0
 19 14  1  0  0  0  0
 20 16  1  0  0  0  0
 21 24  1  1  0  0  0
 21  2  1  0  0  0  0
 22 23  1  0  0  0  0
 22 21  1  0  0  0  0
 23 21  1  0  0  0  0
 23 27  1  1  0  0  0
 23 30  1  0  0  0  0
 25 22  1  0  0  0  0
 26 22  1  0  0  0  0
 28 29  1  0  0  0  0
 29 30  2  0  0  0  0
 29 37  1  0  0  0  0
 30 31  1  0  0  0  0
 31 32  1  0  0  0  0
 31 33  2  0  0  0  0
 33 34  1  0  0  0  0
 35 33  1  0  0  0  0
 35 36  1  0  0  0  0
 37 35  2  0  0  0  0
 38 37  1  0  0  0  0
M  END
>  <minimizedAffinity>
-5.12227106

$$$$

 OpenBabel03242510203D

 38 41  0  0  1  0  0  0  0  0999 V2000
   38.3050   30.5560   40.7360 N   0  0  0  0  0  0  0  0  0  0  0  0
   38.8260   30.0730   41.9250 C   0  0  0  0  0  0  0  0  0  0  0  0
   39.3200   30.6900   42.9070 O   0  0  0  0  0  0  0  0  0  0  0  0
   38.5960   30.0480   39.8560 H   0  0  0  0  0  0  0  0  0  0  0  0
   37.9670   32.8970   40.0030 C   0  0  1  0  0  0  0  0  0  0  0  0
   37.0770   32.1150   39.2260 C   0  0  0  0  0  0  0  0  0  0  0  0
   37.4210   31.6730   40.6590 C   0  0  1  0  0  0  0  0  0  0  0  0
   37.6880   33.8890   40.4080 H   0  0  0  0  0  0  0  0  0  0  0  0
   36.0320   32.5020   39.0940 H   0  0  0  0  0  0  0  0  0  0  0  0
   37.3080   31.3640   38.4710 H   0  0  0  0  0  0  0  0  0  0  0  0
   36.5160   31.6140   41.2730 H   0  0  0  0  0  0  0  0  0  0  0  0
   40.4680   33.3210   40.5270 C   0  0  0  0  0  0  0  0  0  0  0  0
   39.4520   32.8690   39.6390 C   0  0  0  0  0  0  0  0  0  0  0  0
   39.8350   32.4080   38.4030 C   0  0  0  0  0  0  0  0  0  0  0  0
   41.1540   32.4030   38.0850 N   0  0  0  0  0  0  0  0  0  0  0  0
   42.1140   32.8330   38.9310 C   0  0  0  0  0  0  0  0  0  0  0  0
   41.7530   33.3080   40.1940 N   0  0  0  0  0  0  0  0  0  0  0  0
   40.1420   33.6730   41.4800 H   0  0  0  0  0  0  0  0  0  0  0  0
   39.1070   32.0520   37.6880 H   0  0  0  0  0  0  0  0  0  0  0  0
   43.1310   32.7940   38.5930 H   0  0  0  0  0  0  0  0  0  0  0  0
   38.8460   28.5720   42.1890 C   0  0  2  0  0  0  0  0  0  0  0  0
   40.2510   27.9050   42.2620 C   0  0  0  0  0  0  0  0  0  0  0  0
   39.2430   27.6210   41.1610 C   0  0  1  0  0  0  0  0  0  0  0  0
   38.2770   28.2360   43.0900 H   0  0  0  0  0  0  0  0  0  0  0  0
   40.4140   27.0980   42.9740 H   0  0  0  0  0  0  0  0  0  0  0  0
   41.1110   28.5480   42.1020 H   0  0  0  0  0  0  0  0  0  0  0  0
   39.7050   27.8120   40.2110 H   0  0  0  0  0  0  0  0  0  0  0  0
   40.2630   25.3870   39.2560 Cl  0  0  0  0  0  0  0  0  0  0  0  0
   38.9640   25.1920   40.4000 C   0  0  0  0  0  0  0  0  0  0  0  0
   38.6020   26.2600   41.1850 C   0  0  0  0  0  0  0  0  0  0  0  0
   37.5640   25.9840   42.0460 C   0  0  0  0  0  0  0  0  0  0  0  0
   37.1640   26.7040   42.7280 H   0  0  0  0  0  0  0  0  0  0  0  0
   36.9270   24.7650   42.1400 C   0  0  0  0  0  0  0  0  0  0  0  0
   36.1120   24.5500   42.8180 H   0  0  0  0  0  0  0  0  0  0  0  0
   37.3360   23.7300   41.3260 C   0  0  0  0  0  0  0  0  0  0  0  0
   36.8750   22.7640   41.3590 H   0  0  0  0  0  0  0  0  0  0  0  0
   38.3710   23.9510   40.4440 C   0  0  0  0  0  0  0  0  0  0  0  0
   38.8960   22.6490   39.4110 Cl  0  0  0  0  0  0  0  0  0  0  0  0
  1  2  1  0  0  0  0
  2 21  1  0  0  0  0
  2  3  2  0  0  0  0
  4  1  1  0  0  0  0
  5  8  1  1  0  0  0
  5  7  1  0  0  0  0
  6  5  1  0  0  0  0
  6  7  1  0  0  0  0
  7  1  1  0  0  0  0
  7 11  1  1  0  0  0
  9  6  1  0  0  0  0
 10  6  1  0  0  0  0
 12 18  1  0  0  0  0
 13  5  1  0  0  0  0
 13 12  2  0  0  0  0
 14 13  1  0  0  0  0
 15 14  2  0  0  0  0
 15 16  1  0  0  0  0
 16 17  2  0  0  0  0
 17 12  1  0  0  0  0
 19 14  1  0  0  0  0
 20 16  1  0  0  0  0
 21 22  1  0  0  0  0
 21 24  1  1  0  0  0
 22 25  1  0  0  0  0
 23 27  1  6  0  0  0
 23 30  1  0  0  0  0
 23 21  1  0  0  0  0
 23 22  1  0  0  0  0
 26 22  1  0  0  0  0
 28 29  1  0  0  0  0
 29 37  2  0  0  0  0
 29 30  1  0  0  0  0
 30 31  2  0  0  0  0
 31 33  1  0  0  0  0
 31 32  1  0  0  0  0
 33 34  1  0  0  0  0
 35 36  1  0  0  0  0
 35 33  2  0  0  0  0
 37 35  1  0  0  0  0
 38 37  1  0  0  0  0
M  END
>  <minimizedAffinity>
-5.04226351

$$$$
