REMARK  Name = 
REMARK  3 active torsions:
REMARK  status: ('A' for Active; 'I' for Inactive)
REMARK    1  A    between atoms: C_2  and  N_12
REMARK    2  A    between atoms: C_11  and  S_13
REMARK    3  A    between atoms: S_13  and  C_27
REMARK                            x       y       z     vdW  Elec       q    Type
REMARK                         _______ _______ _______ _____ _____    ______ ____
ROOT
ATOM      1  C   UNL     1      44.481  35.736  44.996  0.00  0.00    +0.000 A 
ATOM      2  C   UNL     1      45.123  35.713  43.749  0.00  0.00    +0.000 A 
ATOM      3  C   UNL     1      46.024  34.725  43.494  0.00  0.00    +0.000 A 
ATOM      4  N   UNL     1      46.239  33.822  44.479  0.00  0.00    +0.000 NA
ATOM      5  C   UNL     1      45.618  33.857  45.665  0.00  0.00    +0.000 A 
ATOM      6  N   UNL     1      44.737  34.805  45.943  0.00  0.00    +0.000 NA
ATOM      7  N   UNL     1      45.937  32.834  46.617  0.00  0.00    +0.000 N 
ATOM      8  C   UNL     1      45.163  32.576  47.819  0.00  0.00    +0.000 C 
ATOM      9  C   UNL     1      46.253  32.243  48.808  0.00  0.00    +0.000 C 
ATOM     10  C   UNL     1      47.527  32.064  48.031  0.00  0.00    +0.000 C 
ATOM     11  C   UNL     1      47.039  31.888  46.594  0.00  0.00    +0.000 C 
ATOM     12  H   UNL     1      43.748  36.508  45.250  0.00  0.00    +0.000 HD
ATOM     13  H   UNL     1      46.517  34.702  42.544  0.00  0.00    +0.000 HD
ATOM     14  H   UNL     1      44.548  31.664  47.720  0.00  0.00    +0.000 HD
ATOM     15  H   UNL     1      44.560  33.461  48.120  0.00  0.00    +0.000 HD
ATOM     16  H   UNL     1      46.014  31.421  49.481  0.00  0.00    +0.000 HD
ATOM     17  H   UNL     1      46.360  33.158  49.455  0.00  0.00    +0.000 HD
ATOM     18  H   UNL     1      48.147  32.970  48.094  0.00  0.00    +0.000 HD
ATOM     19  H   UNL     1      48.067  31.173  48.414  0.00  0.00    +0.000 HD
ATOM     20  H   UNL     1      47.732  32.269  45.844  0.00  0.00    +0.000 HD
ENDROOT
BRANCH   2  21
ATOM     21  N   UNL     1      44.764  36.754  42.828  0.00  0.00    +0.000 N 
ATOM     22  H   UNL     1      43.814  37.150  42.740  0.00  0.00    +0.000 HD
ATOM     23  H   UNL     1      45.515  37.149  42.193  0.00  0.00    +0.000 HD
ENDBRANCH   2  21
BRANCH  11  24
ATOM     24  S   UNL     1      46.477  30.208  46.390  0.00  0.00    +0.000 S 
BRANCH  24  27
ATOM     25 CL   UNL     1      47.574  28.980  43.549  0.00  0.00    +0.000 Cl
ATOM     26  C   UNL     1      48.246  28.412  45.041  0.00  0.00    +0.000 A 
ATOM     27  C   UNL     1      47.712  28.990  46.168  0.00  0.00    +0.000 A 
ATOM     28  C   UNL     1      48.219  28.537  47.395  0.00  0.00    +0.000 A 
ATOM     29  H   UNL     1      47.935  28.861  48.403  0.00  0.00    +0.000 HD
ATOM     30  C   UNL     1      49.213  27.551  47.408  0.00  0.00    +0.000 A 
ATOM     31  H   UNL     1      49.643  27.162  48.340  0.00  0.00    +0.000 HD
ATOM     32  C   UNL     1      49.715  27.004  46.234  0.00  0.00    +0.000 A 
ATOM     33  H   UNL     1      50.474  26.253  46.252  0.00  0.00    +0.000 HD
ATOM     34  C   UNL     1      49.210  27.456  45.044  0.00  0.00    +0.000 A 
ATOM     35 CL   UNL     1      49.772  26.835  43.493  0.00  0.00    +0.000 Cl
ENDBRANCH  24  27
ENDBRANCH  11  24
TORSDOF 3
