
 OpenBabel03252506433D

 42 45  0  0  1  0  0  0  0  0999 V2000
   49.2700   33.4290   41.3460 N   0  0  1  0  0  0  0  0  0  0  0  0
   50.5690   33.1580   41.9070 C   0  0  0  0  0  0  0  0  0  0  0  0
   51.1730   31.8520   41.5200 C   0  0  0  0  0  0  0  0  0  0  0  0
   50.3290   30.7210   42.0440 C   0  0  0  0  0  0  0  0  0  0  0  0
   48.8880   31.0900   42.0150 C   0  0  0  0  0  0  0  0  0  0  0  0
   48.6040   32.1780   41.0250 C   0  0  2  0  0  0  0  0  0  0  0  0
   50.4540   33.1230   43.0300 H   0  0  0  0  0  0  0  0  0  0  0  0
   51.2670   34.0180   41.7500 H   0  0  0  0  0  0  0  0  0  0  0  0
   51.4820   31.7280   40.4870 H   0  0  0  0  0  0  0  0  0  0  0  0
   52.1410   31.7970   42.1110 H   0  0  0  0  0  0  0  0  0  0  0  0
   50.6290   30.4610   43.0750 H   0  0  0  0  0  0  0  0  0  0  0  0
   50.4570   29.8080   41.4030 H   0  0  0  0  0  0  0  0  0  0  0  0
   48.2030   30.2490   41.8370 H   0  0  0  0  0  0  0  0  0  0  0  0
   48.6160   31.4890   43.0160 H   0  0  0  0  0  0  0  0  0  0  0  0
   47.5100   32.4310   41.2080 H   0  0  0  0  0  0  0  0  0  0  0  0
   48.2270   34.2200   38.6550 Cl  0  0  0  0  0  0  0  0  0  0  0  0
   48.5940   32.5440   38.4590 C   0  0  0  0  0  0  0  0  0  0  0  0
   48.6850   31.8090   39.6140 C   0  0  0  0  0  0  0  0  0  0  0  0
   48.9400   30.4400   39.4630 C   0  0  0  0  0  0  0  0  0  0  0  0
   49.0560   29.6400   40.2090 H   0  0  0  0  0  0  0  0  0  0  0  0
   49.0920   29.8880   38.1840 C   0  0  0  0  0  0  0  0  0  0  0  0
   49.2900   28.8510   37.9620 H   0  0  0  0  0  0  0  0  0  0  0  0
   48.9940   30.6690   37.0510 C   0  0  0  0  0  0  0  0  0  0  0  0
   49.1050   30.2850   36.0450 H   0  0  0  0  0  0  0  0  0  0  0  0
   48.7410   32.0170   37.1980 C   0  0  0  0  0  0  0  0  0  0  0  0
   48.6030   33.0710   35.8290 Cl  0  0  0  0  0  0  0  0  0  0  0  0
   47.1700   34.7520   42.0440 C   0  0  1  0  0  0  0  0  0  0  0  0
   48.3280   35.6490   41.8980 C   0  0  0  0  0  0  0  0  0  0  0  0
   48.5560   34.2360   42.2710 C   0  0  2  0  0  0  0  0  0  0  0  0
   46.6850   34.3910   41.1110 H   0  0  0  0  0  0  0  0  0  0  0  0
   48.5330   36.0430   40.8990 H   0  0  0  0  0  0  0  0  0  0  0  0
   48.4550   36.3990   42.7150 H   0  0  0  0  0  0  0  0  0  0  0  0
   48.7660   34.0110   43.3390 H   0  0  0  0  0  0  0  0  0  0  0  0
   45.4090   36.0490   43.3010 C   0  0  0  0  0  0  0  0  0  0  0  0
   46.2630   34.9310   43.2090 C   0  0  0  0  0  0  0  0  0  0  0  0
   46.2330   33.9870   44.2470 C   0  0  0  0  0  0  0  0  0  0  0  0
   45.3790   34.1980   45.2950 N   0  0  0  0  0  0  0  0  0  0  0  0
   44.5750   35.2940   45.3350 C   0  0  0  0  0  0  0  0  0  0  0  0
   44.5790   36.2320   44.3410 N   0  0  0  0  0  0  0  0  0  0  0  0
   45.4360   36.7660   42.5040 H   0  0  0  0  0  0  0  0  0  0  0  0
   46.8820   33.1230   44.1920 H   0  0  0  0  0  0  0  0  0  0  0  0
   43.9100   35.4270   46.1830 H   0  0  0  0  0  0  0  0  0  0  0  0
  1  2  1  1  0  0  0
  1 29  1  0  0  0  0
  2  7  1  0  0  0  0
  3  2  1  0  0  0  0
  3  4  1  0  0  0  0
  3 10  1  0  0  0  0
  4 11  1  0  0  0  0
  5  4  1  0  0  0  0
  5 14  1  0  0  0  0
  6 15  1  1  0  0  0
  6  1  1  0  0  0  0
  6  5  1  0  0  0  0
  8  2  1  0  0  0  0
  9  3  1  0  0  0  0
 12  4  1  0  0  0  0
 13  5  1  0  0  0  0
 17 16  1  0  0  0  0
 17 18  1  0  0  0  0
 18  6  1  0  0  0  0
 19 18  2  0  0  0  0
 19 20  1  0  0  0  0
 21 19  1  0  0  0  0
 22 21  1  0  0  0  0
 23 25  1  0  0  0  0
 23 21  2  0  0  0  0
 24 23  1  0  0  0  0
 25 17  2  0  0  0  0
 26 25  1  0  0  0  0
 27 30  1  6  0  0  0
 27 29  1  0  0  0  0
 27 35  1  0  0  0  0
 28 27  1  0  0  0  0
 28 29  1  0  0  0  0
 28 32  1  0  0  0  0
 29 33  1  1  0  0  0
 31 28  1  0  0  0  0
 34 39  1  0  0  0  0
 35 34  2  0  0  0  0
 35 36  1  0  0  0  0
 36 37  2  0  0  0  0
 37 38  1  0  0  0  0
 38 42  1  0  0  0  0
 39 38  2  0  0  0  0
 40 34  1  0  0  0  0
 41 36  1  0  0  0  0
M  END
>  <minimizedAffinity>
-5.33417559

>  <minimizedRMSD>
0.842410088

$$$$
