
 OpenBabel03252502243D

 36 38  0  0  1  0  0  0  0  0999 V2000
   46.8310   34.6050   42.2830 N   0  0  0  0  0  0  0  0  0  0  0  0
   48.2910   34.5280   42.3660 C   0  0  0  0  0  0  0  0  0  0  0  0
   48.7500   35.3560   41.1450 C   0  0  0  0  0  0  0  0  0  0  0  0
   48.3620   34.6320   39.8890 C   0  0  0  0  0  0  0  0  0  0  0  0
   46.9870   34.0690   39.9080 C   0  0  0  0  0  0  0  0  0  0  0  0
   46.0980   34.5070   41.0390 C   0  0  1  0  0  0  0  0  0  0  0  0
   48.6740   33.5060   42.2620 H   0  0  0  0  0  0  0  0  0  0  0  0
   48.6220   35.0580   43.2690 H   0  0  0  0  0  0  0  0  0  0  0  0
   49.8440   35.4300   41.2260 H   0  0  0  0  0  0  0  0  0  0  0  0
   48.2600   36.3490   41.2370 H   0  0  0  0  0  0  0  0  0  0  0  0
   48.5360   35.3520   39.0520 H   0  0  0  0  0  0  0  0  0  0  0  0
   49.1060   33.8210   39.7400 H   0  0  0  0  0  0  0  0  0  0  0  0
   47.0180   32.9500   39.9150 H   0  0  0  0  0  0  0  0  0  0  0  0
   46.4780   34.3470   38.9610 H   0  0  0  0  0  0  0  0  0  0  0  0
   45.7860   35.5410   40.8050 H   0  0  0  0  0  0  0  0  0  0  0  0
   44.4740   35.9920   44.8450 C   0  0  0  0  0  0  0  0  0  0  0  0
   45.1870   35.9000   43.6340 C   0  0  0  0  0  0  0  0  0  0  0  0
   46.0620   34.7890   43.4760 C   0  0  0  0  0  0  0  0  0  0  0  0
   46.1400   33.9070   44.5020 N   0  0  0  0  0  0  0  0  0  0  0  0
   45.4390   34.0320   45.6460 C   0  0  0  0  0  0  0  0  0  0  0  0
   44.6010   35.0840   45.8140 N   0  0  0  0  0  0  0  0  0  0  0  0
   43.7980   36.8340   44.9900 H   0  0  0  0  0  0  0  0  0  0  0  0
   45.1030   36.6130   42.8460 H   0  0  0  0  0  0  0  0  0  0  0  0
   45.6160   33.2300   46.3770 H   0  0  0  0  0  0  0  0  0  0  0  0
   45.0900   33.5990   41.1870 O   0  0  0  0  0  0  0  0  0  0  0  0
   44.4640   31.7370   38.7750 Cl  0  0  0  0  0  0  0  0  0  0  0  0
   43.3160   32.6630   39.6730 C   0  0  0  0  0  0  0  0  0  0  0  0
   43.8620   33.4050   40.6950 C   0  0  0  0  0  0  0  0  0  0  0  0
   42.9350   34.1620   41.4330 C   0  0  0  0  0  0  0  0  0  0  0  0
   43.1350   34.8270   42.2900 H   0  0  0  0  0  0  0  0  0  0  0  0
   41.5720   34.1500   41.1380 C   0  0  0  0  0  0  0  0  0  0  0  0
   40.8200   34.7120   41.6710 H   0  0  0  0  0  0  0  0  0  0  0  0
   41.1330   33.3820   40.1070 C   0  0  0  0  0  0  0  0  0  0  0  0
   40.0800   33.3370   39.8340 H   0  0  0  0  0  0  0  0  0  0  0  0
   41.9840   32.6190   39.3460 C   0  0  0  0  0  0  0  0  0  0  0  0
   41.4960   31.6100   38.0090 Cl  0  0  0  0  0  0  0  0  0  0  0  0
  1  2  1  0  0  0  0
  1 18  1  0  0  0  0
  2  8  1  0  0  0  0
  3  9  1  0  0  0  0
  3 10  1  0  0  0  0
  3  2  1  0  0  0  0
  4  5  1  0  0  0  0
  4  3  1  0  0  0  0
  5 13  1  0  0  0  0
  5  6  1  0  0  0  0
  6 15  1  6  0  0  0
  6 25  1  0  0  0  0
  6  1  1  0  0  0  0
  7  2  1  0  0  0  0
 11  4  1  0  0  0  0
 12  4  1  0  0  0  0
 14  5  1  0  0  0  0
 16 22  1  0  0  0  0
 16 21  1  0  0  0  0
 17 16  2  0  0  0  0
 18 17  1  0  0  0  0
 18 19  2  0  0  0  0
 19 20  1  0  0  0  0
 20 21  2  0  0  0  0
 20 24  1  0  0  0  0
 23 17  1  0  0  0  0
 26 27  1  0  0  0  0
 27 28  1  0  0  0  0
 28 25  1  0  0  0  0
 28 29  2  0  0  0  0
 29 30  1  0  0  0  0
 31 29  1  0  0  0  0
 31 32  1  0  0  0  0
 33 31  2  0  0  0  0
 34 33  1  0  0  0  0
 35 27  2  0  0  0  0
 35 33  1  0  0  0  0
 36 35  1  0  0  0  0
M  END
>  <minimizedAffinity>
-5.5687685

>  <minimizedRMSD>
1.92417002

$$$$
