REMARK  Name = 
REMARK  3 active torsions:
REMARK  status: ('A' for Active; 'I' for Inactive)
REMARK    1  A    between atoms: C_1  and  C_11
REMARK    2  A    between atoms: C_6  and  N_13
REMARK    3  A    between atoms: C_9  and  C_28
REMARK                            x       y       z     vdW  Elec       q    Type
REMARK                         _______ _______ _______ _____ _____    ______ ____
ROOT
ATOM      1  C   UNL     1      45.018  35.036  44.270  0.00  0.00    +0.000 A 
ATOM      2  C   UNL     1      45.872  34.870  43.175  0.00  0.00    +0.000 A 
ATOM      3  C   UNL     1      46.933  33.984  43.278  0.00  0.00    +0.000 A 
ATOM      4  N   UNL     1      47.056  33.336  44.468  0.00  0.00    +0.000 NA
ATOM      5  C   UNL     1      46.237  33.501  45.506  0.00  0.00    +0.000 A 
ATOM      6  N   UNL     1      45.196  34.366  45.411  0.00  0.00    +0.000 NA
ATOM      7  H   UNL     1      44.208  35.744  44.123  0.00  0.00    +0.000 HD
ATOM      8  H   UNL     1      45.730  35.408  42.289  0.00  0.00    +0.000 HD
ENDROOT
BRANCH   5   9
ATOM      9  C   UNL     1      46.488  32.742  46.756  0.00  0.00    +0.000 C 
ATOM     10  C   UNL     1      47.025  31.416  46.362  0.00  0.00    +0.000 C 
ATOM     11  C   UNL     1      46.079  30.291  46.478  0.00  0.00    +0.000 C 
ATOM     12  C   UNL     1      45.606  30.283  47.918  0.00  0.00    +0.000 C 
ATOM     13  C   UNL     1      44.816  31.478  48.240  0.00  0.00    +0.000 C 
ATOM     14  C   UNL     1      45.308  32.755  47.609  0.00  0.00    +0.000 C 
ATOM     15  H   UNL     1      47.294  33.331  47.286  0.00  0.00    +0.000 HD
ATOM     16  H   UNL     1      47.905  31.185  47.003  0.00  0.00    +0.000 HD
ATOM     17  H   UNL     1      47.463  31.440  45.322  0.00  0.00    +0.000 HD
ATOM     18  H   UNL     1      45.194  30.467  45.831  0.00  0.00    +0.000 HD
ATOM     19  H   UNL     1      46.577  29.350  46.238  0.00  0.00    +0.000 HD
ATOM     20  H   UNL     1      44.875  29.445  47.970  0.00  0.00    +0.000 HD
ATOM     21  H   UNL     1      46.434  30.051  48.581  0.00  0.00    +0.000 HD
ATOM     22  H   UNL     1      43.954  31.622  48.835  0.00  0.00    +0.000 HD
BRANCH  14  23
ATOM     23  N   UNL     1      44.625  33.986  47.837  0.00  0.00    +0.000 N 
ATOM     24  H   UNL     1      44.988  34.695  48.515  0.00  0.00    +0.000 HD
ATOM     25  H   UNL     1      43.813  34.562  47.588  0.00  0.00    +0.000 HD
ENDBRANCH  14  23
ENDBRANCH   5   9
BRANCH   3  28
ATOM     26 CL   UNL     1      49.749  35.404  43.235  0.00  0.00    +0.000 Cl
ATOM     27  C   UNL     1      49.194  34.186  42.152  0.00  0.00    +0.000 A 
ATOM     28  C   UNL     1      47.943  33.664  42.292  0.00  0.00    +0.000 A 
ATOM     29  C   UNL     1      47.645  32.720  41.334  0.00  0.00    +0.000 A 
ATOM     30  H   UNL     1      46.693  32.200  41.292  0.00  0.00    +0.000 HD
ATOM     31  C   UNL     1      48.509  32.334  40.334  0.00  0.00    +0.000 A 
ATOM     32  H   UNL     1      48.244  31.598  39.608  0.00  0.00    +0.000 HD
ATOM     33  C   UNL     1      49.758  32.891  40.238  0.00  0.00    +0.000 A 
ATOM     34  H   UNL     1      50.428  32.580  39.451  0.00  0.00    +0.000 HD
ATOM     35  C   UNL     1      50.092  33.838  41.177  0.00  0.00    +0.000 A 
ATOM     36 CL   UNL     1      51.683  34.551  41.060  0.00  0.00    +0.000 Cl
ENDBRANCH   3  28
TORSDOF 3
