
 OpenBabel03252507333D

 51 54  0  0  1  0  0  0  0  0999 V2000
   47.0680   32.4540   45.3170 C   0  0  0  0  0  0  0  0  0  0  0  0
   46.0060   33.1260   45.9010 C   0  0  0  0  0  0  0  0  0  0  0  0
   45.3710   34.1770   45.1980 C   0  0  0  0  0  0  0  0  0  0  0  0
   45.8780   34.4690   43.9330 N   0  0  0  0  0  0  0  0  0  0  0  0
   46.9090   33.7820   43.4280 C   0  0  0  0  0  0  0  0  0  0  0  0
   47.4920   32.7940   44.1050 N   0  0  0  0  0  0  0  0  0  0  0  0
   45.4930   33.0970   46.8370 H   0  0  0  0  0  0  0  0  0  0  0  0
   44.5580   34.7920   45.4780 H   0  0  0  0  0  0  0  0  0  0  0  0
   47.6670   31.3670   46.0660 C   0  0  2  0  0  0  0  0  0  0  0  0
   47.2550   29.9800   45.4890 C   0  0  0  0  0  0  0  0  0  0  0  0
   48.0100   28.9060   46.1880 C   0  0  0  0  0  0  0  0  0  0  0  0
   48.1110   29.0310   47.6710 C   0  0  0  0  0  0  0  0  0  0  0  0
   48.2670   30.3840   48.1470 C   0  0  0  0  0  0  0  0  0  0  0  0
   47.3150   31.3950   47.4710 C   0  0  2  0  0  0  0  0  0  0  0  0
   48.7670   31.3770   45.8840 H   0  0  0  0  0  0  0  0  0  0  0  0
   46.1630   29.8620   45.4940 H   0  0  0  0  0  0  0  0  0  0  0  0
   47.5620   30.0400   44.4240 H   0  0  0  0  0  0  0  0  0  0  0  0
   47.4420   27.9480   46.0000 H   0  0  0  0  0  0  0  0  0  0  0  0
   48.9580   28.7700   45.6330 H   0  0  0  0  0  0  0  0  0  0  0  0
   47.7030   28.2290   48.2870 H   0  0  0  0  0  0  0  0  0  0  0  0
   49.2060   28.6610   47.8090 H   0  0  0  0  0  0  0  0  0  0  0  0
   49.2690   30.8710   48.0730 H   0  0  0  0  0  0  0  0  0  0  0  0
   48.0260   30.4420   49.2440 H   0  0  0  0  0  0  0  0  0  0  0  0
   47.5520   32.3070   48.0220 H   0  0  0  0  0  0  0  0  0  0  0  0
   45.9380   30.9320   47.6540 N   0  0  0  0  0  0  0  0  0  0  0  0
   45.2130   30.5870   48.8070 C   0  0  0  0  0  0  0  0  0  0  0  0
   44.7240   31.4600   49.6120 O   0  0  0  0  0  0  0  0  0  0  0  0
   45.0530   29.1830   49.0160 N   0  0  0  0  0  0  0  0  0  0  0  0
   45.2870   30.7240   46.8060 H   0  0  0  0  0  0  0  0  0  0  0  0
   44.5130   28.3930   48.6030 H   0  0  0  0  0  0  0  0  0  0  0  0
   45.2460   28.2670   49.5030 H   0  0  0  0  0  0  0  0  0  0  0  0
   47.4050   34.1560   42.1000 C   0  0  0  0  0  0  0  0  0  0  0  0
   48.2840   35.2040   41.9420 C   0  0  0  0  0  0  0  0  0  0  0  0
   48.7940   35.6110   40.7240 C   0  0  0  0  0  0  0  0  0  0  0  0
   48.3540   34.8790   39.6380 C   0  0  0  0  0  0  0  0  0  0  0  0
   47.4770   33.8310   39.7820 C   0  0  0  0  0  0  0  0  0  0  0  0
   47.0060   33.4740   41.0150 N   0  0  0  0  0  0  0  0  0  0  0  0
   48.5760   35.7210   42.8440 H   0  0  0  0  0  0  0  0  0  0  0  0
   49.4900   36.4520   40.6610 H   0  0  0  0  0  0  0  0  0  0  0  0
   48.7390   35.1800   38.6740 H   0  0  0  0  0  0  0  0  0  0  0  0
   49.3480   31.7330   38.7820 Cl  0  0  0  0  0  0  0  0  0  0  0  0
   47.7670   32.0560   38.0810 C   0  0  0  0  0  0  0  0  0  0  0  0
   47.0070   33.0540   38.6430 C   0  0  0  0  0  0  0  0  0  0  0  0
   45.7840   33.2450   38.0370 C   0  0  0  0  0  0  0  0  0  0  0  0
   45.1180   33.9910   38.3930 H   0  0  0  0  0  0  0  0  0  0  0  0
   45.3320   32.5210   36.9680 C   0  0  0  0  0  0  0  0  0  0  0  0
   44.3550   32.6940   36.5070 H   0  0  0  0  0  0  0  0  0  0  0  0
   46.1260   31.5250   36.4310 C   0  0  0  0  0  0  0  0  0  0  0  0
   45.8330   30.9180   35.5910 H   0  0  0  0  0  0  0  0  0  0  0  0
   47.3600   31.2980   37.0040 C   0  0  0  0  0  0  0  0  0  0  0  0
   48.4270   30.0400   36.3690 Cl  0  0  0  0  0  0  0  0  0  0  0  0
  1  2  1  0  0  0  0
  1  9  1  0  0  0  0
  2  7  1  0  0  0  0
  3  8  1  0  0  0  0
  3  2  2  0  0  0  0
  4  3  1  0  0  0  0
  5  4  2  0  0  0  0
  5  6  1  0  0  0  0
  6  1  2  0  0  0  0
  9 15  1  6  0  0  0
  9 14  1  0  0  0  0
 10 16  1  0  0  0  0
 10  9  1  0  0  0  0
 10 11  1  0  0  0  0
 11 12  1  0  0  0  0
 12 21  1  0  0  0  0
 12 13  1  0  0  0  0
 12 20  1  0  0  0  0
 13 23  1  0  0  0  0
 14 25  1  0  0  0  0
 14 24  1  1  0  0  0
 14 13  1  0  0  0  0
 17 10  1  0  0  0  0
 18 11  1  0  0  0  0
 19 11  1  0  0  0  0
 22 13  1  0  0  0  0
 25 26  1  0  0  0  0
 26 28  1  0  0  0  0
 26 27  2  0  0  0  0
 28 31  1  0  0  0  0
 29 25  1  0  0  0  0
 30 28  1  0  0  0  0
 32  5  1  0  0  0  0
 33 32  1  0  0  0  0
 33 38  1  0  0  0  0
 34 33  2  0  0  0  0
 35 36  2  0  0  0  0
 35 34  1  0  0  0  0
 36 37  1  0  0  0  0
 37 32  2  0  0  0  0
 39 34  1  0  0  0  0
 40 35  1  0  0  0  0
 42 43  1  0  0  0  0
 42 41  1  0  0  0  0
 43 36  1  0  0  0  0
 44 45  1  0  0  0  0
 44 43  2  0  0  0  0
 46 44  1  0  0  0  0
 47 46  1  0  0  0  0
 48 46  2  0  0  0  0
 48 50  1  0  0  0  0
 49 48  1  0  0  0  0
 50 42  2  0  0  0  0
 51 50  1  0  0  0  0
M  END
>  <minimizedAffinity>
-6.39064312

>  <minimizedRMSD>
1.29764855

$$$$
