
 OpenBabel03252502243D

 36 38  0  0  1  0  0  0  0  0999 V2000
   46.6990   34.5070   42.2740 N   0  0  0  0  0  0  0  0  0  0  0  0
   48.1590   34.4020   42.3070 C   0  0  0  0  0  0  0  0  0  0  0  0
   48.5900   35.1940   41.0510 C   0  0  0  0  0  0  0  0  0  0  0  0
   48.1420   34.4500   39.8270 C   0  0  0  0  0  0  0  0  0  0  0  0
   46.7580   33.9150   39.9070 C   0  0  0  0  0  0  0  0  0  0  0  0
   45.9200   34.3960   41.0600 C   0  0  1  0  0  0  0  0  0  0  0  0
   48.5180   33.3710   42.2120 H   0  0  0  0  0  0  0  0  0  0  0  0
   48.5330   34.9450   43.1840 H   0  0  0  0  0  0  0  0  0  0  0  0
   49.6870   35.2470   41.0910 H   0  0  0  0  0  0  0  0  0  0  0  0
   48.1230   36.1980   41.1380 H   0  0  0  0  0  0  0  0  0  0  0  0
   48.2990   35.1480   38.9680 H   0  0  0  0  0  0  0  0  0  0  0  0
   48.8650   33.6210   39.6690 H   0  0  0  0  0  0  0  0  0  0  0  0
   46.7670   32.7960   39.9390 H   0  0  0  0  0  0  0  0  0  0  0  0
   46.2200   34.1830   38.9730 H   0  0  0  0  0  0  0  0  0  0  0  0
   45.6190   35.4310   40.8130 H   0  0  0  0  0  0  0  0  0  0  0  0
   44.4770   36.0070   44.8920 C   0  0  0  0  0  0  0  0  0  0  0  0
   45.1450   35.8740   43.6600 C   0  0  0  0  0  0  0  0  0  0  0  0
   45.9770   34.7320   43.4890 C   0  0  0  0  0  0  0  0  0  0  0  0
   46.0620   33.8630   44.5250 N   0  0  0  0  0  0  0  0  0  0  0  0
   45.4050   34.0270   45.6900 C   0  0  0  0  0  0  0  0  0  0  0  0
   44.6080   35.1080   45.8710 N   0  0  0  0  0  0  0  0  0  0  0  0
   43.8340   36.8720   45.0470 H   0  0  0  0  0  0  0  0  0  0  0  0
   45.0570   36.5780   42.8650 H   0  0  0  0  0  0  0  0  0  0  0  0
   45.5810   33.2300   46.4270 H   0  0  0  0  0  0  0  0  0  0  0  0
   44.9000   33.5130   41.2640 O   0  0  0  0  0  0  0  0  0  0  0  0
   42.6240   35.6330   41.2970 Cl  0  0  0  0  0  0  0  0  0  0  0  0
   42.5150   34.0300   40.6630 C   0  0  0  0  0  0  0  0  0  0  0  0
   43.6750   33.2960   40.7760 C   0  0  0  0  0  0  0  0  0  0  0  0
   43.5950   31.9890   40.2630 C   0  0  0  0  0  0  0  0  0  0  0  0
   44.3880   31.2240   40.2420 H   0  0  0  0  0  0  0  0  0  0  0  0
   42.4260   31.4910   39.6890 C   0  0  0  0  0  0  0  0  0  0  0  0
   42.3130   30.4990   39.2820 H   0  0  0  0  0  0  0  0  0  0  0  0
   41.3340   32.2970   39.6260 C   0  0  0  0  0  0  0  0  0  0  0  0
   40.3970   31.9580   39.1880 H   0  0  0  0  0  0  0  0  0  0  0  0
   41.3430   33.5830   40.1070 C   0  0  0  0  0  0  0  0  0  0  0  0
   39.9830   34.6770   40.0630 Cl  0  0  0  0  0  0  0  0  0  0  0  0
  1  2  1  0  0  0  0
  1 18  1  0  0  0  0
  2  8  1  0  0  0  0
  3  9  1  0  0  0  0
  3 10  1  0  0  0  0
  3  2  1  0  0  0  0
  4  5  1  0  0  0  0
  4  3  1  0  0  0  0
  5 13  1  0  0  0  0
  5  6  1  0  0  0  0
  6 15  1  6  0  0  0
  6 25  1  0  0  0  0
  6  1  1  0  0  0  0
  7  2  1  0  0  0  0
 11  4  1  0  0  0  0
 12  4  1  0  0  0  0
 14  5  1  0  0  0  0
 16 22  1  0  0  0  0
 16 21  1  0  0  0  0
 17 16  2  0  0  0  0
 18 17  1  0  0  0  0
 18 19  2  0  0  0  0
 19 20  1  0  0  0  0
 20 21  2  0  0  0  0
 20 24  1  0  0  0  0
 23 17  1  0  0  0  0
 27 28  1  0  0  0  0
 27 26  1  0  0  0  0
 28 25  1  0  0  0  0
 29 28  2  0  0  0  0
 30 29  1  0  0  0  0
 31 29  1  0  0  0  0
 32 31  1  0  0  0  0
 33 31  2  0  0  0  0
 33 35  1  0  0  0  0
 34 33  1  0  0  0  0
 35 27  2  0  0  0  0
 36 35  1  0  0  0  0
M  END
>  <minimizedAffinity>
-5.76533508

>  <minimizedRMSD>
1.12433922

$$$$
