
     RDKit          3D

 47 51  0  0  0  0  0  0  0  0999 V2000
   45.1785   36.0321   43.4934 C   0  0  0  0  0  0  0  0  0  0  0  0
   45.9826   34.9151   43.2637 C   0  0  0  0  0  0  0  0  0  0  0  0
   46.0577   33.9708   44.2457 C   0  0  0  0  0  0  0  0  0  0  0  0
   45.3504   34.1657   45.3745 N   0  0  0  0  0  0  0  0  0  0  0  0
   44.5778   35.2412   45.5887 C   0  0  0  0  0  0  0  0  0  0  0  0
   44.4975   36.1636   44.6528 N   0  0  0  0  0  0  0  0  0  0  0  0
   46.6235   34.8110   42.0225 N   0  0  0  0  0  0  0  0  0  0  0  0
   47.9007   35.2609   41.7611 C   0  0  0  0  0  0  0  0  0  0  0  0
   48.4374   34.9006   40.3926 C   0  0  0  0  0  0  0  0  0  0  0  0
   48.1303   33.6102   39.9366 N   0  0  0  0  0  0  0  0  0  0  0  0
   46.8200   33.1539   40.1854 C   0  0  0  0  0  0  0  0  0  0  0  0
   45.9830   34.2129   40.8649 C   0  0  0  0  0  0  0  0  0  0  0  0
   46.5118   32.0442   45.5487 C   0  0  0  0  0  0  0  0  0  0  0  0
   46.7860   32.7669   44.3579 C   0  0  0  0  0  0  0  0  0  0  0  0
   47.7130   32.0898   43.5817 C   0  0  0  0  0  0  0  0  0  0  0  0
   48.3104   30.8942   43.8691 C   0  0  0  0  0  0  0  0  0  0  0  0
   47.9849   30.2688   45.0348 C   0  0  0  0  0  0  0  0  0  0  0  0
   47.0836   30.8387   45.8847 C   0  0  0  0  0  0  0  0  0  0  0  0
   48.7291   29.1061   45.0463 O   0  0  0  0  0  0  0  0  0  0  0  0
   49.5417   29.0381   43.9095 C   0  0  1  0  0  0  0  0  0  0  0  0
   49.2363   30.1870   43.1345 O   0  0  0  0  0  0  0  0  0  0  0  0
   45.1103   36.8006   42.7144 H   0  0  0  0  0  0  0  0  0  0  0  0
   43.9895   35.4538   46.4693 H   0  0  0  0  0  0  0  0  0  0  0  0
   47.9177   36.3907   41.7973 H   0  0  0  0  0  0  0  0  0  0  0  0
   48.6829   34.9802   42.5135 H   0  0  0  0  0  0  0  0  0  0  0  0
   48.0353   35.6531   39.6603 H   0  0  0  0  0  0  0  0  0  0  0  0
   49.5240   35.0470   40.4178 H   0  0  0  0  0  0  0  0  0  0  0  0
   48.5288   33.4762   39.0065 H   0  0  0  0  0  0  0  0  0  0  0  0
   46.7382   32.1610   40.6736 H   0  0  0  0  0  0  0  0  0  0  0  0
   46.3146   32.9968   39.1868 H   0  0  0  0  0  0  0  0  0  0  0  0
   45.8633   35.0554   40.1268 H   0  0  0  0  0  0  0  0  0  0  0  0
   44.9644   33.8606   41.0934 H   0  0  0  0  0  0  0  0  0  0  0  0
   45.8323   32.2965   46.3702 H   0  0  0  0  0  0  0  0  0  0  0  0
   47.9229   32.6237   42.7081 H   0  0  0  0  0  0  0  0  0  0  0  0
   46.8938   30.2702   46.7767 H   0  0  0  0  0  0  0  0  0  0  0  0
   49.2560   28.1400   43.3088 H   0  0  0  0  0  0  0  0  0  0  0  0
   50.4173   27.1312   46.1886 Cl  0  0  0  0  0  0  0  0  0  0  0  0
   51.5026   28.1711   45.2949 C   0  0  0  0  0  0  0  0  0  0  0  0
   50.9470   28.9559   44.3147 C   0  0  0  0  0  0  0  0  0  0  0  0
   51.8804   29.7538   43.6533 C   0  0  0  0  0  0  0  0  0  0  0  0
   51.5182   30.4103   42.8560 H   0  0  0  0  0  0  0  0  0  0  0  0
   53.2354   29.7968   43.9093 C   0  0  0  0  0  0  0  0  0  0  0  0
   53.8705   30.4555   43.3330 H   0  0  0  0  0  0  0  0  0  0  0  0
   53.7166   28.9791   44.9089 C   0  0  0  0  0  0  0  0  0  0  0  0
   54.7648   28.9651   45.1587 H   0  0  0  0  0  0  0  0  0  0  0  0
   52.8452   28.1688   45.5978 C   0  0  0  0  0  0  0  0  0  0  0  0
   53.4638   27.1395   46.8590 Cl  0  0  0  0  0  0  0  0  0  0  0  0
  1  6  2  0
  2  1  1  0
  2  3  2  0
  3 14  1  0
  3  4  1  0
  4  5  2  0
  6  5  1  0
  7  2  1  0
  8  7  1  0
  9  8  1  0
 10 11  1  0
 10  9  1  0
 11 12  1  0
 12  7  1  0
 13 18  2  0
 14 13  1  0
 15 16  1  0
 15 14  2  0
 16 17  2  0
 17 19  1  0
 17 18  1  0
 20 19  1  0
 21 16  1  0
 21 20  1  0
  1 22  1  0
  5 23  1  0
  8 24  1  0
  8 25  1  0
  9 26  1  0
  9 27  1  0
 10 28  1  0
 11 29  1  0
 11 30  1  0
 12 31  1  0
 12 32  1  0
 13 33  1  0
 15 34  1  0
 18 35  1  0
 20 36  1  6
 37 38  1  0
 38 39  2  0
 39 40  1  0
 40 41  1  0
 40 42  2  0
 42 43  1  0
 42 44  1  0
 44 45  1  0
 44 46  2  0
 46 47  1  0
 46 38  1  0
 20 39  1  0
M  ISO  8  22  14  23  14  24  13  25  13  26  13  27  13  28   5  29  13
M  ISO  8  30  13  31  13  32  13  33  14  34  14  35  14  36  13  41  15
M  ISO  2  43  15  45  15
M  END
>  <DihAtoms>  (1) 
18,19,38,37

>  <DihDeg>  (1) 
-45.04723828530635

$$$$
