
 OpenBabel03252506473D

 44 47  0  0  1  0  0  0  0  0999 V2000
   49.5970   33.5100   41.4990 N   0  0  1  0  0  0  0  0  0  0  0  0
   50.7730   33.1910   42.2650 C   0  0  0  0  0  0  0  0  0  0  0  0
   51.3830   31.8720   41.9080 C   0  0  0  0  0  0  0  0  0  0  0  0
   50.4290   30.7650   42.3090 C   0  0  0  0  0  0  0  0  0  0  0  0
   48.9950   31.1810   42.0500 C   0  0  0  0  0  0  0  0  0  0  0  0
   48.9670   32.3060   41.0280 C   0  0  2  0  0  0  0  0  0  0  0  0
   51.5310   33.9700   42.0030 H   0  0  0  0  0  0  0  0  0  0  0  0
   50.5980   33.2220   43.3560 H   0  0  0  0  0  0  0  0  0  0  0  0
   52.2660   31.7550   42.5760 H   0  0  0  0  0  0  0  0  0  0  0  0
   51.7560   31.8010   40.8870 H   0  0  0  0  0  0  0  0  0  0  0  0
   50.6530   29.9090   41.6460 H   0  0  0  0  0  0  0  0  0  0  0  0
   50.5820   30.4210   43.3480 H   0  0  0  0  0  0  0  0  0  0  0  0
   48.5020   31.5760   42.9620 H   0  0  0  0  0  0  0  0  0  0  0  0
   48.4080   30.3460   41.6220 H   0  0  0  0  0  0  0  0  0  0  0  0
   47.8910   32.5450   40.8620 H   0  0  0  0  0  0  0  0  0  0  0  0
   47.3380   34.6730   41.9830 C   0  0  1  0  0  0  0  0  0  0  0  0
   48.4070   35.6680   41.7310 C   0  0  0  0  0  0  0  0  0  0  0  0
   48.7560   34.3430   42.2770 C   0  0  2  0  0  0  0  0  0  0  0  0
   46.8600   34.1990   41.1110 H   0  0  0  0  0  0  0  0  0  0  0  0
   48.6220   35.8970   40.6720 H   0  0  0  0  0  0  0  0  0  0  0  0
   48.3890   36.5910   42.3590 H   0  0  0  0  0  0  0  0  0  0  0  0
   49.0060   34.3510   43.3770 H   0  0  0  0  0  0  0  0  0  0  0  0
   45.5650   36.0330   43.1300 C   0  0  0  0  0  0  0  0  0  0  0  0
   46.3930   34.8900   43.1000 C   0  0  0  0  0  0  0  0  0  0  0  0
   46.2820   33.9700   44.1540 C   0  0  0  0  0  0  0  0  0  0  0  0
   45.3890   34.2300   45.1420 N   0  0  0  0  0  0  0  0  0  0  0  0
   44.6150   35.3320   45.1400 C   0  0  0  0  0  0  0  0  0  0  0  0
   44.6910   36.2470   44.1360 N   0  0  0  0  0  0  0  0  0  0  0  0
   45.6290   36.7560   42.3330 H   0  0  0  0  0  0  0  0  0  0  0  0
   46.9010   33.0900   44.1540 H   0  0  0  0  0  0  0  0  0  0  0  0
   43.9700   35.3530   46.0160 H   0  0  0  0  0  0  0  0  0  0  0  0
   49.4770   31.8170   39.7880 N   0  0  0  0  0  0  0  0  0  0  0  0
   50.2150   31.0490   39.8020 H   0  0  0  0  0  0  0  0  0  0  0  0
   50.6420   30.0750   37.5900 Cl  0  0  0  0  0  0  0  0  0  0  0  0
   49.6410   31.4800   37.2900 C   0  0  0  0  0  0  0  0  0  0  0  0
   49.1990   32.1520   38.4360 C   0  0  0  0  0  0  0  0  0  0  0  0
   48.4070   33.2660   38.1990 C   0  0  0  0  0  0  0  0  0  0  0  0
   48.0350   33.8300   39.0170 H   0  0  0  0  0  0  0  0  0  0  0  0
   48.0380   33.7410   36.9560 C   0  0  0  0  0  0  0  0  0  0  0  0
   47.4230   34.6070   36.8300 H   0  0  0  0  0  0  0  0  0  0  0  0
   48.4940   33.0530   35.8440 C   0  0  0  0  0  0  0  0  0  0  0  0
   48.2600   33.3460   34.8320 H   0  0  0  0  0  0  0  0  0  0  0  0
   49.2840   31.9410   36.0450 C   0  0  0  0  0  0  0  0  0  0  0  0
   49.9360   30.9660   34.7390 Cl  0  0  0  0  0  0  0  0  0  0  0  0
  1  2  1  1  0  0  0
  1 18  1  0  0  0  0
  2  8  1  0  0  0  0
  3  2  1  0  0  0  0
  3  4  1  0  0  0  0
  3  9  1  0  0  0  0
  4 12  1  0  0  0  0
  5  4  1  0  0  0  0
  5 13  1  0  0  0  0
  6 15  1  6  0  0  0
  6  1  1  0  0  0  0
  6  5  1  0  0  0  0
  7  2  1  0  0  0  0
 10  3  1  0  0  0  0
 11  4  1  0  0  0  0
 14  5  1  0  0  0  0
 16 19  1  6  0  0  0
 16 18  1  0  0  0  0
 16 24  1  0  0  0  0
 17 16  1  0  0  0  0
 17 18  1  0  0  0  0
 17 21  1  0  0  0  0
 18 22  1  1  0  0  0
 20 17  1  0  0  0  0
 23 28  1  0  0  0  0
 24 23  2  0  0  0  0
 24 25  1  0  0  0  0
 25 30  1  0  0  0  0
 25 26  2  0  0  0  0
 27 26  1  0  0  0  0
 27 31  1  0  0  0  0
 28 27  2  0  0  0  0
 29 23  1  0  0  0  0
 32 33  1  0  0  0  0
 32  6  1  0  0  0  0
 35 34  1  0  0  0  0
 35 36  1  0  0  0  0
 36 32  1  0  0  0  0
 37 36  2  0  0  0  0
 37 38  1  0  0  0  0
 39 37  1  0  0  0  0
 40 39  1  0  0  0  0
 41 43  1  0  0  0  0
 41 39  2  0  0  0  0
 42 41  1  0  0  0  0
 43 35  2  0  0  0  0
 44 43  1  0  0  0  0
M  END
>  <minimizedAffinity>
-5.50429535

>  <minimizedRMSD>
0.654535115

$$$$
