
 OpenBabel03252507393D

 40 44  0  0  0  0  0  0  0  0999 V2000
   36.9510   28.8820   41.9850 C   0  0  0  0  0  0  0  0  0  0  0  0
   36.7250   27.7150   41.2180 C   0  0  0  0  0  0  0  0  0  0  0  0
   37.3800   26.5610   41.6160 C   0  0  0  0  0  0  0  0  0  0  0  0
   38.1890   26.5930   42.6960 N   0  0  0  0  0  0  0  0  0  0  0  0
   38.3880   27.7290   43.4160 C   0  0  0  0  0  0  0  0  0  0  0  0
   37.7780   28.8430   43.0590 N   0  0  0  0  0  0  0  0  0  0  0  0
   36.0880   27.6830   40.3640 H   0  0  0  0  0  0  0  0  0  0  0  0
   39.0490   27.6840   44.2700 H   0  0  0  0  0  0  0  0  0  0  0  0
   36.4250   25.2250   39.8170 C   0  0  0  0  0  0  0  0  0  0  0  0
   37.2480   25.2790   40.9300 C   0  0  0  0  0  0  0  0  0  0  0  0
   37.8870   24.1320   41.3200 C   0  0  0  0  0  0  0  0  0  0  0  0
   37.7410   22.9370   40.6480 C   0  0  0  0  0  0  0  0  0  0  0  0
   38.2720   21.7020   40.8530 N   0  0  0  0  0  0  0  0  0  0  0  0
   37.7690   20.8840   39.8560 C   0  0  0  0  0  0  0  0  0  0  0  0
   36.9530   21.6250   39.0730 N   0  0  0  0  0  0  0  0  0  0  0  0
   36.9350   22.8710   39.5510 C   0  0  0  0  0  0  0  0  0  0  0  0
   36.2760   24.0130   39.1340 C   0  0  0  0  0  0  0  0  0  0  0  0
   35.8770   26.0790   39.4320 H   0  0  0  0  0  0  0  0  0  0  0  0
   38.5310   24.1750   42.1910 H   0  0  0  0  0  0  0  0  0  0  0  0
   38.9270   21.3950   41.5990 H   0  0  0  0  0  0  0  0  0  0  0  0
   37.9800   19.8340   39.7140 H   0  0  0  0  0  0  0  0  0  0  0  0
   35.6350   23.9530   38.2590 H   0  0  0  0  0  0  0  0  0  0  0  0
   36.3100   30.0490   41.6090 O   0  0  0  0  0  0  0  0  0  0  0  0
   36.9520   30.9900   40.8120 C   0  0  0  0  0  0  0  0  0  0  0  0
   36.4300   30.7380   39.5750 C   0  0  0  0  0  0  0  0  0  0  0  0
   37.3260   32.0370   38.5240 S   0  0  0  0  0  0  0  0  0  0  0  0
   38.2350   32.6460   40.0600 C   0  0  0  0  0  0  0  0  0  0  0  0
   37.8240   31.9700   40.8310 N   0  0  0  0  0  0  0  0  0  0  0  0
   35.7580   30.1610   38.9010 H   0  0  0  0  0  0  0  0  0  0  0  0
   40.9510   31.7070   39.5850 Cl  0  0  0  0  0  0  0  0  0  0  0  0
   40.5490   33.3950   39.8100 C   0  0  0  0  0  0  0  0  0  0  0  0
   39.2430   33.7930   40.0330 C   0  0  0  0  0  0  0  0  0  0  0  0
   38.7630   35.0570   40.2260 C   0  0  0  0  0  0  0  0  0  0  0  0
   37.7340   35.2660   40.3910 H   0  0  0  0  0  0  0  0  0  0  0  0
   39.7340   36.0360   40.1880 C   0  0  0  0  0  0  0  0  0  0  0  0
   39.4710   37.0840   40.3300 H   0  0  0  0  0  0  0  0  0  0  0  0
   41.0660   35.7500   39.9740 C   0  0  0  0  0  0  0  0  0  0  0  0
   41.8590   36.4920   39.9370 H   0  0  0  0  0  0  0  0  0  0  0  0
   41.4340   34.4350   39.7910 C   0  0  0  0  0  0  0  0  0  0  0  0
   43.1080   33.9870   39.5120 Cl  0  0  0  0  0  0  0  0  0  0  0  0
  1  6  1  0  0  0  0
  2  3  1  0  0  0  0
  2  1  2  0  0  0  0
  3  4  2  0  0  0  0
  4  5  1  0  0  0  0
  5  8  1  0  0  0  0
  6  5  2  0  0  0  0
  7  2  1  0  0  0  0
  9 10  1  0  0  0  0
 10 11  2  0  0  0  0
 10  3  1  0  0  0  0
 11 19  1  0  0  0  0
 12 13  1  0  0  0  0
 12 11  1  0  0  0  0
 13 20  1  0  0  0  0
 14 13  1  0  0  0  0
 15 16  1  0  0  0  0
 15 14  2  0  0  0  0
 16 12  2  0  0  0  0
 17 16  1  0  0  0  0
 17  9  2  0  0  0  0
 18  9  1  0  0  0  0
 21 14  1  0  0  0  0
 22 17  1  0  0  0  0
 23  1  1  0  0  0  0
 24 28  1  0  0  0  0
 24 23  1  0  0  0  0
 25 24  2  0  0  0  0
 26 25  1  0  0  0  0
 26 27  1  0  0  0  0
 27 28  2  0  0  0  0
 29 25  1  0  0  0  0
 30 31  1  0  0  0  0
 31 32  1  0  0  0  0
 32 27  1  0  0  0  0
 32 33  2  0  0  0  0
 33 34  1  0  0  0  0
 35 33  1  0  0  0  0
 35 36  1  0  0  0  0
 37 35  2  0  0  0  0
 38 37  1  0  0  0  0
 39 31  2  0  0  0  0
 39 37  1  0  0  0  0
 40 39  1  0  0  0  0
M  END
>  <minimizedAffinity>
-7.33393383

$$$$

 OpenBabel03252507393D

 40 44  0  0  0  0  0  0  0  0999 V2000
   37.1110   28.8830   42.1020 C   0  0  0  0  0  0  0  0  0  0  0  0
   38.4840   29.0720   42.3830 C   0  0  0  0  0  0  0  0  0  0  0  0
   39.1750   27.9930   42.9090 C   0  0  0  0  0  0  0  0  0  0  0  0
   38.5270   26.8290   43.1280 N   0  0  0  0  0  0  0  0  0  0  0  0
   37.2050   26.6750   42.8470 C   0  0  0  0  0  0  0  0  0  0  0  0
   36.5220   27.6870   42.3450 N   0  0  0  0  0  0  0  0  0  0  0  0
   39.0030   29.9880   42.2140 H   0  0  0  0  0  0  0  0  0  0  0  0
   36.7480   25.7160   43.0460 H   0  0  0  0  0  0  0  0  0  0  0  0
   41.3460   29.0880   42.7680 C   0  0  0  0  0  0  0  0  0  0  0  0
   40.5940   28.0280   43.2510 C   0  0  0  0  0  0  0  0  0  0  0  0
   41.2230   27.0810   44.0150 C   0  0  0  0  0  0  0  0  0  0  0  0
   42.5660   27.1480   44.3190 C   0  0  0  0  0  0  0  0  0  0  0  0
   43.3790   26.3370   45.0480 N   0  0  0  0  0  0  0  0  0  0  0  0
   44.6410   26.9050   45.0120 C   0  0  0  0  0  0  0  0  0  0  0  0
   44.5740   28.0360   44.2730 N   0  0  0  0  0  0  0  0  0  0  0  0
   43.3170   28.1850   43.8510 C   0  0  0  0  0  0  0  0  0  0  0  0
   42.7090   29.1560   43.0770 C   0  0  0  0  0  0  0  0  0  0  0  0
   40.9380   29.8850   42.1560 H   0  0  0  0  0  0  0  0  0  0  0  0
   40.6340   26.2530   44.3910 H   0  0  0  0  0  0  0  0  0  0  0  0
   43.1370   25.4580   45.5460 H   0  0  0  0  0  0  0  0  0  0  0  0
   45.5340   26.5250   45.4860 H   0  0  0  0  0  0  0  0  0  0  0  0
   43.3130   29.9800   42.7070 H   0  0  0  0  0  0  0  0  0  0  0  0
   36.3970   29.9460   41.5760 O   0  0  0  0  0  0  0  0  0  0  0  0
   37.0210   30.9010   40.7830 C   0  0  0  0  0  0  0  0  0  0  0  0
   36.5230   30.6270   39.5400 C   0  0  0  0  0  0  0  0  0  0  0  0
   37.3940   31.9470   38.4940 S   0  0  0  0  0  0  0  0  0  0  0  0
   38.2640   32.5910   40.0380 C   0  0  0  0  0  0  0  0  0  0  0  0
   37.8630   31.9060   40.8070 N   0  0  0  0  0  0  0  0  0  0  0  0
   35.8780   30.0270   38.8610 H   0  0  0  0  0  0  0  0  0  0  0  0
   41.0330   31.7180   39.7960 Cl  0  0  0  0  0  0  0  0  0  0  0  0
   40.5670   33.4010   39.9040 C   0  0  0  0  0  0  0  0  0  0  0  0
   39.2390   33.7670   40.0180 C   0  0  0  0  0  0  0  0  0  0  0  0
   38.7100   35.0230   40.1120 C   0  0  0  0  0  0  0  0  0  0  0  0
   37.6660   35.2060   40.1960 H   0  0  0  0  0  0  0  0  0  0  0  0
   39.6520   36.0300   40.0870 C   0  0  0  0  0  0  0  0  0  0  0  0
   39.3500   37.0740   40.1550 H   0  0  0  0  0  0  0  0  0  0  0  0
   41.0030   35.7770   39.9770 C   0  0  0  0  0  0  0  0  0  0  0  0
   41.7750   36.5410   39.9540 H   0  0  0  0  0  0  0  0  0  0  0  0
   41.4220   34.4660   39.8890 C   0  0  0  0  0  0  0  0  0  0  0  0
   43.1220   34.0600   39.7460 Cl  0  0  0  0  0  0  0  0  0  0  0  0
  1  6  2  0  0  0  0
  1  2  1  0  0  0  0
  2  3  2  0  0  0  0
  3  4  1  0  0  0  0
  3 10  1  0  0  0  0
  5  8  1  0  0  0  0
  5  4  2  0  0  0  0
  6  5  1  0  0  0  0
  7  2  1  0  0  0  0
  9 17  2  0  0  0  0
  9 10  1  0  0  0  0
 10 11  2  0  0  0  0
 11 12  1  0  0  0  0
 11 19  1  0  0  0  0
 12 13  1  0  0  0  0
 13 20  1  0  0  0  0
 14 13  1  0  0  0  0
 14 21  1  0  0  0  0
 15 14  2  0  0  0  0
 16 15  1  0  0  0  0
 16 12  2  0  0  0  0
 17 16  1  0  0  0  0
 18  9  1  0  0  0  0
 22 17  1  0  0  0  0
 23  1  1  0  0  0  0
 24 28  1  0  0  0  0
 24 23  1  0  0  0  0
 25 24  2  0  0  0  0
 26 25  1  0  0  0  0
 26 27  1  0  0  0  0
 27 28  2  0  0  0  0
 29 25  1  0  0  0  0
 30 31  1  0  0  0  0
 31 32  1  0  0  0  0
 32 27  1  0  0  0  0
 32 33  2  0  0  0  0
 33 34  1  0  0  0  0
 35 33  1  0  0  0  0
 35 36  1  0  0  0  0
 37 35  2  0  0  0  0
 38 37  1  0  0  0  0
 39 31  2  0  0  0  0
 39 37  1  0  0  0  0
 40 39  1  0  0  0  0
M  END
>  <minimizedAffinity>
-7.07627916

$$$$

 OpenBabel03252507393D

 40 44  0  0  0  0  0  0  0  0999 V2000
   36.2180   28.5020   39.3310 C   0  0  0  0  0  0  0  0  0  0  0  0
   36.7520   29.7960   39.1290 C   0  0  0  0  0  0  0  0  0  0  0  0
   37.2050   30.4730   40.2490 C   0  0  0  0  0  0  0  0  0  0  0  0
   37.1220   29.8860   41.4620 N   0  0  0  0  0  0  0  0  0  0  0  0
   36.6040   28.6400   41.6270 C   0  0  0  0  0  0  0  0  0  0  0  0
   36.1640   27.9720   40.5780 N   0  0  0  0  0  0  0  0  0  0  0  0
   36.8210   30.2660   38.1750 H   0  0  0  0  0  0  0  0  0  0  0  0
   36.5660   28.2300   42.6260 H   0  0  0  0  0  0  0  0  0  0  0  0
   37.0160   32.8290   39.6600 C   0  0  0  0  0  0  0  0  0  0  0  0
   37.7840   31.8130   40.2060 C   0  0  0  0  0  0  0  0  0  0  0  0
   39.0360   32.1230   40.6690 C   0  0  0  0  0  0  0  0  0  0  0  0
   39.5510   33.4000   40.6130 C   0  0  0  0  0  0  0  0  0  0  0  0
   40.7420   33.9230   41.0090 N   0  0  0  0  0  0  0  0  0  0  0  0
   40.7040   35.2730   40.7030 C   0  0  0  0  0  0  0  0  0  0  0  0
   39.5060   35.5430   40.1350 N   0  0  0  0  0  0  0  0  0  0  0  0
   38.8050   34.4090   40.0800 C   0  0  0  0  0  0  0  0  0  0  0  0
   37.5390   34.1260   39.6030 C   0  0  0  0  0  0  0  0  0  0  0  0
   36.0160   32.6820   39.2670 H   0  0  0  0  0  0  0  0  0  0  0  0
   39.6360   31.3270   41.0950 H   0  0  0  0  0  0  0  0  0  0  0  0
   41.5460   33.4380   41.4550 H   0  0  0  0  0  0  0  0  0  0  0  0
   41.4850   35.9980   40.8800 H   0  0  0  0  0  0  0  0  0  0  0  0
   36.9490   34.9350   39.1800 H   0  0  0  0  0  0  0  0  0  0  0  0
   35.7570   27.8040   38.2290 O   0  0  0  0  0  0  0  0  0  0  0  0
   34.5110   28.0810   37.6790 C   0  0  0  0  0  0  0  0  0  0  0  0
   34.2590   26.9630   36.9340 C   0  0  0  0  0  0  0  0  0  0  0  0
   32.5580   27.3810   36.2060 S   0  0  0  0  0  0  0  0  0  0  0  0
   32.5810   29.0340   37.1110 C   0  0  0  0  0  0  0  0  0  0  0  0
   33.5560   28.9790   37.6280 N   0  0  0  0  0  0  0  0  0  0  0  0
   34.5530   25.9590   36.5560 H   0  0  0  0  0  0  0  0  0  0  0  0
   32.4780   30.3390   34.5090 Cl  0  0  0  0  0  0  0  0  0  0  0  0
   31.3550   30.6960   35.8030 C   0  0  0  0  0  0  0  0  0  0  0  0
   31.4440   30.0500   37.0220 C   0  0  0  0  0  0  0  0  0  0  0  0
   30.6550   30.2090   38.1250 C   0  0  0  0  0  0  0  0  0  0  0  0
   30.8020   29.6620   39.0250 H   0  0  0  0  0  0  0  0  0  0  0  0
   29.6520   31.1430   37.9660 C   0  0  0  0  0  0  0  0  0  0  0  0
   28.9590   31.3580   38.7790 H   0  0  0  0  0  0  0  0  0  0  0  0
   29.4740   31.8450   36.7930 C   0  0  0  0  0  0  0  0  0  0  0  0
   28.6980   32.5880   36.6290 H   0  0  0  0  0  0  0  0  0  0  0  0
   30.3330   31.6000   35.7430 C   0  0  0  0  0  0  0  0  0  0  0  0
   30.1740   32.4510   34.2170 Cl  0  0  0  0  0  0  0  0  0  0  0  0
  1  6  1  0  0  0  0
  2  1  2  0  0  0  0
  2  3  1  0  0  0  0
  3  4  2  0  0  0  0
  4  5  1  0  0  0  0
  5  8  1  0  0  0  0
  6  5  2  0  0  0  0
  7  2  1  0  0  0  0
  9 10  1  0  0  0  0
 10  3  1  0  0  0  0
 10 11  2  0  0  0  0
 11 19  1  0  0  0  0
 12 11  1  0  0  0  0
 12 13  1  0  0  0  0
 13 20  1  0  0  0  0
 14 21  1  0  0  0  0
 14 13  1  0  0  0  0
 15 14  2  0  0  0  0
 16 15  1  0  0  0  0
 16 12  2  0  0  0  0
 17  9  2  0  0  0  0
 17 16  1  0  0  0  0
 18  9  1  0  0  0  0
 22 17  1  0  0  0  0
 23  1  1  0  0  0  0
 24 23  1  0  0  0  0
 25 24  2  0  0  0  0
 26 25  1  0  0  0  0
 26 27  1  0  0  0  0
 27 28  2  0  0  0  0
 28 24  1  0  0  0  0
 29 25  1  0  0  0  0
 30 31  1  0  0  0  0
 31 32  1  0  0  0  0
 32 27  1  0  0  0  0
 32 33  2  0  0  0  0
 33 34  1  0  0  0  0
 35 33  1  0  0  0  0
 35 36  1  0  0  0  0
 37 35  2  0  0  0  0
 38 37  1  0  0  0  0
 39 31  2  0  0  0  0
 39 37  1  0  0  0  0
 40 39  1  0  0  0  0
M  END
>  <minimizedAffinity>
-6.85921526

$$$$

 OpenBabel03252507393D

 40 44  0  0  0  0  0  0  0  0999 V2000
   38.9410   34.1750   40.0060 C   0  0  0  0  0  0  0  0  0  0  0  0
   40.0050   33.4940   39.3690 C   0  0  0  0  0  0  0  0  0  0  0  0
   41.2150   34.1600   39.2760 C   0  0  0  0  0  0  0  0  0  0  0  0
   41.3320   35.4050   39.7850 N   0  0  0  0  0  0  0  0  0  0  0  0
   40.2920   36.0360   40.3940 C   0  0  0  0  0  0  0  0  0  0  0  0
   39.1280   35.4250   40.4960 N   0  0  0  0  0  0  0  0  0  0  0  0
   39.9200   32.5110   38.9640 H   0  0  0  0  0  0  0  0  0  0  0  0
   40.4540   37.0330   40.7790 H   0  0  0  0  0  0  0  0  0  0  0  0
   43.6410   34.0590   39.0710 C   0  0  0  0  0  0  0  0  0  0  0  0
   42.4060   33.5920   38.6500 C   0  0  0  0  0  0  0  0  0  0  0  0
   42.3740   32.6290   37.6760 C   0  0  0  0  0  0  0  0  0  0  0  0
   43.5190   32.1130   37.1070 C   0  0  0  0  0  0  0  0  0  0  0  0
   43.7190   31.1700   36.1480 N   0  0  0  0  0  0  0  0  0  0  0  0
   45.0880   31.0590   35.9800 C   0  0  0  0  0  0  0  0  0  0  0  0
   45.6890   31.9230   36.8280 N   0  0  0  0  0  0  0  0  0  0  0  0
   44.7400   32.5640   37.5130 C   0  0  0  0  0  0  0  0  0  0  0  0
   44.8030   33.5360   38.4940 C   0  0  0  0  0  0  0  0  0  0  0  0
   43.7670   34.8190   39.8350 H   0  0  0  0  0  0  0  0  0  0  0  0
   41.4080   32.2640   37.3470 H   0  0  0  0  0  0  0  0  0  0  0  0
   43.0090   30.6220   35.6230 H   0  0  0  0  0  0  0  0  0  0  0  0
   45.6030   30.4010   35.2950 H   0  0  0  0  0  0  0  0  0  0  0  0
   45.7790   33.8910   38.8130 H   0  0  0  0  0  0  0  0  0  0  0  0
   37.7210   33.5320   40.1120 O   0  0  0  0  0  0  0  0  0  0  0  0
   37.6530   32.1620   40.3350 C   0  0  0  0  0  0  0  0  0  0  0  0
   36.9200   31.7230   39.2680 C   0  0  0  0  0  0  0  0  0  0  0  0
   36.8530   29.8580   39.6090 S   0  0  0  0  0  0  0  0  0  0  0  0
   37.8710   30.1130   41.1760 C   0  0  0  0  0  0  0  0  0  0  0  0
   38.0220   31.2070   41.1550 N   0  0  0  0  0  0  0  0  0  0  0  0
   36.3600   31.9160   38.3270 H   0  0  0  0  0  0  0  0  0  0  0  0
   40.4050   28.9120   40.3870 Cl  0  0  0  0  0  0  0  0  0  0  0  0
   39.4760   28.3660   41.7670 C   0  0  0  0  0  0  0  0  0  0  0  0
   38.2780   28.9680   42.1020 C   0  0  0  0  0  0  0  0  0  0  0  0
   37.4380   28.6680   43.1360 C   0  0  0  0  0  0  0  0  0  0  0  0
   36.5310   29.1920   43.3160 H   0  0  0  0  0  0  0  0  0  0  0  0
   37.8750   27.6240   43.9260 C   0  0  0  0  0  0  0  0  0  0  0  0
   37.2880   27.2930   44.7820 H   0  0  0  0  0  0  0  0  0  0  0  0
   39.0550   26.9540   43.6810 C   0  0  0  0  0  0  0  0  0  0  0  0
   39.4320   26.1280   44.2790 H   0  0  0  0  0  0  0  0  0  0  0  0
   39.8220   27.3460   42.6060 C   0  0  0  0  0  0  0  0  0  0  0  0
   41.3370   26.5450   42.2260 Cl  0  0  0  0  0  0  0  0  0  0  0  0
  1 23  1  0  0  0  0
  1  6  1  0  0  0  0
  2  1  2  0  0  0  0
  3  2  1  0  0  0  0
  3  4  2  0  0  0  0
  4  5  1  0  0  0  0
  5  6  2  0  0  0  0
  5  8  1  0  0  0  0
  7  2  1  0  0  0  0
  9 18  1  0  0  0  0
 10  9  1  0  0  0  0
 10  3  1  0  0  0  0
 11 10  2  0  0  0  0
 12 16  2  0  0  0  0
 12 11  1  0  0  0  0
 13 12  1  0  0  0  0
 14 13  1  0  0  0  0
 14 15  2  0  0  0  0
 15 16  1  0  0  0  0
 16 17  1  0  0  0  0
 17 22  1  0  0  0  0
 17  9  2  0  0  0  0
 19 11  1  0  0  0  0
 20 13  1  0  0  0  0
 21 14  1  0  0  0  0
 23 24  1  0  0  0  0
 24 28  1  0  0  0  0
 25 26  1  0  0  0  0
 25 24  2  0  0  0  0
 26 27  1  0  0  0  0
 27 32  1  0  0  0  0
 28 27  2  0  0  0  0
 29 25  1  0  0  0  0
 30 31  1  0  0  0  0
 31 32  2  0  0  0  0
 31 39  1  0  0  0  0
 32 33  1  0  0  0  0
 33 34  1  0  0  0  0
 33 35  2  0  0  0  0
 35 36  1  0  0  0  0
 37 35  1  0  0  0  0
 37 38  1  0  0  0  0
 39 37  2  0  0  0  0
 40 39  1  0  0  0  0
M  END
>  <minimizedAffinity>
-6.77259636

$$$$

 OpenBabel03252507393D

 40 44  0  0  0  0  0  0  0  0999 V2000
   37.6030   32.0130   39.8500 C   0  0  0  0  0  0  0  0  0  0  0  0
   37.5800   30.8230   40.6150 C   0  0  0  0  0  0  0  0  0  0  0  0
   37.3320   29.6420   39.9360 C   0  0  0  0  0  0  0  0  0  0  0  0
   37.1260   29.6700   38.6020 N   0  0  0  0  0  0  0  0  0  0  0  0
   37.1540   30.8290   37.8920 C   0  0  0  0  0  0  0  0  0  0  0  0
   37.3880   31.9700   38.5130 N   0  0  0  0  0  0  0  0  0  0  0  0
   37.7420   30.7930   41.6680 H   0  0  0  0  0  0  0  0  0  0  0  0
   36.9800   30.7810   36.8260 H   0  0  0  0  0  0  0  0  0  0  0  0
   37.0020   28.2960   41.9390 C   0  0  0  0  0  0  0  0  0  0  0  0
   37.2790   28.3340   40.5820 C   0  0  0  0  0  0  0  0  0  0  0  0
   37.4850   27.1470   39.9290 C   0  0  0  0  0  0  0  0  0  0  0  0
   37.4250   25.9290   40.5700 C   0  0  0  0  0  0  0  0  0  0  0  0
   37.5910   24.6530   40.1270 N   0  0  0  0  0  0  0  0  0  0  0  0
   37.4140   23.8260   41.2230 C   0  0  0  0  0  0  0  0  0  0  0  0
   37.1470   24.6020   42.2990 N   0  0  0  0  0  0  0  0  0  0  0  0
   37.1540   25.8780   41.9050 C   0  0  0  0  0  0  0  0  0  0  0  0
   36.9420   27.0590   42.5910 C   0  0  0  0  0  0  0  0  0  0  0  0
   36.8250   29.1800   42.5420 H   0  0  0  0  0  0  0  0  0  0  0  0
   37.7010   27.1780   38.8670 H   0  0  0  0  0  0  0  0  0  0  0  0
   37.8080   24.3260   39.1650 H   0  0  0  0  0  0  0  0  0  0  0  0
   37.4740   22.7480   41.2360 H   0  0  0  0  0  0  0  0  0  0  0  0
   36.7250   27.0120   43.6550 H   0  0  0  0  0  0  0  0  0  0  0  0
   37.8480   33.2080   40.5040 O   0  0  0  0  0  0  0  0  0  0  0  0
   39.0580   33.8730   40.3440 C   0  0  0  0  0  0  0  0  0  0  0  0
   38.6630   35.1670   40.1500 C   0  0  0  0  0  0  0  0  0  0  0  0
   40.3350   36.0360   39.9380 S   0  0  0  0  0  0  0  0  0  0  0  0
   41.2170   34.3860   40.1690 C   0  0  0  0  0  0  0  0  0  0  0  0
   40.3580   33.7060   40.3160 N   0  0  0  0  0  0  0  0  0  0  0  0
   37.8660   35.9380   40.0580 H   0  0  0  0  0  0  0  0  0  0  0  0
   42.1890   33.7700   37.4930 Cl  0  0  0  0  0  0  0  0  0  0  0  0
   43.2450   33.9460   38.8770 C   0  0  0  0  0  0  0  0  0  0  0  0
   42.7370   34.2390   40.1290 C   0  0  0  0  0  0  0  0  0  0  0  0
   43.4160   34.4090   41.3010 C   0  0  0  0  0  0  0  0  0  0  0  0
   42.9340   34.6350   42.2220 H   0  0  0  0  0  0  0  0  0  0  0  0
   44.7830   34.2610   41.1830 C   0  0  0  0  0  0  0  0  0  0  0  0
   45.4310   34.3730   42.0510 H   0  0  0  0  0  0  0  0  0  0  0  0
   45.3940   33.9680   39.9820 C   0  0  0  0  0  0  0  0  0  0  0  0
   46.4650   33.8430   39.8480 H   0  0  0  0  0  0  0  0  0  0  0  0
   44.6050   33.8180   38.8620 C   0  0  0  0  0  0  0  0  0  0  0  0
   45.3050   33.4460   37.2970 Cl  0  0  0  0  0  0  0  0  0  0  0  0
  1 23  1  0  0  0  0
  1  2  1  0  0  0  0
  2  7  1  0  0  0  0
  3 10  1  0  0  0  0
  3  2  2  0  0  0  0
  4  3  1  0  0  0  0
  5  6  1  0  0  0  0
  5  4  2  0  0  0  0
  6  1  2  0  0  0  0
  8  5  1  0  0  0  0
  9 18  1  0  0  0  0
  9 17  1  0  0  0  0
 10  9  2  0  0  0  0
 11 12  2  0  0  0  0
 11 10  1  0  0  0  0
 12 16  1  0  0  0  0
 13 12  1  0  0  0  0
 13 14  1  0  0  0  0
 14 21  1  0  0  0  0
 14 15  2  0  0  0  0
 16 15  1  0  0  0  0
 16 17  2  0  0  0  0
 17 22  1  0  0  0  0
 19 11  1  0  0  0  0
 20 13  1  0  0  0  0
 24 23  1  0  0  0  0
 25 24  2  0  0  0  0
 26 25  1  0  0  0  0
 26 27  1  0  0  0  0
 27 28  2  0  0  0  0
 28 24  1  0  0  0  0
 29 25  1  0  0  0  0
 30 31  1  0  0  0  0
 31 32  1  0  0  0  0
 32 27  1  0  0  0  0
 32 33  2  0  0  0  0
 33 34  1  0  0  0  0
 35 33  1  0  0  0  0
 35 36  1  0  0  0  0
 37 35  2  0  0  0  0
 38 37  1  0  0  0  0
 39 31  2  0  0  0  0
 39 37  1  0  0  0  0
 40 39  1  0  0  0  0
M  END
>  <minimizedAffinity>
-6.73410082

$$$$

 OpenBabel03252507393D

 40 44  0  0  0  0  0  0  0  0999 V2000
   39.7750   32.2580   38.6590 C   0  0  0  0  0  0  0  0  0  0  0  0
   40.3430   32.8660   39.8030 C   0  0  0  0  0  0  0  0  0  0  0  0
   41.6070   33.4150   39.6640 C   0  0  0  0  0  0  0  0  0  0  0  0
   42.2340   33.3500   38.4700 N   0  0  0  0  0  0  0  0  0  0  0  0
   41.6640   32.7590   37.3860 C   0  0  0  0  0  0  0  0  0  0  0  0
   40.4610   32.2280   37.4900 N   0  0  0  0  0  0  0  0  0  0  0  0
   39.8540   32.9210   40.7490 H   0  0  0  0  0  0  0  0  0  0  0  0
   42.2220   32.7410   36.4610 H   0  0  0  0  0  0  0  0  0  0  0  0
   41.9460   35.3700   41.0770 C   0  0  0  0  0  0  0  0  0  0  0  0
   42.3250   34.0780   40.7480 C   0  0  0  0  0  0  0  0  0  0  0  0
   43.3470   33.5010   41.4570 C   0  0  0  0  0  0  0  0  0  0  0  0
   44.0020   34.1570   42.4770 C   0  0  0  0  0  0  0  0  0  0  0  0
   45.0200   33.7830   43.2980 N   0  0  0  0  0  0  0  0  0  0  0  0
   45.2670   34.8560   44.1370 C   0  0  0  0  0  0  0  0  0  0  0  0
   44.4070   35.8490   43.8170 N   0  0  0  0  0  0  0  0  0  0  0  0
   43.6390   35.4280   42.8100 C   0  0  0  0  0  0  0  0  0  0  0  0
   42.6120   36.0360   42.1120 C   0  0  0  0  0  0  0  0  0  0  0  0
   41.1520   35.9090   40.5730 H   0  0  0  0  0  0  0  0  0  0  0  0
   43.6420   32.4910   41.1990 H   0  0  0  0  0  0  0  0  0  0  0  0
   45.5350   32.8810   43.3200 H   0  0  0  0  0  0  0  0  0  0  0  0
   46.0120   34.9080   44.9170 H   0  0  0  0  0  0  0  0  0  0  0  0
   42.3270   37.0490   42.3820 H   0  0  0  0  0  0  0  0  0  0  0  0
   38.5130   31.7010   38.7710 O   0  0  0  0  0  0  0  0  0  0  0  0
   38.2200   30.7970   39.7850 C   0  0  0  0  0  0  0  0  0  0  0  0
   36.9810   31.2020   40.1950 C   0  0  0  0  0  0  0  0  0  0  0  0
   36.6200   29.9470   41.5710 S   0  0  0  0  0  0  0  0  0  0  0  0
   38.2920   29.1330   41.2620 C   0  0  0  0  0  0  0  0  0  0  0  0
   38.6840   29.7600   40.4410 N   0  0  0  0  0  0  0  0  0  0  0  0
   36.1070   31.8860   40.1220 H   0  0  0  0  0  0  0  0  0  0  0  0
   37.0840   26.6460   40.3430 Cl  0  0  0  0  0  0  0  0  0  0  0  0
   38.2450   26.7200   41.6510 C   0  0  0  0  0  0  0  0  0  0  0  0
   38.7910   27.9250   42.0520 C   0  0  0  0  0  0  0  0  0  0  0  0
   39.7000   28.1550   43.0440 C   0  0  0  0  0  0  0  0  0  0  0  0
   40.0650   29.1250   43.2810 H   0  0  0  0  0  0  0  0  0  0  0  0
   40.1020   27.0160   43.7110 C   0  0  0  0  0  0  0  0  0  0  0  0
   40.8250   27.0740   44.5240 H   0  0  0  0  0  0  0  0  0  0  0  0
   39.6200   25.7640   43.3930 C   0  0  0  0  0  0  0  0  0  0  0  0
   39.9100   24.8440   43.8930 H   0  0  0  0  0  0  0  0  0  0  0  0
   38.7030   25.6530   42.3700 C   0  0  0  0  0  0  0  0  0  0  0  0
   38.0420   24.0960   41.9030 Cl  0  0  0  0  0  0  0  0  0  0  0  0
  1 23  1  0  0  0  0
  1  2  1  0  0  0  0
  2  7  1  0  0  0  0
  3  2  2  0  0  0  0
  3 10  1  0  0  0  0
  4  3  1  0  0  0  0
  5  6  1  0  0  0  0
  5  4  2  0  0  0  0
  6  1  2  0  0  0  0
  8  5  1  0  0  0  0
  9 17  1  0  0  0  0
 10  9  2  0  0  0  0
 10 11  1  0  0  0  0
 11 12  2  0  0  0  0
 12 16  1  0  0  0  0
 12 13  1  0  0  0  0
 13 20  1  0  0  0  0
 13 14  1  0  0  0  0
 14 21  1  0  0  0  0
 15 14  2  0  0  0  0
 16 15  1  0  0  0  0
 17 22  1  0  0  0  0
 17 16  2  0  0  0  0
 18  9  1  0  0  0  0
 19 11  1  0  0  0  0
 23 24  1  0  0  0  0
 24 25  2  0  0  0  0
 24 28  1  0  0  0  0
 25 26  1  0  0  0  0
 27 26  1  0  0  0  0
 27 32  1  0  0  0  0
 28 27  2  0  0  0  0
 29 25  1  0  0  0  0
 30 31  1  0  0  0  0
 31 32  2  0  0  0  0
 31 39  1  0  0  0  0
 32 33  1  0  0  0  0
 33 34  1  0  0  0  0
 33 35  2  0  0  0  0
 35 36  1  0  0  0  0
 37 35  1  0  0  0  0
 37 38  1  0  0  0  0
 39 37  2  0  0  0  0
 40 39  1  0  0  0  0
M  END
>  <minimizedAffinity>
-6.70347929

$$$$

 OpenBabel03252507393D

 40 44  0  0  0  0  0  0  0  0999 V2000
   37.8300   32.1560   40.2650 C   0  0  0  0  0  0  0  0  0  0  0  0
   38.1120   30.9510   40.9510 C   0  0  0  0  0  0  0  0  0  0  0  0
   37.7610   29.7690   40.3190 C   0  0  0  0  0  0  0  0  0  0  0  0
   37.1780   29.8120   39.1020 N   0  0  0  0  0  0  0  0  0  0  0  0
   36.9190   30.9850   38.4660 C   0  0  0  0  0  0  0  0  0  0  0  0
   37.2420   32.1260   39.0440 N   0  0  0  0  0  0  0  0  0  0  0  0
   38.5720   30.9100   41.9110 H   0  0  0  0  0  0  0  0  0  0  0  0
   36.4500   30.9470   37.4930 H   0  0  0  0  0  0  0  0  0  0  0  0
   37.1420   27.4200   40.5020 C   0  0  0  0  0  0  0  0  0  0  0  0
   37.9870   28.4460   40.8930 C   0  0  0  0  0  0  0  0  0  0  0  0
   38.9810   28.1610   41.7930 C   0  0  0  0  0  0  0  0  0  0  0  0
   39.1670   26.8980   42.3140 C   0  0  0  0  0  0  0  0  0  0  0  0
   40.0710   26.3990   43.1990 N   0  0  0  0  0  0  0  0  0  0  0  0
   39.7770   25.0550   43.3510 C   0  0  0  0  0  0  0  0  0  0  0  0
   38.7140   24.7640   42.5670 N   0  0  0  0  0  0  0  0  0  0  0  0
   38.3420   25.8810   41.9370 C   0  0  0  0  0  0  0  0  0  0  0  0
   37.3300   26.1390   41.0320 C   0  0  0  0  0  0  0  0  0  0  0  0
   36.3270   27.5490   39.7970 H   0  0  0  0  0  0  0  0  0  0  0  0
   39.6410   28.9640   42.0980 H   0  0  0  0  0  0  0  0  0  0  0  0
   40.8430   26.8970   43.6850 H   0  0  0  0  0  0  0  0  0  0  0  0
   40.2950   24.3480   43.9810 H   0  0  0  0  0  0  0  0  0  0  0  0
   36.6760   25.3230   40.7350 H   0  0  0  0  0  0  0  0  0  0  0  0
   38.1700   33.3510   40.8750 O   0  0  0  0  0  0  0  0  0  0  0  0
   39.3960   33.9550   40.6260 C   0  0  0  0  0  0  0  0  0  0  0  0
   39.0330   35.1900   40.1690 C   0  0  0  0  0  0  0  0  0  0  0  0
   40.7280   35.9770   39.8460 S   0  0  0  0  0  0  0  0  0  0  0  0
   41.5700   34.3940   40.4260 C   0  0  0  0  0  0  0  0  0  0  0  0
   40.6940   33.7670   40.6750 N   0  0  0  0  0  0  0  0  0  0  0  0
   38.2550   35.9380   39.9010 H   0  0  0  0  0  0  0  0  0  0  0  0
   42.8070   36.0360   42.4890 Cl  0  0  0  0  0  0  0  0  0  0  0  0
   43.7190   34.9820   41.4310 C   0  0  0  0  0  0  0  0  0  0  0  0
   43.0870   34.2210   40.4650 C   0  0  0  0  0  0  0  0  0  0  0  0
   43.6440   33.3550   39.5680 C   0  0  0  0  0  0  0  0  0  0  0  0
   43.0720   32.8090   38.8580 H   0  0  0  0  0  0  0  0  0  0  0  0
   45.0170   33.2540   39.6670 C   0  0  0  0  0  0  0  0  0  0  0  0
   45.5740   32.5940   39.0030 H   0  0  0  0  0  0  0  0  0  0  0  0
   45.7470   33.9690   40.5930 C   0  0  0  0  0  0  0  0  0  0  0  0
   46.8270   33.9170   40.7020 H   0  0  0  0  0  0  0  0  0  0  0  0
   45.0740   34.8140   41.4500 C   0  0  0  0  0  0  0  0  0  0  0  0
   45.9290   35.7570   42.6570 Cl  0  0  0  0  0  0  0  0  0  0  0  0
  1 23  1  0  0  0  0
  1  2  1  0  0  0  0
  2  7  1  0  0  0  0
  3 10  1  0  0  0  0
  3  2  2  0  0  0  0
  4  3  1  0  0  0  0
  5  6  1  0  0  0  0
  5  4  2  0  0  0  0
  6  1  2  0  0  0  0
  8  5  1  0  0  0  0
  9 10  2  0  0  0  0
  9 17  1  0  0  0  0
 10 11  1  0  0  0  0
 11 19  1  0  0  0  0
 11 12  2  0  0  0  0
 12 13  1  0  0  0  0
 13 14  1  0  0  0  0
 13 20  1  0  0  0  0
 14 21  1  0  0  0  0
 15 14  2  0  0  0  0
 16 12  1  0  0  0  0
 16 15  1  0  0  0  0
 17 16  2  0  0  0  0
 18  9  1  0  0  0  0
 22 17  1  0  0  0  0
 24 28  1  0  0  0  0
 24 23  1  0  0  0  0
 25 24  2  0  0  0  0
 26 25  1  0  0  0  0
 26 27  1  0  0  0  0
 27 32  1  0  0  0  0
 27 28  2  0  0  0  0
 29 25  1  0  0  0  0
 31 39  1  0  0  0  0
 31 30  1  0  0  0  0
 32 31  2  0  0  0  0
 33 35  2  0  0  0  0
 33 32  1  0  0  0  0
 34 33  1  0  0  0  0
 35 37  1  0  0  0  0
 36 35  1  0  0  0  0
 37 38  1  0  0  0  0
 37 39  2  0  0  0  0
 39 40  1  0  0  0  0
M  END
>  <minimizedAffinity>
-6.62084293

$$$$

 OpenBabel03252507393D

 40 44  0  0  0  0  0  0  0  0999 V2000
   38.2630   32.3850   39.2630 C   0  0  0  0  0  0  0  0  0  0  0  0
   39.6600   32.3460   39.0400 C   0  0  0  0  0  0  0  0  0  0  0  0
   40.3860   33.4720   39.3920 C   0  0  0  0  0  0  0  0  0  0  0  0
   39.7490   34.5380   39.9220 N   0  0  0  0  0  0  0  0  0  0  0  0
   38.4050   34.5470   40.1260 C   0  0  0  0  0  0  0  0  0  0  0  0
   37.6880   33.4890   39.7990 N   0  0  0  0  0  0  0  0  0  0  0  0
   40.1690   31.5090   38.6220 H   0  0  0  0  0  0  0  0  0  0  0  0
   37.9590   35.4340   40.5540 H   0  0  0  0  0  0  0  0  0  0  0  0
   42.6060   33.6860   40.3720 C   0  0  0  0  0  0  0  0  0  0  0  0
   41.8320   33.5860   39.2260 C   0  0  0  0  0  0  0  0  0  0  0  0
   42.4670   33.5990   38.0120 C   0  0  0  0  0  0  0  0  0  0  0  0
   43.8350   33.7060   37.8920 C   0  0  0  0  0  0  0  0  0  0  0  0
   44.6590   33.7370   36.8110 N   0  0  0  0  0  0  0  0  0  0  0  0
   45.9490   33.8570   37.2970 C   0  0  0  0  0  0  0  0  0  0  0  0
   45.8890   33.8960   38.6480 N   0  0  0  0  0  0  0  0  0  0  0  0
   44.6080   33.8060   39.0110 C   0  0  0  0  0  0  0  0  0  0  0  0
   43.9960   33.7950   40.2510 C   0  0  0  0  0  0  0  0  0  0  0  0
   42.1970   33.6850   41.3760 H   0  0  0  0  0  0  0  0  0  0  0  0
   41.8600   33.5210   37.1170 H   0  0  0  0  0  0  0  0  0  0  0  0
   44.4060   33.6830   35.8040 H   0  0  0  0  0  0  0  0  0  0  0  0
   46.8570   33.9110   36.7140 H   0  0  0  0  0  0  0  0  0  0  0  0
   44.6180   33.8740   41.1390 H   0  0  0  0  0  0  0  0  0  0  0  0
   37.5140   31.2740   38.9190 O   0  0  0  0  0  0  0  0  0  0  0  0
   37.3460   30.2230   39.8130 C   0  0  0  0  0  0  0  0  0  0  0  0
   35.9970   30.2290   40.0300 C   0  0  0  0  0  0  0  0  0  0  0  0
   35.8110   28.7870   41.2470 S   0  0  0  0  0  0  0  0  0  0  0  0
   37.6730   28.4960   41.1790 C   0  0  0  0  0  0  0  0  0  0  0  0
   37.9850   29.2890   40.4760 N   0  0  0  0  0  0  0  0  0  0  0  0
   34.9840   30.6530   39.8500 H   0  0  0  0  0  0  0  0  0  0  0  0
   37.4310   25.8960   39.8880 Cl  0  0  0  0  0  0  0  0  0  0  0  0
   38.2870   26.1390   41.3940 C   0  0  0  0  0  0  0  0  0  0  0  0
   38.3750   27.3930   41.9700 C   0  0  0  0  0  0  0  0  0  0  0  0
   39.0000   27.7530   43.1290 C   0  0  0  0  0  0  0  0  0  0  0  0
   39.0150   28.7510   43.4940 H   0  0  0  0  0  0  0  0  0  0  0  0
   39.6100   26.7020   43.7840 C   0  0  0  0  0  0  0  0  0  0  0  0
   40.1400   26.8660   44.7220 H   0  0  0  0  0  0  0  0  0  0  0  0
   39.5830   25.4120   43.2990 C   0  0  0  0  0  0  0  0  0  0  0  0
   40.0500   24.5590   43.7850 H   0  0  0  0  0  0  0  0  0  0  0  0
   38.9200   25.1680   42.1160 C   0  0  0  0  0  0  0  0  0  0  0  0
   38.8400   23.5550   41.4320 Cl  0  0  0  0  0  0  0  0  0  0  0  0
  1  6  1  0  0  0  0
  2  1  2  0  0  0  0
  2  3  1  0  0  0  0
  3  4  2  0  0  0  0
  4  5  1  0  0  0  0
  5  8  1  0  0  0  0
  6  5  2  0  0  0  0
  7  2  1  0  0  0  0
  9 18  1  0  0  0  0
 10  3  1  0  0  0  0
 10  9  2  0  0  0  0
 11 10  1  0  0  0  0
 12 11  2  0  0  0  0
 12 16  1  0  0  0  0
 13 14  1  0  0  0  0
 13 12  1  0  0  0  0
 14 15  2  0  0  0  0
 15 16  1  0  0  0  0
 16 17  2  0  0  0  0
 17  9  1  0  0  0  0
 17 22  1  0  0  0  0
 19 11  1  0  0  0  0
 20 13  1  0  0  0  0
 21 14  1  0  0  0  0
 23  1  1  0  0  0  0
 23 24  1  0  0  0  0
 24 25  2  0  0  0  0
 24 28  1  0  0  0  0
 25 26  1  0  0  0  0
 27 26  1  0  0  0  0
 27 32  1  0  0  0  0
 28 27  2  0  0  0  0
 29 25  1  0  0  0  0
 30 31  1  0  0  0  0
 31 32  2  0  0  0  0
 31 39  1  0  0  0  0
 32 33  1  0  0  0  0
 33 34  1  0  0  0  0
 33 35  2  0  0  0  0
 35 36  1  0  0  0  0
 37 35  1  0  0  0  0
 37 38  1  0  0  0  0
 39 37  2  0  0  0  0
 40 39  1  0  0  0  0
M  END
>  <minimizedAffinity>
-6.54624796

$$$$

 OpenBabel03252507393D

 40 44  0  0  0  0  0  0  0  0999 V2000
   37.9050   32.6320   39.1700 C   0  0  0  0  0  0  0  0  0  0  0  0
   39.2030   32.2420   38.7660 C   0  0  0  0  0  0  0  0  0  0  0  0
   40.2560   33.0500   39.1630 C   0  0  0  0  0  0  0  0  0  0  0  0
   40.0090   34.1530   39.9020 N   0  0  0  0  0  0  0  0  0  0  0  0
   38.7500   34.5030   40.2770 C   0  0  0  0  0  0  0  0  0  0  0  0
   37.7280   33.7520   39.9130 N   0  0  0  0  0  0  0  0  0  0  0  0
   39.4060   31.3740   38.1830 H   0  0  0  0  0  0  0  0  0  0  0  0
   38.6230   35.3990   40.8680 H   0  0  0  0  0  0  0  0  0  0  0  0
   42.2430   31.6570   39.3810 C   0  0  0  0  0  0  0  0  0  0  0  0
   41.6520   32.7830   38.8280 C   0  0  0  0  0  0  0  0  0  0  0  0
   42.4080   33.5740   38.0040 C   0  0  0  0  0  0  0  0  0  0  0  0
   43.7240   33.2900   37.7080 C   0  0  0  0  0  0  0  0  0  0  0  0
   44.6430   33.9210   36.9290 N   0  0  0  0  0  0  0  0  0  0  0  0
   45.8070   33.1770   37.0060 C   0  0  0  0  0  0  0  0  0  0  0  0
   45.5800   32.1200   37.8180 N   0  0  0  0  0  0  0  0  0  0  0  0
   44.3170   32.1860   38.2450 C   0  0  0  0  0  0  0  0  0  0  0  0
   43.5790   31.3690   39.0810 C   0  0  0  0  0  0  0  0  0  0  0  0
   41.7260   30.9720   40.0450 H   0  0  0  0  0  0  0  0  0  0  0  0
   41.9450   34.4530   37.5720 H   0  0  0  0  0  0  0  0  0  0  0  0
   44.5300   34.7920   36.3730 H   0  0  0  0  0  0  0  0  0  0  0  0
   46.7430   33.3890   36.5100 H   0  0  0  0  0  0  0  0  0  0  0  0
   44.0570   30.4910   39.5060 H   0  0  0  0  0  0  0  0  0  0  0  0
   36.8350   31.8420   38.7870 O   0  0  0  0  0  0  0  0  0  0  0  0
   36.8940   30.4580   38.8980 C   0  0  0  0  0  0  0  0  0  0  0  0
   36.6140   30.0460   37.6260 C   0  0  0  0  0  0  0  0  0  0  0  0
   36.7050   28.1610   37.8200 S   0  0  0  0  0  0  0  0  0  0  0  0
   37.1180   28.3740   39.6470 C   0  0  0  0  0  0  0  0  0  0  0  0
   37.1100   29.4760   39.7390 N   0  0  0  0  0  0  0  0  0  0  0  0
   36.3650   30.2650   36.5640 H   0  0  0  0  0  0  0  0  0  0  0  0
   38.8250   29.1050   41.8910 Cl  0  0  0  0  0  0  0  0  0  0  0  0
   38.1690   27.4970   41.6730 C   0  0  0  0  0  0  0  0  0  0  0  0
   37.3630   27.1980   40.5910 C   0  0  0  0  0  0  0  0  0  0  0  0
   36.7740   26.0060   40.2750 C   0  0  0  0  0  0  0  0  0  0  0  0
   36.1650   25.8720   39.4150 H   0  0  0  0  0  0  0  0  0  0  0  0
   37.0430   24.9950   41.1740 C   0  0  0  0  0  0  0  0  0  0  0  0
   36.6290   23.9980   41.0280 H   0  0  0  0  0  0  0  0  0  0  0  0
   37.8350   25.1840   42.2870 C   0  0  0  0  0  0  0  0  0  0  0  0
   38.0700   24.4140   43.0160 H   0  0  0  0  0  0  0  0  0  0  0  0
   38.3760   26.4330   42.5030 C   0  0  0  0  0  0  0  0  0  0  0  0
   39.3940   26.7560   43.8950 Cl  0  0  0  0  0  0  0  0  0  0  0  0
  1  6  1  0  0  0  0
  2  3  1  0  0  0  0
  2  1  2  0  0  0  0
  3  4  2  0  0  0  0
  4  5  1  0  0  0  0
  5  8  1  0  0  0  0
  6  5  2  0  0  0  0
  7  2  1  0  0  0  0
  9 18  1  0  0  0  0
 10  3  1  0  0  0  0
 10  9  2  0  0  0  0
 11 10  1  0  0  0  0
 12 11  2  0  0  0  0
 12 16  1  0  0  0  0
 13 14  1  0  0  0  0
 13 12  1  0  0  0  0
 14 15  2  0  0  0  0
 15 16  1  0  0  0  0
 16 17  2  0  0  0  0
 17  9  1  0  0  0  0
 17 22  1  0  0  0  0
 19 11  1  0  0  0  0
 20 13  1  0  0  0  0
 21 14  1  0  0  0  0
 23 24  1  0  0  0  0
 23  1  1  0  0  0  0
 24 28  1  0  0  0  0
 25 26  1  0  0  0  0
 25 24  2  0  0  0  0
 26 27  1  0  0  0  0
 27 28  2  0  0  0  0
 27 32  1  0  0  0  0
 29 25  1  0  0  0  0
 31 30  1  0  0  0  0
 31 39  1  0  0  0  0
 32 31  2  0  0  0  0
 33 32  1  0  0  0  0
 33 35  2  0  0  0  0
 34 33  1  0  0  0  0
 35 37  1  0  0  0  0
 36 35  1  0  0  0  0
 37 39  2  0  0  0  0
 37 38  1  0  0  0  0
 39 40  1  0  0  0  0
M  END
>  <minimizedAffinity>
-6.51292753

$$$$
