
 OpenBabel03252506273D

 47 51  0  0  0  0  0  0  0  0999 V2000
   36.3520   27.2010   39.6500 C   0  0  0  0  0  0  0  0  0  0  0  0
   35.7010   28.4090   39.7970 C   0  0  0  0  0  0  0  0  0  0  0  0
   35.8360   29.0410   41.0350 C   0  0  0  0  0  0  0  0  0  0  0  0
   36.5780   28.4940   42.0560 C   0  0  0  0  0  0  0  0  0  0  0  0
   36.8840   28.8520   43.3180 N   0  0  0  0  0  0  0  0  0  0  0  0
   37.6650   27.9350   43.9030 C   0  0  0  0  0  0  0  0  0  0  0  0
   37.9050   26.9060   43.0120 C   0  0  0  0  0  0  0  0  0  0  0  0
   37.2180   27.2900   41.8890 C   0  0  0  0  0  0  0  0  0  0  0  0
   37.0900   26.6600   40.6710 C   0  0  0  0  0  0  0  0  0  0  0  0
   36.2030   26.7660   38.6600 H   0  0  0  0  0  0  0  0  0  0  0  0
   35.3870   29.9860   41.2950 H   0  0  0  0  0  0  0  0  0  0  0  0
   36.5560   29.7300   43.7780 H   0  0  0  0  0  0  0  0  0  0  0  0
   38.0520   27.9880   44.9200 H   0  0  0  0  0  0  0  0  0  0  0  0
   38.4960   26.0190   43.1770 H   0  0  0  0  0  0  0  0  0  0  0  0
   39.7970   26.6710   39.2630 Cl  0  0  0  0  0  0  0  0  0  0  0  0
   38.9320   25.2300   39.7490 C   0  0  0  0  0  0  0  0  0  0  0  0
   37.7240   25.3790   40.3740 C   0  0  0  0  0  0  0  0  0  0  0  0
   36.9570   24.2900   40.8000 C   0  0  0  0  0  0  0  0  0  0  0  0
   35.9990   24.3720   41.2970 H   0  0  0  0  0  0  0  0  0  0  0  0
   37.4600   23.0160   40.5710 C   0  0  0  0  0  0  0  0  0  0  0  0
   36.8760   22.1570   40.8960 H   0  0  0  0  0  0  0  0  0  0  0  0
   38.6840   22.8560   39.9390 C   0  0  0  0  0  0  0  0  0  0  0  0
   39.0380   21.8470   39.7800 H   0  0  0  0  0  0  0  0  0  0  0  0
   39.4280   23.9420   39.5230 C   0  0  0  0  0  0  0  0  0  0  0  0
   40.9690   23.7570   38.7270 Cl  0  0  0  0  0  0  0  0  0  0  0  0
   34.8720   29.1610   38.8560 C   0  0  0  0  0  0  0  0  0  0  0  0
   33.9000   28.6600   38.6710 H   0  0  0  0  0  0  0  0  0  0  0  0
   34.5920   30.1130   39.3880 H   0  0  0  0  0  0  0  0  0  0  0  0
   35.4980   29.5590   37.5740 C   0  0  0  0  0  0  0  0  0  0  0  0
   34.8530   30.1860   36.9560 H   0  0  0  0  0  0  0  0  0  0  0  0
   35.7170   28.6240   37.0100 H   0  0  0  0  0  0  0  0  0  0  0  0
   38.1890   31.6930   38.5480 C   0  0  0  0  0  0  0  0  0  0  0  0
   38.8670   30.6830   37.8400 C   0  0  0  0  0  0  0  0  0  0  0  0
   37.9640   29.7770   37.3960 C   0  0  0  0  0  0  0  0  0  0  0  0
   36.7670   30.2160   37.8180 N   0  0  0  0  0  0  0  0  0  0  0  0
   36.9040   31.3560   38.5030 N   0  0  0  0  0  0  0  0  0  0  0  0
   39.9380   30.5580   37.6270 H   0  0  0  0  0  0  0  0  0  0  0  0
   38.0910   28.8580   36.8130 H   0  0  0  0  0  0  0  0  0  0  0  0
   40.8240   34.0060   39.5480 C   0  0  0  0  0  0  0  0  0  0  0  0
   40.1550   34.9590   40.3110 C   0  0  0  0  0  0  0  0  0  0  0  0
   38.7820   34.7890   40.4730 C   0  0  0  0  0  0  0  0  0  0  0  0
   38.1940   33.7250   39.8890 N   0  0  0  0  0  0  0  0  0  0  0  0
   38.8530   32.8270   39.1640 C   0  0  0  0  0  0  0  0  0  0  0  0
   40.1780   32.9750   38.9960 N   0  0  0  0  0  0  0  0  0  0  0  0
   41.8960   34.1810   39.4490 H   0  0  0  0  0  0  0  0  0  0  0  0
   40.5430   35.8220   40.8030 H   0  0  0  0  0  0  0  0  0  0  0  0
   38.0820   35.3980   41.0140 H   0  0  0  0  0  0  0  0  0  0  0  0
  1  2  2  0  0  0  0
  1  9  1  0  0  0  0
  2  3  1  0  0  0  0
  3 11  1  0  0  0  0
  3  4  2  0  0  0  0
  4  5  1  0  0  0  0
  5 12  1  0  0  0  0
  5  6  1  0  0  0  0
  6 13  1  0  0  0  0
  7 14  1  0  0  0  0
  7  6  2  0  0  0  0
  8  4  1  0  0  0  0
  8  7  1  0  0  0  0
  9  8  2  0  0  0  0
 10  1  1  0  0  0  0
 15 16  1  0  0  0  0
 16 17  1  0  0  0  0
 17  9  1  0  0  0  0
 17 18  2  0  0  0  0
 18 19  1  0  0  0  0
 20 18  1  0  0  0  0
 20 21  1  0  0  0  0
 22 20  2  0  0  0  0
 23 22  1  0  0  0  0
 24 16  2  0  0  0  0
 24 22  1  0  0  0  0
 25 24  1  0  0  0  0
 26 28  1  0  0  0  0
 26  2  1  0  0  0  0
 27 26  1  0  0  0  0
 29 35  1  0  0  0  0
 29 26  1  0  0  0  0
 30 29  1  0  0  0  0
 31 29  1  0  0  0  0
 32 43  1  0  0  0  0
 33 32  1  0  0  0  0
 34 35  1  0  0  0  0
 34 33  2  0  0  0  0
 35 36  1  0  0  0  0
 36 32  2  0  0  0  0
 37 33  1  0  0  0  0
 38 34  1  0  0  0  0
 39 40  1  0  0  0  0
 40 41  2  0  0  0  0
 40 46  1  0  0  0  0
 41 47  1  0  0  0  0
 42 41  1  0  0  0  0
 43 42  2  0  0  0  0
 44 43  1  0  0  0  0
 44 39  2  0  0  0  0
 45 39  1  0  0  0  0
M  END
>  <minimizedAffinity>
-6.97422409

$$$$

 OpenBabel03252506273D

 47 51  0  0  0  0  0  0  0  0999 V2000
   37.7580   29.0700   39.5770 C   0  0  0  0  0  0  0  0  0  0  0  0
   37.8430   30.3450   40.0960 C   0  0  0  0  0  0  0  0  0  0  0  0
   37.6580   30.4690   41.4740 C   0  0  0  0  0  0  0  0  0  0  0  0
   37.4060   29.3800   42.2770 C   0  0  0  0  0  0  0  0  0  0  0  0
   37.1910   29.1860   43.5930 N   0  0  0  0  0  0  0  0  0  0  0  0
   36.9890   27.8910   43.8620 C   0  0  0  0  0  0  0  0  0  0  0  0
   37.0680   27.1640   42.6900 C   0  0  0  0  0  0  0  0  0  0  0  0
   37.3250   28.1180   41.7390 C   0  0  0  0  0  0  0  0  0  0  0  0
   37.5060   27.9880   40.3800 C   0  0  0  0  0  0  0  0  0  0  0  0
   37.9130   29.0490   38.4970 H   0  0  0  0  0  0  0  0  0  0  0  0
   37.6970   31.3980   42.0190 H   0  0  0  0  0  0  0  0  0  0  0  0
   37.1830   29.9490   44.3070 H   0  0  0  0  0  0  0  0  0  0  0  0
   36.7940   27.4720   44.8490 H   0  0  0  0  0  0  0  0  0  0  0  0
   36.9520   26.0990   42.5700 H   0  0  0  0  0  0  0  0  0  0  0  0
   39.9730   26.1940   40.4370 Cl  0  0  0  0  0  0  0  0  0  0  0  0
   38.4690   25.7960   39.6370 C   0  0  0  0  0  0  0  0  0  0  0  0
   37.4440   26.7010   39.6960 C   0  0  0  0  0  0  0  0  0  0  0  0
   36.2060   26.4750   39.0880 C   0  0  0  0  0  0  0  0  0  0  0  0
   35.3740   27.1680   39.1150 H   0  0  0  0  0  0  0  0  0  0  0  0
   36.0280   25.2790   38.4050 C   0  0  0  0  0  0  0  0  0  0  0  0
   35.0700   25.0870   37.9260 H   0  0  0  0  0  0  0  0  0  0  0  0
   37.0610   24.3570   38.3410 C   0  0  0  0  0  0  0  0  0  0  0  0
   36.8810   23.4390   37.7980 H   0  0  0  0  0  0  0  0  0  0  0  0
   38.2800   24.5950   38.9450 C   0  0  0  0  0  0  0  0  0  0  0  0
   39.5890   23.4440   38.8740 Cl  0  0  0  0  0  0  0  0  0  0  0  0
   38.0990   31.6240   39.4350 C   0  0  0  0  0  0  0  0  0  0  0  0
   39.1480   31.7030   39.0830 H   0  0  0  0  0  0  0  0  0  0  0  0
   37.4920   31.6040   38.4860 H   0  0  0  0  0  0  0  0  0  0  0  0
   37.7060   32.8520   40.1640 C   0  0  0  0  0  0  0  0  0  0  0  0
   37.2640   32.6510   41.1410 H   0  0  0  0  0  0  0  0  0  0  0  0
   36.9460   33.3760   39.5400 H   0  0  0  0  0  0  0  0  0  0  0  0
   40.8970   34.3990   40.5750 C   0  0  0  0  0  0  0  0  0  0  0  0
   40.0620   35.5150   40.3800 C   0  0  0  0  0  0  0  0  0  0  0  0
   38.7890   35.0840   40.2040 C   0  0  0  0  0  0  0  0  0  0  0  0
   38.8410   33.7450   40.2900 N   0  0  0  0  0  0  0  0  0  0  0  0
   40.0960   33.3400   40.5100 N   0  0  0  0  0  0  0  0  0  0  0  0
   40.3000   36.5870   40.3550 H   0  0  0  0  0  0  0  0  0  0  0  0
   37.8600   35.6370   40.0280 H   0  0  0  0  0  0  0  0  0  0  0  0
   44.4840   33.9420   40.1040 C   0  0  0  0  0  0  0  0  0  0  0  0
   45.0480   34.6460   41.1650 C   0  0  0  0  0  0  0  0  0  0  0  0
   44.1710   35.2780   42.0420 C   0  0  0  0  0  0  0  0  0  0  0  0
   42.8460   35.1720   41.8130 N   0  0  0  0  0  0  0  0  0  0  0  0
   42.3290   34.4950   40.7930 C   0  0  0  0  0  0  0  0  0  0  0  0
   43.1600   33.8770   39.9360 N   0  0  0  0  0  0  0  0  0  0  0  0
   45.2090   33.4640   39.4450 H   0  0  0  0  0  0  0  0  0  0  0  0
   46.0770   34.7780   41.4130 H   0  0  0  0  0  0  0  0  0  0  0  0
   44.3900   35.8670   42.9130 H   0  0  0  0  0  0  0  0  0  0  0  0
  1  2  2  0  0  0  0
  1  9  1  0  0  0  0
  2  3  1  0  0  0  0
  3 11  1  0  0  0  0
  3  4  2  0  0  0  0
  4  5  1  0  0  0  0
  5  6  1  0  0  0  0
  5 12  1  0  0  0  0
  6 13  1  0  0  0  0
  7  6  2  0  0  0  0
  8  4  1  0  0  0  0
  8  7  1  0  0  0  0
  9  8  2  0  0  0  0
 10  1  1  0  0  0  0
 14  7  1  0  0  0  0
 16 17  1  0  0  0  0
 16 15  1  0  0  0  0
 17  9  1  0  0  0  0
 18 19  1  0  0  0  0
 18 17  2  0  0  0  0
 20 18  1  0  0  0  0
 21 20  1  0  0  0  0
 22 20  2  0  0  0  0
 22 24  1  0  0  0  0
 23 22  1  0  0  0  0
 24 16  2  0  0  0  0
 25 24  1  0  0  0  0
 26  2  1  0  0  0  0
 26 29  1  0  0  0  0
 27 26  1  0  0  0  0
 28 26  1  0  0  0  0
 29 35  1  0  0  0  0
 29 30  1  0  0  0  0
 31 29  1  0  0  0  0
 32 43  1  0  0  0  0
 33 32  1  0  0  0  0
 34 35  1  0  0  0  0
 34 33  2  0  0  0  0
 35 36  1  0  0  0  0
 36 32  2  0  0  0  0
 37 33  1  0  0  0  0
 38 34  1  0  0  0  0
 39 40  1  0  0  0  0
 40 46  1  0  0  0  0
 40 41  2  0  0  0  0
 41 47  1  0  0  0  0
 42 41  1  0  0  0  0
 43 42  2  0  0  0  0
 44 39  2  0  0  0  0
 44 43  1  0  0  0  0
 45 39  1  0  0  0  0
M  END
>  <minimizedAffinity>
-6.91029167

$$$$

 OpenBabel03252506273D

 47 51  0  0  0  0  0  0  0  0999 V2000
   37.5950   30.3300   40.1250 C   0  0  0  0  0  0  0  0  0  0  0  0
   37.2720   31.0180   38.9730 C   0  0  0  0  0  0  0  0  0  0  0  0
   36.7240   30.2660   37.9330 C   0  0  0  0  0  0  0  0  0  0  0  0
   36.5140   28.9110   38.0450 C   0  0  0  0  0  0  0  0  0  0  0  0
   36.0200   27.9470   37.2440 N   0  0  0  0  0  0  0  0  0  0  0  0
   36.0370   26.7560   37.8550 C   0  0  0  0  0  0  0  0  0  0  0  0
   36.5610   26.9040   39.1250 C   0  0  0  0  0  0  0  0  0  0  0  0
   36.8420   28.2450   39.2000 C   0  0  0  0  0  0  0  0  0  0  0  0
   37.3840   28.9800   40.2320 C   0  0  0  0  0  0  0  0  0  0  0  0
   38.0170   30.9800   40.8940 H   0  0  0  0  0  0  0  0  0  0  0  0
   36.4240   30.6650   36.9770 H   0  0  0  0  0  0  0  0  0  0  0  0
   35.6700   28.1090   36.2730 H   0  0  0  0  0  0  0  0  0  0  0  0
   35.6910   25.8170   37.4240 H   0  0  0  0  0  0  0  0  0  0  0  0
   36.7090   26.1360   39.8680 H   0  0  0  0  0  0  0  0  0  0  0  0
   40.2840   28.1090   40.6060 Cl  0  0  0  0  0  0  0  0  0  0  0  0
   39.0300   27.9470   41.8160 C   0  0  0  0  0  0  0  0  0  0  0  0
   37.7710   28.3840   41.5060 C   0  0  0  0  0  0  0  0  0  0  0  0
   36.7030   28.2970   42.4040 C   0  0  0  0  0  0  0  0  0  0  0  0
   35.6950   28.6320   42.1920 H   0  0  0  0  0  0  0  0  0  0  0  0
   36.9510   27.7460   43.6540 C   0  0  0  0  0  0  0  0  0  0  0  0
   36.1310   27.6700   44.3660 H   0  0  0  0  0  0  0  0  0  0  0  0
   38.2250   27.3020   43.9760 C   0  0  0  0  0  0  0  0  0  0  0  0
   38.3740   26.8780   44.9600 H   0  0  0  0  0  0  0  0  0  0  0  0
   39.2690   27.3930   43.0780 C   0  0  0  0  0  0  0  0  0  0  0  0
   40.8760   26.8390   43.4680 Cl  0  0  0  0  0  0  0  0  0  0  0  0
   37.4090   32.4360   38.6460 C   0  0  0  0  0  0  0  0  0  0  0  0
   38.3130   32.6330   38.0350 H   0  0  0  0  0  0  0  0  0  0  0  0
   36.5530   32.6750   37.9540 H   0  0  0  0  0  0  0  0  0  0  0  0
   37.3270   33.3990   39.7690 C   0  0  0  0  0  0  0  0  0  0  0  0
   37.0290   32.9380   40.7120 H   0  0  0  0  0  0  0  0  0  0  0  0
   36.5590   34.1590   39.4950 H   0  0  0  0  0  0  0  0  0  0  0  0
   40.7340   34.4340   40.0300 C   0  0  0  0  0  0  0  0  0  0  0  0
   40.0510   35.6500   40.2180 C   0  0  0  0  0  0  0  0  0  0  0  0
   38.7180   35.4200   40.1440 C   0  0  0  0  0  0  0  0  0  0  0  0
   38.5860   34.1030   39.9200 N   0  0  0  0  0  0  0  0  0  0  0  0
   39.7860   33.5180   39.8520 N   0  0  0  0  0  0  0  0  0  0  0  0
   40.4360   36.6630   40.3980 H   0  0  0  0  0  0  0  0  0  0  0  0
   37.8630   36.0990   40.2380 H   0  0  0  0  0  0  0  0  0  0  0  0
   44.1460   33.8430   38.8900 C   0  0  0  0  0  0  0  0  0  0  0  0
   44.9180   34.0700   40.0270 C   0  0  0  0  0  0  0  0  0  0  0  0
   44.2410   34.4310   41.1890 C   0  0  0  0  0  0  0  0  0  0  0  0
   42.8970   34.5350   41.1430 N   0  0  0  0  0  0  0  0  0  0  0  0
   42.1800   34.3130   40.0460 C   0  0  0  0  0  0  0  0  0  0  0  0
   42.8160   33.9650   38.9150 N   0  0  0  0  0  0  0  0  0  0  0  0
   44.7200   33.5640   38.0060 H   0  0  0  0  0  0  0  0  0  0  0  0
   45.9760   34.0100   40.1450 H   0  0  0  0  0  0  0  0  0  0  0  0
   44.6360   34.6500   42.1630 H   0  0  0  0  0  0  0  0  0  0  0  0
  1  9  1  0  0  0  0
  1 10  1  0  0  0  0
  2  1  2  0  0  0  0
  3  4  2  0  0  0  0
  3  2  1  0  0  0  0
  4  8  1  0  0  0  0
  5  6  1  0  0  0  0
  5  4  1  0  0  0  0
  6  7  2  0  0  0  0
  7  8  1  0  0  0  0
  7 14  1  0  0  0  0
  8  9  2  0  0  0  0
  9 17  1  0  0  0  0
 11  3  1  0  0  0  0
 12  5  1  0  0  0  0
 13  6  1  0  0  0  0
 15 16  1  0  0  0  0
 16 24  1  0  0  0  0
 17 16  2  0  0  0  0
 17 18  1  0  0  0  0
 18 20  2  0  0  0  0
 19 18  1  0  0  0  0
 20 22  1  0  0  0  0
 20 21  1  0  0  0  0
 22 23  1  0  0  0  0
 24 25  1  0  0  0  0
 24 22  2  0  0  0  0
 26  2  1  0  0  0  0
 26 29  1  0  0  0  0
 27 26  1  0  0  0  0
 28 26  1  0  0  0  0
 29 35  1  0  0  0  0
 29 30  1  0  0  0  0
 31 29  1  0  0  0  0
 32 43  1  0  0  0  0
 32 33  1  0  0  0  0
 33 37  1  0  0  0  0
 34 33  2  0  0  0  0
 34 38  1  0  0  0  0
 35 34  1  0  0  0  0
 36 35  1  0  0  0  0
 36 32  2  0  0  0  0
 39 44  2  0  0  0  0
 39 40  1  0  0  0  0
 40 46  1  0  0  0  0
 40 41  2  0  0  0  0
 41 47  1  0  0  0  0
 42 41  1  0  0  0  0
 43 42  2  0  0  0  0
 44 43  1  0  0  0  0
 45 39  1  0  0  0  0
M  END
>  <minimizedAffinity>
-6.83557272

$$$$

 OpenBabel03252506273D

 47 51  0  0  0  0  0  0  0  0999 V2000
   36.5190   27.1790   39.5760 C   0  0  0  0  0  0  0  0  0  0  0  0
   35.7370   28.2830   39.8470 C   0  0  0  0  0  0  0  0  0  0  0  0
   35.8130   28.7960   41.1430 C   0  0  0  0  0  0  0  0  0  0  0  0
   36.6220   28.2350   42.1030 C   0  0  0  0  0  0  0  0  0  0  0  0
   36.9000   28.4930   43.3960 N   0  0  0  0  0  0  0  0  0  0  0  0
   37.7850   27.6160   43.8840 C   0  0  0  0  0  0  0  0  0  0  0  0
   38.1310   26.7180   42.8920 C   0  0  0  0  0  0  0  0  0  0  0  0
   37.3930   27.1350   41.8130 C   0  0  0  0  0  0  0  0  0  0  0  0
   37.3240   26.6230   40.5360 C   0  0  0  0  0  0  0  0  0  0  0  0
   36.4100   26.8340   38.5460 H   0  0  0  0  0  0  0  0  0  0  0  0
   35.2620   29.6520   41.4990 H   0  0  0  0  0  0  0  0  0  0  0  0
   36.4790   29.2770   43.9440 H   0  0  0  0  0  0  0  0  0  0  0  0
   38.1740   27.6070   44.9020 H   0  0  0  0  0  0  0  0  0  0  0  0
   38.8200   25.8920   42.9650 H   0  0  0  0  0  0  0  0  0  0  0  0
   36.1340   23.8480   40.9800 Cl  0  0  0  0  0  0  0  0  0  0  0  0
   37.6910   24.1590   40.2450 C   0  0  0  0  0  0  0  0  0  0  0  0
   38.0950   25.4600   40.1100 C   0  0  0  0  0  0  0  0  0  0  0  0
   39.3220   25.8100   39.5370 C   0  0  0  0  0  0  0  0  0  0  0  0
   39.6730   26.8280   39.4140 H   0  0  0  0  0  0  0  0  0  0  0  0
   40.1450   24.7850   39.0920 C   0  0  0  0  0  0  0  0  0  0  0  0
   41.1030   25.0390   38.6430 H   0  0  0  0  0  0  0  0  0  0  0  0
   39.7420   23.4640   39.2250 C   0  0  0  0  0  0  0  0  0  0  0  0
   40.4140   22.6970   38.8660 H   0  0  0  0  0  0  0  0  0  0  0  0
   38.5290   23.1340   39.7940 C   0  0  0  0  0  0  0  0  0  0  0  0
   38.0080   21.4790   39.9680 Cl  0  0  0  0  0  0  0  0  0  0  0  0
   34.8190   29.0290   38.9870 C   0  0  0  0  0  0  0  0  0  0  0  0
   33.8440   28.5120   38.8790 H   0  0  0  0  0  0  0  0  0  0  0  0
   34.5690   29.9710   39.5510 H   0  0  0  0  0  0  0  0  0  0  0  0
   35.3280   29.4510   37.6610 C   0  0  0  0  0  0  0  0  0  0  0  0
   34.6140   30.0560   37.0990 H   0  0  0  0  0  0  0  0  0  0  0  0
   35.5330   28.5250   37.0780 H   0  0  0  0  0  0  0  0  0  0  0  0
   38.0350   31.6190   38.5040 C   0  0  0  0  0  0  0  0  0  0  0  0
   38.6490   30.7340   37.6000 C   0  0  0  0  0  0  0  0  0  0  0  0
   37.7320   29.8290   37.1800 C   0  0  0  0  0  0  0  0  0  0  0  0
   36.5890   30.1510   37.8070 N   0  0  0  0  0  0  0  0  0  0  0  0
   36.7710   31.2150   38.5940 N   0  0  0  0  0  0  0  0  0  0  0  0
   39.6850   30.6950   37.2330 H   0  0  0  0  0  0  0  0  0  0  0  0
   37.8160   28.9880   36.4830 H   0  0  0  0  0  0  0  0  0  0  0  0
   38.6120   34.6790   40.4010 C   0  0  0  0  0  0  0  0  0  0  0  0
   39.9980   34.8160   40.3930 C   0  0  0  0  0  0  0  0  0  0  0  0
   40.7260   33.8360   39.7250 C   0  0  0  0  0  0  0  0  0  0  0  0
   40.0530   32.8280   39.1320 N   0  0  0  0  0  0  0  0  0  0  0  0
   38.7290   32.7180   39.1520 C   0  0  0  0  0  0  0  0  0  0  0  0
   38.0090   33.6540   39.7930 N   0  0  0  0  0  0  0  0  0  0  0  0
   38.0850   35.4700   40.9370 H   0  0  0  0  0  0  0  0  0  0  0  0
   40.6020   35.5770   40.8350 H   0  0  0  0  0  0  0  0  0  0  0  0
   41.7890   33.7490   39.5980 H   0  0  0  0  0  0  0  0  0  0  0  0
  1  2  2  0  0  0  0
  1  9  1  0  0  0  0
  2  3  1  0  0  0  0
  3 11  1  0  0  0  0
  3  4  2  0  0  0  0
  4  5  1  0  0  0  0
  5  6  1  0  0  0  0
  5 12  1  0  0  0  0
  6 13  1  0  0  0  0
  7 14  1  0  0  0  0
  7  6  2  0  0  0  0
  8  4  1  0  0  0  0
  8  7  1  0  0  0  0
  9  8  2  0  0  0  0
 10  1  1  0  0  0  0
 16 15  1  0  0  0  0
 17 16  1  0  0  0  0
 17  9  1  0  0  0  0
 18 17  2  0  0  0  0
 19 18  1  0  0  0  0
 20 22  2  0  0  0  0
 20 18  1  0  0  0  0
 21 20  1  0  0  0  0
 22 24  1  0  0  0  0
 23 22  1  0  0  0  0
 24 25  1  0  0  0  0
 24 16  2  0  0  0  0
 26 28  1  0  0  0  0
 26  2  1  0  0  0  0
 27 26  1  0  0  0  0
 29 35  1  0  0  0  0
 29 26  1  0  0  0  0
 30 29  1  0  0  0  0
 31 29  1  0  0  0  0
 32 36  2  0  0  0  0
 32 43  1  0  0  0  0
 33 32  1  0  0  0  0
 34 33  2  0  0  0  0
 34 35  1  0  0  0  0
 35 36  1  0  0  0  0
 37 33  1  0  0  0  0
 38 34  1  0  0  0  0
 39 45  1  0  0  0  0
 40 39  1  0  0  0  0
 40 46  1  0  0  0  0
 41 40  2  0  0  0  0
 42 43  2  0  0  0  0
 42 41  1  0  0  0  0
 43 44  1  0  0  0  0
 44 39  2  0  0  0  0
 47 41  1  0  0  0  0
M  END
>  <minimizedAffinity>
-6.77323675

$$$$

 OpenBabel03252506273D

 47 51  0  0  0  0  0  0  0  0999 V2000
   36.8970   28.5170   39.7570 C   0  0  0  0  0  0  0  0  0  0  0  0
   36.4340   28.6470   38.4640 C   0  0  0  0  0  0  0  0  0  0  0  0
   36.0370   27.4720   37.8250 C   0  0  0  0  0  0  0  0  0  0  0  0
   36.1030   26.2460   38.4470 C   0  0  0  0  0  0  0  0  0  0  0  0
   35.8040   24.9780   38.1030 N   0  0  0  0  0  0  0  0  0  0  0  0
   36.0630   24.1320   39.1080 C   0  0  0  0  0  0  0  0  0  0  0  0
   36.5590   24.8420   40.1840 C   0  0  0  0  0  0  0  0  0  0  0  0
   36.5680   26.1380   39.7350 C   0  0  0  0  0  0  0  0  0  0  0  0
   36.9610   27.2940   40.3730 C   0  0  0  0  0  0  0  0  0  0  0  0
   37.1880   29.4750   40.1930 H   0  0  0  0  0  0  0  0  0  0  0  0
   35.6550   27.4170   36.8180 H   0  0  0  0  0  0  0  0  0  0  0  0
   35.4200   24.6940   37.1740 H   0  0  0  0  0  0  0  0  0  0  0  0
   35.9080   23.0540   39.0840 H   0  0  0  0  0  0  0  0  0  0  0  0
   36.8630   24.4530   41.1430 H   0  0  0  0  0  0  0  0  0  0  0  0
   39.8760   26.5240   40.8430 Cl  0  0  0  0  0  0  0  0  0  0  0  0
   38.7510   26.9840   42.1020 C   0  0  0  0  0  0  0  0  0  0  0  0
   37.4700   27.3060   41.7400 C   0  0  0  0  0  0  0  0  0  0  0  0
   36.4990   27.6850   42.6710 C   0  0  0  0  0  0  0  0  0  0  0  0
   35.4780   27.9460   42.4200 H   0  0  0  0  0  0  0  0  0  0  0  0
   36.8680   27.7340   44.0090 C   0  0  0  0  0  0  0  0  0  0  0  0
   36.1240   28.0270   44.7470 H   0  0  0  0  0  0  0  0  0  0  0  0
   38.1640   27.4100   44.3830 C   0  0  0  0  0  0  0  0  0  0  0  0
   38.4090   27.4600   45.4350 H   0  0  0  0  0  0  0  0  0  0  0  0
   39.1110   27.0360   43.4520 C   0  0  0  0  0  0  0  0  0  0  0  0
   40.7450   26.6260   43.9070 Cl  0  0  0  0  0  0  0  0  0  0  0  0
   36.2820   29.8350   37.6260 C   0  0  0  0  0  0  0  0  0  0  0  0
   35.6250   29.6440   36.7540 H   0  0  0  0  0  0  0  0  0  0  0  0
   35.7040   30.5760   38.2480 H   0  0  0  0  0  0  0  0  0  0  0  0
   37.5230   30.5200   37.1950 C   0  0  0  0  0  0  0  0  0  0  0  0
   37.4500   30.9570   36.1980 H   0  0  0  0  0  0  0  0  0  0  0  0
   38.3330   29.7550   37.1800 H   0  0  0  0  0  0  0  0  0  0  0  0
   39.1790   32.8270   39.3570 C   0  0  0  0  0  0  0  0  0  0  0  0
   37.8290   33.0430   39.6910 C   0  0  0  0  0  0  0  0  0  0  0  0
   37.0560   32.2230   38.9380 C   0  0  0  0  0  0  0  0  0  0  0  0
   37.9050   31.5250   38.1670 N   0  0  0  0  0  0  0  0  0  0  0  0
   39.1680   31.8870   38.4180 N   0  0  0  0  0  0  0  0  0  0  0  0
   37.3750   33.7300   40.4180 H   0  0  0  0  0  0  0  0  0  0  0  0
   35.9690   32.0900   38.9020 H   0  0  0  0  0  0  0  0  0  0  0  0
   41.2510   35.5760   40.5600 C   0  0  0  0  0  0  0  0  0  0  0  0
   42.3500   34.9370   41.1280 C   0  0  0  0  0  0  0  0  0  0  0  0
   42.3620   33.5450   41.0880 C   0  0  0  0  0  0  0  0  0  0  0  0
   41.3230   32.9100   40.5090 N   0  0  0  0  0  0  0  0  0  0  0  0
   40.2830   33.5410   39.9740 C   0  0  0  0  0  0  0  0  0  0  0  0
   40.2530   34.8840   40.0020 N   0  0  0  0  0  0  0  0  0  0  0  0
   41.2860   36.6650   40.6150 H   0  0  0  0  0  0  0  0  0  0  0  0
   43.2060   35.3630   41.6020 H   0  0  0  0  0  0  0  0  0  0  0  0
   43.1020   32.8620   41.4630 H   0  0  0  0  0  0  0  0  0  0  0  0
  1 10  1  0  0  0  0
  1  9  1  0  0  0  0
  2  1  2  0  0  0  0
  3  4  2  0  0  0  0
  3  2  1  0  0  0  0
  4  8  1  0  0  0  0
  5  4  1  0  0  0  0
  5  6  1  0  0  0  0
  6  7  2  0  0  0  0
  7 14  1  0  0  0  0
  8  7  1  0  0  0  0
  8  9  2  0  0  0  0
  9 17  1  0  0  0  0
 11  3  1  0  0  0  0
 12  5  1  0  0  0  0
 13  6  1  0  0  0  0
 15 16  1  0  0  0  0
 16 24  1  0  0  0  0
 17 16  2  0  0  0  0
 17 18  1  0  0  0  0
 18 20  2  0  0  0  0
 19 18  1  0  0  0  0
 20 22  1  0  0  0  0
 20 21  1  0  0  0  0
 22 23  1  0  0  0  0
 24 25  1  0  0  0  0
 24 22  2  0  0  0  0
 26 28  1  0  0  0  0
 26  2  1  0  0  0  0
 27 26  1  0  0  0  0
 29 26  1  0  0  0  0
 29 35  1  0  0  0  0
 30 29  1  0  0  0  0
 31 29  1  0  0  0  0
 32 33  1  0  0  0  0
 32 43  1  0  0  0  0
 33 37  1  0  0  0  0
 34 33  2  0  0  0  0
 35 36  1  0  0  0  0
 35 34  1  0  0  0  0
 36 32  2  0  0  0  0
 38 34  1  0  0  0  0
 39 45  1  0  0  0  0
 39 40  1  0  0  0  0
 40 46  1  0  0  0  0
 41 40  2  0  0  0  0
 41 47  1  0  0  0  0
 42 41  1  0  0  0  0
 43 44  1  0  0  0  0
 43 42  2  0  0  0  0
 44 39  2  0  0  0  0
M  END
>  <minimizedAffinity>
-6.74376059

$$$$

 OpenBabel03252506273D

 47 51  0  0  0  0  0  0  0  0999 V2000
   37.8790   31.2050   40.8210 C   0  0  0  0  0  0  0  0  0  0  0  0
   37.5570   32.1590   39.8770 C   0  0  0  0  0  0  0  0  0  0  0  0
   36.9260   31.7000   38.7200 C   0  0  0  0  0  0  0  0  0  0  0  0
   36.6370   30.3690   38.5260 C   0  0  0  0  0  0  0  0  0  0  0  0
   36.0560   29.6450   37.5490 N   0  0  0  0  0  0  0  0  0  0  0  0
   36.0220   28.3450   37.8680 C   0  0  0  0  0  0  0  0  0  0  0  0
   36.6010   28.1650   39.1090 C   0  0  0  0  0  0  0  0  0  0  0  0
   36.9660   29.4350   39.4780 C   0  0  0  0  0  0  0  0  0  0  0  0
   37.5890   29.8800   40.6230 C   0  0  0  0  0  0  0  0  0  0  0  0
   38.3680   31.6350   41.6970 H   0  0  0  0  0  0  0  0  0  0  0  0
   36.6160   32.3260   37.8990 H   0  0  0  0  0  0  0  0  0  0  0  0
   35.6820   30.0470   36.6610 H   0  0  0  0  0  0  0  0  0  0  0  0
   35.6040   27.5520   37.2490 H   0  0  0  0  0  0  0  0  0  0  0  0
   36.7280   27.2390   39.6460 H   0  0  0  0  0  0  0  0  0  0  0  0
   40.4140   28.7260   40.5930 Cl  0  0  0  0  0  0  0  0  0  0  0  0
   39.2140   28.3920   41.8220 C   0  0  0  0  0  0  0  0  0  0  0  0
   37.9850   28.9840   41.7050 C   0  0  0  0  0  0  0  0  0  0  0  0
   36.9610   28.7790   42.6340 C   0  0  0  0  0  0  0  0  0  0  0  0
   35.9790   29.2300   42.5720 H   0  0  0  0  0  0  0  0  0  0  0  0
   37.2220   27.9420   43.7110 C   0  0  0  0  0  0  0  0  0  0  0  0
   36.4350   27.7720   44.4440 H   0  0  0  0  0  0  0  0  0  0  0  0
   38.4650   27.3400   43.8370 C   0  0  0  0  0  0  0  0  0  0  0  0
   38.6250   26.6960   44.6900 H   0  0  0  0  0  0  0  0  0  0  0  0
   39.4660   27.5510   42.9100 C   0  0  0  0  0  0  0  0  0  0  0  0
   41.0340   26.8010   43.0550 Cl  0  0  0  0  0  0  0  0  0  0  0  0
   37.7690   33.6050   39.8810 C   0  0  0  0  0  0  0  0  0  0  0  0
   37.7580   34.0260   38.8550 H   0  0  0  0  0  0  0  0  0  0  0  0
   36.8550   34.0470   40.3690 H   0  0  0  0  0  0  0  0  0  0  0  0
   38.9390   34.1150   40.6330 C   0  0  0  0  0  0  0  0  0  0  0  0
   39.1200   33.5770   41.5660 H   0  0  0  0  0  0  0  0  0  0  0  0
   38.7320   35.1810   40.8810 H   0  0  0  0  0  0  0  0  0  0  0  0
   41.7060   33.3130   38.5250 C   0  0  0  0  0  0  0  0  0  0  0  0
   41.8630   34.7020   38.6850 C   0  0  0  0  0  0  0  0  0  0  0  0
   40.8670   35.1670   39.4770 C   0  0  0  0  0  0  0  0  0  0  0  0
   40.1220   34.0950   39.7950 N   0  0  0  0  0  0  0  0  0  0  0  0
   40.6230   32.9940   39.2270 N   0  0  0  0  0  0  0  0  0  0  0  0
   42.6230   35.3850   38.2810 H   0  0  0  0  0  0  0  0  0  0  0  0
   40.6420   36.1780   39.8340 H   0  0  0  0  0  0  0  0  0  0  0  0
   42.8750   30.7080   36.2570 C   0  0  0  0  0  0  0  0  0  0  0  0
   44.2530   30.9000   36.2160 C   0  0  0  0  0  0  0  0  0  0  0  0
   44.7700   31.9420   36.9820 C   0  0  0  0  0  0  0  0  0  0  0  0
   43.9140   32.6900   37.7080 N   0  0  0  0  0  0  0  0  0  0  0  0
   42.6000   32.4880   37.7320 C   0  0  0  0  0  0  0  0  0  0  0  0
   42.0830   31.4880   36.9990 N   0  0  0  0  0  0  0  0  0  0  0  0
   42.5180   29.8810   35.6410 H   0  0  0  0  0  0  0  0  0  0  0  0
   44.9930   30.3570   35.6720 H   0  0  0  0  0  0  0  0  0  0  0  0
   45.7890   32.2610   37.0940 H   0  0  0  0  0  0  0  0  0  0  0  0
  1 10  1  0  0  0  0
  2 26  1  0  0  0  0
  2  1  2  0  0  0  0
  3  2  1  0  0  0  0
  4  3  2  0  0  0  0
  4  8  1  0  0  0  0
  5  6  1  0  0  0  0
  5  4  1  0  0  0  0
  6  7  2  0  0  0  0
  7  8  1  0  0  0  0
  7 14  1  0  0  0  0
  8  9  2  0  0  0  0
  9  1  1  0  0  0  0
  9 17  1  0  0  0  0
 11  3  1  0  0  0  0
 12  5  1  0  0  0  0
 13  6  1  0  0  0  0
 15 16  1  0  0  0  0
 16 24  1  0  0  0  0
 17 16  2  0  0  0  0
 17 18  1  0  0  0  0
 18 20  2  0  0  0  0
 19 18  1  0  0  0  0
 20 22  1  0  0  0  0
 20 21  1  0  0  0  0
 22 23  1  0  0  0  0
 24 25  1  0  0  0  0
 24 22  2  0  0  0  0
 26 28  1  0  0  0  0
 26 29  1  0  0  0  0
 27 26  1  0  0  0  0
 29 31  1  0  0  0  0
 29 30  1  0  0  0  0
 32 33  1  0  0  0  0
 32 36  2  0  0  0  0
 33 34  2  0  0  0  0
 34 35  1  0  0  0  0
 34 38  1  0  0  0  0
 35 29  1  0  0  0  0
 36 35  1  0  0  0  0
 37 33  1  0  0  0  0
 39 44  1  0  0  0  0
 40 39  2  0  0  0  0
 40 41  1  0  0  0  0
 41 47  1  0  0  0  0
 41 42  2  0  0  0  0
 42 43  1  0  0  0  0
 43 32  1  0  0  0  0
 44 43  2  0  0  0  0
 45 39  1  0  0  0  0
 46 40  1  0  0  0  0
M  END
>  <minimizedAffinity>
-6.68028593

$$$$

 OpenBabel03252506273D

 47 51  0  0  0  0  0  0  0  0999 V2000
   37.6530   28.3410   39.5410 C   0  0  0  0  0  0  0  0  0  0  0  0
   36.9270   29.5020   39.7060 C   0  0  0  0  0  0  0  0  0  0  0  0
   36.6460   29.8780   41.0210 C   0  0  0  0  0  0  0  0  0  0  0  0
   37.0690   29.1330   42.0980 C   0  0  0  0  0  0  0  0  0  0  0  0
   36.9580   29.2330   43.4370 N   0  0  0  0  0  0  0  0  0  0  0  0
   37.5690   28.2120   44.0490 C   0  0  0  0  0  0  0  0  0  0  0  0
   38.1220   27.3760   43.0980 C   0  0  0  0  0  0  0  0  0  0  0  0
   37.7900   27.9790   41.9110 C   0  0  0  0  0  0  0  0  0  0  0  0
   38.0720   27.6020   40.6170 C   0  0  0  0  0  0  0  0  0  0  0  0
   37.8350   28.1100   38.4890 H   0  0  0  0  0  0  0  0  0  0  0  0
   36.0910   30.7570   41.3040 H   0  0  0  0  0  0  0  0  0  0  0  0
   36.4600   30.0070   43.9310 H   0  0  0  0  0  0  0  0  0  0  0  0
   37.6240   28.0600   45.1260 H   0  0  0  0  0  0  0  0  0  0  0  0
   38.6790   26.4680   43.2650 H   0  0  0  0  0  0  0  0  0  0  0  0
   36.6150   24.9210   40.6260 Cl  0  0  0  0  0  0  0  0  0  0  0  0
   38.3130   25.1320   40.2590 C   0  0  0  0  0  0  0  0  0  0  0  0
   38.8300   26.3990   40.2930 C   0  0  0  0  0  0  0  0  0  0  0  0
   40.1740   26.6700   40.0160 C   0  0  0  0  0  0  0  0  0  0  0  0
   40.6160   27.6580   40.0330 H   0  0  0  0  0  0  0  0  0  0  0  0
   40.9970   25.5990   39.6940 C   0  0  0  0  0  0  0  0  0  0  0  0
   42.0460   25.7920   39.4750 H   0  0  0  0  0  0  0  0  0  0  0  0
   40.4800   24.3130   39.6560 C   0  0  0  0  0  0  0  0  0  0  0  0
   41.1560   23.5080   39.4010 H   0  0  0  0  0  0  0  0  0  0  0  0
   39.1520   24.0610   39.9340 C   0  0  0  0  0  0  0  0  0  0  0  0
   38.4870   22.4490   39.8910 Cl  0  0  0  0  0  0  0  0  0  0  0  0
   36.3860   30.4320   38.7160 C   0  0  0  0  0  0  0  0  0  0  0  0
   35.6740   29.9340   38.0270 H   0  0  0  0  0  0  0  0  0  0  0  0
   35.7470   31.1570   39.2940 H   0  0  0  0  0  0  0  0  0  0  0  0
   37.3600   31.2440   37.9490 C   0  0  0  0  0  0  0  0  0  0  0  0
   36.9320   31.7020   37.0560 H   0  0  0  0  0  0  0  0  0  0  0  0
   38.1790   30.5590   37.6290 H   0  0  0  0  0  0  0  0  0  0  0  0
   39.4850   33.3490   39.8980 C   0  0  0  0  0  0  0  0  0  0  0  0
   38.2270   33.9430   40.1050 C   0  0  0  0  0  0  0  0  0  0  0  0
   37.2930   33.2450   39.4150 C   0  0  0  0  0  0  0  0  0  0  0  0
   37.9580   32.2510   38.8040 N   0  0  0  0  0  0  0  0  0  0  0  0
   39.2610   32.3150   39.0920 N   0  0  0  0  0  0  0  0  0  0  0  0
   37.9420   34.8220   40.7010 H   0  0  0  0  0  0  0  0  0  0  0  0
   36.2100   33.3860   39.3210 H   0  0  0  0  0  0  0  0  0  0  0  0
   41.9800   35.6590   41.2140 C   0  0  0  0  0  0  0  0  0  0  0  0
   43.0260   34.8270   41.6050 C   0  0  0  0  0  0  0  0  0  0  0  0
   42.8550   33.4600   41.4060 C   0  0  0  0  0  0  0  0  0  0  0  0
   41.7020   33.0310   40.8540 N   0  0  0  0  0  0  0  0  0  0  0  0
   40.7150   33.8430   40.4890 C   0  0  0  0  0  0  0  0  0  0  0  0
   40.8620   35.1660   40.6730 N   0  0  0  0  0  0  0  0  0  0  0  0
   42.1600   36.7200   41.3900 H   0  0  0  0  0  0  0  0  0  0  0  0
   43.9630   35.0850   42.0450 H   0  0  0  0  0  0  0  0  0  0  0  0
   43.5260   32.6520   41.6320 H   0  0  0  0  0  0  0  0  0  0  0  0
  1  2  2  0  0  0  0
  1  9  1  0  0  0  0
  2  3  1  0  0  0  0
  3 11  1  0  0  0  0
  3  4  2  0  0  0  0
  4  5  1  0  0  0  0
  5 12  1  0  0  0  0
  5  6  1  0  0  0  0
  6 13  1  0  0  0  0
  7 14  1  0  0  0  0
  7  6  2  0  0  0  0
  8  4  1  0  0  0  0
  8  7  1  0  0  0  0
  9  8  2  0  0  0  0
 10  1  1  0  0  0  0
 16 17  1  0  0  0  0
 16 15  1  0  0  0  0
 17  9  1  0  0  0  0
 18 19  1  0  0  0  0
 18 17  2  0  0  0  0
 20 18  1  0  0  0  0
 21 20  1  0  0  0  0
 22 20  2  0  0  0  0
 22 24  1  0  0  0  0
 23 22  1  0  0  0  0
 24 16  2  0  0  0  0
 25 24  1  0  0  0  0
 26 28  1  0  0  0  0
 26  2  1  0  0  0  0
 27 26  1  0  0  0  0
 29 26  1  0  0  0  0
 29 35  1  0  0  0  0
 30 29  1  0  0  0  0
 31 29  1  0  0  0  0
 32 33  1  0  0  0  0
 32 43  1  0  0  0  0
 33 37  1  0  0  0  0
 34 33  2  0  0  0  0
 35 36  1  0  0  0  0
 35 34  1  0  0  0  0
 36 32  2  0  0  0  0
 38 34  1  0  0  0  0
 39 45  1  0  0  0  0
 39 40  1  0  0  0  0
 40 46  1  0  0  0  0
 41 40  2  0  0  0  0
 41 47  1  0  0  0  0
 42 41  1  0  0  0  0
 43 44  1  0  0  0  0
 43 42  2  0  0  0  0
 44 39  2  0  0  0  0
M  END
>  <minimizedAffinity>
-6.66365433

$$$$

 OpenBabel03252506273D

 47 51  0  0  0  0  0  0  0  0999 V2000
   36.9550   26.5540   40.2620 C   0  0  0  0  0  0  0  0  0  0  0  0
   36.5490   27.7770   40.7550 C   0  0  0  0  0  0  0  0  0  0  0  0
   37.1400   28.1930   41.9490 C   0  0  0  0  0  0  0  0  0  0  0  0
   38.0800   27.4290   42.6020 C   0  0  0  0  0  0  0  0  0  0  0  0
   38.8040   27.5560   43.7310 N   0  0  0  0  0  0  0  0  0  0  0  0
   39.5960   26.4930   43.9180 C   0  0  0  0  0  0  0  0  0  0  0  0
   39.4110   25.5990   42.8810 C   0  0  0  0  0  0  0  0  0  0  0  0
   38.4700   26.2130   42.0940 C   0  0  0  0  0  0  0  0  0  0  0  0
   37.8900   25.7960   40.9170 C   0  0  0  0  0  0  0  0  0  0  0  0
   36.4520   26.2940   39.3280 H   0  0  0  0  0  0  0  0  0  0  0  0
   36.9240   29.1220   42.4510 H   0  0  0  0  0  0  0  0  0  0  0  0
   38.7540   28.3770   44.3750 H   0  0  0  0  0  0  0  0  0  0  0  0
   40.2790   26.3510   44.7540 H   0  0  0  0  0  0  0  0  0  0  0  0
   39.8980   24.6480   42.7390 H   0  0  0  0  0  0  0  0  0  0  0  0
   40.3160   25.6910   39.0690 Cl  0  0  0  0  0  0  0  0  0  0  0  0
   39.2790   24.3290   39.4300 C   0  0  0  0  0  0  0  0  0  0  0  0
   38.2240   24.5260   40.2800 C   0  0  0  0  0  0  0  0  0  0  0  0
   37.3390   23.5010   40.6290 C   0  0  0  0  0  0  0  0  0  0  0  0
   36.4960   23.6220   41.2980 H   0  0  0  0  0  0  0  0  0  0  0  0
   37.5570   22.2430   40.0830 C   0  0  0  0  0  0  0  0  0  0  0  0
   36.8770   21.4340   40.3440 H   0  0  0  0  0  0  0  0  0  0  0  0
   38.6230   22.0360   39.2220 C   0  0  0  0  0  0  0  0  0  0  0  0
   38.7560   21.0420   38.8190 H   0  0  0  0  0  0  0  0  0  0  0  0
   39.4880   23.0580   38.8850 C   0  0  0  0  0  0  0  0  0  0  0  0
   40.8340   22.8130   37.8030 Cl  0  0  0  0  0  0  0  0  0  0  0  0
   35.5800   28.7370   40.2290 C   0  0  0  0  0  0  0  0  0  0  0  0
   35.6230   28.8040   39.1230 H   0  0  0  0  0  0  0  0  0  0  0  0
   34.5660   28.2940   40.4380 H   0  0  0  0  0  0  0  0  0  0  0  0
   35.5810   30.0930   40.8270 C   0  0  0  0  0  0  0  0  0  0  0  0
   35.7760   30.0910   41.9000 H   0  0  0  0  0  0  0  0  0  0  0  0
   34.5690   30.5270   40.6590 H   0  0  0  0  0  0  0  0  0  0  0  0
   38.1060   32.4140   39.8380 C   0  0  0  0  0  0  0  0  0  0  0  0
   37.6670   31.9230   38.5940 C   0  0  0  0  0  0  0  0  0  0  0  0
   36.6880   31.0110   38.8040 C   0  0  0  0  0  0  0  0  0  0  0  0
   36.5290   30.9450   40.1360 N   0  0  0  0  0  0  0  0  0  0  0  0
   37.3740   31.7800   40.7490 N   0  0  0  0  0  0  0  0  0  0  0  0
   37.9950   32.1690   37.5750 H   0  0  0  0  0  0  0  0  0  0  0  0
   36.0980   30.4120   38.1020 H   0  0  0  0  0  0  0  0  0  0  0  0
   41.4220   33.8900   40.1840 C   0  0  0  0  0  0  0  0  0  0  0  0
   41.1690   35.2570   40.2660 C   0  0  0  0  0  0  0  0  0  0  0  0
   39.8370   35.6580   40.1990 C   0  0  0  0  0  0  0  0  0  0  0  0
   38.8870   34.7100   40.0620 N   0  0  0  0  0  0  0  0  0  0  0  0
   39.1520   33.4100   39.9850 C   0  0  0  0  0  0  0  0  0  0  0  0
   40.4320   33.0030   40.0480 N   0  0  0  0  0  0  0  0  0  0  0  0
   42.4790   33.6250   40.2410 H   0  0  0  0  0  0  0  0  0  0  0  0
   41.8580   36.0640   40.3740 H   0  0  0  0  0  0  0  0  0  0  0  0
   39.4240   36.6480   40.2410 H   0  0  0  0  0  0  0  0  0  0  0  0
  1  2  2  0  0  0  0
  1  9  1  0  0  0  0
  2  3  1  0  0  0  0
  3 11  1  0  0  0  0
  3  4  2  0  0  0  0
  4  5  1  0  0  0  0
  5  6  1  0  0  0  0
  5 12  1  0  0  0  0
  6 13  1  0  0  0  0
  7  6  2  0  0  0  0
  8  4  1  0  0  0  0
  8  7  1  0  0  0  0
  9  8  2  0  0  0  0
 10  1  1  0  0  0  0
 14  7  1  0  0  0  0
 15 16  1  0  0  0  0
 16 17  1  0  0  0  0
 17 18  2  0  0  0  0
 17  9  1  0  0  0  0
 18 19  1  0  0  0  0
 20 21  1  0  0  0  0
 20 18  1  0  0  0  0
 22 20  2  0  0  0  0
 23 22  1  0  0  0  0
 24 22  1  0  0  0  0
 24 16  2  0  0  0  0
 25 24  1  0  0  0  0
 26 28  1  0  0  0  0
 26  2  1  0  0  0  0
 26 29  1  0  0  0  0
 27 26  1  0  0  0  0
 29 30  1  0  0  0  0
 31 29  1  0  0  0  0
 32 43  1  0  0  0  0
 32 36  2  0  0  0  0
 33 34  2  0  0  0  0
 33 32  1  0  0  0  0
 34 35  1  0  0  0  0
 35 36  1  0  0  0  0
 35 29  1  0  0  0  0
 37 33  1  0  0  0  0
 38 34  1  0  0  0  0
 39 45  1  0  0  0  0
 39 40  1  0  0  0  0
 40 46  1  0  0  0  0
 41 47  1  0  0  0  0
 41 40  2  0  0  0  0
 42 41  1  0  0  0  0
 43 44  1  0  0  0  0
 43 42  2  0  0  0  0
 44 39  2  0  0  0  0
M  END
>  <minimizedAffinity>
-6.62098026

$$$$

 OpenBabel03252506273D

 47 51  0  0  0  0  0  0  0  0999 V2000
   38.7930   29.6880   40.1150 C   0  0  0  0  0  0  0  0  0  0  0  0
   39.6940   29.9930   41.1150 C   0  0  0  0  0  0  0  0  0  0  0  0
   39.7660   31.3330   41.4990 C   0  0  0  0  0  0  0  0  0  0  0  0
   38.9820   32.3020   40.9150 C   0  0  0  0  0  0  0  0  0  0  0  0
   38.8300   33.6320   41.0640 N   0  0  0  0  0  0  0  0  0  0  0  0
   37.9050   34.1090   40.2220 C   0  0  0  0  0  0  0  0  0  0  0  0
   37.4020   33.0700   39.4630 C   0  0  0  0  0  0  0  0  0  0  0  0
   38.0920   31.9760   39.9200 C   0  0  0  0  0  0  0  0  0  0  0  0
   38.0150   30.6560   39.5360 C   0  0  0  0  0  0  0  0  0  0  0  0
   38.7910   28.6240   39.8670 H   0  0  0  0  0  0  0  0  0  0  0  0
   40.4200   31.7200   42.2630 H   0  0  0  0  0  0  0  0  0  0  0  0
   39.3630   34.2130   41.7490 H   0  0  0  0  0  0  0  0  0  0  0  0
   37.5960   35.1510   40.1450 H   0  0  0  0  0  0  0  0  0  0  0  0
   36.6460   33.1240   38.6960 H   0  0  0  0  0  0  0  0  0  0  0  0
   35.2700   29.6100   40.3620 Cl  0  0  0  0  0  0  0  0  0  0  0  0
   35.8500   29.6950   38.7130 C   0  0  0  0  0  0  0  0  0  0  0  0
   37.1070   30.1900   38.4930 C   0  0  0  0  0  0  0  0  0  0  0  0
   37.6600   30.2970   37.2140 C   0  0  0  0  0  0  0  0  0  0  0  0
   38.6500   30.6830   37.0040 H   0  0  0  0  0  0  0  0  0  0  0  0
   36.8870   29.8830   36.1370 C   0  0  0  0  0  0  0  0  0  0  0  0
   37.3010   29.9590   35.1340 H   0  0  0  0  0  0  0  0  0  0  0  0
   35.6120   29.3810   36.3520 C   0  0  0  0  0  0  0  0  0  0  0  0
   35.0440   29.0690   35.4860 H   0  0  0  0  0  0  0  0  0  0  0  0
   35.0800   29.2800   37.6220 C   0  0  0  0  0  0  0  0  0  0  0  0
   33.4780   28.6510   37.9070 Cl  0  0  0  0  0  0  0  0  0  0  0  0
   40.6110   29.1320   41.8610 C   0  0  0  0  0  0  0  0  0  0  0  0
   41.0980   28.3820   41.2060 H   0  0  0  0  0  0  0  0  0  0  0  0
   41.4570   29.7990   42.1900 H   0  0  0  0  0  0  0  0  0  0  0  0
   40.0830   28.4820   43.0830 C   0  0  0  0  0  0  0  0  0  0  0  0
   39.7730   29.1940   43.8500 H   0  0  0  0  0  0  0  0  0  0  0  0
   40.9020   27.8550   43.5020 H   0  0  0  0  0  0  0  0  0  0  0  0
   37.9240   25.9450   41.8010 C   0  0  0  0  0  0  0  0  0  0  0  0
   37.0600   26.6470   42.6620 C   0  0  0  0  0  0  0  0  0  0  0  0
   37.7450   27.6640   43.2380 C   0  0  0  0  0  0  0  0  0  0  0  0
   38.9930   27.5890   42.7460 N   0  0  0  0  0  0  0  0  0  0  0  0
   39.0960   26.5650   41.8920 N   0  0  0  0  0  0  0  0  0  0  0  0
   35.9990   26.4820   42.8970 H   0  0  0  0  0  0  0  0  0  0  0  0
   37.4320   28.4280   43.9570 H   0  0  0  0  0  0  0  0  0  0  0  0
   36.1170   23.8870   39.3950 C   0  0  0  0  0  0  0  0  0  0  0  0
   36.7120   22.6350   39.5180 C   0  0  0  0  0  0  0  0  0  0  0  0
   37.7450   22.5140   40.4440 C   0  0  0  0  0  0  0  0  0  0  0  0
   38.1000   23.6040   41.1550 N   0  0  0  0  0  0  0  0  0  0  0  0
   37.5180   24.7910   41.0200 C   0  0  0  0  0  0  0  0  0  0  0  0
   36.5190   24.9270   40.1320 N   0  0  0  0  0  0  0  0  0  0  0  0
   35.3130   23.9320   38.6580 H   0  0  0  0  0  0  0  0  0  0  0  0
   36.4920   21.7300   38.9970 H   0  0  0  0  0  0  0  0  0  0  0  0
   38.3340   21.6520   40.6950 H   0  0  0  0  0  0  0  0  0  0  0  0
  1  2  1  0  0  0  0
  2  3  2  0  0  0  0
  2 26  1  0  0  0  0
  3 11  1  0  0  0  0
  4  5  1  0  0  0  0
  4  3  1  0  0  0  0
  5 12  1  0  0  0  0
  6  5  1  0  0  0  0
  7  8  1  0  0  0  0
  7  6  2  0  0  0  0
  8  4  2  0  0  0  0
  9  8  1  0  0  0  0
  9  1  2  0  0  0  0
 10  1  1  0  0  0  0
 13  6  1  0  0  0  0
 14  7  1  0  0  0  0
 16 15  1  0  0  0  0
 17 16  1  0  0  0  0
 17  9  1  0  0  0  0
 18 17  2  0  0  0  0
 19 18  1  0  0  0  0
 20 22  2  0  0  0  0
 20 18  1  0  0  0  0
 21 20  1  0  0  0  0
 22 24  1  0  0  0  0
 23 22  1  0  0  0  0
 24 25  1  0  0  0  0
 24 16  2  0  0  0  0
 26 28  1  0  0  0  0
 26 29  1  0  0  0  0
 27 26  1  0  0  0  0
 29 31  1  0  0  0  0
 29 30  1  0  0  0  0
 32 36  2  0  0  0  0
 32 33  1  0  0  0  0
 33 37  1  0  0  0  0
 33 34  2  0  0  0  0
 34 38  1  0  0  0  0
 35 29  1  0  0  0  0
 35 34  1  0  0  0  0
 36 35  1  0  0  0  0
 39 40  2  0  0  0  0
 39 44  1  0  0  0  0
 40 41  1  0  0  0  0
 41 47  1  0  0  0  0
 41 42  2  0  0  0  0
 43 42  1  0  0  0  0
 43 32  1  0  0  0  0
 44 43  2  0  0  0  0
 45 39  1  0  0  0  0
 46 40  1  0  0  0  0
M  END
>  <minimizedAffinity>
-6.55967808

$$$$
