
 OpenBabel03242516073D

 38 41  0  0  0  0  0  0  0  0999 V2000
   38.5260   27.4020   39.5690 Cl  0  0  0  0  0  0  0  0  0  0  0  0
   37.7630   27.3390   41.1340 C   0  0  0  0  0  0  0  0  0  0  0  0
   37.3500   26.1710   41.7000 C   0  0  0  0  0  0  0  0  0  0  0  0
   36.7650   26.2540   42.9320 C   0  0  0  0  0  0  0  0  0  0  0  0
   36.5880   27.4110   43.5860 C   0  0  0  0  0  0  0  0  0  0  0  0
   36.9970   28.6050   43.0360 C   0  0  0  0  0  0  0  0  0  0  0  0
   37.5960   28.5370   41.7790 C   0  0  0  0  0  0  0  0  0  0  0  0
   36.4280   25.3220   43.4010 H   0  0  0  0  0  0  0  0  0  0  0  0
   36.1180   27.4100   44.5610 H   0  0  0  0  0  0  0  0  0  0  0  0
   36.8630   29.5480   43.5490 H   0  0  0  0  0  0  0  0  0  0  0  0
   36.7790   23.1540   39.4690 C   0  0  0  0  0  0  0  0  0  0  0  0
   36.5530   24.3400   40.1810 C   0  0  0  0  0  0  0  0  0  0  0  0
   37.5610   24.9430   40.9560 C   0  0  0  0  0  0  0  0  0  0  0  0
   38.7440   24.2950   40.9570 N   0  0  0  0  0  0  0  0  0  0  0  0
   38.9450   23.1580   40.2700 C   0  0  0  0  0  0  0  0  0  0  0  0
   37.9820   22.5980   39.5400 N   0  0  0  0  0  0  0  0  0  0  0  0
   35.9380   22.7710   38.9020 H   0  0  0  0  0  0  0  0  0  0  0  0
   35.5780   24.8110   40.1370 H   0  0  0  0  0  0  0  0  0  0  0  0
   39.9080   22.6660   40.2950 H   0  0  0  0  0  0  0  0  0  0  0  0
   38.0520   29.8100   41.1560 C   0  0  0  0  0  0  0  0  0  0  0  0
   37.4120   30.3810   40.0370 C   0  0  0  0  0  0  0  0  0  0  0  0
   38.3820   31.8880   39.7270 S   0  0  0  0  0  0  0  0  0  0  0  0
   39.5240   31.4920   41.1960 C   0  0  0  0  0  0  0  0  0  0  0  0
   39.0630   30.5430   41.5410 N   0  0  0  0  0  0  0  0  0  0  0  0
   40.6530   32.2850   41.6150 N   0  0  0  0  0  0  0  0  0  0  0  0
   41.4910   32.2860   40.9680 H   0  0  0  0  0  0  0  0  0  0  0  0
   40.4830   32.7600   42.5210 H   0  0  0  0  0  0  0  0  0  0  0  0
   37.7000   29.9400   37.0270 Cl  0  0  0  0  0  0  0  0  0  0  0  0
   36.2270   29.6450   37.9230 C   0  0  0  0  0  0  0  0  0  0  0  0
   36.2280   29.8830   39.2810 C   0  0  0  0  0  0  0  0  0  0  0  0
   35.0760   29.6600   40.0280 C   0  0  0  0  0  0  0  0  0  0  0  0
   35.0290   29.8340   41.1000 H   0  0  0  0  0  0  0  0  0  0  0  0
   33.9220   29.1950   39.4000 C   0  0  0  0  0  0  0  0  0  0  0  0
   32.9810   28.9920   39.8970 H   0  0  0  0  0  0  0  0  0  0  0  0
   33.9340   28.9600   38.0420 C   0  0  0  0  0  0  0  0  0  0  0  0
   33.0640   28.6020   37.5270 H   0  0  0  0  0  0  0  0  0  0  0  0
   35.0830   29.1840   37.3050 C   0  0  0  0  0  0  0  0  0  0  0  0
   35.0960   28.8860   35.5780 Cl  0  0  0  0  0  0  0  0  0  0  0  0
  1  2  1  0  0  0  0
  2  3  2  0  0  0  0
  2  7  1  0  0  0  0
  3  4  1  0  0  0  0
  4  8  1  0  0  0  0
  4  5  2  0  0  0  0
  5  9  1  0  0  0  0
  6 10  1  0  0  0  0
  6  5  1  0  0  0  0
  7  6  2  0  0  0  0
 11 16  2  0  0  0  0
 11 12  1  0  0  0  0
 12 13  2  0  0  0  0
 13 14  1  0  0  0  0
 13  3  1  0  0  0  0
 15 19  1  0  0  0  0
 15 14  2  0  0  0  0
 16 15  1  0  0  0  0
 17 11  1  0  0  0  0
 18 12  1  0  0  0  0
 20 24  1  0  0  0  0
 20  7  1  0  0  0  0
 21 20  2  0  0  0  0
 22 21  1  0  0  0  0
 22 23  1  0  0  0  0
 23 24  2  0  0  0  0
 23 25  1  0  0  0  0
 25 27  1  0  0  0  0
 26 25  1  0  0  0  0
 28 29  1  0  0  0  0
 29 30  1  0  0  0  0
 30 31  2  0  0  0  0
 30 21  1  0  0  0  0
 31 32  1  0  0  0  0
 33 34  1  0  0  0  0
 33 31  1  0  0  0  0
 35 33  2  0  0  0  0
 36 35  1  0  0  0  0
 37 29  2  0  0  0  0
 37 35  1  0  0  0  0
 38 37  1  0  0  0  0
M  END
>  <minimizedAffinity>
-6.23980379

$$$$

 OpenBabel03242516073D

 38 41  0  0  0  0  0  0  0  0999 V2000
   39.7720   28.9600   39.2520 Cl  0  0  0  0  0  0  0  0  0  0  0  0
   39.1910   28.5550   40.8440 C   0  0  0  0  0  0  0  0  0  0  0  0
   39.3190   27.3070   41.3740 C   0  0  0  0  0  0  0  0  0  0  0  0
   38.8230   27.1150   42.6320 C   0  0  0  0  0  0  0  0  0  0  0  0
   38.2310   28.0850   43.3450 C   0  0  0  0  0  0  0  0  0  0  0  0
   38.0890   29.3550   42.8320 C   0  0  0  0  0  0  0  0  0  0  0  0
   38.5900   29.5660   41.5490 C   0  0  0  0  0  0  0  0  0  0  0  0
   38.9190   26.1160   43.0730 H   0  0  0  0  0  0  0  0  0  0  0  0
   37.8580   27.8690   44.3380 H   0  0  0  0  0  0  0  0  0  0  0  0
   37.6140   30.1490   43.3920 H   0  0  0  0  0  0  0  0  0  0  0  0
   39.8960   24.4350   38.9590 C   0  0  0  0  0  0  0  0  0  0  0  0
   39.2510   25.4110   39.7320 C   0  0  0  0  0  0  0  0  0  0  0  0
   39.9660   26.2890   40.5660 C   0  0  0  0  0  0  0  0  0  0  0  0
   41.3040   26.1160   40.5620 N   0  0  0  0  0  0  0  0  0  0  0  0
   41.9090   25.1760   39.8160 C   0  0  0  0  0  0  0  0  0  0  0  0
   41.2190   24.3510   39.0300 N   0  0  0  0  0  0  0  0  0  0  0  0
   39.2540   23.8090   38.3490 H   0  0  0  0  0  0  0  0  0  0  0  0
   38.1710   25.4980   39.6880 H   0  0  0  0  0  0  0  0  0  0  0  0
   42.9840   25.0670   39.8390 H   0  0  0  0  0  0  0  0  0  0  0  0
   38.4560   30.9290   40.9650 C   0  0  0  0  0  0  0  0  0  0  0  0
   37.4540   31.2610   40.0310 C   0  0  0  0  0  0  0  0  0  0  0  0
   37.7730   33.0160   39.6820 S   0  0  0  0  0  0  0  0  0  0  0  0
   39.2470   33.0180   40.8840 C   0  0  0  0  0  0  0  0  0  0  0  0
   39.2130   31.9620   41.2240 N   0  0  0  0  0  0  0  0  0  0  0  0
   40.1000   34.1480   41.1610 N   0  0  0  0  0  0  0  0  0  0  0  0
   40.7430   34.4530   40.3780 H   0  0  0  0  0  0  0  0  0  0  0  0
   39.9610   34.5170   42.1210 H   0  0  0  0  0  0  0  0  0  0  0  0
   37.5150   30.6800   37.0310 Cl  0  0  0  0  0  0  0  0  0  0  0  0
   36.2990   30.0580   38.1240 C   0  0  0  0  0  0  0  0  0  0  0  0
   36.3840   30.3940   39.4580 C   0  0  0  0  0  0  0  0  0  0  0  0
   35.4360   29.9180   40.3590 C   0  0  0  0  0  0  0  0  0  0  0  0
   35.4630   30.1560   41.4190 H   0  0  0  0  0  0  0  0  0  0  0  0
   34.4010   29.1010   39.9080 C   0  0  0  0  0  0  0  0  0  0  0  0
   33.6200   28.6840   40.5310 H   0  0  0  0  0  0  0  0  0  0  0  0
   34.3270   28.7720   38.5710 C   0  0  0  0  0  0  0  0  0  0  0  0
   33.5440   28.1470   38.1910 H   0  0  0  0  0  0  0  0  0  0  0  0
   35.2720   29.2490   37.6810 C   0  0  0  0  0  0  0  0  0  0  0  0
   35.1750   28.8300   35.9830 Cl  0  0  0  0  0  0  0  0  0  0  0  0
  1  2  1  0  0  0  0
  2  3  2  0  0  0  0
  2  7  1  0  0  0  0
  3  4  1  0  0  0  0
  4  8  1  0  0  0  0
  4  5  2  0  0  0  0
  5  9  1  0  0  0  0
  6  5  1  0  0  0  0
  6 10  1  0  0  0  0
  7  6  2  0  0  0  0
 11 16  2  0  0  0  0
 11 12  1  0  0  0  0
 12 13  2  0  0  0  0
 13  3  1  0  0  0  0
 14 13  1  0  0  0  0
 15 19  1  0  0  0  0
 15 14  2  0  0  0  0
 16 15  1  0  0  0  0
 17 11  1  0  0  0  0
 18 12  1  0  0  0  0
 20 24  1  0  0  0  0
 20  7  1  0  0  0  0
 21 20  2  0  0  0  0
 22 21  1  0  0  0  0
 22 23  1  0  0  0  0
 23 25  1  0  0  0  0
 23 24  2  0  0  0  0
 25 27  1  0  0  0  0
 26 25  1  0  0  0  0
 28 29  1  0  0  0  0
 29 30  1  0  0  0  0
 30 21  1  0  0  0  0
 30 31  2  0  0  0  0
 31 32  1  0  0  0  0
 33 31  1  0  0  0  0
 33 34  1  0  0  0  0
 35 33  2  0  0  0  0
 36 35  1  0  0  0  0
 37 29  2  0  0  0  0
 37 35  1  0  0  0  0
 38 37  1  0  0  0  0
M  END
>  <minimizedAffinity>
-6.23125315

$$$$

 OpenBabel03242516073D

 38 41  0  0  0  0  0  0  0  0999 V2000
   40.8240   30.5420   38.3590 Cl  0  0  0  0  0  0  0  0  0  0  0  0
   39.5000   31.4780   38.9980 C   0  0  0  0  0  0  0  0  0  0  0  0
   39.6880   32.6540   39.6580 C   0  0  0  0  0  0  0  0  0  0  0  0
   38.5690   33.2940   40.1120 C   0  0  0  0  0  0  0  0  0  0  0  0
   37.3270   32.8190   39.9350 C   0  0  0  0  0  0  0  0  0  0  0  0
   37.1110   31.6320   39.2710 C   0  0  0  0  0  0  0  0  0  0  0  0
   38.2420   30.9680   38.8020 C   0  0  0  0  0  0  0  0  0  0  0  0
   38.7040   34.2420   40.6450 H   0  0  0  0  0  0  0  0  0  0  0  0
   36.4810   33.3740   40.3180 H   0  0  0  0  0  0  0  0  0  0  0  0
   36.1160   31.2340   39.1180 H   0  0  0  0  0  0  0  0  0  0  0  0
   43.1020   34.1590   38.9630 C   0  0  0  0  0  0  0  0  0  0  0  0
   41.7890   33.7070   38.7790 C   0  0  0  0  0  0  0  0  0  0  0  0
   41.0490   33.1290   39.8270 C   0  0  0  0  0  0  0  0  0  0  0  0
   41.7000   33.0470   41.0060 N   0  0  0  0  0  0  0  0  0  0  0  0
   42.9600   33.4850   41.1680 C   0  0  0  0  0  0  0  0  0  0  0  0
   43.6480   34.0310   40.1660 N   0  0  0  0  0  0  0  0  0  0  0  0
   43.5840   34.5900   38.0930 H   0  0  0  0  0  0  0  0  0  0  0  0
   41.3230   33.8030   37.8050 H   0  0  0  0  0  0  0  0  0  0  0  0
   43.4490   33.4020   42.1280 H   0  0  0  0  0  0  0  0  0  0  0  0
   38.0450   29.6830   38.0760 C   0  0  0  0  0  0  0  0  0  0  0  0
   38.1280   28.4290   38.7140 C   0  0  0  0  0  0  0  0  0  0  0  0
   37.8050   27.2530   37.3650 S   0  0  0  0  0  0  0  0  0  0  0  0
   37.6050   28.6820   36.1260 C   0  0  0  0  0  0  0  0  0  0  0  0
   37.7770   29.5430   36.8040 N   0  0  0  0  0  0  0  0  0  0  0  0
   37.3290   28.5360   34.7180 N   0  0  0  0  0  0  0  0  0  0  0  0
   38.1110   28.1380   34.1260 H   0  0  0  0  0  0  0  0  0  0  0  0
   36.3720   28.8530   34.4720 H   0  0  0  0  0  0  0  0  0  0  0  0
   35.7940   28.4430   40.6860 Cl  0  0  0  0  0  0  0  0  0  0  0  0
   37.4500   28.1000   41.1320 C   0  0  0  0  0  0  0  0  0  0  0  0
   38.4120   28.1240   40.1460 C   0  0  0  0  0  0  0  0  0  0  0  0
   39.7410   27.8550   40.4610 C   0  0  0  0  0  0  0  0  0  0  0  0
   40.5330   27.8630   39.7160 H   0  0  0  0  0  0  0  0  0  0  0  0
   40.0940   27.5610   41.7760 C   0  0  0  0  0  0  0  0  0  0  0  0
   41.0980   27.3380   42.1160 H   0  0  0  0  0  0  0  0  0  0  0  0
   39.1220   27.5390   42.7540 C   0  0  0  0  0  0  0  0  0  0  0  0
   39.3600   27.3160   43.7750 H   0  0  0  0  0  0  0  0  0  0  0  0
   37.8040   27.8070   42.4330 C   0  0  0  0  0  0  0  0  0  0  0  0
   36.5710   27.7800   43.6780 Cl  0  0  0  0  0  0  0  0  0  0  0  0
  1  2  1  0  0  0  0
  2  3  1  0  0  0  0
  3 13  1  0  0  0  0
  3  4  2  0  0  0  0
  4  8  1  0  0  0  0
  5  4  1  0  0  0  0
  5  9  1  0  0  0  0
  6  5  2  0  0  0  0
  7  2  2  0  0  0  0
  7  6  1  0  0  0  0
 10  6  1  0  0  0  0
 11 16  1  0  0  0  0
 12 11  2  0  0  0  0
 12 13  1  0  0  0  0
 13 14  2  0  0  0  0
 14 15  1  0  0  0  0
 15 19  1  0  0  0  0
 16 15  2  0  0  0  0
 17 11  1  0  0  0  0
 18 12  1  0  0  0  0
 20 21  2  0  0  0  0
 20  7  1  0  0  0  0
 21 30  1  0  0  0  0
 22 21  1  0  0  0  0
 23 24  2  0  0  0  0
 23 22  1  0  0  0  0
 24 20  1  0  0  0  0
 25 23  1  0  0  0  0
 26 25  1  0  0  0  0
 27 25  1  0  0  0  0
 28 29  1  0  0  0  0
 29 37  1  0  0  0  0
 30 31  1  0  0  0  0
 30 29  2  0  0  0  0
 31 33  2  0  0  0  0
 32 31  1  0  0  0  0
 33 34  1  0  0  0  0
 33 35  1  0  0  0  0
 35 36  1  0  0  0  0
 37 35  2  0  0  0  0
 37 38  1  0  0  0  0
M  END
>  <minimizedAffinity>
-6.15441179

$$$$

 OpenBabel03242516073D

 38 41  0  0  0  0  0  0  0  0999 V2000
   39.8730   26.7410   40.3840 Cl  0  0  0  0  0  0  0  0  0  0  0  0
   38.7690   27.2600   41.6290 C   0  0  0  0  0  0  0  0  0  0  0  0
   37.6370   26.5670   41.9370 C   0  0  0  0  0  0  0  0  0  0  0  0
   36.8530   27.0760   42.9330 C   0  0  0  0  0  0  0  0  0  0  0  0
   37.1490   28.2020   43.6000 C   0  0  0  0  0  0  0  0  0  0  0  0
   38.2870   28.9200   43.3070 C   0  0  0  0  0  0  0  0  0  0  0  0
   39.0980   28.4130   42.2930 C   0  0  0  0  0  0  0  0  0  0  0  0
   35.9390   26.5300   43.1940 H   0  0  0  0  0  0  0  0  0  0  0  0
   36.4870   28.5530   44.3810 H   0  0  0  0  0  0  0  0  0  0  0  0
   38.5420   29.8290   43.8350 H   0  0  0  0  0  0  0  0  0  0  0  0
   37.6050   22.9440   40.8070 C   0  0  0  0  0  0  0  0  0  0  0  0
   37.8890   24.1020   41.5430 C   0  0  0  0  0  0  0  0  0  0  0  0
   37.3570   25.3560   41.1890 C   0  0  0  0  0  0  0  0  0  0  0  0
   36.5640   25.3500   40.0980 N   0  0  0  0  0  0  0  0  0  0  0  0
   36.3010   24.2310   39.4010 C   0  0  0  0  0  0  0  0  0  0  0  0
   36.8110   23.0510   39.7490 N   0  0  0  0  0  0  0  0  0  0  0  0
   38.0640   22.0280   41.1630 H   0  0  0  0  0  0  0  0  0  0  0  0
   38.5340   24.0370   42.4120 H   0  0  0  0  0  0  0  0  0  0  0  0
   35.6600   24.2660   38.5310 H   0  0  0  0  0  0  0  0  0  0  0  0
   40.3380   29.1630   41.9530 C   0  0  0  0  0  0  0  0  0  0  0  0
   40.3470   30.2500   41.0550 C   0  0  0  0  0  0  0  0  0  0  0  0
   42.0930   30.7560   41.0320 S   0  0  0  0  0  0  0  0  0  0  0  0
   42.5400   29.3830   42.2700 C   0  0  0  0  0  0  0  0  0  0  0  0
   41.5370   28.9300   42.4170 N   0  0  0  0  0  0  0  0  0  0  0  0
   43.8630   29.1070   42.7720 N   0  0  0  0  0  0  0  0  0  0  0  0
   44.5530   28.7010   42.0790 H   0  0  0  0  0  0  0  0  0  0  0  0
   43.9600   29.3510   43.7760 H   0  0  0  0  0  0  0  0  0  0  0  0
   39.7950   29.2360   38.2260 Cl  0  0  0  0  0  0  0  0  0  0  0  0
   38.8590   30.4820   39.0190 C   0  0  0  0  0  0  0  0  0  0  0  0
   39.2100   30.8500   40.3000 C   0  0  0  0  0  0  0  0  0  0  0  0
   38.4890   31.8370   40.9650 C   0  0  0  0  0  0  0  0  0  0  0  0
   38.7290   32.1590   41.9750 H   0  0  0  0  0  0  0  0  0  0  0  0
   37.4100   32.4510   40.3320 C   0  0  0  0  0  0  0  0  0  0  0  0
   36.7910   33.2260   40.7670 H   0  0  0  0  0  0  0  0  0  0  0  0
   37.0680   32.0740   39.0510 C   0  0  0  0  0  0  0  0  0  0  0  0
   36.2440   32.5260   38.5350 H   0  0  0  0  0  0  0  0  0  0  0  0
   37.7890   31.0920   38.3960 C   0  0  0  0  0  0  0  0  0  0  0  0
   37.3530   30.6150   36.7670 Cl  0  0  0  0  0  0  0  0  0  0  0  0
  1  2  1  0  0  0  0
  2  3  2  0  0  0  0
  2  7  1  0  0  0  0
  3  4  1  0  0  0  0
  4  8  1  0  0  0  0
  4  5  2  0  0  0  0
  5  9  1  0  0  0  0
  6  5  1  0  0  0  0
  6 10  1  0  0  0  0
  7  6  2  0  0  0  0
 11 17  1  0  0  0  0
 11 12  1  0  0  0  0
 12 18  1  0  0  0  0
 13 12  2  0  0  0  0
 13  3  1  0  0  0  0
 14 13  1  0  0  0  0
 15 16  1  0  0  0  0
 15 14  2  0  0  0  0
 16 11  2  0  0  0  0
 19 15  1  0  0  0  0
 20  7  1  0  0  0  0
 20 24  1  0  0  0  0
 21 20  2  0  0  0  0
 22 21  1  0  0  0  0
 22 23  1  0  0  0  0
 23 24  2  0  0  0  0
 23 25  1  0  0  0  0
 25 27  1  0  0  0  0
 26 25  1  0  0  0  0
 28 29  1  0  0  0  0
 29 30  1  0  0  0  0
 30 31  2  0  0  0  0
 30 21  1  0  0  0  0
 31 32  1  0  0  0  0
 33 34  1  0  0  0  0
 33 31  1  0  0  0  0
 35 33  2  0  0  0  0
 36 35  1  0  0  0  0
 37 29  2  0  0  0  0
 37 35  1  0  0  0  0
 38 37  1  0  0  0  0
M  END
>  <minimizedAffinity>
-6.04593945

$$$$

 OpenBabel03242516073D

 38 41  0  0  0  0  0  0  0  0999 V2000
   38.9320   28.5260   38.3120 Cl  0  0  0  0  0  0  0  0  0  0  0  0
   38.3940   30.0340   38.9990 C   0  0  0  0  0  0  0  0  0  0  0  0
   37.2910   30.6930   38.5440 C   0  0  0  0  0  0  0  0  0  0  0  0
   36.9720   31.8670   39.1660 C   0  0  0  0  0  0  0  0  0  0  0  0
   37.6850   32.3800   40.1800 C   0  0  0  0  0  0  0  0  0  0  0  0
   38.8030   31.7330   40.6570 C   0  0  0  0  0  0  0  0  0  0  0  0
   39.1410   30.5340   40.0340 C   0  0  0  0  0  0  0  0  0  0  0  0
   36.0870   32.4080   38.8120 H   0  0  0  0  0  0  0  0  0  0  0  0
   37.3800   33.3150   40.6310 H   0  0  0  0  0  0  0  0  0  0  0  0
   39.3900   32.1320   41.4740 H   0  0  0  0  0  0  0  0  0  0  0  0
   34.6910   28.7650   36.5620 C   0  0  0  0  0  0  0  0  0  0  0  0
   35.3910   29.3280   37.6380 C   0  0  0  0  0  0  0  0  0  0  0  0
   36.5510   30.1000   37.4450 C   0  0  0  0  0  0  0  0  0  0  0  0
   36.9280   30.2510   36.1590 N   0  0  0  0  0  0  0  0  0  0  0  0
   36.2470   29.7050   35.1370 C   0  0  0  0  0  0  0  0  0  0  0  0
   35.1500   28.9760   35.3350 N   0  0  0  0  0  0  0  0  0  0  0  0
   33.8090   28.1880   36.8170 H   0  0  0  0  0  0  0  0  0  0  0  0
   35.0340   29.1690   38.6490 H   0  0  0  0  0  0  0  0  0  0  0  0
   36.5800   29.8480   34.1190 H   0  0  0  0  0  0  0  0  0  0  0  0
   40.3440   29.8070   40.5270 C   0  0  0  0  0  0  0  0  0  0  0  0
   40.2640   28.7430   41.4470 C   0  0  0  0  0  0  0  0  0  0  0  0
   42.0020   28.2570   41.6740 S   0  0  0  0  0  0  0  0  0  0  0  0
   42.5690   29.6060   40.4580 C   0  0  0  0  0  0  0  0  0  0  0  0
   41.5850   30.0430   40.1910 N   0  0  0  0  0  0  0  0  0  0  0  0
   43.9370   29.8850   40.0970 N   0  0  0  0  0  0  0  0  0  0  0  0
   44.5420   30.3160   40.8520 H   0  0  0  0  0  0  0  0  0  0  0  0
   44.1450   29.6180   39.1170 H   0  0  0  0  0  0  0  0  0  0  0  0
   39.4250   25.9250   40.6140 Cl  0  0  0  0  0  0  0  0  0  0  0  0
   38.5750   26.8890   41.7990 C   0  0  0  0  0  0  0  0  0  0  0  0
   39.0560   28.1470   42.0880 C   0  0  0  0  0  0  0  0  0  0  0  0
   38.4080   28.9440   43.0270 C   0  0  0  0  0  0  0  0  0  0  0  0
   38.7520   29.9420   43.2860 H   0  0  0  0  0  0  0  0  0  0  0  0
   37.2700   28.4660   43.6730 C   0  0  0  0  0  0  0  0  0  0  0  0
   36.7000   29.0110   44.4160 H   0  0  0  0  0  0  0  0  0  0  0  0
   36.7980   27.2050   43.3760 C   0  0  0  0  0  0  0  0  0  0  0  0
   35.9250   26.8060   43.8550 H   0  0  0  0  0  0  0  0  0  0  0  0
   37.4470   26.4180   42.4420 C   0  0  0  0  0  0  0  0  0  0  0  0
   36.8450   24.8170   42.0650 Cl  0  0  0  0  0  0  0  0  0  0  0  0
  1  2  1  0  0  0  0
  2  7  1  0  0  0  0
  3  2  2  0  0  0  0
  3  4  1  0  0  0  0
  4  5  2  0  0  0  0
  5  9  1  0  0  0  0
  5  6  1  0  0  0  0
  6 10  1  0  0  0  0
  7 20  1  0  0  0  0
  7  6  2  0  0  0  0
  8  4  1  0  0  0  0
 11 17  1  0  0  0  0
 11 12  1  0  0  0  0
 12 18  1  0  0  0  0
 13 12  2  0  0  0  0
 13  3  1  0  0  0  0
 14 13  1  0  0  0  0
 15 16  1  0  0  0  0
 15 14  2  0  0  0  0
 16 11  2  0  0  0  0
 19 15  1  0  0  0  0
 20 21  2  0  0  0  0
 21 22  1  0  0  0  0
 21 30  1  0  0  0  0
 23 22  1  0  0  0  0
 24 23  2  0  0  0  0
 24 20  1  0  0  0  0
 25 23  1  0  0  0  0
 25 26  1  0  0  0  0
 27 25  1  0  0  0  0
 28 29  1  0  0  0  0
 29 30  2  0  0  0  0
 29 37  1  0  0  0  0
 30 31  1  0  0  0  0
 31 32  1  0  0  0  0
 31 33  2  0  0  0  0
 33 34  1  0  0  0  0
 35 33  1  0  0  0  0
 35 36  1  0  0  0  0
 37 35  2  0  0  0  0
 38 37  1  0  0  0  0
M  END
>  <minimizedAffinity>
-6.0241127

$$$$

 OpenBabel03242516073D

 38 41  0  0  0  0  0  0  0  0999 V2000
   38.3690   29.0090   38.0030 Cl  0  0  0  0  0  0  0  0  0  0  0  0
   36.7780   29.0180   38.7130 C   0  0  0  0  0  0  0  0  0  0  0  0
   35.6430   28.9140   37.9670 C   0  0  0  0  0  0  0  0  0  0  0  0
   34.4550   28.9330   38.6410 C   0  0  0  0  0  0  0  0  0  0  0  0
   34.3670   29.0480   39.9740 C   0  0  0  0  0  0  0  0  0  0  0  0
   35.4990   29.1560   40.7510 C   0  0  0  0  0  0  0  0  0  0  0  0
   36.7190   29.1370   40.0780 C   0  0  0  0  0  0  0  0  0  0  0  0
   33.5330   28.8490   38.0540 H   0  0  0  0  0  0  0  0  0  0  0  0
   33.3950   29.0570   40.4490 H   0  0  0  0  0  0  0  0  0  0  0  0
   35.4480   29.2490   41.8280 H   0  0  0  0  0  0  0  0  0  0  0  0
   35.6680   27.4980   34.4450 C   0  0  0  0  0  0  0  0  0  0  0  0
   35.5240   27.5950   35.8350 C   0  0  0  0  0  0  0  0  0  0  0  0
   35.7860   28.7910   36.5270 C   0  0  0  0  0  0  0  0  0  0  0  0
   36.1820   29.8230   35.7530 N   0  0  0  0  0  0  0  0  0  0  0  0
   36.3160   29.7150   34.4200 C   0  0  0  0  0  0  0  0  0  0  0  0
   36.0640   28.5760   33.7780 N   0  0  0  0  0  0  0  0  0  0  0  0
   35.4410   26.5320   34.0080 H   0  0  0  0  0  0  0  0  0  0  0  0
   35.2010   26.7270   36.3990 H   0  0  0  0  0  0  0  0  0  0  0  0
   36.6360   30.5640   33.8320 H   0  0  0  0  0  0  0  0  0  0  0  0
   37.9640   29.2480   40.8880 C   0  0  0  0  0  0  0  0  0  0  0  0
   38.6080   28.1280   41.4500 C   0  0  0  0  0  0  0  0  0  0  0  0
   40.0380   28.8560   42.3060 S   0  0  0  0  0  0  0  0  0  0  0  0
   39.5200   30.6000   41.7520 C   0  0  0  0  0  0  0  0  0  0  0  0
   38.6040   30.3500   41.1770 N   0  0  0  0  0  0  0  0  0  0  0  0
   40.2100   31.8220   42.0830 N   0  0  0  0  0  0  0  0  0  0  0  0
   40.1570   32.1320   43.0940 H   0  0  0  0  0  0  0  0  0  0  0  0
   40.6780   32.2440   41.2580 H   0  0  0  0  0  0  0  0  0  0  0  0
   40.0350   26.3590   39.4080 Cl  0  0  0  0  0  0  0  0  0  0  0  0
   38.7890   25.7900   40.4940 C   0  0  0  0  0  0  0  0  0  0  0  0
   38.2230   26.6900   41.3710 C   0  0  0  0  0  0  0  0  0  0  0  0
   37.2290   26.2740   42.2530 C   0  0  0  0  0  0  0  0  0  0  0  0
   36.7550   26.9490   42.9610 H   0  0  0  0  0  0  0  0  0  0  0  0
   36.8090   24.9460   42.2460 C   0  0  0  0  0  0  0  0  0  0  0  0
   36.0450   24.5310   42.8920 H   0  0  0  0  0  0  0  0  0  0  0  0
   37.3830   24.0550   41.3640 C   0  0  0  0  0  0  0  0  0  0  0  0
   37.0830   23.0260   41.3320 H   0  0  0  0  0  0  0  0  0  0  0  0
   38.3700   24.4740   40.4910 C   0  0  0  0  0  0  0  0  0  0  0  0
   39.0980   23.3400   39.3710 Cl  0  0  0  0  0  0  0  0  0  0  0  0
  1  2  1  0  0  0  0
  2  7  1  0  0  0  0
  3  4  1  0  0  0  0
  3  2  2  0  0  0  0
  4  5  2  0  0  0  0
  5  9  1  0  0  0  0
  5  6  1  0  0  0  0
  6 10  1  0  0  0  0
  7  6  2  0  0  0  0
  7 20  1  0  0  0  0
  8  4  1  0  0  0  0
 11 12  1  0  0  0  0
 12 18  1  0  0  0  0
 12 13  2  0  0  0  0
 13  3  1  0  0  0  0
 14 13  1  0  0  0  0
 15 14  2  0  0  0  0
 16 15  1  0  0  0  0
 16 11  2  0  0  0  0
 17 11  1  0  0  0  0
 19 15  1  0  0  0  0
 20 24  1  0  0  0  0
 20 21  2  0  0  0  0
 21 22  1  0  0  0  0
 23 25  1  0  0  0  0
 23 22  1  0  0  0  0
 24 23  2  0  0  0  0
 25 26  1  0  0  0  0
 27 25  1  0  0  0  0
 28 29  1  0  0  0  0
 29 30  1  0  0  0  0
 30 21  1  0  0  0  0
 30 31  2  0  0  0  0
 31 32  1  0  0  0  0
 33 31  1  0  0  0  0
 33 34  1  0  0  0  0
 35 33  2  0  0  0  0
 36 35  1  0  0  0  0
 37 29  2  0  0  0  0
 37 35  1  0  0  0  0
 38 37  1  0  0  0  0
M  END
>  <minimizedAffinity>
-5.94157887

$$$$

 OpenBabel03242516073D

 38 41  0  0  0  0  0  0  0  0999 V2000
   39.7620   26.8450   40.0950 Cl  0  0  0  0  0  0  0  0  0  0  0  0
   38.7070   27.2160   41.4320 C   0  0  0  0  0  0  0  0  0  0  0  0
   39.1470   27.2610   42.7200 C   0  0  0  0  0  0  0  0  0  0  0  0
   38.2220   27.5630   43.6800 C   0  0  0  0  0  0  0  0  0  0  0  0
   36.9330   27.8110   43.4060 C   0  0  0  0  0  0  0  0  0  0  0  0
   36.4630   27.7720   42.1120 C   0  0  0  0  0  0  0  0  0  0  0  0
   37.3950   27.4650   41.1220 C   0  0  0  0  0  0  0  0  0  0  0  0
   38.5610   27.6040   44.7210 H   0  0  0  0  0  0  0  0  0  0  0  0
   36.2490   28.0450   44.2120 H   0  0  0  0  0  0  0  0  0  0  0  0
   35.4270   27.9690   41.8730 H   0  0  0  0  0  0  0  0  0  0  0  0
   42.8590   27.7150   43.3740 C   0  0  0  0  0  0  0  0  0  0  0  0
   41.5080   28.0030   43.1340 C   0  0  0  0  0  0  0  0  0  0  0  0
   40.5500   26.9860   42.9690 C   0  0  0  0  0  0  0  0  0  0  0  0
   41.0330   25.7290   43.0580 N   0  0  0  0  0  0  0  0  0  0  0  0
   42.3310   25.4680   43.2870 C   0  0  0  0  0  0  0  0  0  0  0  0
   43.2270   26.4420   43.4430 N   0  0  0  0  0  0  0  0  0  0  0  0
   43.5150   28.5700   43.4870 H   0  0  0  0  0  0  0  0  0  0  0  0
   41.1850   29.0360   43.0750 H   0  0  0  0  0  0  0  0  0  0  0  0
   42.6810   24.4470   43.3520 H   0  0  0  0  0  0  0  0  0  0  0  0
   36.9210   27.4170   39.7110 C   0  0  0  0  0  0  0  0  0  0  0  0
   36.9490   28.5410   38.8610 C   0  0  0  0  0  0  0  0  0  0  0  0
   36.2680   27.9010   37.3020 S   0  0  0  0  0  0  0  0  0  0  0  0
   36.0500   26.1740   38.0700 C   0  0  0  0  0  0  0  0  0  0  0  0
   36.4370   26.3740   39.0910 N   0  0  0  0  0  0  0  0  0  0  0  0
   35.4980   25.0240   37.3990 N   0  0  0  0  0  0  0  0  0  0  0  0
   34.4610   25.0560   37.1880 H   0  0  0  0  0  0  0  0  0  0  0  0
   36.2160   24.2990   37.2110 H   0  0  0  0  0  0  0  0  0  0  0  0
   39.6320   29.4330   37.7010 Cl  0  0  0  0  0  0  0  0  0  0  0  0
   38.6090   30.4470   38.6930 C   0  0  0  0  0  0  0  0  0  0  0  0
   37.4200   29.9250   39.1540 C   0  0  0  0  0  0  0  0  0  0  0  0
   36.5780   30.7010   39.9450 C   0  0  0  0  0  0  0  0  0  0  0  0
   35.6310   30.3320   40.3320 H   0  0  0  0  0  0  0  0  0  0  0  0
   36.9410   32.0080   40.2690 C   0  0  0  0  0  0  0  0  0  0  0  0
   36.3530   32.6850   40.8750 H   0  0  0  0  0  0  0  0  0  0  0  0
   38.1330   32.5180   39.8000 C   0  0  0  0  0  0  0  0  0  0  0  0
   38.4430   33.5180   40.0300 H   0  0  0  0  0  0  0  0  0  0  0  0
   38.9650   31.7410   39.0150 C   0  0  0  0  0  0  0  0  0  0  0  0
   40.4800   32.3920   38.4220 Cl  0  0  0  0  0  0  0  0  0  0  0  0
  1  2  1  0  0  0  0
  2  3  1  0  0  0  0
  3 13  1  0  0  0  0
  3  4  2  0  0  0  0
  4  8  1  0  0  0  0
  5  4  1  0  0  0  0
  5  9  1  0  0  0  0
  6  5  2  0  0  0  0
  7  2  2  0  0  0  0
  7  6  1  0  0  0  0
 10  6  1  0  0  0  0
 11 16  1  0  0  0  0
 11 17  1  0  0  0  0
 12 11  2  0  0  0  0
 13 14  2  0  0  0  0
 13 12  1  0  0  0  0
 14 15  1  0  0  0  0
 15 19  1  0  0  0  0
 15 16  2  0  0  0  0
 18 12  1  0  0  0  0
 20  7  1  0  0  0  0
 21 30  1  0  0  0  0
 21 20  2  0  0  0  0
 22 23  1  0  0  0  0
 22 21  1  0  0  0  0
 23 24  2  0  0  0  0
 24 20  1  0  0  0  0
 25 23  1  0  0  0  0
 26 25  1  0  0  0  0
 27 25  1  0  0  0  0
 28 29  1  0  0  0  0
 29 37  2  0  0  0  0
 29 30  1  0  0  0  0
 30 31  2  0  0  0  0
 31 33  1  0  0  0  0
 31 32  1  0  0  0  0
 33 34  1  0  0  0  0
 35 36  1  0  0  0  0
 35 33  2  0  0  0  0
 37 35  1  0  0  0  0
 38 37  1  0  0  0  0
M  END
>  <minimizedAffinity>
-5.88553953

$$$$

 OpenBabel03242516073D

 38 41  0  0  0  0  0  0  0  0999 V2000
   38.2110   29.7400   37.4540 Cl  0  0  0  0  0  0  0  0  0  0  0  0
   36.8000   29.5650   38.4610 C   0  0  0  0  0  0  0  0  0  0  0  0
   35.6990   28.8700   38.0620 C   0  0  0  0  0  0  0  0  0  0  0  0
   34.6560   28.8050   38.9430 C   0  0  0  0  0  0  0  0  0  0  0  0
   34.6770   29.3840   40.1520 C   0  0  0  0  0  0  0  0  0  0  0  0
   35.7790   30.0920   40.5790 C   0  0  0  0  0  0  0  0  0  0  0  0
   36.8500   30.1670   39.6920 C   0  0  0  0  0  0  0  0  0  0  0  0
   33.7620   28.2480   38.6370 H   0  0  0  0  0  0  0  0  0  0  0  0
   33.8180   29.2950   40.8050 H   0  0  0  0  0  0  0  0  0  0  0  0
   35.8130   30.5660   41.5510 H   0  0  0  0  0  0  0  0  0  0  0  0
   35.4030   28.3530   34.3140 C   0  0  0  0  0  0  0  0  0  0  0  0
   35.3750   28.9620   35.5760 C   0  0  0  0  0  0  0  0  0  0  0  0
   35.7200   28.2600   36.7460 C   0  0  0  0  0  0  0  0  0  0  0  0
   36.0740   26.9720   36.5540 N   0  0  0  0  0  0  0  0  0  0  0  0
   36.0950   26.4020   35.3370 C   0  0  0  0  0  0  0  0  0  0  0  0
   35.7670   27.0790   34.2380 N   0  0  0  0  0  0  0  0  0  0  0  0
   35.1200   28.9810   33.4760 H   0  0  0  0  0  0  0  0  0  0  0  0
   35.0820   30.0020   35.6610 H   0  0  0  0  0  0  0  0  0  0  0  0
   36.3850   25.3670   35.2230 H   0  0  0  0  0  0  0  0  0  0  0  0
   38.0590   30.9230   40.1220 C   0  0  0  0  0  0  0  0  0  0  0  0
   38.9940   30.4040   41.0410 C   0  0  0  0  0  0  0  0  0  0  0  0
   40.2250   31.7350   41.1800 S   0  0  0  0  0  0  0  0  0  0  0  0
   39.2520   32.8050   39.9430 C   0  0  0  0  0  0  0  0  0  0  0  0
   38.4070   32.1190   39.7260 N   0  0  0  0  0  0  0  0  0  0  0  0
   39.6190   34.1320   39.5160 N   0  0  0  0  0  0  0  0  0  0  0  0
   39.5330   34.8990   40.2420 H   0  0  0  0  0  0  0  0  0  0  0  0
   39.9260   34.1540   38.5260 H   0  0  0  0  0  0  0  0  0  0  0  0
   40.4120   28.0530   39.7000 Cl  0  0  0  0  0  0  0  0  0  0  0  0
   39.5900   27.9500   41.2390 C   0  0  0  0  0  0  0  0  0  0  0  0
   38.9880   29.0860   41.7380 C   0  0  0  0  0  0  0  0  0  0  0  0
   38.3250   29.0440   42.9600 C   0  0  0  0  0  0  0  0  0  0  0  0
   37.8360   29.9140   43.3920 H   0  0  0  0  0  0  0  0  0  0  0  0
   38.2710   27.8510   43.6790 C   0  0  0  0  0  0  0  0  0  0  0  0
   37.7800   27.7230   44.6350 H   0  0  0  0  0  0  0  0  0  0  0  0
   38.8770   26.7220   43.1700 C   0  0  0  0  0  0  0  0  0  0  0  0
   38.8540   25.7890   43.6970 H   0  0  0  0  0  0  0  0  0  0  0  0
   39.5340   26.7710   41.9540 C   0  0  0  0  0  0  0  0  0  0  0  0
   40.3020   25.3340   41.3090 Cl  0  0  0  0  0  0  0  0  0  0  0  0
  1  2  1  0  0  0  0
  2  7  1  0  0  0  0
  3  2  2  0  0  0  0
  3  4  1  0  0  0  0
  4  5  2  0  0  0  0
  5  6  1  0  0  0  0
  5  9  1  0  0  0  0
  6 10  1  0  0  0  0
  7 20  1  0  0  0  0
  7  6  2  0  0  0  0
  8  4  1  0  0  0  0
 11 12  1  0  0  0  0
 12 18  1  0  0  0  0
 12 13  2  0  0  0  0
 13  3  1  0  0  0  0
 14 13  1  0  0  0  0
 15 14  2  0  0  0  0
 16 11  2  0  0  0  0
 16 15  1  0  0  0  0
 17 11  1  0  0  0  0
 19 15  1  0  0  0  0
 20 21  2  0  0  0  0
 21 22  1  0  0  0  0
 21 30  1  0  0  0  0
 23 22  1  0  0  0  0
 24 23  2  0  0  0  0
 24 20  1  0  0  0  0
 25 23  1  0  0  0  0
 25 26  1  0  0  0  0
 27 25  1  0  0  0  0
 28 29  1  0  0  0  0
 29 30  2  0  0  0  0
 29 37  1  0  0  0  0
 30 31  1  0  0  0  0
 31 32  1  0  0  0  0
 31 33  2  0  0  0  0
 33 34  1  0  0  0  0
 35 33  1  0  0  0  0
 35 36  1  0  0  0  0
 37 35  2  0  0  0  0
 38 37  1  0  0  0  0
M  END
>  <minimizedAffinity>
-5.88303328

$$$$

 OpenBabel03242516073D

 38 41  0  0  0  0  0  0  0  0999 V2000
   37.6450   28.3590   36.4630 Cl  0  0  0  0  0  0  0  0  0  0  0  0
   36.3550   28.6890   37.5860 C   0  0  0  0  0  0  0  0  0  0  0  0
   35.1190   28.1300   37.4650 C   0  0  0  0  0  0  0  0  0  0  0  0
   34.1910   28.4670   38.4100 C   0  0  0  0  0  0  0  0  0  0  0  0
   34.4470   29.3060   39.4250 C   0  0  0  0  0  0  0  0  0  0  0  0
   35.6890   29.8850   39.5690 C   0  0  0  0  0  0  0  0  0  0  0  0
   36.6450   29.5490   38.6130 C   0  0  0  0  0  0  0  0  0  0  0  0
   33.1920   28.0250   38.3260 H   0  0  0  0  0  0  0  0  0  0  0  0
   33.6690   29.5340   40.1420 H   0  0  0  0  0  0  0  0  0  0  0  0
   35.9130   30.5630   40.3820 H   0  0  0  0  0  0  0  0  0  0  0  0
   34.8330   24.9830   35.3610 C   0  0  0  0  0  0  0  0  0  0  0  0
   35.0620   25.8360   36.4500 C   0  0  0  0  0  0  0  0  0  0  0  0
   34.8870   27.2280   36.3510 C   0  0  0  0  0  0  0  0  0  0  0  0
   34.4880   27.6680   35.1400 N   0  0  0  0  0  0  0  0  0  0  0  0
   34.2720   26.8380   34.1050 C   0  0  0  0  0  0  0  0  0  0  0  0
   34.4410   25.5210   34.2130 N   0  0  0  0  0  0  0  0  0  0  0  0
   34.9950   23.9260   35.5420 H   0  0  0  0  0  0  0  0  0  0  0  0
   35.3810   25.4170   37.3970 H   0  0  0  0  0  0  0  0  0  0  0  0
   33.9520   27.2280   33.1490 H   0  0  0  0  0  0  0  0  0  0  0  0
   38.0000   30.1550   38.7410 C   0  0  0  0  0  0  0  0  0  0  0  0
   38.8520   29.8890   39.8320 C   0  0  0  0  0  0  0  0  0  0  0  0
   40.3310   30.8780   39.4560 S   0  0  0  0  0  0  0  0  0  0  0  0
   39.5380   31.5080   37.8460 C   0  0  0  0  0  0  0  0  0  0  0  0
   38.5630   30.9800   37.8990 N   0  0  0  0  0  0  0  0  0  0  0  0
   40.1440   32.4330   36.9210 N   0  0  0  0  0  0  0  0  0  0  0  0
   40.2470   33.4320   37.2570 H   0  0  0  0  0  0  0  0  0  0  0  0
   40.4030   31.9780   36.0260 H   0  0  0  0  0  0  0  0  0  0  0  0
   39.0660   26.8640   39.4540 Cl  0  0  0  0  0  0  0  0  0  0  0  0
   38.6790   27.6350   40.9750 C   0  0  0  0  0  0  0  0  0  0  0  0
   38.6140   29.0110   41.0140 C   0  0  0  0  0  0  0  0  0  0  0  0
   38.3090   29.6620   42.2060 C   0  0  0  0  0  0  0  0  0  0  0  0
   38.2470   30.7440   42.2830 H   0  0  0  0  0  0  0  0  0  0  0  0
   38.0710   28.9180   43.3600 C   0  0  0  0  0  0  0  0  0  0  0  0
   37.8290   29.3340   44.3290 H   0  0  0  0  0  0  0  0  0  0  0  0
   38.1400   27.5420   43.3080 C   0  0  0  0  0  0  0  0  0  0  0  0
   37.9620   26.9390   44.1770 H   0  0  0  0  0  0  0  0  0  0  0  0
   38.4430   26.9020   42.1200 C   0  0  0  0  0  0  0  0  0  0  0  0
   38.5280   25.1530   42.0570 Cl  0  0  0  0  0  0  0  0  0  0  0  0
  1  2  1  0  0  0  0
  2  7  1  0  0  0  0
  3  2  2  0  0  0  0
  3  4  1  0  0  0  0
  4  5  2  0  0  0  0
  5  6  1  0  0  0  0
  5  9  1  0  0  0  0
  6 10  1  0  0  0  0
  7 20  1  0  0  0  0
  7  6  2  0  0  0  0
  8  4  1  0  0  0  0
 11 17  1  0  0  0  0
 11 12  1  0  0  0  0
 12 18  1  0  0  0  0
 13 12  2  0  0  0  0
 13  3  1  0  0  0  0
 14 13  1  0  0  0  0
 15 16  1  0  0  0  0
 15 14  2  0  0  0  0
 16 11  2  0  0  0  0
 19 15  1  0  0  0  0
 20 21  2  0  0  0  0
 21 30  1  0  0  0  0
 22 21  1  0  0  0  0
 23 24  2  0  0  0  0
 23 22  1  0  0  0  0
 24 20  1  0  0  0  0
 25 26  1  0  0  0  0
 25 23  1  0  0  0  0
 27 25  1  0  0  0  0
 28 29  1  0  0  0  0
 29 30  2  0  0  0  0
 29 37  1  0  0  0  0
 30 31  1  0  0  0  0
 31 32  1  0  0  0  0
 31 33  2  0  0  0  0
 33 34  1  0  0  0  0
 35 33  1  0  0  0  0
 35 36  1  0  0  0  0
 37 35  2  0  0  0  0
 38 37  1  0  0  0  0
M  END
>  <minimizedAffinity>
-5.83925915

$$$$
