
 OpenBabel03242518273D

 47 51  0  0  1  0  0  0  0  0999 V2000
   37.6320   34.1290   39.6080 C   0  0  0  0  0  0  0  0  0  0  0  0
   38.2250   32.9240   39.4850 C   0  0  0  0  0  0  0  0  0  0  0  0
   39.5470   32.7890   39.8940 C   0  0  0  0  0  0  0  0  0  0  0  0
   40.2260   33.8690   40.4120 C   0  0  0  0  0  0  0  0  0  0  0  0
   39.5850   35.1030   40.5260 C   0  0  0  0  0  0  0  0  0  0  0  0
   38.2700   35.2490   40.1210 C   0  0  0  0  0  0  0  0  0  0  0  0
   40.5180   35.9970   41.0800 O   0  0  0  0  0  0  0  0  0  0  0  0
   41.8100   35.4040   40.9400 C   0  0  2  0  0  0  0  0  0  0  0  0
   41.5280   34.0290   40.8940 O   0  0  0  0  0  0  0  0  0  0  0  0
   36.6080   34.2190   39.2850 H   0  0  0  0  0  0  0  0  0  0  0  0
   40.0600   31.8280   39.8110 H   0  0  0  0  0  0  0  0  0  0  0  0
   37.7810   36.1920   40.2090 H   0  0  0  0  0  0  0  0  0  0  0  0
   42.2170   35.6590   39.9250 H   0  0  0  0  0  0  0  0  0  0  0  0
   44.4850   34.0290   40.8610 Cl  0  0  0  0  0  0  0  0  0  0  0  0
   44.0150   35.2440   42.0420 C   0  0  0  0  0  0  0  0  0  0  0  0
   42.7550   35.8100   41.9810 C   0  0  0  0  0  0  0  0  0  0  0  0
   42.3460   36.7620   42.8830 C   0  0  0  0  0  0  0  0  0  0  0  0
   41.3600   37.2000   42.8300 H   0  0  0  0  0  0  0  0  0  0  0  0
   43.2200   37.1610   43.8740 C   0  0  0  0  0  0  0  0  0  0  0  0
   42.8740   37.9200   44.5790 H   0  0  0  0  0  0  0  0  0  0  0  0
   44.4780   36.5990   43.9380 C   0  0  0  0  0  0  0  0  0  0  0  0
   45.1530   36.9280   44.7270 H   0  0  0  0  0  0  0  0  0  0  0  0
   44.9090   35.6410   43.0420 C   0  0  0  0  0  0  0  0  0  0  0  0
   46.5120   34.9370   43.1390 Cl  0  0  0  0  0  0  0  0  0  0  0  0
   36.1080   29.9070   39.1670 C   0  0  0  0  0  0  0  0  0  0  0  0
   36.1980   29.6180   37.8190 C   0  0  0  0  0  0  0  0  0  0  0  0
   36.9850   30.4630   37.0350 C   0  0  0  0  0  0  0  0  0  0  0  0
   37.6210   31.5150   37.6080 N   0  0  0  0  0  0  0  0  0  0  0  0
   37.5070   31.7650   38.9330 C   0  0  0  0  0  0  0  0  0  0  0  0
   36.7580   30.9650   39.6980 N   0  0  0  0  0  0  0  0  0  0  0  0
   35.5040   29.2760   39.8270 H   0  0  0  0  0  0  0  0  0  0  0  0
   37.0450   30.2230   35.9810 H   0  0  0  0  0  0  0  0  0  0  0  0
   35.4850   28.4930   37.3580 N   0  0  0  0  0  0  0  0  0  0  0  0
   35.5850   27.2780   38.1070 C   0  0  0  0  0  0  0  0  0  0  0  0
   34.8630   26.1360   37.4950 C   0  0  0  0  0  0  0  0  0  0  0  0
   33.5250   26.4650   37.0950 N   0  0  0  0  0  0  0  0  0  0  0  0
   33.3260   27.7360   36.5170 C   0  0  0  0  0  0  0  0  0  0  0  0
   34.6450   28.4210   36.1900 C   0  0  0  0  0  0  0  0  0  0  0  0
   35.1900   27.4380   39.1390 H   0  0  0  0  0  0  0  0  0  0  0  0
   36.6710   27.0160   38.1470 H   0  0  0  0  0  0  0  0  0  0  0  0
   34.7790   25.3340   38.2800 H   0  0  0  0  0  0  0  0  0  0  0  0
   35.4380   25.7320   36.6580 H   0  0  0  0  0  0  0  0  0  0  0  0
   33.1530   25.6880   36.5050 H   0  0  0  0  0  0  0  0  0  0  0  0
   32.7500   27.6700   35.5760 H   0  0  0  0  0  0  0  0  0  0  0  0
   32.8290   28.3880   37.2740 H   0  0  0  0  0  0  0  0  0  0  0  0
   34.3740   29.4750   35.8920 H   0  0  0  0  0  0  0  0  0  0  0  0
   35.1300   27.9610   35.3180 H   0  0  0  0  0  0  0  0  0  0  0  0
  1  6  1  0  0  0  0
  2  1  2  0  0  0  0
  2  3  1  0  0  0  0
  3  4  2  0  0  0  0
  4  5  1  0  0  0  0
  4  9  1  0  0  0  0
  5  7  1  0  0  0  0
  6 12  1  0  0  0  0
  6  5  2  0  0  0  0
  8 13  1  6  0  0  0
  8  7  1  0  0  0  0
  8 16  1  0  0  0  0
  9  8  1  0  0  0  0
 10  1  1  0  0  0  0
 11  3  1  0  0  0  0
 14 15  1  0  0  0  0
 15 23  1  0  0  0  0
 16 15  2  0  0  0  0
 16 17  1  0  0  0  0
 17 19  2  0  0  0  0
 18 17  1  0  0  0  0
 19 21  1  0  0  0  0
 19 20  1  0  0  0  0
 21 22  1  0  0  0  0
 23 24  1  0  0  0  0
 23 21  2  0  0  0  0
 25 30  1  0  0  0  0
 25 31  1  0  0  0  0
 26 25  2  0  0  0  0
 27 28  2  0  0  0  0
 27 26  1  0  0  0  0
 28 29  1  0  0  0  0
 29  2  1  0  0  0  0
 29 30  2  0  0  0  0
 32 27  1  0  0  0  0
 33 26  1  0  0  0  0
 33 34  1  0  0  0  0
 34 40  1  0  0  0  0
 34 39  1  0  0  0  0
 35 34  1  0  0  0  0
 35 41  1  0  0  0  0
 36 35  1  0  0  0  0
 37 36  1  0  0  0  0
 37 45  1  0  0  0  0
 38 37  1  0  0  0  0
 38 33  1  0  0  0  0
 42 35  1  0  0  0  0
 43 36  1  0  0  0  0
 44 37  1  0  0  0  0
 46 38  1  0  0  0  0
 47 38  1  0  0  0  0
M  END
>  <minimizedAffinity>
-7.35948467

$$$$

 OpenBabel03242518273D

 47 51  0  0  1  0  0  0  0  0999 V2000
   37.3230   28.8410   42.3390 C   0  0  0  0  0  0  0  0  0  0  0  0
   38.1760   29.1470   41.3400 C   0  0  0  0  0  0  0  0  0  0  0  0
   38.6040   28.1280   40.4970 C   0  0  0  0  0  0  0  0  0  0  0  0
   38.1600   26.8380   40.6870 C   0  0  0  0  0  0  0  0  0  0  0  0
   37.2780   26.5530   41.7300 C   0  0  0  0  0  0  0  0  0  0  0  0
   36.8460   27.5600   42.5750 C   0  0  0  0  0  0  0  0  0  0  0  0
   37.0090   25.1750   41.6710 O   0  0  0  0  0  0  0  0  0  0  0  0
   38.0130   24.5810   40.8470 C   0  0  2  0  0  0  0  0  0  0  0  0
   38.4120   25.6390   40.0150 O   0  0  0  0  0  0  0  0  0  0  0  0
   37.0010   29.6410   42.9850 H   0  0  0  0  0  0  0  0  0  0  0  0
   39.2940   28.3380   39.6760 H   0  0  0  0  0  0  0  0  0  0  0  0
   36.1720   27.3420   43.3720 H   0  0  0  0  0  0  0  0  0  0  0  0
   38.9100   24.3450   41.4810 H   0  0  0  0  0  0  0  0  0  0  0  0
   35.8340   25.0140   38.8170 Cl  0  0  0  0  0  0  0  0  0  0  0  0
   36.5610   23.4580   39.1930 C   0  0  0  0  0  0  0  0  0  0  0  0
   37.5590   23.3780   40.1470 C   0  0  0  0  0  0  0  0  0  0  0  0
   38.1540   22.1830   40.4720 C   0  0  0  0  0  0  0  0  0  0  0  0
   38.9330   22.1280   41.2200 H   0  0  0  0  0  0  0  0  0  0  0  0
   37.7420   21.0350   39.8270 C   0  0  0  0  0  0  0  0  0  0  0  0
   38.2300   20.0970   40.1010 H   0  0  0  0  0  0  0  0  0  0  0  0
   36.7470   21.1110   38.8730 C   0  0  0  0  0  0  0  0  0  0  0  0
   36.4370   20.1930   38.3740 H   0  0  0  0  0  0  0  0  0  0  0  0
   36.1360   22.3010   38.5310 C   0  0  0  0  0  0  0  0  0  0  0  0
   34.8730   22.3780   37.3180 Cl  0  0  0  0  0  0  0  0  0  0  0  0
   38.2990   32.7610   40.5620 C   0  0  0  0  0  0  0  0  0  0  0  0
   39.6340   33.0650   40.7580 C   0  0  0  0  0  0  0  0  0  0  0  0
   40.4740   32.0240   41.1550 C   0  0  0  0  0  0  0  0  0  0  0  0
   39.9680   30.7780   41.3310 N   0  0  0  0  0  0  0  0  0  0  0  0
   38.6540   30.5220   41.1300 C   0  0  0  0  0  0  0  0  0  0  0  0
   37.8360   31.5070   40.7490 N   0  0  0  0  0  0  0  0  0  0  0  0
   37.5960   33.5410   40.2510 H   0  0  0  0  0  0  0  0  0  0  0  0
   41.5170   32.2780   41.3030 H   0  0  0  0  0  0  0  0  0  0  0  0
   40.0230   34.4010   40.5380 N   0  0  0  0  0  0  0  0  0  0  0  0
   38.9990   35.3720   40.3070 C   0  0  0  0  0  0  0  0  0  0  0  0
   39.5160   36.7300   40.0080 C   0  0  0  0  0  0  0  0  0  0  0  0
   40.5300   37.1610   40.9270 N   0  0  0  0  0  0  0  0  0  0  0  0
   41.4670   36.1920   41.3440 C   0  0  0  0  0  0  0  0  0  0  0  0
   41.3680   34.9170   40.5180 C   0  0  0  0  0  0  0  0  0  0  0  0
   38.3300   35.4350   41.1980 H   0  0  0  0  0  0  0  0  0  0  0  0
   38.4210   35.0220   39.4160 H   0  0  0  0  0  0  0  0  0  0  0  0
   38.6560   37.4470   40.1130 H   0  0  0  0  0  0  0  0  0  0  0  0
   39.8730   36.7790   38.9760 H   0  0  0  0  0  0  0  0  0  0  0  0
   40.9810   38.0220   40.5470 H   0  0  0  0  0  0  0  0  0  0  0  0
   42.5050   36.5610   41.2510 H   0  0  0  0  0  0  0  0  0  0  0  0
   41.2150   35.8930   42.3900 H   0  0  0  0  0  0  0  0  0  0  0  0
   42.0350   34.1680   41.0350 H   0  0  0  0  0  0  0  0  0  0  0  0
   41.7770   35.0610   39.5100 H   0  0  0  0  0  0  0  0  0  0  0  0
  1  6  1  0  0  0  0
  1 10  1  0  0  0  0
  2  1  2  0  0  0  0
  3  4  2  0  0  0  0
  3  2  1  0  0  0  0
  4  5  1  0  0  0  0
  5  6  2  0  0  0  0
  6 12  1  0  0  0  0
  7  5  1  0  0  0  0
  8 13  1  1  0  0  0
  8  7  1  0  0  0  0
  9  4  1  0  0  0  0
  9  8  1  0  0  0  0
 11  3  1  0  0  0  0
 14 15  1  0  0  0  0
 15 16  1  0  0  0  0
 16 17  2  0  0  0  0
 16  8  1  0  0  0  0
 17 18  1  0  0  0  0
 19 20  1  0  0  0  0
 19 17  1  0  0  0  0
 21 19  2  0  0  0  0
 22 21  1  0  0  0  0
 23 21  1  0  0  0  0
 23 15  2  0  0  0  0
 24 23  1  0  0  0  0
 25 30  2  0  0  0  0
 25 26  1  0  0  0  0
 26 27  2  0  0  0  0
 27 32  1  0  0  0  0
 27 28  1  0  0  0  0
 29 28  2  0  0  0  0
 29  2  1  0  0  0  0
 30 29  1  0  0  0  0
 31 25  1  0  0  0  0
 33 26  1  0  0  0  0
 34 33  1  0  0  0  0
 34 39  1  0  0  0  0
 35 41  1  0  0  0  0
 35 34  1  0  0  0  0
 35 36  1  0  0  0  0
 36 37  1  0  0  0  0
 37 45  1  0  0  0  0
 38 33  1  0  0  0  0
 38 46  1  0  0  0  0
 38 37  1  0  0  0  0
 40 34  1  0  0  0  0
 42 35  1  0  0  0  0
 43 36  1  0  0  0  0
 44 37  1  0  0  0  0
 47 38  1  0  0  0  0
M  END
>  <minimizedAffinity>
-6.88635015

$$$$

 OpenBabel03242518273D

 47 51  0  0  1  0  0  0  0  0999 V2000
   37.4600   33.2850   39.5160 C   0  0  0  0  0  0  0  0  0  0  0  0
   38.1020   32.1000   39.5670 C   0  0  0  0  0  0  0  0  0  0  0  0
   39.4220   32.0780   40.0010 C   0  0  0  0  0  0  0  0  0  0  0  0
   40.0510   33.2470   40.3690 C   0  0  0  0  0  0  0  0  0  0  0  0
   39.3600   34.4570   40.3050 C   0  0  0  0  0  0  0  0  0  0  0  0
   38.0460   34.4910   39.8730 C   0  0  0  0  0  0  0  0  0  0  0  0
   40.2490   35.4570   40.7370 O   0  0  0  0  0  0  0  0  0  0  0  0
   41.5650   34.9040   40.6910 C   0  0  2  0  0  0  0  0  0  0  0  0
   41.3390   33.5260   40.8350 O   0  0  0  0  0  0  0  0  0  0  0  0
   36.4380   33.2870   39.1760 H   0  0  0  0  0  0  0  0  0  0  0  0
   39.9740   31.1370   40.0570 H   0  0  0  0  0  0  0  0  0  0  0  0
   37.5180   35.4160   39.8250 H   0  0  0  0  0  0  0  0  0  0  0  0
   41.9760   35.0320   39.6530 H   0  0  0  0  0  0  0  0  0  0  0  0
   44.3010   33.6560   40.8110 Cl  0  0  0  0  0  0  0  0  0  0  0  0
   43.7630   34.9960   41.8160 C   0  0  0  0  0  0  0  0  0  0  0  0
   42.4800   35.4890   41.6730 C   0  0  0  0  0  0  0  0  0  0  0  0
   42.0170   36.5340   42.4360 C   0  0  0  0  0  0  0  0  0  0  0  0
   41.0130   36.9140   42.3200 H   0  0  0  0  0  0  0  0  0  0  0  0
   42.8610   37.1020   43.3690 C   0  0  0  0  0  0  0  0  0  0  0  0
   42.4730   37.9310   43.9640 H   0  0  0  0  0  0  0  0  0  0  0  0
   44.1430   36.6120   43.5140 C   0  0  0  0  0  0  0  0  0  0  0  0
   44.7930   37.0750   44.2560 H   0  0  0  0  0  0  0  0  0  0  0  0
   44.6270   35.5640   42.7580 C   0  0  0  0  0  0  0  0  0  0  0  0
   46.2590   34.9540   42.9570 Cl  0  0  0  0  0  0  0  0  0  0  0  0
   36.1400   29.5770   37.7060 C   0  0  0  0  0  0  0  0  0  0  0  0
   36.2270   28.4660   38.5240 C   0  0  0  0  0  0  0  0  0  0  0  0
   36.9590   28.5980   39.7040 C   0  0  0  0  0  0  0  0  0  0  0  0
   37.5460   29.7820   40.0040 N   0  0  0  0  0  0  0  0  0  0  0  0
   37.4380   30.8470   39.1760 C   0  0  0  0  0  0  0  0  0  0  0  0
   36.7400   30.7380   38.0420 N   0  0  0  0  0  0  0  0  0  0  0  0
   35.5770   29.5270   36.7670 H   0  0  0  0  0  0  0  0  0  0  0  0
   37.0170   27.7180   40.3340 H   0  0  0  0  0  0  0  0  0  0  0  0
   35.5670   27.2990   38.0890 N   0  0  0  0  0  0  0  0  0  0  0  0
   34.4070   27.4480   37.2640 C   0  0  0  0  0  0  0  0  0  0  0  0
   33.7410   26.1660   36.9280 C   0  0  0  0  0  0  0  0  0  0  0  0
   34.6560   25.1610   36.4690 N   0  0  0  0  0  0  0  0  0  0  0  0
   35.9040   25.0860   37.1230 C   0  0  0  0  0  0  0  0  0  0  0  0
   35.9330   25.9380   38.3850 C   0  0  0  0  0  0  0  0  0  0  0  0
   34.6830   27.9660   36.3150 H   0  0  0  0  0  0  0  0  0  0  0  0
   33.6810   28.0700   37.8440 H   0  0  0  0  0  0  0  0  0  0  0  0
   33.0310   26.3700   36.0800 H   0  0  0  0  0  0  0  0  0  0  0  0
   33.1580   25.8090   37.7800 H   0  0  0  0  0  0  0  0  0  0  0  0
   34.1580   24.2440   36.4420 H   0  0  0  0  0  0  0  0  0  0  0  0
   36.1460   24.0500   37.4230 H   0  0  0  0  0  0  0  0  0  0  0  0
   36.6770   25.5250   36.4480 H   0  0  0  0  0  0  0  0  0  0  0  0
   37.0070   25.9340   38.7290 H   0  0  0  0  0  0  0  0  0  0  0  0
   35.3410   25.4810   39.1900 H   0  0  0  0  0  0  0  0  0  0  0  0
  1  2  2  0  0  0  0
  1  6  1  0  0  0  0
  2  3  1  0  0  0  0
  3 11  1  0  0  0  0
  3  4  2  0  0  0  0
  4  9  1  0  0  0  0
  5  4  1  0  0  0  0
  5  7  1  0  0  0  0
  6  5  2  0  0  0  0
  8 13  1  6  0  0  0
  8  7  1  0  0  0  0
  8  9  1  0  0  0  0
  8 16  1  0  0  0  0
 10  1  1  0  0  0  0
 12  6  1  0  0  0  0
 14 15  1  0  0  0  0
 15 23  1  0  0  0  0
 16 15  2  0  0  0  0
 16 17  1  0  0  0  0
 17 19  2  0  0  0  0
 18 17  1  0  0  0  0
 19 21  1  0  0  0  0
 19 20  1  0  0  0  0
 21 22  1  0  0  0  0
 23 24  1  0  0  0  0
 23 21  2  0  0  0  0
 25 30  2  0  0  0  0
 25 26  1  0  0  0  0
 26 27  2  0  0  0  0
 27 28  1  0  0  0  0
 27 32  1  0  0  0  0
 29  2  1  0  0  0  0
 29 28  2  0  0  0  0
 30 29  1  0  0  0  0
 31 25  1  0  0  0  0
 33 38  1  0  0  0  0
 33 26  1  0  0  0  0
 34 40  1  0  0  0  0
 34 33  1  0  0  0  0
 35 34  1  0  0  0  0
 35 42  1  0  0  0  0
 36 35  1  0  0  0  0
 36 37  1  0  0  0  0
 37 44  1  0  0  0  0
 37 38  1  0  0  0  0
 38 46  1  0  0  0  0
 38 47  1  0  0  0  0
 39 34  1  0  0  0  0
 41 35  1  0  0  0  0
 43 36  1  0  0  0  0
 45 37  1  0  0  0  0
M  END
>  <minimizedAffinity>
-6.88017225

$$$$

 OpenBabel03242518273D

 47 51  0  0  1  0  0  0  0  0999 V2000
   37.4950   28.8860   42.4280 C   0  0  0  0  0  0  0  0  0  0  0  0
   38.1050   29.2530   41.2830 C   0  0  0  0  0  0  0  0  0  0  0  0
   38.2560   28.3040   40.2770 C   0  0  0  0  0  0  0  0  0  0  0  0
   37.7870   27.0220   40.4580 C   0  0  0  0  0  0  0  0  0  0  0  0
   37.1600   26.6730   41.6550 C   0  0  0  0  0  0  0  0  0  0  0  0
   37.0060   27.6090   42.6630 C   0  0  0  0  0  0  0  0  0  0  0  0
   36.7970   25.3190   41.5460 O   0  0  0  0  0  0  0  0  0  0  0  0
   37.5380   24.7680   40.4560 C   0  0  2  0  0  0  0  0  0  0  0  0
   37.7960   25.8850   39.6460 O   0  0  0  0  0  0  0  0  0  0  0  0
   37.3860   29.6320   43.1980 H   0  0  0  0  0  0  0  0  0  0  0  0
   38.7440   28.5640   39.3350 H   0  0  0  0  0  0  0  0  0  0  0  0
   36.5260   27.3420   43.5760 H   0  0  0  0  0  0  0  0  0  0  0  0
   38.5420   24.4340   40.8330 H   0  0  0  0  0  0  0  0  0  0  0  0
   39.3320   22.8200   39.0270 Cl  0  0  0  0  0  0  0  0  0  0  0  0
   37.5790   22.7040   39.0990 C   0  0  0  0  0  0  0  0  0  0  0  0
   36.8550   23.6590   39.7870 C   0  0  0  0  0  0  0  0  0  0  0  0
   35.4840   23.6080   39.8690 C   0  0  0  0  0  0  0  0  0  0  0  0
   34.9240   24.3580   40.4080 H   0  0  0  0  0  0  0  0  0  0  0  0
   34.8170   22.5720   39.2470 C   0  0  0  0  0  0  0  0  0  0  0  0
   33.7280   22.5510   39.3250 H   0  0  0  0  0  0  0  0  0  0  0  0
   35.5370   21.6160   38.5590 C   0  0  0  0  0  0  0  0  0  0  0  0
   34.9920   20.8060   38.0750 H   0  0  0  0  0  0  0  0  0  0  0  0
   36.9140   21.6490   38.4640 C   0  0  0  0  0  0  0  0  0  0  0  0
   37.8110   20.4260   37.5850 Cl  0  0  0  0  0  0  0  0  0  0  0  0
   40.3130   32.2170   41.1400 C   0  0  0  0  0  0  0  0  0  0  0  0
   39.4620   33.2030   40.6760 C   0  0  0  0  0  0  0  0  0  0  0  0
   38.1410   32.8360   40.4180 C   0  0  0  0  0  0  0  0  0  0  0  0
   37.7430   31.5570   40.6260 N   0  0  0  0  0  0  0  0  0  0  0  0
   38.6070   30.6200   41.0810 C   0  0  0  0  0  0  0  0  0  0  0  0
   39.8760   30.9540   41.3340 N   0  0  0  0  0  0  0  0  0  0  0  0
   41.3600   32.4510   41.3590 H   0  0  0  0  0  0  0  0  0  0  0  0
   37.4870   33.6200   40.0550 H   0  0  0  0  0  0  0  0  0  0  0  0
   40.0090   34.4900   40.5060 N   0  0  0  0  0  0  0  0  0  0  0  0
   39.1110   35.5800   40.2790 C   0  0  0  0  0  0  0  0  0  0  0  0
   39.7890   36.8760   40.0340 C   0  0  0  0  0  0  0  0  0  0  0  0
   40.8200   37.1610   40.9900 N   0  0  0  0  0  0  0  0  0  0  0  0
   41.6270   36.0800   41.4010 C   0  0  0  0  0  0  0  0  0  0  0  0
   41.4040   34.8470   40.5360 C   0  0  0  0  0  0  0  0  0  0  0  0
   38.4280   35.6950   41.1550 H   0  0  0  0  0  0  0  0  0  0  0  0
   38.5220   35.3230   39.3640 H   0  0  0  0  0  0  0  0  0  0  0  0
   39.0150   37.6850   40.1390 H   0  0  0  0  0  0  0  0  0  0  0  0
   40.1780   36.9100   39.0130 H   0  0  0  0  0  0  0  0  0  0  0  0
   41.3770   37.9750   40.6470 H   0  0  0  0  0  0  0  0  0  0  0  0
   42.7020   36.3290   41.3450 H   0  0  0  0  0  0  0  0  0  0  0  0
   41.3120   35.7840   42.4310 H   0  0  0  0  0  0  0  0  0  0  0  0
   41.9660   34.0120   41.0470 H   0  0  0  0  0  0  0  0  0  0  0  0
   41.8560   34.9700   39.5420 H   0  0  0  0  0  0  0  0  0  0  0  0
  1  6  1  0  0  0  0
  1 10  1  0  0  0  0
  2  1  2  0  0  0  0
  3  4  2  0  0  0  0
  3  2  1  0  0  0  0
  4  5  1  0  0  0  0
  5  6  2  0  0  0  0
  6 12  1  0  0  0  0
  7  5  1  0  0  0  0
  8 13  1  1  0  0  0
  8  7  1  0  0  0  0
  9  8  1  0  0  0  0
  9  4  1  0  0  0  0
 11  3  1  0  0  0  0
 14 15  1  0  0  0  0
 15 16  1  0  0  0  0
 16 17  2  0  0  0  0
 16  8  1  0  0  0  0
 17 18  1  0  0  0  0
 19 20  1  0  0  0  0
 19 17  1  0  0  0  0
 21 19  2  0  0  0  0
 22 21  1  0  0  0  0
 23 21  1  0  0  0  0
 23 15  2  0  0  0  0
 24 23  1  0  0  0  0
 25 30  1  0  0  0  0
 25 31  1  0  0  0  0
 26 25  2  0  0  0  0
 27 28  2  0  0  0  0
 27 26  1  0  0  0  0
 28 29  1  0  0  0  0
 29  2  1  0  0  0  0
 29 30  2  0  0  0  0
 32 27  1  0  0  0  0
 33 38  1  0  0  0  0
 33 26  1  0  0  0  0
 34 33  1  0  0  0  0
 34 39  1  0  0  0  0
 35 41  1  0  0  0  0
 35 34  1  0  0  0  0
 35 36  1  0  0  0  0
 36 37  1  0  0  0  0
 37 45  1  0  0  0  0
 38 46  1  0  0  0  0
 38 37  1  0  0  0  0
 40 34  1  0  0  0  0
 42 35  1  0  0  0  0
 43 36  1  0  0  0  0
 44 37  1  0  0  0  0
 47 38  1  0  0  0  0
M  END
>  <minimizedAffinity>
-6.74939966

$$$$

 OpenBabel03242518273D

 47 51  0  0  1  0  0  0  0  0999 V2000
   38.3940   28.2400   42.0180 C   0  0  0  0  0  0  0  0  0  0  0  0
   37.7920   28.1180   40.8170 C   0  0  0  0  0  0  0  0  0  0  0  0
   37.7310   29.2330   39.9890 C   0  0  0  0  0  0  0  0  0  0  0  0
   38.2780   30.4300   40.3960 C   0  0  0  0  0  0  0  0  0  0  0  0
   38.8940   30.5240   41.6440 C   0  0  0  0  0  0  0  0  0  0  0  0
   38.9600   29.4210   42.4770 C   0  0  0  0  0  0  0  0  0  0  0  0
   39.3480   31.8480   41.7750 O   0  0  0  0  0  0  0  0  0  0  0  0
   38.6750   32.6280   40.7860 C   0  0  2  0  0  0  0  0  0  0  0  0
   38.3660   31.6870   39.7910 O   0  0  0  0  0  0  0  0  0  0  0  0
   38.4330   27.3680   42.6500 H   0  0  0  0  0  0  0  0  0  0  0  0
   37.2520   29.1730   39.0090 H   0  0  0  0  0  0  0  0  0  0  0  0
   39.4310   29.4930   43.4300 H   0  0  0  0  0  0  0  0  0  0  0  0
   37.6860   32.9620   41.2000 H   0  0  0  0  0  0  0  0  0  0  0  0
   41.1690   31.9810   39.2320 Cl  0  0  0  0  0  0  0  0  0  0  0  0
   40.6120   33.6070   39.6060 C   0  0  0  0  0  0  0  0  0  0  0  0
   39.4480   33.7850   40.3290 C   0  0  0  0  0  0  0  0  0  0  0  0
   38.9760   35.0360   40.6430 C   0  0  0  0  0  0  0  0  0  0  0  0
   38.0650   35.1680   41.2090 H   0  0  0  0  0  0  0  0  0  0  0  0
   39.6860   36.1420   40.2230 C   0  0  0  0  0  0  0  0  0  0  0  0
   39.2930   37.1260   40.4840 H   0  0  0  0  0  0  0  0  0  0  0  0
   40.8490   35.9680   39.5010 C   0  0  0  0  0  0  0  0  0  0  0  0
   41.3950   36.8540   39.1780 H   0  0  0  0  0  0  0  0  0  0  0  0
   41.3410   34.7200   39.1740 C   0  0  0  0  0  0  0  0  0  0  0  0
   42.8210   34.5190   38.2560 Cl  0  0  0  0  0  0  0  0  0  0  0  0
   36.0900   25.5280   38.7990 C   0  0  0  0  0  0  0  0  0  0  0  0
   36.1350   24.4230   39.6290 C   0  0  0  0  0  0  0  0  0  0  0  0
   36.7500   24.5820   40.8710 C   0  0  0  0  0  0  0  0  0  0  0  0
   37.2700   25.7860   41.2170 N   0  0  0  0  0  0  0  0  0  0  0  0
   37.2060   26.8440   40.3750 C   0  0  0  0  0  0  0  0  0  0  0  0
   36.6200   26.7090   39.1820 N   0  0  0  0  0  0  0  0  0  0  0  0
   35.6190   25.4580   37.8130 H   0  0  0  0  0  0  0  0  0  0  0  0
   36.7770   23.7070   41.5090 H   0  0  0  0  0  0  0  0  0  0  0  0
   35.5550   23.2350   39.1420 N   0  0  0  0  0  0  0  0  0  0  0  0
   36.3440   22.0420   39.1610 C   0  0  0  0  0  0  0  0  0  0  0  0
   35.6710   20.8680   38.5540 C   0  0  0  0  0  0  0  0  0  0  0  0
   34.3290   20.6840   39.0250 N   0  0  0  0  0  0  0  0  0  0  0  0
   33.5510   21.8470   39.2100 C   0  0  0  0  0  0  0  0  0  0  0  0
   34.2240   23.0760   38.6150 C   0  0  0  0  0  0  0  0  0  0  0  0
   36.6230   21.7900   40.2120 H   0  0  0  0  0  0  0  0  0  0  0  0
   37.2630   22.2580   38.5610 H   0  0  0  0  0  0  0  0  0  0  0  0
   36.2510   19.9540   38.8610 H   0  0  0  0  0  0  0  0  0  0  0  0
   35.7010   20.9370   37.4640 H   0  0  0  0  0  0  0  0  0  0  0  0
   33.8580   19.9740   38.4220 H   0  0  0  0  0  0  0  0  0  0  0  0
   32.5590   21.7540   38.7330 H   0  0  0  0  0  0  0  0  0  0  0  0
   33.4790   22.0460   40.3060 H   0  0  0  0  0  0  0  0  0  0  0  0
   33.6070   23.9560   38.9590 H   0  0  0  0  0  0  0  0  0  0  0  0
   34.1760   23.0660   37.5180 H   0  0  0  0  0  0  0  0  0  0  0  0
  1  6  1  0  0  0  0
  1 10  1  0  0  0  0
  2  1  2  0  0  0  0
  3  4  2  0  0  0  0
  3  2  1  0  0  0  0
  4  5  1  0  0  0  0
  5  7  1  0  0  0  0
  5  6  2  0  0  0  0
  6 12  1  0  0  0  0
  8 13  1  1  0  0  0
  8  7  1  0  0  0  0
  9  4  1  0  0  0  0
  9  8  1  0  0  0  0
 11  3  1  0  0  0  0
 14 15  1  0  0  0  0
 15 16  1  0  0  0  0
 16 17  2  0  0  0  0
 16  8  1  0  0  0  0
 17 18  1  0  0  0  0
 19 20  1  0  0  0  0
 19 17  1  0  0  0  0
 21 19  2  0  0  0  0
 22 21  1  0  0  0  0
 23 21  1  0  0  0  0
 23 15  2  0  0  0  0
 24 23  1  0  0  0  0
 25 30  2  0  0  0  0
 25 26  1  0  0  0  0
 26 27  2  0  0  0  0
 27 28  1  0  0  0  0
 27 32  1  0  0  0  0
 29  2  1  0  0  0  0
 29 28  2  0  0  0  0
 30 29  1  0  0  0  0
 31 25  1  0  0  0  0
 33 34  1  0  0  0  0
 33 26  1  0  0  0  0
 34 39  1  0  0  0  0
 35 41  1  0  0  0  0
 35 36  1  0  0  0  0
 35 34  1  0  0  0  0
 36 37  1  0  0  0  0
 37 45  1  0  0  0  0
 38 46  1  0  0  0  0
 38 33  1  0  0  0  0
 38 37  1  0  0  0  0
 40 34  1  0  0  0  0
 42 35  1  0  0  0  0
 43 36  1  0  0  0  0
 44 37  1  0  0  0  0
 47 38  1  0  0  0  0
M  END
>  <minimizedAffinity>
-6.41865921

$$$$

 OpenBabel03242518273D

 47 51  0  0  1  0  0  0  0  0999 V2000
   38.2540   28.1260   42.2870 C   0  0  0  0  0  0  0  0  0  0  0  0
   37.7520   27.9390   41.0500 C   0  0  0  0  0  0  0  0  0  0  0  0
   37.7560   29.0080   40.1620 C   0  0  0  0  0  0  0  0  0  0  0  0
   38.2660   30.2280   40.5490 C   0  0  0  0  0  0  0  0  0  0  0  0
   38.7780   30.3910   41.8360 C   0  0  0  0  0  0  0  0  0  0  0  0
   38.7780   29.3330   42.7280 C   0  0  0  0  0  0  0  0  0  0  0  0
   39.2170   31.7230   41.9350 O   0  0  0  0  0  0  0  0  0  0  0  0
   38.6250   32.4460   40.8550 C   0  0  2  0  0  0  0  0  0  0  0  0
   38.4000   31.4530   39.8890 O   0  0  0  0  0  0  0  0  0  0  0  0
   38.2430   27.2880   42.9650 H   0  0  0  0  0  0  0  0  0  0  0  0
   37.3590   28.8940   39.1510 H   0  0  0  0  0  0  0  0  0  0  0  0
   39.1700   29.4580   43.7110 H   0  0  0  0  0  0  0  0  0  0  0  0
   37.6040   32.7940   41.1700 H   0  0  0  0  0  0  0  0  0  0  0  0
   41.3070   31.7440   39.6860 Cl  0  0  0  0  0  0  0  0  0  0  0  0
   40.6800   33.3780   39.8480 C   0  0  0  0  0  0  0  0  0  0  0  0
   39.4300   33.5830   40.4020 C   0  0  0  0  0  0  0  0  0  0  0  0
   38.9000   34.8420   40.5480 C   0  0  0  0  0  0  0  0  0  0  0  0
   37.9230   34.9940   40.9830 H   0  0  0  0  0  0  0  0  0  0  0  0
   39.6400   35.9290   40.1290 C   0  0  0  0  0  0  0  0  0  0  0  0
   39.2000   36.9200   40.2540 H   0  0  0  0  0  0  0  0  0  0  0  0
   40.8880   35.7290   39.5750 C   0  0  0  0  0  0  0  0  0  0  0  0
   41.4560   36.6000   39.2500 H   0  0  0  0  0  0  0  0  0  0  0  0
   41.4380   34.4730   39.4190 C   0  0  0  0  0  0  0  0  0  0  0  0
   43.0260   34.2380   38.7140 Cl  0  0  0  0  0  0  0  0  0  0  0  0
   36.7280   24.3850   41.0150 C   0  0  0  0  0  0  0  0  0  0  0  0
   36.1660   24.2470   39.7590 C   0  0  0  0  0  0  0  0  0  0  0  0
   36.1450   25.3770   38.9410 C   0  0  0  0  0  0  0  0  0  0  0  0
   36.6650   26.5450   39.3920 N   0  0  0  0  0  0  0  0  0  0  0  0
   37.2070   26.6390   40.6280 C   0  0  0  0  0  0  0  0  0  0  0  0
   37.2350   25.5670   41.4250 N   0  0  0  0  0  0  0  0  0  0  0  0
   36.7700   23.5290   41.6970 H   0  0  0  0  0  0  0  0  0  0  0  0
   35.7020   25.2520   37.9600 H   0  0  0  0  0  0  0  0  0  0  0  0
   35.6640   22.9750   39.4210 N   0  0  0  0  0  0  0  0  0  0  0  0
   34.2450   22.7980   39.3810 C   0  0  0  0  0  0  0  0  0  0  0  0
   33.8210   21.4060   39.0940 C   0  0  0  0  0  0  0  0  0  0  0  0
   34.5100   20.8270   37.9770 N   0  0  0  0  0  0  0  0  0  0  0  0
   35.8840   21.1200   37.8530 C   0  0  0  0  0  0  0  0  0  0  0  0
   36.4320   21.7990   39.1000 C   0  0  0  0  0  0  0  0  0  0  0  0
   33.8020   23.4720   38.6100 H   0  0  0  0  0  0  0  0  0  0  0  0
   33.8610   23.0710   40.3950 H   0  0  0  0  0  0  0  0  0  0  0  0
   32.7300   21.4370   38.8220 H   0  0  0  0  0  0  0  0  0  0  0  0
   33.9290   20.7870   39.9880 H   0  0  0  0  0  0  0  0  0  0  0  0
   34.3110   19.8030   37.9570 H   0  0  0  0  0  0  0  0  0  0  0  0
   36.4830   20.2060   37.6890 H   0  0  0  0  0  0  0  0  0  0  0  0
   36.0080   21.8630   37.0290 H   0  0  0  0  0  0  0  0  0  0  0  0
   37.4770   22.1300   38.8320 H   0  0  0  0  0  0  0  0  0  0  0  0
   36.5300   21.0890   39.9320 H   0  0  0  0  0  0  0  0  0  0  0  0
  1  6  1  0  0  0  0
  1 10  1  0  0  0  0
  2  1  2  0  0  0  0
  3  4  2  0  0  0  0
  3  2  1  0  0  0  0
  4  5  1  0  0  0  0
  5  7  1  0  0  0  0
  5  6  2  0  0  0  0
  6 12  1  0  0  0  0
  8 13  1  1  0  0  0
  8  7  1  0  0  0  0
  9  4  1  0  0  0  0
  9  8  1  0  0  0  0
 11  3  1  0  0  0  0
 14 15  1  0  0  0  0
 15 16  1  0  0  0  0
 16 17  2  0  0  0  0
 16  8  1  0  0  0  0
 17 18  1  0  0  0  0
 19 20  1  0  0  0  0
 19 17  1  0  0  0  0
 21 19  2  0  0  0  0
 22 21  1  0  0  0  0
 23 21  1  0  0  0  0
 23 15  2  0  0  0  0
 24 23  1  0  0  0  0
 25 30  1  0  0  0  0
 25 31  1  0  0  0  0
 26 25  2  0  0  0  0
 27 28  2  0  0  0  0
 27 26  1  0  0  0  0
 28 29  1  0  0  0  0
 29  2  1  0  0  0  0
 29 30  2  0  0  0  0
 32 27  1  0  0  0  0
 33 26  1  0  0  0  0
 34 33  1  0  0  0  0
 34 40  1  0  0  0  0
 35 34  1  0  0  0  0
 35 42  1  0  0  0  0
 36 35  1  0  0  0  0
 37 36  1  0  0  0  0
 37 38  1  0  0  0  0
 38 33  1  0  0  0  0
 38 47  1  0  0  0  0
 39 34  1  0  0  0  0
 41 35  1  0  0  0  0
 43 36  1  0  0  0  0
 44 37  1  0  0  0  0
 45 37  1  0  0  0  0
 46 38  1  0  0  0  0
M  END
>  <minimizedAffinity>
-6.36827135

$$$$

 OpenBabel03242518273D

 47 51  0  0  1  0  0  0  0  0999 V2000
   37.6130   27.9160   42.6700 C   0  0  0  0  0  0  0  0  0  0  0  0
   37.9430   28.4060   41.4570 C   0  0  0  0  0  0  0  0  0  0  0  0
   37.8440   27.5670   40.3530 C   0  0  0  0  0  0  0  0  0  0  0  0
   37.4150   26.2670   40.5060 C   0  0  0  0  0  0  0  0  0  0  0  0
   37.0810   25.7900   41.7740 C   0  0  0  0  0  0  0  0  0  0  0  0
   37.1770   26.6160   42.8800 C   0  0  0  0  0  0  0  0  0  0  0  0
   36.6870   24.4500   41.6140 O   0  0  0  0  0  0  0  0  0  0  0  0
   37.1460   24.0220   40.3320 C   0  0  2  0  0  0  0  0  0  0  0  0
   37.2210   25.2190   39.6020 O   0  0  0  0  0  0  0  0  0  0  0  0
   37.6960   28.5780   43.5160 H   0  0  0  0  0  0  0  0  0  0  0  0
   38.1020   27.9280   39.3550 H   0  0  0  0  0  0  0  0  0  0  0  0
   36.9210   26.2520   43.8480 H   0  0  0  0  0  0  0  0  0  0  0  0
   38.2060   23.6640   40.4280 H   0  0  0  0  0  0  0  0  0  0  0  0
   38.5780   21.4710   39.6290 Cl  0  0  0  0  0  0  0  0  0  0  0  0
   36.8640   21.7650   39.3680 C   0  0  0  0  0  0  0  0  0  0  0  0
   36.3120   22.9790   39.7310 C   0  0  0  0  0  0  0  0  0  0  0  0
   34.9790   23.2520   39.5450 C   0  0  0  0  0  0  0  0  0  0  0  0
   34.5540   24.2040   39.8310 H   0  0  0  0  0  0  0  0  0  0  0  0
   34.1730   22.2850   38.9800 C   0  0  0  0  0  0  0  0  0  0  0  0
   33.1160   22.5230   38.8420 H   0  0  0  0  0  0  0  0  0  0  0  0
   34.7200   21.0710   38.6160 C   0  0  0  0  0  0  0  0  0  0  0  0
   34.0660   20.3210   38.1730 H   0  0  0  0  0  0  0  0  0  0  0  0
   36.0560   20.7770   38.7950 C   0  0  0  0  0  0  0  0  0  0  0  0
   36.7340   19.2290   38.3250 Cl  0  0  0  0  0  0  0  0  0  0  0  0
   39.9330   31.5170   41.6590 C   0  0  0  0  0  0  0  0  0  0  0  0
   39.1800   32.4040   40.9120 C   0  0  0  0  0  0  0  0  0  0  0  0
   37.9990   31.9210   40.3490 C   0  0  0  0  0  0  0  0  0  0  0  0
   37.6350   30.6300   40.5470 N   0  0  0  0  0  0  0  0  0  0  0  0
   38.4010   29.7930   41.2850 C   0  0  0  0  0  0  0  0  0  0  0  0
   39.5350   30.2390   41.8320 N   0  0  0  0  0  0  0  0  0  0  0  0
   40.8700   31.8440   42.1230 H   0  0  0  0  0  0  0  0  0  0  0  0
   37.4200   32.6290   39.7670 H   0  0  0  0  0  0  0  0  0  0  0  0
   39.6770   33.7160   40.7880 N   0  0  0  0  0  0  0  0  0  0  0  0
   41.0250   33.8880   40.3400 C   0  0  0  0  0  0  0  0  0  0  0  0
   41.4750   35.3010   40.3210 C   0  0  0  0  0  0  0  0  0  0  0  0
   40.5360   36.1820   39.6900 N   0  0  0  0  0  0  0  0  0  0  0  0
   39.1680   35.9460   39.9430 C   0  0  0  0  0  0  0  0  0  0  0  0
   38.9680   34.9390   41.0670 C   0  0  0  0  0  0  0  0  0  0  0  0
   41.1390   33.4640   39.3140 H   0  0  0  0  0  0  0  0  0  0  0  0
   41.6740   33.3310   41.0600 H   0  0  0  0  0  0  0  0  0  0  0  0
   42.4200   35.3430   39.7120 H   0  0  0  0  0  0  0  0  0  0  0  0
   41.7110   35.6360   41.3340 H   0  0  0  0  0  0  0  0  0  0  0  0
   40.8190   37.1680   39.8850 H   0  0  0  0  0  0  0  0  0  0  0  0
   38.6420   36.8720   40.2370 H   0  0  0  0  0  0  0  0  0  0  0  0
   38.7230   35.4740   39.0340 H   0  0  0  0  0  0  0  0  0  0  0  0
   37.8640   34.7060   41.0720 H   0  0  0  0  0  0  0  0  0  0  0  0
   39.2030   35.3790   42.0450 H   0  0  0  0  0  0  0  0  0  0  0  0
  1  6  1  0  0  0  0
  1 10  1  0  0  0  0
  2  1  2  0  0  0  0
  3  4  2  0  0  0  0
  3  2  1  0  0  0  0
  4  5  1  0  0  0  0
  5  6  2  0  0  0  0
  6 12  1  0  0  0  0
  7  5  1  0  0  0  0
  8 13  1  1  0  0  0
  8  7  1  0  0  0  0
  9  8  1  0  0  0  0
  9  4  1  0  0  0  0
 11  3  1  0  0  0  0
 15 14  1  0  0  0  0
 15 16  1  0  0  0  0
 16  8  1  0  0  0  0
 17 16  2  0  0  0  0
 17 18  1  0  0  0  0
 19 17  1  0  0  0  0
 20 19  1  0  0  0  0
 21 23  1  0  0  0  0
 21 19  2  0  0  0  0
 22 21  1  0  0  0  0
 23 15  2  0  0  0  0
 24 23  1  0  0  0  0
 25 30  1  0  0  0  0
 25 31  1  0  0  0  0
 26 25  2  0  0  0  0
 27 28  2  0  0  0  0
 27 26  1  0  0  0  0
 28 29  1  0  0  0  0
 29  2  1  0  0  0  0
 29 30  2  0  0  0  0
 32 27  1  0  0  0  0
 33 26  1  0  0  0  0
 33 38  1  0  0  0  0
 34 33  1  0  0  0  0
 34 40  1  0  0  0  0
 35 34  1  0  0  0  0
 35 42  1  0  0  0  0
 36 43  1  0  0  0  0
 36 37  1  0  0  0  0
 36 35  1  0  0  0  0
 37 44  1  0  0  0  0
 37 38  1  0  0  0  0
 38 46  1  0  0  0  0
 38 47  1  0  0  0  0
 39 34  1  0  0  0  0
 41 35  1  0  0  0  0
 45 37  1  0  0  0  0
M  END
>  <minimizedAffinity>
-6.36096001

$$$$

 OpenBabel03242518273D

 47 51  0  0  1  0  0  0  0  0999 V2000
   37.8310   27.7830   42.5820 C   0  0  0  0  0  0  0  0  0  0  0  0
   37.7020   27.5380   41.2620 C   0  0  0  0  0  0  0  0  0  0  0  0
   38.1340   28.5050   40.3620 C   0  0  0  0  0  0  0  0  0  0  0  0
   38.6810   29.6830   40.8200 C   0  0  0  0  0  0  0  0  0  0  0  0
   38.8010   29.9070   42.1920 C   0  0  0  0  0  0  0  0  0  0  0  0
   38.3730   28.9510   43.0960 C   0  0  0  0  0  0  0  0  0  0  0  0
   39.3860   31.1760   42.3480 O   0  0  0  0  0  0  0  0  0  0  0  0
   39.2620   31.8570   41.0990 C   0  0  2  0  0  0  0  0  0  0  0  0
   39.1910   30.8090   40.1670 O   0  0  0  0  0  0  0  0  0  0  0  0
   37.4900   27.0240   43.2680 H   0  0  0  0  0  0  0  0  0  0  0  0
   38.0470   28.3420   39.2850 H   0  0  0  0  0  0  0  0  0  0  0  0
   38.4660   29.1230   44.1440 H   0  0  0  0  0  0  0  0  0  0  0  0
   38.2590   32.3610   41.0600 H   0  0  0  0  0  0  0  0  0  0  0  0
   38.3480   34.5520   40.1200 Cl  0  0  0  0  0  0  0  0  0  0  0  0
   40.0240   34.1030   40.4050 C   0  0  0  0  0  0  0  0  0  0  0  0
   40.3270   32.8320   40.8570 C   0  0  0  0  0  0  0  0  0  0  0  0
   41.6220   32.4390   41.0940 C   0  0  0  0  0  0  0  0  0  0  0  0
   41.8520   31.4440   41.4460 H   0  0  0  0  0  0  0  0  0  0  0  0
   42.6430   33.3400   40.8730 C   0  0  0  0  0  0  0  0  0  0  0  0
   43.6650   33.0060   41.0680 H   0  0  0  0  0  0  0  0  0  0  0  0
   42.3450   34.6100   40.4220 C   0  0  0  0  0  0  0  0  0  0  0  0
   43.1660   35.3060   40.2550 H   0  0  0  0  0  0  0  0  0  0  0  0
   41.0510   35.0250   40.1790 C   0  0  0  0  0  0  0  0  0  0  0  0
   40.6900   36.6420   39.6050 Cl  0  0  0  0  0  0  0  0  0  0  0  0
   36.5210   24.0400   41.0390 C   0  0  0  0  0  0  0  0  0  0  0  0
   36.0140   23.9750   39.7540 C   0  0  0  0  0  0  0  0  0  0  0  0
   36.0840   25.1350   38.9820 C   0  0  0  0  0  0  0  0  0  0  0  0
   36.6340   26.2600   39.5020 N   0  0  0  0  0  0  0  0  0  0  0  0
   37.1190   26.2820   40.7650 C   0  0  0  0  0  0  0  0  0  0  0  0
   37.0600   25.1800   41.5180 N   0  0  0  0  0  0  0  0  0  0  0  0
   36.4910   23.1580   41.6880 H   0  0  0  0  0  0  0  0  0  0  0  0
   35.6830   25.0680   37.9770 H   0  0  0  0  0  0  0  0  0  0  0  0
   35.4720   22.7420   39.3430 N   0  0  0  0  0  0  0  0  0  0  0  0
   34.0500   22.5870   39.3730 C   0  0  0  0  0  0  0  0  0  0  0  0
   33.5860   21.2280   38.9980 C   0  0  0  0  0  0  0  0  0  0  0  0
   34.2000   20.7360   37.7990 N   0  0  0  0  0  0  0  0  0  0  0  0
   35.5700   21.0210   37.6180 C   0  0  0  0  0  0  0  0  0  0  0  0
   36.2010   21.5880   38.8830 C   0  0  0  0  0  0  0  0  0  0  0  0
   33.5750   23.3270   38.6860 H   0  0  0  0  0  0  0  0  0  0  0  0
   33.7300   22.7790   40.4260 H   0  0  0  0  0  0  0  0  0  0  0  0
   32.4820   21.2950   38.7940 H   0  0  0  0  0  0  0  0  0  0  0  0
   33.7350   20.5360   39.8310 H   0  0  0  0  0  0  0  0  0  0  0  0
   33.9830   19.7190   37.7060 H   0  0  0  0  0  0  0  0  0  0  0  0
   36.1430   20.1160   37.3450 H   0  0  0  0  0  0  0  0  0  0  0  0
   35.6590   21.8280   36.8520 H   0  0  0  0  0  0  0  0  0  0  0  0
   37.2340   21.9270   38.5810 H   0  0  0  0  0  0  0  0  0  0  0  0
   36.3340   20.8100   39.6460 H   0  0  0  0  0  0  0  0  0  0  0  0
  1  6  1  0  0  0  0
  1 10  1  0  0  0  0
  2  1  2  0  0  0  0
  3  4  2  0  0  0  0
  3  2  1  0  0  0  0
  4  5  1  0  0  0  0
  5  7  1  0  0  0  0
  5  6  2  0  0  0  0
  6 12  1  0  0  0  0
  8 13  1  6  0  0  0
  8  7  1  0  0  0  0
  9  4  1  0  0  0  0
  9  8  1  0  0  0  0
 11  3  1  0  0  0  0
 14 15  1  0  0  0  0
 15 16  1  0  0  0  0
 16 17  2  0  0  0  0
 16  8  1  0  0  0  0
 17 18  1  0  0  0  0
 19 20  1  0  0  0  0
 19 17  1  0  0  0  0
 21 19  2  0  0  0  0
 22 21  1  0  0  0  0
 23 15  2  0  0  0  0
 23 21  1  0  0  0  0
 24 23  1  0  0  0  0
 25 30  1  0  0  0  0
 25 31  1  0  0  0  0
 26 25  2  0  0  0  0
 27 28  2  0  0  0  0
 27 26  1  0  0  0  0
 28 29  1  0  0  0  0
 29  2  1  0  0  0  0
 29 30  2  0  0  0  0
 32 27  1  0  0  0  0
 33 34  1  0  0  0  0
 33 26  1  0  0  0  0
 34 40  1  0  0  0  0
 35 34  1  0  0  0  0
 35 42  1  0  0  0  0
 36 35  1  0  0  0  0
 37 36  1  0  0  0  0
 37 38  1  0  0  0  0
 38 33  1  0  0  0  0
 38 47  1  0  0  0  0
 39 34  1  0  0  0  0
 41 35  1  0  0  0  0
 43 36  1  0  0  0  0
 44 37  1  0  0  0  0
 45 37  1  0  0  0  0
 46 38  1  0  0  0  0
M  END
>  <minimizedAffinity>
-6.27933598

$$$$

 OpenBabel03242518273D

 47 51  0  0  1  0  0  0  0  0999 V2000
   35.7780   29.1650   40.3620 C   0  0  0  0  0  0  0  0  0  0  0  0
   35.7410   29.1980   39.0140 C   0  0  0  0  0  0  0  0  0  0  0  0
   36.3350   30.2710   38.3600 C   0  0  0  0  0  0  0  0  0  0  0  0
   36.9450   31.2730   39.0830 C   0  0  0  0  0  0  0  0  0  0  0  0
   36.9650   31.2100   40.4770 C   0  0  0  0  0  0  0  0  0  0  0  0
   36.3760   30.1470   41.1380 C   0  0  0  0  0  0  0  0  0  0  0  0
   37.6460   32.3550   40.9260 O   0  0  0  0  0  0  0  0  0  0  0  0
   37.6920   33.2770   39.8360 C   0  0  2  0  0  0  0  0  0  0  0  0
   37.6080   32.4450   38.7080 O   0  0  0  0  0  0  0  0  0  0  0  0
   35.3120   28.3270   40.8550 H   0  0  0  0  0  0  0  0  0  0  0  0
   36.3270   30.3320   37.2690 H   0  0  0  0  0  0  0  0  0  0  0  0
   36.3930   30.0990   42.2030 H   0  0  0  0  0  0  0  0  0  0  0  0
   36.7460   33.8820   39.8330 H   0  0  0  0  0  0  0  0  0  0  0  0
   40.3550   31.9180   39.5000 Cl  0  0  0  0  0  0  0  0  0  0  0  0
   40.1320   33.6470   39.7240 C   0  0  0  0  0  0  0  0  0  0  0  0
   38.8580   34.1630   39.8690 C   0  0  0  0  0  0  0  0  0  0  0  0
   38.6370   35.5070   40.0470 C   0  0  0  0  0  0  0  0  0  0  0  0
   37.6380   35.9030   40.1600 H   0  0  0  0  0  0  0  0  0  0  0  0
   39.7200   36.3610   40.0810 C   0  0  0  0  0  0  0  0  0  0  0  0
   39.5210   37.4260   40.2230 H   0  0  0  0  0  0  0  0  0  0  0  0
   40.9940   35.8510   39.9370 C   0  0  0  0  0  0  0  0  0  0  0  0
   41.8350   36.5430   39.9660 H   0  0  0  0  0  0  0  0  0  0  0  0
   41.2380   34.5040   39.7570 C   0  0  0  0  0  0  0  0  0  0  0  0
   42.8630   33.8740   39.5760 Cl  0  0  0  0  0  0  0  0  0  0  0  0
   33.4330   27.3640   36.7810 C   0  0  0  0  0  0  0  0  0  0  0  0
   33.9440   26.0800   36.8090 C   0  0  0  0  0  0  0  0  0  0  0  0
   35.0760   25.8610   37.5950 C   0  0  0  0  0  0  0  0  0  0  0  0
   35.6240   26.8890   38.2890 N   0  0  0  0  0  0  0  0  0  0  0  0
   35.0930   28.1320   38.2350 C   0  0  0  0  0  0  0  0  0  0  0  0
   34.0090   28.3590   37.4870 N   0  0  0  0  0  0  0  0  0  0  0  0
   32.5460   27.5910   36.1800 H   0  0  0  0  0  0  0  0  0  0  0  0
   35.4650   24.8500   37.6070 H   0  0  0  0  0  0  0  0  0  0  0  0
   33.2740   25.1090   36.0390 N   0  0  0  0  0  0  0  0  0  0  0  0
   32.3020   24.2860   36.6900 C   0  0  0  0  0  0  0  0  0  0  0  0
   31.7130   23.2440   35.8130 C   0  0  0  0  0  0  0  0  0  0  0  0
   31.2870   23.7550   34.5430 N   0  0  0  0  0  0  0  0  0  0  0  0
   32.1140   24.7190   33.9300 C   0  0  0  0  0  0  0  0  0  0  0  0
   33.4580   24.8400   34.6360 C   0  0  0  0  0  0  0  0  0  0  0  0
   31.4770   24.9220   37.0910 H   0  0  0  0  0  0  0  0  0  0  0  0
   32.8310   23.7690   37.5290 H   0  0  0  0  0  0  0  0  0  0  0  0
   30.7950   22.8500   36.3300 H   0  0  0  0  0  0  0  0  0  0  0  0
   32.4150   22.4150   35.6900 H   0  0  0  0  0  0  0  0  0  0  0  0
   31.0710   22.9490   33.9150 H   0  0  0  0  0  0  0  0  0  0  0  0
   32.3220   24.4680   32.8750 H   0  0  0  0  0  0  0  0  0  0  0  0
   31.6260   25.7170   34.0420 H   0  0  0  0  0  0  0  0  0  0  0  0
   33.9640   25.7370   34.1740 H   0  0  0  0  0  0  0  0  0  0  0  0
   34.0990   23.9740   34.4270 H   0  0  0  0  0  0  0  0  0  0  0  0
  1 10  1  0  0  0  0
  1  6  1  0  0  0  0
  2  1  2  0  0  0  0
  3  2  1  0  0  0  0
  3  4  2  0  0  0  0
  4  5  1  0  0  0  0
  5  7  1  0  0  0  0
  5  6  2  0  0  0  0
  6 12  1  0  0  0  0
  8 13  1  1  0  0  0
  8 16  1  0  0  0  0
  8  7  1  0  0  0  0
  9  4  1  0  0  0  0
  9  8  1  0  0  0  0
 11  3  1  0  0  0  0
 14 15  1  0  0  0  0
 15 23  2  0  0  0  0
 15 16  1  0  0  0  0
 16 17  2  0  0  0  0
 17 19  1  0  0  0  0
 17 18  1  0  0  0  0
 19 20  1  0  0  0  0
 21 22  1  0  0  0  0
 21 19  2  0  0  0  0
 23 21  1  0  0  0  0
 24 23  1  0  0  0  0
 25 26  2  0  0  0  0
 25 30  1  0  0  0  0
 26 27  1  0  0  0  0
 27 32  1  0  0  0  0
 27 28  2  0  0  0  0
 29 28  1  0  0  0  0
 29  2  1  0  0  0  0
 30 29  2  0  0  0  0
 31 25  1  0  0  0  0
 33 34  1  0  0  0  0
 33 26  1  0  0  0  0
 34 39  1  0  0  0  0
 34 40  1  0  0  0  0
 35 41  1  0  0  0  0
 35 34  1  0  0  0  0
 36 35  1  0  0  0  0
 37 45  1  0  0  0  0
 37 36  1  0  0  0  0
 37 38  1  0  0  0  0
 38 33  1  0  0  0  0
 42 35  1  0  0  0  0
 43 36  1  0  0  0  0
 44 37  1  0  0  0  0
 46 38  1  0  0  0  0
 47 38  1  0  0  0  0
M  END
>  <minimizedAffinity>
-6.13188505

$$$$
