
 OpenBabel03242520043D

 41 44  0  0  1  0  0  0  0  0999 V2000
   37.6750   28.8130   39.8290 N   0  0  0  0  0  0  0  0  0  0  0  0
   36.9690   29.9880   39.5240 C   0  0  1  0  0  0  0  0  0  0  0  0
   35.7460   30.0710   40.4110 C   0  0  0  0  0  0  0  0  0  0  0  0
   36.2710   30.2220   41.7710 N   0  0  0  0  0  0  0  0  0  0  0  0
   36.9500   29.0280   42.1890 C   0  0  0  0  0  0  0  0  0  0  0  0
   37.8530   28.4200   41.1810 C   0  0  1  0  0  0  0  0  0  0  0  0
   38.5600   28.7500   39.3190 H   0  0  0  0  0  0  0  0  0  0  0  0
   36.5930   29.9020   38.4730 H   0  0  0  0  0  0  0  0  0  0  0  0
   35.1490   29.1340   40.3560 H   0  0  0  0  0  0  0  0  0  0  0  0
   35.1510   30.9730   40.2180 H   0  0  0  0  0  0  0  0  0  0  0  0
   35.5170   30.4350   42.4370 H   0  0  0  0  0  0  0  0  0  0  0  0
   37.4610   29.2490   43.1540 H   0  0  0  0  0  0  0  0  0  0  0  0
   36.1580   28.2790   42.4430 H   0  0  0  0  0  0  0  0  0  0  0  0
   38.9060   28.6830   41.4620 H   0  0  0  0  0  0  0  0  0  0  0  0
   39.7160   27.1620   43.0850 Cl  0  0  0  0  0  0  0  0  0  0  0  0
   38.5800   26.2300   42.1000 C   0  0  0  0  0  0  0  0  0  0  0  0
   37.7400   26.9300   41.2270 C   0  0  0  0  0  0  0  0  0  0  0  0
   36.8350   26.2370   40.4360 C   0  0  0  0  0  0  0  0  0  0  0  0
   36.1850   26.7620   39.7650 H   0  0  0  0  0  0  0  0  0  0  0  0
   36.7500   24.8490   40.5000 C   0  0  0  0  0  0  0  0  0  0  0  0
   36.0470   24.2830   39.8880 H   0  0  0  0  0  0  0  0  0  0  0  0
   37.5930   24.2120   41.3680 C   0  0  0  0  0  0  0  0  0  0  0  0
   37.5730   23.1280   41.4610 H   0  0  0  0  0  0  0  0  0  0  0  0
   38.5040   24.8440   42.1700 C   0  0  0  0  0  0  0  0  0  0  0  0
   39.5850   24.0110   43.2860 Cl  0  0  0  0  0  0  0  0  0  0  0  0
   39.4260   32.4390   40.2750 C   0  0  0  0  0  0  0  0  0  0  0  0
   38.3810   33.2700   39.9290 C   0  0  0  0  0  0  0  0  0  0  0  0
   37.3240   32.4830   39.6020 C   0  0  0  0  0  0  0  0  0  0  0  0
   37.7060   31.2020   39.7420 N   0  0  0  0  0  0  0  0  0  0  0  0
   38.9760   31.1940   40.1500 N   0  0  0  0  0  0  0  0  0  0  0  0
   38.4670   34.3590   39.9410 H   0  0  0  0  0  0  0  0  0  0  0  0
   36.3570   32.8220   39.2870 H   0  0  0  0  0  0  0  0  0  0  0  0
   42.5460   34.3490   40.6560 C   0  0  0  0  0  0  0  0  0  0  0  0
   43.2960   33.5540   41.5460 C   0  0  0  0  0  0  0  0  0  0  0  0
   42.6980   32.3740   41.9910 C   0  0  0  0  0  0  0  0  0  0  0  0
   41.4570   32.0680   41.5520 N   0  0  0  0  0  0  0  0  0  0  0  0
   40.7650   32.8520   40.6980 C   0  0  0  0  0  0  0  0  0  0  0  0
   41.3150   33.9920   40.2530 N   0  0  0  0  0  0  0  0  0  0  0  0
   42.9050   35.2840   40.2430 H   0  0  0  0  0  0  0  0  0  0  0  0
   44.2900   33.9020   41.8330 H   0  0  0  0  0  0  0  0  0  0  0  0
   43.2650   31.7580   42.6750 H   0  0  0  0  0  0  0  0  0  0  0  0
  1  6  1  0  0  0  0
  2  8  1  6  0  0  0
  2 29  1  0  0  0  0
  2  1  1  0  0  0  0
  2  3  1  0  0  0  0
  3  4  1  0  0  0  0
  4  5  1  0  0  0  0
  4 11  1  0  0  0  0
  5 13  1  0  0  0  0
  5 12  1  0  0  0  0
  6 17  1  0  0  0  0
  6 14  1  1  0  0  0
  6  5  1  0  0  0  0
  7  1  1  0  0  0  0
  9  3  1  0  0  0  0
 10  3  1  0  0  0  0
 16 24  1  0  0  0  0
 16 15  1  0  0  0  0
 17 16  2  0  0  0  0
 18 20  2  0  0  0  0
 18 17  1  0  0  0  0
 19 18  1  0  0  0  0
 20 22  1  0  0  0  0
 21 20  1  0  0  0  0
 22 23  1  0  0  0  0
 22 24  2  0  0  0  0
 24 25  1  0  0  0  0
 26 37  1  0  0  0  0
 27 31  1  0  0  0  0
 27 26  1  0  0  0  0
 28 29  1  0  0  0  0
 28 27  2  0  0  0  0
 29 30  1  0  0  0  0
 30 26  2  0  0  0  0
 32 28  1  0  0  0  0
 33 34  1  0  0  0  0
 34 40  1  0  0  0  0
 34 35  2  0  0  0  0
 35 41  1  0  0  0  0
 36 35  1  0  0  0  0
 37 36  2  0  0  0  0
 38 33  2  0  0  0  0
 38 37  1  0  0  0  0
 39 33  1  0  0  0  0
M  END
>  <minimizedAffinity>
-6.10050964

$$$$

 OpenBabel03242520043D

 41 44  0  0  1  0  0  0  0  0999 V2000
   38.0190   28.1240   40.3070 N   0  0  0  0  0  0  0  0  0  0  0  0
   36.9420   28.9420   39.9270 C   0  0  1  0  0  0  0  0  0  0  0  0
   35.9580   29.0210   41.0740 C   0  0  0  0  0  0  0  0  0  0  0  0
   36.6750   29.7190   42.1450 N   0  0  0  0  0  0  0  0  0  0  0  0
   37.7560   28.9140   42.6410 C   0  0  0  0  0  0  0  0  0  0  0  0
   38.5770   28.2400   41.6060 C   0  0  1  0  0  0  0  0  0  0  0  0
   38.7590   28.1060   39.6000 H   0  0  0  0  0  0  0  0  0  0  0  0
   36.4060   28.4370   39.0840 H   0  0  0  0  0  0  0  0  0  0  0  0
   35.6760   28.0050   41.4290 H   0  0  0  0  0  0  0  0  0  0  0  0
   35.0900   29.6500   40.8350 H   0  0  0  0  0  0  0  0  0  0  0  0
   36.0430   29.9540   42.9200 H   0  0  0  0  0  0  0  0  0  0  0  0
   38.3580   29.5460   43.3330 H   0  0  0  0  0  0  0  0  0  0  0  0
   37.2980   28.1250   43.2900 H   0  0  0  0  0  0  0  0  0  0  0  0
   39.5350   28.8140   41.5010 H   0  0  0  0  0  0  0  0  0  0  0  0
   41.4310   27.9290   42.2720 Cl  0  0  0  0  0  0  0  0  0  0  0  0
   40.2680   26.6030   42.4000 C   0  0  0  0  0  0  0  0  0  0  0  0
   38.9370   26.8610   42.0580 C   0  0  0  0  0  0  0  0  0  0  0  0
   37.9930   25.8470   42.1450 C   0  0  0  0  0  0  0  0  0  0  0  0
   36.9690   26.0320   41.8860 H   0  0  0  0  0  0  0  0  0  0  0  0
   38.3540   24.5710   42.5690 C   0  0  0  0  0  0  0  0  0  0  0  0
   37.6310   23.7600   42.6450 H   0  0  0  0  0  0  0  0  0  0  0  0
   39.6670   24.3710   42.8920 C   0  0  0  0  0  0  0  0  0  0  0  0
   40.0100   23.3940   43.2300 H   0  0  0  0  0  0  0  0  0  0  0  0
   40.6400   25.3310   42.8250 C   0  0  0  0  0  0  0  0  0  0  0  0
   42.3300   25.0600   43.2430 Cl  0  0  0  0  0  0  0  0  0  0  0  0
   38.6350   31.9970   39.2850 C   0  0  0  0  0  0  0  0  0  0  0  0
   37.3360   32.4150   39.0830 C   0  0  0  0  0  0  0  0  0  0  0  0
   36.5260   31.3460   39.2920 C   0  0  0  0  0  0  0  0  0  0  0  0
   37.3030   30.2970   39.6130 N   0  0  0  0  0  0  0  0  0  0  0  0
   38.5710   30.7070   39.6060 N   0  0  0  0  0  0  0  0  0  0  0  0
   37.0860   33.4410   38.8070 H   0  0  0  0  0  0  0  0  0  0  0  0
   35.4570   31.3380   39.2130 H   0  0  0  0  0  0  0  0  0  0  0  0
   41.3590   34.3480   40.0450 C   0  0  0  0  0  0  0  0  0  0  0  0
   42.1320   34.3270   38.8660 C   0  0  0  0  0  0  0  0  0  0  0  0
   41.6860   33.4970   37.8370 C   0  0  0  0  0  0  0  0  0  0  0  0
   40.5610   32.7730   38.0270 N   0  0  0  0  0  0  0  0  0  0  0  0
   39.8430   32.8160   39.1700 C   0  0  0  0  0  0  0  0  0  0  0  0
   40.2470   33.6060   40.1760 N   0  0  0  0  0  0  0  0  0  0  0  0
   41.6050   34.9530   40.9090 H   0  0  0  0  0  0  0  0  0  0  0  0
   43.0240   34.9550   38.8260 H   0  0  0  0  0  0  0  0  0  0  0  0
   42.2720   33.4740   36.9290 H   0  0  0  0  0  0  0  0  0  0  0  0
  1  6  1  0  0  0  0
  2  8  1  6  0  0  0
  2  1  1  0  0  0  0
  2  3  1  0  0  0  0
  3  9  1  0  0  0  0
  3  4  1  0  0  0  0
  4  5  1  0  0  0  0
  4 11  1  0  0  0  0
  5 13  1  0  0  0  0
  5 12  1  0  0  0  0
  6 14  1  6  0  0  0
  6 17  1  0  0  0  0
  6  5  1  0  0  0  0
  7  1  1  0  0  0  0
 10  3  1  0  0  0  0
 15 16  1  0  0  0  0
 16 24  1  0  0  0  0
 17 18  1  0  0  0  0
 17 16  2  0  0  0  0
 18 20  2  0  0  0  0
 19 18  1  0  0  0  0
 20 21  1  0  0  0  0
 20 22  1  0  0  0  0
 22 23  1  0  0  0  0
 24 22  2  0  0  0  0
 24 25  1  0  0  0  0
 26 30  2  0  0  0  0
 27 26  1  0  0  0  0
 27 28  2  0  0  0  0
 28 29  1  0  0  0  0
 29  2  1  0  0  0  0
 30 29  1  0  0  0  0
 31 27  1  0  0  0  0
 32 28  1  0  0  0  0
 33 38  1  0  0  0  0
 33 39  1  0  0  0  0
 34 33  2  0  0  0  0
 35 36  2  0  0  0  0
 35 34  1  0  0  0  0
 36 37  1  0  0  0  0
 37 26  1  0  0  0  0
 37 38  2  0  0  0  0
 40 34  1  0  0  0  0
 41 35  1  0  0  0  0
M  END
>  <minimizedAffinity>
-6.00893497

$$$$

 OpenBabel03242520043D

 41 44  0  0  1  0  0  0  0  0999 V2000
   38.8200   28.7380   41.2650 N   0  0  0  0  0  0  0  0  0  0  0  0
   39.0010   28.0870   42.4970 C   0  0  1  0  0  0  0  0  0  0  0  0
   37.9180   28.5390   43.4530 C   0  0  0  0  0  0  0  0  0  0  0  0
   36.6670   28.0390   42.8770 N   0  0  0  0  0  0  0  0  0  0  0  0
   36.3720   28.7100   41.6430 C   0  0  0  0  0  0  0  0  0  0  0  0
   37.5190   28.8800   40.7190 C   0  0  1  0  0  0  0  0  0  0  0  0
   39.4740   28.4020   40.5520 H   0  0  0  0  0  0  0  0  0  0  0  0
   39.9720   28.4330   42.9310 H   0  0  0  0  0  0  0  0  0  0  0  0
   37.8730   29.6490   43.5090 H   0  0  0  0  0  0  0  0  0  0  0  0
   38.0070   28.0610   44.4380 H   0  0  0  0  0  0  0  0  0  0  0  0
   35.8830   28.1670   43.5300 H   0  0  0  0  0  0  0  0  0  0  0  0
   35.5070   28.1880   41.1730 H   0  0  0  0  0  0  0  0  0  0  0  0
   35.9880   29.7260   41.9130 H   0  0  0  0  0  0  0  0  0  0  0  0
   37.4210   28.1150   39.9050 H   0  0  0  0  0  0  0  0  0  0  0  0
   37.5560   28.7660   37.7740 Cl  0  0  0  0  0  0  0  0  0  0  0  0
   37.4680   30.2870   38.6720 C   0  0  0  0  0  0  0  0  0  0  0  0
   37.4570   30.2260   40.0700 C   0  0  0  0  0  0  0  0  0  0  0  0
   37.3880   31.3970   40.8120 C   0  0  0  0  0  0  0  0  0  0  0  0
   37.3780   31.3630   41.8830 H   0  0  0  0  0  0  0  0  0  0  0  0
   37.3300   32.6370   40.1820 C   0  0  0  0  0  0  0  0  0  0  0  0
   37.2760   33.5690   40.7440 H   0  0  0  0  0  0  0  0  0  0  0  0
   37.3440   32.6430   38.8150 C   0  0  0  0  0  0  0  0  0  0  0  0
   37.3010   33.5820   38.2670 H   0  0  0  0  0  0  0  0  0  0  0  0
   37.4110   31.5220   38.0340 C   0  0  0  0  0  0  0  0  0  0  0  0
   37.4280   31.5430   36.2710 Cl  0  0  0  0  0  0  0  0  0  0  0  0
   38.3150   24.7130   41.6270 C   0  0  0  0  0  0  0  0  0  0  0  0
   39.0520   24.5020   42.7750 C   0  0  0  0  0  0  0  0  0  0  0  0
   39.4100   25.7180   43.2590 C   0  0  0  0  0  0  0  0  0  0  0  0
   38.9080   26.6540   42.4340 N   0  0  0  0  0  0  0  0  0  0  0  0
   38.2500   26.0300   41.4560 N   0  0  0  0  0  0  0  0  0  0  0  0
   39.2650   23.5030   43.1600 H   0  0  0  0  0  0  0  0  0  0  0  0
   39.9890   25.9020   44.1420 H   0  0  0  0  0  0  0  0  0  0  0  0
   37.8180   21.6260   39.6910 C   0  0  0  0  0  0  0  0  0  0  0  0
   36.5290   21.8000   39.1460 C   0  0  0  0  0  0  0  0  0  0  0  0
   35.8670   22.9850   39.4650 C   0  0  0  0  0  0  0  0  0  0  0  0
   36.4860   23.8810   40.2640 N   0  0  0  0  0  0  0  0  0  0  0  0
   37.7220   23.6840   40.7710 C   0  0  0  0  0  0  0  0  0  0  0  0
   38.3830   22.5540   40.4800 N   0  0  0  0  0  0  0  0  0  0  0  0
   38.4280   20.7490   39.5140 H   0  0  0  0  0  0  0  0  0  0  0  0
   36.1290   21.0060   38.5120 H   0  0  0  0  0  0  0  0  0  0  0  0
   34.8780   23.1270   39.0520 H   0  0  0  0  0  0  0  0  0  0  0  0
  1  2  1  0  0  0  0
  2  8  1  1  0  0  0
  2  3  1  0  0  0  0
  3  9  1  0  0  0  0
  3 10  1  0  0  0  0
  4  3  1  0  0  0  0
  4 11  1  0  0  0  0
  5 13  1  0  0  0  0
  5  4  1  0  0  0  0
  6 14  1  6  0  0  0
  6  1  1  0  0  0  0
  6  5  1  0  0  0  0
  7  1  1  0  0  0  0
 12  5  1  0  0  0  0
 15 16  1  0  0  0  0
 16 17  1  0  0  0  0
 17  6  1  0  0  0  0
 17 18  2  0  0  0  0
 18 19  1  0  0  0  0
 20 21  1  0  0  0  0
 20 18  1  0  0  0  0
 22 20  2  0  0  0  0
 23 22  1  0  0  0  0
 24 16  2  0  0  0  0
 24 22  1  0  0  0  0
 25 24  1  0  0  0  0
 26 27  1  0  0  0  0
 27 31  1  0  0  0  0
 27 28  2  0  0  0  0
 28 32  1  0  0  0  0
 29  2  1  0  0  0  0
 29 28  1  0  0  0  0
 30 26  2  0  0  0  0
 30 29  1  0  0  0  0
 33 38  1  0  0  0  0
 34 35  1  0  0  0  0
 34 33  2  0  0  0  0
 35 36  2  0  0  0  0
 36 37  1  0  0  0  0
 37 26  1  0  0  0  0
 38 37  2  0  0  0  0
 39 33  1  0  0  0  0
 40 34  1  0  0  0  0
 41 35  1  0  0  0  0
M  END
>  <minimizedAffinity>
-5.72748852

$$$$

 OpenBabel03242520043D

 41 44  0  0  1  0  0  0  0  0999 V2000
   38.4330   29.7840   39.5190 N   0  0  0  0  0  0  0  0  0  0  0  0
   37.9940   31.0090   38.9910 C   0  0  1  0  0  0  0  0  0  0  0  0
   36.5740   31.2610   39.4520 C   0  0  0  0  0  0  0  0  0  0  0  0
   36.6680   31.4230   40.9060 N   0  0  0  0  0  0  0  0  0  0  0  0
   37.0450   30.1870   41.5310 C   0  0  0  0  0  0  0  0  0  0  0  0
   38.1400   29.4410   40.8630 C   0  0  1  0  0  0  0  0  0  0  0  0
   39.4200   29.6050   39.3100 H   0  0  0  0  0  0  0  0  0  0  0  0
   37.9530   30.9110   37.8770 H   0  0  0  0  0  0  0  0  0  0  0  0
   35.9210   30.3890   39.2260 H   0  0  0  0  0  0  0  0  0  0  0  0
   36.1750   32.2090   39.0700 H   0  0  0  0  0  0  0  0  0  0  0  0
   35.7740   31.7440   41.2990 H   0  0  0  0  0  0  0  0  0  0  0  0
   37.2550   30.4010   42.6040 H   0  0  0  0  0  0  0  0  0  0  0  0
   36.1340   29.5370   41.5360 H   0  0  0  0  0  0  0  0  0  0  0  0
   39.0780   29.6070   41.4550 H   0  0  0  0  0  0  0  0  0  0  0  0
   39.7550   27.9670   42.8380 Cl  0  0  0  0  0  0  0  0  0  0  0  0
   38.5630   27.1780   41.7970 C   0  0  0  0  0  0  0  0  0  0  0  0
   37.8510   27.9750   40.8930 C   0  0  0  0  0  0  0  0  0  0  0  0
   36.9060   27.3950   40.0580 C   0  0  0  0  0  0  0  0  0  0  0  0
   36.3530   27.9940   39.3630 H   0  0  0  0  0  0  0  0  0  0  0  0
   36.6560   26.0260   40.1080 C   0  0  0  0  0  0  0  0  0  0  0  0
   35.9190   25.5490   39.4620 H   0  0  0  0  0  0  0  0  0  0  0  0
   37.3780   25.2930   41.0070 C   0  0  0  0  0  0  0  0  0  0  0  0
   37.2270   24.2180   41.0910 H   0  0  0  0  0  0  0  0  0  0  0  0
   38.3210   25.8100   41.8530 C   0  0  0  0  0  0  0  0  0  0  0  0
   39.2460   24.8530   43.0090 Cl  0  0  0  0  0  0  0  0  0  0  0  0
   40.5510   33.2780   39.9540 C   0  0  0  0  0  0  0  0  0  0  0  0
   39.4590   34.1140   40.0620 C   0  0  0  0  0  0  0  0  0  0  0  0
   38.3590   33.3950   39.7220 C   0  0  0  0  0  0  0  0  0  0  0  0
   38.7600   32.1490   39.4120 N   0  0  0  0  0  0  0  0  0  0  0  0
   40.0840   32.0960   39.5580 N   0  0  0  0  0  0  0  0  0  0  0  0
   39.5460   35.1570   40.3720 H   0  0  0  0  0  0  0  0  0  0  0  0
   37.3490   33.7550   39.7020 H   0  0  0  0  0  0  0  0  0  0  0  0
   44.1320   33.9880   39.5130 C   0  0  0  0  0  0  0  0  0  0  0  0
   44.5560   34.2940   40.8220 C   0  0  0  0  0  0  0  0  0  0  0  0
   43.5870   34.2450   41.8240 C   0  0  0  0  0  0  0  0  0  0  0  0
   42.3210   33.9150   41.4880 N   0  0  0  0  0  0  0  0  0  0  0  0
   41.9470   33.6270   40.2240 C   0  0  0  0  0  0  0  0  0  0  0  0
   42.8570   33.6650   39.2400 N   0  0  0  0  0  0  0  0  0  0  0  0
   44.7930   33.9920   38.6550 H   0  0  0  0  0  0  0  0  0  0  0  0
   45.6070   34.5480   40.9750 H   0  0  0  0  0  0  0  0  0  0  0  0
   43.9030   34.4790   42.8310 H   0  0  0  0  0  0  0  0  0  0  0  0
  1  6  1  0  0  0  0
  2  8  1  6  0  0  0
  2 29  1  0  0  0  0
  2  3  1  0  0  0  0
  2  1  1  0  0  0  0
  3  4  1  0  0  0  0
  4 11  1  0  0  0  0
  4  5  1  0  0  0  0
  5 13  1  0  0  0  0
  5 12  1  0  0  0  0
  6 17  1  0  0  0  0
  6 14  1  1  0  0  0
  6  5  1  0  0  0  0
  7  1  1  0  0  0  0
  9  3  1  0  0  0  0
 10  3  1  0  0  0  0
 16 24  1  0  0  0  0
 16 15  1  0  0  0  0
 17 16  2  0  0  0  0
 18 20  2  0  0  0  0
 18 17  1  0  0  0  0
 19 18  1  0  0  0  0
 20 22  1  0  0  0  0
 21 20  1  0  0  0  0
 22 23  1  0  0  0  0
 22 24  2  0  0  0  0
 24 25  1  0  0  0  0
 26 27  1  0  0  0  0
 26 37  1  0  0  0  0
 27 31  1  0  0  0  0
 28 27  2  0  0  0  0
 29 30  1  0  0  0  0
 29 28  1  0  0  0  0
 30 26  2  0  0  0  0
 32 28  1  0  0  0  0
 33 34  1  0  0  0  0
 34 40  1  0  0  0  0
 34 35  2  0  0  0  0
 35 41  1  0  0  0  0
 36 35  1  0  0  0  0
 37 36  2  0  0  0  0
 38 33  2  0  0  0  0
 38 37  1  0  0  0  0
 39 33  1  0  0  0  0
M  END
>  <minimizedAffinity>
-5.65131187

$$$$

 OpenBabel03242520043D

 41 44  0  0  1  0  0  0  0  0999 V2000
   39.4170   31.9320   40.1020 N   0  0  0  0  0  0  0  0  0  0  0  0
   38.0790   32.0830   40.5010 C   0  0  1  0  0  0  0  0  0  0  0  0
   37.3170   32.7960   39.4040 C   0  0  0  0  0  0  0  0  0  0  0  0
   37.3290   31.8690   38.2680 N   0  0  0  0  0  0  0  0  0  0  0  0
   38.6610   31.7140   37.7530 C   0  0  0  0  0  0  0  0  0  0  0  0
   39.7240   31.5450   38.7720 C   0  0  1  0  0  0  0  0  0  0  0  0
   39.9590   31.3760   40.7700 H   0  0  0  0  0  0  0  0  0  0  0  0
   38.0580   32.7600   41.3920 H   0  0  0  0  0  0  0  0  0  0  0  0
   37.8310   33.7370   39.1080 H   0  0  0  0  0  0  0  0  0  0  0  0
   36.2600   32.9430   39.6590 H   0  0  0  0  0  0  0  0  0  0  0  0
   36.7100   32.1990   37.5160 H   0  0  0  0  0  0  0  0  0  0  0  0
   38.6390   30.8900   37.0040 H   0  0  0  0  0  0  0  0  0  0  0  0
   38.8870   32.6380   37.1630 H   0  0  0  0  0  0  0  0  0  0  0  0
   40.0000   30.4580   38.8030 H   0  0  0  0  0  0  0  0  0  0  0  0
   41.7280   29.8780   37.3970 Cl  0  0  0  0  0  0  0  0  0  0  0  0
   41.9650   31.6040   37.7020 C   0  0  0  0  0  0  0  0  0  0  0  0
   40.9480   32.3000   38.3630 C   0  0  0  0  0  0  0  0  0  0  0  0
   41.0950   33.6560   38.6210 C   0  0  0  0  0  0  0  0  0  0  0  0
   40.3220   34.2010   39.1270 H   0  0  0  0  0  0  0  0  0  0  0  0
   42.2450   34.3360   38.2290 C   0  0  0  0  0  0  0  0  0  0  0  0
   42.3820   35.4000   38.4210 H   0  0  0  0  0  0  0  0  0  0  0  0
   43.2080   33.6100   37.5860 C   0  0  0  0  0  0  0  0  0  0  0  0
   44.1300   34.0860   37.2550 H   0  0  0  0  0  0  0  0  0  0  0  0
   43.1180   32.2730   37.3060 C   0  0  0  0  0  0  0  0  0  0  0  0
   44.3680   31.3490   36.4760 Cl  0  0  0  0  0  0  0  0  0  0  0  0
   37.1580   28.7080   41.1120 C   0  0  0  0  0  0  0  0  0  0  0  0
   35.9020   29.2750   41.0550 C   0  0  0  0  0  0  0  0  0  0  0  0
   36.0630   30.6020   40.8210 C   0  0  0  0  0  0  0  0  0  0  0  0
   37.3820   30.8490   40.7360 N   0  0  0  0  0  0  0  0  0  0  0  0
   38.0270   29.6950   40.9130 N   0  0  0  0  0  0  0  0  0  0  0  0
   34.9870   28.6920   41.1840 H   0  0  0  0  0  0  0  0  0  0  0  0
   35.2790   31.3270   40.7210 H   0  0  0  0  0  0  0  0  0  0  0  0
   38.5270   25.6150   42.5540 C   0  0  0  0  0  0  0  0  0  0  0  0
   38.0020   24.6140   41.7120 C   0  0  0  0  0  0  0  0  0  0  0  0
   37.1860   25.0400   40.6640 C   0  0  0  0  0  0  0  0  0  0  0  0
   36.9490   26.3630   40.5200 N   0  0  0  0  0  0  0  0  0  0  0  0
   37.4680   27.2970   41.3460 C   0  0  0  0  0  0  0  0  0  0  0  0
   38.2580   26.9160   42.3610 N   0  0  0  0  0  0  0  0  0  0  0  0
   39.1730   25.4060   43.3990 H   0  0  0  0  0  0  0  0  0  0  0  0
   38.2610   23.5750   41.9250 H   0  0  0  0  0  0  0  0  0  0  0  0
   36.7770   24.2810   40.0120 H   0  0  0  0  0  0  0  0  0  0  0  0
  1  2  1  0  0  0  0
  1  7  1  0  0  0  0
  2 29  1  0  0  0  0
  2  8  1  1  0  0  0
  3 10  1  0  0  0  0
  3  2  1  0  0  0  0
  4  3  1  0  0  0  0
  5  4  1  0  0  0  0
  5  6  1  0  0  0  0
  6 14  1  1  0  0  0
  6  1  1  0  0  0  0
  9  3  1  0  0  0  0
 11  4  1  0  0  0  0
 12  5  1  0  0  0  0
 13  5  1  0  0  0  0
 15 16  1  0  0  0  0
 16 17  1  0  0  0  0
 17 18  2  0  0  0  0
 17  6  1  0  0  0  0
 18 19  1  0  0  0  0
 20 21  1  0  0  0  0
 20 18  1  0  0  0  0
 22 20  2  0  0  0  0
 23 22  1  0  0  0  0
 24 22  1  0  0  0  0
 24 16  2  0  0  0  0
 25 24  1  0  0  0  0
 26 37  1  0  0  0  0
 27 26  1  0  0  0  0
 27 31  1  0  0  0  0
 28 27  2  0  0  0  0
 29 28  1  0  0  0  0
 29 30  1  0  0  0  0
 30 26  2  0  0  0  0
 32 28  1  0  0  0  0
 33 39  1  0  0  0  0
 34 40  1  0  0  0  0
 34 33  2  0  0  0  0
 35 34  1  0  0  0  0
 36 35  2  0  0  0  0
 36 37  1  0  0  0  0
 37 38  2  0  0  0  0
 38 33  1  0  0  0  0
 41 35  1  0  0  0  0
M  END
>  <minimizedAffinity>
-5.61538076

$$$$

 OpenBabel03242520043D

 41 44  0  0  1  0  0  0  0  0999 V2000
   36.9120   28.5260   41.2750 N   0  0  0  0  0  0  0  0  0  0  0  0
   37.4730   29.5550   42.0500 C   0  0  1  0  0  0  0  0  0  0  0  0
   38.7210   29.0340   42.7290 C   0  0  0  0  0  0  0  0  0  0  0  0
   39.6590   28.7520   41.6380 N   0  0  0  0  0  0  0  0  0  0  0  0
   39.1900   27.6570   40.8360 C   0  0  0  0  0  0  0  0  0  0  0  0
   37.7480   27.6880   40.4940 C   0  0  1  0  0  0  0  0  0  0  0  0
   36.1130   28.8500   40.7230 H   0  0  0  0  0  0  0  0  0  0  0  0
   36.7500   29.8060   42.8660 H   0  0  0  0  0  0  0  0  0  0  0  0
   38.5110   28.0900   43.2790 H   0  0  0  0  0  0  0  0  0  0  0  0
   39.2060   29.7970   43.3510 H   0  0  0  0  0  0  0  0  0  0  0  0
   40.5940   28.5300   42.0040 H   0  0  0  0  0  0  0  0  0  0  0  0
   39.8500   27.5890   39.9400 H   0  0  0  0  0  0  0  0  0  0  0  0
   39.3910   26.7230   41.4180 H   0  0  0  0  0  0  0  0  0  0  0  0
   37.6550   28.0320   39.4310 H   0  0  0  0  0  0  0  0  0  0  0  0
   36.5720   26.7750   37.9510 Cl  0  0  0  0  0  0  0  0  0  0  0  0
   36.5930   25.7740   39.4090 C   0  0  0  0  0  0  0  0  0  0  0  0
   37.1780   26.3070   40.5630 C   0  0  0  0  0  0  0  0  0  0  0  0
   37.2150   25.5540   41.7290 C   0  0  0  0  0  0  0  0  0  0  0  0
   37.6610   25.9510   42.6190 H   0  0  0  0  0  0  0  0  0  0  0  0
   36.6780   24.2710   41.7650 C   0  0  0  0  0  0  0  0  0  0  0  0
   36.6950   23.6620   42.6680 H   0  0  0  0  0  0  0  0  0  0  0  0
   36.1190   23.7960   40.6110 C   0  0  0  0  0  0  0  0  0  0  0  0
   35.6820   22.8000   40.5790 H   0  0  0  0  0  0  0  0  0  0  0  0
   36.0530   24.4930   39.4360 C   0  0  0  0  0  0  0  0  0  0  0  0
   35.3290   23.8700   37.9540 Cl  0  0  0  0  0  0  0  0  0  0  0  0
   39.2540   32.2110   40.5050 C   0  0  0  0  0  0  0  0  0  0  0  0
   37.9840   32.4980   40.0470 C   0  0  0  0  0  0  0  0  0  0  0  0
   37.1460   31.5580   40.5530 C   0  0  0  0  0  0  0  0  0  0  0  0
   37.8770   30.7140   41.3020 N   0  0  0  0  0  0  0  0  0  0  0  0
   39.1450   31.1230   41.2630 N   0  0  0  0  0  0  0  0  0  0  0  0
   37.7730   33.3490   39.3960 H   0  0  0  0  0  0  0  0  0  0  0  0
   36.0890   31.4970   40.3850 H   0  0  0  0  0  0  0  0  0  0  0  0
   41.7410   34.3410   38.8310 C   0  0  0  0  0  0  0  0  0  0  0  0
   42.8170   34.3450   39.7410 C   0  0  0  0  0  0  0  0  0  0  0  0
   42.6510   33.6070   40.9140 C   0  0  0  0  0  0  0  0  0  0  0  0
   41.4890   32.9450   41.1060 N   0  0  0  0  0  0  0  0  0  0  0  0
   40.4770   32.9610   40.2130 C   0  0  0  0  0  0  0  0  0  0  0  0
   40.6090   33.6610   39.0760 N   0  0  0  0  0  0  0  0  0  0  0  0
   41.7540   34.8750   37.8880 H   0  0  0  0  0  0  0  0  0  0  0  0
   43.7090   34.9190   39.4800 H   0  0  0  0  0  0  0  0  0  0  0  0
   43.4700   33.6050   41.6190 H   0  0  0  0  0  0  0  0  0  0  0  0
  1  2  1  0  0  0  0
  2  3  1  0  0  0  0
  2  8  1  1  0  0  0
  3  9  1  0  0  0  0
  3 10  1  0  0  0  0
  4 11  1  0  0  0  0
  4  3  1  0  0  0  0
  5 13  1  0  0  0  0
  5  4  1  0  0  0  0
  6 14  1  6  0  0  0
  6 17  1  0  0  0  0
  6  5  1  0  0  0  0
  6  1  1  0  0  0  0
  7  1  1  0  0  0  0
 12  5  1  0  0  0  0
 15 16  1  0  0  0  0
 16 24  2  0  0  0  0
 16 17  1  0  0  0  0
 17 18  2  0  0  0  0
 18 20  1  0  0  0  0
 18 19  1  0  0  0  0
 20 21  1  0  0  0  0
 22 20  2  0  0  0  0
 23 22  1  0  0  0  0
 24 22  1  0  0  0  0
 25 24  1  0  0  0  0
 26 30  2  0  0  0  0
 27 26  1  0  0  0  0
 27 28  2  0  0  0  0
 28 29  1  0  0  0  0
 29  2  1  0  0  0  0
 30 29  1  0  0  0  0
 31 27  1  0  0  0  0
 32 28  1  0  0  0  0
 33 38  2  0  0  0  0
 33 34  1  0  0  0  0
 34 35  2  0  0  0  0
 35 36  1  0  0  0  0
 35 41  1  0  0  0  0
 37 26  1  0  0  0  0
 37 36  2  0  0  0  0
 38 37  1  0  0  0  0
 39 33  1  0  0  0  0
 40 34  1  0  0  0  0
M  END
>  <minimizedAffinity>
-5.61297321

$$$$

 OpenBabel03242520043D

 41 44  0  0  1  0  0  0  0  0999 V2000
   39.2250   28.0040   41.2860 N   0  0  0  0  0  0  0  0  0  0  0  0
   39.3890   26.8570   42.0800 C   0  0  1  0  0  0  0  0  0  0  0  0
   39.0580   27.2030   43.5160 C   0  0  0  0  0  0  0  0  0  0  0  0
   37.6280   27.5250   43.5110 N   0  0  0  0  0  0  0  0  0  0  0  0
   37.3830   28.7330   42.7730 C   0  0  0  0  0  0  0  0  0  0  0  0
   38.1060   28.8530   41.4840 C   0  0  1  0  0  0  0  0  0  0  0  0
   39.3510   27.8040   40.2890 H   0  0  0  0  0  0  0  0  0  0  0  0
   40.4730   26.5770   42.0630 H   0  0  0  0  0  0  0  0  0  0  0  0
   39.6290   28.0960   43.8530 H   0  0  0  0  0  0  0  0  0  0  0  0
   39.1690   26.3420   44.1880 H   0  0  0  0  0  0  0  0  0  0  0  0
   37.2710   27.6330   44.4680 H   0  0  0  0  0  0  0  0  0  0  0  0
   36.2790   28.8450   42.6660 H   0  0  0  0  0  0  0  0  0  0  0  0
   37.7000   29.5810   43.4310 H   0  0  0  0  0  0  0  0  0  0  0  0
   37.3770   28.6320   40.6610 H   0  0  0  0  0  0  0  0  0  0  0  0
   36.2430   30.5130   39.9170 Cl  0  0  0  0  0  0  0  0  0  0  0  0
   37.7680   31.1340   40.5620 C   0  0  0  0  0  0  0  0  0  0  0  0
   38.5780   30.2580   41.2930 C   0  0  0  0  0  0  0  0  0  0  0  0
   39.7830   30.7070   41.8160 C   0  0  0  0  0  0  0  0  0  0  0  0
   40.4110   30.0450   42.3790 H   0  0  0  0  0  0  0  0  0  0  0  0
   40.1980   32.0210   41.6240 C   0  0  0  0  0  0  0  0  0  0  0  0
   41.1400   32.3950   42.0250 H   0  0  0  0  0  0  0  0  0  0  0  0
   39.3710   32.8370   40.9030 C   0  0  0  0  0  0  0  0  0  0  0  0
   39.6430   33.8740   40.7190 H   0  0  0  0  0  0  0  0  0  0  0  0
   38.1750   32.4490   40.3630 C   0  0  0  0  0  0  0  0  0  0  0  0
   37.1170   33.5110   39.4350 Cl  0  0  0  0  0  0  0  0  0  0  0  0
   37.0110   24.6830   40.5880 C   0  0  0  0  0  0  0  0  0  0  0  0
   37.4740   23.8530   41.5880 C   0  0  0  0  0  0  0  0  0  0  0  0
   38.4180   24.5380   42.2820 C   0  0  0  0  0  0  0  0  0  0  0  0
   38.5350   25.7570   41.7260 N   0  0  0  0  0  0  0  0  0  0  0  0
   37.6790   25.8270   40.7060 N   0  0  0  0  0  0  0  0  0  0  0  0
   37.0970   22.8380   41.7320 H   0  0  0  0  0  0  0  0  0  0  0  0
   38.9730   24.1740   43.1240 H   0  0  0  0  0  0  0  0  0  0  0  0
   34.8700   24.8000   37.6000 C   0  0  0  0  0  0  0  0  0  0  0  0
   34.0250   23.6850   37.7740 C   0  0  0  0  0  0  0  0  0  0  0  0
   34.2200   22.9210   38.9240 C   0  0  0  0  0  0  0  0  0  0  0  0
   35.1910   23.2870   39.7900 N   0  0  0  0  0  0  0  0  0  0  0  0
   35.9850   24.3620   39.5940 C   0  0  0  0  0  0  0  0  0  0  0  0
   35.8180   25.1150   38.4970 N   0  0  0  0  0  0  0  0  0  0  0  0
   34.8120   25.4660   36.7480 H   0  0  0  0  0  0  0  0  0  0  0  0
   33.2740   23.4860   37.0060 H   0  0  0  0  0  0  0  0  0  0  0  0
   33.5780   22.0640   39.0660 H   0  0  0  0  0  0  0  0  0  0  0  0
  1  6  1  0  0  0  0
  1  2  1  0  0  0  0
  2  8  1  6  0  0  0
  2  3  1  0  0  0  0
  3  9  1  0  0  0  0
  3 10  1  0  0  0  0
  4  3  1  0  0  0  0
  4 11  1  0  0  0  0
  5 13  1  0  0  0  0
  5  4  1  0  0  0  0
  6 14  1  6  0  0  0
  6  5  1  0  0  0  0
  7  1  1  0  0  0  0
 12  5  1  0  0  0  0
 15 16  1  0  0  0  0
 16 17  1  0  0  0  0
 17  6  1  0  0  0  0
 17 18  2  0  0  0  0
 18 19  1  0  0  0  0
 20 18  1  0  0  0  0
 20 21  1  0  0  0  0
 22 20  2  0  0  0  0
 23 22  1  0  0  0  0
 24 16  2  0  0  0  0
 24 22  1  0  0  0  0
 25 24  1  0  0  0  0
 26 30  2  0  0  0  0
 26 27  1  0  0  0  0
 27 31  1  0  0  0  0
 27 28  2  0  0  0  0
 28 32  1  0  0  0  0
 29  2  1  0  0  0  0
 29 28  1  0  0  0  0
 30 29  1  0  0  0  0
 33 34  2  0  0  0  0
 33 38  1  0  0  0  0
 34 35  1  0  0  0  0
 35 41  1  0  0  0  0
 35 36  2  0  0  0  0
 37 36  1  0  0  0  0
 37 26  1  0  0  0  0
 38 37  2  0  0  0  0
 39 33  1  0  0  0  0
 40 34  1  0  0  0  0
M  END
>  <minimizedAffinity>
-5.52677393

$$$$

 OpenBabel03242520043D

 41 44  0  0  1  0  0  0  0  0999 V2000
   36.2000   27.8000   40.5830 N   0  0  0  0  0  0  0  0  0  0  0  0
   36.9170   27.6960   41.7870 C   0  0  1  0  0  0  0  0  0  0  0  0
   37.7770   26.4520   41.7390 C   0  0  0  0  0  0  0  0  0  0  0  0
   38.7520   26.7030   40.6740 N   0  0  0  0  0  0  0  0  0  0  0  0
   38.1040   26.7530   39.3930 C   0  0  0  0  0  0  0  0  0  0  0  0
   36.8400   27.5270   39.3470 C   0  0  1  0  0  0  0  0  0  0  0  0
   35.6670   28.6730   40.5260 H   0  0  0  0  0  0  0  0  0  0  0  0
   36.1810   27.5410   42.6150 H   0  0  0  0  0  0  0  0  0  0  0  0
   37.1720   25.5580   41.4720 H   0  0  0  0  0  0  0  0  0  0  0  0
   38.3640   26.3170   42.6570 H   0  0  0  0  0  0  0  0  0  0  0  0
   39.4780   25.9750   40.6590 H   0  0  0  0  0  0  0  0  0  0  0  0
   38.8550   27.0990   38.6480 H   0  0  0  0  0  0  0  0  0  0  0  0
   37.8750   25.6950   39.1080 H   0  0  0  0  0  0  0  0  0  0  0  0
   37.0610   28.5160   38.8680 H   0  0  0  0  0  0  0  0  0  0  0  0
   35.1290   29.3660   37.8070 Cl  0  0  0  0  0  0  0  0  0  0  0  0
   34.9800   27.6070   37.7030 C   0  0  0  0  0  0  0  0  0  0  0  0
   35.8440   26.8270   38.4790 C   0  0  0  0  0  0  0  0  0  0  0  0
   35.7600   25.4430   38.4260 C   0  0  0  0  0  0  0  0  0  0  0  0
   36.4170   24.8350   39.0150 H   0  0  0  0  0  0  0  0  0  0  0  0
   34.8240   24.8170   37.6080 C   0  0  0  0  0  0  0  0  0  0  0  0
   34.7390   23.7320   37.5500 H   0  0  0  0  0  0  0  0  0  0  0  0
   34.0030   25.6230   36.8700 C   0  0  0  0  0  0  0  0  0  0  0  0
   33.2510   25.1910   36.2120 H   0  0  0  0  0  0  0  0  0  0  0  0
   34.0410   26.9910   36.8830 C   0  0  0  0  0  0  0  0  0  0  0  0
   32.9770   28.0200   35.9260 Cl  0  0  0  0  0  0  0  0  0  0  0  0
   38.7970   30.7070   41.6880 C   0  0  0  0  0  0  0  0  0  0  0  0
   39.2850   30.1780   42.8650 C   0  0  0  0  0  0  0  0  0  0  0  0
   38.6600   28.9900   43.0690 C   0  0  0  0  0  0  0  0  0  0  0  0
   37.8100   28.7910   42.0470 N   0  0  0  0  0  0  0  0  0  0  0  0
   37.9060   29.8360   41.2240 N   0  0  0  0  0  0  0  0  0  0  0  0
   40.0410   30.6860   43.4690 H   0  0  0  0  0  0  0  0  0  0  0  0
   38.8160   28.3280   43.8970 H   0  0  0  0  0  0  0  0  0  0  0  0
   38.6520   34.0310   40.1200 C   0  0  0  0  0  0  0  0  0  0  0  0
   40.0110   34.3490   39.9290 C   0  0  0  0  0  0  0  0  0  0  0  0
   40.9440   33.4000   40.3490 C   0  0  0  0  0  0  0  0  0  0  0  0
   40.4980   32.2530   40.9060 N   0  0  0  0  0  0  0  0  0  0  0  0
   39.1870   31.9780   41.0760 C   0  0  0  0  0  0  0  0  0  0  0  0
   38.2680   32.8710   40.6800 N   0  0  0  0  0  0  0  0  0  0  0  0
   37.8380   34.6860   39.8340 H   0  0  0  0  0  0  0  0  0  0  0  0
   40.2540   35.3080   39.4670 H   0  0  0  0  0  0  0  0  0  0  0  0
   41.9890   33.6350   40.2070 H   0  0  0  0  0  0  0  0  0  0  0  0
  1  2  1  0  0  0  0
  2 29  1  0  0  0  0
  2  8  1  1  0  0  0
  3  2  1  0  0  0  0
  3 10  1  0  0  0  0
  4  3  1  0  0  0  0
  5  4  1  0  0  0  0
  6 14  1  6  0  0  0
  6  5  1  0  0  0  0
  6  1  1  0  0  0  0
  7  1  1  0  0  0  0
  9  3  1  0  0  0  0
 11  4  1  0  0  0  0
 12  5  1  0  0  0  0
 13  5  1  0  0  0  0
 16 15  1  0  0  0  0
 16 17  1  0  0  0  0
 17  6  1  0  0  0  0
 18 17  2  0  0  0  0
 18 19  1  0  0  0  0
 20 18  1  0  0  0  0
 21 20  1  0  0  0  0
 22 24  1  0  0  0  0
 22 20  2  0  0  0  0
 23 22  1  0  0  0  0
 24 16  2  0  0  0  0
 25 24  1  0  0  0  0
 26 27  1  0  0  0  0
 27 28  2  0  0  0  0
 27 31  1  0  0  0  0
 28 32  1  0  0  0  0
 29 28  1  0  0  0  0
 30 26  2  0  0  0  0
 30 29  1  0  0  0  0
 33 38  1  0  0  0  0
 34 33  2  0  0  0  0
 34 35  1  0  0  0  0
 35 36  2  0  0  0  0
 36 37  1  0  0  0  0
 37 26  1  0  0  0  0
 38 37  2  0  0  0  0
 39 33  1  0  0  0  0
 40 34  1  0  0  0  0
 41 35  1  0  0  0  0
M  END
>  <minimizedAffinity>
-5.41484451

$$$$

 OpenBabel03242520043D

 41 44  0  0  1  0  0  0  0  0999 V2000
   37.3230   28.9170   39.1230 N   0  0  0  0  0  0  0  0  0  0  0  0
   36.7890   30.2170   39.1290 C   0  0  1  0  0  0  0  0  0  0  0  0
   35.4740   30.2040   39.8780 C   0  0  0  0  0  0  0  0  0  0  0  0
   35.8260   29.8720   41.2620 N   0  0  0  0  0  0  0  0  0  0  0  0
   36.3170   28.5260   41.3530 C   0  0  0  0  0  0  0  0  0  0  0  0
   37.2780   28.1240   40.2970 C   0  0  1  0  0  0  0  0  0  0  0  0
   38.2570   28.8860   38.7040 H   0  0  0  0  0  0  0  0  0  0  0  0
   36.5490   30.4970   38.0720 H   0  0  0  0  0  0  0  0  0  0  0  0
   34.7960   29.4170   39.4800 H   0  0  0  0  0  0  0  0  0  0  0  0
   35.0070   31.1960   39.9170 H   0  0  0  0  0  0  0  0  0  0  0  0
   35.0170   29.9820   41.8850 H   0  0  0  0  0  0  0  0  0  0  0  0
   36.7150   28.3810   42.3830 H   0  0  0  0  0  0  0  0  0  0  0  0
   35.4250   27.8540   41.2870 H   0  0  0  0  0  0  0  0  0  0  0  0
   38.3060   28.1430   40.7440 H   0  0  0  0  0  0  0  0  0  0  0  0
   38.7710   26.1170   41.8550 Cl  0  0  0  0  0  0  0  0  0  0  0  0
   37.6650   25.6830   40.5450 C   0  0  0  0  0  0  0  0  0  0  0  0
   37.0070   26.7170   39.8700 C   0  0  0  0  0  0  0  0  0  0  0  0
   36.1310   26.4180   38.8360 C   0  0  0  0  0  0  0  0  0  0  0  0
   35.6210   27.2020   38.3120 H   0  0  0  0  0  0  0  0  0  0  0  0
   35.8960   25.0990   38.4590 C   0  0  0  0  0  0  0  0  0  0  0  0
   35.2130   24.8410   37.6500 H   0  0  0  0  0  0  0  0  0  0  0  0
   36.5630   24.1260   39.1490 C   0  0  0  0  0  0  0  0  0  0  0  0
   36.4210   23.0760   38.8990 H   0  0  0  0  0  0  0  0  0  0  0  0
   37.4380   24.3610   40.1750 C   0  0  0  0  0  0  0  0  0  0  0  0
   38.2920   23.0970   41.0570 Cl  0  0  0  0  0  0  0  0  0  0  0  0
   39.3770   31.9790   40.8050 C   0  0  0  0  0  0  0  0  0  0  0  0
   38.4580   33.0010   40.6760 C   0  0  0  0  0  0  0  0  0  0  0  0
   37.3720   32.4950   40.0400 C   0  0  0  0  0  0  0  0  0  0  0  0
   37.6120   31.1980   39.7810 N   0  0  0  0  0  0  0  0  0  0  0  0
   38.8250   30.9030   40.2500 N   0  0  0  0  0  0  0  0  0  0  0  0
   38.6460   34.0100   41.0480 H   0  0  0  0  0  0  0  0  0  0  0  0
   36.4790   33.0330   39.7860 H   0  0  0  0  0  0  0  0  0  0  0  0
   42.2690   31.3460   42.9860 C   0  0  0  0  0  0  0  0  0  0  0  0
   43.2070   32.3040   42.5530 C   0  0  0  0  0  0  0  0  0  0  0  0
   42.8110   33.1460   41.5130 C   0  0  0  0  0  0  0  0  0  0  0  0
   41.5730   32.9960   40.9910 N   0  0  0  0  0  0  0  0  0  0  0  0
   40.6970   32.0670   41.4300 C   0  0  0  0  0  0  0  0  0  0  0  0
   41.0510   31.2450   42.4290 N   0  0  0  0  0  0  0  0  0  0  0  0
   42.4620   30.6390   43.7840 H   0  0  0  0  0  0  0  0  0  0  0  0
   44.1790   32.3320   43.0490 H   0  0  0  0  0  0  0  0  0  0  0  0
   43.5240   33.8840   41.1730 H   0  0  0  0  0  0  0  0  0  0  0  0
  1  2  1  0  0  0  0
  1  6  1  0  0  0  0
  2  8  1  6  0  0  0
  2 29  1  0  0  0  0
  2  3  1  0  0  0  0
  3 10  1  0  0  0  0
  3  4  1  0  0  0  0
  4  5  1  0  0  0  0
  4 11  1  0  0  0  0
  5 12  1  0  0  0  0
  6 14  1  1  0  0  0
  6  5  1  0  0  0  0
  7  1  1  0  0  0  0
  9  3  1  0  0  0  0
 13  5  1  0  0  0  0
 16 15  1  0  0  0  0
 17  6  1  0  0  0  0
 17 16  2  0  0  0  0
 18 17  1  0  0  0  0
 19 18  1  0  0  0  0
 20 18  2  0  0  0  0
 20 22  1  0  0  0  0
 21 20  1  0  0  0  0
 22 24  2  0  0  0  0
 23 22  1  0  0  0  0
 24 16  1  0  0  0  0
 24 25  1  0  0  0  0
 26 37  1  0  0  0  0
 27 26  1  0  0  0  0
 27 31  1  0  0  0  0
 28 27  2  0  0  0  0
 29 28  1  0  0  0  0
 29 30  1  0  0  0  0
 30 26  2  0  0  0  0
 32 28  1  0  0  0  0
 33 39  1  0  0  0  0
 34 33  1  0  0  0  0
 34 40  1  0  0  0  0
 35 34  2  0  0  0  0
 36 37  2  0  0  0  0
 36 35  1  0  0  0  0
 37 38  1  0  0  0  0
 38 33  2  0  0  0  0
 41 35  1  0  0  0  0
M  END
>  <minimizedAffinity>
-5.38790178

$$$$
