
 OpenBabel03242514033D

 29 31  0  0  0  0  0  0  0  0999 V2000
   46.8860   34.7670   42.0460 C   0  0  0  0  0  0  0  0  0  0  0  0
   48.0730   35.4750   41.9090 C   0  0  0  0  0  0  0  0  0  0  0  0
   48.8420   35.4700   40.7610 C   0  0  0  0  0  0  0  0  0  0  0  0
   48.3250   34.6790   39.7210 C   0  0  0  0  0  0  0  0  0  0  0  0
   47.1420   33.9710   39.8520 C   0  0  0  0  0  0  0  0  0  0  0  0
   46.4480   34.0330   41.0180 N   0  0  0  0  0  0  0  0  0  0  0  0
   48.3990   36.0590   42.7590 H   0  0  0  0  0  0  0  0  0  0  0  0
   49.7640   36.0230   40.6640 H   0  0  0  0  0  0  0  0  0  0  0  0
   48.9030   34.6570   38.8190 H   0  0  0  0  0  0  0  0  0  0  0  0
   48.6840   34.1280   37.3160 Cl  0  0  0  0  0  0  0  0  0  0  0  0
   47.2370   33.1370   37.5360 C   0  0  0  0  0  0  0  0  0  0  0  0
   46.6140   33.1530   38.7670 C   0  0  0  0  0  0  0  0  0  0  0  0
   45.4960   32.3550   38.8530 C   0  0  0  0  0  0  0  0  0  0  0  0
   44.9560   32.3160   39.7830 H   0  0  0  0  0  0  0  0  0  0  0  0
   45.0260   31.5940   37.8020 C   0  0  0  0  0  0  0  0  0  0  0  0
   44.1260   30.9830   37.9540 H   0  0  0  0  0  0  0  0  0  0  0  0
   45.6880   31.6140   36.5920 C   0  0  0  0  0  0  0  0  0  0  0  0
   45.2990   31.0100   35.7850 H   0  0  0  0  0  0  0  0  0  0  0  0
   46.8140   32.3980   36.4510 C   0  0  0  0  0  0  0  0  0  0  0  0
   47.6800   32.4500   34.9310 Cl  0  0  0  0  0  0  0  0  0  0  0  0
   45.5910   33.9750   45.3830 C   0  0  0  0  0  0  0  0  0  0  0  0
   44.6970   35.0220   45.6240 C   0  0  0  0  0  0  0  0  0  0  0  0
   44.5480   35.9920   44.6320 C   0  0  0  0  0  0  0  0  0  0  0  0
   45.2820   35.8720   43.4750 N   0  0  0  0  0  0  0  0  0  0  0  0
   46.1360   34.8370   43.2890 C   0  0  0  0  0  0  0  0  0  0  0  0
   46.2940   33.9030   44.2170 N   0  0  0  0  0  0  0  0  0  0  0  0
   45.6940   33.2250   46.1720 H   0  0  0  0  0  0  0  0  0  0  0  0
   44.1440   35.0710   46.5530 H   0  0  0  0  0  0  0  0  0  0  0  0
   43.8680   36.8200   44.7770 H   0  0  0  0  0  0  0  0  0  0  0  0
  1 25  1  0  0  0  0
  2  1  1  0  0  0  0
  2  7  1  0  0  0  0
  3  2  2  0  0  0  0
  4  5  2  0  0  0  0
  4  3  1  0  0  0  0
  5  6  1  0  0  0  0
  6  1  2  0  0  0  0
  8  3  1  0  0  0  0
  9  4  1  0  0  0  0
 10 11  1  0  0  0  0
 11 12  1  0  0  0  0
 12 13  2  0  0  0  0
 12  5  1  0  0  0  0
 13 14  1  0  0  0  0
 15 16  1  0  0  0  0
 15 13  1  0  0  0  0
 17 15  2  0  0  0  0
 18 17  1  0  0  0  0
 19 17  1  0  0  0  0
 19 11  2  0  0  0  0
 20 19  1  0  0  0  0
 21 22  1  0  0  0  0
 21 27  1  0  0  0  0
 22 28  1  0  0  0  0
 23 29  1  0  0  0  0
 23 22  2  0  0  0  0
 24 23  1  0  0  0  0
 25 24  2  0  0  0  0
 25 26  1  0  0  0  0
 26 21  2  0  0  0  0
M  END
>  <minimizedAffinity>
-5.82301903

>  <minimizedRMSD>
0.367559582

$$$$
