
     RDKit          3D

 40 44  0  0  0  0  0  0  0  0999 V2000
   45.4987   34.8224   43.5364 C   0  0  0  0  0  0  0  0  0  0  0  0
   46.2171   33.7503   44.1159 C   0  0  0  0  0  0  0  0  0  0  0  0
   46.0230   33.5187   45.4685 C   0  0  0  0  0  0  0  0  0  0  0  0
   45.1756   34.3070   46.1643 N   0  0  0  0  0  0  0  0  0  0  0  0
   44.4981   35.3313   45.5799 C   0  0  0  0  0  0  0  0  0  0  0  0
   44.6644   35.5736   44.2938 N   0  0  0  0  0  0  0  0  0  0  0  0
   47.0113   32.6938   47.5356 C   0  0  0  0  0  0  0  0  0  0  0  0
   46.6885   32.4524   46.2098 C   0  0  0  0  0  0  0  0  0  0  0  0
   47.0096   31.2319   45.6763 C   0  0  0  0  0  0  0  0  0  0  0  0
   47.6369   30.2456   46.4073 C   0  0  0  0  0  0  0  0  0  0  0  0
   48.0393   28.9870   46.0875 N   0  0  0  0  0  0  0  0  0  0  0  0
   48.6136   28.4520   47.2268 C   0  0  0  0  0  0  0  0  0  0  0  0
   48.5516   29.3822   48.2072 N   0  0  0  0  0  0  0  0  0  0  0  0
   47.9596   30.4705   47.7120 C   0  0  0  0  0  0  0  0  0  0  0  0
   47.6479   31.6929   48.2775 C   0  0  0  0  0  0  0  0  0  0  0  0
   45.6748   35.0746   42.1871 O   0  0  0  0  0  0  0  0  0  0  0  0
   44.6280   34.9111   41.2884 C   0  0  0  0  0  0  0  0  0  0  0  0
   44.9969   33.7885   40.6030 C   0  0  0  0  0  0  0  0  0  0  0  0
   43.5479   33.6000   39.3941 S   0  0  0  0  0  0  0  0  0  0  0  0
   42.7460   35.1434   40.1224 C   0  0  0  0  0  0  0  0  0  0  0  0
   43.4861   35.4219   40.8943 N   0  0  0  0  0  0  0  0  0  0  0  0
   46.8870   33.1245   43.5732 H   0  0  0  0  0  0  0  0  0  0  0  0
   43.8355   35.9228   46.1958 H   0  0  0  0  0  0  0  0  0  0  0  0
   46.7982   33.6274   48.0464 H   0  0  0  0  0  0  0  0  0  0  0  0
   46.7569   31.0438   44.6389 H   0  0  0  0  0  0  0  0  0  0  0  0
   47.9502   28.4909   45.1781 H   0  0  0  0  0  0  0  0  0  0  0  0
   49.0419   27.4656   47.3333 H   0  0  0  0  0  0  0  0  0  0  0  0
   47.9080   31.8661   49.3187 H   0  0  0  0  0  0  0  0  0  0  0  0
   45.7089   32.9552   40.4114 H   0  0  0  0  0  0  0  0  0  0  0  0
   40.4854   33.5526   41.0407 Cl  0  0  0  0  0  0  0  0  0  0  0  0
   40.3084   34.9788   40.0419 C   0  0  0  0  0  0  0  0  0  0  0  0
   41.4121   35.7020   39.6304 C   0  0  0  0  0  0  0  0  0  0  0  0
   41.4488   36.8266   38.8569 C   0  0  0  0  0  0  0  0  0  0  0  0
   42.3544   37.3167   38.5906 H   0  0  0  0  0  0  0  0  0  0  0  0
   40.2061   37.2689   38.4525 C   0  0  0  0  0  0  0  0  0  0  0  0
   40.1085   38.1584   37.8305 H   0  0  0  0  0  0  0  0  0  0  0  0
   39.0402   36.6225   38.8060 C   0  0  0  0  0  0  0  0  0  0  0  0
   38.0443   36.9393   38.5078 H   0  0  0  0  0  0  0  0  0  0  0  0
   39.1264   35.4936   39.5922 C   0  0  0  0  0  0  0  0  0  0  0  0
   37.6899   34.6146   40.0847 Cl  0  0  0  0  0  0  0  0  0  0  0  0
  1  2  2  0
  1  6  1  0
  2  3  1  0
  3  4  2  0
  3  8  1  0
  5  4  1  0
  6  5  2  0
  7 15  2  0
  8  7  1  0
  9  8  2  0
  9 10  1  0
 10 14  2  0
 11 10  1  0
 11 12  1  0
 12 13  2  0
 14 13  1  0
 14 15  1  0
 16  1  1  0
 17 16  1  0
 18 17  2  0
 19 20  1  0
 19 18  1  0
 20 21  2  0
 21 17  1  0
  2 22  1  0
  5 23  1  0
  7 24  1  0
  9 25  1  0
 11 26  1  0
 12 27  1  0
 15 28  1  0
 18 29  1  0
 30 31  1  0
 31 32  2  0
 32 33  1  0
 33 34  1  0
 33 35  2  0
 35 36  1  0
 35 37  1  0
 37 38  1  0
 37 39  2  0
 39 40  1  0
 39 31  1  0
 20 32  1  0
M  ISO  8  22  14  23  14  24  14  25  14  26   9  27  14  28  14  29  14
M  ISO  3  34  15  36  15  38  15
M  END
>  <DihAtoms>  (1) 
18,19,31,30

>  <DihDeg>  (1) 
179.9995395605904

$$$$
