
 OpenBabel03252507203D

 46 49  0  0  1  0  0  0  0  0999 V2000
   47.0840   33.2230   43.0820 C   0  0  0  0  0  0  0  0  0  0  0  0
   48.2390   33.0990   43.5840 O   0  0  0  0  0  0  0  0  0  0  0  0
   46.6220   32.4920   41.9450 N   0  0  0  0  0  0  0  0  0  0  0  0
   45.3480   31.8160   41.7040 C   0  0  0  0  0  0  0  0  0  0  0  0
   44.7620   32.2840   40.3660 C   0  0  0  0  0  0  0  0  0  0  0  0
   45.6810   31.8780   39.2420 C   0  0  0  0  0  0  0  0  0  0  0  0
   47.0110   31.4500   39.7970 C   0  0  0  0  0  0  0  0  0  0  0  0
   47.5350   32.3920   40.8390 C   0  0  2  0  0  0  0  0  0  0  0  0
   45.4160   30.7300   41.7860 H   0  0  0  0  0  0  0  0  0  0  0  0
   44.6690   32.2300   42.4990 H   0  0  0  0  0  0  0  0  0  0  0  0
   43.7360   31.9320   40.2700 H   0  0  0  0  0  0  0  0  0  0  0  0
   44.7190   33.3950   40.4700 H   0  0  0  0  0  0  0  0  0  0  0  0
   45.2270   30.9970   38.7430 H   0  0  0  0  0  0  0  0  0  0  0  0
   45.7800   32.6810   38.4830 H   0  0  0  0  0  0  0  0  0  0  0  0
   47.7680   31.3760   38.9810 H   0  0  0  0  0  0  0  0  0  0  0  0
   46.8910   30.4330   40.2420 H   0  0  0  0  0  0  0  0  0  0  0  0
   47.5810   33.4030   40.3850 H   0  0  0  0  0  0  0  0  0  0  0  0
   47.7390   29.6240   41.8260 Cl  0  0  0  0  0  0  0  0  0  0  0  0
   49.1350   30.6950   41.6900 C   0  0  0  0  0  0  0  0  0  0  0  0
   48.9120   31.9880   41.2020 C   0  0  0  0  0  0  0  0  0  0  0  0
   50.0590   32.7510   41.1310 C   0  0  0  0  0  0  0  0  0  0  0  0
   49.9140   33.7710   40.7550 H   0  0  0  0  0  0  0  0  0  0  0  0
   51.2880   32.2560   41.5110 C   0  0  0  0  0  0  0  0  0  0  0  0
   52.1420   32.9360   41.4190 H   0  0  0  0  0  0  0  0  0  0  0  0
   51.4470   30.9710   41.9840 C   0  0  0  0  0  0  0  0  0  0  0  0
   52.3960   30.5820   42.2790 H   0  0  0  0  0  0  0  0  0  0  0  0
   50.3400   30.1590   42.0790 C   0  0  0  0  0  0  0  0  0  0  0  0
   50.4840   28.5380   42.6670 Cl  0  0  0  0  0  0  0  0  0  0  0  0
   45.8070   35.3080   42.9630 C   0  0  0  0  0  0  0  0  0  0  0  0
   46.1890   34.1620   43.7040 C   0  0  0  0  0  0  0  0  0  0  0  0
   45.6950   33.9930   44.9800 C   0  0  0  0  0  0  0  0  0  0  0  0
   44.8610   34.9310   45.4790 N   0  0  0  0  0  0  0  0  0  0  0  0
   44.4870   36.0320   44.7840 C   0  0  0  0  0  0  0  0  0  0  0  0
   44.9700   36.1990   43.5340 N   0  0  0  0  0  0  0  0  0  0  0  0
   46.1960   35.4280   41.9740 H   0  0  0  0  0  0  0  0  0  0  0  0
   43.8190   36.7710   45.2020 H   0  0  0  0  0  0  0  0  0  0  0  0
   46.0990   32.8220   45.7290 C   0  0  0  0  0  0  0  0  0  0  0  0
   45.6380   31.5890   45.3750 C   0  0  0  0  0  0  0  0  0  0  0  0
   46.0330   30.4860   46.0970 C   0  0  0  0  0  0  0  0  0  0  0  0
   46.8890   30.5650   47.1880 C   0  0  0  0  0  0  0  0  0  0  0  0
   47.3230   31.8410   47.5030 C   0  0  0  0  0  0  0  0  0  0  0  0
   46.9210   32.8920   46.7780 N   0  0  0  0  0  0  0  0  0  0  0  0
   44.9700   31.3400   44.5700 H   0  0  0  0  0  0  0  0  0  0  0  0
   45.7030   29.4620   45.8720 H   0  0  0  0  0  0  0  0  0  0  0  0
   47.2000   29.7130   47.7580 H   0  0  0  0  0  0  0  0  0  0  0  0
   48.0010   31.9820   48.3510 H   0  0  0  0  0  0  0  0  0  0  0  0
  1  2  2  0  0  0  0
  1 30  1  0  0  0  0
  3  1  1  0  0  0  0
  4  9  1  0  0  0  0
  4  3  1  0  0  0  0
  4 10  1  0  0  0  0
  5 12  1  0  0  0  0
  5  4  1  0  0  0  0
  6  7  1  0  0  0  0
  6  5  1  0  0  0  0
  7 16  1  0  0  0  0
  7  8  1  0  0  0  0
  8 17  1  6  0  0  0
  8 20  1  0  0  0  0
  8  3  1  0  0  0  0
 11  5  1  0  0  0  0
 13  6  1  0  0  0  0
 14  6  1  0  0  0  0
 15  7  1  0  0  0  0
 19 18  1  0  0  0  0
 19 27  1  0  0  0  0
 20 19  2  0  0  0  0
 21 20  1  0  0  0  0
 21 23  2  0  0  0  0
 22 21  1  0  0  0  0
 23 25  1  0  0  0  0
 24 23  1  0  0  0  0
 25 27  2  0  0  0  0
 25 26  1  0  0  0  0
 27 28  1  0  0  0  0
 29 34  2  0  0  0  0
 29 30  1  0  0  0  0
 30 31  2  0  0  0  0
 31 32  1  0  0  0  0
 31 37  1  0  0  0  0
 33 36  1  0  0  0  0
 33 32  2  0  0  0  0
 34 33  1  0  0  0  0
 35 29  1  0  0  0  0
 37 42  1  0  0  0  0
 38 37  2  0  0  0  0
 38 39  1  0  0  0  0
 39 40  2  0  0  0  0
 40 41  1  0  0  0  0
 40 45  1  0  0  0  0
 41 46  1  0  0  0  0
 42 41  2  0  0  0  0
 43 38  1  0  0  0  0
 44 39  1  0  0  0  0
M  END
>  <minimizedAffinity>
-5.31687737

>  <minimizedRMSD>
1.0267843

$$$$
