
 OpenBabel03242523093D

 47 51  0  0  1  0  0  0  0  0999 V2000
   36.4350   29.2210   38.6800 C   0  0  0  0  0  0  0  0  0  0  0  0
   35.8070   29.1670   39.9520 C   0  0  0  0  0  0  0  0  0  0  0  0
   34.4290   29.1220   39.8120 C   0  0  0  0  0  0  0  0  0  0  0  0
   33.7210   29.1250   38.6430 C   0  0  0  0  0  0  0  0  0  0  0  0
   34.4070   29.1770   37.4670 C   0  0  0  0  0  0  0  0  0  0  0  0
   35.7700   29.2260   37.4760 C   0  0  0  0  0  0  0  0  0  0  0  0
   33.4420   29.1630   36.4800 O   0  0  0  0  0  0  0  0  0  0  0  0
   32.1650   29.1470   37.0480 C   0  0  1  0  0  0  0  0  0  0  0  0
   32.3570   29.0870   38.4530 O   0  0  0  0  0  0  0  0  0  0  0  0
   37.5030   29.2630   38.4370 H   0  0  0  0  0  0  0  0  0  0  0  0
   33.9640   29.0910   40.7480 H   0  0  0  0  0  0  0  0  0  0  0  0
   36.2190   29.2640   36.5000 H   0  0  0  0  0  0  0  0  0  0  0  0
   31.6390   28.2100   36.7400 H   0  0  0  0  0  0  0  0  0  0  0  0
   32.1510   29.9760   34.0630 Cl  0  0  0  0  0  0  0  0  0  0  0  0
   31.3010   30.8280   35.3330 C   0  0  0  0  0  0  0  0  0  0  0  0
   31.4140   30.3240   36.6050 C   0  0  0  0  0  0  0  0  0  0  0  0
   30.7090   31.0620   37.5540 C   0  0  0  0  0  0  0  0  0  0  0  0
   30.7470   30.7260   38.5960 H   0  0  0  0  0  0  0  0  0  0  0  0
   29.9540   32.1910   37.3070 C   0  0  0  0  0  0  0  0  0  0  0  0
   29.4450   32.6860   38.1210 H   0  0  0  0  0  0  0  0  0  0  0  0
   29.8890   32.6340   36.0030 C   0  0  0  0  0  0  0  0  0  0  0  0
   29.3170   33.5090   35.7420 H   0  0  0  0  0  0  0  0  0  0  0  0
   30.5640   31.9480   35.0210 C   0  0  0  0  0  0  0  0  0  0  0  0
   30.4760   32.5170   33.3780 Cl  0  0  0  0  0  0  0  0  0  0  0  0
   38.5290   29.6200   42.4780 C   0  0  0  0  0  0  0  0  0  0  0  0
   37.8130   29.9200   41.3180 C   0  0  0  0  0  0  0  0  0  0  0  0
   36.7160   29.1610   41.0330 C   0  0  0  0  0  0  0  0  0  0  0  0
   36.3830   28.1740   41.8840 N   0  0  0  0  0  0  0  0  0  0  0  0
   37.0750   27.8900   42.9980 C   0  0  0  0  0  0  0  0  0  0  0  0
   38.1390   28.6100   43.2860 N   0  0  0  0  0  0  0  0  0  0  0  0
   39.4150   30.2190   42.7200 H   0  0  0  0  0  0  0  0  0  0  0  0
   36.8600   27.1130   43.7170 H   0  0  0  0  0  0  0  0  0  0  0  0
   38.2370   31.0100   40.5490 N   0  0  0  0  0  0  0  0  0  0  0  0
   39.3610   31.0130   39.7480 C   0  0  0  0  0  0  0  0  0  0  0  0
   39.5330   32.2480   38.8920 C   0  0  0  0  0  0  0  0  0  0  0  0
   38.3600   32.7590   38.3140 N   0  0  0  0  0  0  0  0  0  0  0  0
   37.2150   32.7760   39.1350 C   0  0  0  0  0  0  0  0  0  0  0  0
   37.5210   32.2730   40.5270 C   0  0  0  0  0  0  0  0  0  0  0  0
   40.2860   30.9720   40.3960 H   0  0  0  0  0  0  0  0  0  0  0  0
   39.4890   30.1200   39.0810 H   0  0  0  0  0  0  0  0  0  0  0  0
   40.0020   33.0450   39.5330 H   0  0  0  0  0  0  0  0  0  0  0  0
   40.2670   32.0080   38.1130 H   0  0  0  0  0  0  0  0  0  0  0  0
   38.5870   33.5920   37.7690 H   0  0  0  0  0  0  0  0  0  0  0  0
   36.3030   32.3150   38.7020 H   0  0  0  0  0  0  0  0  0  0  0  0
   36.9160   33.8550   39.2870 H   0  0  0  0  0  0  0  0  0  0  0  0
   38.2250   33.0180   40.9940 H   0  0  0  0  0  0  0  0  0  0  0  0
   36.6280   32.2520   41.1720 H   0  0  0  0  0  0  0  0  0  0  0  0
  1  2  1  0  0  0  0
  2 27  1  0  0  0  0
  3  2  2  0  0  0  0
  3 11  1  0  0  0  0
  4  3  1  0  0  0  0
  5  6  1  0  0  0  0
  5  4  2  0  0  0  0
  6  1  2  0  0  0  0
  7  8  1  0  0  0  0
  7  5  1  0  0  0  0
  8 13  1  6  0  0  0
  8  9  1  0  0  0  0
  9  4  1  0  0  0  0
 10  1  1  0  0  0  0
 12  6  1  0  0  0  0
 14 15  1  0  0  0  0
 15 16  1  0  0  0  0
 16  8  1  0  0  0  0
 16 17  2  0  0  0  0
 17 18  1  0  0  0  0
 19 17  1  0  0  0  0
 19 20  1  0  0  0  0
 21 19  2  0  0  0  0
 22 21  1  0  0  0  0
 23 15  2  0  0  0  0
 23 21  1  0  0  0  0
 24 23  1  0  0  0  0
 25 31  1  0  0  0  0
 25 30  1  0  0  0  0
 26 25  2  0  0  0  0
 27 26  1  0  0  0  0
 27 28  2  0  0  0  0
 28 29  1  0  0  0  0
 29 30  2  0  0  0  0
 29 32  1  0  0  0  0
 33 26  1  0  0  0  0
 34 39  1  0  0  0  0
 34 33  1  0  0  0  0
 35 41  1  0  0  0  0
 35 34  1  0  0  0  0
 36 35  1  0  0  0  0
 36 37  1  0  0  0  0
 37 45  1  0  0  0  0
 37 38  1  0  0  0  0
 38 33  1  0  0  0  0
 38 46  1  0  0  0  0
 38 47  1  0  0  0  0
 40 34  1  0  0  0  0
 42 35  1  0  0  0  0
 43 36  1  0  0  0  0
 44 37  1  0  0  0  0
M  END
>  <minimizedAffinity>
-6.892694

$$$$

 OpenBabel03242523093D

 47 51  0  0  1  0  0  0  0  0999 V2000
   36.8550   28.7870   35.7400 C   0  0  0  0  0  0  0  0  0  0  0  0
   37.1210   29.0340   37.1130 C   0  0  0  0  0  0  0  0  0  0  0  0
   35.9380   29.1110   37.8300 C   0  0  0  0  0  0  0  0  0  0  0  0
   34.6690   28.9730   37.3420 C   0  0  0  0  0  0  0  0  0  0  0  0
   34.5070   28.7360   36.0100 C   0  0  0  0  0  0  0  0  0  0  0  0
   35.5990   28.6410   35.1980 C   0  0  0  0  0  0  0  0  0  0  0  0
   33.1430   28.6430   35.8180 O   0  0  0  0  0  0  0  0  0  0  0  0
   32.4670   28.8660   37.0220 C   0  0  1  0  0  0  0  0  0  0  0  0
   33.4680   29.0450   38.0120 O   0  0  0  0  0  0  0  0  0  0  0  0
   37.5590   28.6720   34.9090 H   0  0  0  0  0  0  0  0  0  0  0  0
   36.1310   29.3000   38.8400 H   0  0  0  0  0  0  0  0  0  0  0  0
   35.3680   28.4530   34.1650 H   0  0  0  0  0  0  0  0  0  0  0  0
   31.8870   27.9490   37.2910 H   0  0  0  0  0  0  0  0  0  0  0  0
   30.5000   29.6300   39.2900 Cl  0  0  0  0  0  0  0  0  0  0  0  0
   30.6450   30.4880   37.7730 C   0  0  0  0  0  0  0  0  0  0  0  0
   31.5690   30.0140   36.8750 C   0  0  0  0  0  0  0  0  0  0  0  0
   31.6190   30.7540   35.6950 C   0  0  0  0  0  0  0  0  0  0  0  0
   32.3320   30.4410   34.9250 H   0  0  0  0  0  0  0  0  0  0  0  0
   30.8480   31.8590   35.3970 C   0  0  0  0  0  0  0  0  0  0  0  0
   30.9700   32.3600   34.4470 H   0  0  0  0  0  0  0  0  0  0  0  0
   29.9430   32.2740   36.3510 C   0  0  0  0  0  0  0  0  0  0  0  0
   29.3100   33.1290   36.1810 H   0  0  0  0  0  0  0  0  0  0  0  0
   29.8460   31.5840   37.5360 C   0  0  0  0  0  0  0  0  0  0  0  0
   28.7000   32.1160   38.7330 Cl  0  0  0  0  0  0  0  0  0  0  0  0
   40.5910   29.8080   38.2770 C   0  0  0  0  0  0  0  0  0  0  0  0
   39.2030   29.9550   38.2410 C   0  0  0  0  0  0  0  0  0  0  0  0
   38.4970   29.1310   37.4140 C   0  0  0  0  0  0  0  0  0  0  0  0
   39.1740   28.2240   36.6860 N   0  0  0  0  0  0  0  0  0  0  0  0
   40.5070   28.0870   36.7250 C   0  0  0  0  0  0  0  0  0  0  0  0
   41.2050   28.8770   37.5140 N   0  0  0  0  0  0  0  0  0  0  0  0
   41.1730   30.4650   38.9350 H   0  0  0  0  0  0  0  0  0  0  0  0
   41.1050   27.3810   36.1670 H   0  0  0  0  0  0  0  0  0  0  0  0
   38.6220   30.9030   39.0910 N   0  0  0  0  0  0  0  0  0  0  0  0
   38.2200   32.1640   38.6990 C   0  0  0  0  0  0  0  0  0  0  0  0
   37.4780   32.9550   39.7530 C   0  0  0  0  0  0  0  0  0  0  0  0
   36.5640   32.2280   40.5310 N   0  0  0  0  0  0  0  0  0  0  0  0
   36.9770   30.9480   40.9500 C   0  0  0  0  0  0  0  0  0  0  0  0
   38.3880   30.6460   40.5000 C   0  0  0  0  0  0  0  0  0  0  0  0
   39.1290   32.7880   38.4460 H   0  0  0  0  0  0  0  0  0  0  0  0
   37.6180   32.2150   37.7540 H   0  0  0  0  0  0  0  0  0  0  0  0
   38.2440   33.4220   40.4310 H   0  0  0  0  0  0  0  0  0  0  0  0
   36.9710   33.7840   39.2450 H   0  0  0  0  0  0  0  0  0  0  0  0
   36.1290   32.8520   41.2120 H   0  0  0  0  0  0  0  0  0  0  0  0
   36.2710   30.1180   40.7380 H   0  0  0  0  0  0  0  0  0  0  0  0
   37.0390   30.9580   42.0770 H   0  0  0  0  0  0  0  0  0  0  0  0
   39.0630   31.3620   41.0470 H   0  0  0  0  0  0  0  0  0  0  0  0
   38.7160   29.6350   40.7950 H   0  0  0  0  0  0  0  0  0  0  0  0
  1  2  1  0  0  0  0
  2 27  1  0  0  0  0
  2  3  2  0  0  0  0
  3 11  1  0  0  0  0
  4  3  1  0  0  0  0
  4  9  1  0  0  0  0
  5  4  2  0  0  0  0
  6  1  2  0  0  0  0
  6  5  1  0  0  0  0
  7  5  1  0  0  0  0
  7  8  1  0  0  0  0
  8 13  1  1  0  0  0
  8  9  1  0  0  0  0
 10  1  1  0  0  0  0
 12  6  1  0  0  0  0
 15 14  1  0  0  0  0
 16  8  1  0  0  0  0
 16 15  2  0  0  0  0
 17 16  1  0  0  0  0
 18 17  1  0  0  0  0
 19 17  2  0  0  0  0
 19 21  1  0  0  0  0
 20 19  1  0  0  0  0
 21 23  2  0  0  0  0
 22 21  1  0  0  0  0
 23 15  1  0  0  0  0
 23 24  1  0  0  0  0
 25 31  1  0  0  0  0
 26 25  1  0  0  0  0
 26 33  1  0  0  0  0
 27 26  2  0  0  0  0
 28 29  2  0  0  0  0
 28 27  1  0  0  0  0
 29 30  1  0  0  0  0
 30 25  2  0  0  0  0
 32 29  1  0  0  0  0
 33 38  1  0  0  0  0
 34 33  1  0  0  0  0
 34 35  1  0  0  0  0
 35 41  1  0  0  0  0
 35 36  1  0  0  0  0
 36 37  1  0  0  0  0
 36 43  1  0  0  0  0
 37 45  1  0  0  0  0
 38 47  1  0  0  0  0
 38 37  1  0  0  0  0
 38 46  1  0  0  0  0
 39 34  1  0  0  0  0
 40 34  1  0  0  0  0
 42 35  1  0  0  0  0
 44 37  1  0  0  0  0
M  END
>  <minimizedAffinity>
-6.58625364

$$$$

 OpenBabel03242523093D

 47 51  0  0  1  0  0  0  0  0999 V2000
   41.8830   31.7770   42.0480 C   0  0  0  0  0  0  0  0  0  0  0  0
   42.0830   32.9510   41.2760 C   0  0  0  0  0  0  0  0  0  0  0  0
   40.9200   33.2970   40.6080 C   0  0  0  0  0  0  0  0  0  0  0  0
   39.7210   32.6410   40.6500 C   0  0  0  0  0  0  0  0  0  0  0  0
   39.6190   31.5220   41.4200 C   0  0  0  0  0  0  0  0  0  0  0  0
   40.6990   31.0800   42.1250 C   0  0  0  0  0  0  0  0  0  0  0  0
   38.3170   31.0910   41.2670 O   0  0  0  0  0  0  0  0  0  0  0  0
   37.6320   31.9180   40.3700 C   0  0  1  0  0  0  0  0  0  0  0  0
   38.5430   32.9420   40.0030 O   0  0  0  0  0  0  0  0  0  0  0  0
   42.5920   31.2420   42.6900 H   0  0  0  0  0  0  0  0  0  0  0  0
   41.0670   34.1570   40.0320 H   0  0  0  0  0  0  0  0  0  0  0  0
   40.5190   30.1910   42.7020 H   0  0  0  0  0  0  0  0  0  0  0  0
   36.7760   32.4020   40.9010 H   0  0  0  0  0  0  0  0  0  0  0  0
   35.4900   29.7190   40.7880 Cl  0  0  0  0  0  0  0  0  0  0  0  0
   36.2120   30.1200   39.2460 C   0  0  0  0  0  0  0  0  0  0  0  0
   37.1490   31.1230   39.2390 C   0  0  0  0  0  0  0  0  0  0  0  0
   37.6740   31.3770   37.9720 C   0  0  0  0  0  0  0  0  0  0  0  0
   38.4290   32.1650   37.8800 H   0  0  0  0  0  0  0  0  0  0  0  0
   37.3300   30.7250   36.8060 C   0  0  0  0  0  0  0  0  0  0  0  0
   37.8020   31.0040   35.8750 H   0  0  0  0  0  0  0  0  0  0  0  0
   36.3800   29.7290   36.8960 C   0  0  0  0  0  0  0  0  0  0  0  0
   36.0680   29.1810   36.0230 H   0  0  0  0  0  0  0  0  0  0  0  0
   35.8260   29.4320   38.1180 C   0  0  0  0  0  0  0  0  0  0  0  0
   34.6280   28.1720   38.2200 Cl  0  0  0  0  0  0  0  0  0  0  0  0
   45.6070   34.1590   40.9250 C   0  0  0  0  0  0  0  0  0  0  0  0
   44.4010   33.6160   40.4760 C   0  0  0  0  0  0  0  0  0  0  0  0
   43.3880   33.4810   41.3790 C   0  0  0  0  0  0  0  0  0  0  0  0
   43.6030   33.8820   42.6450 N   0  0  0  0  0  0  0  0  0  0  0  0
   44.7630   34.4030   43.0710 C   0  0  0  0  0  0  0  0  0  0  0  0
   45.7540   34.5360   42.2140 N   0  0  0  0  0  0  0  0  0  0  0  0
   46.4320   34.2710   40.2110 H   0  0  0  0  0  0  0  0  0  0  0  0
   44.9970   34.7420   44.0700 H   0  0  0  0  0  0  0  0  0  0  0  0
   44.2940   33.2900   39.1180 N   0  0  0  0  0  0  0  0  0  0  0  0
   44.7640   32.1220   38.5540 C   0  0  0  0  0  0  0  0  0  0  0  0
   44.3970   31.9220   37.1000 C   0  0  0  0  0  0  0  0  0  0  0  0
   43.0950   32.3030   36.7410 N   0  0  0  0  0  0  0  0  0  0  0  0
   42.6180   33.5060   37.2990 C   0  0  0  0  0  0  0  0  0  0  0  0
   43.6700   34.1770   38.1520 C   0  0  0  0  0  0  0  0  0  0  0  0
   45.8940   32.1190   38.5760 H   0  0  0  0  0  0  0  0  0  0  0  0
   44.5060   31.1760   39.1000 H   0  0  0  0  0  0  0  0  0  0  0  0
   45.1320   32.5030   36.4790 H   0  0  0  0  0  0  0  0  0  0  0  0
   44.5620   30.8640   36.8630 H   0  0  0  0  0  0  0  0  0  0  0  0
   42.9570   32.1360   35.7430 H   0  0  0  0  0  0  0  0  0  0  0  0
   41.6300   33.4480   37.8010 H   0  0  0  0  0  0  0  0  0  0  0  0
   42.4400   34.2320   36.4530 H   0  0  0  0  0  0  0  0  0  0  0  0
   44.5010   34.4870   37.4580 H   0  0  0  0  0  0  0  0  0  0  0  0
   43.3030   35.1040   38.6210 H   0  0  0  0  0  0  0  0  0  0  0  0
  1  6  1  0  0  0  0
  1 10  1  0  0  0  0
  2 27  1  0  0  0  0
  2  1  2  0  0  0  0
  3  4  2  0  0  0  0
  3  2  1  0  0  0  0
  4  5  1  0  0  0  0
  5  6  2  0  0  0  0
  6 12  1  0  0  0  0
  7  5  1  0  0  0  0
  8 13  1  1  0  0  0
  8  7  1  0  0  0  0
  9  8  1  0  0  0  0
  9  4  1  0  0  0  0
 11  3  1  0  0  0  0
 15 14  1  0  0  0  0
 16 15  1  0  0  0  0
 16  8  1  0  0  0  0
 17 16  2  0  0  0  0
 18 17  1  0  0  0  0
 19 21  2  0  0  0  0
 19 17  1  0  0  0  0
 20 19  1  0  0  0  0
 21 23  1  0  0  0  0
 22 21  1  0  0  0  0
 23 24  1  0  0  0  0
 23 15  2  0  0  0  0
 25 30  1  0  0  0  0
 26 25  2  0  0  0  0
 26 27  1  0  0  0  0
 27 28  2  0  0  0  0
 28 29  1  0  0  0  0
 29 32  1  0  0  0  0
 30 29  2  0  0  0  0
 31 25  1  0  0  0  0
 33 26  1  0  0  0  0
 34 39  1  0  0  0  0
 34 40  1  0  0  0  0
 34 33  1  0  0  0  0
 35 34  1  0  0  0  0
 36 35  1  0  0  0  0
 36 37  1  0  0  0  0
 37 44  1  0  0  0  0
 37 38  1  0  0  0  0
 38 47  1  0  0  0  0
 38 33  1  0  0  0  0
 41 35  1  0  0  0  0
 42 35  1  0  0  0  0
 43 36  1  0  0  0  0
 45 37  1  0  0  0  0
 46 38  1  0  0  0  0
M  END
>  <minimizedAffinity>
-6.51096392

$$$$

 OpenBabel03242523093D

 47 51  0  0  1  0  0  0  0  0999 V2000
   35.0490   29.0930   36.7720 C   0  0  0  0  0  0  0  0  0  0  0  0
   33.8500   28.7490   37.4500 C   0  0  0  0  0  0  0  0  0  0  0  0
   33.9950   28.9330   38.8160 C   0  0  0  0  0  0  0  0  0  0  0  0
   35.1080   29.3800   39.4720 C   0  0  0  0  0  0  0  0  0  0  0  0
   36.2140   29.6890   38.7400 C   0  0  0  0  0  0  0  0  0  0  0  0
   36.1940   29.5470   37.3840 C   0  0  0  0  0  0  0  0  0  0  0  0
   37.1560   30.1070   39.6590 O   0  0  0  0  0  0  0  0  0  0  0  0
   36.6440   30.0130   40.9570 C   0  0  1  0  0  0  0  0  0  0  0  0
   35.3010   29.5740   40.8220 O   0  0  0  0  0  0  0  0  0  0  0  0
   35.2680   29.0640   35.6990 H   0  0  0  0  0  0  0  0  0  0  0  0
   33.1160   28.6730   39.3190 H   0  0  0  0  0  0  0  0  0  0  0  0
   37.1140   29.8160   36.8960 H   0  0  0  0  0  0  0  0  0  0  0  0
   36.6210   31.0330   41.4150 H   0  0  0  0  0  0  0  0  0  0  0  0
   39.6440   30.6420   41.4090 Cl  0  0  0  0  0  0  0  0  0  0  0  0
   38.8170   29.2400   42.0500 C   0  0  0  0  0  0  0  0  0  0  0  0
   37.4820   29.1140   41.7530 C   0  0  0  0  0  0  0  0  0  0  0  0
   36.9020   27.9710   42.3000 C   0  0  0  0  0  0  0  0  0  0  0  0
   35.8380   27.7960   42.1100 H   0  0  0  0  0  0  0  0  0  0  0  0
   37.5460   27.0250   43.0710 C   0  0  0  0  0  0  0  0  0  0  0  0
   36.9960   26.1730   43.4480 H   0  0  0  0  0  0  0  0  0  0  0  0
   38.8860   27.2230   43.3270 C   0  0  0  0  0  0  0  0  0  0  0  0
   39.4470   26.5220   43.9220 H   0  0  0  0  0  0  0  0  0  0  0  0
   39.5150   28.3320   42.8130 C   0  0  0  0  0  0  0  0  0  0  0  0
   41.2080   28.5720   43.1410 Cl  0  0  0  0  0  0  0  0  0  0  0  0
   30.7520   28.0860   35.4610 C   0  0  0  0  0  0  0  0  0  0  0  0
   31.5480   28.7790   36.3740 C   0  0  0  0  0  0  0  0  0  0  0  0
   32.8150   28.3220   36.5910 C   0  0  0  0  0  0  0  0  0  0  0  0
   33.2270   27.2360   35.9100 N   0  0  0  0  0  0  0  0  0  0  0  0
   32.4570   26.5740   35.0330 C   0  0  0  0  0  0  0  0  0  0  0  0
   31.2300   27.0000   34.8160 N   0  0  0  0  0  0  0  0  0  0  0  0
   29.7300   28.4400   35.2790 H   0  0  0  0  0  0  0  0  0  0  0  0
   32.7290   25.7010   34.4590 H   0  0  0  0  0  0  0  0  0  0  0  0
   31.0130   29.9260   36.9730 N   0  0  0  0  0  0  0  0  0  0  0  0
   30.8440   31.1370   36.3340 C   0  0  0  0  0  0  0  0  0  0  0  0
   30.1050   32.1850   37.1360 C   0  0  0  0  0  0  0  0  0  0  0  0
   29.0130   31.7240   37.8850 N   0  0  0  0  0  0  0  0  0  0  0  0
   29.1880   30.4970   38.5560 C   0  0  0  0  0  0  0  0  0  0  0  0
   30.5840   29.9520   38.3600 C   0  0  0  0  0  0  0  0  0  0  0  0
   31.8550   31.5920   36.1130 H   0  0  0  0  0  0  0  0  0  0  0  0
   30.3690   31.0920   35.3190 H   0  0  0  0  0  0  0  0  0  0  0  0
   30.8460   32.6690   37.8290 H   0  0  0  0  0  0  0  0  0  0  0  0
   29.7840   32.9670   36.4360 H   0  0  0  0  0  0  0  0  0  0  0  0
   28.5960   32.5050   38.3920 H   0  0  0  0  0  0  0  0  0  0  0  0
   28.4000   29.7350   38.3840 H   0  0  0  0  0  0  0  0  0  0  0  0
   29.1200   30.6980   39.6660 H   0  0  0  0  0  0  0  0  0  0  0  0
   31.2870   30.6670   38.8730 H   0  0  0  0  0  0  0  0  0  0  0  0
   30.7280   28.9770   38.8540 H   0  0  0  0  0  0  0  0  0  0  0  0
  1  6  2  0  0  0  0
  1  2  1  0  0  0  0
  2  3  2  0  0  0  0
  3 11  1  0  0  0  0
  3  4  1  0  0  0  0
  4  9  1  0  0  0  0
  5  4  2  0  0  0  0
  5  7  1  0  0  0  0
  6  5  1  0  0  0  0
  7  8  1  0  0  0  0
  8 13  1  1  0  0  0
  8 16  1  0  0  0  0
  9  8  1  0  0  0  0
 10  1  1  0  0  0  0
 12  6  1  0  0  0  0
 14 15  1  0  0  0  0
 15 23  1  0  0  0  0
 16 15  2  0  0  0  0
 16 17  1  0  0  0  0
 17 19  2  0  0  0  0
 18 17  1  0  0  0  0
 19 21  1  0  0  0  0
 19 20  1  0  0  0  0
 21 22  1  0  0  0  0
 23 24  1  0  0  0  0
 23 21  2  0  0  0  0
 25 26  1  0  0  0  0
 26 27  2  0  0  0  0
 26 33  1  0  0  0  0
 27  2  1  0  0  0  0
 28 27  1  0  0  0  0
 29 28  2  0  0  0  0
 30 29  1  0  0  0  0
 30 25  2  0  0  0  0
 31 25  1  0  0  0  0
 32 29  1  0  0  0  0
 33 38  1  0  0  0  0
 34 33  1  0  0  0  0
 34 35  1  0  0  0  0
 35 41  1  0  0  0  0
 35 36  1  0  0  0  0
 36 43  1  0  0  0  0
 36 37  1  0  0  0  0
 37 45  1  0  0  0  0
 38 37  1  0  0  0  0
 38 47  1  0  0  0  0
 38 46  1  0  0  0  0
 39 34  1  0  0  0  0
 40 34  1  0  0  0  0
 42 35  1  0  0  0  0
 44 37  1  0  0  0  0
M  END
>  <minimizedAffinity>
-6.50556278

$$$$

 OpenBabel03242523093D

 47 51  0  0  1  0  0  0  0  0999 V2000
   42.3220   29.8240   42.8250 C   0  0  0  0  0  0  0  0  0  0  0  0
   41.8650   31.1450   42.5740 C   0  0  0  0  0  0  0  0  0  0  0  0
   40.4870   31.1600   42.4250 C   0  0  0  0  0  0  0  0  0  0  0  0
   39.6390   30.0910   42.5020 C   0  0  0  0  0  0  0  0  0  0  0  0
   40.1660   28.8600   42.7490 C   0  0  0  0  0  0  0  0  0  0  0  0
   41.5130   28.7160   42.9120 C   0  0  0  0  0  0  0  0  0  0  0  0
   39.0880   27.9980   42.7720 O   0  0  0  0  0  0  0  0  0  0  0  0
   37.9050   28.6910   42.4960 C   0  0  1  0  0  0  0  0  0  0  0  0
   38.2700   30.0560   42.3570 O   0  0  0  0  0  0  0  0  0  0  0  0
   43.3450   29.4670   42.9890 H   0  0  0  0  0  0  0  0  0  0  0  0
   40.1480   32.1300   42.2320 H   0  0  0  0  0  0  0  0  0  0  0  0
   41.8310   27.7070   43.1020 H   0  0  0  0  0  0  0  0  0  0  0  0
   37.2220   28.6130   43.3770 H   0  0  0  0  0  0  0  0  0  0  0  0
   35.8360   30.3370   40.8810 Cl  0  0  0  0  0  0  0  0  0  0  0  0
   36.3420   28.7110   40.4790 C   0  0  0  0  0  0  0  0  0  0  0  0
   37.2700   28.1260   41.3040 C   0  0  0  0  0  0  0  0  0  0  0  0
   37.6150   26.8320   40.9140 C   0  0  0  0  0  0  0  0  0  0  0  0
   38.3510   26.2940   41.5200 H   0  0  0  0  0  0  0  0  0  0  0  0
   37.1140   26.1540   39.8220 C   0  0  0  0  0  0  0  0  0  0  0  0
   37.4540   25.1500   39.6100 H   0  0  0  0  0  0  0  0  0  0  0  0
   36.1860   26.8110   39.0410 C   0  0  0  0  0  0  0  0  0  0  0  0
   35.7560   26.3370   38.1750 H   0  0  0  0  0  0  0  0  0  0  0  0
   35.8040   28.0880   39.3750 C   0  0  0  0  0  0  0  0  0  0  0  0
   34.6310   28.9080   38.3830 Cl  0  0  0  0  0  0  0  0  0  0  0  0
   44.3410   33.8720   41.9240 C   0  0  0  0  0  0  0  0  0  0  0  0
   43.1990   33.1100   41.6720 C   0  0  0  0  0  0  0  0  0  0  0  0
   42.8970   32.1070   42.5460 C   0  0  0  0  0  0  0  0  0  0  0  0
   43.7110   31.9120   43.6000 N   0  0  0  0  0  0  0  0  0  0  0  0
   44.8070   32.6470   43.8370 C   0  0  0  0  0  0  0  0  0  0  0  0
   45.1150   33.6170   43.0010 N   0  0  0  0  0  0  0  0  0  0  0  0
   44.5980   34.6810   41.2290 H   0  0  0  0  0  0  0  0  0  0  0  0
   45.4980   32.5400   44.6600 H   0  0  0  0  0  0  0  0  0  0  0  0
   42.4100   33.4550   40.5680 N   0  0  0  0  0  0  0  0  0  0  0  0
   42.4650   32.8290   39.3400 C   0  0  0  0  0  0  0  0  0  0  0  0
   41.4110   33.2710   38.3490 C   0  0  0  0  0  0  0  0  0  0  0  0
   40.1290   33.4860   38.8770 N   0  0  0  0  0  0  0  0  0  0  0  0
   40.0670   34.1430   40.1220 C   0  0  0  0  0  0  0  0  0  0  0  0
   41.4410   34.5360   40.6110 C   0  0  0  0  0  0  0  0  0  0  0  0
   43.4540   33.0600   38.8430 H   0  0  0  0  0  0  0  0  0  0  0  0
   42.4580   31.7070   39.3610 H   0  0  0  0  0  0  0  0  0  0  0  0
   41.7720   34.2210   37.8680 H   0  0  0  0  0  0  0  0  0  0  0  0
   41.3730   32.5180   37.5530 H   0  0  0  0  0  0  0  0  0  0  0  0
   39.5020   33.7880   38.1300 H   0  0  0  0  0  0  0  0  0  0  0  0
   39.4590   33.6410   40.9030 H   0  0  0  0  0  0  0  0  0  0  0  0
   39.5330   35.1260   39.9660 H   0  0  0  0  0  0  0  0  0  0  0  0
   41.8320   35.3100   39.8930 H   0  0  0  0  0  0  0  0  0  0  0  0
   41.4120   35.0250   41.5990 H   0  0  0  0  0  0  0  0  0  0  0  0
  1  6  1  0  0  0  0
  1 10  1  0  0  0  0
  2  1  2  0  0  0  0
  3  4  2  0  0  0  0
  3  2  1  0  0  0  0
  4  5  1  0  0  0  0
  5  7  1  0  0  0  0
  5  6  2  0  0  0  0
  6 12  1  0  0  0  0
  8  7  1  0  0  0  0
  8 13  1  1  0  0  0
  9  8  1  0  0  0  0
  9  4  1  0  0  0  0
 11  3  1  0  0  0  0
 15 14  1  0  0  0  0
 15 16  1  0  0  0  0
 16  8  1  0  0  0  0
 17 16  2  0  0  0  0
 17 18  1  0  0  0  0
 19 17  1  0  0  0  0
 20 19  1  0  0  0  0
 21 23  1  0  0  0  0
 21 19  2  0  0  0  0
 22 21  1  0  0  0  0
 23 15  2  0  0  0  0
 24 23  1  0  0  0  0
 25 30  1  0  0  0  0
 26 25  2  0  0  0  0
 26 27  1  0  0  0  0
 27  2  1  0  0  0  0
 27 28  2  0  0  0  0
 28 29  1  0  0  0  0
 29 32  1  0  0  0  0
 30 29  2  0  0  0  0
 31 25  1  0  0  0  0
 33 38  1  0  0  0  0
 33 26  1  0  0  0  0
 34 40  1  0  0  0  0
 34 33  1  0  0  0  0
 35 36  1  0  0  0  0
 35 34  1  0  0  0  0
 36 37  1  0  0  0  0
 37 38  1  0  0  0  0
 37 44  1  0  0  0  0
 38 47  1  0  0  0  0
 39 34  1  0  0  0  0
 41 35  1  0  0  0  0
 42 35  1  0  0  0  0
 43 36  1  0  0  0  0
 45 37  1  0  0  0  0
 46 38  1  0  0  0  0
M  END
>  <minimizedAffinity>
-6.47813463

$$$$

 OpenBabel03242523093D

 47 51  0  0  1  0  0  0  0  0999 V2000
   36.5870   26.9540   38.8880 C   0  0  0  0  0  0  0  0  0  0  0  0
   37.0320   26.5130   40.1630 C   0  0  0  0  0  0  0  0  0  0  0  0
   37.1570   27.5870   41.0300 C   0  0  0  0  0  0  0  0  0  0  0  0
   36.9020   28.9010   40.7550 C   0  0  0  0  0  0  0  0  0  0  0  0
   36.4760   29.2320   39.5040 C   0  0  0  0  0  0  0  0  0  0  0  0
   36.3160   28.2620   38.5600 C   0  0  0  0  0  0  0  0  0  0  0  0
   36.3010   30.6020   39.5280 O   0  0  0  0  0  0  0  0  0  0  0  0
   36.6600   31.1160   40.7780 C   0  0  1  0  0  0  0  0  0  0  0  0
   37.0150   29.9990   41.5790 O   0  0  0  0  0  0  0  0  0  0  0  0
   36.3870   26.3660   37.9850 H   0  0  0  0  0  0  0  0  0  0  0  0
   37.4920   27.2670   41.9670 H   0  0  0  0  0  0  0  0  0  0  0  0
   35.9770   28.6220   37.6060 H   0  0  0  0  0  0  0  0  0  0  0  0
   35.7660   31.5960   41.2470 H   0  0  0  0  0  0  0  0  0  0  0  0
   39.5600   30.4160   41.6130 Cl  0  0  0  0  0  0  0  0  0  0  0  0
   39.0680   31.9490   40.9310 C   0  0  0  0  0  0  0  0  0  0  0  0
   37.7390   32.0930   40.6160 C   0  0  0  0  0  0  0  0  0  0  0  0
   37.4330   33.3430   40.0800 C   0  0  0  0  0  0  0  0  0  0  0  0
   36.3920   33.5390   39.8020 H   0  0  0  0  0  0  0  0  0  0  0  0
   38.3250   34.3720   39.8610 C   0  0  0  0  0  0  0  0  0  0  0  0
   37.9780   35.3040   39.4370 H   0  0  0  0  0  0  0  0  0  0  0  0
   39.6430   34.1500   40.2030 C   0  0  0  0  0  0  0  0  0  0  0  0
   40.3900   34.9120   40.0570 H   0  0  0  0  0  0  0  0  0  0  0  0
   40.0070   32.9370   40.7370 C   0  0  0  0  0  0  0  0  0  0  0  0
   41.6730   32.6670   41.1650 Cl  0  0  0  0  0  0  0  0  0  0  0  0
   38.1210   22.9690   40.6580 C   0  0  0  0  0  0  0  0  0  0  0  0
   38.2180   24.3550   40.7880 C   0  0  0  0  0  0  0  0  0  0  0  0
   37.2260   25.1180   40.2440 C   0  0  0  0  0  0  0  0  0  0  0  0
   36.2110   24.4930   39.6180 N   0  0  0  0  0  0  0  0  0  0  0  0
   36.1230   23.1610   39.4950 C   0  0  0  0  0  0  0  0  0  0  0  0
   37.0740   22.4100   40.0110 N   0  0  0  0  0  0  0  0  0  0  0  0
   38.9120   22.3430   41.0870 H   0  0  0  0  0  0  0  0  0  0  0  0
   35.3380   22.6030   39.0070 H   0  0  0  0  0  0  0  0  0  0  0  0
   39.3000   24.8720   41.5110 N   0  0  0  0  0  0  0  0  0  0  0  0
   39.4320   24.7960   42.8830 C   0  0  0  0  0  0  0  0  0  0  0  0
   40.7570   25.2870   43.4250 C   0  0  0  0  0  0  0  0  0  0  0  0
   41.8900   24.9400   42.6730 N   0  0  0  0  0  0  0  0  0  0  0  0
   41.7650   25.0350   41.2730 C   0  0  0  0  0  0  0  0  0  0  0  0
   40.4060   25.5600   40.8710 C   0  0  0  0  0  0  0  0  0  0  0  0
   38.6520   25.4510   43.3740 H   0  0  0  0  0  0  0  0  0  0  0  0
   39.2330   23.7920   43.3400 H   0  0  0  0  0  0  0  0  0  0  0  0
   40.7000   26.4070   43.5040 H   0  0  0  0  0  0  0  0  0  0  0  0
   40.8510   24.9110   44.4510 H   0  0  0  0  0  0  0  0  0  0  0  0
   42.7230   25.3270   43.1190 H   0  0  0  0  0  0  0  0  0  0  0  0
   42.0660   24.1340   40.6990 H   0  0  0  0  0  0  0  0  0  0  0  0
   42.4880   25.8260   40.9150 H   0  0  0  0  0  0  0  0  0  0  0  0
   40.3470   26.6220   41.2410 H   0  0  0  0  0  0  0  0  0  0  0  0
   40.2820   25.6110   39.7770 H   0  0  0  0  0  0  0  0  0  0  0  0
  1  2  1  0  0  0  0
  2 27  1  0  0  0  0
  2  3  2  0  0  0  0
  3 11  1  0  0  0  0
  4  3  1  0  0  0  0
  4  9  1  0  0  0  0
  5  7  1  0  0  0  0
  5  4  2  0  0  0  0
  6  1  2  0  0  0  0
  6  5  1  0  0  0  0
  7  8  1  0  0  0  0
  8 13  1  1  0  0  0
  8  9  1  0  0  0  0
 10  1  1  0  0  0  0
 12  6  1  0  0  0  0
 15 14  1  0  0  0  0
 16  8  1  0  0  0  0
 16 15  2  0  0  0  0
 17 16  1  0  0  0  0
 18 17  1  0  0  0  0
 19 17  2  0  0  0  0
 19 21  1  0  0  0  0
 20 19  1  0  0  0  0
 21 23  2  0  0  0  0
 22 21  1  0  0  0  0
 23 15  1  0  0  0  0
 23 24  1  0  0  0  0
 25 26  1  0  0  0  0
 25 31  1  0  0  0  0
 26 33  1  0  0  0  0
 27 26  2  0  0  0  0
 28 27  1  0  0  0  0
 29 28  2  0  0  0  0
 29 30  1  0  0  0  0
 30 25  2  0  0  0  0
 32 29  1  0  0  0  0
 33 34  1  0  0  0  0
 34 40  1  0  0  0  0
 34 39  1  0  0  0  0
 34 35  1  0  0  0  0
 35 41  1  0  0  0  0
 35 42  1  0  0  0  0
 36 43  1  0  0  0  0
 36 35  1  0  0  0  0
 37 36  1  0  0  0  0
 38 46  1  0  0  0  0
 38 37  1  0  0  0  0
 38 33  1  0  0  0  0
 44 37  1  0  0  0  0
 45 37  1  0  0  0  0
 47 38  1  0  0  0  0
M  END
>  <minimizedAffinity>
-6.43107891

$$$$

 OpenBabel03242523093D

 47 51  0  0  1  0  0  0  0  0999 V2000
   36.0800   29.0000   36.9570 C   0  0  0  0  0  0  0  0  0  0  0  0
   35.5300   28.7410   38.2400 C   0  0  0  0  0  0  0  0  0  0  0  0
   34.1470   28.6920   38.1740 C   0  0  0  0  0  0  0  0  0  0  0  0
   33.3700   28.8600   37.0620 C   0  0  0  0  0  0  0  0  0  0  0  0
   33.9840   29.1030   35.8710 C   0  0  0  0  0  0  0  0  0  0  0  0
   35.3440   29.1760   35.8080 C   0  0  0  0  0  0  0  0  0  0  0  0
   32.9620   29.2220   34.9500 O   0  0  0  0  0  0  0  0  0  0  0  0
   31.7210   29.0950   35.5820 C   0  0  1  0  0  0  0  0  0  0  0  0
   31.9980   28.8250   36.9480 O   0  0  0  0  0  0  0  0  0  0  0  0
   37.1310   29.0990   36.6620 H   0  0  0  0  0  0  0  0  0  0  0  0
   33.7390   28.5090   39.1190 H   0  0  0  0  0  0  0  0  0  0  0  0
   35.7330   29.3720   34.8250 H   0  0  0  0  0  0  0  0  0  0  0  0
   31.1870   28.2060   35.1640 H   0  0  0  0  0  0  0  0  0  0  0  0
   30.4210   29.6700   32.8290 Cl  0  0  0  0  0  0  0  0  0  0  0  0
   30.2950   30.7180   34.2240 C   0  0  0  0  0  0  0  0  0  0  0  0
   30.9340   30.3120   35.3690 C   0  0  0  0  0  0  0  0  0  0  0  0
   30.7830   31.2040   36.4300 C   0  0  0  0  0  0  0  0  0  0  0  0
   31.2630   30.9530   37.3810 H   0  0  0  0  0  0  0  0  0  0  0  0
   30.0770   32.3890   36.3990 C   0  0  0  0  0  0  0  0  0  0  0  0
   30.0250   33.0070   37.2840 H   0  0  0  0  0  0  0  0  0  0  0  0
   29.4620   32.7270   35.2110 C   0  0  0  0  0  0  0  0  0  0  0  0
   28.8960   33.6390   35.1200 H   0  0  0  0  0  0  0  0  0  0  0  0
   29.5750   31.8880   34.1290 C   0  0  0  0  0  0  0  0  0  0  0  0
   28.7950   32.3250   32.6350 Cl  0  0  0  0  0  0  0  0  0  0  0  0
   38.3010   28.9360   40.7450 C   0  0  0  0  0  0  0  0  0  0  0  0
   37.4570   29.4260   39.7470 C   0  0  0  0  0  0  0  0  0  0  0  0
   36.5020   28.5880   39.2520 C   0  0  0  0  0  0  0  0  0  0  0  0
   36.4230   27.3420   39.7560 N   0  0  0  0  0  0  0  0  0  0  0  0
   37.2360   26.8760   40.7150 C   0  0  0  0  0  0  0  0  0  0  0  0
   38.1670   27.6710   41.2000 N   0  0  0  0  0  0  0  0  0  0  0  0
   39.0760   29.5980   41.1510 H   0  0  0  0  0  0  0  0  0  0  0  0
   37.2240   25.8910   41.1570 H   0  0  0  0  0  0  0  0  0  0  0  0
   37.6130   30.7600   39.3530 N   0  0  0  0  0  0  0  0  0  0  0  0
   36.8520   31.8100   39.8250 C   0  0  0  0  0  0  0  0  0  0  0  0
   37.3040   33.1810   39.3720 C   0  0  0  0  0  0  0  0  0  0  0  0
   38.6920   33.3870   39.3420 N   0  0  0  0  0  0  0  0  0  0  0  0
   39.4720   32.3250   38.8420 C   0  0  0  0  0  0  0  0  0  0  0  0
   38.6090   31.1730   38.3800 C   0  0  0  0  0  0  0  0  0  0  0  0
   35.7920   31.7090   39.4450 H   0  0  0  0  0  0  0  0  0  0  0  0
   36.7110   31.8520   40.9370 H   0  0  0  0  0  0  0  0  0  0  0  0
   36.8860   33.3560   38.3430 H   0  0  0  0  0  0  0  0  0  0  0  0
   36.8250   33.9180   40.0280 H   0  0  0  0  0  0  0  0  0  0  0  0
   38.8860   34.3350   39.0150 H   0  0  0  0  0  0  0  0  0  0  0  0
   40.3150   32.0000   39.4860 H   0  0  0  0  0  0  0  0  0  0  0  0
   39.9830   32.6860   37.9020 H   0  0  0  0  0  0  0  0  0  0  0  0
   38.0200   31.5430   37.4950 H   0  0  0  0  0  0  0  0  0  0  0  0
   39.2060   30.3220   38.0140 H   0  0  0  0  0  0  0  0  0  0  0  0
  1  2  1  0  0  0  0
  2 27  1  0  0  0  0
  3  2  2  0  0  0  0
  3 11  1  0  0  0  0
  4  3  1  0  0  0  0
  5  4  2  0  0  0  0
  6  5  1  0  0  0  0
  6  1  2  0  0  0  0
  7  8  1  0  0  0  0
  7  5  1  0  0  0  0
  8 13  1  6  0  0  0
  8  9  1  0  0  0  0
  9  4  1  0  0  0  0
 10  1  1  0  0  0  0
 12  6  1  0  0  0  0
 14 15  1  0  0  0  0
 15 16  1  0  0  0  0
 16  8  1  0  0  0  0
 16 17  2  0  0  0  0
 17 18  1  0  0  0  0
 19 17  1  0  0  0  0
 19 20  1  0  0  0  0
 21 19  2  0  0  0  0
 22 21  1  0  0  0  0
 23 15  2  0  0  0  0
 23 21  1  0  0  0  0
 24 23  1  0  0  0  0
 25 31  1  0  0  0  0
 25 30  1  0  0  0  0
 26 25  2  0  0  0  0
 27 26  1  0  0  0  0
 27 28  2  0  0  0  0
 28 29  1  0  0  0  0
 29 32  1  0  0  0  0
 29 30  2  0  0  0  0
 33 26  1  0  0  0  0
 33 34  1  0  0  0  0
 34 40  1  0  0  0  0
 35 34  1  0  0  0  0
 35 42  1  0  0  0  0
 36 35  1  0  0  0  0
 37 36  1  0  0  0  0
 37 44  1  0  0  0  0
 38 37  1  0  0  0  0
 38 33  1  0  0  0  0
 39 34  1  0  0  0  0
 41 35  1  0  0  0  0
 43 36  1  0  0  0  0
 45 37  1  0  0  0  0
 46 38  1  0  0  0  0
 47 38  1  0  0  0  0
M  END
>  <minimizedAffinity>
-6.41203642

$$$$

 OpenBabel03242523093D

 47 51  0  0  1  0  0  0  0  0999 V2000
   41.8700   29.3190   42.7980 C   0  0  0  0  0  0  0  0  0  0  0  0
   41.3150   30.5720   42.4270 C   0  0  0  0  0  0  0  0  0  0  0  0
   39.9570   30.4480   42.1820 C   0  0  0  0  0  0  0  0  0  0  0  0
   39.2060   29.3100   42.2710 C   0  0  0  0  0  0  0  0  0  0  0  0
   39.8220   28.1510   42.6360 C   0  0  0  0  0  0  0  0  0  0  0  0
   41.1590   28.1460   42.9030 C   0  0  0  0  0  0  0  0  0  0  0  0
   38.8270   27.1940   42.6420 O   0  0  0  0  0  0  0  0  0  0  0  0
   37.6110   27.7540   42.2390 C   0  0  1  0  0  0  0  0  0  0  0  0
   37.8600   29.1360   42.0340 O   0  0  0  0  0  0  0  0  0  0  0  0
   42.9050   29.0710   43.0570 H   0  0  0  0  0  0  0  0  0  0  0  0
   39.5480   31.3680   41.9000 H   0  0  0  0  0  0  0  0  0  0  0  0
   41.5520   27.1850   43.1830 H   0  0  0  0  0  0  0  0  0  0  0  0
   36.8720   27.6650   43.0730 H   0  0  0  0  0  0  0  0  0  0  0  0
   37.1190   24.6960   42.2860 Cl  0  0  0  0  0  0  0  0  0  0  0  0
   36.8520   25.7220   40.8940 C   0  0  0  0  0  0  0  0  0  0  0  0
   37.1210   27.0600   41.0460 C   0  0  0  0  0  0  0  0  0  0  0  0
   36.8820   27.8030   39.8910 C   0  0  0  0  0  0  0  0  0  0  0  0
   37.0730   28.8810   39.9280 H   0  0  0  0  0  0  0  0  0  0  0  0
   36.4220   27.3080   38.6880 C   0  0  0  0  0  0  0  0  0  0  0  0
   36.2700   27.9780   37.8540 H   0  0  0  0  0  0  0  0  0  0  0  0
   36.1740   25.9530   38.6160 C   0  0  0  0  0  0  0  0  0  0  0  0
   35.8130   25.5030   37.7060 H   0  0  0  0  0  0  0  0  0  0  0  0
   36.3900   25.1670   39.7220 C   0  0  0  0  0  0  0  0  0  0  0  0
   36.0740   23.4570   39.6200 Cl  0  0  0  0  0  0  0  0  0  0  0  0
   43.5330   33.5190   41.7980 C   0  0  0  0  0  0  0  0  0  0  0  0
   42.4650   32.6580   41.5410 C   0  0  0  0  0  0  0  0  0  0  0  0
   42.2560   31.6240   42.4070 C   0  0  0  0  0  0  0  0  0  0  0  0
   43.0850   31.4970   43.4590 N   0  0  0  0  0  0  0  0  0  0  0  0
   44.1100   32.3270   43.7020 C   0  0  0  0  0  0  0  0  0  0  0  0
   44.3280   33.3270   42.8730 N   0  0  0  0  0  0  0  0  0  0  0  0
   43.7150   34.3520   41.1090 H   0  0  0  0  0  0  0  0  0  0  0  0
   44.8070   32.2770   44.5250 H   0  0  0  0  0  0  0  0  0  0  0  0
   41.6470   32.9370   40.4390 N   0  0  0  0  0  0  0  0  0  0  0  0
   41.7090   32.2760   39.2300 C   0  0  0  0  0  0  0  0  0  0  0  0
   40.6250   32.6460   38.2420 C   0  0  0  0  0  0  0  0  0  0  0  0
   39.3430   32.8280   38.7830 N   0  0  0  0  0  0  0  0  0  0  0  0
   39.2730   33.5210   40.0080 C   0  0  0  0  0  0  0  0  0  0  0  0
   40.6390   33.9820   40.4640 C   0  0  0  0  0  0  0  0  0  0  0  0
   42.6810   32.5290   38.7100 H   0  0  0  0  0  0  0  0  0  0  0  0
   41.7460   31.1560   39.2860 H   0  0  0  0  0  0  0  0  0  0  0  0
   40.9420   33.5930   37.7260 H   0  0  0  0  0  0  0  0  0  0  0  0
   40.6050   31.8670   37.4700 H   0  0  0  0  0  0  0  0  0  0  0  0
   38.6940   33.0830   38.0370 H   0  0  0  0  0  0  0  0  0  0  0  0
   38.6960   33.0210   40.8140 H   0  0  0  0  0  0  0  0  0  0  0  0
   38.7000   34.4780   39.8300 H   0  0  0  0  0  0  0  0  0  0  0  0
   40.9890   34.7470   39.7160 H   0  0  0  0  0  0  0  0  0  0  0  0
   40.6050   34.4990   41.4360 H   0  0  0  0  0  0  0  0  0  0  0  0
  1  6  1  0  0  0  0
  1 10  1  0  0  0  0
  2  1  2  0  0  0  0
  3  4  2  0  0  0  0
  3  2  1  0  0  0  0
  4  5  1  0  0  0  0
  5  7  1  0  0  0  0
  5  6  2  0  0  0  0
  6 12  1  0  0  0  0
  8  7  1  0  0  0  0
  8 13  1  1  0  0  0
  9  8  1  0  0  0  0
  9  4  1  0  0  0  0
 11  3  1  0  0  0  0
 15 16  1  0  0  0  0
 15 14  1  0  0  0  0
 16  8  1  0  0  0  0
 17 18  1  0  0  0  0
 17 16  2  0  0  0  0
 19 17  1  0  0  0  0
 20 19  1  0  0  0  0
 21 19  2  0  0  0  0
 21 23  1  0  0  0  0
 22 21  1  0  0  0  0
 23 15  2  0  0  0  0
 24 23  1  0  0  0  0
 25 30  1  0  0  0  0
 26 25  2  0  0  0  0
 26 27  1  0  0  0  0
 27  2  1  0  0  0  0
 27 28  2  0  0  0  0
 28 29  1  0  0  0  0
 29 32  1  0  0  0  0
 30 29  2  0  0  0  0
 31 25  1  0  0  0  0
 33 38  1  0  0  0  0
 33 26  1  0  0  0  0
 34 40  1  0  0  0  0
 34 33  1  0  0  0  0
 35 36  1  0  0  0  0
 35 34  1  0  0  0  0
 36 37  1  0  0  0  0
 37 38  1  0  0  0  0
 37 44  1  0  0  0  0
 38 47  1  0  0  0  0
 39 34  1  0  0  0  0
 41 35  1  0  0  0  0
 42 35  1  0  0  0  0
 43 36  1  0  0  0  0
 45 37  1  0  0  0  0
 46 38  1  0  0  0  0
M  END
>  <minimizedAffinity>
-6.317801

$$$$

 OpenBabel03242523093D

 47 51  0  0  1  0  0  0  0  0999 V2000
   37.6690   29.7940   37.9200 C   0  0  0  0  0  0  0  0  0  0  0  0
   37.2250   30.1170   39.2290 C   0  0  0  0  0  0  0  0  0  0  0  0
   35.8670   29.8700   39.3550 C   0  0  0  0  0  0  0  0  0  0  0  0
   35.0270   29.3830   38.3930 C   0  0  0  0  0  0  0  0  0  0  0  0
   35.5410   29.0980   37.1640 C   0  0  0  0  0  0  0  0  0  0  0  0
   36.8670   29.3020   36.9170 C   0  0  0  0  0  0  0  0  0  0  0  0
   34.4760   28.6300   36.4220 O   0  0  0  0  0  0  0  0  0  0  0  0
   33.3010   28.6680   37.1790 C   0  0  1  0  0  0  0  0  0  0  0  0
   33.6760   29.1260   38.4690 O   0  0  0  0  0  0  0  0  0  0  0  0
   38.6760   29.8700   37.4930 H   0  0  0  0  0  0  0  0  0  0  0  0
   35.5350   30.1150   40.3160 H   0  0  0  0  0  0  0  0  0  0  0  0
   37.1760   29.0470   35.9200 H   0  0  0  0  0  0  0  0  0  0  0  0
   32.9040   27.6290   37.2920 H   0  0  0  0  0  0  0  0  0  0  0  0
   30.9190   29.8570   38.7640 Cl  0  0  0  0  0  0  0  0  0  0  0  0
   31.2090   30.1260   37.0600 C   0  0  0  0  0  0  0  0  0  0  0  0
   32.3140   29.5230   36.5140 C   0  0  0  0  0  0  0  0  0  0  0  0
   32.4700   29.7880   35.1540 C   0  0  0  0  0  0  0  0  0  0  0  0
   33.3300   29.3430   34.6410 H   0  0  0  0  0  0  0  0  0  0  0  0
   31.6370   30.5690   34.3790 C   0  0  0  0  0  0  0  0  0  0  0  0
   31.8540   30.7090   33.3300 H   0  0  0  0  0  0  0  0  0  0  0  0
   30.5490   31.1420   35.0020 C   0  0  0  0  0  0  0  0  0  0  0  0
   29.8590   31.7620   34.4540 H   0  0  0  0  0  0  0  0  0  0  0  0
   30.3400   30.9170   36.3420 C   0  0  0  0  0  0  0  0  0  0  0  0
   28.9620   31.6440   37.1180 Cl  0  0  0  0  0  0  0  0  0  0  0  0
   39.7670   30.8840   41.8640 C   0  0  0  0  0  0  0  0  0  0  0  0
   38.7570   30.1370   41.2560 C   0  0  0  0  0  0  0  0  0  0  0  0
   38.2500   30.5930   40.0740 C   0  0  0  0  0  0  0  0  0  0  0  0
   38.7540   31.7310   39.5610 N   0  0  0  0  0  0  0  0  0  0  0  0
   39.7240   32.4450   40.1490 C   0  0  0  0  0  0  0  0  0  0  0  0
   40.2220   32.0200   41.2930 N   0  0  0  0  0  0  0  0  0  0  0  0
   40.1830   30.5310   42.8160 H   0  0  0  0  0  0  0  0  0  0  0  0
   40.1680   33.3610   39.7890 H   0  0  0  0  0  0  0  0  0  0  0  0
   38.3640   28.9420   41.8710 N   0  0  0  0  0  0  0  0  0  0  0  0
   37.3960   28.8480   42.8500 C   0  0  0  0  0  0  0  0  0  0  0  0
   37.0320   27.4360   43.2550 C   0  0  0  0  0  0  0  0  0  0  0  0
   36.9470   26.5040   42.2090 N   0  0  0  0  0  0  0  0  0  0  0  0
   37.9450   26.5840   41.2180 C   0  0  0  0  0  0  0  0  0  0  0  0
   38.9570   27.6610   41.5340 C   0  0  0  0  0  0  0  0  0  0  0  0
   37.7680   29.3400   43.7980 H   0  0  0  0  0  0  0  0  0  0  0  0
   36.4400   29.3980   42.6480 H   0  0  0  0  0  0  0  0  0  0  0  0
   37.8000   27.0850   43.9970 H   0  0  0  0  0  0  0  0  0  0  0  0
   36.0800   27.4860   43.7980 H   0  0  0  0  0  0  0  0  0  0  0  0
   36.7060   25.5890   42.5910 H   0  0  0  0  0  0  0  0  0  0  0  0
   37.5820   26.6290   40.1690 H   0  0  0  0  0  0  0  0  0  0  0  0
   38.5390   25.6240   41.2480 H   0  0  0  0  0  0  0  0  0  0  0  0
   39.4990   27.3330   42.4660 H   0  0  0  0  0  0  0  0  0  0  0  0
   39.7280   27.7560   40.7520 H   0  0  0  0  0  0  0  0  0  0  0  0
  1  2  1  0  0  0  0
  2  3  2  0  0  0  0
  2 27  1  0  0  0  0
  3 11  1  0  0  0  0
  4  9  1  0  0  0  0
  4  3  1  0  0  0  0
  5  4  2  0  0  0  0
  6  5  1  0  0  0  0
  6  1  2  0  0  0  0
  7  5  1  0  0  0  0
  7  8  1  0  0  0  0
  8 13  1  1  0  0  0
  8  9  1  0  0  0  0
 10  1  1  0  0  0  0
 12  6  1  0  0  0  0
 15 14  1  0  0  0  0
 16 15  1  0  0  0  0
 16  8  1  0  0  0  0
 17 16  2  0  0  0  0
 18 17  1  0  0  0  0
 19 21  2  0  0  0  0
 19 17  1  0  0  0  0
 20 19  1  0  0  0  0
 21 23  1  0  0  0  0
 22 21  1  0  0  0  0
 23 15  2  0  0  0  0
 23 24  1  0  0  0  0
 25 31  1  0  0  0  0
 26 25  2  0  0  0  0
 26 33  1  0  0  0  0
 27 26  1  0  0  0  0
 28 27  2  0  0  0  0
 28 29  1  0  0  0  0
 29 30  2  0  0  0  0
 30 25  1  0  0  0  0
 32 29  1  0  0  0  0
 33 34  1  0  0  0  0
 34 35  1  0  0  0  0
 34 39  1  0  0  0  0
 35 42  1  0  0  0  0
 35 41  1  0  0  0  0
 36 43  1  0  0  0  0
 36 35  1  0  0  0  0
 37 45  1  0  0  0  0
 37 38  1  0  0  0  0
 37 36  1  0  0  0  0
 38 33  1  0  0  0  0
 38 46  1  0  0  0  0
 40 34  1  0  0  0  0
 44 37  1  0  0  0  0
 47 38  1  0  0  0  0
M  END
>  <minimizedAffinity>
-6.28785849

$$$$
