
 OpenBabel03252506533D

 33 36  0  0  0  0  0  0  0  0999 V2000
   47.1320   31.3330   45.1510 C   0  0  0  0  0  0  0  0  0  0  0  0
   46.8210   32.6880   45.1740 C   0  0  0  0  0  0  0  0  0  0  0  0
   46.2610   33.3160   46.2860 C   0  0  0  0  0  0  0  0  0  0  0  0
   45.9980   32.5630   47.4290 C   0  0  0  0  0  0  0  0  0  0  0  0
   45.4730   32.8270   48.6610 N   0  0  0  0  0  0  0  0  0  0  0  0
   45.4600   31.6720   49.3780 C   0  0  0  0  0  0  0  0  0  0  0  0
   45.9810   30.7010   48.5710 N   0  0  0  0  0  0  0  0  0  0  0  0
   46.3120   31.2280   47.3840 C   0  0  0  0  0  0  0  0  0  0  0  0
   46.8620   30.5870   46.3050 C   0  0  0  0  0  0  0  0  0  0  0  0
   47.5640   30.9060   44.2610 H   0  0  0  0  0  0  0  0  0  0  0  0
   46.0240   34.3700   46.2930 H   0  0  0  0  0  0  0  0  0  0  0  0
   45.1460   33.7680   48.9740 H   0  0  0  0  0  0  0  0  0  0  0  0
   45.1070   31.5580   50.3800 H   0  0  0  0  0  0  0  0  0  0  0  0
   44.5200   28.9000   45.6870 Cl  0  0  0  0  0  0  0  0  0  0  0  0
   46.1530   28.2910   45.9930 C   0  0  0  0  0  0  0  0  0  0  0  0
   47.1910   29.1640   46.2760 C   0  0  0  0  0  0  0  0  0  0  0  0
   48.4570   28.6720   46.5130 C   0  0  0  0  0  0  0  0  0  0  0  0
   49.2620   29.3600   46.7320 H   0  0  0  0  0  0  0  0  0  0  0  0
   48.6270   27.3120   46.4540 C   0  0  0  0  0  0  0  0  0  0  0  0
   49.6480   26.9480   46.6460 H   0  0  0  0  0  0  0  0  0  0  0  0
   47.6260   26.4010   46.1760 C   0  0  0  0  0  0  0  0  0  0  0  0
   47.9060   25.3490   46.1620 H   0  0  0  0  0  0  0  0  0  0  0  0
   46.3720   26.9430   45.9460 C   0  0  0  0  0  0  0  0  0  0  0  0
   45.0870   25.7950   45.5920 Cl  0  0  0  0  0  0  0  0  0  0  0  0
   46.4460   35.1980   42.5170 C   0  0  0  0  0  0  0  0  0  0  0  0
   47.6210   35.0270   41.7740 C   0  0  0  0  0  0  0  0  0  0  0  0
   48.5350   34.0500   42.1890 C   0  0  0  0  0  0  0  0  0  0  0  0
   48.2290   33.3140   43.3030 N   0  0  0  0  0  0  0  0  0  0  0  0
   47.0820   33.5040   44.0020 C   0  0  0  0  0  0  0  0  0  0  0  0
   46.2150   34.4350   43.6040 N   0  0  0  0  0  0  0  0  0  0  0  0
   45.6900   35.9280   42.2660 H   0  0  0  0  0  0  0  0  0  0  0  0
   47.7940   35.6430   40.9080 H   0  0  0  0  0  0  0  0  0  0  0  0
   49.4510   33.8910   41.6400 H   0  0  0  0  0  0  0  0  0  0  0  0
  1  2  2  0  0  0  0
  1  9  1  0  0  0  0
  2  3  1  0  0  0  0
  3 11  1  0  0  0  0
  3  4  2  0  0  0  0
  4  5  1  0  0  0  0
  5 12  1  0  0  0  0
  5  6  1  0  0  0  0
  6 13  1  0  0  0  0
  7  6  2  0  0  0  0
  8  4  1  0  0  0  0
  8  7  1  0  0  0  0
  9  8  2  0  0  0  0
 10  1  1  0  0  0  0
 14 15  1  0  0  0  0
 15 16  1  0  0  0  0
 16  9  1  0  0  0  0
 16 17  2  0  0  0  0
 17 18  1  0  0  0  0
 19 17  1  0  0  0  0
 19 20  1  0  0  0  0
 21 19  2  0  0  0  0
 22 21  1  0  0  0  0
 23 15  2  0  0  0  0
 23 21  1  0  0  0  0
 24 23  1  0  0  0  0
 25 30  1  0  0  0  0
 26 27  1  0  0  0  0
 26 25  2  0  0  0  0
 27 28  2  0  0  0  0
 28 29  1  0  0  0  0
 29  2  1  0  0  0  0
 30 29  2  0  0  0  0
 31 25  1  0  0  0  0
 32 26  1  0  0  0  0
 33 27  1  0  0  0  0
M  END
>  <minimizedAffinity>
-5.46962547

>  <minimizedRMSD>
0.359107286

$$$$
