
 OpenBabel03252500383D

 48 51  0  0  1  0  0  0  0  0999 V2000
   36.9550   25.7270   42.3160 C   0  0  1  0  0  0  0  0  0  0  0  0
   36.8670   24.5690   41.5420 C   0  0  0  0  0  0  0  0  0  0  0  0
   38.1500   24.7330   42.2470 C   0  0  1  0  0  0  0  0  0  0  0  0
   36.4600   25.7940   43.3250 H   0  0  0  0  0  0  0  0  0  0  0  0
   36.9440   24.6080   40.4160 H   0  0  0  0  0  0  0  0  0  0  0  0
   36.1980   23.7350   41.8540 H   0  0  0  0  0  0  0  0  0  0  0  0
   38.3560   24.3130   43.2420 H   0  0  0  0  0  0  0  0  0  0  0  0
   37.4040   28.1400   42.8020 C   0  0  0  0  0  0  0  0  0  0  0  0
   37.2200   27.1140   41.8200 C   0  0  0  0  0  0  0  0  0  0  0  0
   37.2860   27.4190   40.4970 C   0  0  0  0  0  0  0  0  0  0  0  0
   37.5330   28.7320   40.1790 N   0  0  0  0  0  0  0  0  0  0  0  0
   37.7070   29.7000   41.1030 C   0  0  0  0  0  0  0  0  0  0  0  0
   37.6450   29.4250   42.4510 N   0  0  0  0  0  0  0  0  0  0  0  0
   37.3440   27.8640   43.8540 H   0  0  0  0  0  0  0  0  0  0  0  0
   37.1530   26.6750   39.7470 H   0  0  0  0  0  0  0  0  0  0  0  0
   40.5450   30.6050   41.5040 Cl  0  0  0  0  0  0  0  0  0  0  0  0
   39.2350   31.5890   40.8440 C   0  0  0  0  0  0  0  0  0  0  0  0
   37.9660   31.0790   40.7010 C   0  0  0  0  0  0  0  0  0  0  0  0
   36.9700   31.8750   40.1830 C   0  0  0  0  0  0  0  0  0  0  0  0
   35.9700   31.5250   40.0520 H   0  0  0  0  0  0  0  0  0  0  0  0
   37.3380   33.1670   39.8360 C   0  0  0  0  0  0  0  0  0  0  0  0
   36.5390   33.7950   39.4240 H   0  0  0  0  0  0  0  0  0  0  0  0
   38.5830   33.7320   39.9550 C   0  0  0  0  0  0  0  0  0  0  0  0
   38.7580   34.7510   39.6530 H   0  0  0  0  0  0  0  0  0  0  0  0
   39.5550   32.8930   40.4810 C   0  0  0  0  0  0  0  0  0  0  0  0
   41.1870   33.5110   40.6790 Cl  0  0  0  0  0  0  0  0  0  0  0  0
   39.3720   25.1210   41.5000 C   0  0  0  0  0  0  0  0  0  0  0  0
   39.2830   26.1630   41.1340 H   0  0  0  0  0  0  0  0  0  0  0  0
   39.5460   24.4230   40.6590 H   0  0  0  0  0  0  0  0  0  0  0  0
   40.4580   25.0710   42.4110 N   0  0  0  0  0  0  0  0  0  0  0  0
   40.2480   25.5200   43.7220 C   0  0  0  0  0  0  0  0  0  0  0  0
   40.5690   27.0200   43.8670 C   0  0  0  0  0  0  0  0  0  0  0  0
   42.0540   27.1570   43.6800 C   0  0  0  0  0  0  0  0  0  0  0  0
   42.3540   26.6640   42.2800 C   0  0  0  0  0  0  0  0  0  0  0  0
   41.7560   25.3240   41.9470 C   0  0  2  0  0  0  0  0  0  0  0  0
   41.0750   25.0410   44.3330 H   0  0  0  0  0  0  0  0  0  0  0  0
   39.3490   25.2220   44.2550 H   0  0  0  0  0  0  0  0  0  0  0  0
   40.2820   27.3670   44.8870 H   0  0  0  0  0  0  0  0  0  0  0  0
   40.0660   27.6300   43.1150 H   0  0  0  0  0  0  0  0  0  0  0  0
   42.6410   26.6370   44.4480 H   0  0  0  0  0  0  0  0  0  0  0  0
   42.3020   28.2350   43.6910 H   0  0  0  0  0  0  0  0  0  0  0  0
   41.9860   27.4090   41.5570 H   0  0  0  0  0  0  0  0  0  0  0  0
   43.4480   26.5940   42.1600 H   0  0  0  0  0  0  0  0  0  0  0  0
   42.4510   24.5570   42.3660 H   0  0  0  0  0  0  0  0  0  0  0  0
   41.8630   25.1580   40.4390 C   0  0  0  0  0  0  0  0  0  0  0  0
   42.9210   25.2560   40.1280 H   0  0  0  0  0  0  0  0  0  0  0  0
   41.4890   24.1360   40.2110 H   0  0  0  0  0  0  0  0  0  0  0  0
   41.1980   25.8760   39.9260 H   0  0  0  0  0  0  0  0  0  0  0  0
  1  4  1  1  0  0  0
  2  6  1  0  0  0  0
  2  3  1  0  0  0  0
  2  1  1  0  0  0  0
  3  1  1  0  0  0  0
  3  7  1  1  0  0  0
  5  2  1  0  0  0  0
  8 14  1  0  0  0  0
  9  1  1  0  0  0  0
  9  8  2  0  0  0  0
 10  9  1  0  0  0  0
 11 10  2  0  0  0  0
 11 12  1  0  0  0  0
 12 13  2  0  0  0  0
 13  8  1  0  0  0  0
 15 10  1  0  0  0  0
 17 16  1  0  0  0  0
 18 17  1  0  0  0  0
 18 12  1  0  0  0  0
 19 18  2  0  0  0  0
 20 19  1  0  0  0  0
 21 23  2  0  0  0  0
 21 19  1  0  0  0  0
 22 21  1  0  0  0  0
 23 25  1  0  0  0  0
 24 23  1  0  0  0  0
 25 26  1  0  0  0  0
 25 17  2  0  0  0  0
 27  3  1  0  0  0  0
 27 30  1  0  0  0  0
 28 27  1  0  0  0  0
 29 27  1  0  0  0  0
 30 31  1  0  0  0  0
 31 32  1  0  0  0  0
 31 37  1  0  0  0  0
 31 36  1  0  0  0  0
 32 38  1  0  0  0  0
 33 41  1  0  0  0  0
 33 32  1  0  0  0  0
 33 40  1  0  0  0  0
 34 33  1  0  0  0  0
 35 34  1  0  0  0  0
 35 44  1  1  0  0  0
 35 30  1  0  0  0  0
 39 32  1  0  0  0  0
 42 34  1  0  0  0  0
 43 34  1  0  0  0  0
 45 35  1  0  0  0  0
 46 45  1  0  0  0  0
 47 45  1  0  0  0  0
 48 45  1  0  0  0  0
M  END
>  <minimizedAffinity>
-5.99292088

$$$$

 OpenBabel03252500383D

 48 51  0  0  1  0  0  0  0  0999 V2000
   35.7950   30.1710   40.2050 C   0  0  1  0  0  0  0  0  0  0  0  0
   34.7790   29.2700   39.8820 C   0  0  0  0  0  0  0  0  0  0  0  0
   35.6060   28.8680   41.0330 C   0  0  1  0  0  0  0  0  0  0  0  0
   35.5770   31.1200   40.7700 H   0  0  0  0  0  0  0  0  0  0  0  0
   34.8610   28.5880   38.9860 H   0  0  0  0  0  0  0  0  0  0  0  0
   33.7130   29.5360   40.0670 H   0  0  0  0  0  0  0  0  0  0  0  0
   35.3560   29.1110   42.0760 H   0  0  0  0  0  0  0  0  0  0  0  0
   38.2480   30.6530   40.3060 C   0  0  0  0  0  0  0  0  0  0  0  0
   37.1090   30.3230   39.5030 C   0  0  0  0  0  0  0  0  0  0  0  0
   37.2450   30.1630   38.1610 C   0  0  0  0  0  0  0  0  0  0  0  0
   38.5060   30.3340   37.6460 N   0  0  0  0  0  0  0  0  0  0  0  0
   39.5820   30.6450   38.4000 C   0  0  0  0  0  0  0  0  0  0  0  0
   39.4770   30.8140   39.7630 N   0  0  0  0  0  0  0  0  0  0  0  0
   38.1060   30.7750   41.3790 H   0  0  0  0  0  0  0  0  0  0  0  0
   36.4140   29.9180   37.5430 H   0  0  0  0  0  0  0  0  0  0  0  0
   40.7440   33.4020   38.6840 Cl  0  0  0  0  0  0  0  0  0  0  0  0
   41.5170   32.0390   37.8680 C   0  0  0  0  0  0  0  0  0  0  0  0
   40.8980   30.8140   37.7920 C   0  0  0  0  0  0  0  0  0  0  0  0
   41.5290   29.7750   37.1470 C   0  0  0  0  0  0  0  0  0  0  0  0
   41.0900   28.8050   37.0620 H   0  0  0  0  0  0  0  0  0  0  0  0
   42.7760   30.0560   36.6090 C   0  0  0  0  0  0  0  0  0  0  0  0
   43.2730   29.2230   36.0970 H   0  0  0  0  0  0  0  0  0  0  0  0
   43.4430   31.2550   36.6520 C   0  0  0  0  0  0  0  0  0  0  0  0
   44.4140   31.3630   36.1980 H   0  0  0  0  0  0  0  0  0  0  0  0
   42.7700   32.2730   37.3110 C   0  0  0  0  0  0  0  0  0  0  0  0
   43.5300   33.8520   37.4270 Cl  0  0  0  0  0  0  0  0  0  0  0  0
   36.5990   27.7740   40.8980 C   0  0  0  0  0  0  0  0  0  0  0  0
   37.5410   28.1620   40.4640 H   0  0  0  0  0  0  0  0  0  0  0  0
   36.1870   26.9570   40.2740 H   0  0  0  0  0  0  0  0  0  0  0  0
   36.8840   27.2970   42.2030 N   0  0  0  0  0  0  0  0  0  0  0  0
   37.3970   28.2010   43.1430 C   0  0  0  0  0  0  0  0  0  0  0  0
   38.9380   28.2250   43.1250 C   0  0  0  0  0  0  0  0  0  0  0  0
   39.3890   26.8860   43.6390 C   0  0  0  0  0  0  0  0  0  0  0  0
   38.8460   25.8540   42.6730 C   0  0  0  0  0  0  0  0  0  0  0  0
   37.3790   25.9960   42.3670 C   0  0  2  0  0  0  0  0  0  0  0  0
   37.1800   27.7310   44.1520 H   0  0  0  0  0  0  0  0  0  0  0  0
   36.9560   29.1900   43.2370 H   0  0  0  0  0  0  0  0  0  0  0  0
   39.3070   29.0330   43.7990 H   0  0  0  0  0  0  0  0  0  0  0  0
   39.3420   28.3670   42.1220 H   0  0  0  0  0  0  0  0  0  0  0  0
   39.0920   26.6930   44.6770 H   0  0  0  0  0  0  0  0  0  0  0  0
   40.4920   26.8420   43.5530 H   0  0  0  0  0  0  0  0  0  0  0  0
   39.4140   25.9170   41.7320 H   0  0  0  0  0  0  0  0  0  0  0  0
   39.0140   24.8510   43.0990 H   0  0  0  0  0  0  0  0  0  0  0  0
   36.8340   25.4990   43.2050 H   0  0  0  0  0  0  0  0  0  0  0  0
   37.0970   25.1250   41.1530 C   0  0  0  0  0  0  0  0  0  0  0  0
   37.4020   24.0810   41.3650 H   0  0  0  0  0  0  0  0  0  0  0  0
   36.0000   25.1760   40.9800 H   0  0  0  0  0  0  0  0  0  0  0  0
   37.5930   25.5410   40.2570 H   0  0  0  0  0  0  0  0  0  0  0  0
  1  4  1  1  0  0  0
  1  3  1  0  0  0  0
  2  6  1  0  0  0  0
  2  1  1  0  0  0  0
  2  3  1  0  0  0  0
  3  7  1  1  0  0  0
  5  2  1  0  0  0  0
  8 14  1  0  0  0  0
  9  1  1  0  0  0  0
  9  8  2  0  0  0  0
 10  9  1  0  0  0  0
 11 10  2  0  0  0  0
 11 12  1  0  0  0  0
 12 13  2  0  0  0  0
 13  8  1  0  0  0  0
 15 10  1  0  0  0  0
 17 16  1  0  0  0  0
 18 17  1  0  0  0  0
 18 12  1  0  0  0  0
 19 18  2  0  0  0  0
 20 19  1  0  0  0  0
 21 23  2  0  0  0  0
 21 19  1  0  0  0  0
 22 21  1  0  0  0  0
 23 25  1  0  0  0  0
 24 23  1  0  0  0  0
 25 26  1  0  0  0  0
 25 17  2  0  0  0  0
 27  3  1  0  0  0  0
 27 30  1  0  0  0  0
 28 27  1  0  0  0  0
 29 27  1  0  0  0  0
 30 35  1  0  0  0  0
 30 31  1  0  0  0  0
 31 37  1  0  0  0  0
 31 36  1  0  0  0  0
 32 31  1  0  0  0  0
 32 33  1  0  0  0  0
 32 38  1  0  0  0  0
 33 40  1  0  0  0  0
 34 43  1  0  0  0  0
 34 33  1  0  0  0  0
 35 34  1  0  0  0  0
 35 44  1  1  0  0  0
 39 32  1  0  0  0  0
 41 33  1  0  0  0  0
 42 34  1  0  0  0  0
 45 46  1  0  0  0  0
 45 35  1  0  0  0  0
 47 45  1  0  0  0  0
 48 45  1  0  0  0  0
M  END
>  <minimizedAffinity>
-5.97193432

$$$$

 OpenBabel03252500383D

 48 51  0  0  1  0  0  0  0  0999 V2000
   37.0450   31.4010   38.5420 C   0  0  1  0  0  0  0  0  0  0  0  0
   36.9710   30.4100   37.5610 C   0  0  0  0  0  0  0  0  0  0  0  0
   36.5630   29.9670   38.9060 C   0  0  1  0  0  0  0  0  0  0  0  0
   36.2530   32.1970   38.6280 H   0  0  0  0  0  0  0  0  0  0  0  0
   37.9010   29.9050   37.1650 H   0  0  0  0  0  0  0  0  0  0  0  0
   36.1930   30.4630   36.7660 H   0  0  0  0  0  0  0  0  0  0  0  0
   35.5240   29.9930   39.2660 H   0  0  0  0  0  0  0  0  0  0  0  0
   39.5400   31.5300   38.6510 C   0  0  0  0  0  0  0  0  0  0  0  0
   38.2810   31.8790   39.2360 C   0  0  0  0  0  0  0  0  0  0  0  0
   38.2430   32.6120   40.3790 C   0  0  0  0  0  0  0  0  0  0  0  0
   39.4520   32.9830   40.9140 N   0  0  0  0  0  0  0  0  0  0  0  0
   40.6400   32.6560   40.3640 C   0  0  0  0  0  0  0  0  0  0  0  0
   40.7140   31.9130   39.2060 N   0  0  0  0  0  0  0  0  0  0  0  0
   39.5380   30.9410   37.7340 H   0  0  0  0  0  0  0  0  0  0  0  0
   37.3200   32.8850   40.8350 H   0  0  0  0  0  0  0  0  0  0  0  0
   41.6650   30.8110   42.5030 Cl  0  0  0  0  0  0  0  0  0  0  0  0
   42.4460   32.3040   41.9720 C   0  0  0  0  0  0  0  0  0  0  0  0
   41.8920   33.0800   40.9810 C   0  0  0  0  0  0  0  0  0  0  0  0
   42.5280   34.2370   40.5930 C   0  0  0  0  0  0  0  0  0  0  0  0
   42.1390   34.8730   39.8290 H   0  0  0  0  0  0  0  0  0  0  0  0
   43.7110   34.5360   41.2530 C   0  0  0  0  0  0  0  0  0  0  0  0
   44.2130   35.4590   40.9380 H   0  0  0  0  0  0  0  0  0  0  0  0
   44.3110   33.8030   42.2460 C   0  0  0  0  0  0  0  0  0  0  0  0
   45.2360   34.1310   42.6920 H   0  0  0  0  0  0  0  0  0  0  0  0
   43.6360   32.6460   42.6050 C   0  0  0  0  0  0  0  0  0  0  0  0
   44.3120   31.6290   43.8670 Cl  0  0  0  0  0  0  0  0  0  0  0  0
   37.4490   29.0880   39.7080 C   0  0  0  0  0  0  0  0  0  0  0  0
   38.3900   29.6180   39.9590 H   0  0  0  0  0  0  0  0  0  0  0  0
   37.6610   28.1510   39.1570 H   0  0  0  0  0  0  0  0  0  0  0  0
   36.7740   28.8000   40.9220 N   0  0  0  0  0  0  0  0  0  0  0  0
   36.9270   29.6890   41.9940 C   0  0  0  0  0  0  0  0  0  0  0  0
   38.1140   29.2940   42.8950 C   0  0  0  0  0  0  0  0  0  0  0  0
   37.7320   28.0010   43.5580 C   0  0  0  0  0  0  0  0  0  0  0  0
   37.5290   26.9940   42.4450 C   0  0  0  0  0  0  0  0  0  0  0  0
   36.6350   27.4670   41.3310 C   0  0  2  0  0  0  0  0  0  0  0  0
   36.0400   29.4880   42.6720 H   0  0  0  0  0  0  0  0  0  0  0  0
   36.8610   30.7600   41.8200 H   0  0  0  0  0  0  0  0  0  0  0  0
   38.2770   30.0820   43.6660 H   0  0  0  0  0  0  0  0  0  0  0  0
   39.0330   29.1360   42.3290 H   0  0  0  0  0  0  0  0  0  0  0  0
   36.8570   28.0890   44.2160 H   0  0  0  0  0  0  0  0  0  0  0  0
   38.6020   27.6470   44.1430 H   0  0  0  0  0  0  0  0  0  0  0  0
   38.5110   26.7290   42.0250 H   0  0  0  0  0  0  0  0  0  0  0  0
   37.0900   26.0790   42.8750 H   0  0  0  0  0  0  0  0  0  0  0  0
   35.5860   27.2970   41.6750 H   0  0  0  0  0  0  0  0  0  0  0  0
   36.8220   26.4960   40.1750 C   0  0  0  0  0  0  0  0  0  0  0  0
   36.5950   25.4660   40.5130 H   0  0  0  0  0  0  0  0  0  0  0  0
   36.1040   26.8070   39.3860 H   0  0  0  0  0  0  0  0  0  0  0  0
   37.8400   26.5920   39.7540 H   0  0  0  0  0  0  0  0  0  0  0  0
  1  4  1  6  0  0  0
  1  3  1  0  0  0  0
  1  9  1  0  0  0  0
  2  1  1  0  0  0  0
  2  3  1  0  0  0  0
  3  7  1  1  0  0  0
  3 27  1  0  0  0  0
  5  2  1  0  0  0  0
  6  2  1  0  0  0  0
  8 13  2  0  0  0  0
  8  9  1  0  0  0  0
  9 10  2  0  0  0  0
 10 15  1  0  0  0  0
 10 11  1  0  0  0  0
 12 11  2  0  0  0  0
 12 18  1  0  0  0  0
 13 12  1  0  0  0  0
 14  8  1  0  0  0  0
 17 16  1  0  0  0  0
 17 25  1  0  0  0  0
 18 17  2  0  0  0  0
 19 18  1  0  0  0  0
 19 21  2  0  0  0  0
 20 19  1  0  0  0  0
 21 23  1  0  0  0  0
 22 21  1  0  0  0  0
 23 25  2  0  0  0  0
 23 24  1  0  0  0  0
 25 26  1  0  0  0  0
 27 28  1  0  0  0  0
 27 30  1  0  0  0  0
 29 27  1  0  0  0  0
 30 35  1  0  0  0  0
 30 31  1  0  0  0  0
 31 36  1  0  0  0  0
 31 32  1  0  0  0  0
 32 33  1  0  0  0  0
 32 38  1  0  0  0  0
 33 41  1  0  0  0  0
 33 40  1  0  0  0  0
 34 43  1  0  0  0  0
 34 33  1  0  0  0  0
 35 44  1  1  0  0  0
 35 34  1  0  0  0  0
 37 31  1  0  0  0  0
 39 32  1  0  0  0  0
 42 34  1  0  0  0  0
 45 46  1  0  0  0  0
 45 35  1  0  0  0  0
 47 45  1  0  0  0  0
 48 45  1  0  0  0  0
M  END
>  <minimizedAffinity>
-5.75880098

$$$$

 OpenBabel03252500383D

 48 51  0  0  1  0  0  0  0  0999 V2000
   35.7190   29.9810   39.2970 C   0  0  1  0  0  0  0  0  0  0  0  0
   35.4500   28.9120   38.4400 C   0  0  0  0  0  0  0  0  0  0  0  0
   35.6680   28.5260   39.8460 C   0  0  1  0  0  0  0  0  0  0  0  0
   34.8950   30.6510   39.6700 H   0  0  0  0  0  0  0  0  0  0  0  0
   36.2310   28.5230   37.7230 H   0  0  0  0  0  0  0  0  0  0  0  0
   34.4320   28.7790   38.0100 H   0  0  0  0  0  0  0  0  0  0  0  0
   34.8570   28.4230   40.5810 H   0  0  0  0  0  0  0  0  0  0  0  0
   37.1600   31.5910   40.5570 C   0  0  0  0  0  0  0  0  0  0  0  0
   37.0240   30.6980   39.4460 C   0  0  0  0  0  0  0  0  0  0  0  0
   38.0550   30.5320   38.5770 C   0  0  0  0  0  0  0  0  0  0  0  0
   39.1960   31.2530   38.8290 N   0  0  0  0  0  0  0  0  0  0  0  0
   39.3270   32.0950   39.8760 C   0  0  0  0  0  0  0  0  0  0  0  0
   38.3000   32.2870   40.7750 N   0  0  0  0  0  0  0  0  0  0  0  0
   36.3150   31.7030   41.2350 H   0  0  0  0  0  0  0  0  0  0  0  0
   37.9800   29.8740   37.7430 H   0  0  0  0  0  0  0  0  0  0  0  0
   41.0240   31.0590   42.1300 Cl  0  0  0  0  0  0  0  0  0  0  0  0
   41.4150   32.4390   41.0980 C   0  0  0  0  0  0  0  0  0  0  0  0
   40.5660   32.8340   40.0910 C   0  0  0  0  0  0  0  0  0  0  0  0
   40.9030   33.9140   39.3070 C   0  0  0  0  0  0  0  0  0  0  0  0
   40.2780   34.2590   38.5130 H   0  0  0  0  0  0  0  0  0  0  0  0
   42.1060   34.5360   39.6060 C   0  0  0  0  0  0  0  0  0  0  0  0
   42.3680   35.3960   38.9770 H   0  0  0  0  0  0  0  0  0  0  0  0
   42.9920   34.1890   40.5960 C   0  0  0  0  0  0  0  0  0  0  0  0
   43.9030   34.7460   40.7410 H   0  0  0  0  0  0  0  0  0  0  0  0
   42.6120   33.0960   41.3600 C   0  0  0  0  0  0  0  0  0  0  0  0
   43.6700   32.5620   42.6560 Cl  0  0  0  0  0  0  0  0  0  0  0  0
   36.9300   27.8630   40.2550 C   0  0  0  0  0  0  0  0  0  0  0  0
   37.7820   28.5630   40.1520 H   0  0  0  0  0  0  0  0  0  0  0  0
   37.0970   26.9500   39.6510 H   0  0  0  0  0  0  0  0  0  0  0  0
   36.8050   27.5260   41.6270 N   0  0  0  0  0  0  0  0  0  0  0  0
   36.9930   28.5370   42.5790 C   0  0  0  0  0  0  0  0  0  0  0  0
   38.4650   28.6260   43.0300 C   0  0  0  0  0  0  0  0  0  0  0  0
   38.7530   27.3640   43.7930 C   0  0  0  0  0  0  0  0  0  0  0  0
   38.5450   26.2220   42.8200 C   0  0  0  0  0  0  0  0  0  0  0  0
   37.2420   26.2690   42.0690 C   0  0  2  0  0  0  0  0  0  0  0  0
   36.4820   28.1560   43.5170 H   0  0  0  0  0  0  0  0  0  0  0  0
   36.5330   29.5100   42.4300 H   0  0  0  0  0  0  0  0  0  0  0  0
   38.5990   29.5100   43.6950 H   0  0  0  0  0  0  0  0  0  0  0  0
   39.1560   28.6900   42.1890 H   0  0  0  0  0  0  0  0  0  0  0  0
   38.1530   27.2580   44.7060 H   0  0  0  0  0  0  0  0  0  0  0  0
   39.8290   27.3600   44.0530 H   0  0  0  0  0  0  0  0  0  0  0  0
   39.3750   26.2190   42.0960 H   0  0  0  0  0  0  0  0  0  0  0  0
   38.5870   25.2720   43.3800 H   0  0  0  0  0  0  0  0  0  0  0  0
   36.4720   25.8310   42.7480 H   0  0  0  0  0  0  0  0  0  0  0  0
   37.3580   25.2740   40.9250 C   0  0  0  0  0  0  0  0  0  0  0  0
   37.5960   24.2700   41.3270 H   0  0  0  0  0  0  0  0  0  0  0  0
   36.3670   25.2600   40.4220 H   0  0  0  0  0  0  0  0  0  0  0  0
   38.1010   25.6250   40.1840 H   0  0  0  0  0  0  0  0  0  0  0  0
  1  9  1  0  0  0  0
  1  4  1  1  0  0  0
  1  3  1  0  0  0  0
  2  1  1  0  0  0  0
  2  3  1  0  0  0  0
  3 27  1  0  0  0  0
  3  7  1  1  0  0  0
  5  2  1  0  0  0  0
  6  2  1  0  0  0  0
  8 13  1  0  0  0  0
  8 14  1  0  0  0  0
  9  8  2  0  0  0  0
 10 11  2  0  0  0  0
 10  9  1  0  0  0  0
 11 12  1  0  0  0  0
 12 18  1  0  0  0  0
 12 13  2  0  0  0  0
 15 10  1  0  0  0  0
 17 25  1  0  0  0  0
 17 16  1  0  0  0  0
 18 17  2  0  0  0  0
 19 21  2  0  0  0  0
 19 18  1  0  0  0  0
 20 19  1  0  0  0  0
 21 23  1  0  0  0  0
 22 21  1  0  0  0  0
 23 24  1  0  0  0  0
 23 25  2  0  0  0  0
 25 26  1  0  0  0  0
 27 30  1  0  0  0  0
 28 27  1  0  0  0  0
 29 27  1  0  0  0  0
 30 35  1  0  0  0  0
 30 31  1  0  0  0  0
 31 32  1  0  0  0  0
 31 36  1  0  0  0  0
 32 38  1  0  0  0  0
 32 33  1  0  0  0  0
 33 41  1  0  0  0  0
 33 40  1  0  0  0  0
 34 43  1  0  0  0  0
 34 33  1  0  0  0  0
 35 44  1  1  0  0  0
 35 34  1  0  0  0  0
 37 31  1  0  0  0  0
 39 32  1  0  0  0  0
 42 34  1  0  0  0  0
 45 46  1  0  0  0  0
 45 35  1  0  0  0  0
 47 45  1  0  0  0  0
 48 45  1  0  0  0  0
M  END
>  <minimizedAffinity>
-5.7328043

$$$$

 OpenBabel03252500383D

 48 51  0  0  1  0  0  0  0  0999 V2000
   37.4970   28.2720   43.6440 C   0  0  1  0  0  0  0  0  0  0  0  0
   36.3300   27.5380   43.4280 C   0  0  0  0  0  0  0  0  0  0  0  0
   37.5750   26.7900   43.1780 C   0  0  1  0  0  0  0  0  0  0  0  0
   37.8860   28.4570   44.6850 H   0  0  0  0  0  0  0  0  0  0  0  0
   35.6930   27.7040   42.5100 H   0  0  0  0  0  0  0  0  0  0  0  0
   35.6930   27.2280   44.2880 H   0  0  0  0  0  0  0  0  0  0  0  0
   38.0790   26.1760   43.9390 H   0  0  0  0  0  0  0  0  0  0  0  0
   39.4950   29.5590   42.8630 C   0  0  0  0  0  0  0  0  0  0  0  0
   38.0970   29.2870   42.7220 C   0  0  0  0  0  0  0  0  0  0  0  0
   37.3680   29.9420   41.7810 C   0  0  0  0  0  0  0  0  0  0  0  0
   38.0420   30.8510   41.0020 N   0  0  0  0  0  0  0  0  0  0  0  0
   39.3610   31.1080   41.1330 C   0  0  0  0  0  0  0  0  0  0  0  0
   40.1270   30.4620   42.0780 N   0  0  0  0  0  0  0  0  0  0  0  0
   40.0520   29.0170   43.6270 H   0  0  0  0  0  0  0  0  0  0  0  0
   36.3270   29.7590   41.6550 H   0  0  0  0  0  0  0  0  0  0  0  0
   40.7520   29.9330   38.7430 Cl  0  0  0  0  0  0  0  0  0  0  0  0
   40.6850   31.6500   39.1520 C   0  0  0  0  0  0  0  0  0  0  0  0
   40.0200   32.0860   40.2740 C   0  0  0  0  0  0  0  0  0  0  0  0
   39.9890   33.4310   40.5630 C   0  0  0  0  0  0  0  0  0  0  0  0
   39.4860   33.8190   41.4210 H   0  0  0  0  0  0  0  0  0  0  0  0
   40.6520   34.2640   39.6720 C   0  0  0  0  0  0  0  0  0  0  0  0
   40.6220   35.3340   39.9080 H   0  0  0  0  0  0  0  0  0  0  0  0
   41.3310   33.8880   38.5400 C   0  0  0  0  0  0  0  0  0  0  0  0
   41.8120   34.6230   37.9160 H   0  0  0  0  0  0  0  0  0  0  0  0
   41.3350   32.5240   38.2890 C   0  0  0  0  0  0  0  0  0  0  0  0
   42.1750   31.9300   36.8650 Cl  0  0  0  0  0  0  0  0  0  0  0  0
   38.0040   26.4890   41.7910 C   0  0  0  0  0  0  0  0  0  0  0  0
   38.9810   25.9660   41.7960 H   0  0  0  0  0  0  0  0  0  0  0  0
   38.0620   27.4210   41.1960 H   0  0  0  0  0  0  0  0  0  0  0  0
   37.0420   25.6100   41.2310 N   0  0  0  0  0  0  0  0  0  0  0  0
   37.0200   24.2810   41.6730 C   0  0  0  0  0  0  0  0  0  0  0  0
   37.9240   23.3800   40.8090 C   0  0  0  0  0  0  0  0  0  0  0  0
   37.2830   23.3120   39.4510 C   0  0  0  0  0  0  0  0  0  0  0  0
   37.2560   24.7310   38.9220 C   0  0  0  0  0  0  0  0  0  0  0  0
   36.6920   25.7450   39.8800 C   0  0  2  0  0  0  0  0  0  0  0  0
   35.9850   23.8990   41.4080 H   0  0  0  0  0  0  0  0  0  0  0  0
   37.0920   24.0650   42.7350 H   0  0  0  0  0  0  0  0  0  0  0  0
   37.9730   22.3600   41.2560 H   0  0  0  0  0  0  0  0  0  0  0  0
   38.9320   23.7820   40.6990 H   0  0  0  0  0  0  0  0  0  0  0  0
   36.2920   22.8430   39.4590 H   0  0  0  0  0  0  0  0  0  0  0  0
   37.9590   22.7440   38.7830 H   0  0  0  0  0  0  0  0  0  0  0  0
   38.2820   25.0270   38.6520 H   0  0  0  0  0  0  0  0  0  0  0  0
   36.6500   24.7500   38.0010 H   0  0  0  0  0  0  0  0  0  0  0  0
   35.5820   25.6860   39.7820 H   0  0  0  0  0  0  0  0  0  0  0  0
   37.0560   27.1160   39.3330 C   0  0  0  0  0  0  0  0  0  0  0  0
   36.6650   27.2220   38.3030 H   0  0  0  0  0  0  0  0  0  0  0  0
   36.5720   27.8580   40.0040 H   0  0  0  0  0  0  0  0  0  0  0  0
   38.1480   27.2770   39.3940 H   0  0  0  0  0  0  0  0  0  0  0  0
  1  4  1  1  0  0  0
  2  1  1  0  0  0  0
  2  6  1  0  0  0  0
  3  2  1  0  0  0  0
  3  1  1  0  0  0  0
  3  7  1  1  0  0  0
  5  2  1  0  0  0  0
  8 14  1  0  0  0  0
  9  8  1  0  0  0  0
  9  1  1  0  0  0  0
 10  9  2  0  0  0  0
 11 12  2  0  0  0  0
 11 10  1  0  0  0  0
 12 13  1  0  0  0  0
 13  8  2  0  0  0  0
 15 10  1  0  0  0  0
 16 17  1  0  0  0  0
 17 18  1  0  0  0  0
 18 19  2  0  0  0  0
 18 12  1  0  0  0  0
 19 20  1  0  0  0  0
 21 22  1  0  0  0  0
 21 19  1  0  0  0  0
 23 21  2  0  0  0  0
 24 23  1  0  0  0  0
 25 23  1  0  0  0  0
 25 17  2  0  0  0  0
 26 25  1  0  0  0  0
 27 28  1  0  0  0  0
 27  3  1  0  0  0  0
 29 27  1  0  0  0  0
 30 31  1  0  0  0  0
 30 27  1  0  0  0  0
 31 37  1  0  0  0  0
 32 38  1  0  0  0  0
 32 31  1  0  0  0  0
 33 40  1  0  0  0  0
 33 32  1  0  0  0  0
 34 33  1  0  0  0  0
 34 35  1  0  0  0  0
 35 44  1  6  0  0  0
 35 30  1  0  0  0  0
 36 31  1  0  0  0  0
 39 32  1  0  0  0  0
 41 33  1  0  0  0  0
 42 34  1  0  0  0  0
 43 34  1  0  0  0  0
 45 48  1  0  0  0  0
 45 35  1  0  0  0  0
 45 47  1  0  0  0  0
 46 45  1  0  0  0  0
M  END
>  <minimizedAffinity>
-5.72732973

$$$$

 OpenBabel03252500383D

 48 51  0  0  1  0  0  0  0  0999 V2000
   35.8330   30.0750   40.7470 C   0  0  1  0  0  0  0  0  0  0  0  0
   34.8310   29.3280   40.1240 C   0  0  0  0  0  0  0  0  0  0  0  0
   35.8190   28.5230   40.8640 C   0  0  1  0  0  0  0  0  0  0  0  0
   35.6400   30.6180   41.7140 H   0  0  0  0  0  0  0  0  0  0  0  0
   34.8320   29.1590   39.0080 H   0  0  0  0  0  0  0  0  0  0  0  0
   33.7860   29.3610   40.5080 H   0  0  0  0  0  0  0  0  0  0  0  0
   35.6930   28.2200   41.9140 H   0  0  0  0  0  0  0  0  0  0  0  0
   38.2200   30.8090   40.8840 C   0  0  0  0  0  0  0  0  0  0  0  0
   37.0360   30.6770   40.0900 C   0  0  0  0  0  0  0  0  0  0  0  0
   37.0330   31.0920   38.7970 C   0  0  0  0  0  0  0  0  0  0  0  0
   38.2030   31.6290   38.3200 N   0  0  0  0  0  0  0  0  0  0  0  0
   39.3220   31.7550   39.0660 C   0  0  0  0  0  0  0  0  0  0  0  0
   39.3570   31.3440   40.3800 N   0  0  0  0  0  0  0  0  0  0  0  0
   38.1910   30.4670   41.9180 H   0  0  0  0  0  0  0  0  0  0  0  0
   36.1650   31.0050   38.1860 H   0  0  0  0  0  0  0  0  0  0  0  0
   40.9680   29.8500   37.4250 Cl  0  0  0  0  0  0  0  0  0  0  0  0
   41.3580   31.5450   37.7320 C   0  0  0  0  0  0  0  0  0  0  0  0
   40.5360   32.3350   38.5010 C   0  0  0  0  0  0  0  0  0  0  0  0
   40.8710   33.6510   38.7200 C   0  0  0  0  0  0  0  0  0  0  0  0
   40.2660   34.3040   39.3080 H   0  0  0  0  0  0  0  0  0  0  0  0
   42.0490   34.0890   38.1300 C   0  0  0  0  0  0  0  0  0  0  0  0
   42.3100   35.1390   38.3080 H   0  0  0  0  0  0  0  0  0  0  0  0
   42.9090   33.3500   37.3560 C   0  0  0  0  0  0  0  0  0  0  0  0
   43.8010   33.7940   36.9460 H   0  0  0  0  0  0  0  0  0  0  0  0
   42.5300   32.0300   37.1620 C   0  0  0  0  0  0  0  0  0  0  0  0
   43.5570   30.9910   36.1870 Cl  0  0  0  0  0  0  0  0  0  0  0  0
   36.8410   27.7330   40.1340 C   0  0  0  0  0  0  0  0  0  0  0  0
   37.5790   28.4080   39.6580 H   0  0  0  0  0  0  0  0  0  0  0  0
   36.3570   27.0850   39.3790 H   0  0  0  0  0  0  0  0  0  0  0  0
   37.5270   26.9420   41.0910 N   0  0  0  0  0  0  0  0  0  0  0  0
   36.9850   26.8400   42.3800 C   0  0  0  0  0  0  0  0  0  0  0  0
   37.5340   27.9350   43.3150 C   0  0  0  0  0  0  0  0  0  0  0  0
   38.9910   27.6290   43.5190 C   0  0  0  0  0  0  0  0  0  0  0  0
   39.6360   27.7020   42.1500 C   0  0  0  0  0  0  0  0  0  0  0  0
   38.9280   26.9140   41.0820 C   0  0  2  0  0  0  0  0  0  0  0  0
   37.4470   25.9010   42.8190 H   0  0  0  0  0  0  0  0  0  0  0  0
   35.9200   26.6660   42.5040 H   0  0  0  0  0  0  0  0  0  0  0  0
   36.9980   27.8950   44.2920 H   0  0  0  0  0  0  0  0  0  0  0  0
   37.4440   28.9340   42.8860 H   0  0  0  0  0  0  0  0  0  0  0  0
   39.1700   26.6700   44.0220 H   0  0  0  0  0  0  0  0  0  0  0  0
   39.4320   28.4500   44.1150 H   0  0  0  0  0  0  0  0  0  0  0  0
   39.6880   28.7570   41.8400 H   0  0  0  0  0  0  0  0  0  0  0  0
   40.6700   27.3260   42.2290 H   0  0  0  0  0  0  0  0  0  0  0  0
   39.2740   25.8580   41.1890 H   0  0  0  0  0  0  0  0  0  0  0  0
   39.4960   27.3730   39.7480 C   0  0  0  0  0  0  0  0  0  0  0  0
   40.5940   27.2300   39.7430 H   0  0  0  0  0  0  0  0  0  0  0  0
   39.0230   26.7340   38.9710 H   0  0  0  0  0  0  0  0  0  0  0  0
   39.2000   28.4180   39.5430 H   0  0  0  0  0  0  0  0  0  0  0  0
  1  3  1  0  0  0  0
  1  4  1  1  0  0  0
  2  6  1  0  0  0  0
  2  1  1  0  0  0  0
  2  3  1  0  0  0  0
  3  7  1  1  0  0  0
  5  2  1  0  0  0  0
  8 14  1  0  0  0  0
  9  1  1  0  0  0  0
  9  8  2  0  0  0  0
 10  9  1  0  0  0  0
 11 10  2  0  0  0  0
 11 12  1  0  0  0  0
 12 13  2  0  0  0  0
 13  8  1  0  0  0  0
 15 10  1  0  0  0  0
 16 17  1  0  0  0  0
 17 18  1  0  0  0  0
 18 19  2  0  0  0  0
 18 12  1  0  0  0  0
 19 20  1  0  0  0  0
 21 22  1  0  0  0  0
 21 19  1  0  0  0  0
 23 21  2  0  0  0  0
 24 23  1  0  0  0  0
 25 23  1  0  0  0  0
 25 17  2  0  0  0  0
 26 25  1  0  0  0  0
 27  3  1  0  0  0  0
 27 30  1  0  0  0  0
 28 27  1  0  0  0  0
 29 27  1  0  0  0  0
 30 31  1  0  0  0  0
 31 37  1  0  0  0  0
 31 36  1  0  0  0  0
 31 32  1  0  0  0  0
 32 33  1  0  0  0  0
 32 38  1  0  0  0  0
 33 40  1  0  0  0  0
 33 41  1  0  0  0  0
 34 43  1  0  0  0  0
 34 33  1  0  0  0  0
 35 30  1  0  0  0  0
 35 44  1  1  0  0  0
 35 34  1  0  0  0  0
 39 32  1  0  0  0  0
 42 34  1  0  0  0  0
 45 35  1  0  0  0  0
 46 45  1  0  0  0  0
 47 45  1  0  0  0  0
 48 45  1  0  0  0  0
M  END
>  <minimizedAffinity>
-5.72066689

$$$$

 OpenBabel03252500383D

 48 51  0  0  1  0  0  0  0  0999 V2000
   40.4620   31.1390   42.5110 C   0  0  1  0  0  0  0  0  0  0  0  0
   41.8350   31.3030   42.3140 C   0  0  0  0  0  0  0  0  0  0  0  0
   40.9910   31.9610   41.3010 C   0  0  1  0  0  0  0  0  0  0  0  0
   39.9070   31.7440   43.2810 H   0  0  0  0  0  0  0  0  0  0  0  0
   42.4760   30.4630   41.9140 H   0  0  0  0  0  0  0  0  0  0  0  0
   42.4280   31.9460   43.0030 H   0  0  0  0  0  0  0  0  0  0  0  0
   40.6570   33.0070   41.3730 H   0  0  0  0  0  0  0  0  0  0  0  0
   40.3580   28.6900   42.0110 C   0  0  0  0  0  0  0  0  0  0  0  0
   39.6530   29.9240   42.1810 C   0  0  0  0  0  0  0  0  0  0  0  0
   38.3020   29.9610   42.0370 C   0  0  0  0  0  0  0  0  0  0  0  0
   37.6830   28.7740   41.7310 N   0  0  0  0  0  0  0  0  0  0  0  0
   38.3460   27.6090   41.5710 C   0  0  0  0  0  0  0  0  0  0  0  0
   39.7150   27.5390   41.7090 N   0  0  0  0  0  0  0  0  0  0  0  0
   41.4410   28.6940   42.1320 H   0  0  0  0  0  0  0  0  0  0  0  0
   37.7540   30.8660   42.1580 H   0  0  0  0  0  0  0  0  0  0  0  0
   37.4180   27.4260   38.7190 Cl  0  0  0  0  0  0  0  0  0  0  0  0
   37.1640   26.1990   39.9640 C   0  0  0  0  0  0  0  0  0  0  0  0
   37.6300   26.3800   41.2450 C   0  0  0  0  0  0  0  0  0  0  0  0
   37.4140   25.4040   42.1890 C   0  0  0  0  0  0  0  0  0  0  0  0
   37.7560   25.4980   43.1960 H   0  0  0  0  0  0  0  0  0  0  0  0
   36.7210   24.2800   41.7600 C   0  0  0  0  0  0  0  0  0  0  0  0
   36.5530   23.5060   42.5180 H   0  0  0  0  0  0  0  0  0  0  0  0
   36.2320   24.0430   40.5000 C   0  0  0  0  0  0  0  0  0  0  0  0
   35.7050   23.1300   40.2750 H   0  0  0  0  0  0  0  0  0  0  0  0
   36.4740   25.0540   39.5810 C   0  0  0  0  0  0  0  0  0  0  0  0
   35.8920   24.8570   37.9360 Cl  0  0  0  0  0  0  0  0  0  0  0  0
   40.8780   31.3930   39.9350 C   0  0  0  0  0  0  0  0  0  0  0  0
   40.3500   30.4200   39.9670 H   0  0  0  0  0  0  0  0  0  0  0  0
   41.8820   31.2800   39.4810 H   0  0  0  0  0  0  0  0  0  0  0  0
   40.0930   32.2910   39.1670 N   0  0  0  0  0  0  0  0  0  0  0  0
   39.6910   33.4960   39.7600 C   0  0  0  0  0  0  0  0  0  0  0  0
   38.3270   33.3560   40.4640 C   0  0  0  0  0  0  0  0  0  0  0  0
   37.3090   33.1390   39.3790 C   0  0  0  0  0  0  0  0  0  0  0  0
   37.7000   31.8530   38.6800 C   0  0  0  0  0  0  0  0  0  0  0  0
   39.1460   31.7800   38.2680 C   0  0  2  0  0  0  0  0  0  0  0  0
   39.4390   34.1810   38.8910 H   0  0  0  0  0  0  0  0  0  0  0  0
   40.4080   34.0810   40.3290 H   0  0  0  0  0  0  0  0  0  0  0  0
   38.0950   34.2940   41.0180 H   0  0  0  0  0  0  0  0  0  0  0  0
   38.2950   32.5060   41.1470 H   0  0  0  0  0  0  0  0  0  0  0  0
   37.2190   33.9860   38.6880 H   0  0  0  0  0  0  0  0  0  0  0  0
   36.3320   32.9460   39.8610 H   0  0  0  0  0  0  0  0  0  0  0  0
   37.4760   31.0060   39.3460 H   0  0  0  0  0  0  0  0  0  0  0  0
   37.0780   31.7420   37.7770 H   0  0  0  0  0  0  0  0  0  0  0  0
   39.2260   32.3310   37.3000 H   0  0  0  0  0  0  0  0  0  0  0  0
   39.4280   30.3290   37.9100 C   0  0  0  0  0  0  0  0  0  0  0  0
   38.7300   29.9990   37.1180 H   0  0  0  0  0  0  0  0  0  0  0  0
   40.4750   30.2980   37.5360 H   0  0  0  0  0  0  0  0  0  0  0  0
   39.3810   29.6950   38.8140 H   0  0  0  0  0  0  0  0  0  0  0  0
  1  4  1  1  0  0  0
  2  1  1  0  0  0  0
  2  6  1  0  0  0  0
  3  7  1  1  0  0  0
  3  2  1  0  0  0  0
  3  1  1  0  0  0  0
  5  2  1  0  0  0  0
  8 14  1  0  0  0  0
  8  9  1  0  0  0  0
  9  1  1  0  0  0  0
 10 15  1  0  0  0  0
 10  9  2  0  0  0  0
 11 10  1  0  0  0  0
 12 13  1  0  0  0  0
 12 11  2  0  0  0  0
 13  8  2  0  0  0  0
 16 17  1  0  0  0  0
 17 18  1  0  0  0  0
 18 12  1  0  0  0  0
 18 19  2  0  0  0  0
 19 20  1  0  0  0  0
 21 19  1  0  0  0  0
 21 22  1  0  0  0  0
 23 21  2  0  0  0  0
 24 23  1  0  0  0  0
 25 17  2  0  0  0  0
 25 23  1  0  0  0  0
 26 25  1  0  0  0  0
 27 28  1  0  0  0  0
 27  3  1  0  0  0  0
 29 27  1  0  0  0  0
 30 31  1  0  0  0  0
 30 27  1  0  0  0  0
 31 37  1  0  0  0  0
 31 32  1  0  0  0  0
 32 38  1  0  0  0  0
 32 39  1  0  0  0  0
 33 41  1  0  0  0  0
 33 32  1  0  0  0  0
 34 42  1  0  0  0  0
 34 33  1  0  0  0  0
 35 44  1  6  0  0  0
 35 34  1  0  0  0  0
 35 30  1  0  0  0  0
 36 31  1  0  0  0  0
 40 33  1  0  0  0  0
 43 34  1  0  0  0  0
 45 35  1  0  0  0  0
 45 48  1  0  0  0  0
 46 45  1  0  0  0  0
 47 45  1  0  0  0  0
M  END
>  <minimizedAffinity>
-5.66472006

$$$$

 OpenBabel03252500383D

 48 51  0  0  1  0  0  0  0  0999 V2000
   36.5210   31.1810   39.3490 C   0  0  1  0  0  0  0  0  0  0  0  0
   36.2060   29.8210   39.3990 C   0  0  0  0  0  0  0  0  0  0  0  0
   36.1840   30.5000   40.7070 C   0  0  1  0  0  0  0  0  0  0  0  0
   35.7660   31.9430   39.0080 H   0  0  0  0  0  0  0  0  0  0  0  0
   37.0040   29.0290   39.2960 H   0  0  0  0  0  0  0  0  0  0  0  0
   35.2410   29.4530   38.9810 H   0  0  0  0  0  0  0  0  0  0  0  0
   35.2810   30.9470   41.1450 H   0  0  0  0  0  0  0  0  0  0  0  0
   38.8580   31.0480   38.4670 C   0  0  0  0  0  0  0  0  0  0  0  0
   37.8890   31.7750   39.2300 C   0  0  0  0  0  0  0  0  0  0  0  0
   38.2300   32.9540   39.8130 C   0  0  0  0  0  0  0  0  0  0  0  0
   39.5200   33.3840   39.6270 N   0  0  0  0  0  0  0  0  0  0  0  0
   40.4350   32.7000   38.9080 C   0  0  0  0  0  0  0  0  0  0  0  0
   40.1220   31.5020   38.3040 N   0  0  0  0  0  0  0  0  0  0  0  0
   38.5550   30.1050   38.0120 H   0  0  0  0  0  0  0  0  0  0  0  0
   37.5280   33.5140   40.3860 H   0  0  0  0  0  0  0  0  0  0  0  0
   42.2140   32.2920   41.2950 Cl  0  0  0  0  0  0  0  0  0  0  0  0
   42.6860   33.0720   39.7820 C   0  0  0  0  0  0  0  0  0  0  0  0
   41.7920   33.2100   38.7460 C   0  0  0  0  0  0  0  0  0  0  0  0
   42.1950   33.8240   37.5820 C   0  0  0  0  0  0  0  0  0  0  0  0
   41.5390   33.9550   36.7500 H   0  0  0  0  0  0  0  0  0  0  0  0
   43.5090   34.2670   37.5470 C   0  0  0  0  0  0  0  0  0  0  0  0
   43.8230   34.7550   36.6160 H   0  0  0  0  0  0  0  0  0  0  0  0
   44.4440   34.1590   38.5460 C   0  0  0  0  0  0  0  0  0  0  0  0
   45.4430   34.5410   38.4100 H   0  0  0  0  0  0  0  0  0  0  0  0
   43.9950   33.5340   39.6990 C   0  0  0  0  0  0  0  0  0  0  0  0
   45.1080   33.3400   41.0440 Cl  0  0  0  0  0  0  0  0  0  0  0  0
   37.2710   30.2690   41.6900 C   0  0  0  0  0  0  0  0  0  0  0  0
   36.9430   30.5730   42.7030 H   0  0  0  0  0  0  0  0  0  0  0  0
   38.1830   30.8210   41.3910 H   0  0  0  0  0  0  0  0  0  0  0  0
   37.5300   28.8740   41.7150 N   0  0  0  0  0  0  0  0  0  0  0  0
   36.6250   28.0430   42.3880 C   0  0  0  0  0  0  0  0  0  0  0  0
   37.0200   27.8520   43.8660 C   0  0  0  0  0  0  0  0  0  0  0  0
   38.2960   27.0590   43.8660 C   0  0  0  0  0  0  0  0  0  0  0  0
   39.3190   27.8980   43.1290 C   0  0  0  0  0  0  0  0  0  0  0  0
   38.8540   28.4230   41.7970 C   0  0  2  0  0  0  0  0  0  0  0  0
   36.8030   27.0070   41.9610 H   0  0  0  0  0  0  0  0  0  0  0  0
   35.5570   28.1830   42.2460 H   0  0  0  0  0  0  0  0  0  0  0  0
   36.2210   27.2840   44.3960 H   0  0  0  0  0  0  0  0  0  0  0  0
   37.1980   28.8000   44.3760 H   0  0  0  0  0  0  0  0  0  0  0  0
   38.1860   26.0540   43.4410 H   0  0  0  0  0  0  0  0  0  0  0  0
   38.6510   26.9840   44.9120 H   0  0  0  0  0  0  0  0  0  0  0  0
   39.6040   28.7490   43.7670 H   0  0  0  0  0  0  0  0  0  0  0  0
   40.2220   27.2870   42.9640 H   0  0  0  0  0  0  0  0  0  0  0  0
   39.0050   27.5940   41.0630 H   0  0  0  0  0  0  0  0  0  0  0  0
   39.8470   29.4950   41.3760 C   0  0  0  0  0  0  0  0  0  0  0  0
   40.8680   29.0670   41.3470 H   0  0  0  0  0  0  0  0  0  0  0  0
   39.5400   29.8230   40.3600 H   0  0  0  0  0  0  0  0  0  0  0  0
   39.7710   30.3720   42.0440 H   0  0  0  0  0  0  0  0  0  0  0  0
  1  4  1  6  0  0  0
  1  2  1  0  0  0  0
  1  3  1  0  0  0  0
  2  3  1  0  0  0  0
  3  7  1  1  0  0  0
  3 27  1  0  0  0  0
  5  2  1  0  0  0  0
  6  2  1  0  0  0  0
  8  9  1  0  0  0  0
  9  1  1  0  0  0  0
  9 10  2  0  0  0  0
 10 15  1  0  0  0  0
 11 10  1  0  0  0  0
 12 11  2  0  0  0  0
 13  8  2  0  0  0  0
 13 12  1  0  0  0  0
 14  8  1  0  0  0  0
 17 16  1  0  0  0  0
 18 12  1  0  0  0  0
 18 17  2  0  0  0  0
 19 18  1  0  0  0  0
 20 19  1  0  0  0  0
 21 19  2  0  0  0  0
 21 23  1  0  0  0  0
 22 21  1  0  0  0  0
 23 25  2  0  0  0  0
 24 23  1  0  0  0  0
 25 17  1  0  0  0  0
 25 26  1  0  0  0  0
 27 30  1  0  0  0  0
 27 28  1  0  0  0  0
 29 27  1  0  0  0  0
 30 35  1  0  0  0  0
 30 31  1  0  0  0  0
 31 32  1  0  0  0  0
 32 39  1  0  0  0  0
 32 38  1  0  0  0  0
 33 32  1  0  0  0  0
 33 41  1  0  0  0  0
 34 42  1  0  0  0  0
 34 33  1  0  0  0  0
 35 44  1  6  0  0  0
 35 34  1  0  0  0  0
 36 31  1  0  0  0  0
 37 31  1  0  0  0  0
 40 33  1  0  0  0  0
 43 34  1  0  0  0  0
 45 35  1  0  0  0  0
 45 48  1  0  0  0  0
 46 45  1  0  0  0  0
 47 45  1  0  0  0  0
M  END
>  <minimizedAffinity>
-5.64959621

$$$$

 OpenBabel03252500383D

 48 51  0  0  1  0  0  0  0  0999 V2000
   37.4370   32.4530   38.8220 C   0  0  1  0  0  0  0  0  0  0  0  0
   36.9690   33.6240   39.4200 C   0  0  0  0  0  0  0  0  0  0  0  0
   38.4070   33.3710   39.6200 C   0  0  1  0  0  0  0  0  0  0  0  0
   37.6430   32.4040   37.7160 H   0  0  0  0  0  0  0  0  0  0  0  0
   36.3530   33.5950   40.3660 H   0  0  0  0  0  0  0  0  0  0  0  0
   36.6700   34.4940   38.7920 H   0  0  0  0  0  0  0  0  0  0  0  0
   39.1920   33.7650   38.9580 H   0  0  0  0  0  0  0  0  0  0  0  0
   38.2370   30.0850   38.9290 C   0  0  0  0  0  0  0  0  0  0  0  0
   37.2710   31.0580   39.3410 C   0  0  0  0  0  0  0  0  0  0  0  0
   36.2540   30.7000   40.1670 C   0  0  0  0  0  0  0  0  0  0  0  0
   36.2170   29.3870   40.5650 N   0  0  0  0  0  0  0  0  0  0  0  0
   37.1270   28.4670   40.1790 C   0  0  0  0  0  0  0  0  0  0  0  0
   38.1690   28.7980   39.3420 N   0  0  0  0  0  0  0  0  0  0  0  0
   39.0400   30.4030   38.2660 H   0  0  0  0  0  0  0  0  0  0  0  0
   35.5220   31.4050   40.4870 H   0  0  0  0  0  0  0  0  0  0  0  0
   36.0860   26.5370   38.1240 Cl  0  0  0  0  0  0  0  0  0  0  0  0
   36.5690   26.1230   39.7720 C   0  0  0  0  0  0  0  0  0  0  0  0
   37.0330   27.0850   40.6380 C   0  0  0  0  0  0  0  0  0  0  0  0
   37.4000   26.7270   41.9150 C   0  0  0  0  0  0  0  0  0  0  0  0
   37.7660   27.4360   42.6240 H   0  0  0  0  0  0  0  0  0  0  0  0
   37.2670   25.3830   42.2360 C   0  0  0  0  0  0  0  0  0  0  0  0
   37.5610   25.1050   43.2550 H   0  0  0  0  0  0  0  0  0  0  0  0
   36.8110   24.3800   41.4170 C   0  0  0  0  0  0  0  0  0  0  0  0
   36.7480   23.3640   41.7720 H   0  0  0  0  0  0  0  0  0  0  0  0
   36.4530   24.7870   40.1400 C   0  0  0  0  0  0  0  0  0  0  0  0
   35.8550   23.5860   39.0070 Cl  0  0  0  0  0  0  0  0  0  0  0  0
   38.9130   32.9170   40.9390 C   0  0  0  0  0  0  0  0  0  0  0  0
   38.5430   31.8960   41.1600 H   0  0  0  0  0  0  0  0  0  0  0  0
   38.6060   33.6260   41.7320 H   0  0  0  0  0  0  0  0  0  0  0  0
   40.3270   32.8600   40.8530 N   0  0  0  0  0  0  0  0  0  0  0  0
   40.9500   33.4480   39.7430 C   0  0  0  0  0  0  0  0  0  0  0  0
   41.1250   32.4400   38.5900 C   0  0  0  0  0  0  0  0  0  0  0  0
   42.1290   31.4260   39.0630 C   0  0  0  0  0  0  0  0  0  0  0  0
   41.5230   30.7630   40.2820 C   0  0  0  0  0  0  0  0  0  0  0  0
   40.9990   31.7210   41.3180 C   0  0  2  0  0  0  0  0  0  0  0  0
   42.0220   33.6250   40.0670 H   0  0  0  0  0  0  0  0  0  0  0  0
   40.6330   34.4310   39.4060 H   0  0  0  0  0  0  0  0  0  0  0  0
   41.5150   32.9670   37.6890 H   0  0  0  0  0  0  0  0  0  0  0  0
   40.1980   31.9230   38.3430 H   0  0  0  0  0  0  0  0  0  0  0  0
   43.1210   31.8510   39.2590 H   0  0  0  0  0  0  0  0  0  0  0  0
   42.2080   30.6380   38.2880 H   0  0  0  0  0  0  0  0  0  0  0  0
   40.7020   30.1060   39.9570 H   0  0  0  0  0  0  0  0  0  0  0  0
   42.2910   30.1290   40.7560 H   0  0  0  0  0  0  0  0  0  0  0  0
   41.8790   32.0380   41.9270 H   0  0  0  0  0  0  0  0  0  0  0  0
   40.1410   30.9080   42.2750 C   0  0  0  0  0  0  0  0  0  0  0  0
   40.7430   30.0830   42.7050 H   0  0  0  0  0  0  0  0  0  0  0  0
   39.8210   31.6070   43.0780 H   0  0  0  0  0  0  0  0  0  0  0  0
   39.2290   30.5500   41.7630 H   0  0  0  0  0  0  0  0  0  0  0  0
  1  4  1  6  0  0  0
  1  9  1  0  0  0  0
  1  2  1  0  0  0  0
  1  3  1  0  0  0  0
  2  3  1  0  0  0  0
  2  5  1  0  0  0  0
  3  7  1  6  0  0  0
  3 27  1  0  0  0  0
  6  2  1  0  0  0  0
  8  9  2  0  0  0  0
  8 13  1  0  0  0  0
  9 10  1  0  0  0  0
 10 15  1  0  0  0  0
 10 11  2  0  0  0  0
 12 11  1  0  0  0  0
 12 18  1  0  0  0  0
 13 12  2  0  0  0  0
 14  8  1  0  0  0  0
 16 17  1  0  0  0  0
 17 25  2  0  0  0  0
 17 18  1  0  0  0  0
 18 19  2  0  0  0  0
 19 21  1  0  0  0  0
 19 20  1  0  0  0  0
 21 22  1  0  0  0  0
 23 24  1  0  0  0  0
 23 21  2  0  0  0  0
 25 23  1  0  0  0  0
 26 25  1  0  0  0  0
 27 28  1  0  0  0  0
 27 29  1  0  0  0  0
 30 27  1  0  0  0  0
 30 35  1  0  0  0  0
 31 36  1  0  0  0  0
 31 30  1  0  0  0  0
 32 33  1  0  0  0  0
 32 31  1  0  0  0  0
 33 40  1  0  0  0  0
 33 34  1  0  0  0  0
 34 43  1  0  0  0  0
 34 35  1  0  0  0  0
 35 44  1  1  0  0  0
 35 45  1  0  0  0  0
 37 31  1  0  0  0  0
 38 32  1  0  0  0  0
 39 32  1  0  0  0  0
 41 33  1  0  0  0  0
 42 34  1  0  0  0  0
 45 46  1  0  0  0  0
 45 47  1  0  0  0  0
 48 45  1  0  0  0  0
M  END
>  <minimizedAffinity>
-5.57334948

$$$$
