REMARK  Name = 
REMARK  3 active torsions:
REMARK  status: ('A' for Active; 'I' for Inactive)
REMARK    1  A    between atoms: C_2  and  N_7
REMARK    2  A    between atoms: C_3  and  C_14
REMARK    3  A    between atoms: C_20  and  C_39
REMARK                            x       y       z     vdW  Elec       q    Type
REMARK                         _______ _______ _______ _____ _____    ______ ____
ROOT
ATOM      1  C   UNL     1      46.512  32.044  45.549  0.00  0.00    +0.000 A 
ATOM      2  C   UNL     1      46.786  32.767  44.358  0.00  0.00    +0.000 A 
ATOM      3  C   UNL     1      47.713  32.090  43.582  0.00  0.00    +0.000 A 
ATOM      4  C   UNL     1      48.310  30.894  43.869  0.00  0.00    +0.000 A 
ATOM      5  C   UNL     1      47.985  30.269  45.035  0.00  0.00    +0.000 A 
ATOM      6  C   UNL     1      47.084  30.839  45.885  0.00  0.00    +0.000 A 
ATOM      7  O   UNL     1      48.729  29.106  45.046  0.00  0.00    +0.000 OA
ATOM      8  C   UNL     1      49.542  29.038  43.910  0.00  0.00    +0.000 C 
ATOM      9  O   UNL     1      49.236  30.187  43.135  0.00  0.00    +0.000 OA
ATOM     10  H   UNL     1      45.832  32.297  46.370  0.00  0.00    +0.000 HD
ATOM     11  H   UNL     1      47.923  32.624  42.708  0.00  0.00    +0.000 HD
ATOM     12  H   UNL     1      46.894  30.270  46.777  0.00  0.00    +0.000 HD
ATOM     13  H   UNL     1      49.256  28.140  43.309  0.00  0.00    +0.000 HD
ENDROOT
BRANCH   8  16
ATOM     14 CL   UNL     1      50.336  27.696  46.587  0.00  0.00    +0.000 Cl
ATOM     15  C   UNL     1      51.469  28.400  45.456  0.00  0.00    +0.000 A 
ATOM     16  C   UNL     1      50.947  28.956  44.315  0.00  0.00    +0.000 A 
ATOM     17  C   UNL     1      51.918  29.494  43.470  0.00  0.00    +0.000 A 
ATOM     18  H   UNL     1      51.584  29.958  42.537  0.00  0.00    +0.000 HD
ATOM     19  C   UNL     1      53.278  29.500  43.700  0.00  0.00    +0.000 A 
ATOM     20  H   UNL     1      53.944  29.947  42.975  0.00  0.00    +0.000 HD
ATOM     21  C   UNL     1      53.725  28.922  44.869  0.00  0.00    +0.000 A 
ATOM     22  H   UNL     1      54.775  28.893  45.109  0.00  0.00    +0.000 HD
ATOM     23  C   UNL     1      52.815  28.374  45.743  0.00  0.00    +0.000 A 
ATOM     24 CL   UNL     1      53.390  27.647  47.217  0.00  0.00    +0.000 Cl
ENDBRANCH   8  16
BRANCH   2  27
ATOM     25  C   UNL     1      45.178  36.032  43.493  0.00  0.00    +0.000 A 
ATOM     26  C   UNL     1      45.983  34.915  43.264  0.00  0.00    +0.000 A 
ATOM     27  C   UNL     1      46.058  33.971  44.246  0.00  0.00    +0.000 A 
ATOM     28  N   UNL     1      45.350  34.166  45.374  0.00  0.00    +0.000 NA
ATOM     29  C   UNL     1      44.578  35.241  45.589  0.00  0.00    +0.000 A 
ATOM     30  N   UNL     1      44.498  36.164  44.653  0.00  0.00    +0.000 NA
ATOM     31  H   UNL     1      45.110  36.801  42.714  0.00  0.00    +0.000 HD
ATOM     32  H   UNL     1      43.989  35.454  46.469  0.00  0.00    +0.000 HD
BRANCH  26  33
ATOM     33  N   UNL     1      46.623  34.811  42.023  0.00  0.00    +0.000 N 
ATOM     34  C   UNL     1      47.901  35.261  41.761  0.00  0.00    +0.000 C 
ATOM     35  C   UNL     1      48.437  34.901  40.393  0.00  0.00    +0.000 C 
ATOM     36  N   UNL     1      48.130  33.610  39.937  0.00  0.00    +0.000 NA
ATOM     37  C   UNL     1      46.820  33.154  40.185  0.00  0.00    +0.000 C 
ATOM     38  C   UNL     1      45.983  34.213  40.865  0.00  0.00    +0.000 C 
ATOM     39  H   UNL     1      47.918  36.391  41.797  0.00  0.00    +0.000 HD
ATOM     40  H   UNL     1      48.683  34.980  42.514  0.00  0.00    +0.000 HD
ATOM     41  H   UNL     1      48.035  35.653  39.660  0.00  0.00    +0.000 HD
ATOM     42  H   UNL     1      49.524  35.047  40.418  0.00  0.00    +0.000 HD
ATOM     43  H   UNL     1      48.529  33.476  39.007  0.00  0.00    +0.000 HD
ATOM     44  H   UNL     1      46.738  32.161  40.674  0.00  0.00    +0.000 HD
ATOM     45  H   UNL     1      46.315  32.997  39.187  0.00  0.00    +0.000 HD
ATOM     46  H   UNL     1      45.863  35.055  40.127  0.00  0.00    +0.000 HD
ATOM     47  H   UNL     1      44.964  33.861  41.093  0.00  0.00    +0.000 HD
ENDBRANCH  26  33
ENDBRANCH   2  27
TORSDOF 3
