
     RDKit          3D

 33 36  0  0  0  0  0  0  0  0999 V2000
   47.2252   31.3579   45.0802 C   0  0  0  0  0  0  0  0  0  0  0  0
   46.8811   32.7054   45.0916 C   0  0  0  0  0  0  0  0  0  0  0  0
   46.2761   33.3197   46.1885 C   0  0  0  0  0  0  0  0  0  0  0  0
   46.0007   32.5625   47.3240 C   0  0  0  0  0  0  0  0  0  0  0  0
   45.4374   32.8139   48.5421 N   0  0  0  0  0  0  0  0  0  0  0  0
   45.4334   31.6599   49.2597 C   0  0  0  0  0  0  0  0  0  0  0  0
   45.9993   30.7015   48.4691 N   0  0  0  0  0  0  0  0  0  0  0  0
   46.3491   31.2351   47.2897 C   0  0  0  0  0  0  0  0  0  0  0  0
   46.9434   30.6068   46.2275 C   0  0  0  0  0  0  0  0  0  0  0  0
   46.5171   35.2039   42.4231 C   0  0  0  0  0  0  0  0  0  0  0  0
   47.7144   35.0587   41.7096 C   0  0  0  0  0  0  0  0  0  0  0  0
   48.6394   34.1031   42.1498 C   0  0  0  0  0  0  0  0  0  0  0  0
   48.3206   33.3615   43.2572 N   0  0  0  0  0  0  0  0  0  0  0  0
   47.1529   33.5263   43.9258 C   0  0  0  0  0  0  0  0  0  0  0  0
   46.2750   34.4358   43.5050 N   0  0  0  0  0  0  0  0  0  0  0  0
   47.6909   30.9397   44.2023 H   0  0  0  0  0  0  0  0  0  0  0  0
   46.0131   34.3682   46.1860 H   0  0  0  0  0  0  0  0  0  0  0  0
   45.0786   33.7467   48.8437 H   0  0  0  0  0  0  0  0  0  0  0  0
   45.0565   31.5391   50.2521 H   0  0  0  0  0  0  0  0  0  0  0  0
   45.7510   35.9156   42.1521 H   0  0  0  0  0  0  0  0  0  0  0  0
   47.8948   35.6779   40.8483 H   0  0  0  0  0  0  0  0  0  0  0  0
   49.5725   33.9640   41.6243 H   0  0  0  0  0  0  0  0  0  0  0  0
   48.7965   29.9452   44.0279 Cl  0  0  0  0  0  0  0  0  0  0  0  0
   48.1752   28.7848   45.2103 C   0  0  0  0  0  0  0  0  0  0  0  0
   47.3068   29.1925   46.2097 C   0  0  0  0  0  0  0  0  0  0  0  0
   46.8319   28.2741   47.1235 C   0  0  0  0  0  0  0  0  0  0  0  0
   46.1546   28.6002   47.9004 H   0  0  0  0  0  0  0  0  0  0  0  0
   47.2545   26.9754   46.9915 C   0  0  0  0  0  0  0  0  0  0  0  0
   46.8597   26.2664   47.7338 H   0  0  0  0  0  0  0  0  0  0  0  0
   48.1180   26.5205   46.0137 C   0  0  0  0  0  0  0  0  0  0  0  0
   48.3672   25.4607   46.0305 H   0  0  0  0  0  0  0  0  0  0  0  0
   48.5673   27.4793   45.1202 C   0  0  0  0  0  0  0  0  0  0  0  0
   49.6676   26.9138   43.8698 Cl  0  0  0  0  0  0  0  0  0  0  0  0
  1  2  2  0
  1  9  1  0
  2  3  1  0
  3  4  2  0
  4  5  1  0
  5  6  1  0
  7  6  2  0
  8  4  1  0
  8  7  1  0
  9  8  2  0
 10 15  2  0
 11 12  2  0
 11 10  1  0
 12 13  1  0
 13 14  2  0
 14  2  1  0
 15 14  1  0
  1 16  1  0
  3 17  1  0
  5 18  1  0
  6 19  1  0
 10 20  1  0
 11 21  1  0
 12 22  1  0
 23 24  1  0
 24 25  2  0
 25 26  1  0
 26 27  1  0
 26 28  2  0
 28 29  1  0
 28 30  1  0
 30 31  1  0
 30 32  2  0
 32 33  1  0
 32 24  1  0
  9 25  1  0
M  ISO  8  16  14  17  14  18   9  19  14  20  14  21  14  22  14  27  15
M  ISO  2  29  15  31  15
M  END
>  <DihAtoms>  (1) 
0,8,24,23

>  <DihDeg>  (1) 
-89.99649973070221

$$$$
