
 OpenBabel03252502243D

 36 38  0  0  1  0  0  0  0  0999 V2000
   46.9770   34.6180   42.1700 N   0  0  0  0  0  0  0  0  0  0  0  0
   48.4270   34.7990   42.2510 C   0  0  0  0  0  0  0  0  0  0  0  0
   48.7470   35.5970   40.9660 C   0  0  0  0  0  0  0  0  0  0  0  0
   48.4980   34.7220   39.7730 C   0  0  0  0  0  0  0  0  0  0  0  0
   47.2400   33.9340   39.8430 C   0  0  0  0  0  0  0  0  0  0  0  0
   46.2810   34.2990   40.9430 C   0  0  1  0  0  0  0  0  0  0  0  0
   48.9800   33.8530   42.2240 H   0  0  0  0  0  0  0  0  0  0  0  0
   48.6560   35.4460   43.1070 H   0  0  0  0  0  0  0  0  0  0  0  0
   49.8120   35.8630   41.0350 H   0  0  0  0  0  0  0  0  0  0  0  0
   48.0940   36.4950   40.9840 H   0  0  0  0  0  0  0  0  0  0  0  0
   48.5520   35.3940   38.8810 H   0  0  0  0  0  0  0  0  0  0  0  0
   49.3710   34.0410   39.6820 H   0  0  0  0  0  0  0  0  0  0  0  0
   47.4610   32.8410   39.9370 H   0  0  0  0  0  0  0  0  0  0  0  0
   46.6970   34.0470   38.8800 H   0  0  0  0  0  0  0  0  0  0  0  0
   45.7970   35.2440   40.6300 H   0  0  0  0  0  0  0  0  0  0  0  0
   44.4980   35.8680   44.6870 C   0  0  0  0  0  0  0  0  0  0  0  0
   45.2340   35.8140   43.4880 C   0  0  0  0  0  0  0  0  0  0  0  0
   46.1780   34.7590   43.3500 C   0  0  0  0  0  0  0  0  0  0  0  0
   46.2940   33.8880   44.3820 N   0  0  0  0  0  0  0  0  0  0  0  0
   45.5690   33.9740   45.5140 C   0  0  0  0  0  0  0  0  0  0  0  0
   44.6650   34.9730   45.6640 N   0  0  0  0  0  0  0  0  0  0  0  0
   43.7690   36.6670   44.8170 H   0  0  0  0  0  0  0  0  0  0  0  0
   45.1190   36.5170   42.6960 H   0  0  0  0  0  0  0  0  0  0  0  0
   45.7840   33.1890   46.2520 H   0  0  0  0  0  0  0  0  0  0  0  0
   45.4420   33.2470   41.1660 O   0  0  0  0  0  0  0  0  0  0  0  0
   44.2450   33.4660   38.3020 Cl  0  0  0  0  0  0  0  0  0  0  0  0
   43.4210   32.9020   39.7110 C   0  0  0  0  0  0  0  0  0  0  0  0
   44.1870   32.9070   40.8550 C   0  0  0  0  0  0  0  0  0  0  0  0
   43.5240   32.4500   42.0090 C   0  0  0  0  0  0  0  0  0  0  0  0
   43.9290   32.3640   43.0310 H   0  0  0  0  0  0  0  0  0  0  0  0
   42.1940   32.0280   41.9770 C   0  0  0  0  0  0  0  0  0  0  0  0
   41.6420   31.6680   42.8310 H   0  0  0  0  0  0  0  0  0  0  0  0
   41.5250   32.0620   40.7960 C   0  0  0  0  0  0  0  0  0  0  0  0
   40.4880   31.7440   40.7160 H   0  0  0  0  0  0  0  0  0  0  0  0
   42.1120   32.4970   39.6320 C   0  0  0  0  0  0  0  0  0  0  0  0
   41.3190   32.5700   38.0790 Cl  0  0  0  0  0  0  0  0  0  0  0  0
  1  2  1  0  0  0  0
  1 18  1  0  0  0  0
  2  8  1  0  0  0  0
  3 10  1  0  0  0  0
  3  9  1  0  0  0  0
  3  2  1  0  0  0  0
  4  5  1  0  0  0  0
  4  3  1  0  0  0  0
  5 13  1  0  0  0  0
  5  6  1  0  0  0  0
  6 15  1  6  0  0  0
  6 25  1  0  0  0  0
  6  1  1  0  0  0  0
  7  2  1  0  0  0  0
 11  4  1  0  0  0  0
 12  4  1  0  0  0  0
 14  5  1  0  0  0  0
 16 22  1  0  0  0  0
 16 21  1  0  0  0  0
 17 16  2  0  0  0  0
 18 17  1  0  0  0  0
 18 19  2  0  0  0  0
 19 20  1  0  0  0  0
 20 21  2  0  0  0  0
 20 24  1  0  0  0  0
 23 17  1  0  0  0  0
 26 27  1  0  0  0  0
 27 28  1  0  0  0  0
 28 25  1  0  0  0  0
 28 29  2  0  0  0  0
 29 30  1  0  0  0  0
 31 29  1  0  0  0  0
 31 32  1  0  0  0  0
 33 31  2  0  0  0  0
 34 33  1  0  0  0  0
 35 27  2  0  0  0  0
 35 33  1  0  0  0  0
 36 35  1  0  0  0  0
M  END
>  <minimizedAffinity>
-5.48003769

>  <minimizedRMSD>
0.580789566

$$$$
