
     RDKit          3D

 44 47  0  0  0  0  0  0  0  0999 V2000
   49.3428   33.2205   41.4921 N   0  0  0  0  0  0  0  0  0  0  0  0
   50.6674   33.1245   42.0459 C   0  0  0  0  0  0  0  0  0  0  0  0
   51.3295   31.8059   41.7907 C   0  0  0  0  0  0  0  0  0  0  0  0
   50.5837   30.7274   42.5491 C   0  0  0  0  0  0  0  0  0  0  0  0
   49.0926   30.9922   42.5208 C   0  0  0  0  0  0  0  0  0  0  0  0
   48.7604   31.9131   41.3594 C   0  0  2  0  0  0  0  0  0  0  0  0
   47.1862   34.5506   42.0128 C   0  0  1  0  0  0  0  0  0  0  0  0
   48.3187   35.4634   41.7258 C   0  0  0  0  0  0  0  0  0  0  0  0
   48.5829   34.1209   42.2791 C   0  0  2  0  0  0  0  0  0  0  0  0
   45.4974   36.0184   43.1543 C   0  0  0  0  0  0  0  0  0  0  0  0
   46.2846   34.8467   43.1482 C   0  0  0  0  0  0  0  0  0  0  0  0
   46.1784   33.9767   44.2439 C   0  0  0  0  0  0  0  0  0  0  0  0
   45.3267   34.3092   45.2466 N   0  0  0  0  0  0  0  0  0  0  0  0
   44.5897   35.4359   45.2211 C   0  0  0  0  0  0  0  0  0  0  0  0
   44.6642   36.3044   44.1774 N   0  0  0  0  0  0  0  0  0  0  0  0
   49.0748   31.2472   40.1359 N   0  0  0  0  0  0  0  0  0  0  0  0
   51.2796   33.8926   41.5136 H   0  0  0  0  0  0  0  0  0  0  0  0
   50.6979   33.3362   43.1303 H   0  0  0  0  0  0  0  0  0  0  0  0
   52.3290   31.8695   42.2766 H   0  0  0  0  0  0  0  0  0  0  0  0
   51.5101   31.5804   40.7405 H   0  0  0  0  0  0  0  0  0  0  0  0
   50.7651   29.7830   42.0020 H   0  0  0  0  0  0  0  0  0  0  0  0
   50.9626   30.5845   43.5766 H   0  0  0  0  0  0  0  0  0  0  0  0
   48.7415   31.5093   43.4377 H   0  0  0  0  0  0  0  0  0  0  0  0
   48.5227   30.0568   42.3609 H   0  0  0  0  0  0  0  0  0  0  0  0
   47.6539   32.0461   41.3769 H   0  0  0  0  0  0  0  0  0  0  0  0
   46.6548   34.1038   41.1573 H   0  0  0  0  0  0  0  0  0  0  0  0
   48.5252   35.6650   40.6600 H   0  0  0  0  0  0  0  0  0  0  0  0
   48.3819   36.3911   42.3436 H   0  0  0  0  0  0  0  0  0  0  0  0
   48.8576   34.1222   43.3727 H   0  0  0  0  0  0  0  0  0  0  0  0
   45.5594   36.7044   42.3245 H   0  0  0  0  0  0  0  0  0  0  0  0
   46.7681   33.0767   44.2631 H   0  0  0  0  0  0  0  0  0  0  0  0
   43.9755   35.5161   46.1148 H   0  0  0  0  0  0  0  0  0  0  0  0
   49.5603   30.2986   40.1770 H   0  0  0  0  0  0  0  0  0  0  0  0
   46.2342   31.7105   39.1647 Cl  0  0  0  0  0  0  0  0  0  0  0  0
   47.6476   31.8410   38.1394 C   0  0  0  0  0  0  0  0  0  0  0  0
   48.8707   31.5921   38.7742 C   0  0  0  0  0  0  0  0  0  0  0  0
   49.9904   31.6955   37.9612 C   0  0  0  0  0  0  0  0  0  0  0  0
   50.9537   31.5181   38.3697 H   0  0  0  0  0  0  0  0  0  0  0  0
   49.9827   32.0154   36.6184 C   0  0  0  0  0  0  0  0  0  0  0  0
   50.8782   32.0818   36.0374 H   0  0  0  0  0  0  0  0  0  0  0  0
   48.7552   32.2555   36.0225 C   0  0  0  0  0  0  0  0  0  0  0  0
   48.6466   32.5121   34.9798 H   0  0  0  0  0  0  0  0  0  0  0  0
   47.6227   32.1610   36.8020 C   0  0  0  0  0  0  0  0  0  0  0  0
   45.9999   32.4359   36.1922 Cl  0  0  0  0  0  0  0  0  0  0  0  0
  1  2  1  0
  1  9  1  0
  3  2  1  0
  3  4  1  0
  5  4  1  0
  6  1  1  0
  6  5  1  0
  7  9  1  0
  7 11  1  0
  8  7  1  0
  8  9  1  0
 10 15  2  0
 11 10  1  0
 11 12  2  0
 12 13  1  0
 14 13  2  0
 15 14  1  0
 16  6  1  0
  2 17  1  0
  2 18  1  0
  3 19  1  0
  3 20  1  0
  4 21  1  0
  4 22  1  0
  5 23  1  0
  5 24  1  0
  6 25  1  6
  7 26  1  6
  8 27  1  0
  8 28  1  0
  9 29  1  1
 10 30  1  0
 12 31  1  0
 14 32  1  0
 16 33  1  0
 34 35  1  0
 35 36  2  0
 36 37  1  0
 37 38  1  0
 37 39  2  0
 39 40  1  0
 39 41  1  0
 41 42  1  0
 41 43  2  0
 43 44  1  0
 43 35  1  0
 16 36  1  0
M  ISO  8  17  13  18  13  19  13  20  13  21  13  22  13  23  13  24  13
M  ISO  8  25  13  26  13  27  13  28  13  29  13  30  14  31  14  32  14
M  ISO  4  33   5  38  15  40  15  42  15
M  END
>  <DihAtoms>  (1) 
5,15,35,34

>  <DihDeg>  (1) 
-179.76666774576404

$$$$
