
 OpenBabel03252507333D

 51 54  0  0  1  0  0  0  0  0999 V2000
   47.0580   32.4400   45.3340 C   0  0  0  0  0  0  0  0  0  0  0  0
   45.9990   33.1110   45.9260 C   0  0  0  0  0  0  0  0  0  0  0  0
   45.3700   34.1730   45.2350 C   0  0  0  0  0  0  0  0  0  0  0  0
   45.8790   34.4770   43.9740 N   0  0  0  0  0  0  0  0  0  0  0  0
   46.9060   33.7910   43.4610 C   0  0  0  0  0  0  0  0  0  0  0  0
   47.4840   32.7910   44.1260 N   0  0  0  0  0  0  0  0  0  0  0  0
   45.4870   33.0740   46.8620 H   0  0  0  0  0  0  0  0  0  0  0  0
   44.5600   34.7890   45.5220 H   0  0  0  0  0  0  0  0  0  0  0  0
   47.6520   31.3420   46.0720 C   0  0  2  0  0  0  0  0  0  0  0  0
   47.2200   29.9630   45.4870 C   0  0  0  0  0  0  0  0  0  0  0  0
   47.9700   28.8760   46.1730 C   0  0  0  0  0  0  0  0  0  0  0  0
   48.0840   28.9900   47.6560 C   0  0  0  0  0  0  0  0  0  0  0  0
   48.2570   30.3370   48.1400 C   0  0  0  0  0  0  0  0  0  0  0  0
   47.3100   31.3630   47.4790 C   0  0  2  0  0  0  0  0  0  0  0  0
   48.7500   31.3420   45.8810 H   0  0  0  0  0  0  0  0  0  0  0  0
   46.1280   29.8560   45.4990 H   0  0  0  0  0  0  0  0  0  0  0  0
   47.5200   30.0270   44.4200 H   0  0  0  0  0  0  0  0  0  0  0  0
   47.3900   27.9250   45.9820 H   0  0  0  0  0  0  0  0  0  0  0  0
   48.9120   28.7350   45.6100 H   0  0  0  0  0  0  0  0  0  0  0  0
   47.6710   28.1870   48.2690 H   0  0  0  0  0  0  0  0  0  0  0  0
   49.1750   28.6070   47.7830 H   0  0  0  0  0  0  0  0  0  0  0  0
   49.2630   30.8140   48.0620 H   0  0  0  0  0  0  0  0  0  0  0  0
   48.0240   30.3900   49.2400 H   0  0  0  0  0  0  0  0  0  0  0  0
   47.5610   32.2680   48.0350 H   0  0  0  0  0  0  0  0  0  0  0  0
   45.9300   30.9130   47.6690 N   0  0  0  0  0  0  0  0  0  0  0  0
   45.2090   30.5720   48.8260 C   0  0  0  0  0  0  0  0  0  0  0  0
   44.7330   31.4470   49.6360 O   0  0  0  0  0  0  0  0  0  0  0  0
   45.0360   29.1690   49.0310 N   0  0  0  0  0  0  0  0  0  0  0  0
   45.2710   30.7130   46.8240 H   0  0  0  0  0  0  0  0  0  0  0  0
   44.4860   28.3850   48.6190 H   0  0  0  0  0  0  0  0  0  0  0  0
   45.2230   28.2490   49.5150 H   0  0  0  0  0  0  0  0  0  0  0  0
   47.4040   34.1760   42.1370 C   0  0  0  0  0  0  0  0  0  0  0  0
   48.3020   35.2100   41.9930 C   0  0  0  0  0  0  0  0  0  0  0  0
   48.8150   35.6280   40.7800 C   0  0  0  0  0  0  0  0  0  0  0  0
   48.3570   34.9220   39.6840 C   0  0  0  0  0  0  0  0  0  0  0  0
   47.4610   33.8890   39.8140 C   0  0  0  0  0  0  0  0  0  0  0  0
   46.9880   33.5200   41.0430 N   0  0  0  0  0  0  0  0  0  0  0  0
   48.6070   35.7070   42.9030 H   0  0  0  0  0  0  0  0  0  0  0  0
   49.5270   36.4560   40.7280 H   0  0  0  0  0  0  0  0  0  0  0  0
   48.7450   35.2320   38.7240 H   0  0  0  0  0  0  0  0  0  0  0  0
   49.3860   31.9500   38.6140 Cl  0  0  0  0  0  0  0  0  0  0  0  0
   47.7530   32.2140   38.0150 C   0  0  0  0  0  0  0  0  0  0  0  0
   46.9720   33.1400   38.6640 C   0  0  0  0  0  0  0  0  0  0  0  0
   45.7080   33.2870   38.1340 C   0  0  0  0  0  0  0  0  0  0  0  0
   45.0240   33.9780   38.5600 H   0  0  0  0  0  0  0  0  0  0  0  0
   45.2390   32.5900   37.0550 C   0  0  0  0  0  0  0  0  0  0  0  0
   44.2310   32.7270   36.6550 H   0  0  0  0  0  0  0  0  0  0  0  0
   46.0560   31.6670   36.4290 C   0  0  0  0  0  0  0  0  0  0  0  0
   45.7500   31.0840   35.5760 H   0  0  0  0  0  0  0  0  0  0  0  0
   47.3290   31.4850   36.9250 C   0  0  0  0  0  0  0  0  0  0  0  0
   48.4270   30.3210   36.1730 Cl  0  0  0  0  0  0  0  0  0  0  0  0
  1  2  1  0  0  0  0
  1  9  1  0  0  0  0
  2  7  1  0  0  0  0
  3  8  1  0  0  0  0
  3  2  2  0  0  0  0
  4  3  1  0  0  0  0
  5  4  2  0  0  0  0
  5  6  1  0  0  0  0
  6  1  2  0  0  0  0
  9 15  1  6  0  0  0
  9 14  1  0  0  0  0
 10 16  1  0  0  0  0
 10  9  1  0  0  0  0
 10 11  1  0  0  0  0
 11 12  1  0  0  0  0
 12 21  1  0  0  0  0
 12 13  1  0  0  0  0
 12 20  1  0  0  0  0
 13 23  1  0  0  0  0
 14 25  1  0  0  0  0
 14 24  1  1  0  0  0
 14 13  1  0  0  0  0
 17 10  1  0  0  0  0
 18 11  1  0  0  0  0
 19 11  1  0  0  0  0
 22 13  1  0  0  0  0
 25 26  1  0  0  0  0
 26 28  1  0  0  0  0
 26 27  2  0  0  0  0
 28 31  1  0  0  0  0
 29 25  1  0  0  0  0
 30 28  1  0  0  0  0
 32  5  1  0  0  0  0
 33 32  1  0  0  0  0
 33 38  1  0  0  0  0
 34 33  2  0  0  0  0
 35 36  2  0  0  0  0
 35 34  1  0  0  0  0
 36 37  1  0  0  0  0
 37 32  2  0  0  0  0
 39 34  1  0  0  0  0
 40 35  1  0  0  0  0
 42 41  1  0  0  0  0
 42 43  1  0  0  0  0
 43 36  1  0  0  0  0
 44 45  1  0  0  0  0
 44 43  2  0  0  0  0
 46 44  1  0  0  0  0
 47 46  1  0  0  0  0
 48 50  1  0  0  0  0
 48 46  2  0  0  0  0
 49 48  1  0  0  0  0
 50 42  2  0  0  0  0
 51 50  1  0  0  0  0
M  END
>  <minimizedAffinity>
-6.42130375

>  <minimizedRMSD>
0.912044466

$$$$
