REMARK  Name = 
REMARK  2 active torsions:
REMARK  status: ('A' for Active; 'I' for Inactive)
REMARK    1  A    between atoms: C_3  and  S_7
REMARK    2  A    between atoms: C_5  and  C_13
REMARK                            x       y       z     vdW  Elec       q    Type
REMARK                         _______ _______ _______ _____ _____    ______ ____
ROOT
ATOM      1 CL   UNL     1      44.171  31.418  44.925  0.00  0.00    +0.000 Cl
ATOM      2  C   UNL     1      45.104  31.863  46.320  0.00  0.00    +0.000 A 
ATOM      3  C   UNL     1      45.701  33.120  46.468  0.00  0.00    +0.000 A 
ATOM      4  C   UNL     1      46.448  33.496  47.570  0.00  0.00    +0.000 A 
ATOM      5  H   UNL     1      46.883  34.461  47.640  0.00  0.00    +0.000 HD
ATOM      6  C   UNL     1      46.604  32.551  48.586  0.00  0.00    +0.000 A 
ATOM      7  H   UNL     1      47.192  32.869  49.436  0.00  0.00    +0.000 HD
ATOM      8  C   UNL     1      46.044  31.286  48.512  0.00  0.00    +0.000 A 
ATOM      9  H   UNL     1      46.175  30.567  49.309  0.00  0.00    +0.000 HD
ATOM     10  C   UNL     1      45.315  31.000  47.375  0.00  0.00    +0.000 A 
ATOM     11 CL   UNL     1      44.616  29.372  47.321  0.00  0.00    +0.000 Cl
ENDROOT
BRANCH   3  16
ATOM     12  C   UNL     1      44.545  36.023  44.529  0.00  0.00    +0.000 A 
ATOM     13  C   UNL     1      45.261  35.894  43.317  0.00  0.00    +0.000 A 
ATOM     14  C   UNL     1      46.129  34.796  43.208  0.00  0.00    +0.000 A 
ATOM     15  N   UNL     1      46.234  33.927  44.259  0.00  0.00    +0.000 NA
ATOM     16  C   UNL     1      45.525  34.106  45.386  0.00  0.00    +0.000 A 
ATOM     17  N   UNL     1      44.687  35.141  45.527  0.00  0.00    +0.000 NA
ATOM     18  H   UNL     1      43.866  36.846  44.667  0.00  0.00    +0.000 HD
ATOM     19  H   UNL     1      45.143  36.613  42.508  0.00  0.00    +0.000 HD
BRANCH  14  20
ATOM     20  S   UNL     1      47.069  34.566  41.703  0.00  0.00    +0.000 S 
ATOM     21  H   UNL     1      48.425  34.421  42.048  0.00  0.00    +0.000 HD
ENDBRANCH  14  20
ENDBRANCH   3  16
TORSDOF 2
