
 OpenBabel03252506523D

 33 36  0  0  0  0  0  0  0  0999 V2000
   47.1320   31.3330   45.1520 C   0  0  0  0  0  0  0  0  0  0  0  0
   46.8210   32.6880   45.1740 C   0  0  0  0  0  0  0  0  0  0  0  0
   46.2600   33.3160   46.2860 C   0  0  0  0  0  0  0  0  0  0  0  0
   45.9970   32.5630   47.4280 C   0  0  0  0  0  0  0  0  0  0  0  0
   45.4720   32.8270   48.6610 N   0  0  0  0  0  0  0  0  0  0  0  0
   45.4590   31.6720   49.3780 C   0  0  0  0  0  0  0  0  0  0  0  0
   45.9810   30.7010   48.5720 N   0  0  0  0  0  0  0  0  0  0  0  0
   46.3120   31.2280   47.3840 C   0  0  0  0  0  0  0  0  0  0  0  0
   46.8630   30.5880   46.3050 C   0  0  0  0  0  0  0  0  0  0  0  0
   47.5650   30.9050   44.2610 H   0  0  0  0  0  0  0  0  0  0  0  0
   46.0230   34.3700   46.2920 H   0  0  0  0  0  0  0  0  0  0  0  0
   45.1450   33.7680   48.9730 H   0  0  0  0  0  0  0  0  0  0  0  0
   45.1060   31.5590   50.3800 H   0  0  0  0  0  0  0  0  0  0  0  0
   44.5220   28.9000   45.6870 Cl  0  0  0  0  0  0  0  0  0  0  0  0
   46.1540   28.2920   45.9950 C   0  0  0  0  0  0  0  0  0  0  0  0
   47.1920   29.1640   46.2770 C   0  0  0  0  0  0  0  0  0  0  0  0
   48.4580   28.6720   46.5150 C   0  0  0  0  0  0  0  0  0  0  0  0
   49.2630   29.3600   46.7350 H   0  0  0  0  0  0  0  0  0  0  0  0
   48.6280   27.3120   46.4580 C   0  0  0  0  0  0  0  0  0  0  0  0
   49.6490   26.9480   46.6510 H   0  0  0  0  0  0  0  0  0  0  0  0
   47.6270   26.4010   46.1810 C   0  0  0  0  0  0  0  0  0  0  0  0
   47.9070   25.3490   46.1690 H   0  0  0  0  0  0  0  0  0  0  0  0
   46.3730   26.9430   45.9500 C   0  0  0  0  0  0  0  0  0  0  0  0
   45.0890   25.7950   45.5960 Cl  0  0  0  0  0  0  0  0  0  0  0  0
   46.4460   35.1980   42.5170 C   0  0  0  0  0  0  0  0  0  0  0  0
   47.6210   35.0260   41.7730 C   0  0  0  0  0  0  0  0  0  0  0  0
   48.5340   34.0480   42.1880 C   0  0  0  0  0  0  0  0  0  0  0  0
   48.2280   33.3130   43.3030 N   0  0  0  0  0  0  0  0  0  0  0  0
   47.0820   33.5040   44.0020 C   0  0  0  0  0  0  0  0  0  0  0  0
   46.2150   34.4350   43.6040 N   0  0  0  0  0  0  0  0  0  0  0  0
   45.6900   35.9280   42.2670 H   0  0  0  0  0  0  0  0  0  0  0  0
   47.7940   35.6420   40.9070 H   0  0  0  0  0  0  0  0  0  0  0  0
   49.4500   33.8880   41.6380 H   0  0  0  0  0  0  0  0  0  0  0  0
  1  2  2  0  0  0  0
  1  9  1  0  0  0  0
  2  3  1  0  0  0  0
  3 11  1  0  0  0  0
  3  4  2  0  0  0  0
  4  5  1  0  0  0  0
  5 12  1  0  0  0  0
  5  6  1  0  0  0  0
  6 13  1  0  0  0  0
  7  6  2  0  0  0  0
  8  4  1  0  0  0  0
  8  7  1  0  0  0  0
  9  8  2  0  0  0  0
 10  1  1  0  0  0  0
 14 15  1  0  0  0  0
 15 16  1  0  0  0  0
 16  9  1  0  0  0  0
 16 17  2  0  0  0  0
 17 18  1  0  0  0  0
 19 17  1  0  0  0  0
 19 20  1  0  0  0  0
 21 19  2  0  0  0  0
 22 21  1  0  0  0  0
 23 15  2  0  0  0  0
 23 21  1  0  0  0  0
 24 23  1  0  0  0  0
 25 30  1  0  0  0  0
 26 27  1  0  0  0  0
 26 25  2  0  0  0  0
 27 28  2  0  0  0  0
 28 29  1  0  0  0  0
 29  2  1  0  0  0  0
 30 29  2  0  0  0  0
 31 25  1  0  0  0  0
 32 26  1  0  0  0  0
 33 27  1  0  0  0  0
M  END
>  <minimizedAffinity>
-5.46962261

>  <minimizedRMSD>
1.34129107

$$$$
